KHS.pdb
     RDKit          3D

 26 26  0  0  1  0  0  0  0  0999 V2000
   21.7966  -13.5271  -16.3905 N   0  0  0  0  0  0  0  0  0  0  0  0
   21.2922  -12.2137  -16.7309 C   0  0  1  0  0  0  0  0  0  0  0  0
   19.8089  -12.2108  -16.5175 C   0  0  0  0  0  0  0  0  0  0  0  0
   19.1707  -13.5286  -16.8960 C   0  0  0  0  0  0  0  0  0  0  0  0
   17.6597  -13.4534  -16.8240 C   0  0  0  0  0  0  0  0  0  0  0  0
   17.0180  -14.7308  -17.3149 C   0  0  0  0  0  0  0  0  0  0  0  0
   17.3491  -15.8710  -16.4910 N   0  0  0  0  0  0  0  0  0  0  0  0
   21.9898  -11.1825  -15.9223 C   0  0  0  0  0  0  0  0  0  0  0  0
   22.2816  -11.3852  -14.7046 O   0  0  0  0  0  0  0  0  0  0  0  0
   22.3442   -9.9609  -16.4783 N   0  0  0  0  0  0  0  0  0  0  0  0
   23.1279   -8.9104  -15.7587 C   0  0  1  0  0  0  0  0  0  0  0  0
   24.4279   -8.9317  -16.5290 C   0  0  0  0  0  0  0  0  0  0  0  0
   25.4019   -9.9535  -16.2225 C   0  0  0  0  0  0  0  0  0  0  0  0
   25.6436  -11.0248  -17.1063 C   0  0  0  0  0  0  0  0  0  0  0  0
   26.5793  -11.7914  -16.5601 N   0  0  0  0  0  0  0  0  0  0  0  0
   26.9239  -11.2390  -15.3791 C   0  0  0  0  0  0  0  0  0  0  0  0
   26.2023  -10.1316  -15.1945 N   0  0  0  0  0  0  0  0  0  0  0  0
   22.4595   -7.6310  -15.9395 C   0  0  0  0  0  0  0  0  0  0  0  0
   22.0413   -7.3089  -17.0836 O   0  0  0  0  0  0  0  0  0  0  0  0
   20.0871   -6.1406  -13.3909 O   0  0  0  0  0  0  0  0  0  0  0  0
   20.1280   -5.6428  -14.6891 C   0  0  0  0  0  0  0  0  0  0  0  0
   21.5716   -5.4679  -15.1495 C   0  0  2  0  0  0  0  0  0  0  0  0
   22.2531   -6.7368  -14.8800 N   0  0  0  0  0  0  0  0  0  0  0  0
   22.1752   -4.3908  -14.3615 C   0  0  0  0  0  0  0  0  0  0  0  0
   23.1938   -4.6086  -13.4456 O   0  0  0  0  0  0  0  0  0  0  0  0
   21.7814   -3.2043  -14.4915 O   0  0  0  0  0  0  0  0  0  0  0  0
  2  1  1  1
  3  2  1  0
  4  5  1  0
  4  3  1  0
  5  6  1  0
  6  7  1  0
  8  2  1  0
  8  9  2  0
 10  8  1  0
 11 12  1  6
 11 10  1  0
 13 17  1  0
 13 12  1  0
 14 13  2  0
 15 14  1  0
 15 16  1  0
 16 17  2  0
 18 11  1  0
 19 18  2  0
 21 20  1  0
 22 21  1  1
 22 23  1  0
 23 18  1  0
 24 22  1  0
 24 25  1  0
 26 24  2  0
M  END
$$$$
