KHS.pdb
     RDKit          3D

 26 26  0  0  1  0  0  0  0  0999 V2000
   16.6914  -11.8811  -17.0895 N   0  0  0  0  0  0  0  0  0  0  0  0
   18.0501  -11.4358  -16.8638 C   0  0  1  0  0  0  0  0  0  0  0  0
   18.9452  -12.1522  -17.8289 C   0  0  0  0  0  0  0  0  0  0  0  0
   18.9021  -13.6530  -17.6480 C   0  0  0  0  0  0  0  0  0  0  0  0
   19.6970  -14.0878  -16.4344 C   0  0  0  0  0  0  0  0  0  0  0  0
   19.6254  -15.5841  -16.2327 C   0  0  0  0  0  0  0  0  0  0  0  0
   20.4891  -16.0432  -15.1689 N   0  0  0  0  0  0  0  0  0  0  0  0
   18.1244   -9.9595  -17.0005 C   0  0  0  0  0  0  0  0  0  0  0  0
   17.7704   -9.3776  -18.0705 O   0  0  0  0  0  0  0  0  0  0  0  0
   18.5859   -9.1698  -15.9563 N   0  0  0  0  0  0  0  0  0  0  0  0
   18.7236   -7.6828  -16.0299 C   0  0  1  0  0  0  0  0  0  0  0  0
   17.4551   -7.2338  -15.3421 C   0  0  0  0  0  0  0  0  0  0  0  0
   17.2547   -5.8233  -15.1035 C   0  0  0  0  0  0  0  0  0  0  0  0
   18.2156   -4.8695  -15.4958 C   0  0  0  0  0  0  0  0  0  0  0  0
   17.7577   -3.6732  -15.1484 N   0  0  0  0  0  0  0  0  0  0  0  0
   16.5573   -3.8489  -14.5595 C   0  0  0  0  0  0  0  0  0  0  0  0
   16.2725   -5.1526  -14.5425 N   0  0  0  0  0  0  0  0  0  0  0  0
   19.8845   -7.2875  -15.2473 C   0  0  0  0  0  0  0  0  0  0  0  0
   20.1595   -7.9152  -14.1900 O   0  0  0  0  0  0  0  0  0  0  0  0
   23.4313   -7.5469  -15.8930 O   0  0  0  0  0  0  0  0  0  0  0  0
   23.1130   -6.1955  -15.8090 C   0  0  0  0  0  0  0  0  0  0  0  0
   21.9412   -5.9802  -14.8567 C   0  0  2  0  0  0  0  0  0  0  0  0
   20.7223   -6.2309  -15.6303 N   0  0  0  0  0  0  0  0  0  0  0  0
   21.9741   -4.5893  -14.3988 C   0  0  0  0  0  0  0  0  0  0  0  0
   22.6756   -4.1843  -13.2727 O   0  0  0  0  0  0  0  0  0  0  0  0
   21.3532   -3.6940  -15.0253 O   0  0  0  0  0  0  0  0  0  0  0  0
  2  1  1  6
  3  2  1  0
  4  5  1  0
  4  3  1  0
  5  6  1  0
  6  7  1  0
  8  2  1  0
  8  9  2  0
 10  8  1  0
 11 12  1  1
 11 10  1  0
 13 17  1  0
 13 12  1  0
 14 13  2  0
 15 14  1  0
 15 16  1  0
 16 17  2  0
 18 11  1  0
 19 18  2  0
 21 20  1  0
 22 21  1  6
 22 23  1  0
 23 18  1  0
 24 22  1  0
 24 25  1  0
 26 24  2  0
M  END
$$$$
