KHS.pdb
     RDKit          3D

 26 26  0  0  1  0  0  0  0  0999 V2000
   24.4059  -32.9710   -6.5833 N   0  0  0  0  0  0  0  0  0  0  0  0
   24.7213  -34.0729   -5.6992 C   0  0  1  0  0  0  0  0  0  0  0  0
   25.6355  -35.0114   -6.4266 C   0  0  0  0  0  0  0  0  0  0  0  0
   24.9592  -35.6749   -7.6054 C   0  0  0  0  0  0  0  0  0  0  0  0
   24.6088  -37.1171   -7.3034 C   0  0  0  0  0  0  0  0  0  0  0  0
   24.0405  -37.8146   -8.5179 C   0  0  0  0  0  0  0  0  0  0  0  0
   23.5733  -39.1502   -8.2235 N   0  0  0  0  0  0  0  0  0  0  0  0
   25.3151  -33.5539   -4.4415 C   0  0  0  0  0  0  0  0  0  0  0  0
   26.2582  -32.7057   -4.4582 O   0  0  0  0  0  0  0  0  0  0  0  0
   24.8533  -33.9841   -3.2051 N   0  0  0  0  0  0  0  0  0  0  0  0
   25.3489  -33.4558   -1.8971 C   0  0  1  0  0  0  0  0  0  0  0  0
   24.1371  -32.6982   -1.4059 C   0  0  0  0  0  0  0  0  0  0  0  0
   24.1338  -32.1927   -0.0527 C   0  0  0  0  0  0  0  0  0  0  0  0
   25.2083  -31.4295    0.4475 C   0  0  0  0  0  0  0  0  0  0  0  0
   24.9228  -31.1111    1.7040 N   0  0  0  0  0  0  0  0  0  0  0  0
   23.7200  -31.6448    1.9989 C   0  0  0  0  0  0  0  0  0  0  0  0
   23.2614  -32.2928    0.9261 N   0  0  0  0  0  0  0  0  0  0  0  0
   25.6249  -34.5824   -1.0191 C   0  0  0  0  0  0  0  0  0  0  0  0
   24.8567  -35.5809   -1.0354 O   0  0  0  0  0  0  0  0  0  0  0  0
   29.2927  -35.5641    0.3204 O   0  0  0  0  0  0  0  0  0  0  0  0
   28.3208  -35.6345    1.3130 C   0  0  0  0  0  0  0  0  0  0  0  0
   26.9344  -35.7825    0.6946 C   0  0  2  0  0  0  0  0  0  0  0  0
   26.7267  -34.6052   -0.1528 N   0  0  0  0  0  0  0  0  0  0  0  0
   25.9504  -35.8065    1.7793 C   0  0  0  0  0  0  0  0  0  0  0  0
   25.9351  -36.7878    2.7596 O   0  0  0  0  0  0  0  0  0  0  0  0
   25.0654  -34.9178    1.8608 O   0  0  0  0  0  0  0  0  0  0  0  0
  2  1  1  6
  3  2  1  0
  4  5  1  0
  4  3  1  0
  5  6  1  0
  6  7  1  0
  8  2  1  0
  8  9  2  0
 10  8  1  0
 11 12  1  1
 11 10  1  0
 13 17  1  0
 13 12  1  0
 14 13  2  0
 15 14  1  0
 15 16  1  0
 16 17  2  0
 18 11  1  0
 19 18  2  0
 21 20  1  0
 22 21  1  1
 22 23  1  0
 23 18  1  0
 24 22  1  0
 24 25  1  0
 26 24  2  0
M  END
$$$$
