KHS.pdb
     RDKit          3D

 26 26  0  0  1  0  0  0  0  0999 V2000
   22.3011  -34.4384    3.7422 N   0  0  0  0  0  0  0  0  0  0  0  0
   21.6951  -33.1393    3.9434 C   0  0  1  0  0  0  0  0  0  0  0  0
   20.2210  -33.3331    4.1316 C   0  0  0  0  0  0  0  0  0  0  0  0
   19.5144  -33.6636    2.8359 C   0  0  0  0  0  0  0  0  0  0  0  0
   18.0275  -33.8573    3.0496 C   0  0  0  0  0  0  0  0  0  0  0  0
   17.3229  -34.2016    1.7575 C   0  0  0  0  0  0  0  0  0  0  0  0
   15.9208  -34.4938    1.9502 N   0  0  0  0  0  0  0  0  0  0  0  0
   22.3358  -32.4592    5.0970 C   0  0  0  0  0  0  0  0  0  0  0  0
   22.7318  -33.1114    6.1103 O   0  0  0  0  0  0  0  0  0  0  0  0
   22.5206  -31.0835    5.0999 N   0  0  0  0  0  0  0  0  0  0  0  0
   23.2426  -30.3389    6.1768 C   0  0  1  0  0  0  0  0  0  0  0  0
   24.2715  -29.5788    5.3722 C   0  0  0  0  0  0  0  0  0  0  0  0
   25.5221  -30.2270    5.0521 C   0  0  0  0  0  0  0  0  0  0  0  0
   25.8283  -31.5126    5.5426 C   0  0  0  0  0  0  0  0  0  0  0  0
   27.0305  -31.8400    5.0853 N   0  0  0  0  0  0  0  0  0  0  0  0
   27.4775  -30.8125    4.3350 C   0  0  0  0  0  0  0  0  0  0  0  0
   26.5530  -29.8501    4.3279 N   0  0  0  0  0  0  0  0  0  0  0  0
   22.3112  -29.4123    6.8015 C   0  0  0  0  0  0  0  0  0  0  0  0
   21.6085  -28.6595    6.0755 O   0  0  0  0  0  0  0  0  0  0  0  0
   21.9014  -29.0833   10.9129 O   0  0  0  0  0  0  0  0  0  0  0  0
   20.7715  -28.9511   10.1126 C   0  0  0  0  0  0  0  0  0  0  0  0
   21.1506  -28.4126    8.7368 C   0  0  2  0  0  0  0  0  0  0  0  0
   22.1568  -29.3281    8.1922 N   0  0  0  0  0  0  0  0  0  0  0  0
   21.7230  -27.0757    8.9113 C   0  0  0  0  0  0  0  0  0  0  0  0
   20.9545  -25.9625    9.2183 O   0  0  0  0  0  0  0  0  0  0  0  0
   22.9592  -26.8871    8.7857 O   0  0  0  0  0  0  0  0  0  0  0  0
  2  1  1  1
  3  2  1  0
  4  5  1  0
  4  3  1  0
  5  6  1  0
  6  7  1  0
  8  2  1  0
  8  9  2  0
 10  8  1  0
 11 12  1  6
 11 10  1  0
 13 17  1  0
 13 12  1  0
 14 13  2  0
 15 14  1  0
 15 16  1  0
 16 17  2  0
 18 11  1  0
 19 18  2  0
 21 20  1  0
 22 21  1  1
 22 23  1  0
 23 18  1  0
 24 22  1  0
 24 25  1  0
 26 24  2  0
M  END
$$$$
