KHS.pdb
     RDKit          3D

 26 26  0  0  1  0  0  0  0  0999 V2000
   15.7217  -14.8614  -16.1407 N   0  0  0  0  0  0  0  0  0  0  0  0
   15.3956  -13.5144  -16.5586 C   0  0  1  0  0  0  0  0  0  0  0  0
   13.9726  -13.2368  -16.1791 C   0  0  0  0  0  0  0  0  0  0  0  0
   13.5793  -13.9157  -14.8861 C   0  0  0  0  0  0  0  0  0  0  0  0
   12.1277  -13.6539  -14.5423 C   0  0  0  0  0  0  0  0  0  0  0  0
   11.7314  -14.3400  -13.2552 C   0  0  0  0  0  0  0  0  0  0  0  0
   10.3560  -14.0862  -12.8911 N   0  0  0  0  0  0  0  0  0  0  0  0
   16.3494  -12.5542  -15.9486 C   0  0  0  0  0  0  0  0  0  0  0  0
   16.7179  -12.6683  -14.7402 O   0  0  0  0  0  0  0  0  0  0  0  0
   16.8676  -11.4989  -16.6866 N   0  0  0  0  0  0  0  0  0  0  0  0
   17.7894  -10.4619  -16.1295 C   0  0  1  0  0  0  0  0  0  0  0  0
   18.9561  -10.5592  -17.0851 C   0  0  0  0  0  0  0  0  0  0  0  0
   19.9090  -11.6311  -16.9132 C   0  0  0  0  0  0  0  0  0  0  0  0
   20.9311  -11.5553  -15.9453 C   0  0  0  0  0  0  0  0  0  0  0  0
   21.6400  -12.6747  -16.0228 N   0  0  0  0  0  0  0  0  0  0  0  0
   21.0991  -13.4359  -16.9957 C   0  0  0  0  0  0  0  0  0  0  0  0
   20.0565  -12.7884  -17.5199 N   0  0  0  0  0  0  0  0  0  0  0  0
   17.1490   -9.1614  -16.2518 C   0  0  0  0  0  0  0  0  0  0  0  0
   16.3886   -8.9371  -17.2311 O   0  0  0  0  0  0  0  0  0  0  0  0
   15.2827   -5.3211  -14.2857 O   0  0  0  0  0  0  0  0  0  0  0  0
   15.8946   -6.5685  -14.2196 C   0  0  0  0  0  0  0  0  0  0  0  0
   16.6553   -6.8601  -15.5091 C   0  0  2  0  0  0  0  0  0  0  0  0
   17.3396   -8.1405  -15.3104 N   0  0  0  0  0  0  0  0  0  0  0  0
   17.6331   -5.7891  -15.7148 C   0  0  0  0  0  0  0  0  0  0  0  0
   17.3138   -4.5864  -16.3277 O   0  0  0  0  0  0  0  0  0  0  0  0
   18.8230   -5.9266  -15.3342 O   0  0  0  0  0  0  0  0  0  0  0  0
  2  1  1  1
  3  2  1  0
  4  5  1  0
  4  3  1  0
  5  6  1  0
  6  7  1  0
  8  2  1  0
  8  9  2  0
 10  8  1  0
 11 12  1  6
 11 10  1  0
 13 17  1  0
 13 12  1  0
 14 13  2  0
 15 14  1  0
 15 16  1  0
 16 17  2  0
 18 11  1  0
 19 18  2  0
 21 20  1  0
 22 21  1  1
 22 23  1  0
 23 18  1  0
 24 22  1  0
 24 25  1  0
 26 24  2  0
M  END
$$$$
