ECH.pdb
     RDKit          3D

 26 26  0  0  1  0  0  0  0  0999 V2000
    8.2359  -14.4428   20.3372 N   0  0  0  0  0  0  0  0  0  0  0  0
    7.4370  -14.9236   21.4766 C   0  0  1  0  0  0  0  0  0  0  0  0
    7.4784  -16.4199   21.4071 C   0  0  0  0  0  0  0  0  0  0  0  0
    7.2068  -16.9865   20.0463 C   0  0  0  0  0  0  0  0  0  0  0  0
    7.1363  -18.4660   20.1528 C   0  0  0  0  0  0  0  0  0  0  0  0
    8.1204  -19.1351   19.7607 O   0  0  0  0  0  0  0  0  0  0  0  0
    8.0130  -14.3541   22.7021 C   0  0  0  0  0  0  0  0  0  0  0  0
    9.2600  -14.2925   22.8377 O   0  0  0  0  0  0  0  0  0  0  0  0
    6.0420  -19.1468   20.6619 O   0  0  0  0  0  0  0  0  0  0  0  0
    7.2032  -13.8621   23.7576 N   0  0  0  0  0  0  0  0  0  0  0  0
    7.8467  -13.5110   25.0026 C   0  0  1  0  0  0  0  0  0  0  0  0
    6.8343  -12.6896   25.7938 C   0  0  0  0  0  0  0  0  0  0  0  0
    7.5894  -12.2837   27.3917 S   0  0  0  0  0  0  0  0  0  0  0  0
    8.2804  -14.7047   25.7656 C   0  0  0  0  0  0  0  0  0  0  0  0
    7.4042  -15.5532   26.0676 O   0  0  0  0  0  0  0  0  0  0  0  0
    9.6135  -14.9510   26.1755 N   0  0  0  0  0  0  0  0  0  0  0  0
   10.0161  -16.0543   27.0218 C   0  0  1  0  0  0  0  0  0  0  0  0
   11.3394  -16.5504   26.4878 C   0  0  0  0  0  0  0  0  0  0  0  0
   11.2686  -17.1791   25.1672 C   0  0  0  0  0  0  0  0  0  0  0  0
   10.1377  -17.4437   24.4404 C   0  0  0  0  0  0  0  0  0  0  0  0
   10.5061  -18.0243   23.2880 N   0  0  0  0  0  0  0  0  0  0  0  0
   11.8455  -18.1163   23.3042 C   0  0  0  0  0  0  0  0  0  0  0  0
   12.3102  -17.6033   24.4451 N   0  0  0  0  0  0  0  0  0  0  0  0
   10.1876  -15.6578   28.4271 C   0  0  0  0  0  0  0  0  0  0  0  0
   10.5415  -16.5182   29.4561 O   0  0  0  0  0  0  0  0  0  0  0  0
   10.0014  -14.4524   28.7241 O   0  0  0  0  0  0  0  0  0  0  0  0
  2  1  1  6
  2  7  1  0
  3  4  1  0
  3  2  1  0
  4  5  1  0
  5  9  1  0
  5  6  2  0
  7  8  2  0
 10  7  1  0
 10 11  1  0
 11 14  1  0
 11 12  1  1
 13 12  1  0
 14 16  1  0
 15 14  2  0
 16 17  1  0
 17 18  1  6
 19 18  1  0
 19 23  1  0
 20 21  1  0
 20 19  2  0
 21 22  1  0
 22 23  2  0
 24 17  1  0
 25 24  1  0
 26 24  2  0
M  END
$$$$
