ECH.pdb
     RDKit          3D

 26 26  0  0  1  0  0  0  0  0999 V2000
    7.6272  -18.8147   18.3737 N   0  0  0  0  0  0  0  0  0  0  0  0
    9.0519  -18.4446   18.4056 C   0  0  1  0  0  0  0  0  0  0  0  0
    9.4347  -18.1557   16.9860 C   0  0  0  0  0  0  0  0  0  0  0  0
    8.6350  -17.0672   16.3360 C   0  0  0  0  0  0  0  0  0  0  0  0
    9.2366  -16.7605   15.0134 C   0  0  0  0  0  0  0  0  0  0  0  0
   10.2437  -17.4141   14.6553 O   0  0  0  0  0  0  0  0  0  0  0  0
    9.2004  -17.3053   19.3211 C   0  0  0  0  0  0  0  0  0  0  0  0
   10.3257  -16.7699   19.4765 O   0  0  0  0  0  0  0  0  0  0  0  0
    8.7450  -15.7910   14.1539 O   0  0  0  0  0  0  0  0  0  0  0  0
    8.1046  -16.7759   20.0496 N   0  0  0  0  0  0  0  0  0  0  0  0
    8.3793  -15.8017   21.0805 C   0  0  1  0  0  0  0  0  0  0  0  0
    7.0499  -15.1259   21.3994 C   0  0  0  0  0  0  0  0  0  0  0  0
    7.3547  -13.9131   22.7126 S   0  0  0  0  0  0  0  0  0  0  0  0
    8.9700  -16.4183   22.2913 C   0  0  0  0  0  0  0  0  0  0  0  0
    8.4527  -17.4821   22.7149 O   0  0  0  0  0  0  0  0  0  0  0  0
   10.0758  -15.8886   23.0002 N   0  0  0  0  0  0  0  0  0  0  0  0
   10.7234  -16.5494   24.1135 C   0  0  1  0  0  0  0  0  0  0  0  0
   12.0930  -15.9265   24.2507 C   0  0  0  0  0  0  0  0  0  0  0  0
   13.0714  -16.3767   23.2585 C   0  0  0  0  0  0  0  0  0  0  0  0
   12.8213  -17.1118   22.1297 C   0  0  0  0  0  0  0  0  0  0  0  0
   13.9856  -17.3126   21.4935 N   0  0  0  0  0  0  0  0  0  0  0  0
   14.9403  -16.7095   22.2201 C   0  0  0  0  0  0  0  0  0  0  0  0
   14.3865  -16.1405   23.2926 N   0  0  0  0  0  0  0  0  0  0  0  0
    9.9929  -16.3777   25.3777 C   0  0  0  0  0  0  0  0  0  0  0  0
    8.8418  -15.6187   25.5314 O   0  0  0  0  0  0  0  0  0  0  0  0
   10.4389  -16.9585   26.3973 O   0  0  0  0  0  0  0  0  0  0  0  0
  2  1  1  6
  2  7  1  0
  3  4  1  0
  3  2  1  0
  4  5  1  0
  5  9  1  0
  5  6  2  0
  7  8  2  0
 10  7  1  0
 10 11  1  0
 11 14  1  0
 11 12  1  1
 13 12  1  0
 14 16  1  0
 15 14  2  0
 16 17  1  0
 17 18  1  1
 19 18  1  0
 19 23  1  0
 20 21  1  0
 20 19  2  0
 21 22  1  0
 22 23  2  0
 24 17  1  0
 25 24  1  0
 26 24  2  0
M  END
$$$$
