ECH.pdb
     RDKit          3D

 26 26  0  0  1  0  0  0  0  0999 V2000
    9.2818  -17.2690   16.2516 N   0  0  0  0  0  0  0  0  0  0  0  0
    8.1909  -17.2743   17.2403 C   0  0  1  0  0  0  0  0  0  0  0  0
    7.7362  -18.6983   17.3448 C   0  0  0  0  0  0  0  0  0  0  0  0
    8.8400  -19.6889   17.5616 C   0  0  0  0  0  0  0  0  0  0  0  0
    8.2479  -21.0475   17.6558 C   0  0  0  0  0  0  0  0  0  0  0  0
    7.8883  -21.4595   18.7831 O   0  0  0  0  0  0  0  0  0  0  0  0
    8.7142  -16.7082   18.4908 C   0  0  0  0  0  0  0  0  0  0  0  0
    9.9451  -16.7604   18.7346 O   0  0  0  0  0  0  0  0  0  0  0  0
    8.0714  -21.8841   16.5654 O   0  0  0  0  0  0  0  0  0  0  0  0
    7.8705  -16.0939   19.4512 N   0  0  0  0  0  0  0  0  0  0  0  0
    8.4762  -15.5699   20.6537 C   0  0  1  0  0  0  0  0  0  0  0  0
    7.4622  -14.6069   21.2620 C   0  0  0  0  0  0  0  0  0  0  0  0
    6.0688  -15.5940   21.8721 S   0  0  0  0  0  0  0  0  0  0  0  0
    8.8382  -16.6408   21.6115 C   0  0  0  0  0  0  0  0  0  0  0  0
    8.6367  -17.8300   21.2594 O   0  0  0  0  0  0  0  0  0  0  0  0
    9.3947  -16.4123   22.8937 N   0  0  0  0  0  0  0  0  0  0  0  0
   10.5376  -17.1240   23.4255 C   0  0  1  0  0  0  0  0  0  0  0  0
   11.7225  -16.7439   22.5688 C   0  0  0  0  0  0  0  0  0  0  0  0
   12.9791  -17.3987   22.9384 C   0  0  0  0  0  0  0  0  0  0  0  0
   13.1798  -18.2697   23.9768 C   0  0  0  0  0  0  0  0  0  0  0  0
   14.4695  -18.6400   23.9703 N   0  0  0  0  0  0  0  0  0  0  0  0
   15.0558  -18.0060   22.9420 C   0  0  0  0  0  0  0  0  0  0  0  0
   14.1518  -17.2516   22.3142 N   0  0  0  0  0  0  0  0  0  0  0  0
   10.8264  -16.7694   24.8228 C   0  0  0  0  0  0  0  0  0  0  0  0
   11.3629  -17.6342   25.7656 O   0  0  0  0  0  0  0  0  0  0  0  0
   10.5705  -15.5986   25.1965 O   0  0  0  0  0  0  0  0  0  0  0  0
  2  1  1  6
  2  7  1  0
  3  4  1  0
  3  2  1  0
  4  5  1  0
  5  9  1  0
  5  6  2  0
  7  8  2  0
 10  7  1  0
 10 11  1  0
 11 14  1  0
 11 12  1  1
 13 12  1  0
 14 16  1  0
 15 14  2  0
 16 17  1  0
 17 18  1  6
 19 18  1  0
 19 23  1  0
 20 21  1  0
 20 19  2  0
 21 22  1  0
 22 23  2  0
 24 17  1  0
 25 24  1  0
 26 24  2  0
M  END
$$$$
