ECH.pdb
     RDKit          3D

 26 26  0  0  1  0  0  0  0  0999 V2000
    8.8743  -17.2359   16.3505 N   0  0  0  0  0  0  0  0  0  0  0  0
    8.1274  -17.4962   17.5922 C   0  0  1  0  0  0  0  0  0  0  0  0
    8.1662  -18.9806   17.7934 C   0  0  0  0  0  0  0  0  0  0  0  0
    9.5188  -19.5255   18.1405 C   0  0  0  0  0  0  0  0  0  0  0  0
    9.4162  -21.0005   18.2774 C   0  0  0  0  0  0  0  0  0  0  0  0
    8.2941  -21.5335   18.1141 O   0  0  0  0  0  0  0  0  0  0  0  0
    8.7574  -16.7186   18.6676 C   0  0  0  0  0  0  0  0  0  0  0  0
   10.0057  -16.5839   18.6939 O   0  0  0  0  0  0  0  0  0  0  0  0
   10.4934  -21.8195   18.5759 O   0  0  0  0  0  0  0  0  0  0  0  0
    7.9993  -16.1027   19.6961 N   0  0  0  0  0  0  0  0  0  0  0  0
    8.7105  -15.3928   20.7341 C   0  0  1  0  0  0  0  0  0  0  0  0
    7.6944  -14.4696   21.3981 C   0  0  0  0  0  0  0  0  0  0  0  0
    6.3871  -15.5114   22.1010 S   0  0  0  0  0  0  0  0  0  0  0  0
    9.3243  -16.3111   21.7217 C   0  0  0  0  0  0  0  0  0  0  0  0
    8.8254  -17.4582   21.8393 O   0  0  0  0  0  0  0  0  0  0  0  0
   10.4329  -15.9813   22.5391 N   0  0  0  0  0  0  0  0  0  0  0  0
   10.9769  -16.8470   23.5639 C   0  0  1  0  0  0  0  0  0  0  0  0
   12.4804  -16.7203   23.4857 C   0  0  0  0  0  0  0  0  0  0  0  0
   13.0824  -17.3143   22.2902 C   0  0  0  0  0  0  0  0  0  0  0  0
   12.5047  -18.2207   21.4406 C   0  0  0  0  0  0  0  0  0  0  0  0
   13.3880  -18.5107   20.4730 N   0  0  0  0  0  0  0  0  0  0  0  0
   14.4950  -17.7929   20.7227 C   0  0  0  0  0  0  0  0  0  0  0  0
   14.3109  -17.0657   21.8262 N   0  0  0  0  0  0  0  0  0  0  0  0
   10.5367  -16.4718   24.9155 C   0  0  0  0  0  0  0  0  0  0  0  0
    9.7010  -15.4042   25.2094 O   0  0  0  0  0  0  0  0  0  0  0  0
   10.9439  -17.1653   25.8795 O   0  0  0  0  0  0  0  0  0  0  0  0
  2  1  1  6
  2  7  1  0
  3  4  1  0
  3  2  1  0
  4  5  1  0
  5  9  1  0
  5  6  2  0
  7  8  2  0
 10  7  1  0
 10 11  1  0
 11 14  1  0
 11 12  1  1
 13 12  1  0
 14 16  1  0
 15 14  2  0
 16 17  1  0
 17 18  1  1
 19 18  1  0
 19 23  1  0
 20 21  1  0
 20 19  2  0
 21 22  1  0
 22 23  2  0
 24 17  1  0
 25 24  1  0
 26 24  2  0
M  END
$$$$
