ECH.pdb
     RDKit          3D

 26 26  0  0  1  0  0  0  0  0999 V2000
    9.7263  -18.1216   20.1533 N   0  0  0  0  0  0  0  0  0  0  0  0
   10.2570  -18.8229   21.3340 C   0  0  1  0  0  0  0  0  0  0  0  0
   11.7284  -18.5399   21.3548 C   0  0  0  0  0  0  0  0  0  0  0  0
   12.0804  -17.0846   21.4238 C   0  0  0  0  0  0  0  0  0  0  0  0
   13.5565  -16.9567   21.5243 C   0  0  0  0  0  0  0  0  0  0  0  0
   14.2439  -18.0041   21.5057 O   0  0  0  0  0  0  0  0  0  0  0  0
    9.5262  -18.3370   22.5121 C   0  0  0  0  0  0  0  0  0  0  0  0
    8.5221  -17.5973   22.3646 O   0  0  0  0  0  0  0  0  0  0  0  0
   14.2149  -15.7427   21.6374 O   0  0  0  0  0  0  0  0  0  0  0  0
    9.9156  -18.6757   23.8332 N   0  0  0  0  0  0  0  0  0  0  0  0
    9.0629  -18.2588   24.9224 C   0  0  1  0  0  0  0  0  0  0  0  0
    7.7698  -19.0558   24.7862 C   0  0  0  0  0  0  0  0  0  0  0  0
    8.1580  -20.7915   25.1399 S   0  0  0  0  0  0  0  0  0  0  0  0
    9.6925  -18.4829   26.2447 C   0  0  0  0  0  0  0  0  0  0  0  0
   10.4805  -19.4550   26.3576 O   0  0  0  0  0  0  0  0  0  0  0  0
    9.4649  -17.6757   27.3860 N   0  0  0  0  0  0  0  0  0  0  0  0
   10.1679  -17.8231   28.6428 C   0  0  1  0  0  0  0  0  0  0  0  0
    9.7053  -16.6940   29.5338 C   0  0  0  0  0  0  0  0  0  0  0  0
    9.7446  -15.3691   28.9114 C   0  0  0  0  0  0  0  0  0  0  0  0
   10.7288  -14.4252   29.0446 C   0  0  0  0  0  0  0  0  0  0  0  0
   10.3839  -13.3537   28.3142 N   0  0  0  0  0  0  0  0  0  0  0  0
    9.2033  -13.6332   27.7387 C   0  0  0  0  0  0  0  0  0  0  0  0
    8.8137  -14.8570   28.1005 N   0  0  0  0  0  0  0  0  0  0  0  0
    9.8801  -19.1028   29.3068 C   0  0  0  0  0  0  0  0  0  0  0  0
   10.5965  -19.6198   30.3764 O   0  0  0  0  0  0  0  0  0  0  0  0
    8.9155  -19.7827   28.8786 O   0  0  0  0  0  0  0  0  0  0  0  0
  2  1  1  6
  2  7  1  0
  3  4  1  0
  3  2  1  0
  4  5  1  0
  5  9  1  0
  5  6  2  0
  7  8  2  0
 10  7  1  0
 10 11  1  0
 11 14  1  0
 11 12  1  1
 13 12  1  0
 14 16  1  0
 15 14  2  0
 16 17  1  0
 17 18  1  1
 19 18  1  0
 19 23  1  0
 20 21  1  0
 20 19  2  0
 21 22  1  0
 22 23  2  0
 24 17  1  0
 25 24  1  0
 26 24  2  0
M  END
$$$$
