ECH.pdb
     RDKit          3D

 26 26  0  0  1  0  0  0  0  0999 V2000
    8.3693  -13.2562   16.4804 N   0  0  0  0  0  0  0  0  0  0  0  0
    7.9043  -14.4529   17.2010 C   0  0  1  0  0  0  0  0  0  0  0  0
    8.5031  -15.6245   16.4840 C   0  0  0  0  0  0  0  0  0  0  0  0
    9.9839  -15.5322   16.2711 C   0  0  0  0  0  0  0  0  0  0  0  0
   10.4322  -16.7331   15.5214 C   0  0  0  0  0  0  0  0  0  0  0  0
   11.5264  -17.2545   15.8387 O   0  0  0  0  0  0  0  0  0  0  0  0
    8.3168  -14.3214   18.6048 C   0  0  0  0  0  0  0  0  0  0  0  0
    9.4434  -13.8416   18.8838 O   0  0  0  0  0  0  0  0  0  0  0  0
    9.7067  -17.3084   14.4905 O   0  0  0  0  0  0  0  0  0  0  0  0
    7.4792  -14.7216   19.6771 N   0  0  0  0  0  0  0  0  0  0  0  0
    7.9591  -14.5254   21.0257 C   0  0  1  0  0  0  0  0  0  0  0  0
    6.7225  -14.4278   21.9128 C   0  0  0  0  0  0  0  0  0  0  0  0
    7.2913  -14.2322   23.6235 S   0  0  0  0  0  0  0  0  0  0  0  0
    8.8500  -15.6232   21.4689 C   0  0  0  0  0  0  0  0  0  0  0  0
    8.6332  -16.7717   21.0079 O   0  0  0  0  0  0  0  0  0  0  0  0
    9.9264  -15.4630   22.3753 N   0  0  0  0  0  0  0  0  0  0  0  0
   10.7662  -16.5450   22.8438 C   0  0  1  0  0  0  0  0  0  0  0  0
   12.1910  -16.1590   22.5220 C   0  0  0  0  0  0  0  0  0  0  0  0
   13.1891  -17.1802   22.8466 C   0  0  0  0  0  0  0  0  0  0  0  0
   12.9496  -18.4712   23.2379 C   0  0  0  0  0  0  0  0  0  0  0  0
   14.1312  -19.0751   23.4373 N   0  0  0  0  0  0  0  0  0  0  0  0
   15.0860  -18.1689   23.1724 C   0  0  0  0  0  0  0  0  0  0  0  0
   14.5153  -17.0173   22.8135 N   0  0  0  0  0  0  0  0  0  0  0  0
   10.6484  -16.7681   24.2922 C   0  0  0  0  0  0  0  0  0  0  0  0
   10.7527  -18.0031   24.9153 O   0  0  0  0  0  0  0  0  0  0  0  0
   10.4376  -15.7706   25.0247 O   0  0  0  0  0  0  0  0  0  0  0  0
  2  1  1  6
  2  7  1  0
  3  4  1  0
  3  2  1  0
  4  5  1  0
  5  9  1  0
  5  6  2  0
  7  8  2  0
 10  7  1  0
 10 11  1  0
 11 14  1  0
 11 12  1  1
 13 12  1  0
 14 16  1  0
 15 14  2  0
 16 17  1  0
 17 18  1  1
 19 18  1  0
 19 23  1  0
 20 21  1  0
 20 19  2  0
 21 22  1  0
 22 23  2  0
 24 17  1  0
 25 24  1  0
 26 24  2  0
M  END
$$$$
