ECH.pdb
     RDKit          3D

 26 26  0  0  1  0  0  0  0  0999 V2000
   11.2982  -18.8135   15.2028 N   0  0  0  0  0  0  0  0  0  0  0  0
   11.9761  -17.5072   15.1662 C   0  0  1  0  0  0  0  0  0  0  0  0
   11.4773  -16.8182   13.9326 C   0  0  0  0  0  0  0  0  0  0  0  0
   10.1304  -17.2802   13.4644 C   0  0  0  0  0  0  0  0  0  0  0  0
    9.7289  -16.4630   12.2912 C   0  0  0  0  0  0  0  0  0  0  0  0
    8.9455  -15.5034   12.4787 O   0  0  0  0  0  0  0  0  0  0  0  0
   11.6713  -16.8068   16.4211 C   0  0  0  0  0  0  0  0  0  0  0  0
   12.1498  -15.6652   16.6329 O   0  0  0  0  0  0  0  0  0  0  0  0
   10.1732  -16.7038   11.0010 O   0  0  0  0  0  0  0  0  0  0  0  0
   10.8434  -17.3780   17.4212 N   0  0  0  0  0  0  0  0  0  0  0  0
   10.6854  -16.6610   18.6655 C   0  0  1  0  0  0  0  0  0  0  0  0
    9.4480  -17.2409   19.3424 C   0  0  0  0  0  0  0  0  0  0  0  0
    9.2463  -16.3920   20.9321 S   0  0  0  0  0  0  0  0  0  0  0  0
   11.8776  -16.7811   19.5369 C   0  0  0  0  0  0  0  0  0  0  0  0
   12.4021  -17.9169   19.6536 O   0  0  0  0  0  0  0  0  0  0  0  0
   12.4628  -15.7029   20.2447 N   0  0  0  0  0  0  0  0  0  0  0  0
   13.6575  -15.8115   21.0550 C   0  0  1  0  0  0  0  0  0  0  0  0
   14.3787  -14.4887   20.9442 C   0  0  0  0  0  0  0  0  0  0  0  0
   15.0739  -14.2762   19.6730 C   0  0  0  0  0  0  0  0  0  0  0  0
   15.2483  -15.1894   18.6667 C   0  0  0  0  0  0  0  0  0  0  0  0
   15.9368  -14.5981   17.6783 N   0  0  0  0  0  0  0  0  0  0  0  0
   16.1835  -13.3377   18.0699 C   0  0  0  0  0  0  0  0  0  0  0  0
   15.6600  -13.1405   19.2814 N   0  0  0  0  0  0  0  0  0  0  0  0
   13.3605  -16.0754   22.4705 C   0  0  0  0  0  0  0  0  0  0  0  0
   12.0856  -16.1990   23.0034 O   0  0  0  0  0  0  0  0  0  0  0  0
   14.3283  -16.1991   23.2604 O   0  0  0  0  0  0  0  0  0  0  0  0
  2  1  1  1
  2  7  1  0
  3  4  1  0
  3  2  1  0
  4  5  1  0
  5  9  1  0
  5  6  2  0
  7  8  2  0
 10  7  1  0
 10 11  1  0
 11 14  1  0
 11 12  1  1
 13 12  1  0
 14 16  1  0
 15 14  2  0
 16 17  1  0
 17 18  1  1
 19 18  1  0
 19 23  1  0
 20 21  1  0
 20 19  2  0
 21 22  1  0
 22 23  2  0
 24 17  1  0
 25 24  1  0
 26 24  2  0
M  END
$$$$
