ECH.pdb
     RDKit          3D

 26 26  0  0  1  0  0  0  0  0999 V2000
    8.3123  -12.9397   18.3779 N   0  0  0  0  0  0  0  0  0  0  0  0
    7.4645  -13.8420   19.1746 C   0  0  1  0  0  0  0  0  0  0  0  0
    7.4158  -15.1355   18.4197 C   0  0  0  0  0  0  0  0  0  0  0  0
    8.7584  -15.7293   18.1170 C   0  0  0  0  0  0  0  0  0  0  0  0
    8.5594  -17.0067   17.3862 C   0  0  0  0  0  0  0  0  0  0  0  0
    7.4057  -17.4939   17.3493 O   0  0  0  0  0  0  0  0  0  0  0  0
    8.0515  -13.9417   20.5176 C   0  0  0  0  0  0  0  0  0  0  0  0
    9.2870  -13.7807   20.6743 O   0  0  0  0  0  0  0  0  0  0  0  0
    9.5798  -17.6889   16.7430 O   0  0  0  0  0  0  0  0  0  0  0  0
    7.2650  -14.2175   21.6653 N   0  0  0  0  0  0  0  0  0  0  0  0
    7.9221  -14.2396   22.9518 C   0  0  1  0  0  0  0  0  0  0  0  0
    6.9300  -13.6557   23.9520 C   0  0  0  0  0  0  0  0  0  0  0  0
    7.6943  -13.7430   25.5942 S   0  0  0  0  0  0  0  0  0  0  0  0
    8.3372  -15.6062   23.3458 C   0  0  0  0  0  0  0  0  0  0  0  0
    7.5109  -16.5376   23.1772 O   0  0  0  0  0  0  0  0  0  0  0  0
    9.6005  -15.9302   23.8983 N   0  0  0  0  0  0  0  0  0  0  0  0
    9.9711  -17.2480   24.3692 C   0  0  1  0  0  0  0  0  0  0  0  0
   11.3178  -17.5631   23.7611 C   0  0  0  0  0  0  0  0  0  0  0  0
   11.3172  -17.6789   22.3013 C   0  0  0  0  0  0  0  0  0  0  0  0
   11.3792  -16.6545   21.3936 C   0  0  0  0  0  0  0  0  0  0  0  0
   11.3542  -17.1843   20.1610 N   0  0  0  0  0  0  0  0  0  0  0  0
   11.2778  -18.5169   20.3068 C   0  0  0  0  0  0  0  0  0  0  0  0
   11.2552  -18.8190   21.6064 N   0  0  0  0  0  0  0  0  0  0  0  0
   10.0816  -17.3165   25.8336 C   0  0  0  0  0  0  0  0  0  0  0  0
   10.4165  -18.4557   26.5509 O   0  0  0  0  0  0  0  0  0  0  0  0
    9.8573  -16.2696   26.4891 O   0  0  0  0  0  0  0  0  0  0  0  0
  2  1  1  6
  2  7  1  0
  3  4  1  0
  3  2  1  0
  4  5  1  0
  5  9  1  0
  5  6  2  0
  7  8  2  0
 10  7  1  0
 10 11  1  0
 11 14  1  0
 11 12  1  1
 13 12  1  0
 14 16  1  0
 15 14  2  0
 16 17  1  0
 17 18  1  6
 19 18  1  0
 19 23  1  0
 20 21  1  0
 20 19  2  0
 21 22  1  0
 22 23  2  0
 24 17  1  0
 25 24  1  0
 26 24  2  0
M  END
$$$$
