ECH.pdb
     RDKit          3D

 26 26  0  0  1  0  0  0  0  0999 V2000
   10.4790  -15.8691   20.8673 N   0  0  0  0  0  0  0  0  0  0  0  0
    9.2845  -15.9173   21.7265 C   0  0  1  0  0  0  0  0  0  0  0  0
    8.7238  -17.2987   21.5760 C   0  0  0  0  0  0  0  0  0  0  0  0
    9.7183  -18.3997   21.7901 C   0  0  0  0  0  0  0  0  0  0  0  0
    9.0278  -19.7035   21.6212 C   0  0  0  0  0  0  0  0  0  0  0  0
    7.8105  -19.6945   21.3246 O   0  0  0  0  0  0  0  0  0  0  0  0
    9.6990  -15.5732   23.0932 C   0  0  0  0  0  0  0  0  0  0  0  0
   10.8776  -15.7966   23.4646 O   0  0  0  0  0  0  0  0  0  0  0  0
    9.6561  -20.9291   21.7735 O   0  0  0  0  0  0  0  0  0  0  0  0
    8.8059  -14.9882   24.0269 N   0  0  0  0  0  0  0  0  0  0  0  0
    9.3252  -14.6106   25.3212 C   0  0  1  0  0  0  0  0  0  0  0  0
    8.3768  -13.5518   25.8734 C   0  0  0  0  0  0  0  0  0  0  0  0
    9.0499  -12.9896   27.4607 S   0  0  0  0  0  0  0  0  0  0  0  0
    9.4307  -15.7667   26.2419 C   0  0  0  0  0  0  0  0  0  0  0  0
    8.4257  -16.5118   26.3591 O   0  0  0  0  0  0  0  0  0  0  0  0
   10.5863  -16.0858   26.9959 N   0  0  0  0  0  0  0  0  0  0  0  0
   10.6899  -17.2199   27.8895 C   0  0  1  0  0  0  0  0  0  0  0  0
   12.0652  -17.8104   27.6835 C   0  0  0  0  0  0  0  0  0  0  0  0
   12.2626  -18.4620   26.3870 C   0  0  0  0  0  0  0  0  0  0  0  0
   11.2985  -19.0246   25.5925 C   0  0  0  0  0  0  0  0  0  0  0  0
   11.8934  -19.5128   24.4932 N   0  0  0  0  0  0  0  0  0  0  0  0
   13.2061  -19.2548   24.6085 C   0  0  0  0  0  0  0  0  0  0  0  0
   13.4320  -18.6166   25.7584 N   0  0  0  0  0  0  0  0  0  0  0  0
   10.5394  -16.8440   29.3028 C   0  0  0  0  0  0  0  0  0  0  0  0
   10.5713  -17.7329   30.3674 O   0  0  0  0  0  0  0  0  0  0  0  0
   10.3692  -15.6298   29.5726 O   0  0  0  0  0  0  0  0  0  0  0  0
  2  1  1  6
  2  7  1  0
  3  4  1  0
  3  2  1  0
  4  5  1  0
  5  9  1  0
  5  6  2  0
  7  8  2  0
 10  7  1  0
 10 11  1  0
 11 14  1  0
 11 12  1  1
 13 12  1  0
 14 16  1  0
 15 14  2  0
 16 17  1  0
 17 18  1  1
 19 18  1  0
 19 23  1  0
 20 21  1  0
 20 19  2  0
 21 22  1  0
 22 23  2  0
 24 17  1  0
 25 24  1  0
 26 24  2  0
M  END
$$$$
