ECH.pdb
     RDKit          3D

 26 26  0  0  1  0  0  0  0  0999 V2000
    7.8422  -12.4308   17.2033 N   0  0  0  0  0  0  0  0  0  0  0  0
    7.9912  -13.8197   17.6684 C   0  0  1  0  0  0  0  0  0  0  0  0
    8.6827  -14.5538   16.5602 C   0  0  0  0  0  0  0  0  0  0  0  0
    8.9697  -15.9953   16.8539 C   0  0  0  0  0  0  0  0  0  0  0  0
    9.6393  -16.5970   15.6729 C   0  0  0  0  0  0  0  0  0  0  0  0
    8.9236  -17.1406   14.7999 O   0  0  0  0  0  0  0  0  0  0  0  0
    8.7319  -13.7924   18.9368 C   0  0  0  0  0  0  0  0  0  0  0  0
    9.8281  -13.1838   19.0084 O   0  0  0  0  0  0  0  0  0  0  0  0
   11.0120  -16.5900   15.4836 O   0  0  0  0  0  0  0  0  0  0  0  0
    8.2505  -14.4372   20.1048 N   0  0  0  0  0  0  0  0  0  0  0  0
    9.1174  -14.4905   21.2594 C   0  0  1  0  0  0  0  0  0  0  0  0
    8.2144  -14.3649   22.4819 C   0  0  0  0  0  0  0  0  0  0  0  0
    6.6170  -15.1127   22.0605 S   0  0  0  0  0  0  0  0  0  0  0  0
    9.9112  -15.7407   21.3070 C   0  0  0  0  0  0  0  0  0  0  0  0
    9.9031  -16.4752   20.2877 O   0  0  0  0  0  0  0  0  0  0  0  0
   10.6760  -16.1604   22.4228 N   0  0  0  0  0  0  0  0  0  0  0  0
   12.0931  -16.4523   22.3771 C   0  0  1  0  0  0  0  0  0  0  0  0
   12.7781  -15.2010   21.8796 C   0  0  0  0  0  0  0  0  0  0  0  0
   13.2211  -15.2600   20.4851 C   0  0  0  0  0  0  0  0  0  0  0  0
   12.9232  -16.2319   19.5665 C   0  0  0  0  0  0  0  0  0  0  0  0
   13.5231  -15.9132   18.4093 N   0  0  0  0  0  0  0  0  0  0  0  0
   14.1817  -14.7607   18.6116 C   0  0  0  0  0  0  0  0  0  0  0  0
   13.9992  -14.3626   19.8722 N   0  0  0  0  0  0  0  0  0  0  0  0
   12.6422  -16.8046   23.6946 C   0  0  0  0  0  0  0  0  0  0  0  0
   13.8040  -17.5344   23.8999 O   0  0  0  0  0  0  0  0  0  0  0  0
   12.0178  -16.4193   24.7132 O   0  0  0  0  0  0  0  0  0  0  0  0
  2  1  1  6
  2  7  1  0
  3  4  1  0
  3  2  1  0
  4  5  1  0
  5  9  1  0
  5  6  2  0
  7  8  2  0
 10  7  1  0
 10 11  1  0
 11 14  1  0
 11 12  1  1
 13 12  1  0
 14 16  1  0
 15 14  2  0
 16 17  1  0
 17 18  1  1
 19 18  1  0
 19 23  1  0
 20 21  1  0
 20 19  2  0
 21 22  1  0
 22 23  2  0
 24 17  1  0
 25 24  1  0
 26 24  2  0
M  END
$$$$
