ECH.pdb
     RDKit          3D

 26 26  0  0  1  0  0  0  0  0999 V2000
    7.7299  -13.1378   19.4132 N   0  0  0  0  0  0  0  0  0  0  0  0
    7.0424  -14.0250   20.3658 C   0  0  1  0  0  0  0  0  0  0  0  0
    7.2531  -15.4186   19.8573 C   0  0  0  0  0  0  0  0  0  0  0  0
    8.6892  -15.7926   19.6461 C   0  0  0  0  0  0  0  0  0  0  0  0
    8.7535  -17.2168   19.2307 C   0  0  0  0  0  0  0  0  0  0  0  0
    7.7536  -17.7130   18.6618 O   0  0  0  0  0  0  0  0  0  0  0  0
    7.6017  -13.7720   21.7005 C   0  0  0  0  0  0  0  0  0  0  0  0
    8.7600  -13.3004   21.8145 O   0  0  0  0  0  0  0  0  0  0  0  0
    9.8587  -18.0267   19.4378 O   0  0  0  0  0  0  0  0  0  0  0  0
    6.8735  -14.0437   22.8868 N   0  0  0  0  0  0  0  0  0  0  0  0
    7.4566  -13.6505   24.1488 C   0  0  1  0  0  0  0  0  0  0  0  0
    6.3057  -13.1596   25.0206 C   0  0  0  0  0  0  0  0  0  0  0  0
    6.9943  -12.7250   26.6409 S   0  0  0  0  0  0  0  0  0  0  0  0
    8.1845  -14.7640   24.8012 C   0  0  0  0  0  0  0  0  0  0  0  0
    7.5457  -15.8207   25.0336 O   0  0  0  0  0  0  0  0  0  0  0  0
    9.5487  -14.7153   25.1787 N   0  0  0  0  0  0  0  0  0  0  0  0
   10.1054  -15.4140   26.3177 C   0  0  1  0  0  0  0  0  0  0  0  0
   10.3065  -14.3828   27.4034 C   0  0  0  0  0  0  0  0  0  0  0  0
   10.7842  -14.9226   28.6781 C   0  0  0  0  0  0  0  0  0  0  0  0
   11.8604  -15.7482   28.8715 C   0  0  0  0  0  0  0  0  0  0  0  0
   11.9568  -16.0109   30.1839 N   0  0  0  0  0  0  0  0  0  0  0  0
   10.9539  -15.3564   30.7911 C   0  0  0  0  0  0  0  0  0  0  0  0
   10.2407  -14.6948   29.8777 N   0  0  0  0  0  0  0  0  0  0  0  0
    9.2181  -16.4716   26.8233 C   0  0  0  0  0  0  0  0  0  0  0  0
    9.6428  -17.7074   27.2890 O   0  0  0  0  0  0  0  0  0  0  0  0
    7.9833  -16.2454   26.8370 O   0  0  0  0  0  0  0  0  0  0  0  0
  2  1  1  6
  2  7  1  0
  3  4  1  0
  3  2  1  0
  4  5  1  0
  5  9  1  0
  5  6  2  0
  7  8  2  0
 10  7  1  0
 10 11  1  0
 11 14  1  0
 11 12  1  1
 13 12  1  0
 14 16  1  0
 15 14  2  0
 16 17  1  0
 17 18  1  1
 19 18  1  0
 19 23  1  0
 20 21  1  0
 20 19  2  0
 21 22  1  0
 22 23  2  0
 24 17  1  0
 25 24  1  0
 26 24  2  0
M  END
$$$$
