ECH.pdb
     RDKit          3D

 26 26  0  0  1  0  0  0  0  0999 V2000
    9.4584  -15.1816   14.0343 N   0  0  0  0  0  0  0  0  0  0  0  0
    8.5168  -15.2771   15.1621 C   0  0  1  0  0  0  0  0  0  0  0  0
    8.0800  -16.7096   15.2144 C   0  0  0  0  0  0  0  0  0  0  0  0
    9.1930  -17.6913   15.4249 C   0  0  0  0  0  0  0  0  0  0  0  0
    8.6183  -19.0600   15.4649 C   0  0  0  0  0  0  0  0  0  0  0  0
    7.3787  -19.1776   15.6039 O   0  0  0  0  0  0  0  0  0  0  0  0
    9.2107  -14.8070   16.3686 C   0  0  0  0  0  0  0  0  0  0  0  0
   10.4443  -15.0032   16.4976 O   0  0  0  0  0  0  0  0  0  0  0  0
    9.3780  -20.2139   15.3570 O   0  0  0  0  0  0  0  0  0  0  0  0
    8.5314  -14.1283   17.4125 N   0  0  0  0  0  0  0  0  0  0  0  0
    9.3049  -13.6728   18.5446 C   0  0  1  0  0  0  0  0  0  0  0  0
    8.3837  -12.7724   19.3610 C   0  0  0  0  0  0  0  0  0  0  0  0
    7.0583  -13.8119   20.0327 S   0  0  0  0  0  0  0  0  0  0  0  0
    9.8165  -14.7971   19.3627 C   0  0  0  0  0  0  0  0  0  0  0  0
    9.3207  -15.9346   19.1649 O   0  0  0  0  0  0  0  0  0  0  0  0
   10.8246  -14.6739   20.3499 N   0  0  0  0  0  0  0  0  0  0  0  0
   11.7508  -15.7279   20.7060 C   0  0  1  0  0  0  0  0  0  0  0  0
   12.5522  -16.0393   19.4637 C   0  0  0  0  0  0  0  0  0  0  0  0
   12.3214  -17.3735   18.9060 C   0  0  0  0  0  0  0  0  0  0  0  0
   11.4843  -18.3393   19.3997 C   0  0  0  0  0  0  0  0  0  0  0  0
   11.5626  -19.4121   18.5975 N   0  0  0  0  0  0  0  0  0  0  0  0
   12.4359  -19.1119   17.6227 C   0  0  0  0  0  0  0  0  0  0  0  0
   12.8977  -17.8738   17.8087 N   0  0  0  0  0  0  0  0  0  0  0  0
   12.6724  -15.3335   21.7814 C   0  0  0  0  0  0  0  0  0  0  0  0
   13.0642  -16.1530   22.8300 O   0  0  0  0  0  0  0  0  0  0  0  0
   13.1430  -14.1700   21.7542 O   0  0  0  0  0  0  0  0  0  0  0  0
  2  1  1  6
  2  7  1  0
  3  4  1  0
  3  2  1  0
  4  5  1  0
  5  9  1  0
  5  6  2  0
  7  8  2  0
 10  7  1  0
 10 11  1  0
 11 14  1  0
 11 12  1  1
 13 12  1  0
 14 16  1  0
 15 14  2  0
 16 17  1  0
 17 18  1  6
 19 18  1  0
 19 23  1  0
 20 21  1  0
 20 19  2  0
 21 22  1  0
 22 23  2  0
 24 17  1  0
 25 24  1  0
 26 24  2  0
M  END
$$$$
