ECH.pdb
     RDKit          3D

 26 26  0  0  1  0  0  0  0  0999 V2000
   10.9481  -20.3994   19.0791 N   0  0  0  0  0  0  0  0  0  0  0  0
   10.5996  -19.0842   19.6414 C   0  0  1  0  0  0  0  0  0  0  0  0
    9.6201  -18.4736   18.6858 C   0  0  0  0  0  0  0  0  0  0  0  0
    9.1019  -19.4151   17.6409 C   0  0  0  0  0  0  0  0  0  0  0  0
    8.2247  -18.6583   16.7120 C   0  0  0  0  0  0  0  0  0  0  0  0
    7.1985  -18.1124   17.1798 O   0  0  0  0  0  0  0  0  0  0  0  0
   10.0757  -19.2989   20.9970 C   0  0  0  0  0  0  0  0  0  0  0  0
    9.6589  -18.3232   21.6688 O   0  0  0  0  0  0  0  0  0  0  0  0
    8.4789  -18.5229   15.3566 O   0  0  0  0  0  0  0  0  0  0  0  0
   10.0206  -20.5869   21.5885 N   0  0  0  0  0  0  0  0  0  0  0  0
    9.5141  -20.6956   22.9372 C   0  0  1  0  0  0  0  0  0  0  0  0
    8.9726  -22.1140   23.0807 C   0  0  0  0  0  0  0  0  0  0  0  0
    8.2446  -22.2562   24.7354 S   0  0  0  0  0  0  0  0  0  0  0  0
   10.5570  -20.4160   23.9518 C   0  0  0  0  0  0  0  0  0  0  0  0
   11.5844  -21.1392   23.9459 O   0  0  0  0  0  0  0  0  0  0  0  0
   10.4717  -19.3902   24.9247 N   0  0  0  0  0  0  0  0  0  0  0  0
   11.5462  -19.0279   25.8244 C   0  0  1  0  0  0  0  0  0  0  0  0
   11.6844  -17.5252   25.7523 C   0  0  0  0  0  0  0  0  0  0  0  0
   11.9715  -17.0013   24.4153 C   0  0  0  0  0  0  0  0  0  0  0  0
   13.1498  -17.1079   23.7243 C   0  0  0  0  0  0  0  0  0  0  0  0
   12.9983  -16.4953   22.5400 N   0  0  0  0  0  0  0  0  0  0  0  0
   11.7440  -16.0176   22.5015 C   0  0  0  0  0  0  0  0  0  0  0  0
   11.1190  -16.3242   23.6400 N   0  0  0  0  0  0  0  0  0  0  0  0
   11.2751  -19.4153   27.2165 C   0  0  0  0  0  0  0  0  0  0  0  0
   12.2230  -19.4499   28.2288 O   0  0  0  0  0  0  0  0  0  0  0  0
   10.1004  -19.7400   27.5176 O   0  0  0  0  0  0  0  0  0  0  0  0
  2  1  1  6
  2  7  1  0
  3  4  1  0
  3  2  1  0
  4  5  1  0
  5  9  1  0
  5  6  2  0
  7  8  2  0
 10  7  1  0
 10 11  1  0
 11 14  1  0
 11 12  1  1
 13 12  1  0
 14 16  1  0
 15 14  2  0
 16 17  1  0
 17 18  1  1
 19 18  1  0
 19 23  1  0
 20 21  1  0
 20 19  2  0
 21 22  1  0
 22 23  2  0
 24 17  1  0
 25 24  1  0
 26 24  2  0
M  END
$$$$
