ECH.pdb
     RDKit          3D

 26 26  0  0  1  0  0  0  0  0999 V2000
    9.6192  -15.4369   19.7318 N   0  0  0  0  0  0  0  0  0  0  0  0
    8.5134  -15.8512   20.6111 C   0  0  1  0  0  0  0  0  0  0  0  0
    8.6147  -17.3418   20.7264 C   0  0  0  0  0  0  0  0  0  0  0  0
    9.9447  -17.8390   21.2065 C   0  0  0  0  0  0  0  0  0  0  0  0
    9.9137  -19.3233   21.2395 C   0  0  0  0  0  0  0  0  0  0  0  0
   10.5761  -19.9095   22.1269 O   0  0  0  0  0  0  0  0  0  0  0  0
    8.6557  -15.1303   21.8832 C   0  0  0  0  0  0  0  0  0  0  0  0
    9.7807  -14.6963   22.2342 O   0  0  0  0  0  0  0  0  0  0  0  0
    9.1924  -20.0952   20.3428 O   0  0  0  0  0  0  0  0  0  0  0  0
    7.5541  -14.9004   22.7465 N   0  0  0  0  0  0  0  0  0  0  0  0
    7.7736  -14.1070   23.9338 C   0  0  1  0  0  0  0  0  0  0  0  0
    6.3943  -13.6959   24.4379 C   0  0  0  0  0  0  0  0  0  0  0  0
    6.6311  -12.7473   25.9652 S   0  0  0  0  0  0  0  0  0  0  0  0
    8.5236  -14.8497   24.9736 C   0  0  0  0  0  0  0  0  0  0  0  0
    8.2391  -16.0617   25.1434 O   0  0  0  0  0  0  0  0  0  0  0  0
    9.5369  -14.2847   25.7860 N   0  0  0  0  0  0  0  0  0  0  0  0
   10.1940  -14.9800   26.8723 C   0  0  1  0  0  0  0  0  0  0  0  0
   10.1838  -14.0423   28.0568 C   0  0  0  0  0  0  0  0  0  0  0  0
   10.7014  -14.6206   29.2986 C   0  0  0  0  0  0  0  0  0  0  0  0
   11.1605  -15.8981   29.4838 C   0  0  0  0  0  0  0  0  0  0  0  0
   11.5436  -16.0248   30.7636 N   0  0  0  0  0  0  0  0  0  0  0  0
   11.3237  -14.8416   31.3591 C   0  0  0  0  0  0  0  0  0  0  0  0
   10.8121  -13.9876   30.4706 N   0  0  0  0  0  0  0  0  0  0  0  0
    9.5085  -16.2261   27.2449 C   0  0  0  0  0  0  0  0  0  0  0  0
   10.1457  -17.4006   27.6179 O   0  0  0  0  0  0  0  0  0  0  0  0
    8.2533  -16.2341   27.2261 O   0  0  0  0  0  0  0  0  0  0  0  0
  2  1  1  6
  2  7  1  0
  3  4  1  0
  3  2  1  0
  4  5  1  0
  5  9  1  0
  5  6  2  0
  7  8  2  0
 10  7  1  0
 10 11  1  0
 11 14  1  0
 11 12  1  1
 13 12  1  0
 14 16  1  0
 15 14  2  0
 16 17  1  0
 17 18  1  1
 19 18  1  0
 19 23  1  0
 20 21  1  0
 20 19  2  0
 21 22  1  0
 22 23  2  0
 24 17  1  0
 25 24  1  0
 26 24  2  0
M  END
$$$$
