LTI.pdb
     RDKit          3D

 24 23  0  0  1  0  0  0  0  0999 V2000
   29.1467  -19.3177  -16.0620 C   0  0  0  0  0  0  0  0  0  0  0  0
   28.0888  -20.1807  -15.4573 C   0  0  1  0  0  0  0  0  0  0  0  0
   28.7071  -21.4127  -14.8289 C   0  0  0  0  0  0  0  0  0  0  0  0
   27.1834  -19.4674  -14.5113 C   0  0  0  0  0  0  0  0  0  0  0  0
   26.2202  -20.4226  -13.8442 C   0  0  2  0  0  0  0  0  0  0  0  0
   25.1832  -20.7766  -14.8076 N   0  0  0  0  0  0  0  0  0  0  0  0
   25.5830  -19.8321  -12.6503 C   0  0  0  0  0  0  0  0  0  0  0  0
   24.7701  -18.8779  -12.7552 O   0  0  0  0  0  0  0  0  0  0  0  0
   23.1366  -19.7023  -11.4187 C   0  0  0  0  0  0  0  0  0  0  0  0
   23.8110  -20.2235  -10.1972 C   0  0  1  0  0  0  0  0  0  0  0  0
   23.8577  -21.6331  -10.3083 O   0  0  0  0  0  0  0  0  0  0  0  0
   25.2833  -19.7906  -10.1431 C   0  0  2  0  0  0  0  0  0  0  0  0
   25.8840  -20.3392  -11.3620 N   0  0  0  0  0  0  0  0  0  0  0  0
   25.9701  -20.4409   -8.9992 C   0  0  0  0  0  0  0  0  0  0  0  0
   26.6223  -21.5322   -9.1347 O   0  0  0  0  0  0  0  0  0  0  0  0
   29.5481  -18.1281   -5.8160 C   0  0  0  0  0  0  0  0  0  0  0  0
   28.7627  -19.1290   -6.6195 C   0  0  0  0  0  0  0  0  0  0  0  0
   27.5993  -19.6530   -5.8749 C   0  0  2  0  0  0  0  0  0  0  0  0
   27.9952  -20.3059   -4.5553 C   0  0  0  0  0  0  0  0  0  0  0  0
   26.6555  -20.5491   -6.5634 C   0  0  2  0  0  0  0  0  0  0  0  0
   25.9586  -19.9123   -7.6828 N   0  0  0  0  0  0  0  0  0  0  0  0
   25.6551  -21.2032   -5.7095 C   0  0  0  0  0  0  0  0  0  0  0  0
   24.4268  -20.9100   -5.6996 O   0  0  0  0  0  0  0  0  0  0  0  0
   26.0625  -22.2133   -4.8505 O   0  0  0  0  0  0  0  0  0  0  0  0
  2  1  1  1
  3  2  1  0
  4  2  1  0
  4  5  1  0
  5  6  1  6
  7  5  1  0
  7  8  2  0
 10  9  1  6
 10 12  1  0
 11 10  1  0
 12 13  1  6
 13  7  1  0
 14 12  1  0
 15 14  2  0
 17 16  1  0
 17 18  1  0
 18 20  1  0
 18 19  1  1
 20 21  1  6
 20 22  1  0
 21 14  1  0
 22 24  1  0
 23 22  2  0
M  END
$$$$
