LTI.pdb
     RDKit          3D

 24 23  0  0  1  0  0  0  0  0999 V2000
   21.8814  -16.3783  -18.7920 C   0  0  0  0  0  0  0  0  0  0  0  0
   21.9211  -15.3934  -17.6704 C   0  0  1  0  0  0  0  0  0  0  0  0
   23.2138  -15.5303  -16.8924 C   0  0  0  0  0  0  0  0  0  0  0  0
   21.6663  -13.9836  -18.0841 C   0  0  0  0  0  0  0  0  0  0  0  0
   21.6501  -13.0539  -16.8922 C   0  0  2  0  0  0  0  0  0  0  0  0
   20.5960  -13.4910  -15.9831 N   0  0  0  0  0  0  0  0  0  0  0  0
   21.3972  -11.6517  -17.2797 C   0  0  0  0  0  0  0  0  0  0  0  0
   22.0555  -11.1060  -18.2022 O   0  0  0  0  0  0  0  0  0  0  0  0
   18.0432  -10.3652  -18.2654 C   0  0  0  0  0  0  0  0  0  0  0  0
   18.5090   -9.5448  -17.1127 C   0  0  1  0  0  0  0  0  0  0  0  0
   18.0786  -10.1925  -15.9309 O   0  0  0  0  0  0  0  0  0  0  0  0
   20.0413   -9.5377  -17.0141 C   0  0  2  0  0  0  0  0  0  0  0  0
   20.4007  -10.8997  -16.6096 N   0  0  0  0  0  0  0  0  0  0  0  0
   20.4832   -8.6373  -15.9199 C   0  0  0  0  0  0  0  0  0  0  0  0
   20.7103   -9.0707  -14.7387 O   0  0  0  0  0  0  0  0  0  0  0  0
   24.6688   -5.4149  -16.2014 C   0  0  0  0  0  0  0  0  0  0  0  0
   23.5257   -6.3376  -15.8755 C   0  0  0  0  0  0  0  0  0  0  0  0
   22.3566   -5.6104  -15.3397 C   0  0  2  0  0  0  0  0  0  0  0  0
   22.7099   -4.7377  -14.1406 C   0  0  0  0  0  0  0  0  0  0  0  0
   21.1352   -6.3645  -15.0124 C   0  0  2  0  0  0  0  0  0  0  0  0
   20.6863   -7.2441  -16.0935 N   0  0  0  0  0  0  0  0  0  0  0  0
   19.9888   -5.5628  -14.5641 C   0  0  0  0  0  0  0  0  0  0  0  0
   19.1362   -5.0450  -15.3385 O   0  0  0  0  0  0  0  0  0  0  0  0
   19.8095   -5.3482  -13.2055 O   0  0  0  0  0  0  0  0  0  0  0  0
  2  1  1  6
  3  2  1  0
  4  2  1  0
  4  5  1  0
  5  6  1  1
  7  5  1  0
  7  8  2  0
 10  9  1  6
 10 12  1  0
 11 10  1  0
 12 13  1  1
 13  7  1  0
 14 12  1  0
 15 14  2  0
 17 16  1  0
 17 18  1  0
 18 20  1  0
 18 19  1  1
 20 21  1  6
 20 22  1  0
 21 14  1  0
 22 24  1  0
 23 22  2  0
M  END
$$$$
