LTI.pdb
     RDKit          3D

 24 23  0  0  1  0  0  0  0  0999 V2000
   16.3565  -16.5940  -17.0177 C   0  0  0  0  0  0  0  0  0  0  0  0
   17.1522  -15.6323  -16.1982 C   0  0  1  0  0  0  0  0  0  0  0  0
   18.4917  -16.2356  -15.8279 C   0  0  0  0  0  0  0  0  0  0  0  0
   17.3001  -14.2812  -16.8115 C   0  0  0  0  0  0  0  0  0  0  0  0
   18.0441  -13.3380  -15.8939 C   0  0  2  0  0  0  0  0  0  0  0  0
   17.3879  -13.3518  -14.5909 N   0  0  0  0  0  0  0  0  0  0  0  0
   18.0595  -11.9536  -16.4075 C   0  0  0  0  0  0  0  0  0  0  0  0
   18.5704  -11.6831  -17.5246 O   0  0  0  0  0  0  0  0  0  0  0  0
   15.0064   -9.8055  -16.7641 C   0  0  0  0  0  0  0  0  0  0  0  0
   15.9590   -9.0997  -15.8626 C   0  0  1  0  0  0  0  0  0  0  0  0
   15.6977   -9.5388  -14.5434 O   0  0  0  0  0  0  0  0  0  0  0  0
   17.4082   -9.5291  -16.1335 C   0  0  2  0  0  0  0  0  0  0  0  0
   17.4934  -10.9062  -15.6395 N   0  0  0  0  0  0  0  0  0  0  0  0
   18.3465   -8.7230  -15.3132 C   0  0  0  0  0  0  0  0  0  0  0  0
   18.6338   -9.0398  -14.1083 O   0  0  0  0  0  0  0  0  0  0  0  0
   23.7155   -6.2112  -15.4646 C   0  0  0  0  0  0  0  0  0  0  0  0
   22.3681   -6.0494  -14.8144 C   0  0  0  0  0  0  0  0  0  0  0  0
   21.3146   -6.8112  -15.5161 C   0  0  2  0  0  0  0  0  0  0  0  0
   21.2565   -6.4926  -17.0059 C   0  0  0  0  0  0  0  0  0  0  0  0
   19.9405   -6.7819  -14.9882 C   0  0  2  0  0  0  0  0  0  0  0  0
   18.9908   -7.5534  -15.7924 N   0  0  0  0  0  0  0  0  0  0  0  0
   19.3718   -5.4472  -14.7576 C   0  0  0  0  0  0  0  0  0  0  0  0
   18.4865   -4.9156  -15.4845 O   0  0  0  0  0  0  0  0  0  0  0  0
   19.8198   -4.7039  -13.6755 O   0  0  0  0  0  0  0  0  0  0  0  0
  2  1  1  6
  3  2  1  0
  4  2  1  0
  4  5  1  0
  5  6  1  1
  7  5  1  0
  7  8  2  0
 10  9  1  6
 10 12  1  0
 11 10  1  0
 12 13  1  1
 13  7  1  0
 14 12  1  0
 15 14  2  0
 17 16  1  0
 17 18  1  0
 18 20  1  0
 18 19  1  6
 20 21  1  6
 20 22  1  0
 21 14  1  0
 22 24  1  0
 23 22  2  0
M  END
$$$$
