LTI.pdb
     RDKit          3D

 24 23  0  0  1  0  0  0  0  0999 V2000
   18.2021  -16.3520  -18.4501 C   0  0  0  0  0  0  0  0  0  0  0  0
   19.1115  -15.3376  -17.8389 C   0  0  1  0  0  0  0  0  0  0  0  0
   20.5367  -15.5575  -18.3033 C   0  0  0  0  0  0  0  0  0  0  0  0
   18.6734  -13.9257  -18.0343 C   0  0  0  0  0  0  0  0  0  0  0  0
   19.5986  -12.9592  -17.3307 C   0  0  2  0  0  0  0  0  0  0  0  0
   19.6122  -13.2886  -15.9094 N   0  0  0  0  0  0  0  0  0  0  0  0
   19.1699  -11.5556  -17.4928 C   0  0  0  0  0  0  0  0  0  0  0  0
   19.0654  -11.0381  -18.6346 O   0  0  0  0  0  0  0  0  0  0  0  0
   16.0863   -9.8910  -16.4851 C   0  0  0  0  0  0  0  0  0  0  0  0
   17.1764   -9.2179  -15.7256 C   0  0  1  0  0  0  0  0  0  0  0  0
   17.3502   -9.9288  -14.5149 O   0  0  0  0  0  0  0  0  0  0  0  0
   18.5250   -9.3487  -16.4482 C   0  0  2  0  0  0  0  0  0  0  0  0
   18.8691  -10.7700  -16.3527 N   0  0  0  0  0  0  0  0  0  0  0  0
   19.5780   -8.6046  -15.7129 C   0  0  0  0  0  0  0  0  0  0  0  0
   20.2524   -9.1436  -14.7698 O   0  0  0  0  0  0  0  0  0  0  0  0
   24.5906   -5.8626  -16.6576 C   0  0  0  0  0  0  0  0  0  0  0  0
   23.4382   -5.7967  -15.6923 C   0  0  0  0  0  0  0  0  0  0  0  0
   22.2495   -6.5179  -16.1918 C   0  0  2  0  0  0  0  0  0  0  0  0
   21.8384   -6.0699  -17.5899 C   0  0  0  0  0  0  0  0  0  0  0  0
   21.0401   -6.5681  -15.3536 C   0  0  2  0  0  0  0  0  0  0  0  0
   19.9164   -7.2557  -15.9927 N   0  0  0  0  0  0  0  0  0  0  0  0
   20.5608   -5.2765  -14.8437 C   0  0  0  0  0  0  0  0  0  0  0  0
   21.2119   -4.5375  -14.0534 O   0  0  0  0  0  0  0  0  0  0  0  0
   19.3147   -4.8170  -15.2440 O   0  0  0  0  0  0  0  0  0  0  0  0
  2  1  1  6
  3  2  1  0
  4  2  1  0
  4  5  1  0
  5  6  1  1
  7  5  1  0
  7  8  2  0
 10  9  1  6
 10 12  1  0
 11 10  1  0
 12 13  1  1
 13  7  1  0
 14 12  1  0
 15 14  2  0
 17 16  1  0
 17 18  1  0
 18 20  1  0
 18 19  1  6
 20 21  1  6
 20 22  1  0
 21 14  1  0
 22 24  1  0
 23 22  2  0
M  END
$$$$
