LTI.pdb
     RDKit          3D

 24 23  0  0  1  0  0  0  0  0999 V2000
   15.3609  -13.6652  -15.3257 C   0  0  0  0  0  0  0  0  0  0  0  0
   16.3656  -13.6413  -16.4301 C   0  0  1  0  0  0  0  0  0  0  0  0
   15.7518  -13.0671  -17.6906 C   0  0  0  0  0  0  0  0  0  0  0  0
   17.6476  -12.9664  -16.0772 C   0  0  0  0  0  0  0  0  0  0  0  0
   18.5968  -12.9370  -17.2534 C   0  0  2  0  0  0  0  0  0  0  0  0
   19.0750  -14.2946  -17.4917 N   0  0  0  0  0  0  0  0  0  0  0  0
   19.7572  -12.0558  -17.0141 C   0  0  0  0  0  0  0  0  0  0  0  0
   20.7646  -12.4685  -16.3840 O   0  0  0  0  0  0  0  0  0  0  0  0
   21.6474  -10.2764  -19.6725 C   0  0  0  0  0  0  0  0  0  0  0  0
   21.1373   -9.2387  -18.7336 C   0  0  1  0  0  0  0  0  0  0  0  0
   19.8551   -8.8501  -19.1882 O   0  0  0  0  0  0  0  0  0  0  0  0
   20.8914   -9.8223  -17.3347 C   0  0  2  0  0  0  0  0  0  0  0  0
   19.7473  -10.7237  -17.4965 N   0  0  0  0  0  0  0  0  0  0  0  0
   20.4632   -8.7533  -16.3982 C   0  0  0  0  0  0  0  0  0  0  0  0
   19.2293   -8.5221  -16.1559 O   0  0  0  0  0  0  0  0  0  0  0  0
   19.9195   -7.5069  -11.0227 C   0  0  0  0  0  0  0  0  0  0  0  0
   20.2733   -6.7089  -12.2484 C   0  0  0  0  0  0  0  0  0  0  0  0
   20.6878   -7.5702  -13.3749 C   0  0  2  0  0  0  0  0  0  0  0  0
   21.8721   -8.4635  -13.0231 C   0  0  0  0  0  0  0  0  0  0  0  0
   20.9534   -6.9536  -14.6851 C   0  0  2  0  0  0  0  0  0  0  0  0
   21.3744   -7.9143  -15.7067 N   0  0  0  0  0  0  0  0  0  0  0  0
   21.9049   -5.8344  -14.6847 C   0  0  0  0  0  0  0  0  0  0  0  0
   23.0708   -5.8913  -15.1665 O   0  0  0  0  0  0  0  0  0  0  0  0
   21.5193   -4.6250  -14.1253 O   0  0  0  0  0  0  0  0  0  0  0  0
  2  1  1  1
  3  2  1  0
  4  2  1  0
  4  5  1  0
  5  6  1  1
  7  5  1  0
  7  8  2  0
 10  9  1  6
 10 12  1  0
 11 10  1  0
 12 13  1  6
 13  7  1  0
 14 12  1  0
 15 14  2  0
 17 16  1  0
 17 18  1  0
 18 20  1  0
 18 19  1  1
 20 21  1  6
 20 22  1  0
 21 14  1  0
 22 24  1  0
 23 22  2  0
M  END
$$$$
