LTI.pdb
     RDKit          3D

 24 23  0  0  1  0  0  0  0  0999 V2000
   14.2398  -21.1417    2.5230 C   0  0  0  0  0  0  0  0  0  0  0  0
   15.5273  -20.6133    3.0641 C   0  0  1  0  0  0  0  0  0  0  0  0
   16.5602  -20.5068    1.9609 C   0  0  0  0  0  0  0  0  0  0  0  0
   15.3939  -19.3392    3.8273 C   0  0  0  0  0  0  0  0  0  0  0  0
   16.7455  -18.7891    4.2221 C   0  0  2  0  0  0  0  0  0  0  0  0
   17.4991  -19.8511    4.8801 N   0  0  0  0  0  0  0  0  0  0  0  0
   16.6348  -17.6397    5.1424 C   0  0  0  0  0  0  0  0  0  0  0  0
   15.9456  -16.6320    4.8398 O   0  0  0  0  0  0  0  0  0  0  0  0
   16.8300  -16.4930    9.8931 C   0  0  0  0  0  0  0  0  0  0  0  0
   16.9724  -17.4137    8.7310 C   0  0  1  0  0  0  0  0  0  0  0  0
   15.7591  -18.1308    8.6081 O   0  0  0  0  0  0  0  0  0  0  0  0
   17.0974  -16.6358    7.4130 C   0  0  2  0  0  0  0  0  0  0  0  0
   17.3105  -17.6608    6.3875 N   0  0  0  0  0  0  0  0  0  0  0  0
   18.3158  -15.7881    7.4284 C   0  0  0  0  0  0  0  0  0  0  0  0
   19.4790  -16.2734    7.2136 O   0  0  0  0  0  0  0  0  0  0  0  0
   18.8965  -11.2875    4.6753 C   0  0  0  0  0  0  0  0  0  0  0  0
   19.0461  -12.5921    5.4099 C   0  0  0  0  0  0  0  0  0  0  0  0
   19.4335  -12.3964    6.8221 C   0  0  2  0  0  0  0  0  0  0  0  0
   20.7360  -11.6176    6.9686 C   0  0  0  0  0  0  0  0  0  0  0  0
   19.4973  -13.5663    7.7137 C   0  0  2  0  0  0  0  0  0  0  0  0
   18.2887  -14.3921    7.6789 N   0  0  0  0  0  0  0  0  0  0  0  0
   19.8223  -13.2836    9.1182 C   0  0  0  0  0  0  0  0  0  0  0  0
   18.9695  -12.9797    9.9986 O   0  0  0  0  0  0  0  0  0  0  0  0
   21.1458  -13.3502    9.5280 O   0  0  0  0  0  0  0  0  0  0  0  0
  2  1  1  6
  3  2  1  0
  4  2  1  0
  4  5  1  0
  5  6  1  1
  7  5  1  0
  7  8  2  0
 10  9  1  1
 10 12  1  0
 11 10  1  0
 12 13  1  6
 13  7  1  0
 14 12  1  0
 15 14  2  0
 17 16  1  0
 17 18  1  0
 18 20  1  0
 18 19  1  6
 20 21  1  1
 20 22  1  0
 21 14  1  0
 22 24  1  0
 23 22  2  0
M  END
$$$$
