LTI.pdb
     RDKit          3D

 24 23  0  0  1  0  0  0  0  0999 V2000
   15.8110  -13.3919  -14.8883 C   0  0  0  0  0  0  0  0  0  0  0  0
   16.2883  -12.9072  -16.2176 C   0  0  1  0  0  0  0  0  0  0  0  0
   15.2469  -12.0134  -16.8592 C   0  0  0  0  0  0  0  0  0  0  0  0
   17.6330  -12.2636  -16.1879 C   0  0  0  0  0  0  0  0  0  0  0  0
   18.0350  -11.7637  -17.5568 C   0  0  2  0  0  0  0  0  0  0  0  0
   18.3663  -12.9165  -18.3876 N   0  0  0  0  0  0  0  0  0  0  0  0
   19.2026  -10.8614  -17.5024 C   0  0  0  0  0  0  0  0  0  0  0  0
   20.3701  -11.3186  -17.4013 O   0  0  0  0  0  0  0  0  0  0  0  0
   20.0524   -8.2956  -19.9928 C   0  0  0  0  0  0  0  0  0  0  0  0
   19.9254   -7.5715  -18.6974 C   0  0  1  0  0  0  0  0  0  0  0  0
   18.5811   -7.1467  -18.5800 O   0  0  0  0  0  0  0  0  0  0  0  0
   20.1384   -8.5158  -17.5054 C   0  0  2  0  0  0  0  0  0  0  0  0
   19.0175   -9.4581  -17.5642 N   0  0  0  0  0  0  0  0  0  0  0  0
   20.0037   -7.7719  -16.2281 C   0  0  0  0  0  0  0  0  0  0  0  0
   19.0311   -7.9800  -15.4246 O   0  0  0  0  0  0  0  0  0  0  0  0
   21.1329   -7.8927  -11.0111 C   0  0  0  0  0  0  0  0  0  0  0  0
   21.0659   -6.7434  -11.9800 C   0  0  0  0  0  0  0  0  0  0  0  0
   21.0753   -7.1971  -13.3859 C   0  0  2  0  0  0  0  0  0  0  0  0
   22.2944   -8.0507  -13.7169 C   0  0  0  0  0  0  0  0  0  0  0  0
   20.9087   -6.2023  -14.4585 C   0  0  2  0  0  0  0  0  0  0  0  0
   20.9290   -6.7848  -15.8017 N   0  0  0  0  0  0  0  0  0  0  0  0
   21.8446   -5.0704  -14.4325 C   0  0  0  0  0  0  0  0  0  0  0  0
   21.8590   -4.1793  -13.5378 O   0  0  0  0  0  0  0  0  0  0  0  0
   22.7844   -4.9525  -15.4458 O   0  0  0  0  0  0  0  0  0  0  0  0
  2  1  1  1
  3  2  1  0
  4  2  1  0
  4  5  1  0
  5  6  1  6
  7  5  1  0
  7  8  2  0
 10  9  1  6
 10 12  1  0
 11 10  1  0
 12 13  1  1
 13  7  1  0
 14 12  1  0
 15 14  2  0
 17 16  1  0
 17 18  1  0
 18 20  1  0
 18 19  1  6
 20 21  1  6
 20 22  1  0
 21 14  1  0
 22 24  1  0
 23 22  2  0
M  END
$$$$
