LTI.pdb
     RDKit          3D

 24 23  0  0  1  0  0  0  0  0999 V2000
   19.2489  -19.6819  -12.2766 C   0  0  0  0  0  0  0  0  0  0  0  0
   20.6477  -19.6697  -12.7990 C   0  0  1  0  0  0  0  0  0  0  0  0
   21.2013  -18.2595  -12.7942 C   0  0  0  0  0  0  0  0  0  0  0  0
   21.5637  -20.6301  -12.1192 C   0  0  0  0  0  0  0  0  0  0  0  0
   23.0007  -20.4076  -12.5322 C   0  0  2  0  0  0  0  0  0  0  0  0
   23.1560  -20.8531  -13.9129 N   0  0  0  0  0  0  0  0  0  0  0  0
   23.9496  -21.1511  -11.6796 C   0  0  0  0  0  0  0  0  0  0  0  0
   24.1142  -22.3900  -11.8218 O   0  0  0  0  0  0  0  0  0  0  0  0
   26.3643  -22.1463  -12.1149 C   0  0  0  0  0  0  0  0  0  0  0  0
   26.8742  -21.3840  -10.9413 C   0  0  1  0  0  0  0  0  0  0  0  0
   27.2484  -20.0995  -11.4011 O   0  0  0  0  0  0  0  0  0  0  0  0
   25.7596  -21.1196   -9.9188 C   0  0  2  0  0  0  0  0  0  0  0  0
   24.6913  -20.4698  -10.6831 N   0  0  0  0  0  0  0  0  0  0  0  0
   26.2147  -20.1380   -8.9026 C   0  0  0  0  0  0  0  0  0  0  0  0
   25.8821  -18.9047   -8.9583 O   0  0  0  0  0  0  0  0  0  0  0  0
   27.9915  -21.5916   -3.6388 C   0  0  0  0  0  0  0  0  0  0  0  0
   27.2282  -20.9450   -4.7629 C   0  0  0  0  0  0  0  0  0  0  0  0
   28.0953  -20.1083   -5.6178 C   0  0  2  0  0  0  0  0  0  0  0  0
   28.8119  -19.0157   -4.8323 C   0  0  0  0  0  0  0  0  0  0  0  0
   27.5277  -19.5007   -6.8328 C   0  0  2  0  0  0  0  0  0  0  0  0
   27.0429  -20.4835   -7.8039 N   0  0  0  0  0  0  0  0  0  0  0  0
   28.3952  -18.5465   -7.5363 C   0  0  0  0  0  0  0  0  0  0  0  0
   29.2166  -18.8648   -8.4411 O   0  0  0  0  0  0  0  0  0  0  0  0
   28.3239  -17.2019   -7.2032 O   0  0  0  0  0  0  0  0  0  0  0  0
  2  1  1  1
  3  2  1  0
  4  2  1  0
  4  5  1  0
  5  6  1  6
  7  5  1  0
  7  8  2  0
 10  9  1  6
 10 12  1  0
 11 10  1  0
 12 13  1  6
 13  7  1  0
 14 12  1  0
 15 14  2  0
 17 16  1  0
 17 18  1  0
 18 20  1  0
 18 19  1  1
 20 21  1  6
 20 22  1  0
 21 14  1  0
 22 24  1  0
 23 22  2  0
M  END
$$$$
