LTI.pdb
     RDKit          3D

 24 23  0  0  1  0  0  0  0  0999 V2000
   19.3159  -20.9767  -16.6652 C   0  0  0  0  0  0  0  0  0  0  0  0
   20.0523  -20.1961  -15.6270 C   0  0  1  0  0  0  0  0  0  0  0  0
   19.2596  -18.9684  -15.2277 C   0  0  0  0  0  0  0  0  0  0  0  0
   20.4728  -20.9976  -14.4419 C   0  0  0  0  0  0  0  0  0  0  0  0
   21.3674  -20.1963  -13.5239 C   0  0  2  0  0  0  0  0  0  0  0  0
   22.1920  -19.3133  -14.3420 N   0  0  0  0  0  0  0  0  0  0  0  0
   22.2492  -21.0570  -12.7104 C   0  0  0  0  0  0  0  0  0  0  0  0
   21.7875  -22.0380  -12.0726 O   0  0  0  0  0  0  0  0  0  0  0  0
   24.4331  -23.3479  -13.7998 C   0  0  0  0  0  0  0  0  0  0  0  0
   25.3277  -22.4028  -13.0752 C   0  0  1  0  0  0  0  0  0  0  0  0
   25.6896  -21.3812  -13.9846 O   0  0  0  0  0  0  0  0  0  0  0  0
   24.5778  -21.6729  -11.9515 C   0  0  2  0  0  0  0  0  0  0  0  0
   23.6376  -20.7838  -12.6394 N   0  0  0  0  0  0  0  0  0  0  0  0
   25.5092  -20.8026  -11.1910 C   0  0  0  0  0  0  0  0  0  0  0  0
   25.5512  -19.5376  -11.3719 O   0  0  0  0  0  0  0  0  0  0  0  0
   26.9520  -19.7197   -6.0296 C   0  0  0  0  0  0  0  0  0  0  0  0
   26.7604  -19.5971   -7.5171 C   0  0  0  0  0  0  0  0  0  0  0  0
   27.6719  -20.4812   -8.2722 C   0  0  2  0  0  0  0  0  0  0  0  0
   29.1359  -20.2590   -7.9092 C   0  0  0  0  0  0  0  0  0  0  0  0
   27.5668  -20.5293   -9.7399 C   0  0  2  0  0  0  0  0  0  0  0  0
   26.4144  -21.2964  -10.2167 N   0  0  0  0  0  0  0  0  0  0  0  0
   28.7617  -21.0016  -10.4520 C   0  0  0  0  0  0  0  0  0  0  0  0
   28.9773  -22.2076  -10.7583 O   0  0  0  0  0  0  0  0  0  0  0  0
   29.7298  -20.0805  -10.8242 O   0  0  0  0  0  0  0  0  0  0  0  0
  2  1  1  6
  3  2  1  0
  4  2  1  0
  4  5  1  0
  5  6  1  6
  7  5  1  0
  7  8  2  0
 10  9  1  6
 10 12  1  0
 11 10  1  0
 12 13  1  6
 13  7  1  0
 14 12  1  0
 15 14  2  0
 17 16  1  0
 17 18  1  0
 18 20  1  0
 18 19  1  6
 20 21  1  1
 20 22  1  0
 21 14  1  0
 22 24  1  0
 23 22  2  0
M  END
$$$$
