LTI.pdb
     RDKit          3D

 24 23  0  0  1  0  0  0  0  0999 V2000
   23.2136  -22.2658  -14.0095 C   0  0  0  0  0  0  0  0  0  0  0  0
   23.3019  -21.0299  -13.1762 C   0  0  1  0  0  0  0  0  0  0  0  0
   21.9570  -20.7150  -12.5538 C   0  0  0  0  0  0  0  0  0  0  0  0
   24.3939  -21.0523  -12.1611 C   0  0  0  0  0  0  0  0  0  0  0  0
   25.7472  -21.2279  -12.8115 C   0  0  2  0  0  0  0  0  0  0  0  0
   26.6134  -21.9460  -11.8826 N   0  0  0  0  0  0  0  0  0  0  0  0
   26.3765  -19.9362  -13.1517 C   0  0  0  0  0  0  0  0  0  0  0  0
   27.4094  -19.5413  -12.5523 O   0  0  0  0  0  0  0  0  0  0  0  0
   28.5587  -19.2266  -14.4747 C   0  0  0  0  0  0  0  0  0  0  0  0
   27.7350  -18.3367  -15.3396 C   0  0  1  0  0  0  0  0  0  0  0  0
   27.2735  -19.1134  -16.4282 O   0  0  0  0  0  0  0  0  0  0  0  0
   26.4574  -17.8824  -14.6190 C   0  0  2  0  0  0  0  0  0  0  0  0
   25.8175  -19.1208  -14.1666 N   0  0  0  0  0  0  0  0  0  0  0  0
   25.5224  -17.2456  -15.5800 C   0  0  0  0  0  0  0  0  0  0  0  0
   24.5677  -17.8975  -16.1263 O   0  0  0  0  0  0  0  0  0  0  0  0
   22.7161  -13.3142  -13.9641 C   0  0  0  0  0  0  0  0  0  0  0  0
   23.1049  -14.5176  -14.7796 C   0  0  0  0  0  0  0  0  0  0  0  0
   23.8725  -14.1494  -15.9870 C   0  0  2  0  0  0  0  0  0  0  0  0
   23.0511  -13.3280  -16.9743 C   0  0  0  0  0  0  0  0  0  0  0  0
   24.5697  -15.2055  -16.7395 C   0  0  2  0  0  0  0  0  0  0  0  0
   25.6109  -15.8829  -15.9642 N   0  0  0  0  0  0  0  0  0  0  0  0
   25.1453  -14.7993  -18.0285 C   0  0  0  0  0  0  0  0  0  0  0  0
   26.2920  -14.2885  -18.1665 O   0  0  0  0  0  0  0  0  0  0  0  0
   24.3998  -14.9805  -19.1841 O   0  0  0  0  0  0  0  0  0  0  0  0
  2  1  1  1
  3  2  1  0
  4  2  1  0
  4  5  1  0
  5  6  1  1
  7  5  1  0
  7  8  2  0
 10  9  1  1
 10 12  1  0
 11 10  1  0
 12 13  1  6
 13  7  1  0
 14 12  1  0
 15 14  2  0
 17 16  1  0
 17 18  1  0
 18 20  1  0
 18 19  1  6
 20 21  1  1
 20 22  1  0
 21 14  1  0
 22 24  1  0
 23 22  2  0
M  END
$$$$
