LTI.pdb
     RDKit          3D

 24 23  0  0  1  0  0  0  0  0999 V2000
   25.1400  -17.3683  -19.4914 C   0  0  0  0  0  0  0  0  0  0  0  0
   24.2823  -16.1474  -19.5491 C   0  0  1  0  0  0  0  0  0  0  0  0
   22.8431  -16.5255  -19.8335 C   0  0  0  0  0  0  0  0  0  0  0  0
   24.3999  -15.2595  -18.3569 C   0  0  0  0  0  0  0  0  0  0  0  0
   23.5335  -14.0289  -18.4986 C   0  0  2  0  0  0  0  0  0  0  0  0
   24.0187  -13.2541  -19.6357 N   0  0  0  0  0  0  0  0  0  0  0  0
   23.5665  -13.1792  -17.2914 C   0  0  0  0  0  0  0  0  0  0  0  0
   23.3335  -13.6618  -16.1534 O   0  0  0  0  0  0  0  0  0  0  0  0
   26.3046  -11.1732  -15.9563 C   0  0  0  0  0  0  0  0  0  0  0  0
   25.2122  -10.2066  -16.2574 C   0  0  1  0  0  0  0  0  0  0  0  0
   25.3873   -9.7722  -17.5923 O   0  0  0  0  0  0  0  0  0  0  0  0
   23.8392  -10.8942  -16.2511 C   0  0  2  0  0  0  0  0  0  0  0  0
   23.8637  -11.7985  -17.4041 N   0  0  0  0  0  0  0  0  0  0  0  0
   22.7651   -9.9030  -16.5093 C   0  0  0  0  0  0  0  0  0  0  0  0
   22.2775   -9.7243  -17.6776 O   0  0  0  0  0  0  0  0  0  0  0  0
   17.4558   -8.7418  -16.7586 C   0  0  0  0  0  0  0  0  0  0  0  0
   18.6585   -7.9312  -16.3578 C   0  0  0  0  0  0  0  0  0  0  0  0
   19.8395   -8.7782  -16.0925 C   0  0  2  0  0  0  0  0  0  0  0  0
   19.5626   -9.8589  -15.0534 C   0  0  0  0  0  0  0  0  0  0  0  0
   21.1187   -8.1336  -15.7523 C   0  0  2  0  0  0  0  0  0  0  0  0
   22.2010   -9.0859  -15.4960 N   0  0  0  0  0  0  0  0  0  0  0  0
   21.0761   -7.1739  -14.6410 C   0  0  0  0  0  0  0  0  0  0  0  0
   20.4340   -6.0867  -14.6638 O   0  0  0  0  0  0  0  0  0  0  0  0
   21.7782   -7.4597  -13.4794 O   0  0  0  0  0  0  0  0  0  0  0  0
  2  1  1  1
  3  2  1  0
  4  2  1  0
  4  5  1  0
  5  6  1  6
  7  5  1  0
  7  8  2  0
 10  9  1  6
 10 12  1  0
 11 10  1  0
 12 13  1  6
 13  7  1  0
 14 12  1  0
 15 14  2  0
 17 16  1  0
 17 18  1  0
 18 20  1  0
 18 19  1  1
 20 21  1  1
 20 22  1  0
 21 14  1  0
 22 24  1  0
 23 22  2  0
M  END
$$$$
