LTI.pdb
     RDKit          3D

 24 23  0  0  1  0  0  0  0  0999 V2000
   27.1466  -15.3827  -16.6897 C   0  0  0  0  0  0  0  0  0  0  0  0
   27.2221  -16.8298  -16.3292 C   0  0  1  0  0  0  0  0  0  0  0  0
   28.6094  -17.3718  -16.6062 C   0  0  0  0  0  0  0  0  0  0  0  0
   26.7692  -17.1399  -14.9428 C   0  0  0  0  0  0  0  0  0  0  0  0
   26.7964  -18.6273  -14.6739 C   0  0  2  0  0  0  0  0  0  0  0  0
   26.6991  -19.3266  -15.9507 N   0  0  0  0  0  0  0  0  0  0  0  0
   25.6832  -19.0594  -13.8054 C   0  0  0  0  0  0  0  0  0  0  0  0
   24.4922  -19.0113  -14.2071 O   0  0  0  0  0  0  0  0  0  0  0  0
   24.1235  -21.1653  -13.8203 C   0  0  0  0  0  0  0  0  0  0  0  0
   24.5414  -21.4561  -12.4206 C   0  0  1  0  0  0  0  0  0  0  0  0
   25.7447  -22.1973  -12.4834 O   0  0  0  0  0  0  0  0  0  0  0  0
   24.9177  -20.1702  -11.6704 C   0  0  2  0  0  0  0  0  0  0  0  0
   25.9482  -19.5371  -12.4981 N   0  0  0  0  0  0  0  0  0  0  0  0
   25.5564  -20.4992  -10.3716 C   0  0  0  0  0  0  0  0  0  0  0  0
   26.8040  -20.3100  -10.1653 O   0  0  0  0  0  0  0  0  0  0  0  0
   27.4537  -17.9893   -7.7014 C   0  0  0  0  0  0  0  0  0  0  0  0
   26.8702  -19.1967   -8.3841 C   0  0  0  0  0  0  0  0  0  0  0  0
   26.1721  -20.0905   -7.4374 C   0  0  2  0  0  0  0  0  0  0  0  0
   27.0719  -20.5508   -6.2960 C   0  0  0  0  0  0  0  0  0  0  0  0
   25.4585  -21.2673   -7.9603 C   0  0  2  0  0  0  0  0  0  0  0  0
   24.8453  -21.0421   -9.2707 N   0  0  0  0  0  0  0  0  0  0  0  0
   24.4444  -21.8485   -7.0704 C   0  0  0  0  0  0  0  0  0  0  0  0
   23.1985  -21.7162   -7.2290 O   0  0  0  0  0  0  0  0  0  0  0  0
   24.8584  -22.5971   -5.9786 O   0  0  0  0  0  0  0  0  0  0  0  0
  2  1  1  1
  3  2  1  0
  4  2  1  0
  4  5  1  0
  5  6  1  6
  7  5  1  0
  7  8  2  0
 10  9  1  6
 10 12  1  0
 11 10  1  0
 12 13  1  6
 13  7  1  0
 14 12  1  0
 15 14  2  0
 17 16  1  0
 17 18  1  0
 18 20  1  0
 18 19  1  1
 20 21  1  6
 20 22  1  0
 21 14  1  0
 22 24  1  0
 23 22  2  0
M  END
$$$$
