LTI.pdb
     RDKit          3D

 24 23  0  0  1  0  0  0  0  0999 V2000
   23.9318  -31.5668   -9.7640 C   0  0  0  0  0  0  0  0  0  0  0  0
   24.9229  -32.5656   -9.2643 C   0  0  1  0  0  0  0  0  0  0  0  0
   26.1228  -31.8637   -8.6621 C   0  0  0  0  0  0  0  0  0  0  0  0
   24.3512  -33.5851   -8.3384 C   0  0  0  0  0  0  0  0  0  0  0  0
   25.4256  -34.4971   -7.7916 C   0  0  2  0  0  0  0  0  0  0  0  0
   26.0179  -35.2288   -8.9063 N   0  0  0  0  0  0  0  0  0  0  0  0
   24.8928  -35.4655   -6.8125 C   0  0  0  0  0  0  0  0  0  0  0  0
   24.0073  -36.2966   -7.1399 O   0  0  0  0  0  0  0  0  0  0  0  0
   26.1913  -38.2867   -5.6241 C   0  0  0  0  0  0  0  0  0  0  0  0
   26.0879  -37.4606   -4.3891 C   0  0  1  0  0  0  0  0  0  0  0  0
   27.2554  -36.6653   -4.3129 O   0  0  0  0  0  0  0  0  0  0  0  0
   24.9364  -36.4495   -4.4871 C   0  0  2  0  0  0  0  0  0  0  0  0
   25.3785  -35.4679   -5.4815 N   0  0  0  0  0  0  0  0  0  0  0  0
   24.7824  -35.7179   -3.2048 C   0  0  0  0  0  0  0  0  0  0  0  0
   25.4596  -34.6657   -2.9419 O   0  0  0  0  0  0  0  0  0  0  0  0
   19.9953  -35.3510   -0.4458 C   0  0  0  0  0  0  0  0  0  0  0  0
   21.3096  -35.0780   -1.1257 C   0  0  0  0  0  0  0  0  0  0  0  0
   22.4628  -35.4709   -0.2899 C   0  0  2  0  0  0  0  0  0  0  0  0
   22.5148  -34.7096    1.0299 C   0  0  0  0  0  0  0  0  0  0  0  0
   23.8113  -35.4548   -0.8806 C   0  0  2  0  0  0  0  0  0  0  0  0
   23.8850  -36.1207   -2.1826 N   0  0  0  0  0  0  0  0  0  0  0  0
   24.8882  -35.9815   -0.0317 C   0  0  0  0  0  0  0  0  0  0  0  0
   25.2311  -37.1962    0.0111 O   0  0  0  0  0  0  0  0  0  0  0  0
   25.5899  -35.1060    0.7838 O   0  0  0  0  0  0  0  0  0  0  0  0
  2  1  1  1
  3  2  1  0
  4  2  1  0
  4  5  1  0
  5  6  1  6
  7  5  1  0
  7  8  2  0
 10  9  1  6
 10 12  1  0
 11 10  1  0
 12 13  1  6
 13  7  1  0
 14 12  1  0
 15 14  2  0
 17 16  1  0
 17 18  1  0
 18 20  1  0
 18 19  1  1
 20 21  1  6
 20 22  1  0
 21 14  1  0
 22 24  1  0
 23 22  2  0
M  END
$$$$
