LTI.pdb
     RDKit          3D

 24 23  0  0  1  0  0  0  0  0999 V2000
   10.8380  -10.2872  -10.8612 C   0  0  0  0  0  0  0  0  0  0  0  0
   11.8536  -10.8528   -9.9239 C   0  0  1  0  0  0  0  0  0  0  0  0
   11.3430  -10.8027   -8.4985 C   0  0  0  0  0  0  0  0  0  0  0  0
   12.3384  -12.2133  -10.2946 C   0  0  0  0  0  0  0  0  0  0  0  0
   12.9361  -12.2260  -11.6831 C   0  0  2  0  0  0  0  0  0  0  0  0
   13.1462  -13.6142  -12.0799 N   0  0  0  0  0  0  0  0  0  0  0  0
   14.2262  -11.5103  -11.7435 C   0  0  0  0  0  0  0  0  0  0  0  0
   15.2260  -11.9223  -11.1009 O   0  0  0  0  0  0  0  0  0  0  0  0
   17.1120   -8.6988  -14.4077 C   0  0  0  0  0  0  0  0  0  0  0  0
   15.9893   -9.6310  -14.1092 C   0  0  1  0  0  0  0  0  0  0  0  0
   16.4660  -10.9471  -14.3143 O   0  0  0  0  0  0  0  0  0  0  0  0
   15.6047   -9.5859  -12.6233 C   0  0  2  0  0  0  0  0  0  0  0  0
   14.3519  -10.3410  -12.5337 N   0  0  0  0  0  0  0  0  0  0  0  0
   15.2937   -8.1936  -12.2134 C   0  0  0  0  0  0  0  0  0  0  0  0
   14.1895   -7.6288  -12.5240 O   0  0  0  0  0  0  0  0  0  0  0  0
   14.9253   -4.4646   -7.7006 C   0  0  0  0  0  0  0  0  0  0  0  0
   15.3122   -4.4615   -9.1547 C   0  0  0  0  0  0  0  0  0  0  0  0
   15.5715   -5.8230   -9.6664 C   0  0  2  0  0  0  0  0  0  0  0  0
   16.6260   -6.5632   -8.8512 C   0  0  0  0  0  0  0  0  0  0  0  0
   15.8880   -6.0013  -11.0932 C   0  0  2  0  0  0  0  0  0  0  0  0
   16.1829   -7.3891  -11.4555 N   0  0  0  0  0  0  0  0  0  0  0  0
   16.9608   -5.1487  -11.6222 C   0  0  0  0  0  0  0  0  0  0  0  0
   18.1366   -5.5464  -11.8549 O   0  0  0  0  0  0  0  0  0  0  0  0
   16.6878   -3.8160  -11.8933 O   0  0  0  0  0  0  0  0  0  0  0  0
  2  1  1  6
  3  2  1  0
  4  2  1  0
  4  5  1  0
  5  6  1  1
  7  5  1  0
  7  8  2  0
 10  9  1  1
 10 12  1  0
 11 10  1  0
 12 13  1  6
 13  7  1  0
 14 12  1  0
 15 14  2  0
 17 16  1  0
 17 18  1  0
 18 20  1  0
 18 19  1  1
 20 21  1  1
 20 22  1  0
 21 14  1  0
 22 24  1  0
 23 22  2  0
M  END
$$$$
