WLT.pdb
     RDKit          3D

 30 31  0  0  1  0  0  0  0  0999 V2000
    6.2484  -18.3625   24.5448 N   0  0  0  0  0  0  0  0  0  0  0  0
    6.9211  -17.1199   24.4529 C   0  0  1  0  0  0  0  0  0  0  0  0
    7.9041  -16.8000   25.5210 C   0  0  0  0  0  0  0  0  0  0  0  0
    7.5681  -15.4915   26.1239 C   0  0  0  0  0  0  0  0  0  0  0  0
    6.3088  -14.9035   26.1962 C   0  0  0  0  0  0  0  0  0  0  0  0
    6.4315  -13.7511   26.8293 N   0  0  0  0  0  0  0  0  0  0  0  0
    7.7100  -13.5279   27.1894 C   0  0  0  0  0  0  0  0  0  0  0  0
    8.2822  -12.4480   27.8633 C   0  0  0  0  0  0  0  0  0  0  0  0
    9.6391  -12.4563   28.1085 C   0  0  0  0  0  0  0  0  0  0  0  0
   10.3602  -13.5417   27.6693 C   0  0  0  0  0  0  0  0  0  0  0  0
    9.7946  -14.6129   27.0013 C   0  0  0  0  0  0  0  0  0  0  0  0
    8.4285  -14.6152   26.7498 C   0  0  0  0  0  0  0  0  0  0  0  0
    7.6636  -17.0364   23.1416 C   0  0  0  0  0  0  0  0  0  0  0  0
    7.7644  -18.0508   22.4092 O   0  0  0  0  0  0  0  0  0  0  0  0
    8.0279  -12.2938   20.1886 C   0  0  0  0  0  0  0  0  0  0  0  0
    7.8917  -13.8279   20.1879 C   0  0  2  0  0  0  0  0  0  0  0  0
    6.5367  -14.2571   20.6457 C   0  0  0  0  0  0  0  0  0  0  0  0
    9.0009  -14.3424   21.0268 C   0  0  0  0  0  0  0  0  0  0  0  0
    8.9281  -15.7874   21.4164 C   0  0  2  0  0  0  0  0  0  0  0  0
    8.2513  -15.8232   22.7235 N   0  0  0  0  0  0  0  0  0  0  0  0
   10.3094  -16.3132   21.5519 C   0  0  0  0  0  0  0  0  0  0  0  0
   11.0846  -16.3636   20.5761 O   0  0  0  0  0  0  0  0  0  0  0  0
   13.2059  -15.2400   23.4374 C   0  0  0  0  0  0  0  0  0  0  0  0
   12.8221  -16.5853   24.0145 C   0  0  1  0  0  0  0  0  0  0  0  0
   12.0279  -16.3464   25.1323 O   0  0  0  0  0  0  0  0  0  0  0  0
   12.0739  -17.4066   22.9862 C   0  0  2  0  0  0  0  0  0  0  0  0
   10.7801  -16.7739   22.8081 N   0  0  0  0  0  0  0  0  0  0  0  0
   11.8704  -18.7931   23.4095 C   0  0  0  0  0  0  0  0  0  0  0  0
   10.7174  -19.2867   23.5208 O   0  0  0  0  0  0  0  0  0  0  0  0
   12.9396  -19.6269   23.7075 O   0  0  0  0  0  0  0  0  0  0  0  0
  2  1  1  1
  2 13  1  0
  2  3  1  0
  3  4  1  0
  4  5  2  0
  6  5  1  0
  7  6  1  0
  8  7  2  0
  9  8  1  0
 10  9  2  0
 10 11  1  0
 11 12  2  0
 12  7  1  0
 12  4  1  0
 13 14  2  0
 16 15  1  1
 17 16  1  0
 19 18  1  1
 18 16  1  0
 20 19  1  0
 20 13  1  0
 21 22  2  0
 21 19  1  0
 24 23  1  6
 24 26  1  0
 25 24  1  0
 26 28  1  0
 26 27  1  1
 27 21  1  0
 28 30  1  0
 29 28  2  0
M  END
$$$$
