WLT.pdb
     RDKit          3D

 30 31  0  0  1  0  0  0  0  0999 V2000
    6.3140  -17.4946   25.0502 N   0  0  0  0  0  0  0  0  0  0  0  0
    7.1168  -16.4070   24.6286 C   0  0  1  0  0  0  0  0  0  0  0  0
    8.3688  -16.1532   25.3885 C   0  0  0  0  0  0  0  0  0  0  0  0
    8.0940  -15.2015   26.4871 C   0  0  0  0  0  0  0  0  0  0  0  0
    8.2670  -15.4256   27.8498 C   0  0  0  0  0  0  0  0  0  0  0  0
    7.9314  -14.3214   28.4915 N   0  0  0  0  0  0  0  0  0  0  0  0
    7.5392  -13.3604   27.6332 C   0  0  0  0  0  0  0  0  0  0  0  0
    7.1015  -12.0576   27.8762 C   0  0  0  0  0  0  0  0  0  0  0  0
    6.7450  -11.2622   26.8077 C   0  0  0  0  0  0  0  0  0  0  0  0
    6.8421  -11.8049   25.5479 C   0  0  0  0  0  0  0  0  0  0  0  0
    7.2759  -13.0959   25.3054 C   0  0  0  0  0  0  0  0  0  0  0  0
    7.6383  -13.9054   26.3744 C   0  0  0  0  0  0  0  0  0  0  0  0
    7.5164  -16.5958   23.1855 C   0  0  0  0  0  0  0  0  0  0  0  0
    7.2721  -17.6795   22.6010 O   0  0  0  0  0  0  0  0  0  0  0  0
    6.2940  -14.2257   20.0029 C   0  0  0  0  0  0  0  0  0  0  0  0
    7.5208  -13.5639   20.6578 C   0  0  2  0  0  0  0  0  0  0  0  0
    7.7394  -12.1813   20.1377 C   0  0  0  0  0  0  0  0  0  0  0  0
    8.6613  -14.4821   20.4231 C   0  0  0  0  0  0  0  0  0  0  0  0
    8.5880  -15.8214   21.0911 C   0  0  2  0  0  0  0  0  0  0  0  0
    8.1667  -15.5623   22.4778 N   0  0  0  0  0  0  0  0  0  0  0  0
    9.9413  -16.4309   21.0832 C   0  0  0  0  0  0  0  0  0  0  0  0
   10.5040  -16.7513   20.0172 O   0  0  0  0  0  0  0  0  0  0  0  0
   13.2086  -15.2680   22.2147 C   0  0  0  0  0  0  0  0  0  0  0  0
   12.8644  -16.4544   23.0888 C   0  0  1  0  0  0  0  0  0  0  0  0
   12.3062  -15.9572   24.2629 O   0  0  0  0  0  0  0  0  0  0  0  0
   11.8936  -17.3713   22.3757 C   0  0  2  0  0  0  0  0  0  0  0  0
   10.6288  -16.6636   22.3018 N   0  0  0  0  0  0  0  0  0  0  0  0
   11.6890  -18.6373   23.0818 C   0  0  0  0  0  0  0  0  0  0  0  0
   10.5602  -18.9668   23.5321 O   0  0  0  0  0  0  0  0  0  0  0  0
   12.7303  -19.5320   23.2871 O   0  0  0  0  0  0  0  0  0  0  0  0
  2  1  1  1
  2 13  1  0
  2  3  1  0
  3  4  1  0
  4  5  2  0
  6  5  1  0
  7  6  1  0
  8  7  2  0
  9  8  1  0
 10  9  2  0
 10 11  1  0
 11 12  2  0
 12  7  1  0
 12  4  1  0
 13 14  2  0
 16 15  1  6
 17 16  1  0
 19 18  1  6
 18 16  1  0
 20 19  1  0
 20 13  1  0
 21 22  2  0
 21 19  1  0
 24 23  1  6
 24 26  1  0
 25 24  1  0
 26 28  1  0
 26 27  1  1
 27 21  1  0
 28 30  1  0
 29 28  2  0
M  END
$$$$
