WLT.pdb
     RDKit          3D

 30 31  0  0  1  0  0  0  0  0999 V2000
    6.0570  -18.2749   24.1494 N   0  0  0  0  0  0  0  0  0  0  0  0
    6.6988  -17.0193   24.0209 C   0  0  1  0  0  0  0  0  0  0  0  0
    7.6029  -16.6033   25.1249 C   0  0  0  0  0  0  0  0  0  0  0  0
    6.9869  -15.4842   25.8709 C   0  0  0  0  0  0  0  0  0  0  0  0
    5.7841  -15.5082   26.5707 C   0  0  0  0  0  0  0  0  0  0  0  0
    5.6033  -14.3181   27.1138 N   0  0  0  0  0  0  0  0  0  0  0  0
    6.6222  -13.4886   26.8173 C   0  0  0  0  0  0  0  0  0  0  0  0
    6.8341  -12.1562   27.1748 C   0  0  0  0  0  0  0  0  0  0  0  0
    7.9726  -11.5180   26.7300 C   0  0  0  0  0  0  0  0  0  0  0  0
    8.8451  -12.2397   25.9496 C   0  0  0  0  0  0  0  0  0  0  0  0
    8.6365  -13.5603   25.5946 C   0  0  0  0  0  0  0  0  0  0  0  0
    7.4934  -14.2130   26.0378 C   0  0  0  0  0  0  0  0  0  0  0  0
    7.5200  -16.9923   22.7548 C   0  0  0  0  0  0  0  0  0  0  0  0
    7.7615  -18.0585   22.1380 O   0  0  0  0  0  0  0  0  0  0  0  0
    6.8219  -14.0491   19.6157 C   0  0  0  0  0  0  0  0  0  0  0  0
    7.8259  -13.4576   20.6228 C   0  0  2  0  0  0  0  0  0  0  0  0
    8.1511  -12.0363   20.3006 C   0  0  0  0  0  0  0  0  0  0  0  0
    9.0021  -14.3606   20.6137 C   0  0  0  0  0  0  0  0  0  0  0  0
    8.7456  -15.7941   20.9668 C   0  0  2  0  0  0  0  0  0  0  0  0
    8.0246  -15.7746   22.2503 N   0  0  0  0  0  0  0  0  0  0  0  0
   10.0496  -16.4829   21.1340 C   0  0  0  0  0  0  0  0  0  0  0  0
   10.4956  -17.2521   20.2593 O   0  0  0  0  0  0  0  0  0  0  0  0
   13.1696  -15.9998   20.6086 C   0  0  0  0  0  0  0  0  0  0  0  0
   13.1900  -16.1313   22.1160 C   0  0  1  0  0  0  0  0  0  0  0  0
   13.0840  -14.8488   22.6463 O   0  0  0  0  0  0  0  0  0  0  0  0
   12.0466  -17.0056   22.5850 C   0  0  2  0  0  0  0  0  0  0  0  0
   10.8228  -16.2774   22.3053 N   0  0  0  0  0  0  0  0  0  0  0  0
   12.1088  -17.2970   24.0183 C   0  0  0  0  0  0  0  0  0  0  0  0
   11.1777  -16.9684   24.7996 O   0  0  0  0  0  0  0  0  0  0  0  0
   13.1975  -17.9491   24.5812 O   0  0  0  0  0  0  0  0  0  0  0  0
  2  1  1  1
  2 13  1  0
  2  3  1  0
  3  4  1  0
  4  5  2  0
  6  5  1  0
  7  6  1  0
  8  7  2  0
  9  8  1  0
 10  9  2  0
 10 11  1  0
 11 12  2  0
 12  7  1  0
 12  4  1  0
 13 14  2  0
 16 15  1  6
 17 16  1  0
 19 18  1  1
 18 16  1  0
 20 19  1  0
 20 13  1  0
 21 22  2  0
 21 19  1  0
 24 23  1  6
 24 26  1  0
 25 24  1  0
 26 28  1  0
 26 27  1  1
 27 21  1  0
 28 30  1  0
 29 28  2  0
M  END
$$$$
