WLT.pdb
     RDKit          3D

 30 31  0  0  1  0  0  0  0  0999 V2000
   10.1397  -15.1414   24.9328 N   0  0  0  0  0  0  0  0  0  0  0  0
    9.4907  -16.3768   24.6925 C   0  0  1  0  0  0  0  0  0  0  0  0
    8.3865  -16.7536   25.6134 C   0  0  0  0  0  0  0  0  0  0  0  0
    7.4579  -15.6117   25.7623 C   0  0  0  0  0  0  0  0  0  0  0  0
    6.1313  -15.5536   25.3456 C   0  0  0  0  0  0  0  0  0  0  0  0
    5.6477  -14.3725   25.6848 N   0  0  0  0  0  0  0  0  0  0  0  0
    6.5792  -13.6270   26.3098 C   0  0  0  0  0  0  0  0  0  0  0  0
    6.5014  -12.3326   26.8260 C   0  0  0  0  0  0  0  0  0  0  0  0
    7.6166  -11.7828   27.4221 C   0  0  0  0  0  0  0  0  0  0  0  0
    8.7561  -12.5508   27.4745 C   0  0  0  0  0  0  0  0  0  0  0  0
    8.8347  -13.8339   26.9635 C   0  0  0  0  0  0  0  0  0  0  0  0
    7.7171  -14.3977   26.3616 C   0  0  0  0  0  0  0  0  0  0  0  0
    8.9146  -16.3886   23.2975 C   0  0  0  0  0  0  0  0  0  0  0  0
    8.1533  -17.3198   22.9384 O   0  0  0  0  0  0  0  0  0  0  0  0
    6.4839  -14.1932   21.0243 C   0  0  0  0  0  0  0  0  0  0  0  0
    7.8238  -13.4342   20.9998 C   0  0  2  0  0  0  0  0  0  0  0  0
    7.6761  -12.0832   20.3812 C   0  0  0  0  0  0  0  0  0  0  0  0
    8.7862  -14.3160   20.2960 C   0  0  0  0  0  0  0  0  0  0  0  0
    9.0799  -15.6347   20.9440 C   0  0  2  0  0  0  0  0  0  0  0  0
    9.2226  -15.3586   22.3831 N   0  0  0  0  0  0  0  0  0  0  0  0
   10.3605  -16.1550   20.4034 C   0  0  0  0  0  0  0  0  0  0  0  0
   10.4574  -16.5450   19.2226 O   0  0  0  0  0  0  0  0  0  0  0  0
   13.1206  -14.5289   19.5802 C   0  0  0  0  0  0  0  0  0  0  0  0
   13.6878  -15.4773   20.6140 C   0  0  1  0  0  0  0  0  0  0  0  0
   13.7711  -14.7802   21.8158 O   0  0  0  0  0  0  0  0  0  0  0  0
   12.7998  -16.6950   20.7566 C   0  0  2  0  0  0  0  0  0  0  0  0
   11.5124  -16.2195   21.2285 N   0  0  0  0  0  0  0  0  0  0  0  0
   13.3262  -17.6695   21.7139 C   0  0  0  0  0  0  0  0  0  0  0  0
   12.6923  -17.9787   22.7570 O   0  0  0  0  0  0  0  0  0  0  0  0
   14.5483  -18.2972   21.5150 O   0  0  0  0  0  0  0  0  0  0  0  0
  2  1  1  1
  2 13  1  0
  2  3  1  0
  3  4  1  0
  4  5  2  0
  6  5  1  0
  7  6  1  0
  8  7  2  0
  9  8  1  0
 10  9  2  0
 10 11  1  0
 11 12  2  0
 12  7  1  0
 12  4  1  0
 13 14  2  0
 16 15  1  6
 17 16  1  0
 19 18  1  6
 18 16  1  0
 20 19  1  0
 20 13  1  0
 21 22  2  0
 21 19  1  0
 24 23  1  6
 24 26  1  0
 25 24  1  0
 26 28  1  0
 26 27  1  1
 27 21  1  0
 28 30  1  0
 29 28  2  0
M  END
$$$$
