WLT.pdb
     RDKit          3D

 30 31  0  0  1  0  0  0  0  0999 V2000
    7.4922  -16.5228   21.8635 N   0  0  0  0  0  0  0  0  0  0  0  0
    8.8616  -16.6712   22.1918 C   0  0  1  0  0  0  0  0  0  0  0  0
    9.8518  -16.0746   21.2575 C   0  0  0  0  0  0  0  0  0  0  0  0
    9.1421  -15.4592   20.1147 C   0  0  0  0  0  0  0  0  0  0  0  0
    9.0144  -15.9816   18.8310 C   0  0  0  0  0  0  0  0  0  0  0  0
    8.2901  -15.1393   18.1171 N   0  0  0  0  0  0  0  0  0  0  0  0
    7.9208  -14.0723   18.8514 C   0  0  0  0  0  0  0  0  0  0  0  0
    7.1644  -12.9533   18.4999 C   0  0  0  0  0  0  0  0  0  0  0  0
    6.9289  -11.9809   19.4487 C   0  0  0  0  0  0  0  0  0  0  0  0
    7.4596  -12.1715   20.7030 C   0  0  0  0  0  0  0  0  0  0  0  0
    8.2094  -13.2801   21.0530 C   0  0  0  0  0  0  0  0  0  0  0  0
    8.4519  -14.2660   20.1052 C   0  0  0  0  0  0  0  0  0  0  0  0
    9.1298  -16.0694   23.5497 C   0  0  0  0  0  0  0  0  0  0  0  0
   10.3074  -15.8242   23.9085 O   0  0  0  0  0  0  0  0  0  0  0  0
    8.2885  -12.5950   26.0540 C   0  0  0  0  0  0  0  0  0  0  0  0
    7.0326  -13.4380   25.7640 C   0  0  2  0  0  0  0  0  0  0  0  0
    5.7908  -12.7436   26.2173 C   0  0  0  0  0  0  0  0  0  0  0  0
    7.2575  -14.7525   26.4125 C   0  0  0  0  0  0  0  0  0  0  0  0
    8.3704  -15.5886   25.8577 C   0  0  2  0  0  0  0  0  0  0  0  0
    8.0659  -15.7759   24.4295 N   0  0  0  0  0  0  0  0  0  0  0  0
    8.3672  -16.9024   26.5481 C   0  0  0  0  0  0  0  0  0  0  0  0
    7.3041  -17.5107   26.7836 O   0  0  0  0  0  0  0  0  0  0  0  0
    9.8030  -19.9836   25.5224 C   0  0  0  0  0  0  0  0  0  0  0  0
   10.4905  -19.6965   26.8396 C   0  0  1  0  0  0  0  0  0  0  0  0
   11.7280  -19.1304   26.5474 O   0  0  0  0  0  0  0  0  0  0  0  0
    9.6516  -18.7566   27.6789 C   0  0  2  0  0  0  0  0  0  0  0  0
    9.5871  -17.4986   26.9583 N   0  0  0  0  0  0  0  0  0  0  0  0
   10.2263  -18.5162   29.0037 C   0  0  0  0  0  0  0  0  0  0  0  0
   10.6327  -17.3758   29.3497 O   0  0  0  0  0  0  0  0  0  0  0  0
   10.3492  -19.5348   29.9389 O   0  0  0  0  0  0  0  0  0  0  0  0
  2  1  1  6
  2 13  1  0
  2  3  1  0
  3  4  1  0
  4  5  2  0
  6  5  1  0
  7  6  1  0
  8  7  2  0
  9  8  1  0
 10  9  2  0
 10 11  1  0
 11 12  2  0
 12  7  1  0
 12  4  1  0
 13 14  2  0
 16 15  1  1
 17 16  1  0
 19 18  1  1
 18 16  1  0
 20 19  1  0
 20 13  1  0
 21 22  2  0
 21 19  1  0
 24 23  1  6
 24 26  1  0
 25 24  1  0
 26 28  1  0
 26 27  1  6
 27 21  1  0
 28 30  1  0
 29 28  2  0
M  END
$$$$
