WLT.pdb
     RDKit          3D

 30 31  0  0  1  0  0  0  0  0999 V2000
    6.3944  -17.6109   25.2234 N   0  0  0  0  0  0  0  0  0  0  0  0
    7.1390  -16.5242   24.7039 C   0  0  1  0  0  0  0  0  0  0  0  0
    8.4340  -16.2122   25.3634 C   0  0  0  0  0  0  0  0  0  0  0  0
    8.2078  -15.2465   26.4610 C   0  0  0  0  0  0  0  0  0  0  0  0
    8.2943  -15.4987   27.8270 C   0  0  0  0  0  0  0  0  0  0  0  0
    8.0443  -14.3713   28.4674 N   0  0  0  0  0  0  0  0  0  0  0  0
    7.7923  -13.3678   27.6051 C   0  0  0  0  0  0  0  0  0  0  0  0
    7.4794  -12.0291   27.8452 C   0  0  0  0  0  0  0  0  0  0  0  0
    7.2556  -11.1923   26.7723 C   0  0  0  0  0  0  0  0  0  0  0  0
    7.3544  -11.7315   25.5111 C   0  0  0  0  0  0  0  0  0  0  0  0
    7.6645  -13.0582   25.2715 C   0  0  0  0  0  0  0  0  0  0  0  0
    7.8927  -13.9096   26.3449 C   0  0  0  0  0  0  0  0  0  0  0  0
    7.4422  -16.7635   23.2449 C   0  0  0  0  0  0  0  0  0  0  0  0
    7.1154  -17.8477   22.7033 O   0  0  0  0  0  0  0  0  0  0  0  0
    6.1840  -14.4381   20.1621 C   0  0  0  0  0  0  0  0  0  0  0  0
    7.5018  -13.8061   20.6478 C   0  0  2  0  0  0  0  0  0  0  0  0
    7.7337  -12.4723   20.0178 C   0  0  0  0  0  0  0  0  0  0  0  0
    8.5664  -14.7986   20.3640 C   0  0  0  0  0  0  0  0  0  0  0  0
    8.4703  -16.1061   21.0895 C   0  0  2  0  0  0  0  0  0  0  0  0
    8.0936  -15.7768   22.4742 N   0  0  0  0  0  0  0  0  0  0  0  0
    9.8038  -16.7575   21.0735 C   0  0  0  0  0  0  0  0  0  0  0  0
   10.2793  -17.2399   20.0262 O   0  0  0  0  0  0  0  0  0  0  0  0
   12.8721  -15.9765   20.6182 C   0  0  0  0  0  0  0  0  0  0  0  0
   12.9027  -16.4069   22.0687 C   0  0  1  0  0  0  0  0  0  0  0  0
   12.6394  -15.2799   22.8419 O   0  0  0  0  0  0  0  0  0  0  0  0
   11.8723  -17.4870   22.3205 C   0  0  2  0  0  0  0  0  0  0  0  0
   10.5721  -16.8451   22.2625 N   0  0  0  0  0  0  0  0  0  0  0  0
   12.0295  -18.1241   23.6292 C   0  0  0  0  0  0  0  0  0  0  0  0
   11.1041  -18.1152   24.4830 O   0  0  0  0  0  0  0  0  0  0  0  0
   13.2063  -18.7672   23.9883 O   0  0  0  0  0  0  0  0  0  0  0  0
  2  1  1  1
  2 13  1  0
  2  3  1  0
  3  4  1  0
  4  5  2  0
  6  5  1  0
  7  6  1  0
  8  7  2  0
  9  8  1  0
 10  9  2  0
 10 11  1  0
 11 12  2  0
 12  7  1  0
 12  4  1  0
 13 14  2  0
 16 15  1  6
 17 16  1  0
 19 18  1  6
 18 16  1  0
 20 19  1  0
 20 13  1  0
 21 22  2  0
 21 19  1  0
 24 23  1  6
 24 26  1  0
 25 24  1  0
 26 28  1  0
 26 27  1  1
 27 21  1  0
 28 30  1  0
 29 28  2  0
M  END
$$$$
