WLT.pdb
     RDKit          3D

 30 31  0  0  1  0  0  0  0  0999 V2000
    7.3815  -18.1912   25.1486 N   0  0  0  0  0  0  0  0  0  0  0  0
    6.9905  -17.0342   24.4320 C   0  0  1  0  0  0  0  0  0  0  0  0
    7.1546  -15.7248   25.1160 C   0  0  0  0  0  0  0  0  0  0  0  0
    7.9897  -15.9013   26.3242 C   0  0  0  0  0  0  0  0  0  0  0  0
    8.3459  -17.1050   26.9253 C   0  0  0  0  0  0  0  0  0  0  0  0
    9.1151  -16.8317   27.9632 N   0  0  0  0  0  0  0  0  0  0  0  0
    9.2981  -15.5040   28.0966 C   0  0  0  0  0  0  0  0  0  0  0  0
   10.0256  -14.7843   29.0455 C   0  0  0  0  0  0  0  0  0  0  0  0
   10.0499  -13.4080   28.9660 C   0  0  0  0  0  0  0  0  0  0  0  0
    9.3468  -12.8155   27.9433 C   0  0  0  0  0  0  0  0  0  0  0  0
    8.6254  -13.5274   27.0019 C   0  0  0  0  0  0  0  0  0  0  0  0
    8.5948  -14.9143   27.0723 C   0  0  0  0  0  0  0  0  0  0  0  0
    7.7647  -16.9479   23.1393 C   0  0  0  0  0  0  0  0  0  0  0  0
    8.0073  -17.9880   22.4798 O   0  0  0  0  0  0  0  0  0  0  0  0
    7.7071  -12.2377   20.0911 C   0  0  0  0  0  0  0  0  0  0  0  0
    7.4938  -13.7148   20.4714 C   0  0  2  0  0  0  0  0  0  0  0  0
    6.4269  -13.8650   21.5052 C   0  0  0  0  0  0  0  0  0  0  0  0
    8.8186  -14.2286   20.8952 C   0  0  0  0  0  0  0  0  0  0  0  0
    8.8696  -15.6602   21.3349 C   0  0  2  0  0  0  0  0  0  0  0  0
    8.2237  -15.7033   22.6572 N   0  0  0  0  0  0  0  0  0  0  0  0
   10.2911  -16.0694   21.4570 C   0  0  0  0  0  0  0  0  0  0  0  0
   11.0794  -15.9769   20.4949 O   0  0  0  0  0  0  0  0  0  0  0  0
   12.4122  -15.5862   24.7982 C   0  0  0  0  0  0  0  0  0  0  0  0
   12.4575  -17.0211   24.3194 C   0  0  1  0  0  0  0  0  0  0  0  0
   11.5285  -17.7381   25.0678 O   0  0  0  0  0  0  0  0  0  0  0  0
   12.1336  -17.0950   22.8425 C   0  0  2  0  0  0  0  0  0  0  0  0
   10.7863  -16.5794   22.6844 N   0  0  0  0  0  0  0  0  0  0  0  0
   12.1833  -18.4619   22.3206 C   0  0  0  0  0  0  0  0  0  0  0  0
   11.1436  -19.0605   21.9382 O   0  0  0  0  0  0  0  0  0  0  0  0
   13.3791  -19.1604   22.2237 O   0  0  0  0  0  0  0  0  0  0  0  0
  2  1  1  1
  2 13  1  0
  2  3  1  0
  3  4  1  0
  4  5  2  0
  6  5  1  0
  7  6  1  0
  8  7  2  0
  9  8  1  0
 10  9  2  0
 10 11  1  0
 11 12  2  0
 12  7  1  0
 12  4  1  0
 13 14  2  0
 16 15  1  1
 17 16  1  0
 19 18  1  1
 18 16  1  0
 20 19  1  0
 20 13  1  0
 21 22  2  0
 21 19  1  0
 24 23  1  1
 24 26  1  0
 25 24  1  0
 26 28  1  0
 26 27  1  1
 27 21  1  0
 28 30  1  0
 29 28  2  0
M  END
$$$$
