WLT.pdb
     RDKit          3D

 30 31  0  0  1  0  0  0  0  0999 V2000
    5.8219  -18.1966   23.8560 N   0  0  0  0  0  0  0  0  0  0  0  0
    6.5420  -16.9773   23.8570 C   0  0  1  0  0  0  0  0  0  0  0  0
    7.4138  -16.7051   25.0296 C   0  0  0  0  0  0  0  0  0  0  0  0
    6.8708  -15.5592   25.7917 C   0  0  0  0  0  0  0  0  0  0  0  0
    5.6204  -15.4755   26.3971 C   0  0  0  0  0  0  0  0  0  0  0  0
    5.5330  -14.3007   26.9938 N   0  0  0  0  0  0  0  0  0  0  0  0
    6.6604  -13.5837   26.8232 C   0  0  0  0  0  0  0  0  0  0  0  0
    6.9931  -12.3050   27.2729 C   0  0  0  0  0  0  0  0  0  0  0  0
    8.2291  -11.7845   26.9524 C   0  0  0  0  0  0  0  0  0  0  0  0
    9.0740  -12.5649   26.1985 C   0  0  0  0  0  0  0  0  0  0  0  0
    8.7458  -13.8324   25.7523 C   0  0  0  0  0  0  0  0  0  0  0  0
    7.5037  -14.3667   26.0700 C   0  0  0  0  0  0  0  0  0  0  0  0
    7.4243  -16.9038   22.6347 C   0  0  0  0  0  0  0  0  0  0  0  0
    7.6993  -17.9469   21.9929 O   0  0  0  0  0  0  0  0  0  0  0  0
    6.9978  -14.3488   19.1286 C   0  0  0  0  0  0  0  0  0  0  0  0
    7.6457  -13.5437   20.2705 C   0  0  2  0  0  0  0  0  0  0  0  0
    7.8021  -12.1044   19.9048 C   0  0  0  0  0  0  0  0  0  0  0  0
    8.9238  -14.2266   20.5852 C   0  0  0  0  0  0  0  0  0  0  0  0
    8.8267  -15.6581   21.0172 C   0  0  2  0  0  0  0  0  0  0  0  0
    7.9492  -15.6681   22.1994 N   0  0  0  0  0  0  0  0  0  0  0  0
   10.1813  -16.1337   21.3936 C   0  0  0  0  0  0  0  0  0  0  0  0
   11.0988  -16.2155   20.5526 O   0  0  0  0  0  0  0  0  0  0  0  0
   12.8759  -14.7971   23.0337 C   0  0  0  0  0  0  0  0  0  0  0  0
   12.4112  -15.9037   23.9553 C   0  0  1  0  0  0  0  0  0  0  0  0
   11.5138  -15.3421   24.8589 O   0  0  0  0  0  0  0  0  0  0  0  0
   11.7543  -17.0118   23.1602 C   0  0  2  0  0  0  0  0  0  0  0  0
   10.4620  -16.5088   22.7324 N   0  0  0  0  0  0  0  0  0  0  0  0
   11.5531  -18.2296   23.9473 C   0  0  0  0  0  0  0  0  0  0  0  0
   10.4003  -18.6631   24.2094 O   0  0  0  0  0  0  0  0  0  0  0  0
   12.6243  -18.9620   24.4406 O   0  0  0  0  0  0  0  0  0  0  0  0
  2  1  1  1
  2 13  1  0
  2  3  1  0
  3  4  1  0
  4  5  2  0
  6  5  1  0
  7  6  1  0
  8  7  2  0
  9  8  1  0
 10  9  2  0
 10 11  1  0
 11 12  2  0
 12  7  1  0
 12  4  1  0
 13 14  2  0
 16 15  1  6
 17 16  1  0
 19 18  1  1
 18 16  1  0
 20 19  1  0
 20 13  1  0
 21 22  2  0
 21 19  1  0
 24 23  1  6
 24 26  1  0
 25 24  1  0
 26 28  1  0
 26 27  1  1
 27 21  1  0
 28 30  1  0
 29 28  2  0
M  END
$$$$
