WLT.pdb
     RDKit          3D

 30 31  0  0  1  0  0  0  0  0999 V2000
    5.7300  -18.4662   24.5050 N   0  0  0  0  0  0  0  0  0  0  0  0
    6.3021  -17.1732   24.5820 C   0  0  1  0  0  0  0  0  0  0  0  0
    6.8759  -16.7619   25.8900 C   0  0  0  0  0  0  0  0  0  0  0  0
    6.5834  -15.3315   26.1283 C   0  0  0  0  0  0  0  0  0  0  0  0
    5.3401  -14.7099   26.0589 C   0  0  0  0  0  0  0  0  0  0  0  0
    5.5030  -13.4349   26.3616 N   0  0  0  0  0  0  0  0  0  0  0  0
    6.7936  -13.1606   26.6323 C   0  0  0  0  0  0  0  0  0  0  0  0
    7.4048  -11.9573   26.9876 C   0  0  0  0  0  0  0  0  0  0  0  0
    8.7658  -11.9386   27.2080 C   0  0  0  0  0  0  0  0  0  0  0  0
    9.4519  -13.1216   27.0630 C   0  0  0  0  0  0  0  0  0  0  0  0
    8.8475  -14.3151   26.7111 C   0  0  0  0  0  0  0  0  0  0  0  0
    7.4770  -14.3453   26.4876 C   0  0  0  0  0  0  0  0  0  0  0  0
    7.4080  -17.0421   23.5633 C   0  0  0  0  0  0  0  0  0  0  0  0
    8.0657  -18.0527   23.2143 O   0  0  0  0  0  0  0  0  0  0  0  0
    7.2251  -14.8989   19.6388 C   0  0  0  0  0  0  0  0  0  0  0  0
    7.4839  -13.8982   20.7806 C   0  0  2  0  0  0  0  0  0  0  0  0
    7.5096  -12.4917   20.2800 C   0  0  0  0  0  0  0  0  0  0  0  0
    8.7456  -14.3285   21.4302 C   0  0  0  0  0  0  0  0  0  0  0  0
    8.7746  -15.7254   21.9716 C   0  0  2  0  0  0  0  0  0  0  0  0
    7.7157  -15.7885   22.9926 N   0  0  0  0  0  0  0  0  0  0  0  0
   10.0963  -15.9624   22.6040 C   0  0  0  0  0  0  0  0  0  0  0  0
   10.5282  -15.2180   23.5067 O   0  0  0  0  0  0  0  0  0  0  0  0
   11.4575  -19.5028   23.7778 C   0  0  0  0  0  0  0  0  0  0  0  0
   12.3531  -18.8559   22.7437 C   0  0  1  0  0  0  0  0  0  0  0  0
   11.9880  -19.3656   21.5010 O   0  0  0  0  0  0  0  0  0  0  0  0
   12.1962  -17.3506   22.7771 C   0  0  2  0  0  0  0  0  0  0  0  0
   10.9031  -17.0528   22.1893 N   0  0  0  0  0  0  0  0  0  0  0  0
   13.2356  -16.6568   22.0146 C   0  0  0  0  0  0  0  0  0  0  0  0
   12.9784  -16.0701   20.9306 O   0  0  0  0  0  0  0  0  0  0  0  0
   14.5524  -16.6142   22.4523 O   0  0  0  0  0  0  0  0  0  0  0  0
  2  1  1  1
  2 13  1  0
  2  3  1  0
  3  4  1  0
  4  5  2  0
  6  5  1  0
  7  6  1  0
  8  7  2  0
  9  8  1  0
 10  9  2  0
 10 11  1  0
 11 12  2  0
 12  7  1  0
 12  4  1  0
 13 14  2  0
 16 15  1  6
 17 16  1  0
 19 18  1  1
 18 16  1  0
 20 19  1  0
 20 13  1  0
 21 22  2  0
 21 19  1  0
 24 23  1  1
 24 26  1  0
 25 24  1  0
 26 28  1  0
 26 27  1  6
 27 21  1  0
 28 30  1  0
 29 28  2  0
M  END
$$$$
