WLT.pdb
     RDKit          3D

 30 31  0  0  1  0  0  0  0  0999 V2000
    6.0631  -17.9361   25.3149 N   0  0  0  0  0  0  0  0  0  0  0  0
    6.7594  -16.7439   25.0003 C   0  0  1  0  0  0  0  0  0  0  0  0
    8.1334  -16.5961   25.5477 C   0  0  0  0  0  0  0  0  0  0  0  0
    8.1325  -15.5658   26.6092 C   0  0  0  0  0  0  0  0  0  0  0  0
    8.4746  -15.7435   27.9466 C   0  0  0  0  0  0  0  0  0  0  0  0
    8.3652  -14.5766   28.5550 N   0  0  0  0  0  0  0  0  0  0  0  0
    7.9659  -13.6171   27.6983 C   0  0  0  0  0  0  0  0  0  0  0  0
    7.7212  -12.2600   27.9138 C   0  0  0  0  0  0  0  0  0  0  0  0
    7.3074  -11.4793   26.8552 C   0  0  0  0  0  0  0  0  0  0  0  0
    7.1574  -12.0901   25.6323 C   0  0  0  0  0  0  0  0  0  0  0  0
    7.3997  -13.4349   25.4170 C   0  0  0  0  0  0  0  0  0  0  0  0
    7.8177  -14.2303   26.4762 C   0  0  0  0  0  0  0  0  0  0  0  0
    6.8717  -16.5977   23.5023 C   0  0  0  0  0  0  0  0  0  0  0  0
    6.4754  -17.5196   22.7482 O   0  0  0  0  0  0  0  0  0  0  0  0
    8.8060  -14.0987   19.1306 C   0  0  0  0  0  0  0  0  0  0  0  0
    7.4684  -13.5628   19.6744 C   0  0  2  0  0  0  0  0  0  0  0  0
    7.3060  -12.1062   19.3886 C   0  0  0  0  0  0  0  0  0  0  0  0
    7.4442  -13.8988   21.1185 C   0  0  0  0  0  0  0  0  0  0  0  0
    7.5370  -15.3532   21.4668 C   0  0  2  0  0  0  0  0  0  0  0  0
    7.4208  -15.4291   22.9326 N   0  0  0  0  0  0  0  0  0  0  0  0
    8.8658  -15.8597   21.0418 C   0  0  0  0  0  0  0  0  0  0  0  0
    9.1479  -16.0140   19.8367 O   0  0  0  0  0  0  0  0  0  0  0  0
   12.1280  -14.4249   21.5535 C   0  0  0  0  0  0  0  0  0  0  0  0
   12.1816  -15.7650   22.2543 C   0  0  1  0  0  0  0  0  0  0  0  0
   11.9269  -15.5385   23.6037 O   0  0  0  0  0  0  0  0  0  0  0  0
   11.1583  -16.7110   21.6630 C   0  0  2  0  0  0  0  0  0  0  0  0
    9.8520  -16.1818   22.0090 N   0  0  0  0  0  0  0  0  0  0  0  0
   11.2747  -18.0715   22.1910 C   0  0  0  0  0  0  0  0  0  0  0  0
   10.3510  -18.5992   22.8647 O   0  0  0  0  0  0  0  0  0  0  0  0
   12.4089  -18.8417   21.9729 O   0  0  0  0  0  0  0  0  0  0  0  0
  2  1  1  6
  2 13  1  0
  2  3  1  0
  3  4  1  0
  4  5  2  0
  6  5  1  0
  7  6  1  0
  8  7  2  0
  9  8  1  0
 10  9  2  0
 10 11  1  0
 11 12  2  0
 12  7  1  0
 12  4  1  0
 13 14  2  0
 16 15  1  1
 17 16  1  0
 19 18  1  1
 18 16  1  0
 20 19  1  0
 20 13  1  0
 21 22  2  0
 21 19  1  0
 24 23  1  6
 24 26  1  0
 25 24  1  0
 26 28  1  0
 26 27  1  1
 27 21  1  0
 28 30  1  0
 29 28  2  0
M  END
$$$$
