WLT.pdb
     RDKit          3D

 30 31  0  0  1  0  0  0  0  0999 V2000
   10.3455  -16.0711   21.1667 N   0  0  0  0  0  0  0  0  0  0  0  0
    9.0916  -15.5831   21.6080 C   0  0  1  0  0  0  0  0  0  0  0  0
    7.8808  -16.3175   21.1566 C   0  0  0  0  0  0  0  0  0  0  0  0
    7.5049  -15.8613   19.8005 C   0  0  0  0  0  0  0  0  0  0  0  0
    6.8864  -16.6146   18.8070 C   0  0  0  0  0  0  0  0  0  0  0  0
    6.7033  -15.8348   17.7571 N   0  0  0  0  0  0  0  0  0  0  0  0
    7.1667  -14.5914   17.9883 C   0  0  0  0  0  0  0  0  0  0  0  0
    7.1816  -13.4662   17.1629 C   0  0  0  0  0  0  0  0  0  0  0  0
    7.7284  -12.2940   17.6407 C   0  0  0  0  0  0  0  0  0  0  0  0
    8.2344  -12.3008   18.9194 C   0  0  0  0  0  0  0  0  0  0  0  0
    8.2203  -13.4152   19.7388 C   0  0  0  0  0  0  0  0  0  0  0  0
    7.6711  -14.6009   19.2677 C   0  0  0  0  0  0  0  0  0  0  0  0
    9.0516  -15.5671   23.1166 C   0  0  0  0  0  0  0  0  0  0  0  0
    9.8960  -16.2211   23.7760 O   0  0  0  0  0  0  0  0  0  0  0  0
    5.9189  -12.3680   27.2835 C   0  0  0  0  0  0  0  0  0  0  0  0
    7.1041  -13.3367   27.1135 C   0  0  2  0  0  0  0  0  0  0  0  0
    8.3770  -12.7369   27.6132 C   0  0  0  0  0  0  0  0  0  0  0  0
    7.1356  -13.7044   25.6773 C   0  0  0  0  0  0  0  0  0  0  0  0
    8.1787  -14.6982   25.2656 C   0  0  2  0  0  0  0  0  0  0  0  0
    8.0694  -14.8208   23.8025 N   0  0  0  0  0  0  0  0  0  0  0  0
    7.8702  -16.0025   25.9030 C   0  0  0  0  0  0  0  0  0  0  0  0
    6.7012  -16.4317   25.9731 O   0  0  0  0  0  0  0  0  0  0  0  0
    8.3983  -19.1514   24.8669 C   0  0  0  0  0  0  0  0  0  0  0  0
    9.2048  -19.1367   26.1473 C   0  0  1  0  0  0  0  0  0  0  0  0
   10.5282  -18.8794   25.8016 O   0  0  0  0  0  0  0  0  0  0  0  0
    8.6775  -18.0770   27.0910 C   0  0  2  0  0  0  0  0  0  0  0  0
    8.9107  -16.7954   26.4513 N   0  0  0  0  0  0  0  0  0  0  0  0
    9.3533  -18.0896   28.3896 C   0  0  0  0  0  0  0  0  0  0  0  0
   10.0054  -17.0954   28.8039 O   0  0  0  0  0  0  0  0  0  0  0  0
    9.3057  -19.1986   29.2234 O   0  0  0  0  0  0  0  0  0  0  0  0
  2  1  1  1
  2 13  1  0
  2  3  1  0
  3  4  1  0
  4  5  2  0
  6  5  1  0
  7  6  1  0
  8  7  2  0
  9  8  1  0
 10  9  2  0
 10 11  1  0
 11 12  2  0
 12  7  1  0
 12  4  1  0
 13 14  2  0
 16 15  1  6
 17 16  1  0
 19 18  1  1
 18 16  1  0
 20 19  1  0
 20 13  1  0
 21 22  2  0
 21 19  1  0
 24 23  1  6
 24 26  1  0
 25 24  1  0
 26 28  1  0
 26 27  1  6
 27 21  1  0
 28 30  1  0
 29 28  2  0
M  END
$$$$
