EPS.pdb
     RDKit          3D

 23 23  0  0  1  0  0  0  0  0999 V2000
    9.5591  -16.8481   17.3824 N   0  0  0  0  0  0  0  0  0  0  0  0
    8.4877  -16.9322   18.4031 C   0  0  1  0  0  0  0  0  0  0  0  0
    7.8984  -18.3243   18.3015 C   0  0  0  0  0  0  0  0  0  0  0  0
    7.2182  -18.8094   19.5430 C   0  0  0  0  0  0  0  0  0  0  0  0
    5.9319  -19.5144   19.1980 C   0  0  0  0  0  0  0  0  0  0  0  0
    5.9723  -20.4861   18.4086 O   0  0  0  0  0  0  0  0  0  0  0  0
    9.1204  -16.6831   19.7287 C   0  0  0  0  0  0  0  0  0  0  0  0
   10.0289  -17.5327   20.0327 O   0  0  0  0  0  0  0  0  0  0  0  0
    4.7354  -19.1198   19.7227 O   0  0  0  0  0  0  0  0  0  0  0  0
    8.7692  -15.6206   20.5802 N   0  0  0  0  0  0  0  0  0  0  0  0
    8.2161  -14.3536   20.0514 C   0  0  0  0  0  0  0  0  0  0  0  0
    7.0189  -14.1740   20.9494 C   0  0  0  0  0  0  0  0  0  0  0  0
    7.2866  -15.0028   22.1819 C   0  0  0  0  0  0  0  0  0  0  0  0
    8.7848  -15.3570   21.9767 C   0  0  1  0  0  0  0  0  0  0  0  0
    9.1092  -16.4150   22.9073 C   0  0  0  0  0  0  0  0  0  0  0  0
    8.4349  -17.4335   23.1482 O   0  0  0  0  0  0  0  0  0  0  0  0
   13.0877  -16.5201   24.2681 O   0  0  0  0  0  0  0  0  0  0  0  0
   12.2853  -17.6383   24.2736 C   0  0  0  0  0  0  0  0  0  0  0  0
   10.8241  -17.2772   24.5454 C   0  0  2  0  0  0  0  0  0  0  0  0
   10.3335  -16.2931   23.6376 N   0  0  0  0  0  0  0  0  0  0  0  0
   10.7696  -16.7525   25.9195 C   0  0  0  0  0  0  0  0  0  0  0  0
   11.1651  -17.5223   26.9840 O   0  0  0  0  0  0  0  0  0  0  0  0
   10.3573  -15.5933   26.1051 O   0  0  0  0  0  0  0  0  0  0  0  0
  2  1  1  6
  2  7  1  0
  3  2  1  0
  4  3  1  0
  5  4  1  0
  6  5  2  0
  7  8  2  0
  9  5  1  0
 10  7  1  0
 11 10  1  0
 12 11  1  0
 13 12  1  0
 13 14  1  0
 14 15  1  1
 14 10  1  0
 15 16  2  0
 19 18  1  6
 18 17  1  0
 20 19  1  0
 20 15  1  0
 21 22  1  0
 21 19  1  0
 23 21  2  0
M  END
$$$$
