EPS.pdb
     RDKit          3D

 23 23  0  0  1  0  0  0  0  0999 V2000
    9.9299  -16.5358   17.6514 N   0  0  0  0  0  0  0  0  0  0  0  0
    8.8995  -16.7929   18.6853 C   0  0  1  0  0  0  0  0  0  0  0  0
    8.5135  -18.2528   18.5610 C   0  0  0  0  0  0  0  0  0  0  0  0
    7.5284  -18.7299   19.5815 C   0  0  0  0  0  0  0  0  0  0  0  0
    7.1480  -20.1637   19.3167 C   0  0  0  0  0  0  0  0  0  0  0  0
    5.9559  -20.4271   19.0365 O   0  0  0  0  0  0  0  0  0  0  0  0
    9.5131  -16.4825   20.0069 C   0  0  0  0  0  0  0  0  0  0  0  0
   10.5389  -17.1991   20.2787 O   0  0  0  0  0  0  0  0  0  0  0  0
    8.0665  -21.1713   19.3753 O   0  0  0  0  0  0  0  0  0  0  0  0
    9.0285  -15.4987   20.8869 N   0  0  0  0  0  0  0  0  0  0  0  0
    8.4258  -14.2419   20.3888 C   0  0  0  0  0  0  0  0  0  0  0  0
    7.1587  -14.1965   21.2039 C   0  0  0  0  0  0  0  0  0  0  0  0
    7.3969  -15.0779   22.4055 C   0  0  0  0  0  0  0  0  0  0  0  0
    8.9271  -15.3186   22.2931 C   0  0  1  0  0  0  0  0  0  0  0  0
    9.2592  -16.4065   23.1858 C   0  0  0  0  0  0  0  0  0  0  0  0
    8.6595  -17.4915   23.2998 O   0  0  0  0  0  0  0  0  0  0  0  0
   13.1255  -16.3991   24.8283 O   0  0  0  0  0  0  0  0  0  0  0  0
   12.3532  -17.5351   24.7434 C   0  0  0  0  0  0  0  0  0  0  0  0
   10.8706  -17.2204   24.9490 C   0  0  2  0  0  0  0  0  0  0  0  0
   10.3968  -16.2328   24.0360 N   0  0  0  0  0  0  0  0  0  0  0  0
   10.7337  -16.7243   26.3280 C   0  0  0  0  0  0  0  0  0  0  0  0
   11.1387  -17.4863   27.3945 O   0  0  0  0  0  0  0  0  0  0  0  0
   10.2423  -15.5966   26.5159 O   0  0  0  0  0  0  0  0  0  0  0  0
  2  1  1  6
  2  7  1  0
  3  2  1  0
  4  3  1  0
  5  4  1  0
  6  5  2  0
  7  8  2  0
  9  5  1  0
 10  7  1  0
 11 10  1  0
 12 11  1  0
 13 12  1  0
 13 14  1  0
 14 15  1  1
 14 10  1  0
 15 16  2  0
 19 18  1  6
 18 17  1  0
 20 19  1  0
 20 15  1  0
 21 22  1  0
 21 19  1  0
 23 21  2  0
M  END
$$$$
