EPS.pdb
     RDKit          3D

 23 23  0  0  1  0  0  0  0  0999 V2000
    9.9887  -14.6318   15.3960 N   0  0  0  0  0  0  0  0  0  0  0  0
    9.0173  -15.1726   16.3762 C   0  0  1  0  0  0  0  0  0  0  0  0
    8.7720  -16.6178   15.9936 C   0  0  0  0  0  0  0  0  0  0  0  0
    7.5400  -17.2237   16.5891 C   0  0  0  0  0  0  0  0  0  0  0  0
    7.2744  -18.5786   15.9855 C   0  0  0  0  0  0  0  0  0  0  0  0
    6.0868  -18.9503   15.8425 O   0  0  0  0  0  0  0  0  0  0  0  0
    9.6343  -15.0436   17.7262 C   0  0  0  0  0  0  0  0  0  0  0  0
   10.7071  -15.7281   17.8688 O   0  0  0  0  0  0  0  0  0  0  0  0
    8.2911  -19.4009   15.5951 O   0  0  0  0  0  0  0  0  0  0  0  0
    9.1059  -14.2497   18.7595 N   0  0  0  0  0  0  0  0  0  0  0  0
    8.5262  -12.9144   18.4920 C   0  0  0  0  0  0  0  0  0  0  0  0
    7.2207  -13.0210   19.2380 C   0  0  0  0  0  0  0  0  0  0  0  0
    7.4015  -14.1249   20.2511 C   0  0  0  0  0  0  0  0  0  0  0  0
    8.9357  -14.3510   20.1669 C   0  0  1  0  0  0  0  0  0  0  0  0
    9.2257  -15.5968   20.8411 C   0  0  0  0  0  0  0  0  0  0  0  0
    8.5868  -16.6619   20.7542 O   0  0  0  0  0  0  0  0  0  0  0  0
   12.6598  -15.5343   23.2830 O   0  0  0  0  0  0  0  0  0  0  0  0
   12.2426  -16.7573   22.8093 C   0  0  0  0  0  0  0  0  0  0  0  0
   10.7469  -16.7529   22.4894 C   0  0  2  0  0  0  0  0  0  0  0  0
   10.3663  -15.6250   21.7044 N   0  0  0  0  0  0  0  0  0  0  0  0
   10.0412  -16.7169   23.7806 C   0  0  0  0  0  0  0  0  0  0  0  0
   10.2115  -17.7164   24.7048 O   0  0  0  0  0  0  0  0  0  0  0  0
    9.2825  -15.7615   24.0253 O   0  0  0  0  0  0  0  0  0  0  0  0
  2  1  1  6
  2  7  1  0
  3  2  1  0
  4  3  1  0
  5  4  1  0
  6  5  2  0
  7  8  2  0
  9  5  1  0
 10  7  1  0
 11 10  1  0
 12 11  1  0
 13 12  1  0
 13 14  1  0
 14 15  1  6
 14 10  1  0
 15 16  2  0
 19 18  1  1
 18 17  1  0
 20 19  1  0
 20 15  1  0
 21 22  1  0
 21 19  1  0
 23 21  2  0
M  END
$$$$
