EPS.pdb
     RDKit          3D

 23 23  0  0  1  0  0  0  0  0999 V2000
   10.3145  -15.1666   15.6049 N   0  0  0  0  0  0  0  0  0  0  0  0
    9.1371  -15.3807   16.4794 C   0  0  1  0  0  0  0  0  0  0  0  0
    8.5800  -16.7462   16.1322 C   0  0  0  0  0  0  0  0  0  0  0  0
    7.4891  -17.2269   17.0367 C   0  0  0  0  0  0  0  0  0  0  0  0
    7.0163  -18.5933   16.6123 C   0  0  0  0  0  0  0  0  0  0  0  0
    7.1699  -19.5540   17.4012 O   0  0  0  0  0  0  0  0  0  0  0  0
    9.6150  -15.3084   17.8886 C   0  0  0  0  0  0  0  0  0  0  0  0
   10.4150  -16.2554   18.2096 O   0  0  0  0  0  0  0  0  0  0  0  0
    6.4300  -18.8035   15.3981 O   0  0  0  0  0  0  0  0  0  0  0  0
    9.2370  -14.3033   18.7963 N   0  0  0  0  0  0  0  0  0  0  0  0
    8.8975  -12.9361   18.3419 C   0  0  0  0  0  0  0  0  0  0  0  0
    7.5965  -12.7138   19.0699 C   0  0  0  0  0  0  0  0  0  0  0  0
    7.5864  -13.6857   20.2245 C   0  0  0  0  0  0  0  0  0  0  0  0
    9.0575  -14.1830   20.2011 C   0  0  1  0  0  0  0  0  0  0  0  0
    9.1289  -15.3579   21.0409 C   0  0  0  0  0  0  0  0  0  0  0  0
    8.2129  -16.1679   21.2753 O   0  0  0  0  0  0  0  0  0  0  0  0
   12.7037  -17.2459   21.4692 O   0  0  0  0  0  0  0  0  0  0  0  0
   11.5169  -17.7973   21.8954 C   0  0  0  0  0  0  0  0  0  0  0  0
   10.6109  -16.7464   22.5389 C   0  0  2  0  0  0  0  0  0  0  0  0
   10.3800  -15.6331   21.6782 N   0  0  0  0  0  0  0  0  0  0  0  0
   11.2952  -16.2928   23.7604 C   0  0  0  0  0  0  0  0  0  0  0  0
   11.5345  -17.1588   24.7971 O   0  0  0  0  0  0  0  0  0  0  0  0
   11.6569  -15.1049   23.8418 O   0  0  0  0  0  0  0  0  0  0  0  0
  2  1  1  6
  2  7  1  0
  3  2  1  0
  4  3  1  0
  5  4  1  0
  6  5  2  0
  7  8  2  0
  9  5  1  0
 10  7  1  0
 11 10  1  0
 12 11  1  0
 13 12  1  0
 13 14  1  0
 14 15  1  1
 14 10  1  0
 15 16  2  0
 19 18  1  6
 18 17  1  0
 20 19  1  0
 20 15  1  0
 21 22  1  0
 21 19  1  0
 23 21  2  0
M  END
$$$$
