EPS.pdb
     RDKit          3D

 23 23  0  0  1  0  0  0  0  0999 V2000
    9.9904  -15.2337   15.3327 N   0  0  0  0  0  0  0  0  0  0  0  0
    8.9111  -15.1069   16.3405 C   0  0  1  0  0  0  0  0  0  0  0  0
    8.0632  -16.3576   16.2295 C   0  0  0  0  0  0  0  0  0  0  0  0
    8.7961  -17.6368   16.4864 C   0  0  0  0  0  0  0  0  0  0  0  0
    7.8388  -18.8005   16.4932 C   0  0  0  0  0  0  0  0  0  0  0  0
    6.6298  -18.5854   16.2466 O   0  0  0  0  0  0  0  0  0  0  0  0
    9.5642  -14.9850   17.6740 C   0  0  0  0  0  0  0  0  0  0  0  0
   10.5902  -15.7383   17.8148 O   0  0  0  0  0  0  0  0  0  0  0  0
    8.2579  -20.0716   16.7599 O   0  0  0  0  0  0  0  0  0  0  0  0
    9.1141  -14.1289   18.6945 N   0  0  0  0  0  0  0  0  0  0  0  0
    8.5299  -12.8029   18.3926 C   0  0  0  0  0  0  0  0  0  0  0  0
    7.2769  -12.8516   19.2291 C   0  0  0  0  0  0  0  0  0  0  0  0
    7.5155  -13.9006   20.2876 C   0  0  0  0  0  0  0  0  0  0  0  0
    9.0384  -14.1507   20.1137 C   0  0  1  0  0  0  0  0  0  0  0  0
    9.3618  -15.3612   20.8351 C   0  0  0  0  0  0  0  0  0  0  0  0
    8.7939  -16.4650   20.7388 O   0  0  0  0  0  0  0  0  0  0  0  0
   13.1355  -16.0856   21.8042 O   0  0  0  0  0  0  0  0  0  0  0  0
   12.3628  -16.3113   22.9206 C   0  0  0  0  0  0  0  0  0  0  0  0
   10.8778  -16.3992   22.5649 C   0  0  2  0  0  0  0  0  0  0  0  0
   10.4490  -15.3007   21.7633 N   0  0  0  0  0  0  0  0  0  0  0  0
   10.1400  -16.3990   23.8385 C   0  0  0  0  0  0  0  0  0  0  0  0
   10.2839  -17.4262   24.7364 O   0  0  0  0  0  0  0  0  0  0  0  0
    9.3784  -15.4483   24.0927 O   0  0  0  0  0  0  0  0  0  0  0  0
  2  1  1  6
  2  7  1  0
  3  2  1  0
  4  3  1  0
  5  4  1  0
  6  5  2  0
  7  8  2  0
  9  5  1  0
 10  7  1  0
 11 10  1  0
 12 11  1  0
 13 12  1  0
 13 14  1  0
 14 15  1  6
 14 10  1  0
 15 16  2  0
 19 18  1  1
 18 17  1  0
 20 19  1  0
 20 15  1  0
 21 22  1  0
 21 19  1  0
 23 21  2  0
M  END
$$$$
