EPS.pdb
     RDKit          3D

 23 23  0  0  1  0  0  0  0  0999 V2000
   10.1902  -15.4819   15.5798 N   0  0  0  0  0  0  0  0  0  0  0  0
    9.0500  -15.2488   16.4977 C   0  0  1  0  0  0  0  0  0  0  0  0
    8.1359  -16.4503   16.3697 C   0  0  0  0  0  0  0  0  0  0  0  0
    7.5900  -16.6792   14.9953 C   0  0  0  0  0  0  0  0  0  0  0  0
    7.4080  -18.1530   14.7393 C   0  0  0  0  0  0  0  0  0  0  0  0
    8.1123  -18.7017   13.8608 O   0  0  0  0  0  0  0  0  0  0  0  0
    9.6103  -15.1103   17.8712 C   0  0  0  0  0  0  0  0  0  0  0  0
   10.5336  -15.9566   18.1377 O   0  0  0  0  0  0  0  0  0  0  0  0
    6.5005  -18.8950   15.4380 O   0  0  0  0  0  0  0  0  0  0  0  0
    9.1814  -14.1474   18.8018 N   0  0  0  0  0  0  0  0  0  0  0  0
    8.8558  -12.7632   18.3908 C   0  0  0  0  0  0  0  0  0  0  0  0
    7.5190  -12.5786   19.0622 C   0  0  0  0  0  0  0  0  0  0  0  0
    7.4582  -13.6000   20.1716 C   0  0  0  0  0  0  0  0  0  0  0  0
    8.9319  -14.0894   20.1998 C   0  0  1  0  0  0  0  0  0  0  0  0
    8.9693  -15.2995   20.9903 C   0  0  0  0  0  0  0  0  0  0  0  0
    8.0500  -16.1259   21.1389 O   0  0  0  0  0  0  0  0  0  0  0  0
   11.4579  -18.9194   22.5189 O   0  0  0  0  0  0  0  0  0  0  0  0
   11.3047  -17.7763   21.7680 C   0  0  0  0  0  0  0  0  0  0  0  0
   10.3969  -16.7640   22.4685 C   0  0  2  0  0  0  0  0  0  0  0  0
   10.1867  -15.5931   21.6823 N   0  0  0  0  0  0  0  0  0  0  0  0
   11.0666  -16.3999   23.7276 C   0  0  0  0  0  0  0  0  0  0  0  0
   11.2501  -17.3272   24.7219 O   0  0  0  0  0  0  0  0  0  0  0  0
   11.4674  -15.2318   23.8802 O   0  0  0  0  0  0  0  0  0  0  0  0
  2  1  1  6
  2  7  1  0
  3  2  1  0
  4  3  1  0
  5  4  1  0
  6  5  2  0
  7  8  2  0
  9  5  1  0
 10  7  1  0
 11 10  1  0
 12 11  1  0
 13 12  1  0
 13 14  1  0
 14 15  1  6
 14 10  1  0
 15 16  2  0
 19 18  1  6
 18 17  1  0
 20 19  1  0
 20 15  1  0
 21 22  1  0
 21 19  1  0
 23 21  2  0
M  END
$$$$
