EPS.pdb
     RDKit          3D

 23 23  0  0  1  0  0  0  0  0999 V2000
    8.0078  -14.7204   21.3458 N   0  0  0  0  0  0  0  0  0  0  0  0
    7.2061  -14.6851   22.5919 C   0  0  1  0  0  0  0  0  0  0  0  0
    6.4461  -15.9941   22.6573 C   0  0  0  0  0  0  0  0  0  0  0  0
    7.2992  -17.2043   22.8747 C   0  0  0  0  0  0  0  0  0  0  0  0
    6.4410  -18.4331   23.0297 C   0  0  0  0  0  0  0  0  0  0  0  0
    5.1995  -18.3179   22.9102 O   0  0  0  0  0  0  0  0  0  0  0  0
    8.1596  -14.5293   23.7260 C   0  0  0  0  0  0  0  0  0  0  0  0
    9.2231  -15.2320   23.6039 O   0  0  0  0  0  0  0  0  0  0  0  0
    6.9833  -19.6570   23.2950 O   0  0  0  0  0  0  0  0  0  0  0  0
    7.9333  -13.6940   24.8342 N   0  0  0  0  0  0  0  0  0  0  0  0
    7.2110  -12.4088   24.7016 C   0  0  0  0  0  0  0  0  0  0  0  0
    6.2187  -12.5273   25.8300 C   0  0  0  0  0  0  0  0  0  0  0  0
    6.7837  -13.5508   26.7844 C   0  0  0  0  0  0  0  0  0  0  0  0
    8.2241  -13.7085   26.2253 C   0  0  1  0  0  0  0  0  0  0  0  0
    8.7948  -14.8909   26.8310 C   0  0  0  0  0  0  0  0  0  0  0  0
    8.2573  -16.0082   26.9442 O   0  0  0  0  0  0  0  0  0  0  0  0
   12.9685  -16.6559   28.6842 O   0  0  0  0  0  0  0  0  0  0  0  0
   12.3182  -15.6117   28.0670 C   0  0  0  0  0  0  0  0  0  0  0  0
   10.8072  -15.8440   28.0182 C   0  0  2  0  0  0  0  0  0  0  0  0
   10.1188  -14.7815   27.3621 N   0  0  0  0  0  0  0  0  0  0  0  0
   10.3516  -15.9398   29.4145 C   0  0  0  0  0  0  0  0  0  0  0  0
   10.6623  -17.0323   30.1838 O   0  0  0  0  0  0  0  0  0  0  0  0
    9.6758  -15.0105   29.8922 O   0  0  0  0  0  0  0  0  0  0  0  0
  2  1  1  6
  2  7  1  0
  3  2  1  0
  4  3  1  0
  5  4  1  0
  6  5  2  0
  7  8  2  0
  9  5  1  0
 10  7  1  0
 11 10  1  0
 12 11  1  0
 13 12  1  0
 13 14  1  0
 14 15  1  1
 14 10  1  0
 15 16  2  0
 19 18  1  1
 18 17  1  0
 20 19  1  0
 20 15  1  0
 21 22  1  0
 21 19  1  0
 23 21  2  0
M  END
$$$$
