EPS.pdb
     RDKit          3D

 23 23  0  0  1  0  0  0  0  0999 V2000
   12.9729  -14.1244   17.9908 N   0  0  0  0  0  0  0  0  0  0  0  0
   11.5244  -14.4334   17.9337 C   0  0  1  0  0  0  0  0  0  0  0  0
   11.3839  -15.7140   17.1364 C   0  0  0  0  0  0  0  0  0  0  0  0
    9.9847  -16.2326   17.0244 C   0  0  0  0  0  0  0  0  0  0  0  0
    9.9605  -17.5186   16.2394 C   0  0  0  0  0  0  0  0  0  0  0  0
   10.2238  -18.5898   16.8328 O   0  0  0  0  0  0  0  0  0  0  0  0
   11.0504  -14.5883   19.3376 C   0  0  0  0  0  0  0  0  0  0  0  0
   11.7415  -15.4188   20.0249 O   0  0  0  0  0  0  0  0  0  0  0  0
    9.6606  -17.5400   14.9082 O   0  0  0  0  0  0  0  0  0  0  0  0
    9.9517  -13.8965   19.8773 N   0  0  0  0  0  0  0  0  0  0  0  0
    9.5277  -12.5810   19.3475 C   0  0  0  0  0  0  0  0  0  0  0  0
    8.0477  -12.8107   19.1784 C   0  0  0  0  0  0  0  0  0  0  0  0
    7.6936  -13.9681   20.0800 C   0  0  0  0  0  0  0  0  0  0  0  0
    8.9986  -14.1012   20.9115 C   0  0  1  0  0  0  0  0  0  0  0  0
    8.9431  -15.3710   21.6008 C   0  0  0  0  0  0  0  0  0  0  0  0
    8.3554  -16.4022   21.2250 O   0  0  0  0  0  0  0  0  0  0  0  0
   12.1188  -16.2311   23.9793 O   0  0  0  0  0  0  0  0  0  0  0  0
   11.2337  -17.1933   23.5493 C   0  0  0  0  0  0  0  0  0  0  0  0
    9.7923  -16.6827   23.5822 C   0  0  2  0  0  0  0  0  0  0  0  0
    9.6329  -15.4693   22.8504 N   0  0  0  0  0  0  0  0  0  0  0  0
    9.4601  -16.4532   24.9976 C   0  0  0  0  0  0  0  0  0  0  0  0
    9.4733  -17.4856   25.9009 O   0  0  0  0  0  0  0  0  0  0  0  0
    9.1650  -15.3024   25.3676 O   0  0  0  0  0  0  0  0  0  0  0  0
  2  1  1  1
  2  7  1  0
  3  2  1  0
  4  3  1  0
  5  4  1  0
  6  5  2  0
  7  8  2  0
  9  5  1  0
 10  7  1  0
 11 10  1  0
 12 11  1  0
 13 12  1  0
 13 14  1  0
 14 15  1  6
 14 10  1  0
 15 16  2  0
 19 18  1  1
 18 17  1  0
 20 19  1  0
 20 15  1  0
 21 22  1  0
 21 19  1  0
 23 21  2  0
M  END
$$$$
