EPS.pdb
     RDKit          3D

 23 23  0  0  1  0  0  0  0  0999 V2000
    9.8623  -15.6849   15.4628 N   0  0  0  0  0  0  0  0  0  0  0  0
    8.8166  -15.2735   16.4293 C   0  0  1  0  0  0  0  0  0  0  0  0
    7.7536  -16.3529   16.4057 C   0  0  0  0  0  0  0  0  0  0  0  0
    8.2388  -17.7014   15.9751 C   0  0  0  0  0  0  0  0  0  0  0  0
    7.5315  -18.7866   16.7450 C   0  0  0  0  0  0  0  0  0  0  0  0
    8.2089  -19.7307   17.2126 O   0  0  0  0  0  0  0  0  0  0  0  0
    9.4701  -15.1547   17.7628 C   0  0  0  0  0  0  0  0  0  0  0  0
   10.4423  -15.9704   17.9335 O   0  0  0  0  0  0  0  0  0  0  0  0
    6.1812  -18.7621   16.9414 O   0  0  0  0  0  0  0  0  0  0  0  0
    9.0737  -14.2393   18.7538 N   0  0  0  0  0  0  0  0  0  0  0  0
    8.6537  -12.8615   18.4131 C   0  0  0  0  0  0  0  0  0  0  0  0
    7.3679  -12.7595   19.1931 C   0  0  0  0  0  0  0  0  0  0  0  0
    7.4426  -13.8128   20.2713 C   0  0  0  0  0  0  0  0  0  0  0  0
    8.9345  -14.2318   20.1683 C   0  0  1  0  0  0  0  0  0  0  0  0
    9.0901  -15.4600   20.9152 C   0  0  0  0  0  0  0  0  0  0  0  0
    8.3260  -16.4429   20.9083 O   0  0  0  0  0  0  0  0  0  0  0  0
   12.8462  -16.0862   22.7433 O   0  0  0  0  0  0  0  0  0  0  0  0
   12.0013  -17.1342   22.4571 C   0  0  0  0  0  0  0  0  0  0  0  0
   10.5341  -16.7146   22.5610 C   0  0  2  0  0  0  0  0  0  0  0  0
   10.2410  -15.5736   21.7577 N   0  0  0  0  0  0  0  0  0  0  0  0
   10.2868  -16.3985   23.9771 C   0  0  0  0  0  0  0  0  0  0  0  0
   10.4911  -17.3387   24.9551 O   0  0  0  0  0  0  0  0  0  0  0  0
    9.8871  -15.2593   24.2785 O   0  0  0  0  0  0  0  0  0  0  0  0
  2  1  1  6
  2  7  1  0
  3  2  1  0
  4  3  1  0
  5  4  1  0
  6  5  2  0
  7  8  2  0
  9  5  1  0
 10  7  1  0
 11 10  1  0
 12 11  1  0
 13 12  1  0
 13 14  1  0
 14 15  1  6
 14 10  1  0
 15 16  2  0
 19 18  1  1
 18 17  1  0
 20 19  1  0
 20 15  1  0
 21 22  1  0
 21 19  1  0
 23 21  2  0
M  END
$$$$
