EPS.pdb
     RDKit          3D

 23 23  0  0  1  0  0  0  0  0999 V2000
   10.1219  -15.7984   15.8239 N   0  0  0  0  0  0  0  0  0  0  0  0
    9.0123  -15.3220   16.6833 C   0  0  1  0  0  0  0  0  0  0  0  0
    7.9159  -16.3640   16.5954 C   0  0  0  0  0  0  0  0  0  0  0  0
    8.3583  -17.6978   16.0807 C   0  0  0  0  0  0  0  0  0  0  0  0
    7.5602  -18.8021   16.7242 C   0  0  0  0  0  0  0  0  0  0  0  0
    6.3607  -18.5865   17.0134 O   0  0  0  0  0  0  0  0  0  0  0  0
    9.5515  -15.1862   18.0655 C   0  0  0  0  0  0  0  0  0  0  0  0
   10.4739  -16.0300   18.3429 O   0  0  0  0  0  0  0  0  0  0  0  0
    8.1119  -20.0205   16.9957 O   0  0  0  0  0  0  0  0  0  0  0  0
    9.1051  -14.2281   18.9928 N   0  0  0  0  0  0  0  0  0  0  0  0
    8.7586  -12.8502   18.5778 C   0  0  0  0  0  0  0  0  0  0  0  0
    7.4174  -12.6853   19.2458 C   0  0  0  0  0  0  0  0  0  0  0  0
    7.3704  -13.7050   20.3574 C   0  0  0  0  0  0  0  0  0  0  0  0
    8.8516  -14.1708   20.3901 C   0  0  1  0  0  0  0  0  0  0  0  0
    8.9065  -15.3783   21.1836 C   0  0  0  0  0  0  0  0  0  0  0  0
    8.1163  -16.3395   21.1405 O   0  0  0  0  0  0  0  0  0  0  0  0
   12.5841  -16.5131   22.6780 O   0  0  0  0  0  0  0  0  0  0  0  0
   11.5033  -17.3611   22.5944 C   0  0  0  0  0  0  0  0  0  0  0  0
   10.1994  -16.6421   22.9440 C   0  0  2  0  0  0  0  0  0  0  0  0
    9.9783  -15.4967   22.1240 N   0  0  0  0  0  0  0  0  0  0  0  0
   10.3127  -16.2273   24.3517 C   0  0  0  0  0  0  0  0  0  0  0  0
   10.2319  -14.9043   24.7052 O   0  0  0  0  0  0  0  0  0  0  0  0
   10.4839  -17.0983   25.2237 O   0  0  0  0  0  0  0  0  0  0  0  0
  2  1  1  6
  2  7  1  0
  3  2  1  0
  4  3  1  0
  5  4  1  0
  6  5  2  0
  7  8  2  0
  9  5  1  0
 10  7  1  0
 11 10  1  0
 12 11  1  0
 13 12  1  0
 13 14  1  0
 14 15  1  6
 14 10  1  0
 15 16  2  0
 19 18  1  6
 18 17  1  0
 20 19  1  0
 20 15  1  0
 21 22  1  0
 21 19  1  0
 23 21  2  0
M  END
$$$$
