EPS.pdb
     RDKit          3D

 23 23  0  0  1  0  0  0  0  0999 V2000
   10.3538  -15.4444   15.4858 N   0  0  0  0  0  0  0  0  0  0  0  0
    9.1237  -15.1749   16.2676 C   0  0  1  0  0  0  0  0  0  0  0  0
    8.1394  -16.2737   15.9223 C   0  0  0  0  0  0  0  0  0  0  0  0
    8.1174  -17.4206   16.8833 C   0  0  0  0  0  0  0  0  0  0  0  0
    7.0662  -18.4234   16.4832 C   0  0  0  0  0  0  0  0  0  0  0  0
    6.5940  -18.3689   15.3244 O   0  0  0  0  0  0  0  0  0  0  0  0
    9.5038  -15.1906   17.7080 C   0  0  0  0  0  0  0  0  0  0  0  0
   10.2805  -16.1583   18.0243 O   0  0  0  0  0  0  0  0  0  0  0  0
    6.6223  -19.3803   17.3491 O   0  0  0  0  0  0  0  0  0  0  0  0
    9.0640  -14.2414   18.6475 N   0  0  0  0  0  0  0  0  0  0  0  0
    8.7238  -12.8569   18.2497 C   0  0  0  0  0  0  0  0  0  0  0  0
    7.3846  -12.6932   18.9220 C   0  0  0  0  0  0  0  0  0  0  0  0
    7.3343  -13.7259   20.0214 C   0  0  0  0  0  0  0  0  0  0  0  0
    8.8132  -14.1996   20.0459 C   0  0  1  0  0  0  0  0  0  0  0  0
    8.8633  -15.4168   20.8247 C   0  0  0  0  0  0  0  0  0  0  0  0
    7.9794  -16.2897   20.9080 O   0  0  0  0  0  0  0  0  0  0  0  0
   12.6112  -16.8827   21.7366 O   0  0  0  0  0  0  0  0  0  0  0  0
   11.4697  -17.6488   21.8016 C   0  0  0  0  0  0  0  0  0  0  0  0
   10.2862  -16.8450   22.3424 C   0  0  2  0  0  0  0  0  0  0  0  0
   10.0495  -15.6588   21.5872 N   0  0  0  0  0  0  0  0  0  0  0  0
   10.6200  -16.4883   23.7308 C   0  0  0  0  0  0  0  0  0  0  0  0
   10.7867  -17.4579   24.6869 O   0  0  0  0  0  0  0  0  0  0  0  0
   10.7500  -15.2872   24.0289 O   0  0  0  0  0  0  0  0  0  0  0  0
  2  1  1  6
  2  7  1  0
  3  2  1  0
  4  3  1  0
  5  4  1  0
  6  5  2  0
  7  8  2  0
  9  5  1  0
 10  7  1  0
 11 10  1  0
 12 11  1  0
 13 12  1  0
 13 14  1  0
 14 15  1  6
 14 10  1  0
 15 16  2  0
 19 18  1  6
 18 17  1  0
 20 19  1  0
 20 15  1  0
 21 22  1  0
 21 19  1  0
 23 21  2  0
M  END
$$$$
