KFK.pdb
     RDKit          3D

 30 30  0  0  1  0  0  0  0  0999 V2000
   26.9720  -22.6264  -15.8963 N   0  0  0  0  0  0  0  0  0  0  0  0
   25.8040  -23.5004  -15.9390 C   0  0  1  0  0  0  0  0  0  0  0  0
   26.3097  -24.8965  -15.7490 C   0  0  0  0  0  0  0  0  0  0  0  0
   27.3222  -25.3508  -16.7661 C   0  0  0  0  0  0  0  0  0  0  0  0
   27.7763  -26.7874  -16.4819 C   0  0  0  0  0  0  0  0  0  0  0  0
   28.8158  -27.2463  -17.4754 C   0  0  0  0  0  0  0  0  0  0  0  0
   29.2146  -28.6027  -17.1098 N   0  0  0  0  0  0  0  0  0  0  0  0
   24.8209  -23.1446  -14.9267 C   0  0  0  0  0  0  0  0  0  0  0  0
   23.7706  -23.8433  -14.7827 O   0  0  0  0  0  0  0  0  0  0  0  0
   24.9116  -22.0460  -14.0407 N   0  0  0  0  0  0  0  0  0  0  0  0
   23.8942  -21.7310  -13.0377 C   0  0  1  0  0  0  0  0  0  0  0  0
   24.5454  -20.9179  -11.9700 C   0  0  0  0  0  0  0  0  0  0  0  0
   23.6331  -20.5441  -10.8675 C   0  0  0  0  0  0  0  0  0  0  0  0
   23.8440  -21.0882   -9.6062 C   0  0  0  0  0  0  0  0  0  0  0  0
   23.0235  -20.7385   -8.5622 C   0  0  0  0  0  0  0  0  0  0  0  0
   21.9815  -19.8527   -8.7227 C   0  0  0  0  0  0  0  0  0  0  0  0
   21.7646  -19.3103   -9.9632 C   0  0  0  0  0  0  0  0  0  0  0  0
   22.5971  -19.6617  -11.0353 C   0  0  0  0  0  0  0  0  0  0  0  0
   22.7043  -21.1363  -13.6592 C   0  0  0  0  0  0  0  0  0  0  0  0
   22.8422  -20.0143  -14.2348 O   0  0  0  0  0  0  0  0  0  0  0  0
   21.4045  -21.7548  -13.6456 N   0  0  0  0  0  0  0  0  0  0  0  0
   20.3056  -21.0074  -14.1588 C   0  0  1  0  0  0  0  0  0  0  0  0
   19.7834  -21.5383  -15.4753 C   0  0  0  0  0  0  0  0  0  0  0  0
   19.6768  -23.0398  -15.4699 C   0  0  0  0  0  0  0  0  0  0  0  0
   20.3354  -23.5694  -16.7186 C   0  0  0  0  0  0  0  0  0  0  0  0
   20.2929  -25.0822  -16.8136 C   0  0  0  0  0  0  0  0  0  0  0  0
   20.8657  -25.4261  -18.1030 N   0  0  0  0  0  0  0  0  0  0  0  0
   19.1550  -20.9637  -13.1672 C   0  0  0  0  0  0  0  0  0  0  0  0
   19.0996  -21.7853  -12.2300 O   0  0  0  0  0  0  0  0  0  0  0  0
   18.2112  -19.9838  -13.3690 O   0  0  0  0  0  0  0  0  0  0  0  0
  2  3  1  0
  2  1  1  1
  4  3  1  0
  5  4  1  0
  6  5  1  0
  7  6  1  0
  8 10  1  0
  8  2  1  0
  9  8  2  0
 11 10  1  0
 11 12  1  1
 12 13  1  0
 13 18  2  0
 14 15  2  0
 14 13  1  0
 15 16  1  0
 16 17  2  0
 18 17  1  0
 19 20  2  0
 19 11  1  0
 21 19  1  0
 22 28  1  0
 22 21  1  0
 22 23  1  6
 24 23  1  0
 25 24  1  0
 26 27  1  0
 26 25  1  0
 28 30  1  0
 29 28  2  0
M  END
$$$$
