KFK.pdb
     RDKit          3D

 30 30  0  0  1  0  0  0  0  0999 V2000
   28.8199  -22.0998  -16.0001 N   0  0  0  0  0  0  0  0  0  0  0  0
   27.4242  -22.3616  -16.3368 C   0  0  1  0  0  0  0  0  0  0  0  0
   27.3774  -23.7413  -16.9159 C   0  0  0  0  0  0  0  0  0  0  0  0
   26.7435  -23.8390  -18.2778 C   0  0  0  0  0  0  0  0  0  0  0  0
   27.7206  -24.4422  -19.2938 C   0  0  0  0  0  0  0  0  0  0  0  0
   28.0123  -23.4804  -20.4198 C   0  0  0  0  0  0  0  0  0  0  0  0
   29.4589  -23.4494  -20.6170 N   0  0  0  0  0  0  0  0  0  0  0  0
   26.5524  -22.2375  -15.1783 C   0  0  0  0  0  0  0  0  0  0  0  0
   25.9120  -23.2465  -14.7495 O   0  0  0  0  0  0  0  0  0  0  0  0
   26.3269  -21.0522  -14.4404 N   0  0  0  0  0  0  0  0  0  0  0  0
   25.4987  -20.9958  -13.2357 C   0  0  1  0  0  0  0  0  0  0  0  0
   26.0674  -19.9455  -12.3422 C   0  0  0  0  0  0  0  0  0  0  0  0
   27.0086  -20.4717  -11.3299 C   0  0  0  0  0  0  0  0  0  0  0  0
   26.5649  -20.6440  -10.0243 C   0  0  0  0  0  0  0  0  0  0  0  0
   27.4143  -21.1521   -9.0724 C   0  0  0  0  0  0  0  0  0  0  0  0
   28.7120  -21.5034   -9.3703 C   0  0  0  0  0  0  0  0  0  0  0  0
   29.1597  -21.3372  -10.6556 C   0  0  0  0  0  0  0  0  0  0  0  0
   28.2998  -20.8188  -11.6342 C   0  0  0  0  0  0  0  0  0  0  0  0
   24.0783  -20.8460  -13.5763 C   0  0  0  0  0  0  0  0  0  0  0  0
   23.7513  -19.8625  -14.3076 O   0  0  0  0  0  0  0  0  0  0  0  0
   23.0509  -21.7476  -13.1247 N   0  0  0  0  0  0  0  0  0  0  0  0
   21.7064  -21.4700  -13.5052 C   0  0  1  0  0  0  0  0  0  0  0  0
   20.7656  -22.6304  -13.2683 C   0  0  0  0  0  0  0  0  0  0  0  0
   19.3890  -22.3536  -13.8107 C   0  0  0  0  0  0  0  0  0  0  0  0
   18.5078  -23.5379  -13.5027 C   0  0  0  0  0  0  0  0  0  0  0  0
   17.1165  -23.4089  -14.0918 C   0  0  0  0  0  0  0  0  0  0  0  0
   16.3993  -24.6128  -13.7110 N   0  0  0  0  0  0  0  0  0  0  0  0
   21.1642  -20.2538  -12.7733 C   0  0  0  0  0  0  0  0  0  0  0  0
   20.4609  -19.4178  -13.3759 O   0  0  0  0  0  0  0  0  0  0  0  0
   21.4917  -20.1453  -11.4419 O   0  0  0  0  0  0  0  0  0  0  0  0
  2  3  1  0
  2  1  1  1
  4  3  1  0
  5  4  1  0
  6  5  1  0
  7  6  1  0
  8 10  1  0
  8  2  1  0
  9  8  2  0
 11 10  1  0
 11 12  1  1
 12 13  1  0
 13 18  2  0
 14 15  2  0
 14 13  1  0
 15 16  1  0
 16 17  2  0
 18 17  1  0
 19 20  2  0
 19 11  1  0
 21 19  1  0
 22 28  1  0
 22 21  1  0
 22 23  1  1
 24 23  1  0
 25 24  1  0
 26 27  1  0
 26 25  1  0
 28 30  1  0
 29 28  2  0
M  END
$$$$
