KFK.pdb
     RDKit          3D

 30 30  0  0  1  0  0  0  0  0999 V2000
   28.7161  -20.4287  -14.6651 N   0  0  0  0  0  0  0  0  0  0  0  0
   27.7249  -19.5952  -13.9924 C   0  0  1  0  0  0  0  0  0  0  0  0
   27.1905  -18.6520  -15.0248 C   0  0  0  0  0  0  0  0  0  0  0  0
   28.1847  -17.6490  -15.5460 C   0  0  0  0  0  0  0  0  0  0  0  0
   28.4091  -17.8329  -17.0516 C   0  0  0  0  0  0  0  0  0  0  0  0
   29.3808  -16.8138  -17.5950 C   0  0  0  0  0  0  0  0  0  0  0  0
   29.6859  -17.1797  -18.9755 N   0  0  0  0  0  0  0  0  0  0  0  0
   26.6633  -20.3893  -13.3923 C   0  0  0  0  0  0  0  0  0  0  0  0
   26.4167  -21.5573  -13.8247 O   0  0  0  0  0  0  0  0  0  0  0  0
   25.8309  -19.9793  -12.3250 N   0  0  0  0  0  0  0  0  0  0  0  0
   24.8513  -20.8553  -11.6820 C   0  0  1  0  0  0  0  0  0  0  0  0
   24.7527  -20.4522  -10.2493 C   0  0  0  0  0  0  0  0  0  0  0  0
   26.0222  -20.5926   -9.5034 C   0  0  0  0  0  0  0  0  0  0  0  0
   26.9510  -21.5350   -9.9279 C   0  0  0  0  0  0  0  0  0  0  0  0
   28.1460  -21.6677   -9.2645 C   0  0  0  0  0  0  0  0  0  0  0  0
   28.4624  -20.8871   -8.1752 C   0  0  0  0  0  0  0  0  0  0  0  0
   27.5528  -19.9543   -7.7482 C   0  0  0  0  0  0  0  0  0  0  0  0
   26.3299  -19.8118   -8.4190 C   0  0  0  0  0  0  0  0  0  0  0  0
   23.5877  -20.8753  -12.4297 C   0  0  0  0  0  0  0  0  0  0  0  0
   23.2027  -19.7889  -12.9596 O   0  0  0  0  0  0  0  0  0  0  0  0
   22.7732  -22.0517  -12.5870 N   0  0  0  0  0  0  0  0  0  0  0  0
   21.5762  -21.9361  -13.3508 C   0  0  1  0  0  0  0  0  0  0  0  0
   21.0721  -23.2611  -13.8780 C   0  0  0  0  0  0  0  0  0  0  0  0
   19.7590  -23.6486  -13.2526 C   0  0  0  0  0  0  0  0  0  0  0  0
   19.3314  -24.9766  -13.8247 C   0  0  0  0  0  0  0  0  0  0  0  0
   18.0235  -25.4776  -13.2432 C   0  0  0  0  0  0  0  0  0  0  0  0
   17.7619  -26.7596  -13.8730 N   0  0  0  0  0  0  0  0  0  0  0  0
   20.4654  -21.2855  -12.5435 C   0  0  0  0  0  0  0  0  0  0  0  0
   20.5813  -21.1488  -11.3088 O   0  0  0  0  0  0  0  0  0  0  0  0
   19.3603  -20.8696  -13.2487 O   0  0  0  0  0  0  0  0  0  0  0  0
  2  3  1  0
  2  1  1  6
  4  3  1  0
  5  4  1  0
  6  5  1  0
  7  6  1  0
  8 10  1  0
  8  2  1  0
  9  8  2  0
 11 10  1  0
 11 12  1  1
 12 13  1  0
 13 18  2  0
 14 15  2  0
 14 13  1  0
 15 16  1  0
 16 17  2  0
 18 17  1  0
 19 20  2  0
 19 11  1  0
 21 19  1  0
 22 28  1  0
 22 21  1  0
 22 23  1  1
 24 23  1  0
 25 24  1  0
 26 27  1  0
 26 25  1  0
 28 30  1  0
 29 28  2  0
M  END
$$$$
