KFK.pdb
     RDKit          3D

 30 30  0  0  1  0  0  0  0  0999 V2000
   27.9814  -22.7782  -16.6476 N   0  0  0  0  0  0  0  0  0  0  0  0
   27.5552  -21.5073  -16.0703 C   0  0  1  0  0  0  0  0  0  0  0  0
   26.5820  -20.9062  -17.0359 C   0  0  0  0  0  0  0  0  0  0  0  0
   27.1417  -20.6074  -18.4011 C   0  0  0  0  0  0  0  0  0  0  0  0
   26.0978  -19.9070  -19.2789 C   0  0  0  0  0  0  0  0  0  0  0  0
   26.6118  -19.6860  -20.6807 C   0  0  0  0  0  0  0  0  0  0  0  0
   27.4331  -18.4785  -20.6699 N   0  0  0  0  0  0  0  0  0  0  0  0
   26.9641  -21.6796  -14.7518 C   0  0  0  0  0  0  0  0  0  0  0  0
   25.9382  -22.4126  -14.6023 O   0  0  0  0  0  0  0  0  0  0  0  0
   27.4309  -21.0862  -13.5560 N   0  0  0  0  0  0  0  0  0  0  0  0
   26.7353  -21.1975  -12.2737 C   0  0  1  0  0  0  0  0  0  0  0  0
   27.6849  -20.7756  -11.2036 C   0  0  0  0  0  0  0  0  0  0  0  0
   27.0394  -20.5440   -9.8931 C   0  0  0  0  0  0  0  0  0  0  0  0
   25.6893  -20.8391   -9.7469 C   0  0  0  0  0  0  0  0  0  0  0  0
   25.0739  -20.6533   -8.5335 C   0  0  0  0  0  0  0  0  0  0  0  0
   25.7583  -20.1771   -7.4376 C   0  0  0  0  0  0  0  0  0  0  0  0
   27.0908  -19.8826   -7.5713 C   0  0  0  0  0  0  0  0  0  0  0  0
   27.7276  -20.0688   -8.8065 C   0  0  0  0  0  0  0  0  0  0  0  0
   25.4502  -20.4879  -12.3052 C   0  0  0  0  0  0  0  0  0  0  0  0
   25.4698  -19.2517  -12.5889 O   0  0  0  0  0  0  0  0  0  0  0  0
   24.1851  -21.1177  -12.0310 N   0  0  0  0  0  0  0  0  0  0  0  0
   23.0024  -20.3450  -12.2152 C   0  0  1  0  0  0  0  0  0  0  0  0
   22.3492  -20.5623  -13.5620 C   0  0  0  0  0  0  0  0  0  0  0  0
   21.0836  -19.7602  -13.7055 C   0  0  0  0  0  0  0  0  0  0  0  0
   20.4879  -20.0472  -15.0607 C   0  0  0  0  0  0  0  0  0  0  0  0
   19.2204  -19.2590  -15.3285 C   0  0  0  0  0  0  0  0  0  0  0  0
   18.7246  -19.7096  -16.6169 N   0  0  0  0  0  0  0  0  0  0  0  0
   21.9778  -20.6346  -11.1312 C   0  0  0  0  0  0  0  0  0  0  0  0
   21.9783  -21.7342  -10.5417 O   0  0  0  0  0  0  0  0  0  0  0  0
   21.0807  -19.6297  -10.8539 O   0  0  0  0  0  0  0  0  0  0  0  0
  2  3  1  0
  2  1  1  6
  4  3  1  0
  5  4  1  0
  6  5  1  0
  7  6  1  0
  8 10  1  0
  8  2  1  0
  9  8  2  0
 11 10  1  0
 11 12  1  1
 12 13  1  0
 13 18  2  0
 14 15  2  0
 14 13  1  0
 15 16  1  0
 16 17  2  0
 18 17  1  0
 19 20  2  0
 19 11  1  0
 21 19  1  0
 22 28  1  0
 22 21  1  0
 22 23  1  6
 24 23  1  0
 25 24  1  0
 26 27  1  0
 26 25  1  0
 28 30  1  0
 29 28  2  0
M  END
$$$$
