KFK.pdb
     RDKit          3D

 30 30  0  0  1  0  0  0  0  0999 V2000
   28.3482  -21.7991  -14.1630 N   0  0  0  0  0  0  0  0  0  0  0  0
   28.1378  -20.6339  -13.3098 C   0  0  1  0  0  0  0  0  0  0  0  0
   27.0106  -19.8589  -13.9178 C   0  0  0  0  0  0  0  0  0  0  0  0
   27.2815  -19.3160  -15.2955 C   0  0  0  0  0  0  0  0  0  0  0  0
   28.2519  -18.1304  -15.2351 C   0  0  0  0  0  0  0  0  0  0  0  0
   28.4845  -17.5352  -16.6024 C   0  0  0  0  0  0  0  0  0  0  0  0
   29.0498  -18.5787  -17.4533 N   0  0  0  0  0  0  0  0  0  0  0  0
   27.8473  -21.0117  -11.9348 C   0  0  0  0  0  0  0  0  0  0  0  0
   26.9667  -21.8919  -11.6865 O   0  0  0  0  0  0  0  0  0  0  0  0
   28.4703  -20.4750  -10.7840 N   0  0  0  0  0  0  0  0  0  0  0  0
   27.9796  -20.6944   -9.4233 C   0  0  1  0  0  0  0  0  0  0  0  0
   28.9380  -20.0426   -8.4843 C   0  0  0  0  0  0  0  0  0  0  0  0
   28.4667  -20.0079   -7.0828 C   0  0  0  0  0  0  0  0  0  0  0  0
   28.8851  -21.0031   -6.2077 C   0  0  0  0  0  0  0  0  0  0  0  0
   28.4785  -20.9789   -4.8963 C   0  0  0  0  0  0  0  0  0  0  0  0
   27.6572  -19.9869   -4.4088 C   0  0  0  0  0  0  0  0  0  0  0  0
   27.2386  -19.0004   -5.2641 C   0  0  0  0  0  0  0  0  0  0  0  0
   27.6483  -19.0170   -6.6049 C   0  0  0  0  0  0  0  0  0  0  0  0
   26.5762  -20.2824   -9.2937 C   0  0  0  0  0  0  0  0  0  0  0  0
   26.2830  -19.0906   -9.6145 O   0  0  0  0  0  0  0  0  0  0  0  0
   25.5302  -21.1527   -8.8241 N   0  0  0  0  0  0  0  0  0  0  0  0
   24.1832  -20.7088   -8.9594 C   0  0  1  0  0  0  0  0  0  0  0  0
   23.5815  -21.0257  -10.3104 C   0  0  0  0  0  0  0  0  0  0  0  0
   22.1472  -20.5782  -10.4025 C   0  0  0  0  0  0  0  0  0  0  0  0
   21.6363  -20.8952  -11.7853 C   0  0  0  0  0  0  0  0  0  0  0  0
   20.1938  -20.4762  -11.9932 C   0  0  0  0  0  0  0  0  0  0  0  0
   19.8565  -20.8392  -13.3583 N   0  0  0  0  0  0  0  0  0  0  0  0
   23.2927  -21.3075   -7.8836 C   0  0  0  0  0  0  0  0  0  0  0  0
   22.1129  -20.9220   -7.7561 O   0  0  0  0  0  0  0  0  0  0  0  0
   23.8610  -22.2749   -7.0882 O   0  0  0  0  0  0  0  0  0  0  0  0
  2  3  1  0
  2  1  1  6
  4  3  1  0
  5  4  1  0
  6  5  1  0
  7  6  1  0
  8 10  1  0
  8  2  1  0
  9  8  2  0
 11 10  1  0
 11 12  1  1
 12 13  1  0
 13 18  2  0
 14 15  2  0
 14 13  1  0
 15 16  1  0
 16 17  2  0
 18 17  1  0
 19 20  2  0
 19 11  1  0
 21 19  1  0
 22 28  1  0
 22 21  1  0
 22 23  1  6
 24 23  1  0
 25 24  1  0
 26 27  1  0
 26 25  1  0
 28 30  1  0
 29 28  2  0
M  END
$$$$
