KFK.pdb
     RDKit          3D

 30 30  0  0  1  0  0  0  0  0999 V2000
   28.8612  -21.0172  -14.6442 N   0  0  0  0  0  0  0  0  0  0  0  0
   28.0123  -20.0190  -14.0017 C   0  0  1  0  0  0  0  0  0  0  0  0
   27.4929  -19.1358  -15.0931 C   0  0  0  0  0  0  0  0  0  0  0  0
   28.5402  -18.3243  -15.8080 C   0  0  0  0  0  0  0  0  0  0  0  0
   27.8974  -17.3851  -16.8354 C   0  0  0  0  0  0  0  0  0  0  0  0
   28.9063  -16.4224  -17.4127 C   0  0  0  0  0  0  0  0  0  0  0  0
   28.1895  -15.4912  -18.2797 N   0  0  0  0  0  0  0  0  0  0  0  0
   26.9288  -20.6306  -13.2469 C   0  0  0  0  0  0  0  0  0  0  0  0
   26.4936  -21.7787  -13.5701 O   0  0  0  0  0  0  0  0  0  0  0  0
   26.2715  -20.0540  -12.1354 N   0  0  0  0  0  0  0  0  0  0  0  0
   25.2169  -20.7307  -11.3802 C   0  0  1  0  0  0  0  0  0  0  0  0
   25.2291  -20.1834   -9.9926 C   0  0  0  0  0  0  0  0  0  0  0  0
   26.4875  -20.4456   -9.2610 C   0  0  0  0  0  0  0  0  0  0  0  0
   27.3148  -21.4751   -9.6932 C   0  0  0  0  0  0  0  0  0  0  0  0
   28.4988  -21.7227   -9.0433 C   0  0  0  0  0  0  0  0  0  0  0  0
   28.9028  -20.9745   -7.9602 C   0  0  0  0  0  0  0  0  0  0  0  0
   28.0937  -19.9564   -7.5256 C   0  0  0  0  0  0  0  0  0  0  0  0
   26.8827  -19.6964   -8.1827 C   0  0  0  0  0  0  0  0  0  0  0  0
   23.9310  -20.6585  -12.0854 C   0  0  0  0  0  0  0  0  0  0  0  0
   23.6738  -19.5956  -12.7283 O   0  0  0  0  0  0  0  0  0  0  0  0
   22.9589  -21.7202  -12.0812 N   0  0  0  0  0  0  0  0  0  0  0  0
   21.7745  -21.5421  -12.8526 C   0  0  1  0  0  0  0  0  0  0  0  0
   21.1553  -22.8447  -13.3081 C   0  0  0  0  0  0  0  0  0  0  0  0
   19.6695  -22.7162  -13.5123 C   0  0  0  0  0  0  0  0  0  0  0  0
   19.1286  -24.0578  -13.9382 C   0  0  0  0  0  0  0  0  0  0  0  0
   17.6575  -24.0134  -14.3036 C   0  0  0  0  0  0  0  0  0  0  0  0
   17.3094  -25.3486  -14.7564 N   0  0  0  0  0  0  0  0  0  0  0  0
   20.7269  -20.7542  -12.0840 C   0  0  0  0  0  0  0  0  0  0  0  0
   20.8633  -20.5518  -10.8605 O   0  0  0  0  0  0  0  0  0  0  0  0
   19.6540  -20.2932  -12.8106 O   0  0  0  0  0  0  0  0  0  0  0  0
  2  3  1  0
  2  1  1  6
  4  3  1  0
  5  4  1  0
  6  5  1  0
  7  6  1  0
  8 10  1  0
  8  2  1  0
  9  8  2  0
 11 10  1  0
 11 12  1  1
 12 13  1  0
 13 18  2  0
 14 15  2  0
 14 13  1  0
 15 16  1  0
 16 17  2  0
 18 17  1  0
 19 20  2  0
 19 11  1  0
 21 19  1  0
 22 28  1  0
 22 21  1  0
 22 23  1  1
 24 23  1  0
 25 24  1  0
 26 27  1  0
 26 25  1  0
 28 30  1  0
 29 28  2  0
M  END
$$$$
