KFK.pdb
     RDKit          3D

 30 30  0  0  1  0  0  0  0  0999 V2000
   27.6662  -19.6399  -13.2939 N   0  0  0  0  0  0  0  0  0  0  0  0
   27.0416  -20.9144  -12.9542 C   0  0  1  0  0  0  0  0  0  0  0  0
   27.7159  -21.9557  -13.7920 C   0  0  0  0  0  0  0  0  0  0  0  0
   27.7415  -21.6659  -15.2690 C   0  0  0  0  0  0  0  0  0  0  0  0
   26.3199  -21.6139  -15.8409 C   0  0  0  0  0  0  0  0  0  0  0  0
   26.3319  -21.4148  -17.3370 C   0  0  0  0  0  0  0  0  0  0  0  0
   24.9470  -21.4259  -17.8000 N   0  0  0  0  0  0  0  0  0  0  0  0
   27.1539  -21.2141  -11.5346 C   0  0  0  0  0  0  0  0  0  0  0  0
   26.7861  -22.3448  -11.0893 O   0  0  0  0  0  0  0  0  0  0  0  0
   27.6523  -20.3360  -10.5443 N   0  0  0  0  0  0  0  0  0  0  0  0
   27.4415  -20.5329   -9.1100 C   0  0  1  0  0  0  0  0  0  0  0  0
   28.6336  -19.9893   -8.3969 C   0  0  0  0  0  0  0  0  0  0  0  0
   28.4520  -19.8795   -6.9331 C   0  0  0  0  0  0  0  0  0  0  0  0
   28.9551  -20.8845   -6.1157 C   0  0  0  0  0  0  0  0  0  0  0  0
   28.8181  -20.7930   -4.7524 C   0  0  0  0  0  0  0  0  0  0  0  0
   28.1896  -19.7227   -4.1560 C   0  0  0  0  0  0  0  0  0  0  0  0
   27.6895  -18.7259   -4.9536 C   0  0  0  0  0  0  0  0  0  0  0  0
   27.8243  -18.8108   -6.3466 C   0  0  0  0  0  0  0  0  0  0  0  0
   26.1424  -19.9950   -8.6871 C   0  0  0  0  0  0  0  0  0  0  0  0
   25.7536  -18.9125   -9.2223 O   0  0  0  0  0  0  0  0  0  0  0  0
   25.2997  -20.6263   -7.7055 N   0  0  0  0  0  0  0  0  0  0  0  0
   23.9153  -20.7701   -8.0094 C   0  0  1  0  0  0  0  0  0  0  0  0
   23.6604  -21.5052   -9.3065 C   0  0  0  0  0  0  0  0  0  0  0  0
   22.4275  -20.9967  -10.0044 C   0  0  0  0  0  0  0  0  0  0  0  0
   22.8412  -20.3870  -11.3200 C   0  0  0  0  0  0  0  0  0  0  0  0
   21.6690  -19.8462  -12.1158 C   0  0  0  0  0  0  0  0  0  0  0  0
   22.2320  -19.2353  -13.3068 N   0  0  0  0  0  0  0  0  0  0  0  0
   23.1761  -21.4909   -6.8946 C   0  0  0  0  0  0  0  0  0  0  0  0
   23.7252  -22.4249   -6.2759 O   0  0  0  0  0  0  0  0  0  0  0  0
   21.9008  -21.0527   -6.6237 O   0  0  0  0  0  0  0  0  0  0  0  0
  2  3  1  0
  2  1  1  1
  4  3  1  0
  5  4  1  0
  6  5  1  0
  7  6  1  0
  8 10  1  0
  8  2  1  0
  9  8  2  0
 11 10  1  0
 11 12  1  1
 12 13  1  0
 13 18  2  0
 14 15  2  0
 14 13  1  0
 15 16  1  0
 16 17  2  0
 18 17  1  0
 19 20  2  0
 19 11  1  0
 21 19  1  0
 22 28  1  0
 22 21  1  0
 22 23  1  6
 24 23  1  0
 25 24  1  0
 26 27  1  0
 26 25  1  0
 28 30  1  0
 29 28  2  0
M  END
$$$$
