KFK.pdb
     RDKit          3D

 30 30  0  0  1  0  0  0  0  0999 V2000
   26.2570  -23.4121  -16.0415 N   0  0  0  0  0  0  0  0  0  0  0  0
   25.5873  -22.1156  -16.0641 C   0  0  1  0  0  0  0  0  0  0  0  0
   25.1221  -21.9013  -17.4707 C   0  0  0  0  0  0  0  0  0  0  0  0
   26.2115  -21.5847  -18.4603 C   0  0  0  0  0  0  0  0  0  0  0  0
   27.2773  -22.6870  -18.4715 C   0  0  0  0  0  0  0  0  0  0  0  0
   28.3232  -22.4349  -19.5301 C   0  0  0  0  0  0  0  0  0  0  0  0
   29.2667  -23.5492  -19.4998 N   0  0  0  0  0  0  0  0  0  0  0  0
   24.4816  -22.0578  -15.1198 C   0  0  0  0  0  0  0  0  0  0  0  0
   23.8935  -23.1234  -14.7585 O   0  0  0  0  0  0  0  0  0  0  0  0
   23.9615  -20.8815  -14.5316 N   0  0  0  0  0  0  0  0  0  0  0  0
   22.8614  -20.8789  -13.5671 C   0  0  1  0  0  0  0  0  0  0  0  0
   23.1295  -19.7976  -12.5752 C   0  0  0  0  0  0  0  0  0  0  0  0
   22.0884  -19.6765  -11.5316 C   0  0  0  0  0  0  0  0  0  0  0  0
   21.0074  -18.8322  -11.7546 C   0  0  0  0  0  0  0  0  0  0  0  0
   20.0174  -18.7209  -10.8096 C   0  0  0  0  0  0  0  0  0  0  0  0
   20.0579  -19.4281   -9.6287 C   0  0  0  0  0  0  0  0  0  0  0  0
   21.1203  -20.2638   -9.3988 C   0  0  0  0  0  0  0  0  0  0  0  0
   22.1361  -20.3837  -10.3578 C   0  0  0  0  0  0  0  0  0  0  0  0
   21.5615  -20.8160  -14.2470 C   0  0  0  0  0  0  0  0  0  0  0  0
   21.4066  -19.9230  -15.1345 O   0  0  0  0  0  0  0  0  0  0  0  0
   20.4669  -21.7051  -13.9578 N   0  0  0  0  0  0  0  0  0  0  0  0
   19.2130  -21.4429  -14.5812 C   0  0  1  0  0  0  0  0  0  0  0  0
   18.6817  -22.6165  -15.3738 C   0  0  0  0  0  0  0  0  0  0  0  0
   19.5915  -22.9764  -16.5176 C   0  0  0  0  0  0  0  0  0  0  0  0
   19.4685  -21.9118  -17.5784 C   0  0  0  0  0  0  0  0  0  0  0  0
   20.3574  -22.1686  -18.7798 C   0  0  0  0  0  0  0  0  0  0  0  0
   20.0987  -21.0895  -19.7165 N   0  0  0  0  0  0  0  0  0  0  0  0
   18.1626  -21.0358  -13.5615 C   0  0  0  0  0  0  0  0  0  0  0  0
   18.1876  -21.5102  -12.4078 O   0  0  0  0  0  0  0  0  0  0  0  0
   17.2147  -20.1346  -13.9869 O   0  0  0  0  0  0  0  0  0  0  0  0
  2  3  1  0
  2  1  1  6
  4  3  1  0
  5  4  1  0
  6  5  1  0
  7  6  1  0
  8 10  1  0
  8  2  1  0
  9  8  2  0
 11 10  1  0
 11 12  1  1
 12 13  1  0
 13 18  2  0
 14 15  2  0
 14 13  1  0
 15 16  1  0
 16 17  2  0
 18 17  1  0
 19 20  2  0
 19 11  1  0
 21 19  1  0
 22 28  1  0
 22 21  1  0
 22 23  1  1
 24 23  1  0
 25 24  1  0
 26 27  1  0
 26 25  1  0
 28 30  1  0
 29 28  2  0
M  END
$$$$
