KFK.pdb
     RDKit          3D

 30 30  0  0  1  0  0  0  0  0999 V2000
   28.6436  -20.8538  -16.9630 N   0  0  0  0  0  0  0  0  0  0  0  0
   27.8758  -22.0511  -16.6361 C   0  0  1  0  0  0  0  0  0  0  0  0
   28.8658  -23.1642  -16.4875 C   0  0  0  0  0  0  0  0  0  0  0  0
   29.4000  -23.7180  -17.7813 C   0  0  0  0  0  0  0  0  0  0  0  0
   30.8297  -23.2269  -18.0375 C   0  0  0  0  0  0  0  0  0  0  0  0
   31.3824  -23.7808  -19.3282 C   0  0  0  0  0  0  0  0  0  0  0  0
   32.6629  -23.1265  -19.5827 N   0  0  0  0  0  0  0  0  0  0  0  0
   27.0821  -21.8759  -15.4291 C   0  0  0  0  0  0  0  0  0  0  0  0
   26.4172  -22.8481  -14.9549 O   0  0  0  0  0  0  0  0  0  0  0  0
   26.9625  -20.6768  -14.6888 N   0  0  0  0  0  0  0  0  0  0  0  0
   26.2182  -20.5732  -13.4335 C   0  0  1  0  0  0  0  0  0  0  0  0
   27.0014  -19.7003  -12.5118 C   0  0  0  0  0  0  0  0  0  0  0  0
   28.0903  -20.4084  -11.8042 C   0  0  0  0  0  0  0  0  0  0  0  0
   29.3107  -20.5784  -12.4466 C   0  0  0  0  0  0  0  0  0  0  0  0
   30.3434  -21.2128  -11.8010 C   0  0  0  0  0  0  0  0  0  0  0  0
   30.2108  -21.6946  -10.5179 C   0  0  0  0  0  0  0  0  0  0  0  0
   29.0106  -21.5321   -9.8751 C   0  0  0  0  0  0  0  0  0  0  0  0
   27.9504  -20.8858  -10.5265 C   0  0  0  0  0  0  0  0  0  0  0  0
   24.8282  -20.1657  -13.6742 C   0  0  0  0  0  0  0  0  0  0  0  0
   24.6346  -19.0425  -14.2312 O   0  0  0  0  0  0  0  0  0  0  0  0
   23.6885  -20.9668  -13.3116 N   0  0  0  0  0  0  0  0  0  0  0  0
   22.3921  -20.4159  -13.5243 C   0  0  1  0  0  0  0  0  0  0  0  0
   21.6321  -21.0894  -14.6452 C   0  0  0  0  0  0  0  0  0  0  0  0
   21.3952  -20.1544  -15.8008 C   0  0  0  0  0  0  0  0  0  0  0  0
   20.7044  -20.9206  -16.9006 C   0  0  0  0  0  0  0  0  0  0  0  0
   20.3332  -20.0495  -18.0851 C   0  0  0  0  0  0  0  0  0  0  0  0
   19.7922  -20.9426  -19.0943 N   0  0  0  0  0  0  0  0  0  0  0  0
   21.5484  -20.4835  -12.2624 C   0  0  0  0  0  0  0  0  0  0  0  0
   22.0041  -21.0108  -11.2275 O   0  0  0  0  0  0  0  0  0  0  0  0
   20.2884  -19.9374  -12.3395 O   0  0  0  0  0  0  0  0  0  0  0  0
  2  3  1  0
  2  1  1  1
  4  3  1  0
  5  4  1  0
  6  5  1  0
  7  6  1  0
  8 10  1  0
  8  2  1  0
  9  8  2  0
 11 10  1  0
 11 12  1  1
 12 13  1  0
 13 18  2  0
 14 15  2  0
 14 13  1  0
 15 16  1  0
 16 17  2  0
 18 17  1  0
 19 20  2  0
 19 11  1  0
 21 19  1  0
 22 28  1  0
 22 21  1  0
 22 23  1  6
 24 23  1  0
 25 24  1  0
 26 27  1  0
 26 25  1  0
 28 30  1  0
 29 28  2  0
M  END
$$$$
