KFK.pdb
     RDKit          3D

 30 30  0  0  1  0  0  0  0  0999 V2000
   28.1464  -21.8663  -14.0261 N   0  0  0  0  0  0  0  0  0  0  0  0
   28.2794  -20.6993  -13.1600 C   0  0  1  0  0  0  0  0  0  0  0  0
   27.4497  -19.6157  -13.7751 C   0  0  0  0  0  0  0  0  0  0  0  0
   27.8962  -19.1703  -15.1420 C   0  0  0  0  0  0  0  0  0  0  0  0
   26.9715  -19.7308  -16.2291 C   0  0  0  0  0  0  0  0  0  0  0  0
   27.3098  -19.1678  -17.5880 C   0  0  0  0  0  0  0  0  0  0  0  0
   28.4778  -19.8862  -18.0906 N   0  0  0  0  0  0  0  0  0  0  0  0
   27.8618  -20.9840  -11.7954 C   0  0  0  0  0  0  0  0  0  0  0  0
   27.0018  -21.8895  -11.5661 O   0  0  0  0  0  0  0  0  0  0  0  0
   28.3324  -20.3255  -10.6356 N   0  0  0  0  0  0  0  0  0  0  0  0
   27.8426  -20.6144   -9.2876 C   0  0  1  0  0  0  0  0  0  0  0  0
   28.8067  -20.0201   -8.3169 C   0  0  0  0  0  0  0  0  0  0  0  0
   28.3098  -19.9968   -6.9240 C   0  0  0  0  0  0  0  0  0  0  0  0
   28.6442  -21.0434   -6.0731 C   0  0  0  0  0  0  0  0  0  0  0  0
   28.2131  -21.0321   -4.7693 C   0  0  0  0  0  0  0  0  0  0  0  0
   27.4484  -20.0033   -4.2663 C   0  0  0  0  0  0  0  0  0  0  0  0
   27.1129  -18.9660   -5.0976 C   0  0  0  0  0  0  0  0  0  0  0  0
   27.5482  -18.9689   -6.4304 C   0  0  0  0  0  0  0  0  0  0  0  0
   26.4421  -20.2010   -9.1334 C   0  0  0  0  0  0  0  0  0  0  0  0
   26.1331  -19.0274   -9.5025 O   0  0  0  0  0  0  0  0  0  0  0  0
   25.4157  -21.0506   -8.5884 N   0  0  0  0  0  0  0  0  0  0  0  0
   24.0637  -20.6147   -8.6954 C   0  0  1  0  0  0  0  0  0  0  0  0
   23.5239  -20.6793  -10.1068 C   0  0  0  0  0  0  0  0  0  0  0  0
   22.1047  -20.1840  -10.1859 C   0  0  0  0  0  0  0  0  0  0  0  0
   21.4067  -20.9125  -11.3065 C   0  0  0  0  0  0  0  0  0  0  0  0
   19.9698  -20.4669  -11.4971 C   0  0  0  0  0  0  0  0  0  0  0  0
   19.4769  -21.1698  -12.6683 N   0  0  0  0  0  0  0  0  0  0  0  0
   23.1482  -21.4244   -7.7926 C   0  0  0  0  0  0  0  0  0  0  0  0
   23.5827  -22.4279   -7.1919 O   0  0  0  0  0  0  0  0  0  0  0  0
   21.8492  -20.9848   -7.6867 O   0  0  0  0  0  0  0  0  0  0  0  0
  2  3  1  0
  2  1  1  6
  4  3  1  0
  5  4  1  0
  6  5  1  0
  7  6  1  0
  8 10  1  0
  8  2  1  0
  9  8  2  0
 11 10  1  0
 11 12  1  1
 12 13  1  0
 13 18  2  0
 14 15  2  0
 14 13  1  0
 15 16  1  0
 16 17  2  0
 18 17  1  0
 19 20  2  0
 19 11  1  0
 21 19  1  0
 22 28  1  0
 22 21  1  0
 22 23  1  6
 24 23  1  0
 25 24  1  0
 26 27  1  0
 26 25  1  0
 28 30  1  0
 29 28  2  0
M  END
$$$$
