KFK.pdb
     RDKit          3D

 30 30  0  0  1  0  0  0  0  0999 V2000
   29.4631  -21.6266  -17.4306 N   0  0  0  0  0  0  0  0  0  0  0  0
   28.0213  -21.6781  -17.6505 C   0  0  1  0  0  0  0  0  0  0  0  0
   27.7836  -22.7516  -18.6664 C   0  0  0  0  0  0  0  0  0  0  0  0
   28.1788  -22.3945  -20.0744 C   0  0  0  0  0  0  0  0  0  0  0  0
   27.1058  -22.8423  -21.0739 C   0  0  0  0  0  0  0  0  0  0  0  0
   27.0147  -24.3469  -21.1510 C   0  0  0  0  0  0  0  0  0  0  0  0
   26.1158  -24.6839  -22.2516 N   0  0  0  0  0  0  0  0  0  0  0  0
   27.2917  -21.9362  -16.4181 C   0  0  0  0  0  0  0  0  0  0  0  0
   26.8725  -23.1058  -16.1569 O   0  0  0  0  0  0  0  0  0  0  0  0
   26.9804  -20.9750  -15.4285 N   0  0  0  0  0  0  0  0  0  0  0  0
   26.2573  -21.2894  -14.1961 C   0  0  1  0  0  0  0  0  0  0  0  0
   26.7986  -20.4145  -13.1161 C   0  0  0  0  0  0  0  0  0  0  0  0
   26.0476  -20.5051  -11.8451 C   0  0  0  0  0  0  0  0  0  0  0  0
   26.5386  -21.3178  -10.8303 C   0  0  0  0  0  0  0  0  0  0  0  0
   25.8704  -21.4001   -9.6334 C   0  0  0  0  0  0  0  0  0  0  0  0
   24.7117  -20.6942   -9.3987 C   0  0  0  0  0  0  0  0  0  0  0  0
   24.2187  -19.8897  -10.3934 C   0  0  0  0  0  0  0  0  0  0  0  0
   24.8940  -19.7994  -11.6189 C   0  0  0  0  0  0  0  0  0  0  0  0
   24.8051  -21.2262  -14.4036 C   0  0  0  0  0  0  0  0  0  0  0  0
   24.3370  -20.1868  -14.9602 O   0  0  0  0  0  0  0  0  0  0  0  0
   23.8973  -22.2715  -14.0091 N   0  0  0  0  0  0  0  0  0  0  0  0
   22.5025  -22.0470  -14.1927 C   0  0  1  0  0  0  0  0  0  0  0  0
   21.7129  -23.3209  -14.3964 C   0  0  0  0  0  0  0  0  0  0  0  0
   20.2301  -23.0627  -14.4152 C   0  0  0  0  0  0  0  0  0  0  0  0
   19.7932  -22.8945  -15.8485 C   0  0  0  0  0  0  0  0  0  0  0  0
   18.3095  -22.6126  -15.9853 C   0  0  0  0  0  0  0  0  0  0  0  0
   18.0595  -22.4229  -17.4031 N   0  0  0  0  0  0  0  0  0  0  0  0
   21.9041  -21.2927  -13.0172 C   0  0  0  0  0  0  0  0  0  0  0  0
   21.3540  -20.1867  -13.1928 O   0  0  0  0  0  0  0  0  0  0  0  0
   22.0068  -21.8980  -11.7865 O   0  0  0  0  0  0  0  0  0  0  0  0
  2  3  1  0
  2  1  1  1
  4  3  1  0
  5  4  1  0
  6  5  1  0
  7  6  1  0
  8 10  1  0
  8  2  1  0
  9  8  2  0
 11 10  1  0
 11 12  1  1
 12 13  1  0
 13 18  2  0
 14 15  2  0
 14 13  1  0
 15 16  1  0
 16 17  2  0
 18 17  1  0
 19 20  2  0
 19 11  1  0
 21 19  1  0
 22 28  1  0
 22 21  1  0
 22 23  1  1
 24 23  1  0
 25 24  1  0
 26 27  1  0
 26 25  1  0
 28 30  1  0
 29 28  2  0
M  END
$$$$
