KFK.pdb
     RDKit          3D

 30 30  0  0  1  0  0  0  0  0999 V2000
   35.3641  -28.4843  -18.4925 N   0  0  0  0  0  0  0  0  0  0  0  0
   34.1734  -27.9204  -19.1202 C   0  0  1  0  0  0  0  0  0  0  0  0
   33.7070  -28.9248  -20.1276 C   0  0  0  0  0  0  0  0  0  0  0  0
   34.6802  -29.2095  -21.2403 C   0  0  0  0  0  0  0  0  0  0  0  0
   33.9558  -29.7676  -22.4710 C   0  0  0  0  0  0  0  0  0  0  0  0
   34.9275  -30.1355  -23.5658 C   0  0  0  0  0  0  0  0  0  0  0  0
   34.1621  -30.7172  -24.6651 N   0  0  0  0  0  0  0  0  0  0  0  0
   33.1358  -27.6182  -18.1457 C   0  0  0  0  0  0  0  0  0  0  0  0
   32.9241  -28.4060  -17.1728 O   0  0  0  0  0  0  0  0  0  0  0  0
   32.2913  -26.4840  -18.1666 N   0  0  0  0  0  0  0  0  0  0  0  0
   31.3434  -26.1627  -17.0996 C   0  0  1  0  0  0  0  0  0  0  0  0
   31.7034  -24.8190  -16.5614 C   0  0  0  0  0  0  0  0  0  0  0  0
   32.9306  -24.8183  -15.7359 C   0  0  0  0  0  0  0  0  0  0  0  0
   32.8221  -25.0466  -14.3694 C   0  0  0  0  0  0  0  0  0  0  0  0
   33.9499  -25.0729  -13.5865 C   0  0  0  0  0  0  0  0  0  0  0  0
   35.2061  -24.8779  -14.1159 C   0  0  0  0  0  0  0  0  0  0  0  0
   35.3241  -24.6516  -15.4630 C   0  0  0  0  0  0  0  0  0  0  0  0
   34.1781  -24.6228  -16.2703 C   0  0  0  0  0  0  0  0  0  0  0  0
   29.9572  -26.3181  -17.5583 C   0  0  0  0  0  0  0  0  0  0  0  0
   29.7009  -26.0151  -18.7632 O   0  0  0  0  0  0  0  0  0  0  0  0
   28.8876  -26.7892  -16.7179 N   0  0  0  0  0  0  0  0  0  0  0  0
   27.6198  -27.0258  -17.3231 C   0  0  1  0  0  0  0  0  0  0  0  0
   27.1974  -28.4775  -17.2796 C   0  0  0  0  0  0  0  0  0  0  0  0
   25.9060  -28.7064  -18.0184 C   0  0  0  0  0  0  0  0  0  0  0  0
   25.5410  -30.1647  -17.9007 C   0  0  0  0  0  0  0  0  0  0  0  0
   24.3745  -30.5558  -18.7872 C   0  0  0  0  0  0  0  0  0  0  0  0
   24.0422  -31.9268  -18.4426 N   0  0  0  0  0  0  0  0  0  0  0  0
   26.5314  -26.1884  -16.6727 C   0  0  0  0  0  0  0  0  0  0  0  0
   25.9479  -25.2983  -17.3238 O   0  0  0  0  0  0  0  0  0  0  0  0
   26.2433  -26.4742  -15.3586 O   0  0  0  0  0  0  0  0  0  0  0  0
  2  3  1  0
  2  1  1  1
  4  3  1  0
  5  4  1  0
  6  5  1  0
  7  6  1  0
  8 10  1  0
  8  2  1  0
  9  8  2  0
 11 10  1  0
 11 12  1  6
 12 13  1  0
 13 18  2  0
 14 15  2  0
 14 13  1  0
 15 16  1  0
 16 17  2  0
 18 17  1  0
 19 20  2  0
 19 11  1  0
 21 19  1  0
 22 28  1  0
 22 21  1  0
 22 23  1  1
 24 23  1  0
 25 24  1  0
 26 27  1  0
 26 25  1  0
 28 30  1  0
 29 28  2  0
M  END
$$$$
