AKF.pdb
     RDKit          3D

 26 26  0  0  1  0  0  0  0  0999 V2000
   25.8848  -12.0034  -15.2990 C   0  0  0  0  0  0  0  0  0  0  0  0
   25.0680  -12.1215  -16.5596 C   0  0  2  0  0  0  0  0  0  0  0  0
   25.9842  -12.2359  -17.6761 N   0  0  0  0  0  0  0  0  0  0  0  0
   24.1852  -10.9698  -16.7890 C   0  0  0  0  0  0  0  0  0  0  0  0
   24.5978   -9.8875  -17.2817 O   0  0  0  0  0  0  0  0  0  0  0  0
   22.8087  -11.0447  -16.4541 N   0  0  0  0  0  0  0  0  0  0  0  0
   21.8692   -9.9397  -16.7069 C   0  0  1  0  0  0  0  0  0  0  0  0
   20.4804  -10.4854  -16.9046 C   0  0  0  0  0  0  0  0  0  0  0  0
   19.5141   -9.3603  -17.1183 C   0  0  0  0  0  0  0  0  0  0  0  0
   18.0813   -9.8737  -17.2716 C   0  0  0  0  0  0  0  0  0  0  0  0
   17.0859   -8.7471  -17.4173 C   0  0  0  0  0  0  0  0  0  0  0  0
   15.7649   -9.3544  -17.3238 N   0  0  0  0  0  0  0  0  0  0  0  0
   21.9840   -8.9273  -15.6477 C   0  0  0  0  0  0  0  0  0  0  0  0
   21.8152   -9.1380  -14.4292 O   0  0  0  0  0  0  0  0  0  0  0  0
   22.3152   -7.5555  -15.9567 N   0  0  0  0  0  0  0  0  0  0  0  0
   22.4057   -6.5290  -14.9177 C   0  0  1  0  0  0  0  0  0  0  0  0
   23.8113   -6.0695  -14.7344 C   0  0  0  0  0  0  0  0  0  0  0  0
   24.3316   -5.4732  -15.9751 C   0  0  0  0  0  0  0  0  0  0  0  0
   24.2128   -4.1508  -16.3121 C   0  0  0  0  0  0  0  0  0  0  0  0
   24.7266   -3.6192  -17.4904 C   0  0  0  0  0  0  0  0  0  0  0  0
   25.3899   -4.4361  -18.3783 C   0  0  0  0  0  0  0  0  0  0  0  0
   25.5154   -5.7662  -18.0514 C   0  0  0  0  0  0  0  0  0  0  0  0
   25.0062   -6.2775  -16.8900 C   0  0  0  0  0  0  0  0  0  0  0  0
   21.5306   -5.4001  -15.2877 C   0  0  0  0  0  0  0  0  0  0  0  0
   20.9845   -5.2407  -16.4070 O   0  0  0  0  0  0  0  0  0  0  0  0
   21.2786   -4.4121  -14.3133 O   0  0  0  0  0  0  0  0  0  0  0  0
  2  4  1  0
  2  1  1  1
  3  2  1  0
  4  5  2  0
  6  7  1  0
  6  4  1  0
  7  8  1  1
  8  9  1  0
 10  9  1  0
 11 10  1  0
 12 11  1  0
 13 14  2  0
 13  7  1  0
 15 13  1  0
 16 24  1  0
 16 15  1  0
 16 17  1  6
 18 17  1  0
 19 18  2  0
 20 19  1  0
 21 20  2  0
 21 22  1  0
 22 23  2  0
 23 18  1  0
 24 26  1  0
 25 24  2  0
M  END
$$$$
