AKF.pdb
     RDKit          3D

 26 26  0  0  1  0  0  0  0  0999 V2000
   22.9768  -17.4393  -13.1594 C   0  0  0  0  0  0  0  0  0  0  0  0
   23.8065  -18.3048  -14.0720 C   0  0  2  0  0  0  0  0  0  0  0  0
   22.9547  -18.7597  -15.1521 N   0  0  0  0  0  0  0  0  0  0  0  0
   24.3801  -19.4768  -13.3971 C   0  0  0  0  0  0  0  0  0  0  0  0
   23.6709  -20.4165  -12.9516 O   0  0  0  0  0  0  0  0  0  0  0  0
   25.7836  -19.5874  -13.2229 N   0  0  0  0  0  0  0  0  0  0  0  0
   26.4104  -20.7271  -12.5332 C   0  0  1  0  0  0  0  0  0  0  0  0
   27.5854  -21.2240  -13.3322 C   0  0  0  0  0  0  0  0  0  0  0  0
   27.1149  -21.7819  -14.6409 C   0  0  0  0  0  0  0  0  0  0  0  0
   28.2896  -22.2099  -15.5224 C   0  0  0  0  0  0  0  0  0  0  0  0
   27.8401  -22.6470  -16.8964 C   0  0  0  0  0  0  0  0  0  0  0  0
   29.0534  -22.9066  -17.6599 N   0  0  0  0  0  0  0  0  0  0  0  0
   26.7241  -20.3657  -11.1436 C   0  0  0  0  0  0  0  0  0  0  0  0
   27.6465  -19.6036  -10.7887 O   0  0  0  0  0  0  0  0  0  0  0  0
   25.9518  -20.8910  -10.0415 N   0  0  0  0  0  0  0  0  0  0  0  0
   26.4626  -20.8914   -8.6702 C   0  0  1  0  0  0  0  0  0  0  0  0
   27.2287  -19.6467   -8.3795 C   0  0  0  0  0  0  0  0  0  0  0  0
   27.8345  -19.7076   -7.0398 C   0  0  0  0  0  0  0  0  0  0  0  0
   28.4926  -20.7965   -6.5323 C   0  0  0  0  0  0  0  0  0  0  0  0
   29.0627  -20.8150   -5.2636 C   0  0  0  0  0  0  0  0  0  0  0  0
   28.9769  -19.7018   -4.4579 C   0  0  0  0  0  0  0  0  0  0  0  0
   28.3181  -18.6019   -4.9561 C   0  0  0  0  0  0  0  0  0  0  0  0
   27.7618  -18.5954   -6.2050 C   0  0  0  0  0  0  0  0  0  0  0  0
   25.3264  -21.0352   -7.7400 C   0  0  0  0  0  0  0  0  0  0  0  0
   25.4201  -21.2311   -6.5033 O   0  0  0  0  0  0  0  0  0  0  0  0
   24.0225  -20.9474   -8.2706 O   0  0  0  0  0  0  0  0  0  0  0  0
  2  4  1  0
  2  1  1  1
  3  2  1  0
  4  5  2  0
  6  7  1  0
  6  4  1  0
  7  8  1  6
  8  9  1  0
 10  9  1  0
 11 10  1  0
 12 11  1  0
 13 14  2  0
 13  7  1  0
 15 13  1  0
 16 24  1  0
 16 15  1  0
 16 17  1  1
 18 17  1  0
 19 18  2  0
 20 19  1  0
 21 20  2  0
 21 22  1  0
 22 23  2  0
 23 18  1  0
 24 26  1  0
 25 24  2  0
M  END
$$$$
