AKF.pdb
     RDKit          3D

 26 26  0  0  1  0  0  0  0  0999 V2000
   28.1646  -17.0957  -20.9735 C   0  0  0  0  0  0  0  0  0  0  0  0
   28.9426  -18.3858  -21.0003 C   0  0  2  0  0  0  0  0  0  0  0  0
   29.3282  -18.6462  -22.3724 N   0  0  0  0  0  0  0  0  0  0  0  0
   28.1777  -19.5352  -20.4983 C   0  0  0  0  0  0  0  0  0  0  0  0
   27.3407  -20.1535  -21.2065 O   0  0  0  0  0  0  0  0  0  0  0  0
   28.3638  -19.9937  -19.1688 N   0  0  0  0  0  0  0  0  0  0  0  0
   27.6568  -21.1661  -18.6273 C   0  0  1  0  0  0  0  0  0  0  0  0
   28.3447  -21.6445  -17.3768 C   0  0  0  0  0  0  0  0  0  0  0  0
   27.7263  -22.9276  -16.9116 C   0  0  0  0  0  0  0  0  0  0  0  0
   28.7519  -24.0619  -16.8717 C   0  0  0  0  0  0  0  0  0  0  0  0
   28.1107  -25.3987  -16.5836 C   0  0  0  0  0  0  0  0  0  0  0  0
   29.1955  -26.3699  -16.5340 N   0  0  0  0  0  0  0  0  0  0  0  0
   26.2284  -20.8624  -18.4622 C   0  0  0  0  0  0  0  0  0  0  0  0
   25.7679  -19.8827  -17.8409 O   0  0  0  0  0  0  0  0  0  0  0  0
   25.2114  -21.7149  -19.0331 N   0  0  0  0  0  0  0  0  0  0  0  0
   23.7851  -21.4238  -18.8837 C   0  0  1  0  0  0  0  0  0  0  0  0
   22.9672  -22.2334  -19.8304 C   0  0  0  0  0  0  0  0  0  0  0  0
   21.5363  -21.9249  -19.6795 C   0  0  0  0  0  0  0  0  0  0  0  0
   20.6568  -22.6600  -18.9295 C   0  0  0  0  0  0  0  0  0  0  0  0
   19.3110  -22.3325  -18.8011 C   0  0  0  0  0  0  0  0  0  0  0  0
   18.8113  -21.2238  -19.4467 C   0  0  0  0  0  0  0  0  0  0  0  0
   19.6846  -20.4776  -20.2033 C   0  0  0  0  0  0  0  0  0  0  0  0
   21.0056  -20.8093  -20.3220 C   0  0  0  0  0  0  0  0  0  0  0  0
   23.3889  -21.6931  -17.4881 C   0  0  0  0  0  0  0  0  0  0  0  0
   22.5844  -21.0029  -16.8152 O   0  0  0  0  0  0  0  0  0  0  0  0
   23.9529  -22.8148  -16.8456 O   0  0  0  0  0  0  0  0  0  0  0  0
  2  4  1  0
  2  1  1  6
  3  2  1  0
  4  5  2  0
  6  7  1  0
  6  4  1  0
  7  8  1  1
  8  9  1  0
 10  9  1  0
 11 10  1  0
 12 11  1  0
 13 14  2  0
 13  7  1  0
 15 13  1  0
 16 24  1  0
 16 15  1  0
 16 17  1  6
 18 17  1  0
 19 18  2  0
 20 19  1  0
 21 20  2  0
 21 22  1  0
 22 23  2  0
 23 18  1  0
 24 26  1  0
 25 24  2  0
M  END
$$$$
