AKF.pdb
     RDKit          3D

 26 26  0  0  1  0  0  0  0  0999 V2000
   24.8684  -16.9315  -16.3698 C   0  0  0  0  0  0  0  0  0  0  0  0
   25.9526  -17.6077  -15.5713 C   0  0  2  0  0  0  0  0  0  0  0  0
   27.0151  -17.9770  -16.4844 N   0  0  0  0  0  0  0  0  0  0  0  0
   25.4910  -18.8138  -14.8710 C   0  0  0  0  0  0  0  0  0  0  0  0
   24.5178  -18.8031  -14.0727 O   0  0  0  0  0  0  0  0  0  0  0  0
   26.1435  -20.0562  -15.0784 N   0  0  0  0  0  0  0  0  0  0  0  0
   25.7837  -21.2754  -14.3357 C   0  0  1  0  0  0  0  0  0  0  0  0
   26.1564  -22.4920  -15.1400 C   0  0  0  0  0  0  0  0  0  0  0  0
   25.6456  -23.7281  -14.4645 C   0  0  0  0  0  0  0  0  0  0  0  0
   24.1337  -23.8795  -14.6417 C   0  0  0  0  0  0  0  0  0  0  0  0
   23.5951  -25.0925  -13.9207 C   0  0  0  0  0  0  0  0  0  0  0  0
   22.1683  -25.1404  -14.2114 N   0  0  0  0  0  0  0  0  0  0  0  0
   26.3625  -21.2334  -12.9854 C   0  0  0  0  0  0  0  0  0  0  0  0
   27.5774  -21.3383  -12.7196 O   0  0  0  0  0  0  0  0  0  0  0  0
   25.5283  -21.0597  -11.8189 N   0  0  0  0  0  0  0  0  0  0  0  0
   26.0851  -21.0421  -10.4657 C   0  0  1  0  0  0  0  0  0  0  0  0
   27.1273  -19.9864  -10.3250 C   0  0  0  0  0  0  0  0  0  0  0  0
   27.6383  -19.9379   -8.9458 C   0  0  0  0  0  0  0  0  0  0  0  0
   28.6032  -20.7707   -8.4440 C   0  0  0  0  0  0  0  0  0  0  0  0
   29.0701  -20.6895   -7.1362 C   0  0  0  0  0  0  0  0  0  0  0  0
   28.5568  -19.7379   -6.2836 C   0  0  0  0  0  0  0  0  0  0  0  0
   27.5870  -18.8958   -6.7757 C   0  0  0  0  0  0  0  0  0  0  0  0
   27.1360  -18.9851   -8.0633 C   0  0  0  0  0  0  0  0  0  0  0  0
   24.9880  -20.8253   -9.5033 C   0  0  0  0  0  0  0  0  0  0  0  0
   23.9545  -20.1462   -9.7206 O   0  0  0  0  0  0  0  0  0  0  0  0
   25.0964  -21.4248   -8.2313 O   0  0  0  0  0  0  0  0  0  0  0  0
  2  4  1  0
  2  1  1  6
  3  2  1  0
  4  5  2  0
  6  7  1  0
  6  4  1  0
  7  8  1  6
  8  9  1  0
 10  9  1  0
 11 10  1  0
 12 11  1  0
 13 14  2  0
 13  7  1  0
 15 13  1  0
 16 24  1  0
 16 15  1  0
 16 17  1  6
 18 17  1  0
 19 18  2  0
 20 19  1  0
 21 20  2  0
 21 22  1  0
 22 23  2  0
 23 18  1  0
 24 26  1  0
 25 24  2  0
M  END
$$$$
