AKF.pdb
     RDKit          3D

 26 26  0  0  1  0  0  0  0  0999 V2000
   29.3070  -22.6862  -16.4579 C   0  0  0  0  0  0  0  0  0  0  0  0
   27.8132  -22.7123  -16.6534 C   0  0  2  0  0  0  0  0  0  0  0  0
   27.5312  -22.2591  -18.0003 N   0  0  0  0  0  0  0  0  0  0  0  0
   27.0888  -21.8553  -15.7052 C   0  0  0  0  0  0  0  0  0  0  0  0
   27.4569  -20.6824  -15.4345 O   0  0  0  0  0  0  0  0  0  0  0  0
   25.9252  -22.3351  -15.0508 N   0  0  0  0  0  0  0  0  0  0  0  0
   25.1059  -21.4894  -14.1671 C   0  0  1  0  0  0  0  0  0  0  0  0
   23.6455  -21.7593  -14.4122 C   0  0  0  0  0  0  0  0  0  0  0  0
   23.0132  -20.5799  -15.0863 C   0  0  0  0  0  0  0  0  0  0  0  0
   22.7657  -20.8497  -16.5716 C   0  0  0  0  0  0  0  0  0  0  0  0
   22.2744  -19.6204  -17.2988 C   0  0  0  0  0  0  0  0  0  0  0  0
   22.1935  -19.9840  -18.7073 N   0  0  0  0  0  0  0  0  0  0  0  0
   25.5333  -21.6557  -12.7708 C   0  0  0  0  0  0  0  0  0  0  0  0
   25.6347  -22.7472  -12.1742 O   0  0  0  0  0  0  0  0  0  0  0  0
   25.8816  -20.5160  -11.9542 N   0  0  0  0  0  0  0  0  0  0  0  0
   26.3243  -20.6648  -10.5674 C   0  0  1  0  0  0  0  0  0  0  0  0
   27.2807  -19.5869  -10.1879 C   0  0  0  0  0  0  0  0  0  0  0  0
   27.6638  -19.7038   -8.7719 C   0  0  0  0  0  0  0  0  0  0  0  0
   27.1206  -18.9637   -7.7553 C   0  0  0  0  0  0  0  0  0  0  0  0
   27.5003  -19.1084   -6.4249 C   0  0  0  0  0  0  0  0  0  0  0  0
   28.4647  -20.0302   -6.0843 C   0  0  0  0  0  0  0  0  0  0  0  0
   29.0180  -20.7794   -7.0964 C   0  0  0  0  0  0  0  0  0  0  0  0
   28.6366  -20.6284   -8.4006 C   0  0  0  0  0  0  0  0  0  0  0  0
   25.1409  -20.6479   -9.6865 C   0  0  0  0  0  0  0  0  0  0  0  0
   24.0856  -20.0018   -9.8998 O   0  0  0  0  0  0  0  0  0  0  0  0
   25.1855  -21.4162   -8.5046 O   0  0  0  0  0  0  0  0  0  0  0  0
  2  4  1  0
  2  1  1  1
  3  2  1  0
  4  5  2  0
  6  7  1  0
  6  4  1  0
  7  8  1  1
  8  9  1  0
 10  9  1  0
 11 10  1  0
 12 11  1  0
 13 14  2  0
 13  7  1  0
 15 13  1  0
 16 24  1  0
 16 15  1  0
 16 17  1  1
 18 17  1  0
 19 18  2  0
 20 19  1  0
 21 20  2  0
 21 22  1  0
 22 23  2  0
 23 18  1  0
 24 26  1  0
 25 24  2  0
M  END
$$$$
