AKF.pdb
     RDKit          3D

 26 26  0  0  1  0  0  0  0  0999 V2000
   21.8901   -4.7187  -19.7521 C   0  0  0  0  0  0  0  0  0  0  0  0
   21.2565   -6.0074  -20.2083 C   0  0  2  0  0  0  0  0  0  0  0  0
   20.4608   -5.7216  -21.3849 N   0  0  0  0  0  0  0  0  0  0  0  0
   20.3923   -6.6210  -19.1911 C   0  0  0  0  0  0  0  0  0  0  0  0
   19.3775   -6.0405  -18.7246 O   0  0  0  0  0  0  0  0  0  0  0  0
   20.6823   -7.9170  -18.6922 N   0  0  0  0  0  0  0  0  0  0  0  0
   19.8732   -8.5642  -17.6463 C   0  0  1  0  0  0  0  0  0  0  0  0
   19.7850  -10.0434  -17.9111 C   0  0  0  0  0  0  0  0  0  0  0  0
   18.8402  -10.6818  -16.9390 C   0  0  0  0  0  0  0  0  0  0  0  0
   18.6446  -12.1684  -17.2417 C   0  0  0  0  0  0  0  0  0  0  0  0
   17.6506  -12.8136  -16.3052 C   0  0  0  0  0  0  0  0  0  0  0  0
   17.4968  -14.1899  -16.7577 N   0  0  0  0  0  0  0  0  0  0  0  0
   20.3899   -8.2100  -16.3169 C   0  0  0  0  0  0  0  0  0  0  0  0
   21.5639   -8.3848  -15.9309 O   0  0  0  0  0  0  0  0  0  0  0  0
   19.5368   -7.6077  -15.3187 N   0  0  0  0  0  0  0  0  0  0  0  0
   20.0131   -7.3222  -13.9647 C   0  0  1  0  0  0  0  0  0  0  0  0
   19.9890   -5.8594  -13.6817 C   0  0  0  0  0  0  0  0  0  0  0  0
   20.8114   -5.1255  -14.6567 C   0  0  0  0  0  0  0  0  0  0  0  0
   20.3116   -4.3827  -15.6934 C   0  0  0  0  0  0  0  0  0  0  0  0
   21.1197   -3.6927  -16.5911 C   0  0  0  0  0  0  0  0  0  0  0  0
   22.4892   -3.7405  -16.4562 C   0  0  0  0  0  0  0  0  0  0  0  0
   23.0034   -4.4835  -15.4192 C   0  0  0  0  0  0  0  0  0  0  0  0
   22.1989   -5.1575  -14.5429 C   0  0  0  0  0  0  0  0  0  0  0  0
   19.1709   -8.0553  -13.0004 C   0  0  0  0  0  0  0  0  0  0  0  0
   19.3744   -8.1240  -11.7633 O   0  0  0  0  0  0  0  0  0  0  0  0
   18.0414   -8.7395  -13.4956 O   0  0  0  0  0  0  0  0  0  0  0  0
  2  4  1  0
  2  1  1  1
  3  2  1  0
  4  5  2  0
  6  7  1  0
  6  4  1  0
  7  8  1  6
  8  9  1  0
 10  9  1  0
 11 10  1  0
 12 11  1  0
 13 14  2  0
 13  7  1  0
 15 13  1  0
 16 24  1  0
 16 15  1  0
 16 17  1  1
 18 17  1  0
 19 18  2  0
 20 19  1  0
 21 20  2  0
 21 22  1  0
 22 23  2  0
 23 18  1  0
 24 26  1  0
 25 24  2  0
M  END
$$$$
