AKF.pdb
     RDKit          3D

 26 26  0  0  1  0  0  0  0  0999 V2000
   22.8732  -32.0175  -14.5903 C   0  0  0  0  0  0  0  0  0  0  0  0
   23.8394  -33.1731  -14.5540 C   0  0  2  0  0  0  0  0  0  0  0  0
   23.5017  -34.0716  -15.6393 N   0  0  0  0  0  0  0  0  0  0  0  0
   23.8005  -33.9224  -13.2910 C   0  0  0  0  0  0  0  0  0  0  0  0
   22.7391  -34.4165  -12.8286 O   0  0  0  0  0  0  0  0  0  0  0  0
   24.9861  -34.1162  -12.5365 N   0  0  0  0  0  0  0  0  0  0  0  0
   25.0021  -34.8424  -11.2558 C   0  0  1  0  0  0  0  0  0  0  0  0
   25.9398  -36.0164  -11.3463 C   0  0  0  0  0  0  0  0  0  0  0  0
   25.2048  -37.2205  -11.8515 C   0  0  0  0  0  0  0  0  0  0  0  0
   26.1056  -38.4566  -11.8779 C   0  0  0  0  0  0  0  0  0  0  0  0
   25.4123  -39.6529  -12.4858 C   0  0  0  0  0  0  0  0  0  0  0  0
   26.3789  -40.7426  -12.4590 N   0  0  0  0  0  0  0  0  0  0  0  0
   25.2879  -33.9142  -10.1528 C   0  0  0  0  0  0  0  0  0  0  0  0
   26.1706  -33.0319  -10.1649 O   0  0  0  0  0  0  0  0  0  0  0  0
   24.5334  -33.9603   -8.9217 N   0  0  0  0  0  0  0  0  0  0  0  0
   24.8759  -33.1209   -7.7730 C   0  0  1  0  0  0  0  0  0  0  0  0
   23.7124  -32.2955   -7.3420 C   0  0  0  0  0  0  0  0  0  0  0  0
   23.3470  -31.3238   -8.3850 C   0  0  0  0  0  0  0  0  0  0  0  0
   23.9812  -30.1270   -8.5898 C   0  0  0  0  0  0  0  0  0  0  0  0
   23.6147  -29.2364   -9.5935 C   0  0  0  0  0  0  0  0  0  0  0  0
   22.5696  -29.5451  -10.4351 C   0  0  0  0  0  0  0  0  0  0  0  0
   21.9245  -30.7439  -10.2392 C   0  0  0  0  0  0  0  0  0  0  0  0
   22.2937  -31.6116   -9.2492 C   0  0  0  0  0  0  0  0  0  0  0  0
   25.3384  -33.9877   -6.6723 C   0  0  0  0  0  0  0  0  0  0  0  0
   25.2757  -35.2417   -6.6597 O   0  0  0  0  0  0  0  0  0  0  0  0
   25.8990  -33.3699   -5.5352 O   0  0  0  0  0  0  0  0  0  0  0  0
  2  4  1  0
  2  1  1  1
  3  2  1  0
  4  5  2  0
  6  7  1  0
  6  4  1  0
  7  8  1  6
  8  9  1  0
 10  9  1  0
 11 10  1  0
 12 11  1  0
 13 14  2  0
 13  7  1  0
 15 13  1  0
 16 24  1  0
 16 15  1  0
 16 17  1  1
 18 17  1  0
 19 18  2  0
 20 19  1  0
 21 20  2  0
 21 22  1  0
 22 23  2  0
 23 18  1  0
 24 26  1  0
 25 24  2  0
M  END
$$$$
