AKF.pdb
     RDKit          3D

 26 26  0  0  1  0  0  0  0  0999 V2000
   27.6847  -15.4532  -14.5420 C   0  0  0  0  0  0  0  0  0  0  0  0
   27.6403  -16.7383  -15.3275 C   0  0  2  0  0  0  0  0  0  0  0  0
   27.2201  -16.4220  -16.6775 N   0  0  0  0  0  0  0  0  0  0  0  0
   26.7145  -17.7305  -14.7649 C   0  0  0  0  0  0  0  0  0  0  0  0
   25.4717  -17.5398  -14.7044 O   0  0  0  0  0  0  0  0  0  0  0  0
   27.2048  -18.9627  -14.2611 N   0  0  0  0  0  0  0  0  0  0  0  0
   26.3156  -20.0549  -13.8320 C   0  0  1  0  0  0  0  0  0  0  0  0
   26.5805  -21.2839  -14.6597 C   0  0  0  0  0  0  0  0  0  0  0  0
   25.5471  -22.3292  -14.3686 C   0  0  0  0  0  0  0  0  0  0  0  0
   25.7921  -23.6012  -15.1823 C   0  0  0  0  0  0  0  0  0  0  0  0
   24.7243  -24.6428  -14.9450 C   0  0  0  0  0  0  0  0  0  0  0  0
   25.0838  -25.7910  -15.7665 N   0  0  0  0  0  0  0  0  0  0  0  0
   26.4294  -20.2579  -12.3809 C   0  0  0  0  0  0  0  0  0  0  0  0
   27.4725  -20.5872  -11.7797 O   0  0  0  0  0  0  0  0  0  0  0  0
   25.2907  -20.0825  -11.5093 N   0  0  0  0  0  0  0  0  0  0  0  0
   25.2882  -20.5757  -10.1316 C   0  0  1  0  0  0  0  0  0  0  0  0
   25.5792  -19.4790   -9.1656 C   0  0  0  0  0  0  0  0  0  0  0  0
   26.7637  -19.7996   -8.3534 C   0  0  0  0  0  0  0  0  0  0  0  0
   27.3614  -21.0310   -8.3015 C   0  0  0  0  0  0  0  0  0  0  0  0
   28.4878  -21.2957   -7.5294 C   0  0  0  0  0  0  0  0  0  0  0  0
   29.0497  -20.2928   -6.7716 C   0  0  0  0  0  0  0  0  0  0  0  0
   28.4584  -19.0517   -6.8150 C   0  0  0  0  0  0  0  0  0  0  0  0
   27.3514  -18.8034   -7.5779 C   0  0  0  0  0  0  0  0  0  0  0  0
   23.9758  -21.1875   -9.8484 C   0  0  0  0  0  0  0  0  0  0  0  0
   23.6779  -21.8170   -8.8036 O   0  0  0  0  0  0  0  0  0  0  0  0
   22.9640  -21.0622  -10.8229 O   0  0  0  0  0  0  0  0  0  0  0  0
  2  4  1  0
  2  1  1  1
  3  2  1  0
  4  5  2  0
  6  7  1  0
  6  4  1  0
  7  8  1  6
  8  9  1  0
 10  9  1  0
 11 10  1  0
 12 11  1  0
 13 14  2  0
 13  7  1  0
 15 13  1  0
 16 24  1  0
 16 15  1  0
 16 17  1  1
 18 17  1  0
 19 18  2  0
 20 19  1  0
 21 20  2  0
 21 22  1  0
 22 23  2  0
 23 18  1  0
 24 26  1  0
 25 24  2  0
M  END
$$$$
