AKF.pdb
     RDKit          3D

 26 26  0  0  1  0  0  0  0  0999 V2000
   27.6772  -19.0845  -15.9562 C   0  0  0  0  0  0  0  0  0  0  0  0
   27.7353  -20.2062  -14.9518 C   0  0  2  0  0  0  0  0  0  0  0  0
   27.1800  -21.3913  -15.5735 N   0  0  0  0  0  0  0  0  0  0  0  0
   26.9849  -19.9226  -13.7212 C   0  0  0  0  0  0  0  0  0  0  0  0
   27.1480  -18.8663  -13.0563 O   0  0  0  0  0  0  0  0  0  0  0  0
   26.0312  -20.8527  -13.2335 N   0  0  0  0  0  0  0  0  0  0  0  0
   25.1792  -20.5769  -12.0649 C   0  0  1  0  0  0  0  0  0  0  0  0
   23.8447  -21.2522  -12.2352 C   0  0  0  0  0  0  0  0  0  0  0  0
   23.0113  -20.4963  -13.2248 C   0  0  0  0  0  0  0  0  0  0  0  0
   22.2894  -21.4412  -14.1871 C   0  0  0  0  0  0  0  0  0  0  0  0
   21.4549  -20.6932  -15.1997 C   0  0  0  0  0  0  0  0  0  0  0  0
   20.1173  -20.5913  -14.6314 N   0  0  0  0  0  0  0  0  0  0  0  0
   25.8900  -20.9290  -10.8277 C   0  0  0  0  0  0  0  0  0  0  0  0
   26.4408  -22.0258  -10.6012 O   0  0  0  0  0  0  0  0  0  0  0  0
   26.0061  -19.9878   -9.7379 N   0  0  0  0  0  0  0  0  0  0  0  0
   26.7233  -20.3165   -8.5054 C   0  0  1  0  0  0  0  0  0  0  0  0
   27.5905  -19.1863   -8.0681 C   0  0  0  0  0  0  0  0  0  0  0  0
   28.1709  -19.4562   -6.7430 C   0  0  0  0  0  0  0  0  0  0  0  0
   29.2979  -20.2036   -6.5249 C   0  0  0  0  0  0  0  0  0  0  0  0
   29.8246  -20.4297   -5.2575 C   0  0  0  0  0  0  0  0  0  0  0  0
   29.2057  -19.8900   -4.1523 C   0  0  0  0  0  0  0  0  0  0  0  0
   28.0728  -19.1377   -4.3583 C   0  0  0  0  0  0  0  0  0  0  0  0
   27.5643  -18.9222   -5.6090 C   0  0  0  0  0  0  0  0  0  0  0  0
   25.7396  -20.6558   -7.4594 C   0  0  0  0  0  0  0  0  0  0  0  0
   24.5613  -20.2258   -7.4032 O   0  0  0  0  0  0  0  0  0  0  0  0
   26.1430  -21.5344   -6.4325 O   0  0  0  0  0  0  0  0  0  0  0  0
  2  4  1  0
  2  1  1  6
  3  2  1  0
  4  5  2  0
  6  7  1  0
  6  4  1  0
  7  8  1  6
  8  9  1  0
 10  9  1  0
 11 10  1  0
 12 11  1  0
 13 14  2  0
 13  7  1  0
 15 13  1  0
 16 24  1  0
 16 15  1  0
 16 17  1  1
 18 17  1  0
 19 18  2  0
 20 19  1  0
 21 20  2  0
 21 22  1  0
 22 23  2  0
 23 18  1  0
 24 26  1  0
 25 24  2  0
M  END
$$$$
