AKF.pdb
     RDKit          3D

 26 26  0  0  1  0  0  0  0  0999 V2000
   26.1222  -20.3158  -15.8422 C   0  0  0  0  0  0  0  0  0  0  0  0
   24.8378  -21.0976  -15.9389 C   0  0  2  0  0  0  0  0  0  0  0  0
   24.4819  -21.2001  -17.3396 N   0  0  0  0  0  0  0  0  0  0  0  0
   23.7231  -20.4743  -15.2127 C   0  0  0  0  0  0  0  0  0  0  0  0
   23.7780  -20.2122  -13.9827 O   0  0  0  0  0  0  0  0  0  0  0  0
   22.5230  -20.1413  -15.8918 N   0  0  0  0  0  0  0  0  0  0  0  0
   21.3759  -19.5139  -15.2149 C   0  0  1  0  0  0  0  0  0  0  0  0
   20.7528  -18.4822  -16.1167 C   0  0  0  0  0  0  0  0  0  0  0  0
   21.6894  -17.3264  -16.2957 C   0  0  0  0  0  0  0  0  0  0  0  0
   21.1292  -16.2984  -17.2802 C   0  0  0  0  0  0  0  0  0  0  0  0
   22.0778  -15.1434  -17.4978 C   0  0  0  0  0  0  0  0  0  0  0  0
   21.4878  -14.3221  -18.5465 N   0  0  0  0  0  0  0  0  0  0  0  0
   20.4477  -20.5464  -14.7330 C   0  0  0  0  0  0  0  0  0  0  0  0
   20.1019  -21.5596  -15.3746 O   0  0  0  0  0  0  0  0  0  0  0  0
   19.8433  -20.4570  -13.4239 N   0  0  0  0  0  0  0  0  0  0  0  0
   18.9485  -21.4959  -12.9127 C   0  0  1  0  0  0  0  0  0  0  0  0
   19.1421  -21.7026  -11.4497 C   0  0  0  0  0  0  0  0  0  0  0  0
   18.1933  -22.7022  -10.9338 C   0  0  0  0  0  0  0  0  0  0  0  0
   17.0450  -22.4041  -10.2491 C   0  0  0  0  0  0  0  0  0  0  0  0
   16.1649  -23.3759   -9.7844 C   0  0  0  0  0  0  0  0  0  0  0  0
   16.4347  -24.7074  -10.0079 C   0  0  0  0  0  0  0  0  0  0  0  0
   17.5852  -25.0197  -10.6940 C   0  0  0  0  0  0  0  0  0  0  0  0
   18.4427  -24.0556  -11.1462 C   0  0  0  0  0  0  0  0  0  0  0  0
   17.5552  -21.1095  -13.2063 C   0  0  0  0  0  0  0  0  0  0  0  0
   16.6081  -21.9075  -13.4134 O   0  0  0  0  0  0  0  0  0  0  0  0
   17.2483  -19.7340  -13.2617 O   0  0  0  0  0  0  0  0  0  0  0  0
  2  4  1  0
  2  1  1  6
  3  2  1  0
  4  5  2  0
  6  7  1  0
  6  4  1  0
  7  8  1  6
  8  9  1  0
 10  9  1  0
 11 10  1  0
 12 11  1  0
 13 14  2  0
 13  7  1  0
 15 13  1  0
 16 24  1  0
 16 15  1  0
 16 17  1  1
 18 17  1  0
 19 18  2  0
 20 19  1  0
 21 20  2  0
 21 22  1  0
 22 23  2  0
 23 18  1  0
 24 26  1  0
 25 24  2  0
M  END
$$$$
