SEE.pdb
     RDKit          3D

 25 24  0  0  1  0  0  0  0  0999 V2000
    6.5882  -21.5150   18.4980 O   0  0  0  0  0  0  0  0  0  0  0  0
    5.7257  -20.7386   17.7169 C   0  0  0  0  0  0  0  0  0  0  0  0
    5.4830  -19.3899   18.3607 C   0  0  2  0  0  0  0  0  0  0  0  0
    6.7529  -18.7174   18.4431 N   0  0  0  0  0  0  0  0  0  0  0  0
    4.9494  -19.6322   19.7249 C   0  0  0  0  0  0  0  0  0  0  0  0
    5.6401  -19.2434   20.6978 O   0  0  0  0  0  0  0  0  0  0  0  0
    3.7082  -20.2764   19.9608 N   0  0  0  0  0  0  0  0  0  0  0  0
    3.2206  -20.4653   21.3268 C   0  0  1  0  0  0  0  0  0  0  0  0
    1.7393  -20.6176   21.3112 C   0  0  0  0  0  0  0  0  0  0  0  0
    0.9656  -19.8134   22.2864 C   0  0  0  0  0  0  0  0  0  0  0  0
   -0.4225  -20.3390   22.4880 C   0  0  0  0  0  0  0  0  0  0  0  0
   -0.8622  -21.3357   21.9004 O   0  0  0  0  0  0  0  0  0  0  0  0
    3.8164  -21.7209   21.8934 C   0  0  0  0  0  0  0  0  0  0  0  0
    3.9422  -22.7010   21.1483 O   0  0  0  0  0  0  0  0  0  0  0  0
   -1.2916  -19.6871   23.3839 O   0  0  0  0  0  0  0  0  0  0  0  0
    4.2347  -21.8216   23.2357 N   0  0  0  0  0  0  0  0  0  0  0  0
    5.4271  -22.5402   23.6829 C   0  0  1  0  0  0  0  0  0  0  0  0
    6.6209  -22.1188   22.9131 C   0  0  0  0  0  0  0  0  0  0  0  0
    7.9129  -22.7902   23.2084 C   0  0  0  0  0  0  0  0  0  0  0  0
    9.0446  -22.4359   22.3413 C   0  0  0  0  0  0  0  0  0  0  0  0
    9.5436  -23.2064   21.4493 O   0  0  0  0  0  0  0  0  0  0  0  0
    5.4661  -22.6380   25.1148 C   0  0  0  0  0  0  0  0  0  0  0  0
    5.5236  -23.7253   25.7749 O   0  0  0  0  0  0  0  0  0  0  0  0
    9.6478  -21.1995   22.4554 O   0  0  0  0  0  0  0  0  0  0  0  0
    5.4525  -21.4851   25.9184 O   0  0  0  0  0  0  0  0  0  0  0  0
  1  2  1  0
  2  3  1  0
  3  4  1  1
  5  7  1  0
  5  3  1  0
  6  5  2  0
  8  7  1  0
  8  9  1  6
  9 10  1  0
 10 11  1  0
 11 15  1  0
 12 11  2  0
 13  8  1  0
 14 13  2  0
 16 13  1  0
 17 22  1  0
 17 16  1  0
 18 19  1  0
 17 18  1  1
 19 20  1  0
 20 21  2  0
 22 25  1  0
 23 22  2  0
 24 20  1  0
M  END
$$$$
