SEE.pdb
     RDKit          3D

 25 24  0  0  1  0  0  0  0  0999 V2000
   16.4092  -18.6142   16.6488 O   0  0  0  0  0  0  0  0  0  0  0  0
   15.3597  -19.2316   15.9602 C   0  0  0  0  0  0  0  0  0  0  0  0
   14.2498  -18.2431   15.6712 C   0  0  2  0  0  0  0  0  0  0  0  0
   14.8282  -17.1492   14.9358 N   0  0  0  0  0  0  0  0  0  0  0  0
   13.7293  -17.7575   16.9742 C   0  0  0  0  0  0  0  0  0  0  0  0
   14.1009  -16.6239   17.3636 O   0  0  0  0  0  0  0  0  0  0  0  0
   12.8427  -18.5180   17.7784 N   0  0  0  0  0  0  0  0  0  0  0  0
   12.3623  -17.9881   19.0543 C   0  0  1  0  0  0  0  0  0  0  0  0
   11.1465  -18.7359   19.4790 C   0  0  0  0  0  0  0  0  0  0  0  0
   10.6138  -18.4501   20.8322 C   0  0  0  0  0  0  0  0  0  0  0  0
    9.3408  -19.1877   21.1135 C   0  0  0  0  0  0  0  0  0  0  0  0
    8.6458  -18.9824   22.1169 O   0  0  0  0  0  0  0  0  0  0  0  0
   13.4223  -18.1820   20.0990 C   0  0  0  0  0  0  0  0  0  0  0  0
   13.9807  -19.2839   20.1735 O   0  0  0  0  0  0  0  0  0  0  0  0
    8.8887  -20.1680   20.2094 O   0  0  0  0  0  0  0  0  0  0  0  0
   13.8013  -17.1594   20.9919 N   0  0  0  0  0  0  0  0  0  0  0  0
   14.8113  -17.3027   22.0394 C   0  0  1  0  0  0  0  0  0  0  0  0
   15.9244  -16.3457   21.8382 C   0  0  0  0  0  0  0  0  0  0  0  0
   17.0276  -16.3409   22.8333 C   0  0  0  0  0  0  0  0  0  0  0  0
   18.1262  -15.3979   22.5841 C   0  0  0  0  0  0  0  0  0  0  0  0
   19.1600  -15.6598   21.8765 O   0  0  0  0  0  0  0  0  0  0  0  0
   14.2009  -17.4678   23.3284 C   0  0  0  0  0  0  0  0  0  0  0  0
   13.0092  -17.1314   23.6246 O   0  0  0  0  0  0  0  0  0  0  0  0
   18.0904  -14.1292   23.1269 O   0  0  0  0  0  0  0  0  0  0  0  0
   14.9096  -18.0479   24.3944 O   0  0  0  0  0  0  0  0  0  0  0  0
  1  2  1  0
  2  3  1  0
  3  4  1  6
  5  7  1  0
  5  3  1  0
  6  5  2  0
  8  7  1  0
  8  9  1  1
  9 10  1  0
 10 11  1  0
 11 15  1  0
 12 11  2  0
 13  8  1  0
 14 13  2  0
 16 13  1  0
 17 22  1  0
 17 16  1  0
 18 19  1  0
 17 18  1  1
 19 20  1  0
 20 21  2  0
 22 25  1  0
 23 22  2  0
 24 20  1  0
M  END
$$$$
