SEE.pdb
     RDKit          3D

 25 24  0  0  1  0  0  0  0  0999 V2000
    2.5380  -19.9607   23.4197 O   0  0  0  0  0  0  0  0  0  0  0  0
    2.1835  -18.9201   22.5548 C   0  0  0  0  0  0  0  0  0  0  0  0
    2.9786  -18.9942   21.2684 C   0  0  2  0  0  0  0  0  0  0  0  0
    3.0002  -20.3726   20.8545 N   0  0  0  0  0  0  0  0  0  0  0  0
    4.3585  -18.5335   21.5653 C   0  0  0  0  0  0  0  0  0  0  0  0
    5.2665  -19.3991   21.6000 O   0  0  0  0  0  0  0  0  0  0  0  0
    4.6786  -17.1732   21.8064 N   0  0  0  0  0  0  0  0  0  0  0  0
    6.0707  -16.7615   21.9861 C   0  0  1  0  0  0  0  0  0  0  0  0
    6.2570  -15.3848   21.4495 C   0  0  0  0  0  0  0  0  0  0  0  0
    7.6049  -14.7832   21.5817 C   0  0  0  0  0  0  0  0  0  0  0  0
    8.2997  -14.6406   20.2624 C   0  0  0  0  0  0  0  0  0  0  0  0
    7.7113  -14.3441   19.2146 O   0  0  0  0  0  0  0  0  0  0  0  0
    6.3937  -16.7425   23.4517 C   0  0  0  0  0  0  0  0  0  0  0  0
    5.6079  -16.1740   24.2203 O   0  0  0  0  0  0  0  0  0  0  0  0
    9.6900  -14.8483   20.1807 O   0  0  0  0  0  0  0  0  0  0  0  0
    7.5532  -17.3459   23.9791 N   0  0  0  0  0  0  0  0  0  0  0  0
    7.9400  -17.3118   25.3889 C   0  0  1  0  0  0  0  0  0  0  0  0
    8.2561  -18.6714   25.8856 C   0  0  0  0  0  0  0  0  0  0  0  0
    7.1425  -19.4908   26.4297 C   0  0  0  0  0  0  0  0  0  0  0  0
    7.5008  -20.8209   26.9399 C   0  0  0  0  0  0  0  0  0  0  0  0
    7.7442  -21.0850   28.1684 O   0  0  0  0  0  0  0  0  0  0  0  0
    8.8112  -16.2033   25.6603 C   0  0  0  0  0  0  0  0  0  0  0  0
    9.3459  -15.4570   24.7782 O   0  0  0  0  0  0  0  0  0  0  0  0
    7.5951  -21.8945   26.0772 O   0  0  0  0  0  0  0  0  0  0  0  0
    9.1379  -15.8475   26.9801 O   0  0  0  0  0  0  0  0  0  0  0  0
  1  2  1  0
  2  3  1  0
  3  4  1  1
  5  7  1  0
  5  3  1  0
  6  5  2  0
  8  7  1  0
  8  9  1  1
  9 10  1  0
 10 11  1  0
 11 15  1  0
 12 11  2  0
 13  8  1  0
 14 13  2  0
 16 13  1  0
 17 22  1  0
 17 16  1  0
 18 19  1  0
 17 18  1  6
 19 20  1  0
 20 21  2  0
 22 25  1  0
 23 22  2  0
 24 20  1  0
M  END
$$$$
