SEE.pdb
     RDKit          3D

 25 24  0  0  1  0  0  0  0  0999 V2000
   10.4829  -12.0902   18.3609 O   0  0  0  0  0  0  0  0  0  0  0  0
   10.2462  -12.8334   19.5221 C   0  0  0  0  0  0  0  0  0  0  0  0
    9.0932  -13.7940   19.3213 C   0  0  2  0  0  0  0  0  0  0  0  0
    7.8833  -13.0148   19.2949 N   0  0  0  0  0  0  0  0  0  0  0  0
    9.0728  -14.7209   20.4810 C   0  0  0  0  0  0  0  0  0  0  0  0
    8.3774  -14.3960   21.4739 O   0  0  0  0  0  0  0  0  0  0  0  0
    9.7993  -15.9386   20.5036 N   0  0  0  0  0  0  0  0  0  0  0  0
    9.6586  -16.8632   21.6283 C   0  0  1  0  0  0  0  0  0  0  0  0
    9.9982  -18.2436   21.1848 C   0  0  0  0  0  0  0  0  0  0  0  0
   10.0689  -19.2924   22.2295 C   0  0  0  0  0  0  0  0  0  0  0  0
   10.3778  -20.6442   21.6631 C   0  0  0  0  0  0  0  0  0  0  0  0
   11.2925  -21.3635   22.0853 O   0  0  0  0  0  0  0  0  0  0  0  0
   10.6175  -16.4687   22.7134 C   0  0  0  0  0  0  0  0  0  0  0  0
   11.7281  -16.0310   22.3870 O   0  0  0  0  0  0  0  0  0  0  0  0
    9.6063  -21.1467   20.5977 O   0  0  0  0  0  0  0  0  0  0  0  0
   10.2988  -16.5787   24.0820 N   0  0  0  0  0  0  0  0  0  0  0  0
   11.1576  -16.1237   25.1746 C   0  0  1  0  0  0  0  0  0  0  0  0
   10.3511  -15.7075   26.3458 C   0  0  0  0  0  0  0  0  0  0  0  0
   11.0696  -15.1796   27.5343 C   0  0  0  0  0  0  0  0  0  0  0  0
   10.2400  -14.8297   28.6951 C   0  0  0  0  0  0  0  0  0  0  0  0
   10.3261  -15.3894   29.8429 O   0  0  0  0  0  0  0  0  0  0  0  0
   12.2984  -16.9818   25.3284 C   0  0  0  0  0  0  0  0  0  0  0  0
   13.4666  -16.5977   25.6584 O   0  0  0  0  0  0  0  0  0  0  0  0
    9.2872  -13.8359   28.5948 O   0  0  0  0  0  0  0  0  0  0  0  0
   12.1922  -18.3683   25.1245 O   0  0  0  0  0  0  0  0  0  0  0  0
  1  2  1  0
  2  3  1  0
  3  4  1  1
  5  7  1  0
  5  3  1  0
  6  5  2  0
  8  7  1  0
  8  9  1  6
  9 10  1  0
 10 11  1  0
 11 15  1  0
 12 11  2  0
 13  8  1  0
 14 13  2  0
 16 13  1  0
 17 22  1  0
 17 16  1  0
 18 19  1  0
 17 18  1  1
 19 20  1  0
 20 21  2  0
 22 25  1  0
 23 22  2  0
 24 20  1  0
M  END
$$$$
