SEE.pdb
     RDKit          3D

 25 24  0  0  1  0  0  0  0  0999 V2000
   16.5708  -15.9949   17.5118 O   0  0  0  0  0  0  0  0  0  0  0  0
   15.9422  -15.6129   16.3220 C   0  0  0  0  0  0  0  0  0  0  0  0
   15.4678  -14.1772   16.4002 C   0  0  2  0  0  0  0  0  0  0  0  0
   16.6221  -13.3555   16.6537 N   0  0  0  0  0  0  0  0  0  0  0  0
   14.5173  -14.0787   17.5366 C   0  0  0  0  0  0  0  0  0  0  0  0
   14.8759  -13.4153   18.5397 O   0  0  0  0  0  0  0  0  0  0  0  0
   13.2416  -14.6980   17.5266 N   0  0  0  0  0  0  0  0  0  0  0  0
   12.3456  -14.5650   18.6751 C   0  0  1  0  0  0  0  0  0  0  0  0
   11.0165  -15.1478   18.3411 C   0  0  0  0  0  0  0  0  0  0  0  0
    9.9607  -15.0643   19.3777 C   0  0  0  0  0  0  0  0  0  0  0  0
    8.6889  -15.7328   18.9541 C   0  0  0  0  0  0  0  0  0  0  0  0
    8.5782  -16.3749   17.9018 O   0  0  0  0  0  0  0  0  0  0  0  0
   12.9153  -15.3277   19.8354 C   0  0  0  0  0  0  0  0  0  0  0  0
   13.4487  -16.4225   19.6152 O   0  0  0  0  0  0  0  0  0  0  0  0
    7.5474  -15.6427   19.7738 O   0  0  0  0  0  0  0  0  0  0  0  0
   12.8642  -14.8433   21.1581 N   0  0  0  0  0  0  0  0  0  0  0  0
   13.3338  -15.5789   22.3313 C   0  0  1  0  0  0  0  0  0  0  0  0
   12.2977  -16.5199   22.8177 C   0  0  0  0  0  0  0  0  0  0  0  0
   11.3944  -16.0607   23.9043 C   0  0  0  0  0  0  0  0  0  0  0  0
   10.4015  -17.0328   24.3809 C   0  0  0  0  0  0  0  0  0  0  0  0
    9.4451  -17.5001   23.6702 O   0  0  0  0  0  0  0  0  0  0  0  0
   14.6970  -15.9986   22.1681 C   0  0  0  0  0  0  0  0  0  0  0  0
   15.1229  -16.7677   21.2471 O   0  0  0  0  0  0  0  0  0  0  0  0
   10.4586  -17.5072   25.6760 O   0  0  0  0  0  0  0  0  0  0  0  0
   15.6988  -15.5592   23.0504 O   0  0  0  0  0  0  0  0  0  0  0  0
  1  2  1  0
  2  3  1  0
  3  4  1  1
  5  7  1  0
  5  3  1  0
  6  5  2  0
  8  7  1  0
  8  9  1  6
  9 10  1  0
 10 11  1  0
 11 15  1  0
 12 11  2  0
 13  8  1  0
 14 13  2  0
 16 13  1  0
 17 22  1  0
 17 16  1  0
 18 19  1  0
 17 18  1  6
 19 20  1  0
 20 21  2  0
 22 25  1  0
 23 22  2  0
 24 20  1  0
M  END
$$$$
