SEE.pdb
     RDKit          3D

 25 24  0  0  1  0  0  0  0  0999 V2000
    8.8729  -15.5913   18.4392 O   0  0  0  0  0  0  0  0  0  0  0  0
    7.5266  -15.2566   18.6191 C   0  0  0  0  0  0  0  0  0  0  0  0
    7.3862  -13.8274   19.0989 C   0  0  2  0  0  0  0  0  0  0  0  0
    8.0259  -12.9817   18.1255 N   0  0  0  0  0  0  0  0  0  0  0  0
    8.0888  -13.7194   20.4025 C   0  0  0  0  0  0  0  0  0  0  0  0
    9.2716  -13.3003   20.3934 O   0  0  0  0  0  0  0  0  0  0  0  0
    7.4790  -14.0677   21.6345 N   0  0  0  0  0  0  0  0  0  0  0  0
    8.2295  -13.9669   22.8860 C   0  0  1  0  0  0  0  0  0  0  0  0
    7.2812  -13.8619   24.0294 C   0  0  0  0  0  0  0  0  0  0  0  0
    7.8664  -13.7394   25.3854 C   0  0  0  0  0  0  0  0  0  0  0  0
    6.8206  -13.6237   26.4515 C   0  0  0  0  0  0  0  0  0  0  0  0
    7.0791  -13.3317   27.6262 O   0  0  0  0  0  0  0  0  0  0  0  0
    9.0513  -15.2093   23.0692 C   0  0  0  0  0  0  0  0  0  0  0  0
    8.5733  -16.2904   22.7029 O   0  0  0  0  0  0  0  0  0  0  0  0
    5.4689  -13.8530   26.1301 O   0  0  0  0  0  0  0  0  0  0  0  0
   10.3398  -15.1874   23.6401 N   0  0  0  0  0  0  0  0  0  0  0  0
   11.1931  -16.3623   23.8115 C   0  0  1  0  0  0  0  0  0  0  0  0
   12.5743  -16.0872   23.3510 C   0  0  0  0  0  0  0  0  0  0  0  0
   13.5841  -17.1678   23.4925 C   0  0  0  0  0  0  0  0  0  0  0  0
   14.9564  -16.8345   23.0877 C   0  0  0  0  0  0  0  0  0  0  0  0
   15.9559  -17.6272   23.1921 O   0  0  0  0  0  0  0  0  0  0  0  0
   10.9470  -17.0016   25.0733 C   0  0  0  0  0  0  0  0  0  0  0  0
   11.2395  -18.2085   25.3540 O   0  0  0  0  0  0  0  0  0  0  0  0
   15.2419  -15.5947   22.5520 O   0  0  0  0  0  0  0  0  0  0  0  0
   10.3476  -16.3004   26.1336 O   0  0  0  0  0  0  0  0  0  0  0  0
  1  2  1  0
  2  3  1  0
  3  4  1  6
  5  7  1  0
  5  3  1  0
  6  5  2  0
  8  7  1  0
  8  9  1  1
  9 10  1  0
 10 11  1  0
 11 15  1  0
 12 11  2  0
 13  8  1  0
 14 13  2  0
 16 13  1  0
 17 22  1  0
 17 16  1  0
 18 19  1  0
 17 18  1  1
 19 20  1  0
 20 21  2  0
 22 25  1  0
 23 22  2  0
 24 20  1  0
M  END
$$$$
