SEE.pdb
     RDKit          3D

 25 24  0  0  1  0  0  0  0  0999 V2000
    2.9921  -19.3441   22.4393 O   0  0  0  0  0  0  0  0  0  0  0  0
    4.3374  -19.4085   22.8172 C   0  0  0  0  0  0  0  0  0  0  0  0
    5.2089  -19.7986   21.6421 C   0  0  2  0  0  0  0  0  0  0  0  0
    4.9336  -21.1791   21.3415 N   0  0  0  0  0  0  0  0  0  0  0  0
    6.6249  -19.6449   22.0615 C   0  0  0  0  0  0  0  0  0  0  0  0
    7.1540  -20.5967   22.6852 O   0  0  0  0  0  0  0  0  0  0  0  0
    7.3851  -18.4799   21.7860 N   0  0  0  0  0  0  0  0  0  0  0  0
    8.7688  -18.3731   22.2482 C   0  0  1  0  0  0  0  0  0  0  0  0
    9.5121  -17.4174   21.3811 C   0  0  0  0  0  0  0  0  0  0  0  0
   10.9272  -17.1474   21.7286 C   0  0  0  0  0  0  0  0  0  0  0  0
   11.5768  -16.1887   20.7785 C   0  0  0  0  0  0  0  0  0  0  0  0
   11.7635  -16.4421   19.5815 O   0  0  0  0  0  0  0  0  0  0  0  0
    8.7799  -17.8411   23.6515 C   0  0  0  0  0  0  0  0  0  0  0  0
    8.0553  -16.8745   23.9203 O   0  0  0  0  0  0  0  0  0  0  0  0
   12.0062  -14.9305   21.2425 O   0  0  0  0  0  0  0  0  0  0  0  0
    9.5815  -18.4006   24.6669 N   0  0  0  0  0  0  0  0  0  0  0  0
    9.6243  -17.9250   26.0490 C   0  0  1  0  0  0  0  0  0  0  0  0
    9.0405  -18.9253   26.9730 C   0  0  0  0  0  0  0  0  0  0  0  0
    9.9514  -19.6046   27.9303 C   0  0  0  0  0  0  0  0  0  0  0  0
    9.3731  -20.7075   28.7095 C   0  0  0  0  0  0  0  0  0  0  0  0
    8.1855  -21.1592   28.5558 O   0  0  0  0  0  0  0  0  0  0  0  0
   10.8796  -17.2920   26.3403 C   0  0  0  0  0  0  0  0  0  0  0  0
   11.8898  -17.2739   25.5654 O   0  0  0  0  0  0  0  0  0  0  0  0
   10.1194  -21.3345   29.6870 O   0  0  0  0  0  0  0  0  0  0  0  0
   11.0810  -16.6107   27.5529 O   0  0  0  0  0  0  0  0  0  0  0  0
  1  2  1  0
  2  3  1  0
  3  4  1  1
  5  7  1  0
  5  3  1  0
  6  5  2  0
  8  7  1  0
  8  9  1  6
  9 10  1  0
 10 11  1  0
 11 15  1  0
 12 11  2  0
 13  8  1  0
 14 13  2  0
 16 13  1  0
 17 22  1  0
 17 16  1  0
 18 19  1  0
 17 18  1  1
 19 20  1  0
 20 21  2  0
 22 25  1  0
 23 22  2  0
 24 20  1  0
M  END
$$$$
