SEE.pdb
     RDKit          3D

 25 24  0  0  1  0  0  0  0  0999 V2000
    7.8064  -13.4787   20.7906 O   0  0  0  0  0  0  0  0  0  0  0  0
    8.4666  -12.4871   20.0572 C   0  0  0  0  0  0  0  0  0  0  0  0
    8.8006  -12.9793   18.6649 C   0  0  2  0  0  0  0  0  0  0  0  0
    7.5794  -13.4593   18.0734 N   0  0  0  0  0  0  0  0  0  0  0  0
    9.7691  -14.0963   18.8029 C   0  0  0  0  0  0  0  0  0  0  0  0
    9.3691  -15.2518   18.5208 O   0  0  0  0  0  0  0  0  0  0  0  0
   11.1061  -13.9044   19.2348 N   0  0  0  0  0  0  0  0  0  0  0  0
   12.0438  -15.0267   19.2595 C   0  0  1  0  0  0  0  0  0  0  0  0
   13.1717  -14.7551   18.3258 C   0  0  0  0  0  0  0  0  0  0  0  0
   13.0544  -15.2893   16.9484 C   0  0  0  0  0  0  0  0  0  0  0  0
   14.3061  -15.0921   16.1497 C   0  0  0  0  0  0  0  0  0  0  0  0
   15.3217  -14.5495   16.6035 O   0  0  0  0  0  0  0  0  0  0  0  0
   12.6041  -15.1705   20.6444 C   0  0  0  0  0  0  0  0  0  0  0  0
   13.3803  -14.3001   21.0585 O   0  0  0  0  0  0  0  0  0  0  0  0
   14.3581  -15.5360   14.8143 O   0  0  0  0  0  0  0  0  0  0  0  0
   12.2789  -16.2550   21.4838 N   0  0  0  0  0  0  0  0  0  0  0  0
   12.8437  -16.4746   22.8146 C   0  0  1  0  0  0  0  0  0  0  0  0
   14.1047  -15.7163   22.9878 C   0  0  0  0  0  0  0  0  0  0  0  0
   15.3634  -16.3364   22.4993 C   0  0  0  0  0  0  0  0  0  0  0  0
   16.6068  -15.6175   22.8079 C   0  0  0  0  0  0  0  0  0  0  0  0
   17.0605  -15.4278   23.9896 O   0  0  0  0  0  0  0  0  0  0  0  0
   11.8208  -16.4504   23.8218 C   0  0  0  0  0  0  0  0  0  0  0  0
   10.6866  -15.8844   23.7025 O   0  0  0  0  0  0  0  0  0  0  0  0
   17.3764  -15.0906   21.7903 O   0  0  0  0  0  0  0  0  0  0  0  0
   12.0106  -17.0882   25.0597 O   0  0  0  0  0  0  0  0  0  0  0  0
  1  2  1  0
  2  3  1  0
  3  4  1  1
  5  7  1  0
  5  3  1  0
  6  5  2  0
  8  7  1  0
  8  9  1  6
  9 10  1  0
 10 11  1  0
 11 15  1  0
 12 11  2  0
 13  8  1  0
 14 13  2  0
 16 13  1  0
 17 22  1  0
 17 16  1  0
 18 19  1  0
 17 18  1  1
 19 20  1  0
 20 21  2  0
 22 25  1  0
 23 22  2  0
 24 20  1  0
M  END
$$$$
