SEE.pdb
     RDKit          3D

 25 24  0  0  1  0  0  0  0  0999 V2000
   16.2803  -16.8563   15.8263 O   0  0  0  0  0  0  0  0  0  0  0  0
   15.2727  -16.5957   14.8916 C   0  0  0  0  0  0  0  0  0  0  0  0
   14.9332  -15.1204   14.8626 C   0  0  2  0  0  0  0  0  0  0  0  0
   16.0691  -14.4280   14.3129 N   0  0  0  0  0  0  0  0  0  0  0  0
   14.7039  -14.6840   16.2631 C   0  0  0  0  0  0  0  0  0  0  0  0
   15.6375  -14.0801   16.8451 O   0  0  0  0  0  0  0  0  0  0  0  0
   13.4877  -14.9224   16.9524 N   0  0  0  0  0  0  0  0  0  0  0  0
   13.2821  -14.3855   18.2973 C   0  0  1  0  0  0  0  0  0  0  0  0
   11.8445  -14.5042   18.6676 C   0  0  0  0  0  0  0  0  0  0  0  0
   10.8818  -13.6567   17.9252 C   0  0  0  0  0  0  0  0  0  0  0  0
    9.4642  -13.9003   18.3432 C   0  0  0  0  0  0  0  0  0  0  0  0
    8.4881  -13.4912   17.7015 O   0  0  0  0  0  0  0  0  0  0  0  0
   14.0877  -15.1880   19.2768 C   0  0  0  0  0  0  0  0  0  0  0  0
   14.1684  -16.4116   19.1098 O   0  0  0  0  0  0  0  0  0  0  0  0
    9.1994  -14.6274   19.5197 O   0  0  0  0  0  0  0  0  0  0  0  0
   14.7511  -14.6003   20.3728 N   0  0  0  0  0  0  0  0  0  0  0  0
   15.5447  -15.3362   21.3560 C   0  0  1  0  0  0  0  0  0  0  0  0
   16.8780  -14.7150   21.5342 C   0  0  0  0  0  0  0  0  0  0  0  0
   17.7945  -14.6850   20.3652 C   0  0  0  0  0  0  0  0  0  0  0  0
   19.1022  -14.0504   20.5782 C   0  0  0  0  0  0  0  0  0  0  0  0
   20.2248  -14.5810   20.2676 O   0  0  0  0  0  0  0  0  0  0  0  0
   14.7465  -15.7135   22.4882 C   0  0  0  0  0  0  0  0  0  0  0  0
   15.1397  -16.4473   23.4515 O   0  0  0  0  0  0  0  0  0  0  0  0
   19.1819  -12.7961   21.1490 O   0  0  0  0  0  0  0  0  0  0  0  0
   13.4198  -15.2683   22.6173 O   0  0  0  0  0  0  0  0  0  0  0  0
  1  2  1  0
  2  3  1  0
  3  4  1  1
  5  7  1  0
  5  3  1  0
  6  5  2  0
  8  7  1  0
  8  9  1  1
  9 10  1  0
 10 11  1  0
 11 15  1  0
 12 11  2  0
 13  8  1  0
 14 13  2  0
 16 13  1  0
 17 22  1  0
 17 16  1  0
 18 19  1  0
 17 18  1  1
 19 20  1  0
 20 21  2  0
 22 25  1  0
 23 22  2  0
 24 20  1  0
M  END
$$$$
