SEE.pdb
     RDKit          3D

 25 24  0  0  1  0  0  0  0  0999 V2000
    9.0522  -12.1099   20.4055 O   0  0  0  0  0  0  0  0  0  0  0  0
    8.9376  -12.4517   19.0539 C   0  0  0  0  0  0  0  0  0  0  0  0
    7.9644  -13.5967   18.8685 C   0  0  2  0  0  0  0  0  0  0  0  0
    6.7751  -13.2758   19.6131 N   0  0  0  0  0  0  0  0  0  0  0  0
    8.5962  -14.8190   19.4266 C   0  0  0  0  0  0  0  0  0  0  0  0
    8.1321  -15.2764   20.4991 O   0  0  0  0  0  0  0  0  0  0  0  0
    9.6864  -15.4744   18.7998 N   0  0  0  0  0  0  0  0  0  0  0  0
   10.2248  -16.7142   19.3590 C   0  0  1  0  0  0  0  0  0  0  0  0
   11.0057  -17.4344   18.3153 C   0  0  0  0  0  0  0  0  0  0  0  0
   11.5939  -18.7417   18.6913 C   0  0  0  0  0  0  0  0  0  0  0  0
   12.3343  -19.3831   17.5581 C   0  0  0  0  0  0  0  0  0  0  0  0
   11.8114  -20.1857   16.7743 O   0  0  0  0  0  0  0  0  0  0  0  0
   11.1501  -16.3821   20.4931 C   0  0  0  0  0  0  0  0  0  0  0  0
   11.9502  -15.4495   20.3462 O   0  0  0  0  0  0  0  0  0  0  0  0
   13.6929  -19.0763   17.3506 O   0  0  0  0  0  0  0  0  0  0  0  0
   11.1393  -17.0910   21.7113 N   0  0  0  0  0  0  0  0  0  0  0  0
   11.9912  -16.7838   22.8593 C   0  0  1  0  0  0  0  0  0  0  0  0
   11.5100  -17.4759   24.0778 C   0  0  0  0  0  0  0  0  0  0  0  0
   12.2822  -17.2929   25.3339 C   0  0  0  0  0  0  0  0  0  0  0  0
   11.7951  -18.0245   26.5110 C   0  0  0  0  0  0  0  0  0  0  0  0
   10.6069  -18.4826   26.6394 O   0  0  0  0  0  0  0  0  0  0  0  0
   13.3797  -16.8064   22.4946 C   0  0  0  0  0  0  0  0  0  0  0  0
   13.9210  -17.6583   21.7185 O   0  0  0  0  0  0  0  0  0  0  0  0
   12.6359  -18.2613   27.5798 O   0  0  0  0  0  0  0  0  0  0  0  0
   14.2716  -15.8380   22.9864 O   0  0  0  0  0  0  0  0  0  0  0  0
  1  2  1  0
  2  3  1  0
  3  4  1  1
  5  7  1  0
  5  3  1  0
  6  5  2  0
  8  7  1  0
  8  9  1  6
  9 10  1  0
 10 11  1  0
 11 15  1  0
 12 11  2  0
 13  8  1  0
 14 13  2  0
 16 13  1  0
 17 22  1  0
 17 16  1  0
 18 19  1  0
 17 18  1  1
 19 20  1  0
 20 21  2  0
 22 25  1  0
 23 22  2  0
 24 20  1  0
M  END
$$$$
