SEE.pdb
     RDKit          3D

 25 24  0  0  1  0  0  0  0  0999 V2000
   11.1088  -12.9508   19.9545 O   0  0  0  0  0  0  0  0  0  0  0  0
   10.3676  -13.5331   18.9208 C   0  0  0  0  0  0  0  0  0  0  0  0
    8.8821  -13.3818   19.1718 C   0  0  2  0  0  0  0  0  0  0  0  0
    8.6278  -11.9877   19.4240 N   0  0  0  0  0  0  0  0  0  0  0  0
    8.5454  -14.1832   20.3755 C   0  0  0  0  0  0  0  0  0  0  0  0
    8.3909  -13.5694   21.4592 O   0  0  0  0  0  0  0  0  0  0  0  0
    8.3953  -15.5930   20.3422 N   0  0  0  0  0  0  0  0  0  0  0  0
    8.0133  -16.3251   21.5495 C   0  0  1  0  0  0  0  0  0  0  0  0
    7.7728  -17.7552   21.2107 C   0  0  0  0  0  0  0  0  0  0  0  0
    7.4796  -18.6771   22.3333 C   0  0  0  0  0  0  0  0  0  0  0  0
    7.3560  -20.1015   21.8867 C   0  0  0  0  0  0  0  0  0  0  0  0
    7.5482  -20.4652   20.7193 O   0  0  0  0  0  0  0  0  0  0  0  0
    9.1373  -16.2596   22.5419 C   0  0  0  0  0  0  0  0  0  0  0  0
   10.2993  -16.2623   22.1161 O   0  0  0  0  0  0  0  0  0  0  0  0
    7.0052  -21.0966   22.8192 O   0  0  0  0  0  0  0  0  0  0  0  0
    8.9166  -16.1955   23.9325 N   0  0  0  0  0  0  0  0  0  0  0  0
    9.9745  -16.1616   24.9413 C   0  0  1  0  0  0  0  0  0  0  0  0
    9.5568  -15.3704   26.1223 C   0  0  0  0  0  0  0  0  0  0  0  0
   10.5192  -15.2350   27.2462 C   0  0  0  0  0  0  0  0  0  0  0  0
   10.0726  -14.4342   28.3939 C   0  0  0  0  0  0  0  0  0  0  0  0
    8.9121  -13.9051   28.5012 O   0  0  0  0  0  0  0  0  0  0  0  0
   10.5870  -17.4512   25.0931 C   0  0  0  0  0  0  0  0  0  0  0  0
   10.0016  -18.5675   24.9131 O   0  0  0  0  0  0  0  0  0  0  0  0
   10.9239  -14.2064   29.4564 O   0  0  0  0  0  0  0  0  0  0  0  0
   11.9389  -17.5705   25.4581 O   0  0  0  0  0  0  0  0  0  0  0  0
  1  2  1  0
  2  3  1  0
  3  4  1  1
  5  7  1  0
  5  3  1  0
  6  5  2  0
  8  7  1  0
  8  9  1  6
  9 10  1  0
 10 11  1  0
 11 15  1  0
 12 11  2  0
 13  8  1  0
 14 13  2  0
 16 13  1  0
 17 22  1  0
 17 16  1  0
 18 19  1  0
 17 18  1  1
 19 20  1  0
 20 21  2  0
 22 25  1  0
 23 22  2  0
 24 20  1  0
M  END
$$$$
