SEE.pdb
     RDKit          3D

 25 24  0  0  1  0  0  0  0  0999 V2000
   16.1049  -13.3076   16.0484 O   0  0  0  0  0  0  0  0  0  0  0  0
   15.2468  -13.3547   17.1521 C   0  0  0  0  0  0  0  0  0  0  0  0
   15.0416  -14.7818   17.6144 C   0  0  2  0  0  0  0  0  0  0  0  0
   14.3349  -15.4754   16.5698 N   0  0  0  0  0  0  0  0  0  0  0  0
   14.2124  -14.7411   18.8454 C   0  0  0  0  0  0  0  0  0  0  0  0
   14.6902  -14.1610   19.8504 O   0  0  0  0  0  0  0  0  0  0  0  0
   12.9224  -15.3252   18.9219 N   0  0  0  0  0  0  0  0  0  0  0  0
   12.1904  -15.3388   20.1882 C   0  0  1  0  0  0  0  0  0  0  0  0
   10.8343  -15.9157   19.9744 C   0  0  0  0  0  0  0  0  0  0  0  0
   10.3580  -16.0257   18.5753 C   0  0  0  0  0  0  0  0  0  0  0  0
    9.6192  -17.3037   18.3213 C   0  0  0  0  0  0  0  0  0  0  0  0
   10.1027  -18.2527   17.6906 O   0  0  0  0  0  0  0  0  0  0  0  0
   12.9211  -16.2069   21.1706 C   0  0  0  0  0  0  0  0  0  0  0  0
   13.3221  -17.3149   20.7924 O   0  0  0  0  0  0  0  0  0  0  0  0
    8.3088  -17.4609   18.8123 O   0  0  0  0  0  0  0  0  0  0  0  0
   13.1648  -15.8063   22.4999 N   0  0  0  0  0  0  0  0  0  0  0  0
   14.0731  -16.4888   23.4203 C   0  0  1  0  0  0  0  0  0  0  0  0
   15.4662  -16.0181   23.2380 C   0  0  0  0  0  0  0  0  0  0  0  0
   16.5162  -16.5914   24.1190 C   0  0  0  0  0  0  0  0  0  0  0  0
   17.8842  -16.0995   23.9078 C   0  0  0  0  0  0  0  0  0  0  0  0
   18.3983  -15.1005   24.5209 O   0  0  0  0  0  0  0  0  0  0  0  0
   13.4952  -16.6017   24.7297 C   0  0  0  0  0  0  0  0  0  0  0  0
   13.9849  -17.2756   25.6926 O   0  0  0  0  0  0  0  0  0  0  0  0
   18.7142  -16.7218   22.9971 O   0  0  0  0  0  0  0  0  0  0  0  0
   12.2999  -15.9362   25.0517 O   0  0  0  0  0  0  0  0  0  0  0  0
  1  2  1  0
  2  3  1  0
  3  4  1  6
  5  7  1  0
  5  3  1  0
  6  5  2  0
  8  7  1  0
  8  9  1  6
  9 10  1  0
 10 11  1  0
 11 15  1  0
 12 11  2  0
 13  8  1  0
 14 13  2  0
 16 13  1  0
 17 22  1  0
 17 16  1  0
 18 19  1  0
 17 18  1  1
 19 20  1  0
 20 21  2  0
 22 25  1  0
 23 22  2  0
 24 20  1  0
M  END
$$$$
