SEE.pdb
     RDKit          3D

 25 24  0  0  1  0  0  0  0  0999 V2000
    9.8120  -13.0649   19.4604 O   0  0  0  0  0  0  0  0  0  0  0  0
    8.8223  -13.4371   18.5446 C   0  0  0  0  0  0  0  0  0  0  0  0
    7.4457  -13.3295   19.1658 C   0  0  2  0  0  0  0  0  0  0  0  0
    7.2470  -11.9529   19.5365 N   0  0  0  0  0  0  0  0  0  0  0  0
    7.4309  -14.1870   20.3779 C   0  0  0  0  0  0  0  0  0  0  0  0
    7.4489  -13.6160   21.4953 O   0  0  0  0  0  0  0  0  0  0  0  0
    7.3977  -15.6033   20.3161 N   0  0  0  0  0  0  0  0  0  0  0  0
    7.4075  -16.3978   21.5442 C   0  0  1  0  0  0  0  0  0  0  0  0
    7.4166  -17.8469   21.2010 C   0  0  0  0  0  0  0  0  0  0  0  0
    7.4282  -18.8097   22.3276 C   0  0  0  0  0  0  0  0  0  0  0  0
    7.3646  -20.2328   21.8647 C   0  0  0  0  0  0  0  0  0  0  0  0
    7.3741  -20.5586   20.6706 O   0  0  0  0  0  0  0  0  0  0  0  0
    8.6550  -16.0905   22.3201 C   0  0  0  0  0  0  0  0  0  0  0  0
    9.4640  -15.2868   21.8394 O   0  0  0  0  0  0  0  0  0  0  0  0
    7.2896  -21.2715   22.8125 O   0  0  0  0  0  0  0  0  0  0  0  0
    8.9349  -16.6816   23.5686 N   0  0  0  0  0  0  0  0  0  0  0  0
    9.0912  -15.9436   24.8212 C   0  0  1  0  0  0  0  0  0  0  0  0
    7.9824  -14.9793   25.0112 C   0  0  0  0  0  0  0  0  0  0  0  0
    7.9663  -14.1732   26.2592 C   0  0  0  0  0  0  0  0  0  0  0  0
    6.7936  -13.3125   26.4641 C   0  0  0  0  0  0  0  0  0  0  0  0
    5.5800  -13.7152   26.4084 O   0  0  0  0  0  0  0  0  0  0  0  0
    9.5072  -16.8125   25.8858 C   0  0  0  0  0  0  0  0  0  0  0  0
    9.0371  -17.9740   26.1114 O   0  0  0  0  0  0  0  0  0  0  0  0
    6.9560  -11.9695   26.7385 O   0  0  0  0  0  0  0  0  0  0  0  0
   10.5149  -16.4226   26.7846 O   0  0  0  0  0  0  0  0  0  0  0  0
  1  2  1  0
  2  3  1  0
  3  4  1  1
  5  7  1  0
  5  3  1  0
  6  5  2  0
  8  7  1  0
  8  9  1  6
  9 10  1  0
 10 11  1  0
 11 15  1  0
 12 11  2  0
 13  8  1  0
 14 13  2  0
 16 13  1  0
 17 22  1  0
 17 16  1  0
 18 19  1  0
 17 18  1  1
 19 20  1  0
 20 21  2  0
 22 25  1  0
 23 22  2  0
 24 20  1  0
M  END
$$$$
