SEE.pdb
     RDKit          3D

 25 24  0  0  1  0  0  0  0  0999 V2000
    8.7368  -14.6433   19.6370 O   0  0  0  0  0  0  0  0  0  0  0  0
    9.1236  -13.7264   18.6539 C   0  0  0  0  0  0  0  0  0  0  0  0
    9.9263  -14.4091   17.5666 C   0  0  2  0  0  0  0  0  0  0  0  0
    9.1133  -15.4705   17.0333 N   0  0  0  0  0  0  0  0  0  0  0  0
   11.1467  -14.9740   18.1958 C   0  0  0  0  0  0  0  0  0  0  0  0
   11.1081  -16.1713   18.5697 O   0  0  0  0  0  0  0  0  0  0  0  0
   12.3326  -14.2197   18.3848 N   0  0  0  0  0  0  0  0  0  0  0  0
   13.5533  -14.8679   18.8636 C   0  0  1  0  0  0  0  0  0  0  0  0
   14.7426  -14.1361   18.3463 C   0  0  0  0  0  0  0  0  0  0  0  0
   16.0722  -14.5768   18.8303 C   0  0  0  0  0  0  0  0  0  0  0  0
   17.1884  -13.7515   18.2674 C   0  0  0  0  0  0  0  0  0  0  0  0
   17.7774  -12.8761   18.9145 O   0  0  0  0  0  0  0  0  0  0  0  0
   13.5840  -14.8145   20.3632 C   0  0  0  0  0  0  0  0  0  0  0  0
   13.3283  -13.7388   20.9192 O   0  0  0  0  0  0  0  0  0  0  0  0
   17.6089  -13.9603   16.9399 O   0  0  0  0  0  0  0  0  0  0  0  0
   13.8917  -15.9394   21.1547 N   0  0  0  0  0  0  0  0  0  0  0  0
   14.0227  -15.9205   22.6109 C   0  0  1  0  0  0  0  0  0  0  0  0
   13.1601  -16.9509   23.2350 C   0  0  0  0  0  0  0  0  0  0  0  0
   13.2485  -17.1354   24.7066 C   0  0  0  0  0  0  0  0  0  0  0  0
   12.3353  -18.1240   25.2956 C   0  0  0  0  0  0  0  0  0  0  0  0
   11.5363  -18.8640   24.6231 O   0  0  0  0  0  0  0  0  0  0  0  0
   15.3944  -15.7651   23.0056 C   0  0  0  0  0  0  0  0  0  0  0  0
   16.4007  -15.9303   22.2432 O   0  0  0  0  0  0  0  0  0  0  0  0
   12.2969  -18.3071   26.6632 O   0  0  0  0  0  0  0  0  0  0  0  0
   15.7307  -15.3936   24.3186 O   0  0  0  0  0  0  0  0  0  0  0  0
  1  2  1  0
  2  3  1  0
  3  4  1  1
  5  7  1  0
  5  3  1  0
  6  5  2  0
  8  7  1  0
  8  9  1  6
  9 10  1  0
 10 11  1  0
 11 15  1  0
 12 11  2  0
 13  8  1  0
 14 13  2  0
 16 13  1  0
 17 22  1  0
 17 16  1  0
 18 19  1  0
 17 18  1  1
 19 20  1  0
 20 21  2  0
 22 25  1  0
 23 22  2  0
 24 20  1  0
M  END
$$$$
