SEE.pdb
     RDKit          3D

 25 24  0  0  1  0  0  0  0  0999 V2000
   17.6651  -15.3131   18.5434 O   0  0  0  0  0  0  0  0  0  0  0  0
   16.7897  -15.3196   17.4523 C   0  0  0  0  0  0  0  0  0  0  0  0
   16.1180  -13.9721   17.2925 C   0  0  2  0  0  0  0  0  0  0  0  0
   17.1002  -12.9633   17.5911 N   0  0  0  0  0  0  0  0  0  0  0  0
   15.0075  -13.9036   18.2757 C   0  0  0  0  0  0  0  0  0  0  0  0
   15.2340  -13.3350   19.3712 O   0  0  0  0  0  0  0  0  0  0  0  0
   13.7232  -14.4493   18.0228 N   0  0  0  0  0  0  0  0  0  0  0  0
   12.7152  -14.4904   19.0819 C   0  0  1  0  0  0  0  0  0  0  0  0
   11.3804  -14.7815   18.4892 C   0  0  0  0  0  0  0  0  0  0  0  0
   10.2728  -15.0787   19.4280 C   0  0  0  0  0  0  0  0  0  0  0  0
    8.9453  -15.1611   18.7390 C   0  0  0  0  0  0  0  0  0  0  0  0
    7.8778  -15.3306   19.3420 O   0  0  0  0  0  0  0  0  0  0  0  0
   13.0539  -15.5930   20.0421 C   0  0  0  0  0  0  0  0  0  0  0  0
   13.2686  -16.7239   19.5877 O   0  0  0  0  0  0  0  0  0  0  0  0
    8.8788  -15.0432   17.3374 O   0  0  0  0  0  0  0  0  0  0  0  0
   13.1354  -15.3863   21.4340 N   0  0  0  0  0  0  0  0  0  0  0  0
   13.4618  -16.4244   22.4107 C   0  0  1  0  0  0  0  0  0  0  0  0
   14.9267  -16.5252   22.6088 C   0  0  0  0  0  0  0  0  0  0  0  0
   15.7176  -15.2675   22.6116 C   0  0  0  0  0  0  0  0  0  0  0  0
   17.1590  -15.4044   22.8598 C   0  0  0  0  0  0  0  0  0  0  0  0
   17.6758  -16.2195   23.7005 O   0  0  0  0  0  0  0  0  0  0  0  0
   12.5645  -16.3823   23.5307 C   0  0  0  0  0  0  0  0  0  0  0  0
   11.6806  -15.4878   23.7298 O   0  0  0  0  0  0  0  0  0  0  0  0
   18.0615  -14.6243   22.1652 O   0  0  0  0  0  0  0  0  0  0  0  0
   12.5987  -17.3783   24.5217 O   0  0  0  0  0  0  0  0  0  0  0  0
  1  2  1  0
  2  3  1  0
  3  4  1  1
  5  7  1  0
  5  3  1  0
  6  5  2  0
  8  7  1  0
  8  9  1  6
  9 10  1  0
 10 11  1  0
 11 15  1  0
 12 11  2  0
 13  8  1  0
 14 13  2  0
 16 13  1  0
 17 22  1  0
 17 16  1  0
 18 19  1  0
 17 18  1  1
 19 20  1  0
 20 21  2  0
 22 25  1  0
 23 22  2  0
 24 20  1  0
M  END
$$$$
