GGG.pdb
     RDKit          3D

 13 12  0  0  0  0  0  0  0  0999 V2000
   21.6127   -7.8923  -14.8468 N   0  0  0  0  0  0  0  0  0  0  0  0
   20.3259   -7.5699  -14.2656 C   0  0  0  0  0  0  0  0  0  0  0  0
   20.4229   -7.6403  -12.8024 C   0  0  0  0  0  0  0  0  0  0  0  0
   21.4505   -8.1295  -12.2757 O   0  0  0  0  0  0  0  0  0  0  0  0
   19.4068   -7.1805  -11.9207 N   0  0  0  0  0  0  0  0  0  0  0  0
   19.5308   -7.2121  -10.4920 C   0  0  0  0  0  0  0  0  0  0  0  0
   18.5348   -6.4598   -9.7446 C   0  0  0  0  0  0  0  0  0  0  0  0
   18.6165   -6.5267   -8.4673 O   0  0  0  0  0  0  0  0  0  0  0  0
   17.4889   -5.6647  -10.2414 N   0  0  0  0  0  0  0  0  0  0  0  0
   16.6277   -4.8617   -9.3887 C   0  0  0  0  0  0  0  0  0  0  0  0
   15.4597   -5.6338   -8.9209 C   0  0  0  0  0  0  0  0  0  0  0  0
   15.3969   -6.8755   -9.0902 O   0  0  0  0  0  0  0  0  0  0  0  0
   14.4073   -5.0000   -8.2843 O   0  0  0  0  0  0  0  0  0  0  0  0
  1  2  1  0
  3  2  1  0
  4  3  2  0
  5  3  1  0
  6  5  1  0
  7  9  1  0
  7  6  1  0
  8  7  2  0
 10  9  1  0
 11 13  1  0
 11 10  1  0
 12 11  2  0
M  END
$$$$
