GGG.pdb
     RDKit          3D

 13 12  0  0  0  0  0  0  0  0999 V2000
   25.1425  -21.6177  -11.5245 N   0  0  0  0  0  0  0  0  0  0  0  0
   26.5387  -21.2375  -11.5837 C   0  0  0  0  0  0  0  0  0  0  0  0
   26.8383  -20.6963  -12.9151 C   0  0  0  0  0  0  0  0  0  0  0  0
   26.4852  -21.3362  -13.9342 O   0  0  0  0  0  0  0  0  0  0  0  0
   27.5178  -19.4667  -13.1331 N   0  0  0  0  0  0  0  0  0  0  0  0
   27.7062  -18.8912  -14.4334 C   0  0  0  0  0  0  0  0  0  0  0  0
   26.5229  -18.3244  -15.0619 C   0  0  0  0  0  0  0  0  0  0  0  0
   26.6889  -17.8188  -16.2279 O   0  0  0  0  0  0  0  0  0  0  0  0
   25.2141  -18.2577  -14.5561 N   0  0  0  0  0  0  0  0  0  0  0  0
   24.0687  -17.8745  -15.3651 C   0  0  0  0  0  0  0  0  0  0  0  0
   23.2628  -19.0498  -15.7507 C   0  0  0  0  0  0  0  0  0  0  0  0
   22.7357  -19.7844  -14.8807 O   0  0  0  0  0  0  0  0  0  0  0  0
   23.0726  -19.3648  -17.0845 O   0  0  0  0  0  0  0  0  0  0  0  0
  1  2  1  0
  3  2  1  0
  4  3  2  0
  5  3  1  0
  6  5  1  0
  7  9  1  0
  7  6  1  0
  8  7  2  0
 10  9  1  0
 11 13  1  0
 11 10  1  0
 12 11  2  0
M  END
$$$$
