GGG.pdb
     RDKit          3D

 13 12  0  0  0  0  0  0  0  0999 V2000
   33.0487  -33.1727    4.4981 N   0  0  0  0  0  0  0  0  0  0  0  0
   34.4061  -32.6752    4.5836 C   0  0  0  0  0  0  0  0  0  0  0  0
   35.0874  -32.9011    3.3029 C   0  0  0  0  0  0  0  0  0  0  0  0
   34.5142  -33.5686    2.4093 O   0  0  0  0  0  0  0  0  0  0  0  0
   36.3839  -32.4029    2.9996 N   0  0  0  0  0  0  0  0  0  0  0  0
   37.0077  -32.5604    1.7176 C   0  0  0  0  0  0  0  0  0  0  0  0
   36.2312  -32.1222    0.5680 C   0  0  0  0  0  0  0  0  0  0  0  0
   35.9506  -30.8726    0.5180 O   0  0  0  0  0  0  0  0  0  0  0  0
   35.7453  -32.8929   -0.5012 N   0  0  0  0  0  0  0  0  0  0  0  0
   35.0654  -32.3176   -1.6502 C   0  0  0  0  0  0  0  0  0  0  0  0
   34.5678  -33.3653   -2.5634 C   0  0  0  0  0  0  0  0  0  0  0  0
   34.8180  -34.5767   -2.3531 O   0  0  0  0  0  0  0  0  0  0  0  0
   33.8128  -33.0298   -3.6734 O   0  0  0  0  0  0  0  0  0  0  0  0
  1  2  1  0
  3  2  1  0
  4  3  2  0
  5  3  1  0
  6  5  1  0
  7  9  1  0
  7  6  1  0
  8  7  2  0
 10  9  1  0
 11 13  1  0
 11 10  1  0
 12 11  2  0
M  END
$$$$
