GGG.pdb
     RDKit          3D

 13 12  0  0  0  0  0  0  0  0999 V2000
   26.3617  -19.3008  -17.3144 N   0  0  0  0  0  0  0  0  0  0  0  0
   26.9190  -20.4805  -16.6857 C   0  0  0  0  0  0  0  0  0  0  0  0
   27.6262  -20.0890  -15.4601 C   0  0  0  0  0  0  0  0  0  0  0  0
   28.6500  -19.3694  -15.5425 O   0  0  0  0  0  0  0  0  0  0  0  0
   27.2198  -20.4796  -14.1549 N   0  0  0  0  0  0  0  0  0  0  0  0
   27.9488  -20.1373  -12.9680 C   0  0  0  0  0  0  0  0  0  0  0  0
   27.3506  -20.5473  -11.7068 C   0  0  0  0  0  0  0  0  0  0  0  0
   27.7412  -19.9141  -10.6632 O   0  0  0  0  0  0  0  0  0  0  0  0
   26.3953  -21.5521  -11.4807 N   0  0  0  0  0  0  0  0  0  0  0  0
   25.5384  -21.5833  -10.3067 C   0  0  0  0  0  0  0  0  0  0  0  0
   24.2072  -21.0138  -10.5947 C   0  0  0  0  0  0  0  0  0  0  0  0
   23.9434  -20.5269  -11.7205 O   0  0  0  0  0  0  0  0  0  0  0  0
   23.2210  -21.0062   -9.6242 O   0  0  0  0  0  0  0  0  0  0  0  0
  1  2  1  0
  3  2  1  0
  4  3  2  0
  5  3  1  0
  6  5  1  0
  7  9  1  0
  7  6  1  0
  8  7  2  0
 10  9  1  0
 11 13  1  0
 11 10  1  0
 12 11  2  0
M  END
$$$$
