GGG.pdb
     RDKit          3D

 13 12  0  0  0  0  0  0  0  0999 V2000
   23.8106  -20.4310   -8.4778 N   0  0  0  0  0  0  0  0  0  0  0  0
   25.1372  -20.7323   -8.9747 C   0  0  0  0  0  0  0  0  0  0  0  0
   25.0592  -21.0481  -10.4063 C   0  0  0  0  0  0  0  0  0  0  0  0
   23.9531  -21.3576  -10.9097 O   0  0  0  0  0  0  0  0  0  0  0  0
   26.1791  -21.0265  -11.2818 N   0  0  0  0  0  0  0  0  0  0  0  0
   26.0808  -21.2712  -12.6918 C   0  0  0  0  0  0  0  0  0  0  0  0
   25.1789  -20.4026  -13.4325 C   0  0  0  0  0  0  0  0  0  0  0  0
   25.7094  -19.3740  -13.9833 O   0  0  0  0  0  0  0  0  0  0  0  0
   23.7946  -20.5435  -13.6249 N   0  0  0  0  0  0  0  0  0  0  0  0
   23.0053  -19.6180  -14.4211 C   0  0  0  0  0  0  0  0  0  0  0  0
   21.5741  -19.9800  -14.4087 C   0  0  0  0  0  0  0  0  0  0  0  0
   21.0661  -20.5700  -13.4248 O   0  0  0  0  0  0  0  0  0  0  0  0
   20.7623  -19.6740  -15.4866 O   0  0  0  0  0  0  0  0  0  0  0  0
  1  2  1  0
  3  2  1  0
  4  3  2  0
  5  3  1  0
  6  5  1  0
  7  9  1  0
  7  6  1  0
  8  7  2  0
 10  9  1  0
 11 13  1  0
 11 10  1  0
 12 11  2  0
M  END
$$$$
