GGG.pdb
     RDKit          3D

 13 12  0  0  0  0  0  0  0  0999 V2000
   17.5433  -22.4858  -11.5796 N   0  0  0  0  0  0  0  0  0  0  0  0
   18.7115  -22.4416  -12.4345 C   0  0  0  0  0  0  0  0  0  0  0  0
   19.6385  -21.4176  -11.9370 C   0  0  0  0  0  0  0  0  0  0  0  0
   19.4667  -20.9345  -10.7926 O   0  0  0  0  0  0  0  0  0  0  0  0
   20.7443  -20.9246  -12.6822 N   0  0  0  0  0  0  0  0  0  0  0  0
   21.9941  -20.5535  -12.0840 C   0  0  0  0  0  0  0  0  0  0  0  0
   23.0383  -20.1165  -12.9979 C   0  0  0  0  0  0  0  0  0  0  0  0
   24.1473  -19.7624  -12.4619 O   0  0  0  0  0  0  0  0  0  0  0  0
   22.9910  -20.0311  -14.3992 N   0  0  0  0  0  0  0  0  0  0  0  0
   24.0341  -19.4011  -15.1920 C   0  0  0  0  0  0  0  0  0  0  0  0
   23.4826  -18.7741  -16.4093 C   0  0  0  0  0  0  0  0  0  0  0  0
   22.2464  -18.6099  -16.5474 O   0  0  0  0  0  0  0  0  0  0  0  0
   24.3223  -18.3537  -17.4256 O   0  0  0  0  0  0  0  0  0  0  0  0
  1  2  1  0
  3  2  1  0
  4  3  2  0
  5  3  1  0
  6  5  1  0
  7  9  1  0
  7  6  1  0
  8  7  2  0
 10  9  1  0
 11 13  1  0
 11 10  1  0
 12 11  2  0
M  END
$$$$
