GGG.pdb
     RDKit          3D

 13 12  0  0  0  0  0  0  0  0999 V2000
   21.7274  -11.6486  -18.8714 N   0  0  0  0  0  0  0  0  0  0  0  0
   22.7024  -10.7157  -18.3456 C   0  0  0  0  0  0  0  0  0  0  0  0
   22.4745  -10.5352  -16.9066 C   0  0  0  0  0  0  0  0  0  0  0  0
   22.6161  -11.5119  -16.1329 O   0  0  0  0  0  0  0  0  0  0  0  0
   22.0951   -9.2987  -16.3162 N   0  0  0  0  0  0  0  0  0  0  0  0
   21.8350   -9.1428  -14.9143 C   0  0  0  0  0  0  0  0  0  0  0  0
   21.4736   -7.8042  -14.4737 C   0  0  0  0  0  0  0  0  0  0  0  0
   21.2687   -7.6584  -13.2169 O   0  0  0  0  0  0  0  0  0  0  0  0
   21.3186   -6.6431  -15.2489 N   0  0  0  0  0  0  0  0  0  0  0  0
   20.7838   -5.3997  -14.7185 C   0  0  0  0  0  0  0  0  0  0  0  0
   21.8058   -4.6531  -13.9587 C   0  0  0  0  0  0  0  0  0  0  0  0
   22.9113   -5.1759  -13.6780 O   0  0  0  0  0  0  0  0  0  0  0  0
   21.5629   -3.3569  -13.5398 O   0  0  0  0  0  0  0  0  0  0  0  0
  1  2  1  0
  3  2  1  0
  4  3  2  0
  5  3  1  0
  6  5  1  0
  7  9  1  0
  7  6  1  0
  8  7  2  0
 10  9  1  0
 11 13  1  0
 11 10  1  0
 12 11  2  0
M  END
$$$$
