GGG.pdb
     RDKit          3D

 13 12  0  0  0  0  0  0  0  0999 V2000
   22.1577  -16.3173  -16.1399 N   0  0  0  0  0  0  0  0  0  0  0  0
   22.3348  -17.7546  -16.1244 C   0  0  0  0  0  0  0  0  0  0  0  0
   23.7448  -18.0726  -16.3815 C   0  0  0  0  0  0  0  0  0  0  0  0
   24.4295  -17.3035  -17.0972 O   0  0  0  0  0  0  0  0  0  0  0  0
   24.4028  -19.2208  -15.8618 N   0  0  0  0  0  0  0  0  0  0  0  0
   25.7449  -19.5854  -16.2129 C   0  0  0  0  0  0  0  0  0  0  0  0
   26.2432  -20.8267  -15.6406 C   0  0  0  0  0  0  0  0  0  0  0  0
   27.3791  -21.2331  -16.0734 O   0  0  0  0  0  0  0  0  0  0  0  0
   25.6398  -21.6436  -14.6702 N   0  0  0  0  0  0  0  0  0  0  0  0
   26.2192  -22.8970  -14.2157 C   0  0  0  0  0  0  0  0  0  0  0  0
   25.6995  -24.0432  -14.9874 C   0  0  0  0  0  0  0  0  0  0  0  0
   25.9371  -25.2224  -14.6306 O   0  0  0  0  0  0  0  0  0  0  0  0
   24.9372  -23.8379  -16.1237 O   0  0  0  0  0  0  0  0  0  0  0  0
  1  2  1  0
  3  2  1  0
  4  3  2  0
  5  3  1  0
  6  5  1  0
  7  9  1  0
  7  6  1  0
  8  7  2  0
 10  9  1  0
 11 13  1  0
 11 10  1  0
 12 11  2  0
M  END
$$$$
