GGG.pdb
     RDKit          3D

 13 12  0  0  0  0  0  0  0  0999 V2000
   28.2767  -32.3216  -15.2230 N   0  0  0  0  0  0  0  0  0  0  0  0
   29.0690  -32.4138  -16.4318 C   0  0  0  0  0  0  0  0  0  0  0  0
   30.4415  -31.9774  -16.1471 C   0  0  0  0  0  0  0  0  0  0  0  0
   30.9456  -32.2217  -15.0251 O   0  0  0  0  0  0  0  0  0  0  0  0
   31.2577  -31.2798  -17.0791 N   0  0  0  0  0  0  0  0  0  0  0  0
   32.6196  -30.9155  -16.8146 C   0  0  0  0  0  0  0  0  0  0  0  0
   33.6272  -31.9076  -17.1566 C   0  0  0  0  0  0  0  0  0  0  0  0
   34.0118  -31.9251  -18.3791 O   0  0  0  0  0  0  0  0  0  0  0  0
   34.2381  -32.8549  -16.3184 N   0  0  0  0  0  0  0  0  0  0  0  0
   35.5765  -33.3735  -16.5492 C   0  0  0  0  0  0  0  0  0  0  0  0
   35.5425  -34.6299  -17.3235 C   0  0  0  0  0  0  0  0  0  0  0  0
   34.5757  -35.4234  -17.2239 O   0  0  0  0  0  0  0  0  0  0  0  0
   36.5807  -34.9576  -18.1776 O   0  0  0  0  0  0  0  0  0  0  0  0
  1  2  1  0
  3  2  1  0
  4  3  2  0
  5  3  1  0
  6  5  1  0
  7  9  1  0
  7  6  1  0
  8  7  2  0
 10  9  1  0
 11 13  1  0
 11 10  1  0
 12 11  2  0
M  END
$$$$
