GGG.pdb
     RDKit          3D

 13 12  0  0  0  0  0  0  0  0999 V2000
   18.2611  -11.7895  -17.9164 N   0  0  0  0  0  0  0  0  0  0  0  0
   19.0599  -10.6019  -17.6950 C   0  0  0  0  0  0  0  0  0  0  0  0
   19.4839  -10.5572  -16.2901 C   0  0  0  0  0  0  0  0  0  0  0  0
   19.1527  -11.4870  -15.5166 O   0  0  0  0  0  0  0  0  0  0  0  0
   20.2632   -9.5064  -15.7336 N   0  0  0  0  0  0  0  0  0  0  0  0
   20.7615   -9.5232  -14.3887 C   0  0  0  0  0  0  0  0  0  0  0  0
   21.4720   -8.3309  -13.9526 C   0  0  0  0  0  0  0  0  0  0  0  0
   21.7444   -8.2604  -12.7022 O   0  0  0  0  0  0  0  0  0  0  0  0
   21.9014   -7.2398  -14.7261 N   0  0  0  0  0  0  0  0  0  0  0  0
   22.6735   -6.1351  -14.1813 C   0  0  0  0  0  0  0  0  0  0  0  0
   21.7970   -5.0950  -13.6076 C   0  0  0  0  0  0  0  0  0  0  0  0
   20.5537   -5.2552  -13.5561 O   0  0  0  0  0  0  0  0  0  0  0  0
   22.3324   -3.9185  -13.1138 O   0  0  0  0  0  0  0  0  0  0  0  0
  1  2  1  0
  3  2  1  0
  4  3  2  0
  5  3  1  0
  6  5  1  0
  7  9  1  0
  7  6  1  0
  8  7  2  0
 10  9  1  0
 11 13  1  0
 11 10  1  0
 12 11  2  0
M  END
$$$$
