GGG.pdb
     RDKit          3D

 13 12  0  0  0  0  0  0  0  0999 V2000
   18.5538  -11.9121  -16.3078 N   0  0  0  0  0  0  0  0  0  0  0  0
   18.7190  -10.6131  -15.6892 C   0  0  0  0  0  0  0  0  0  0  0  0
   20.0812  -10.1260  -15.9395 C   0  0  0  0  0  0  0  0  0  0  0  0
   21.0386  -10.6137  -15.2929 O   0  0  0  0  0  0  0  0  0  0  0  0
   20.3963   -9.1148  -16.8879 N   0  0  0  0  0  0  0  0  0  0  0  0
   21.7351   -8.6720  -17.1509 C   0  0  0  0  0  0  0  0  0  0  0  0
   22.3377   -7.8153  -16.1413 C   0  0  0  0  0  0  0  0  0  0  0  0
   23.4883   -7.3279  -16.4265 O   0  0  0  0  0  0  0  0  0  0  0  0
   21.8214   -7.4494  -14.8872 N   0  0  0  0  0  0  0  0  0  0  0  0
   22.4859   -6.5104  -13.9982 C   0  0  0  0  0  0  0  0  0  0  0  0
   21.8343   -5.1860  -14.0273 C   0  0  0  0  0  0  0  0  0  0  0  0
   20.8664   -4.9596  -14.7929 O   0  0  0  0  0  0  0  0  0  0  0  0
   22.2806   -4.1648  -13.2072 O   0  0  0  0  0  0  0  0  0  0  0  0
  1  2  1  0
  3  2  1  0
  4  3  2  0
  5  3  1  0
  6  5  1  0
  7  9  1  0
  7  6  1  0
  8  7  2  0
 10  9  1  0
 11 13  1  0
 11 10  1  0
 12 11  2  0
M  END
$$$$
