GGG.pdb
     RDKit          3D

 13 12  0  0  0  0  0  0  0  0999 V2000
   19.8092  -10.6691  -16.3878 N   0  0  0  0  0  0  0  0  0  0  0  0
   20.3093  -10.1149  -17.6289 C   0  0  0  0  0  0  0  0  0  0  0  0
   19.8003   -8.7472  -17.7896 C   0  0  0  0  0  0  0  0  0  0  0  0
   18.6484   -8.4664  -17.3811 O   0  0  0  0  0  0  0  0  0  0  0  0
   20.5423   -7.6942  -18.3911 N   0  0  0  0  0  0  0  0  0  0  0  0
   20.0480   -6.3533  -18.5137 C   0  0  0  0  0  0  0  0  0  0  0  0
   20.0495   -5.5551  -17.2974 C   0  0  0  0  0  0  0  0  0  0  0  0
   19.0426   -4.7804  -17.1279 O   0  0  0  0  0  0  0  0  0  0  0  0
   21.0151   -5.5213  -16.2778 N   0  0  0  0  0  0  0  0  0  0  0  0
   20.7781   -4.9114  -14.9796 C   0  0  0  0  0  0  0  0  0  0  0  0
   21.9646   -5.0192  -14.1078 C   0  0  0  0  0  0  0  0  0  0  0  0
   22.0344   -5.9021  -13.2191 O   0  0  0  0  0  0  0  0  0  0  0  0
   23.0268   -4.1447  -14.2549 O   0  0  0  0  0  0  0  0  0  0  0  0
  1  2  1  0
  3  2  1  0
  4  3  2  0
  5  3  1  0
  6  5  1  0
  7  9  1  0
  7  6  1  0
  8  7  2  0
 10  9  1  0
 11 13  1  0
 11 10  1  0
 12 11  2  0
M  END
$$$$
