GGG.pdb
     RDKit          3D

 13 12  0  0  0  0  0  0  0  0999 V2000
   20.8077  -12.5309  -17.2443 N   0  0  0  0  0  0  0  0  0  0  0  0
   21.5074  -11.2820  -17.0250 C   0  0  0  0  0  0  0  0  0  0  0  0
   20.7230  -10.4400  -16.1132 C   0  0  0  0  0  0  0  0  0  0  0  0
   19.5002  -10.6715  -15.9590 O   0  0  0  0  0  0  0  0  0  0  0  0
   21.2685   -9.3540  -15.3755 N   0  0  0  0  0  0  0  0  0  0  0  0
   20.5275   -8.6203  -14.3906 C   0  0  0  0  0  0  0  0  0  0  0  0
   21.2056   -7.4786  -13.7962 C   0  0  0  0  0  0  0  0  0  0  0  0
   22.1133   -7.7469  -12.9320 O   0  0  0  0  0  0  0  0  0  0  0  0
   20.9955   -6.1124  -14.0462 N   0  0  0  0  0  0  0  0  0  0  0  0
   21.8082   -5.0626  -13.4540 C   0  0  0  0  0  0  0  0  0  0  0  0
   21.4806   -3.7404  -14.0230 C   0  0  0  0  0  0  0  0  0  0  0  0
   20.5618   -3.6109  -14.8675 O   0  0  0  0  0  0  0  0  0  0  0  0
   22.1838   -2.6139  -13.6341 O   0  0  0  0  0  0  0  0  0  0  0  0
  1  2  1  0
  3  2  1  0
  4  3  2  0
  5  3  1  0
  6  5  1  0
  7  9  1  0
  7  6  1  0
  8  7  2  0
 10  9  1  0
 11 13  1  0
 11 10  1  0
 12 11  2  0
M  END
$$$$
