YAA.pdb
     RDKit          3D

 23 23  0  0  1  0  0  0  0  0999 V2000
    8.2287  -13.1605   16.5475 O   0  0  0  0  0  0  0  0  0  0  0  0
    7.9513  -13.4058   17.8892 C   0  0  0  0  0  0  0  0  0  0  0  0
    7.1386  -14.4281   18.3045 C   0  0  0  0  0  0  0  0  0  0  0  0
    6.8953  -14.6295   19.6399 C   0  0  0  0  0  0  0  0  0  0  0  0
    7.4517  -13.8204   20.6218 C   0  0  0  0  0  0  0  0  0  0  0  0
    7.1553  -14.0828   22.0517 C   0  0  0  0  0  0  0  0  0  0  0  0
    8.3075  -14.9517   22.5737 C   0  0  2  0  0  0  0  0  0  0  0  0
    8.3632  -16.1169   21.7393 N   0  0  0  0  0  0  0  0  0  0  0  0
    8.1256  -15.3061   23.9847 C   0  0  0  0  0  0  0  0  0  0  0  0
    8.2104  -14.4027   24.8555 O   0  0  0  0  0  0  0  0  0  0  0  0
    8.2667  -12.7965   20.1905 C   0  0  0  0  0  0  0  0  0  0  0  0
    8.5293  -12.5706   18.8460 C   0  0  0  0  0  0  0  0  0  0  0  0
    6.6929  -17.9598   26.0493 C   0  0  0  0  0  0  0  0  0  0  0  0
    7.8735  -17.0168   25.8150 C   0  0  2  0  0  0  0  0  0  0  0  0
    7.8585  -16.6164   24.4227 N   0  0  0  0  0  0  0  0  0  0  0  0
    9.0986  -17.7676   26.1660 C   0  0  0  0  0  0  0  0  0  0  0  0
    9.2348  -18.1882   27.3286 O   0  0  0  0  0  0  0  0  0  0  0  0
   11.2926  -20.1387   25.3531 C   0  0  0  0  0  0  0  0  0  0  0  0
   11.3530  -18.6499   25.4762 C   0  0  2  0  0  0  0  0  0  0  0  0
   10.0882  -18.0021   25.2094 N   0  0  0  0  0  0  0  0  0  0  0  0
   12.4338  -18.1016   24.6001 C   0  0  0  0  0  0  0  0  0  0  0  0
   12.6311  -18.5006   23.4399 O   0  0  0  0  0  0  0  0  0  0  0  0
   13.2488  -17.1041   25.1096 O   0  0  0  0  0  0  0  0  0  0  0  0
  2  1  1  0
  2  3  2  0
  4  3  1  0
  5  4  2  0
  6  5  1  0
  7  6  1  0
  7  8  1  6
  9  7  1  0
  9 10  2  0
 11 12  2  0
 11  5  1  0
 12  2  1  0
 14 13  1  6
 14 15  1  0
 15  9  1  0
 16 14  1  0
 16 20  1  0
 17 16  2  0
 19 18  1  6
 19 20  1  0
 19 21  1  0
 21 22  2  0
 21 23  1  0
M  END
$$$$
