YAA.pdb
     RDKit          3D

 23 23  0  0  1  0  0  0  0  0999 V2000
    8.6237  -12.7727   16.6413 O   0  0  0  0  0  0  0  0  0  0  0  0
    8.1377  -13.2235   17.8651 C   0  0  0  0  0  0  0  0  0  0  0  0
    7.4608  -14.4070   18.0048 C   0  0  0  0  0  0  0  0  0  0  0  0
    7.0008  -14.8086   19.2336 C   0  0  0  0  0  0  0  0  0  0  0  0
    7.1949  -14.0480   20.3791 C   0  0  0  0  0  0  0  0  0  0  0  0
    6.6763  -14.5295   21.6832 C   0  0  0  0  0  0  0  0  0  0  0  0
    7.9071  -14.7860   22.5632 C   0  0  2  0  0  0  0  0  0  0  0  0
    8.7737  -15.6588   21.8254 N   0  0  0  0  0  0  0  0  0  0  0  0
    7.5381  -15.3615   23.8602 C   0  0  0  0  0  0  0  0  0  0  0  0
    6.6015  -14.8367   24.5152 O   0  0  0  0  0  0  0  0  0  0  0  0
    7.8768  -12.8606   20.2246 C   0  0  0  0  0  0  0  0  0  0  0  0
    8.3528  -12.4309   18.9931 C   0  0  0  0  0  0  0  0  0  0  0  0
    8.3299  -18.5051   25.7192 C   0  0  0  0  0  0  0  0  0  0  0  0
    7.8173  -17.0647   25.6936 C   0  0  2  0  0  0  0  0  0  0  0  0
    8.1818  -16.4814   24.4185 N   0  0  0  0  0  0  0  0  0  0  0  0
    8.4527  -16.3629   26.8299 C   0  0  0  0  0  0  0  0  0  0  0  0
    8.1015  -16.6505   27.9879 O   0  0  0  0  0  0  0  0  0  0  0  0
    9.1638  -13.5448   28.2064 C   0  0  0  0  0  0  0  0  0  0  0  0
   10.0580  -14.6046   27.6475 C   0  0  2  0  0  0  0  0  0  0  0  0
    9.4318  -15.3923   26.6091 N   0  0  0  0  0  0  0  0  0  0  0  0
   10.5761  -15.4769   28.7460 C   0  0  0  0  0  0  0  0  0  0  0  0
   11.0767  -15.0244   29.7895 O   0  0  0  0  0  0  0  0  0  0  0  0
   10.4919  -16.8505   28.5883 O   0  0  0  0  0  0  0  0  0  0  0  0
  2  1  1  0
  2  3  2  0
  4  3  1  0
  5  4  2  0
  6  5  1  0
  7  6  1  0
  7  8  1  6
  9  7  1  0
  9 10  2  0
 11 12  2  0
 11  5  1  0
 12  2  1  0
 14 13  1  6
 14 15  1  0
 15  9  1  0
 16 14  1  0
 16 20  1  0
 17 16  2  0
 19 18  1  1
 19 20  1  0
 19 21  1  0
 21 22  2  0
 21 23  1  0
M  END
$$$$
