YAA.pdb
     RDKit          3D

 23 23  0  0  1  0  0  0  0  0999 V2000
    6.0581  -27.7347   16.8516 O   0  0  0  0  0  0  0  0  0  0  0  0
    6.9941  -27.1052   17.6670 C   0  0  0  0  0  0  0  0  0  0  0  0
    8.3299  -27.4101   17.6363 C   0  0  0  0  0  0  0  0  0  0  0  0
    9.2143  -26.7610   18.4606 C   0  0  0  0  0  0  0  0  0  0  0  0
    8.8067  -25.7783   19.3529 C   0  0  0  0  0  0  0  0  0  0  0  0
    9.8054  -25.1079   20.2216 C   0  0  0  0  0  0  0  0  0  0  0  0
    9.8999  -23.6594   19.7236 C   0  0  2  0  0  0  0  0  0  0  0  0
   10.4924  -23.7042   18.4182 N   0  0  0  0  0  0  0  0  0  0  0  0
   10.6760  -22.8185   20.6402 C   0  0  0  0  0  0  0  0  0  0  0  0
   11.9316  -22.8413   20.5724 O   0  0  0  0  0  0  0  0  0  0  0  0
    7.4612  -25.4815   19.3735 C   0  0  0  0  0  0  0  0  0  0  0  0
    6.5453  -26.1229   18.5505 C   0  0  0  0  0  0  0  0  0  0  0  0
   10.0666  -19.8889   22.8043 C   0  0  0  0  0  0  0  0  0  0  0  0
   10.8441  -21.1797   22.5445 C   0  0  2  0  0  0  0  0  0  0  0  0
   10.0863  -21.9781   21.6025 N   0  0  0  0  0  0  0  0  0  0  0  0
   11.0002  -21.8567   23.8502 C   0  0  0  0  0  0  0  0  0  0  0  0
   11.6841  -21.3104   24.7340 O   0  0  0  0  0  0  0  0  0  0  0  0
    9.2714  -24.6578   25.6147 C   0  0  0  0  0  0  0  0  0  0  0  0
   10.4796  -23.8236   25.3326 C   0  0  2  0  0  0  0  0  0  0  0  0
   10.3906  -23.0898   24.0899 N   0  0  0  0  0  0  0  0  0  0  0  0
   11.7127  -24.6687   25.3714 C   0  0  0  0  0  0  0  0  0  0  0  0
   12.1984  -25.1078   26.4276 O   0  0  0  0  0  0  0  0  0  0  0  0
   12.3378  -24.9728   24.1733 O   0  0  0  0  0  0  0  0  0  0  0  0
  2  1  1  0
  2  3  2  0
  4  3  1  0
  5  4  2  0
  6  5  1  0
  7  6  1  0
  7  8  1  6
  9  7  1  0
  9 10  2  0
 11 12  2  0
 11  5  1  0
 12  2  1  0
 14 13  1  1
 14 15  1  0
 15  9  1  0
 16 14  1  0
 16 20  1  0
 17 16  2  0
 19 18  1  6
 19 20  1  0
 19 21  1  0
 21 22  2  0
 21 23  1  0
M  END
$$$$
