YAA.pdb
     RDKit          3D

 23 23  0  0  1  0  0  0  0  0999 V2000
   19.5725  -18.6248   13.3587 O   0  0  0  0  0  0  0  0  0  0  0  0
   18.9553  -18.3838   14.5827 C   0  0  0  0  0  0  0  0  0  0  0  0
   18.1878  -17.2738   14.8213 C   0  0  0  0  0  0  0  0  0  0  0  0
   17.5995  -17.0805   16.0459 C   0  0  0  0  0  0  0  0  0  0  0  0
   17.7499  -17.9857   17.0881 C   0  0  0  0  0  0  0  0  0  0  0  0
   17.0915  -17.7276   18.3925 C   0  0  0  0  0  0  0  0  0  0  0  0
   15.9483  -18.7455   18.5019 C   0  0  2  0  0  0  0  0  0  0  0  0
   14.9622  -18.3723   17.5296 N   0  0  0  0  0  0  0  0  0  0  0  0
   15.3842  -18.7867   19.8546 C   0  0  0  0  0  0  0  0  0  0  0  0
   14.7198  -17.8020   20.2678 O   0  0  0  0  0  0  0  0  0  0  0  0
   18.5240  -19.0972   16.8348 C   0  0  0  0  0  0  0  0  0  0  0  0
   19.1304  -19.3169   15.6052 C   0  0  0  0  0  0  0  0  0  0  0  0
   14.6651  -21.3902   22.3837 C   0  0  0  0  0  0  0  0  0  0  0  0
   14.9924  -19.9315   22.0628 C   0  0  2  0  0  0  0  0  0  0  0  0
   15.5474  -19.8799   20.7255 N   0  0  0  0  0  0  0  0  0  0  0  0
   15.9580  -19.4735   23.0853 C   0  0  0  0  0  0  0  0  0  0  0  0
   15.5804  -19.3676   24.2657 O   0  0  0  0  0  0  0  0  0  0  0  0
   19.6401  -19.3229   23.3741 C   0  0  0  0  0  0  0  0  0  0  0  0
   18.2950  -18.7384   23.6644 C   0  0  2  0  0  0  0  0  0  0  0  0
   17.2734  -19.1641   22.7338 N   0  0  0  0  0  0  0  0  0  0  0  0
   18.3807  -17.2467   23.7240 C   0  0  0  0  0  0  0  0  0  0  0  0
   17.7359  -16.5017   22.9667 O   0  0  0  0  0  0  0  0  0  0  0  0
   19.2179  -16.6746   24.6676 O   0  0  0  0  0  0  0  0  0  0  0  0
  2  1  1  0
  2  3  2  0
  4  3  1  0
  5  4  2  0
  6  5  1  0
  7  6  1  0
  7  8  1  6
  9  7  1  0
  9 10  2  0
 11 12  2  0
 11  5  1  0
 12  2  1  0
 14 13  1  1
 14 15  1  0
 15  9  1  0
 16 14  1  0
 16 20  1  0
 17 16  2  0
 19 18  1  6
 19 20  1  0
 19 21  1  0
 21 22  2  0
 21 23  1  0
M  END
$$$$
