YAA.pdb
     RDKit          3D

 23 23  0  0  1  0  0  0  0  0999 V2000
   13.6750  -17.8849    9.9458 O   0  0  0  0  0  0  0  0  0  0  0  0
   13.4718  -17.7899   11.3195 C   0  0  0  0  0  0  0  0  0  0  0  0
   14.0596  -16.8224   12.0919 C   0  0  0  0  0  0  0  0  0  0  0  0
   13.8281  -16.7701   13.4434 C   0  0  0  0  0  0  0  0  0  0  0  0
   12.9995  -17.6805   14.0860 C   0  0  0  0  0  0  0  0  0  0  0  0
   12.7836  -17.5782   15.5504 C   0  0  0  0  0  0  0  0  0  0  0  0
   11.3017  -17.2273   15.7396 C   0  0  2  0  0  0  0  0  0  0  0  0
   11.1320  -15.8754   15.2916 N   0  0  0  0  0  0  0  0  0  0  0  0
   10.8774  -17.3916   17.1334 C   0  0  0  0  0  0  0  0  0  0  0  0
   11.0784  -16.4530   17.9460 O   0  0  0  0  0  0  0  0  0  0  0  0
   12.4149  -18.6479   13.2979 C   0  0  0  0  0  0  0  0  0  0  0  0
   12.6322  -18.7233   11.9286 C   0  0  0  0  0  0  0  0  0  0  0  0
    8.7120  -19.8005   18.9919 C   0  0  0  0  0  0  0  0  0  0  0  0
    9.7815  -18.7077   18.9791 C   0  0  2  0  0  0  0  0  0  0  0  0
   10.2506  -18.5550   17.6169 N   0  0  0  0  0  0  0  0  0  0  0  0
   10.8572  -19.1495   19.8931 C   0  0  0  0  0  0  0  0  0  0  0  0
   10.6099  -19.2560   21.1074 O   0  0  0  0  0  0  0  0  0  0  0  0
   13.9379  -21.0758   19.7293 C   0  0  0  0  0  0  0  0  0  0  0  0
   13.2558  -19.8397   20.2211 C   0  0  2  0  0  0  0  0  0  0  0  0
   12.1313  -19.4430   19.4031 N   0  0  0  0  0  0  0  0  0  0  0  0
   14.2419  -18.7239   20.3577 C   0  0  0  0  0  0  0  0  0  0  0  0
   15.2693  -18.8107   21.0514 O   0  0  0  0  0  0  0  0  0  0  0  0
   13.9944  -17.5424   19.6783 O   0  0  0  0  0  0  0  0  0  0  0  0
  2  1  1  0
  2  3  2  0
  4  3  1  0
  5  4  2  0
  6  5  1  0
  7  6  1  0
  7  8  1  1
  9  7  1  0
  9 10  2  0
 11 12  2  0
 11  5  1  0
 12  2  1  0
 14 13  1  6
 14 15  1  0
 15  9  1  0
 16 14  1  0
 16 20  1  0
 17 16  2  0
 19 18  1  6
 19 20  1  0
 19 21  1  0
 21 22  2  0
 21 23  1  0
M  END
$$$$
