YAA.pdb
     RDKit          3D

 23 23  0  0  1  0  0  0  0  0999 V2000
    5.0660  -10.0849   25.4635 O   0  0  0  0  0  0  0  0  0  0  0  0
    5.6519  -11.3376   25.6205 C   0  0  0  0  0  0  0  0  0  0  0  0
    5.0193  -12.3801   26.2460 C   0  0  0  0  0  0  0  0  0  0  0  0
    5.6392  -13.5973   26.3762 C   0  0  0  0  0  0  0  0  0  0  0  0
    6.9183  -13.8302   25.8884 C   0  0  0  0  0  0  0  0  0  0  0  0
    7.5419  -15.1660   26.0563 C   0  0  0  0  0  0  0  0  0  0  0  0
    7.5180  -15.8251   24.6707 C   0  0  2  0  0  0  0  0  0  0  0  0
    6.2631  -16.5099   24.5553 N   0  0  0  0  0  0  0  0  0  0  0  0
    8.6503  -16.7374   24.4826 C   0  0  0  0  0  0  0  0  0  0  0  0
    8.5565  -17.9193   24.9023 O   0  0  0  0  0  0  0  0  0  0  0  0
    7.5429  -12.7738   25.2618 C   0  0  0  0  0  0  0  0  0  0  0  0
    6.9385  -11.5322   25.1167 C   0  0  0  0  0  0  0  0  0  0  0  0
   12.0828  -16.5106   22.9577 C   0  0  0  0  0  0  0  0  0  0  0  0
   11.0760  -17.1256   23.9305 C   0  0  2  0  0  0  0  0  0  0  0  0
    9.8494  -16.3588   23.8511 N   0  0  0  0  0  0  0  0  0  0  0  0
   11.6866  -17.0632   25.2762 C   0  0  0  0  0  0  0  0  0  0  0  0
   12.6792  -17.7718   25.5207 O   0  0  0  0  0  0  0  0  0  0  0  0
   11.4176  -14.8205   28.2593 C   0  0  0  0  0  0  0  0  0  0  0  0
   11.6300  -16.1572   27.6242 C   0  0  2  0  0  0  0  0  0  0  0  0
   11.1591  -16.2230   26.2586 N   0  0  0  0  0  0  0  0  0  0  0  0
   11.0100  -17.2315   28.4594 C   0  0  0  0  0  0  0  0  0  0  0  0
   10.0935  -17.9632   28.0484 O   0  0  0  0  0  0  0  0  0  0  0  0
   11.4823  -17.4153   29.7486 O   0  0  0  0  0  0  0  0  0  0  0  0
  2  1  1  0
  2  3  2  0
  4  3  1  0
  5  4  2  0
  6  5  1  0
  7  6  1  0
  7  8  1  1
  9  7  1  0
  9 10  2  0
 11 12  2  0
 11  5  1  0
 12  2  1  0
 14 13  1  6
 14 15  1  0
 15  9  1  0
 16 14  1  0
 16 20  1  0
 17 16  2  0
 19 18  1  1
 19 20  1  0
 19 21  1  0
 21 22  2  0
 21 23  1  0
M  END
$$$$
