YAA.pdb
     RDKit          3D

 23 23  0  0  1  0  0  0  0  0999 V2000
    8.5962  -12.0345   19.1712 O   0  0  0  0  0  0  0  0  0  0  0  0
    8.0441  -13.0458   19.9520 C   0  0  0  0  0  0  0  0  0  0  0  0
    8.1320  -13.0598   21.3195 C   0  0  0  0  0  0  0  0  0  0  0  0
    7.5708  -14.0798   22.0459 C   0  0  0  0  0  0  0  0  0  0  0  0
    6.8965  -15.1324   21.4412 C   0  0  0  0  0  0  0  0  0  0  0  0
    6.3084  -16.2099   22.2746 C   0  0  0  0  0  0  0  0  0  0  0  0
    6.4935  -17.5110   21.4823 C   0  0  2  0  0  0  0  0  0  0  0  0
    5.3461  -18.3293   21.7487 N   0  0  0  0  0  0  0  0  0  0  0  0
    7.7396  -18.1946   21.8423 C   0  0  0  0  0  0  0  0  0  0  0  0
    7.7356  -18.9995   22.8087 O   0  0  0  0  0  0  0  0  0  0  0  0
    6.8155  -15.1061   20.0659 C   0  0  0  0  0  0  0  0  0  0  0  0
    7.3742  -14.0863   19.3072 C   0  0  0  0  0  0  0  0  0  0  0  0
   11.2178  -18.3676   20.4206 C   0  0  0  0  0  0  0  0  0  0  0  0
   10.1965  -18.6448   21.5243 C   0  0  2  0  0  0  0  0  0  0  0  0
    8.9533  -17.9973   21.1580 N   0  0  0  0  0  0  0  0  0  0  0  0
   10.7610  -18.0995   22.7779 C   0  0  0  0  0  0  0  0  0  0  0  0
   11.8277  -18.5690   23.2124 O   0  0  0  0  0  0  0  0  0  0  0  0
    9.8263  -15.2496   25.0864 C   0  0  0  0  0  0  0  0  0  0  0  0
   10.5766  -16.4835   24.6993 C   0  0  2  0  0  0  0  0  0  0  0  0
   10.1087  -17.0738   23.4650 N   0  0  0  0  0  0  0  0  0  0  0  0
   10.5486  -17.4779   25.8157 C   0  0  0  0  0  0  0  0  0  0  0  0
   11.0640  -17.2627   26.9258 O   0  0  0  0  0  0  0  0  0  0  0  0
    9.9187  -18.6922   25.5975 O   0  0  0  0  0  0  0  0  0  0  0  0
  2  1  1  0
  2  3  2  0
  4  3  1  0
  5  4  2  0
  6  5  1  0
  7  6  1  0
  7  8  1  1
  9  7  1  0
  9 10  2  0
 11 12  2  0
 11  5  1  0
 12  2  1  0
 14 13  1  6
 14 15  1  0
 15  9  1  0
 16 14  1  0
 16 20  1  0
 17 16  2  0
 19 18  1  1
 19 20  1  0
 19 21  1  0
 21 22  2  0
 21 23  1  0
M  END
$$$$
