MFA.pdb
     RDKit          3D

 25 25  0  0  1  0  0  0  0  0999 V2000
    7.8607  -22.6805   24.1891 C   0  0  0  0  0  0  0  0  0  0  0  0
    8.9165  -22.3714   22.7927 S   0  0  0  0  0  0  0  0  0  0  0  0
    8.6579  -20.8721   21.8957 C   0  0  0  0  0  0  0  0  0  0  0  0
    7.9706  -19.7342   22.5636 C   0  0  0  0  0  0  0  0  0  0  0  0
    7.7394  -18.5240   21.7403 C   0  0  2  0  0  0  0  0  0  0  0  0
    8.5011  -18.5203   20.5270 N   0  0  0  0  0  0  0  0  0  0  0  0
    8.1251  -17.2812   22.4998 C   0  0  0  0  0  0  0  0  0  0  0  0
    9.2035  -16.7282   22.2688 O   0  0  0  0  0  0  0  0  0  0  0  0
    7.2838  -16.7314   23.4704 N   0  0  0  0  0  0  0  0  0  0  0  0
    7.4847  -15.5326   24.2057 C   0  0  1  0  0  0  0  0  0  0  0  0
    6.2701  -14.8395   24.6921 C   0  0  0  0  0  0  0  0  0  0  0  0
    6.5267  -13.5644   25.3984 C   0  0  0  0  0  0  0  0  0  0  0  0
    7.2839  -12.5728   24.8239 C   0  0  0  0  0  0  0  0  0  0  0  0
    7.5404  -11.3702   25.4507 C   0  0  0  0  0  0  0  0  0  0  0  0
    7.0188  -11.1487   26.7033 C   0  0  0  0  0  0  0  0  0  0  0  0
    6.2539  -12.1164   27.3151 C   0  0  0  0  0  0  0  0  0  0  0  0
    6.0149  -13.3211   26.6516 C   0  0  0  0  0  0  0  0  0  0  0  0
    8.3553  -15.8587   25.3820 C   0  0  0  0  0  0  0  0  0  0  0  0
    8.6970  -14.9635   26.1990 O   0  0  0  0  0  0  0  0  0  0  0  0
    9.6038  -18.8917   27.2167 C   0  0  0  0  0  0  0  0  0  0  0  0
    9.7022  -17.4773   26.7512 C   0  0  2  0  0  0  0  0  0  0  0  0
    8.8339  -17.1797   25.6318 N   0  0  0  0  0  0  0  0  0  0  0  0
   11.1184  -17.1315   26.4525 C   0  0  0  0  0  0  0  0  0  0  0  0
   11.3966  -16.6692   25.3176 O   0  0  0  0  0  0  0  0  0  0  0  0
   12.1554  -17.2904   27.3564 O   0  0  0  0  0  0  0  0  0  0  0  0
  1  2  1  0
  2  3  1  0
  4  5  1  0
  4  3  1  0
  5  6  1  6
  7  5  1  0
  7  8  2  0
  9  7  1  0
 10  9  1  0
 11 12  1  0
 10 11  1  1
 12 17  2  0
 13 12  1  0
 13 14  2  0
 14 15  1  0
 15 16  2  0
 17 16  1  0
 18 10  1  0
 19 18  2  0
 21 22  1  0
 21 20  1  6
 22 18  1  0
 23 21  1  0
 24 23  2  0
 25 23  1  0
M  END
$$$$
