MFA.pdb
     RDKit          3D

 25 25  0  0  1  0  0  0  0  0999 V2000
    8.1370  -11.5851   18.5497 C   0  0  0  0  0  0  0  0  0  0  0  0
    7.7375  -13.0982   17.7064 S   0  0  0  0  0  0  0  0  0  0  0  0
    7.8115  -14.5935   18.6432 C   0  0  0  0  0  0  0  0  0  0  0  0
    8.9326  -14.7981   19.5996 C   0  0  0  0  0  0  0  0  0  0  0  0
    8.8648  -16.0087   20.4514 C   0  0  2  0  0  0  0  0  0  0  0  0
    7.5607  -16.6013   20.4765 N   0  0  0  0  0  0  0  0  0  0  0  0
    9.2195  -15.6772   21.8777 C   0  0  0  0  0  0  0  0  0  0  0  0
   10.3250  -15.1971   22.1416 O   0  0  0  0  0  0  0  0  0  0  0  0
    8.3191  -15.9016   22.9222 N   0  0  0  0  0  0  0  0  0  0  0  0
    8.4592  -15.5081   24.2800 C   0  0  1  0  0  0  0  0  0  0  0  0
    7.2095  -15.2345   25.0254 C   0  0  0  0  0  0  0  0  0  0  0  0
    7.3744  -14.3631   26.2104 C   0  0  0  0  0  0  0  0  0  0  0  0
    7.0282  -13.0346   26.1701 C   0  0  0  0  0  0  0  0  0  0  0  0
    7.1641  -12.1935   27.2561 C   0  0  0  0  0  0  0  0  0  0  0  0
    7.6665  -12.7007   28.4310 C   0  0  0  0  0  0  0  0  0  0  0  0
    8.0255  -14.0272   28.5143 C   0  0  0  0  0  0  0  0  0  0  0  0
    7.8745  -14.8489   27.3959 C   0  0  0  0  0  0  0  0  0  0  0  0
    9.2171  -16.5878   24.9926 C   0  0  0  0  0  0  0  0  0  0  0  0
    8.7200  -17.7356   25.1385 O   0  0  0  0  0  0  0  0  0  0  0  0
   12.7419  -17.3875   25.8000 C   0  0  0  0  0  0  0  0  0  0  0  0
   11.2867  -17.4492   26.1253 C   0  0  2  0  0  0  0  0  0  0  0  0
   10.5202  -16.3733   25.5334 N   0  0  0  0  0  0  0  0  0  0  0  0
   11.0917  -17.5139   27.5991 C   0  0  0  0  0  0  0  0  0  0  0  0
   11.7028  -18.4005   28.2469 O   0  0  0  0  0  0  0  0  0  0  0  0
   10.2709  -16.6499   28.3045 O   0  0  0  0  0  0  0  0  0  0  0  0
  1  2  1  0
  2  3  1  0
  4  5  1  0
  4  3  1  0
  5  6  1  1
  7  5  1  0
  7  8  2  0
  9  7  1  0
 10  9  1  0
 11 12  1  0
 10 11  1  1
 12 17  2  0
 13 12  1  0
 13 14  2  0
 14 15  1  0
 15 16  2  0
 17 16  1  0
 18 10  1  0
 19 18  2  0
 21 22  1  0
 21 20  1  1
 22 18  1  0
 23 21  1  0
 24 23  2  0
 25 23  1  0
M  END
$$$$
