MFA.pdb
     RDKit          3D

 25 25  0  0  1  0  0  0  0  0999 V2000
    8.5261  -12.3603   17.9457 C   0  0  0  0  0  0  0  0  0  0  0  0
    8.3328  -14.0560   17.4480 S   0  0  0  0  0  0  0  0  0  0  0  0
    8.6741  -15.2999   18.6544 C   0  0  0  0  0  0  0  0  0  0  0  0
    9.2922  -14.9072   19.9494 C   0  0  0  0  0  0  0  0  0  0  0  0
    9.5654  -16.0002   20.9120 C   0  0  2  0  0  0  0  0  0  0  0  0
    8.5191  -16.9776   20.9586 N   0  0  0  0  0  0  0  0  0  0  0  0
    9.7143  -15.4553   22.3087 C   0  0  0  0  0  0  0  0  0  0  0  0
   10.6664  -14.7210   22.5851 O   0  0  0  0  0  0  0  0  0  0  0  0
    8.7915  -15.7630   23.3118 N   0  0  0  0  0  0  0  0  0  0  0  0
    8.6040  -15.0867   24.5469 C   0  0  1  0  0  0  0  0  0  0  0  0
    7.2210  -15.0342   25.0730 C   0  0  0  0  0  0  0  0  0  0  0  0
    6.9511  -13.9052   25.9913 C   0  0  0  0  0  0  0  0  0  0  0  0
    6.1050  -12.8840   25.6337 C   0  0  0  0  0  0  0  0  0  0  0  0
    5.8267  -11.8181   26.4652 C   0  0  0  0  0  0  0  0  0  0  0  0
    6.4181  -11.7703   27.7055 C   0  0  0  0  0  0  0  0  0  0  0  0
    7.2725  -12.7739   28.1035 C   0  0  0  0  0  0  0  0  0  0  0  0
    7.5312  -13.8369   27.2364 C   0  0  0  0  0  0  0  0  0  0  0  0
    9.4815  -15.7475   25.5673 C   0  0  0  0  0  0  0  0  0  0  0  0
    9.7588  -16.9730   25.4826 O   0  0  0  0  0  0  0  0  0  0  0  0
   11.4061  -14.7452   28.6903 C   0  0  0  0  0  0  0  0  0  0  0  0
   10.9196  -15.6702   27.6251 C   0  0  2  0  0  0  0  0  0  0  0  0
   10.0386  -15.0327   26.6697 N   0  0  0  0  0  0  0  0  0  0  0  0
   10.2875  -16.8709   28.2361 C   0  0  0  0  0  0  0  0  0  0  0  0
   10.9742  -17.5805   29.0134 O   0  0  0  0  0  0  0  0  0  0  0  0
    8.9790  -17.2561   27.9975 O   0  0  0  0  0  0  0  0  0  0  0  0
  1  2  1  0
  2  3  1  0
  4  5  1  0
  4  3  1  0
  5  6  1  1
  7  5  1  0
  7  8  2  0
  9  7  1  0
 10  9  1  0
 11 12  1  0
 10 11  1  1
 12 17  2  0
 13 12  1  0
 13 14  2  0
 14 15  1  0
 15 16  2  0
 17 16  1  0
 18 10  1  0
 19 18  2  0
 21 22  1  0
 21 20  1  1
 22 18  1  0
 23 21  1  0
 24 23  2  0
 25 23  1  0
M  END
$$$$
