MFA.pdb
     RDKit          3D

 25 25  0  0  1  0  0  0  0  0999 V2000
    7.8448  -11.3618   19.4601 C   0  0  0  0  0  0  0  0  0  0  0  0
    7.4007  -12.8398   18.5778 S   0  0  0  0  0  0  0  0  0  0  0  0
    7.7388  -14.3858   19.3619 C   0  0  0  0  0  0  0  0  0  0  0  0
    8.6094  -14.4147   20.5680 C   0  0  0  0  0  0  0  0  0  0  0  0
    8.7990  -15.7331   21.2173 C   0  0  2  0  0  0  0  0  0  0  0  0
    7.6013  -16.5186   21.2463 N   0  0  0  0  0  0  0  0  0  0  0  0
    9.2431  -15.5641   22.6470 C   0  0  0  0  0  0  0  0  0  0  0  0
   10.3221  -15.0201   22.8964 O   0  0  0  0  0  0  0  0  0  0  0  0
    8.4562  -16.0122   23.7110 N   0  0  0  0  0  0  0  0  0  0  0  0
    8.7422  -15.9064   25.0985 C   0  0  1  0  0  0  0  0  0  0  0  0
    7.6037  -15.5872   25.9896 C   0  0  0  0  0  0  0  0  0  0  0  0
    7.3012  -14.1436   26.1136 C   0  0  0  0  0  0  0  0  0  0  0  0
    8.2490  -13.2537   26.5566 C   0  0  0  0  0  0  0  0  0  0  0  0
    8.0042  -11.9010   26.6808 C   0  0  0  0  0  0  0  0  0  0  0  0
    6.7609  -11.4172   26.3486 C   0  0  0  0  0  0  0  0  0  0  0  0
    5.7820  -12.2752   25.8999 C   0  0  0  0  0  0  0  0  0  0  0  0
    6.0649  -13.6375   25.7868 C   0  0  0  0  0  0  0  0  0  0  0  0
    9.3488  -17.2044   25.5402 C   0  0  0  0  0  0  0  0  0  0  0  0
    8.6998  -18.2804   25.4578 O   0  0  0  0  0  0  0  0  0  0  0  0
   12.7627  -18.5652   26.2343 C   0  0  0  0  0  0  0  0  0  0  0  0
   11.2807  -18.5540   26.4090 C   0  0  2  0  0  0  0  0  0  0  0  0
   10.6721  -17.2856   26.0682 N   0  0  0  0  0  0  0  0  0  0  0  0
   10.9225  -18.9798   27.7892 C   0  0  0  0  0  0  0  0  0  0  0  0
   10.2763  -18.1826   28.5144 O   0  0  0  0  0  0  0  0  0  0  0  0
   11.2613  -20.2105   28.3262 O   0  0  0  0  0  0  0  0  0  0  0  0
  1  2  1  0
  2  3  1  0
  4  5  1  0
  4  3  1  0
  5  6  1  1
  7  5  1  0
  7  8  2  0
  9  7  1  0
 10  9  1  0
 11 12  1  0
 10 11  1  1
 12 17  2  0
 13 12  1  0
 13 14  2  0
 14 15  1  0
 15 16  2  0
 17 16  1  0
 18 10  1  0
 19 18  2  0
 21 22  1  0
 21 20  1  1
 22 18  1  0
 23 21  1  0
 24 23  2  0
 25 23  1  0
M  END
$$$$
