MFA.pdb
     RDKit          3D

 25 25  0  0  1  0  0  0  0  0999 V2000
    8.4125  -19.5887   18.2117 C   0  0  0  0  0  0  0  0  0  0  0  0
    7.8419  -18.2502   17.1905 S   0  0  0  0  0  0  0  0  0  0  0  0
    7.7346  -16.6514   17.9331 C   0  0  0  0  0  0  0  0  0  0  0  0
    7.5310  -16.5442   19.4030 C   0  0  0  0  0  0  0  0  0  0  0  0
    7.3768  -15.1768   19.9529 C   0  0  2  0  0  0  0  0  0  0  0  0
    7.9089  -14.1647   19.0898 N   0  0  0  0  0  0  0  0  0  0  0  0
    8.0968  -15.0479   21.2700 C   0  0  0  0  0  0  0  0  0  0  0  0
    9.2189  -14.5366   21.3110 O   0  0  0  0  0  0  0  0  0  0  0  0
    7.5208  -15.4974   22.4610 N   0  0  0  0  0  0  0  0  0  0  0  0
    8.0092  -15.3041   23.7810 C   0  0  1  0  0  0  0  0  0  0  0  0
    6.9958  -15.1748   24.8526 C   0  0  0  0  0  0  0  0  0  0  0  0
    7.0264  -13.8864   25.5805 C   0  0  0  0  0  0  0  0  0  0  0  0
    7.9847  -13.6284   26.5301 C   0  0  0  0  0  0  0  0  0  0  0  0
    8.0466  -12.4376   27.2253 C   0  0  0  0  0  0  0  0  0  0  0  0
    7.1125  -11.4641   26.9609 C   0  0  0  0  0  0  0  0  0  0  0  0
    6.1349  -11.6819   26.0162 C   0  0  0  0  0  0  0  0  0  0  0  0
    6.1024  -12.8984   25.3322 C   0  0  0  0  0  0  0  0  0  0  0  0
    8.9100  -16.4571   24.1081 C   0  0  0  0  0  0  0  0  0  0  0  0
    8.5030  -17.6440   24.0003 O   0  0  0  0  0  0  0  0  0  0  0  0
   12.5490  -17.1451   24.4908 C   0  0  0  0  0  0  0  0  0  0  0  0
   11.1210  -17.3922   24.8466 C   0  0  2  0  0  0  0  0  0  0  0  0
   10.2536  -16.2715   24.5515 N   0  0  0  0  0  0  0  0  0  0  0  0
   11.0108  -17.8096   26.2708 C   0  0  0  0  0  0  0  0  0  0  0  0
   10.5341  -18.9434   26.5286 O   0  0  0  0  0  0  0  0  0  0  0  0
   11.4044  -17.0177   27.3364 O   0  0  0  0  0  0  0  0  0  0  0  0
  1  2  1  0
  2  3  1  0
  4  5  1  0
  4  3  1  0
  5  6  1  6
  7  5  1  0
  7  8  2  0
  9  7  1  0
 10  9  1  0
 11 12  1  0
 10 11  1  1
 12 17  2  0
 13 12  1  0
 13 14  2  0
 14 15  1  0
 15 16  2  0
 17 16  1  0
 18 10  1  0
 19 18  2  0
 21 22  1  0
 21 20  1  1
 22 18  1  0
 23 21  1  0
 24 23  2  0
 25 23  1  0
M  END
$$$$
