MFA.pdb
     RDKit          3D

 25 25  0  0  1  0  0  0  0  0999 V2000
    7.6919  -12.3026   20.6377 C   0  0  0  0  0  0  0  0  0  0  0  0
    7.2229  -13.4652   19.3772 S   0  0  0  0  0  0  0  0  0  0  0  0
    6.8991  -15.1256   19.8843 C   0  0  0  0  0  0  0  0  0  0  0  0
    7.4028  -15.5948   21.2032 C   0  0  0  0  0  0  0  0  0  0  0  0
    8.8573  -15.4500   21.4470 C   0  0  2  0  0  0  0  0  0  0  0  0
    9.6550  -16.2145   20.5350 N   0  0  0  0  0  0  0  0  0  0  0  0
    9.2142  -15.9173   22.8342 C   0  0  0  0  0  0  0  0  0  0  0  0
   10.3325  -16.3886   23.0565 O   0  0  0  0  0  0  0  0  0  0  0  0
    8.3014  -15.8301   23.8885 N   0  0  0  0  0  0  0  0  0  0  0  0
    8.5849  -15.8782   25.2797 C   0  0  1  0  0  0  0  0  0  0  0  0
    7.5099  -15.4287   26.1932 C   0  0  0  0  0  0  0  0  0  0  0  0
    7.3351  -13.9608   26.2675 C   0  0  0  0  0  0  0  0  0  0  0  0
    6.1199  -13.3751   26.0089 C   0  0  0  0  0  0  0  0  0  0  0  0
    5.9189  -12.0111   26.0725 C   0  0  0  0  0  0  0  0  0  0  0  0
    6.9756  -11.1983   26.4086 C   0  0  0  0  0  0  0  0  0  0  0  0
    8.2107  -11.7447   26.6759 C   0  0  0  0  0  0  0  0  0  0  0  0
    8.3778  -13.1287   26.6018 C   0  0  0  0  0  0  0  0  0  0  0  0
    8.9476  -17.2918   25.6233 C   0  0  0  0  0  0  0  0  0  0  0  0
    8.1217  -18.2278   25.4575 O   0  0  0  0  0  0  0  0  0  0  0  0
   11.8812  -19.4182   25.7599 C   0  0  0  0  0  0  0  0  0  0  0  0
   10.5949  -19.0199   26.4033 C   0  0  2  0  0  0  0  0  0  0  0  0
   10.2274  -17.6433   26.1477 N   0  0  0  0  0  0  0  0  0  0  0  0
   10.6367  -19.3137   27.8615 C   0  0  0  0  0  0  0  0  0  0  0  0
   10.3896  -18.3826   28.6685 O   0  0  0  0  0  0  0  0  0  0  0  0
   10.9342  -20.5602   28.3862 O   0  0  0  0  0  0  0  0  0  0  0  0
  1  2  1  0
  2  3  1  0
  4  5  1  0
  4  3  1  0
  5  6  1  6
  7  5  1  0
  7  8  2  0
  9  7  1  0
 10  9  1  0
 11 12  1  0
 10 11  1  1
 12 17  2  0
 13 12  1  0
 13 14  2  0
 14 15  1  0
 15 16  2  0
 17 16  1  0
 18 10  1  0
 19 18  2  0
 21 22  1  0
 21 20  1  1
 22 18  1  0
 23 21  1  0
 24 23  2  0
 25 23  1  0
M  END
$$$$
