MFA.pdb
     RDKit          3D

 25 25  0  0  1  0  0  0  0  0999 V2000
    8.1884  -11.4670   19.6917 C   0  0  0  0  0  0  0  0  0  0  0  0
    6.9078  -12.6438   20.0598 S   0  0  0  0  0  0  0  0  0  0  0  0
    7.3664  -14.0823   20.9763 C   0  0  0  0  0  0  0  0  0  0  0  0
    8.7209  -14.6666   20.7833 C   0  0  0  0  0  0  0  0  0  0  0  0
    8.9929  -15.9508   21.4709 C   0  0  2  0  0  0  0  0  0  0  0  0
    7.8480  -16.8104   21.5216 N   0  0  0  0  0  0  0  0  0  0  0  0
    9.4211  -15.7121   22.8956 C   0  0  0  0  0  0  0  0  0  0  0  0
   10.4504  -15.0737   23.1305 O   0  0  0  0  0  0  0  0  0  0  0  0
    8.6746  -16.2002   23.9710 N   0  0  0  0  0  0  0  0  0  0  0  0
    8.9123  -15.9819   25.3545 C   0  0  1  0  0  0  0  0  0  0  0  0
    7.7241  -15.7335   26.2022 C   0  0  0  0  0  0  0  0  0  0  0  0
    7.3494  -14.3082   26.3396 C   0  0  0  0  0  0  0  0  0  0  0  0
    6.0610  -13.8868   26.1181 C   0  0  0  0  0  0  0  0  0  0  0  0
    5.6746  -12.5674   26.2409 C   0  0  0  0  0  0  0  0  0  0  0  0
    6.6142  -11.6302   26.5998 C   0  0  0  0  0  0  0  0  0  0  0  0
    7.9170  -12.0103   26.8315 C   0  0  0  0  0  0  0  0  0  0  0  0
    8.2724  -13.3536   26.6979 C   0  0  0  0  0  0  0  0  0  0  0  0
    9.6409  -17.1790   25.8873 C   0  0  0  0  0  0  0  0  0  0  0  0
    9.7041  -17.3966   27.1260 O   0  0  0  0  0  0  0  0  0  0  0  0
   10.9502  -20.4373   24.5598 C   0  0  0  0  0  0  0  0  0  0  0  0
   10.9095  -19.3201   25.5483 C   0  0  2  0  0  0  0  0  0  0  0  0
   10.2899  -18.1184   25.0312 N   0  0  0  0  0  0  0  0  0  0  0  0
   12.2748  -19.0491   26.0746 C   0  0  0  0  0  0  0  0  0  0  0  0
   12.7906  -17.9246   25.8541 O   0  0  0  0  0  0  0  0  0  0  0  0
   13.0165  -19.9685   26.7972 O   0  0  0  0  0  0  0  0  0  0  0  0
  1  2  1  0
  2  3  1  0
  4  5  1  0
  4  3  1  0
  5  6  1  1
  7  5  1  0
  7  8  2  0
  9  7  1  0
 10  9  1  0
 11 12  1  0
 10 11  1  1
 12 17  2  0
 13 12  1  0
 13 14  2  0
 14 15  1  0
 15 16  2  0
 17 16  1  0
 18 10  1  0
 19 18  2  0
 21 22  1  0
 21 20  1  6
 22 18  1  0
 23 21  1  0
 24 23  2  0
 25 23  1  0
M  END
$$$$
