MFA.pdb
     RDKit          3D

 25 25  0  0  1  0  0  0  0  0999 V2000
    8.7486  -11.4704   19.2652 C   0  0  0  0  0  0  0  0  0  0  0  0
    7.6084  -12.7532   18.8016 S   0  0  0  0  0  0  0  0  0  0  0  0
    7.7832  -14.3206   19.5965 C   0  0  0  0  0  0  0  0  0  0  0  0
    8.5423  -14.4083   20.8731 C   0  0  0  0  0  0  0  0  0  0  0  0
    8.7473  -15.7659   21.4304 C   0  0  2  0  0  0  0  0  0  0  0  0
    7.5403  -16.5357   21.4837 N   0  0  0  0  0  0  0  0  0  0  0  0
    9.2769  -15.6893   22.8389 C   0  0  0  0  0  0  0  0  0  0  0  0
   10.3532  -15.1291   23.0624 O   0  0  0  0  0  0  0  0  0  0  0  0
    8.5730  -16.2422   23.9118 N   0  0  0  0  0  0  0  0  0  0  0  0
    8.8973  -16.1537   25.2921 C   0  0  1  0  0  0  0  0  0  0  0  0
    7.7936  -15.7983   26.2128 C   0  0  0  0  0  0  0  0  0  0  0  0
    7.4761  -14.3537   26.2691 C   0  0  0  0  0  0  0  0  0  0  0  0
    6.2361  -13.8834   25.9118 C   0  0  0  0  0  0  0  0  0  0  0  0
    5.9033  -12.5446   25.9557 C   0  0  0  0  0  0  0  0  0  0  0  0
    6.8484  -11.6380   26.3740 C   0  0  0  0  0  0  0  0  0  0  0  0
    8.1038  -12.0673   26.7415 C   0  0  0  0  0  0  0  0  0  0  0  0
    8.4057  -13.4291   26.6846 C   0  0  0  0  0  0  0  0  0  0  0  0
    9.4675  -17.4749   25.7129 C   0  0  0  0  0  0  0  0  0  0  0  0
    8.7349  -18.4956   25.7980 O   0  0  0  0  0  0  0  0  0  0  0  0
   12.7745  -19.1623   25.9379 C   0  0  0  0  0  0  0  0  0  0  0  0
   11.3889  -18.9215   26.4369 C   0  0  2  0  0  0  0  0  0  0  0  0
   10.8481  -17.6407   26.0337 N   0  0  0  0  0  0  0  0  0  0  0  0
   11.3363  -19.0975   27.9136 C   0  0  0  0  0  0  0  0  0  0  0  0
   11.7862  -20.1619   28.4074 O   0  0  0  0  0  0  0  0  0  0  0  0
   10.8174  -18.1522   28.7824 O   0  0  0  0  0  0  0  0  0  0  0  0
  1  2  1  0
  2  3  1  0
  4  5  1  0
  4  3  1  0
  5  6  1  1
  7  5  1  0
  7  8  2  0
  9  7  1  0
 10  9  1  0
 11 12  1  0
 10 11  1  1
 12 17  2  0
 13 12  1  0
 13 14  2  0
 14 15  1  0
 15 16  2  0
 17 16  1  0
 18 10  1  0
 19 18  2  0
 21 22  1  0
 21 20  1  1
 22 18  1  0
 23 21  1  0
 24 23  2  0
 25 23  1  0
M  END
$$$$
