MFA.pdb
     RDKit          3D

 25 25  0  0  1  0  0  0  0  0999 V2000
    8.8592  -12.2062   18.1258 C   0  0  0  0  0  0  0  0  0  0  0  0
    8.1482  -13.7397   17.5753 S   0  0  0  0  0  0  0  0  0  0  0  0
    8.3797  -15.1571   18.6033 C   0  0  0  0  0  0  0  0  0  0  0  0
    9.3927  -15.1086   19.6918 C   0  0  0  0  0  0  0  0  0  0  0  0
    9.3183  -16.1782   20.7146 C   0  0  2  0  0  0  0  0  0  0  0  0
    8.0964  -16.9236   20.6551 N   0  0  0  0  0  0  0  0  0  0  0  0
    9.4058  -15.5962   22.1016 C   0  0  0  0  0  0  0  0  0  0  0  0
   10.4408  -15.0344   22.4695 O   0  0  0  0  0  0  0  0  0  0  0  0
    8.3329  -15.6763   22.9931 N   0  0  0  0  0  0  0  0  0  0  0  0
    8.1577  -14.9449   24.1983 C   0  0  1  0  0  0  0  0  0  0  0  0
    6.8725  -14.2278   24.3599 C   0  0  0  0  0  0  0  0  0  0  0  0
    6.8317  -13.2801   25.4962 C   0  0  0  0  0  0  0  0  0  0  0  0
    5.8229  -13.3286   26.4270 C   0  0  0  0  0  0  0  0  0  0  0  0
    5.7548  -12.4644   27.5011 C   0  0  0  0  0  0  0  0  0  0  0  0
    6.7352  -11.5124   27.6516 C   0  0  0  0  0  0  0  0  0  0  0  0
    7.7646  -11.4296   26.7411 C   0  0  0  0  0  0  0  0  0  0  0  0
    7.8016  -12.3201   25.6666 C   0  0  0  0  0  0  0  0  0  0  0  0
    8.3211  -15.9016   25.3410 C   0  0  0  0  0  0  0  0  0  0  0  0
    8.1502  -15.5216   26.5294 O   0  0  0  0  0  0  0  0  0  0  0  0
    8.4293  -19.5737   25.9627 C   0  0  0  0  0  0  0  0  0  0  0  0
    8.8646  -18.1767   26.2559 C   0  0  2  0  0  0  0  0  0  0  0  0
    8.6731  -17.2704   25.1435 N   0  0  0  0  0  0  0  0  0  0  0  0
   10.2739  -18.1669   26.7337 C   0  0  0  0  0  0  0  0  0  0  0  0
   11.1203  -17.4953   26.0920 O   0  0  0  0  0  0  0  0  0  0  0  0
   10.7118  -18.8587   27.8505 O   0  0  0  0  0  0  0  0  0  0  0  0
  1  2  1  0
  2  3  1  0
  4  5  1  0
  4  3  1  0
  5  6  1  1
  7  5  1  0
  7  8  2  0
  9  7  1  0
 10  9  1  0
 11 12  1  0
 10 11  1  6
 12 17  2  0
 13 12  1  0
 13 14  2  0
 14 15  1  0
 15 16  2  0
 17 16  1  0
 18 10  1  0
 19 18  2  0
 21 22  1  0
 21 20  1  6
 22 18  1  0
 23 21  1  0
 24 23  2  0
 25 23  1  0
M  END
$$$$
