MFA.pdb
     RDKit          3D

 25 25  0  0  1  0  0  0  0  0999 V2000
    8.3585  -11.3549   19.2911 C   0  0  0  0  0  0  0  0  0  0  0  0
    7.3323  -12.7184   18.7931 S   0  0  0  0  0  0  0  0  0  0  0  0
    7.6243  -14.2790   19.5668 C   0  0  0  0  0  0  0  0  0  0  0  0
    8.4854  -14.3404   20.7784 C   0  0  0  0  0  0  0  0  0  0  0  0
    8.7393  -15.6865   21.3437 C   0  0  2  0  0  0  0  0  0  0  0  0
    7.5698  -16.5136   21.3629 N   0  0  0  0  0  0  0  0  0  0  0  0
    9.2231  -15.5841   22.7669 C   0  0  0  0  0  0  0  0  0  0  0  0
   10.3030  -15.0403   23.0126 O   0  0  0  0  0  0  0  0  0  0  0  0
    8.4724  -16.0947   23.8289 N   0  0  0  0  0  0  0  0  0  0  0  0
    8.7684  -16.0038   25.2154 C   0  0  1  0  0  0  0  0  0  0  0  0
    7.6408  -15.6718   26.1156 C   0  0  0  0  0  0  0  0  0  0  0  0
    7.3258  -14.2284   26.2059 C   0  0  0  0  0  0  0  0  0  0  0  0
    6.0705  -13.7546   25.9126 C   0  0  0  0  0  0  0  0  0  0  0  0
    5.7396  -12.4168   25.9897 C   0  0  0  0  0  0  0  0  0  0  0  0
    6.7027  -11.5149   26.3761 C   0  0  0  0  0  0  0  0  0  0  0  0
    7.9739  -11.9480   26.6794 C   0  0  0  0  0  0  0  0  0  0  0  0
    8.2733  -13.3086   26.5904 C   0  0  0  0  0  0  0  0  0  0  0  0
    9.3555  -17.3151   25.6440 C   0  0  0  0  0  0  0  0  0  0  0  0
    8.6631  -18.3668   25.6300 O   0  0  0  0  0  0  0  0  0  0  0  0
   12.7228  -18.8420   26.0720 C   0  0  0  0  0  0  0  0  0  0  0  0
   11.2819  -18.7166   26.4396 C   0  0  2  0  0  0  0  0  0  0  0  0
   10.7079  -17.4365   26.0830 N   0  0  0  0  0  0  0  0  0  0  0  0
   11.0918  -19.0185   27.8843 C   0  0  0  0  0  0  0  0  0  0  0  0
   11.4918  -20.1259   28.3236 O   0  0  0  0  0  0  0  0  0  0  0  0
   10.4957  -18.1465   28.7798 O   0  0  0  0  0  0  0  0  0  0  0  0
  1  2  1  0
  2  3  1  0
  4  5  1  0
  4  3  1  0
  5  6  1  1
  7  5  1  0
  7  8  2  0
  9  7  1  0
 10  9  1  0
 11 12  1  0
 10 11  1  1
 12 17  2  0
 13 12  1  0
 13 14  2  0
 14 15  1  0
 15 16  2  0
 17 16  1  0
 18 10  1  0
 19 18  2  0
 21 22  1  0
 21 20  1  1
 22 18  1  0
 23 21  1  0
 24 23  2  0
 25 23  1  0
M  END
$$$$
