MFA.pdb
     RDKit          3D

 25 25  0  0  1  0  0  0  0  0999 V2000
    8.7361  -11.3642   19.7416 C   0  0  0  0  0  0  0  0  0  0  0  0
    7.3989  -12.4124   19.2189 S   0  0  0  0  0  0  0  0  0  0  0  0
    7.3111  -14.0290   19.9247 C   0  0  0  0  0  0  0  0  0  0  0  0
    8.5711  -14.7490   20.2525 C   0  0  0  0  0  0  0  0  0  0  0  0
    8.4297  -16.0465   20.9541 C   0  0  2  0  0  0  0  0  0  0  0  0
    7.0725  -16.5002   21.0208 N   0  0  0  0  0  0  0  0  0  0  0  0
    8.9235  -15.9413   22.3736 C   0  0  0  0  0  0  0  0  0  0  0  0
   10.0833  -15.5848   22.5974 O   0  0  0  0  0  0  0  0  0  0  0  0
    8.0930  -16.2400   23.4568 N   0  0  0  0  0  0  0  0  0  0  0  0
    8.3867  -16.0804   24.8375 C   0  0  1  0  0  0  0  0  0  0  0  0
    7.2611  -15.6880   25.7157 C   0  0  0  0  0  0  0  0  0  0  0  0
    7.1274  -14.2305   25.9358 C   0  0  0  0  0  0  0  0  0  0  0  0
    5.9006  -13.6143   25.8942 C   0  0  0  0  0  0  0  0  0  0  0  0
    5.7374  -12.2591   26.0986 C   0  0  0  0  0  0  0  0  0  0  0  0
    6.8458  -11.4873   26.3554 C   0  0  0  0  0  0  0  0  0  0  0  0
    8.0944  -12.0652   26.4061 C   0  0  0  0  0  0  0  0  0  0  0  0
    8.2221  -13.4391   26.1944 C   0  0  0  0  0  0  0  0  0  0  0  0
    8.9565  -17.3745   25.3359 C   0  0  0  0  0  0  0  0  0  0  0  0
    8.2125  -18.3691   25.5434 O   0  0  0  0  0  0  0  0  0  0  0  0
   11.7026  -19.3888   24.7040 C   0  0  0  0  0  0  0  0  0  0  0  0
   10.9248  -18.8455   25.8559 C   0  0  2  0  0  0  0  0  0  0  0  0
   10.3495  -17.5427   25.5965 N   0  0  0  0  0  0  0  0  0  0  0  0
   11.7636  -18.8386   27.0851 C   0  0  0  0  0  0  0  0  0  0  0  0
   12.2152  -19.9319   27.5094 O   0  0  0  0  0  0  0  0  0  0  0  0
   12.0781  -17.6918   27.7946 O   0  0  0  0  0  0  0  0  0  0  0  0
  1  2  1  0
  2  3  1  0
  4  5  1  0
  4  3  1  0
  5  6  1  1
  7  5  1  0
  7  8  2  0
  9  7  1  0
 10  9  1  0
 11 12  1  0
 10 11  1  1
 12 17  2  0
 13 12  1  0
 13 14  2  0
 14 15  1  0
 15 16  2  0
 17 16  1  0
 18 10  1  0
 19 18  2  0
 21 22  1  0
 21 20  1  6
 22 18  1  0
 23 21  1  0
 24 23  2  0
 25 23  1  0
M  END
$$$$
