MFA.pdb
     RDKit          3D

 25 25  0  0  1  0  0  0  0  0999 V2000
    8.0004  -11.4233   19.7435 C   0  0  0  0  0  0  0  0  0  0  0  0
    6.9390  -12.8153   19.4336 S   0  0  0  0  0  0  0  0  0  0  0  0
    7.3135  -14.3241   20.2718 C   0  0  0  0  0  0  0  0  0  0  0  0
    8.7127  -14.8296   20.2695 C   0  0  0  0  0  0  0  0  0  0  0  0
    8.9631  -16.0910   21.0057 C   0  0  2  0  0  0  0  0  0  0  0  0
    7.8309  -16.9688   21.0104 N   0  0  0  0  0  0  0  0  0  0  0  0
    9.3007  -15.8089   22.4467 C   0  0  0  0  0  0  0  0  0  0  0  0
   10.3196  -15.1722   22.7272 O   0  0  0  0  0  0  0  0  0  0  0  0
    8.4807  -16.2543   23.4866 N   0  0  0  0  0  0  0  0  0  0  0  0
    8.6791  -16.0672   24.8808 C   0  0  1  0  0  0  0  0  0  0  0  0
    7.4733  -15.7835   25.6918 C   0  0  0  0  0  0  0  0  0  0  0  0
    7.2533  -14.3511   25.9928 C   0  0  0  0  0  0  0  0  0  0  0  0
    6.0592  -13.7382   25.7017 C   0  0  0  0  0  0  0  0  0  0  0  0
    5.8171  -12.4064   25.9718 C   0  0  0  0  0  0  0  0  0  0  0  0
    6.8091  -11.6558   26.5571 C   0  0  0  0  0  0  0  0  0  0  0  0
    8.0212  -12.2314   26.8657 C   0  0  0  0  0  0  0  0  0  0  0  0
    8.2312  -13.5812   26.5782 C   0  0  0  0  0  0  0  0  0  0  0  0
    9.3399  -17.3012   25.4179 C   0  0  0  0  0  0  0  0  0  0  0  0
    8.7804  -18.4253   25.3232 O   0  0  0  0  0  0  0  0  0  0  0  0
   12.7409  -18.4666   26.3392 C   0  0  0  0  0  0  0  0  0  0  0  0
   11.2618  -18.4677   26.5377 C   0  0  2  0  0  0  0  0  0  0  0  0
   10.6169  -17.2654   26.0539 N   0  0  0  0  0  0  0  0  0  0  0  0
   10.9349  -18.7274   27.9660 C   0  0  0  0  0  0  0  0  0  0  0  0
   10.2062  -17.9038   28.5741 O   0  0  0  0  0  0  0  0  0  0  0  0
   11.3891  -19.8298   28.6703 O   0  0  0  0  0  0  0  0  0  0  0  0
  1  2  1  0
  2  3  1  0
  4  5  1  0
  4  3  1  0
  5  6  1  1
  7  5  1  0
  7  8  2  0
  9  7  1  0
 10  9  1  0
 11 12  1  0
 10 11  1  1
 12 17  2  0
 13 12  1  0
 13 14  2  0
 14 15  1  0
 15 16  2  0
 17 16  1  0
 18 10  1  0
 19 18  2  0
 21 22  1  0
 21 20  1  1
 22 18  1  0
 23 21  1  0
 24 23  2  0
 25 23  1  0
M  END
$$$$
