WWI.pdb
     RDKit          3D

 37 40  0  0  1  0  0  0  0  0999 V2000
    8.8786  -19.2030   20.2730 N   0  0  0  0  0  0  0  0  0  0  0  0
    9.1429  -17.7586   20.4280 C   0  0  1  0  0  0  0  0  0  0  0  0
    8.4504  -16.9810   19.3722 C   0  0  0  0  0  0  0  0  0  0  0  0
    8.9772  -15.6292   19.1270 C   0  0  0  0  0  0  0  0  0  0  0  0
   10.0126  -15.2592   18.3093 C   0  0  0  0  0  0  0  0  0  0  0  0
   10.1142  -13.9280   18.3600 N   0  0  0  0  0  0  0  0  0  0  0  0
    9.1666  -13.4233   19.1944 C   0  0  0  0  0  0  0  0  0  0  0  0
    8.8547  -12.1243   19.5750 C   0  0  0  0  0  0  0  0  0  0  0  0
    7.8113  -11.9465   20.4469 C   0  0  0  0  0  0  0  0  0  0  0  0
    7.0747  -12.9987   20.9496 C   0  0  0  0  0  0  0  0  0  0  0  0
    7.3902  -14.2950   20.5661 C   0  0  0  0  0  0  0  0  0  0  0  0
    8.4359  -14.4663   19.6923 C   0  0  0  0  0  0  0  0  0  0  0  0
    8.5783  -17.3763   21.7758 C   0  0  0  0  0  0  0  0  0  0  0  0
    7.4072  -16.9504   21.8001 O   0  0  0  0  0  0  0  0  0  0  0  0
    9.3625  -17.5044   22.9380 N   0  0  0  0  0  0  0  0  0  0  0  0
    9.1690  -16.7891   24.1333 C   0  0  1  0  0  0  0  0  0  0  0  0
    7.8850  -17.1063   24.8159 C   0  0  0  0  0  0  0  0  0  0  0  0
    7.0063  -15.9571   25.1031 C   0  0  0  0  0  0  0  0  0  0  0  0
    5.6595  -16.0418   25.4041 C   0  0  0  0  0  0  0  0  0  0  0  0
    5.1549  -14.8030   25.6643 N   0  0  0  0  0  0  0  0  0  0  0  0
    6.1342  -13.9158   25.5403 C   0  0  0  0  0  0  0  0  0  0  0  0
    6.1399  -12.5482   25.6809 C   0  0  0  0  0  0  0  0  0  0  0  0
    7.3080  -11.8363   25.4747 C   0  0  0  0  0  0  0  0  0  0  0  0
    8.4634  -12.4920   25.1289 C   0  0  0  0  0  0  0  0  0  0  0  0
    8.4286  -13.8816   24.9933 C   0  0  0  0  0  0  0  0  0  0  0  0
    7.2838  -14.6050   25.1945 C   0  0  0  0  0  0  0  0  0  0  0  0
   10.3479  -16.9873   25.0490 C   0  0  0  0  0  0  0  0  0  0  0  0
   11.2804  -17.7788   24.8581 O   0  0  0  0  0  0  0  0  0  0  0  0
   10.3123  -15.5635   30.3259 C   0  0  0  0  0  0  0  0  0  0  0  0
   10.0868  -15.0870   28.8980 C   0  0  0  0  0  0  0  0  0  0  0  0
   11.3759  -15.0408   28.1192 C   0  0  2  0  0  0  0  0  0  0  0  0
   11.5108  -13.6821   27.4919 C   0  0  0  0  0  0  0  0  0  0  0  0
   11.4659  -16.1956   27.1910 C   0  0  2  0  0  0  0  0  0  0  0  0
   10.3803  -16.2001   26.2136 N   0  0  0  0  0  0  0  0  0  0  0  0
   11.3735  -17.4621   27.9110 C   0  0  0  0  0  0  0  0  0  0  0  0
   10.3137  -18.1287   27.8865 O   0  0  0  0  0  0  0  0  0  0  0  0
   12.4232  -17.9710   28.6313 O   0  0  0  0  0  0  0  0  0  0  0  0
  2  3  1  0
  2  1  1  6
  4  3  1  0
  4  5  2  0
  6  5  1  0
  7 12  2  0
  7  6  1  0
  8  7  1  0
  9 10  1  0
  9  8  2  0
 10 11  2  0
 11 12  1  0
 12  4  1  0
 13  2  1  0
 14 13  2  0
 15 13  1  0
 16 17  1  1
 16 15  1  0
 18 17  1  0
 19 18  2  0
 20 19  1  0
 21 20  1  0
 21 26  2  0
 22 23  2  0
 22 21  1  0
 23 24  1  0
 24 25  2  0
 26 25  1  0
 26 18  1  0
 27 16  1  0
 28 27  2  0
 30 29  1  0
 31 30  1  0
 31 32  1  6
 33 31  1  0
 33 34  1  6
 34 27  1  0
 35 37  1  0
 35 33  1  0
 36 35  2  0
M  END
$$$$
