WWI.pdb
     RDKit          3D

 37 40  0  0  1  0  0  0  0  0999 V2000
   11.8832  -18.1045   19.6311 N   0  0  0  0  0  0  0  0  0  0  0  0
   11.1288  -18.6247   20.7889 C   0  0  1  0  0  0  0  0  0  0  0  0
   11.9296  -19.6284   21.5304 C   0  0  0  0  0  0  0  0  0  0  0  0
   12.0600  -20.9437   20.8840 C   0  0  0  0  0  0  0  0  0  0  0  0
   13.0813  -21.4014   20.0935 C   0  0  0  0  0  0  0  0  0  0  0  0
   12.8029  -22.6652   19.7617 N   0  0  0  0  0  0  0  0  0  0  0  0
   11.6208  -23.0402   20.3194 C   0  0  0  0  0  0  0  0  0  0  0  0
   10.9084  -24.2321   20.2833 C   0  0  0  0  0  0  0  0  0  0  0  0
    9.7253  -24.2912   20.9741 C   0  0  0  0  0  0  0  0  0  0  0  0
    9.2288  -23.2227   21.6912 C   0  0  0  0  0  0  0  0  0  0  0  0
    9.9445  -22.0338   21.7244 C   0  0  0  0  0  0  0  0  0  0  0  0
   11.1287  -21.9811   21.0308 C   0  0  0  0  0  0  0  0  0  0  0  0
   10.8725  -17.4356   21.6845 C   0  0  0  0  0  0  0  0  0  0  0  0
   11.8177  -16.6419   21.8577 O   0  0  0  0  0  0  0  0  0  0  0  0
    9.6121  -17.2561   22.2854 N   0  0  0  0  0  0  0  0  0  0  0  0
    9.2866  -16.2452   23.2074 C   0  0  1  0  0  0  0  0  0  0  0  0
    7.9368  -15.6558   22.9928 C   0  0  0  0  0  0  0  0  0  0  0  0
    7.6786  -14.3718   23.6711 C   0  0  0  0  0  0  0  0  0  0  0  0
    8.1171  -13.1372   23.2294 C   0  0  0  0  0  0  0  0  0  0  0  0
    7.6666  -12.1524   24.0567 N   0  0  0  0  0  0  0  0  0  0  0  0
    6.9490  -12.7112   25.0232 C   0  0  0  0  0  0  0  0  0  0  0  0
    6.2988  -12.1602   26.1020 C   0  0  0  0  0  0  0  0  0  0  0  0
    5.6246  -12.9752   26.9938 C   0  0  0  0  0  0  0  0  0  0  0  0
    5.6033  -14.3348   26.8051 C   0  0  0  0  0  0  0  0  0  0  0  0
    6.2721  -14.8670   25.7007 C   0  0  0  0  0  0  0  0  0  0  0  0
    6.9436  -14.0782   24.8055 C   0  0  0  0  0  0  0  0  0  0  0  0
    9.4509  -16.7579   24.6136 C   0  0  0  0  0  0  0  0  0  0  0  0
    9.3501  -17.9412   24.9630 O   0  0  0  0  0  0  0  0  0  0  0  0
   10.0386  -12.5830   28.3643 C   0  0  0  0  0  0  0  0  0  0  0  0
   10.5071  -13.7171   27.4637 C   0  0  0  0  0  0  0  0  0  0  0  0
    9.9583  -15.0459   27.9151 C   0  0  2  0  0  0  0  0  0  0  0  0
   10.4139  -15.3013   29.3239 C   0  0  0  0  0  0  0  0  0  0  0  0
   10.2804  -16.1057   26.9270 C   0  0  2  0  0  0  0  0  0  0  0  0
    9.7449  -15.8023   25.6023 N   0  0  0  0  0  0  0  0  0  0  0  0
    9.7021  -17.3878   27.3182 C   0  0  0  0  0  0  0  0  0  0  0  0
   10.2087  -18.0530   28.2504 O   0  0  0  0  0  0  0  0  0  0  0  0
    8.5979  -17.9110   26.6964 O   0  0  0  0  0  0  0  0  0  0  0  0
  2  3  1  0
  2  1  1  6
  4  3  1  0
  4  5  2  0
  6  5  1  0
  7 12  2  0
  7  6  1  0
  8  7  1  0
  9 10  1  0
  9  8  2  0
 10 11  2  0
 11 12  1  0
 12  4  1  0
 13  2  1  0
 14 13  2  0
 15 13  1  0
 16 17  1  6
 16 15  1  0
 18 17  1  0
 19 18  2  0
 20 19  1  0
 21 20  1  0
 21 26  2  0
 22 23  2  0
 22 21  1  0
 23 24  1  0
 24 25  2  0
 26 25  1  0
 26 18  1  0
 27 16  1  0
 28 27  2  0
 30 29  1  0
 31 30  1  0
 31 32  1  1
 33 31  1  0
 33 34  1  6
 34 27  1  0
 35 37  1  0
 35 33  1  0
 36 35  2  0
M  END
$$$$
