WWI.pdb
     RDKit          3D

 37 40  0  0  1  0  0  0  0  0999 V2000
    8.8469  -16.8436   22.2294 N   0  0  0  0  0  0  0  0  0  0  0  0
    9.3474  -15.5071   22.6077 C   0  0  1  0  0  0  0  0  0  0  0  0
    8.3242  -14.4675   22.3413 C   0  0  0  0  0  0  0  0  0  0  0  0
    7.8597  -14.3723   20.9484 C   0  0  0  0  0  0  0  0  0  0  0  0
    6.6982  -14.8582   20.4079 C   0  0  0  0  0  0  0  0  0  0  0  0
    6.6705  -14.5041   19.1200 N   0  0  0  0  0  0  0  0  0  0  0  0
    7.7904  -13.7979   18.8102 C   0  0  0  0  0  0  0  0  0  0  0  0
    8.2265  -13.2107   17.6293 C   0  0  0  0  0  0  0  0  0  0  0  0
    9.4265  -12.5474   17.6501 C   0  0  0  0  0  0  0  0  0  0  0  0
   10.2009  -12.4468   18.7869 C   0  0  0  0  0  0  0  0  0  0  0  0
    9.7607  -13.0350   19.9647 C   0  0  0  0  0  0  0  0  0  0  0  0
    8.5579  -13.6975   19.9374 C   0  0  0  0  0  0  0  0  0  0  0  0
    9.6148  -15.5700   24.0931 C   0  0  0  0  0  0  0  0  0  0  0  0
   10.0886  -14.5487   24.6278 O   0  0  0  0  0  0  0  0  0  0  0  0
    9.3329  -16.7437   24.8176 N   0  0  0  0  0  0  0  0  0  0  0  0
    9.4422  -16.8849   26.2127 C   0  0  1  0  0  0  0  0  0  0  0  0
    8.1311  -16.8724   26.9169 C   0  0  0  0  0  0  0  0  0  0  0  0
    7.2687  -15.7053   26.6534 C   0  0  0  0  0  0  0  0  0  0  0  0
    5.9925  -15.7631   26.1246 C   0  0  0  0  0  0  0  0  0  0  0  0
    5.4533  -14.5136   26.0547 N   0  0  0  0  0  0  0  0  0  0  0  0
    6.3421  -13.6456   26.5217 C   0  0  0  0  0  0  0  0  0  0  0  0
    6.2914  -12.2775   26.6481 C   0  0  0  0  0  0  0  0  0  0  0  0
    7.3787  -11.5888   27.1554 C   0  0  0  0  0  0  0  0  0  0  0  0
    8.5103  -12.2680   27.5330 C   0  0  0  0  0  0  0  0  0  0  0  0
    8.5338  -13.6574   27.3938 C   0  0  0  0  0  0  0  0  0  0  0  0
    7.4683  -14.3582   26.8958 C   0  0  0  0  0  0  0  0  0  0  0  0
   10.2387  -18.1190   26.5447 C   0  0  0  0  0  0  0  0  0  0  0  0
   10.2273  -18.7101   27.6323 O   0  0  0  0  0  0  0  0  0  0  0  0
   13.8853  -19.8529   22.3970 C   0  0  0  0  0  0  0  0  0  0  0  0
   13.3038  -19.3455   23.7090 C   0  0  0  0  0  0  0  0  0  0  0  0
   12.3200  -20.3251   24.2947 C   0  0  2  0  0  0  0  0  0  0  0  0
   11.2500  -20.5998   23.2761 C   0  0  0  0  0  0  0  0  0  0  0  0
   11.8474  -19.8586   25.6222 C   0  0  2  0  0  0  0  0  0  0  0  0
   11.0582  -18.6332   25.5244 N   0  0  0  0  0  0  0  0  0  0  0  0
   12.9683  -19.5539   26.5063 C   0  0  0  0  0  0  0  0  0  0  0  0
   13.1786  -18.3773   26.8799 O   0  0  0  0  0  0  0  0  0  0  0  0
   13.8243  -20.5235   26.9610 O   0  0  0  0  0  0  0  0  0  0  0  0
  2  3  1  0
  2  1  1  1
  4  3  1  0
  4  5  2  0
  6  5  1  0
  7 12  2  0
  7  6  1  0
  8  7  1  0
  9 10  1  0
  9  8  2  0
 10 11  2  0
 11 12  1  0
 12  4  1  0
 13  2  1  0
 14 13  2  0
 15 13  1  0
 16 17  1  1
 16 15  1  0
 18 17  1  0
 19 18  2  0
 20 19  1  0
 21 20  1  0
 21 26  2  0
 22 23  2  0
 22 21  1  0
 23 24  1  0
 24 25  2  0
 26 25  1  0
 26 18  1  0
 27 16  1  0
 28 27  2  0
 30 29  1  0
 31 30  1  0
 31 32  1  6
 33 31  1  0
 33 34  1  6
 34 27  1  0
 35 37  1  0
 35 33  1  0
 36 35  2  0
M  END
$$$$
