WWI.pdb
     RDKit          3D

 37 40  0  0  1  0  0  0  0  0999 V2000
    7.0771  -18.9620   26.1213 N   0  0  0  0  0  0  0  0  0  0  0  0
    7.9579  -19.6320   25.1439 C   0  0  1  0  0  0  0  0  0  0  0  0
    7.3294  -20.8750   24.6351 C   0  0  0  0  0  0  0  0  0  0  0  0
    7.0037  -21.8871   25.6521 C   0  0  0  0  0  0  0  0  0  0  0  0
    6.4542  -23.1284   25.4660 C   0  0  0  0  0  0  0  0  0  0  0  0
    6.3753  -23.7208   26.6609 N   0  0  0  0  0  0  0  0  0  0  0  0
    6.8617  -22.8907   27.6217 C   0  0  0  0  0  0  0  0  0  0  0  0
    7.0041  -23.0361   28.9958 C   0  0  0  0  0  0  0  0  0  0  0  0
    7.5507  -21.9914   29.6961 C   0  0  0  0  0  0  0  0  0  0  0  0
    7.9566  -20.8210   29.0896 C   0  0  0  0  0  0  0  0  0  0  0  0
    7.8125  -20.6807   27.7161 C   0  0  0  0  0  0  0  0  0  0  0  0
    7.2646  -21.7306   27.0204 C   0  0  0  0  0  0  0  0  0  0  0  0
    8.1256  -18.6581   24.0015 C   0  0  0  0  0  0  0  0  0  0  0  0
    8.5866  -19.1088   22.9349 O   0  0  0  0  0  0  0  0  0  0  0  0
    7.7697  -17.3054   24.1618 N   0  0  0  0  0  0  0  0  0  0  0  0
    8.2606  -16.2376   23.3891 C   0  0  1  0  0  0  0  0  0  0  0  0
    7.2544  -15.1688   23.1432 C   0  0  0  0  0  0  0  0  0  0  0  0
    6.7309  -14.4879   24.3422 C   0  0  0  0  0  0  0  0  0  0  0  0
    6.2333  -15.1244   25.4643 C   0  0  0  0  0  0  0  0  0  0  0  0
    5.8781  -14.2082   26.4084 N   0  0  0  0  0  0  0  0  0  0  0  0
    6.1297  -12.9951   25.9323 C   0  0  0  0  0  0  0  0  0  0  0  0
    5.9368  -11.7493   26.4810 C   0  0  0  0  0  0  0  0  0  0  0  0
    6.2684  -10.6165   25.7594 C   0  0  0  0  0  0  0  0  0  0  0  0
    6.7895  -10.7324   24.4947 C   0  0  0  0  0  0  0  0  0  0  0  0
    6.9748  -12.0102   23.9625 C   0  0  0  0  0  0  0  0  0  0  0  0
    6.6551  -13.1439   24.6603 C   0  0  0  0  0  0  0  0  0  0  0  0
    9.5157  -15.6856   24.0115 C   0  0  0  0  0  0  0  0  0  0  0  0
   10.3078  -14.9085   23.4627 O   0  0  0  0  0  0  0  0  0  0  0  0
    9.2915  -13.9106   29.0867 C   0  0  0  0  0  0  0  0  0  0  0  0
    9.7936  -14.1165   27.6646 C   0  0  0  0  0  0  0  0  0  0  0  0
   10.5787  -15.3959   27.5340 C   0  0  2  0  0  0  0  0  0  0  0  0
   11.7222  -15.3605   28.5081 C   0  0  0  0  0  0  0  0  0  0  0  0
   10.9420  -15.6422   26.1160 C   0  0  2  0  0  0  0  0  0  0  0  0
    9.7987  -16.0940   25.3269 N   0  0  0  0  0  0  0  0  0  0  0  0
   11.9556  -16.6867   26.0029 C   0  0  0  0  0  0  0  0  0  0  0  0
   13.1229  -16.4829   26.4077 O   0  0  0  0  0  0  0  0  0  0  0  0
   11.6805  -17.9155   25.4606 O   0  0  0  0  0  0  0  0  0  0  0  0
  2  3  1  0
  2  1  1  1
  4  3  1  0
  4  5  2  0
  6  5  1  0
  7 12  2  0
  7  6  1  0
  8  7  1  0
  9 10  1  0
  9  8  2  0
 10 11  2  0
 11 12  1  0
 12  4  1  0
 13  2  1  0
 14 13  2  0
 15 13  1  0
 16 17  1  1
 16 15  1  0
 18 17  1  0
 19 18  2  0
 20 19  1  0
 21 20  1  0
 21 26  2  0
 22 23  2  0
 22 21  1  0
 23 24  1  0
 24 25  2  0
 26 25  1  0
 26 18  1  0
 27 16  1  0
 28 27  2  0
 30 29  1  0
 31 30  1  0
 31 32  1  1
 33 31  1  0
 33 34  1  6
 34 27  1  0
 35 37  1  0
 35 33  1  0
 36 35  2  0
M  END
$$$$
