WWI.pdb
     RDKit          3D

 37 40  0  0  1  0  0  0  0  0999 V2000
   11.0062  -17.0849   20.7530 N   0  0  0  0  0  0  0  0  0  0  0  0
   10.0646  -16.3531   21.6235 C   0  0  1  0  0  0  0  0  0  0  0  0
    8.6761  -16.8298   21.4144 C   0  0  0  0  0  0  0  0  0  0  0  0
    7.9173  -16.1398   20.3594 C   0  0  0  0  0  0  0  0  0  0  0  0
    7.1870  -16.6939   19.3411 C   0  0  0  0  0  0  0  0  0  0  0  0
    6.6327  -15.6948   18.6486 N   0  0  0  0  0  0  0  0  0  0  0  0
    6.9874  -14.5011   19.1946 C   0  0  0  0  0  0  0  0  0  0  0  0
    6.6743  -13.1906   18.8568 C   0  0  0  0  0  0  0  0  0  0  0  0
    7.1983  -12.1879   19.6316 C   0  0  0  0  0  0  0  0  0  0  0  0
    8.0125  -12.4352   20.7171 C   0  0  0  0  0  0  0  0  0  0  0  0
    8.3223  -13.7465   21.0508 C   0  0  0  0  0  0  0  0  0  0  0  0
    7.7942  -14.7462   20.2711 C   0  0  0  0  0  0  0  0  0  0  0  0
   10.4859  -16.6610   23.0410 C   0  0  0  0  0  0  0  0  0  0  0  0
   11.1774  -17.6828   23.2179 O   0  0  0  0  0  0  0  0  0  0  0  0
   10.0999  -15.8147   24.0978 N   0  0  0  0  0  0  0  0  0  0  0  0
   10.4382  -15.9960   25.4508 C   0  0  1  0  0  0  0  0  0  0  0  0
    9.9894  -14.8829   26.3310 C   0  0  0  0  0  0  0  0  0  0  0  0
    8.5656  -14.5125   26.2271 C   0  0  0  0  0  0  0  0  0  0  0  0
    7.5424  -15.3767   25.8836 C   0  0  0  0  0  0  0  0  0  0  0  0
    6.3436  -14.7303   25.9277 N   0  0  0  0  0  0  0  0  0  0  0  0
    6.5580  -13.4713   26.2890 C   0  0  0  0  0  0  0  0  0  0  0  0
    5.6905  -12.4188   26.4614 C   0  0  0  0  0  0  0  0  0  0  0  0
    6.1748  -11.1761   26.8291 C   0  0  0  0  0  0  0  0  0  0  0  0
    7.5211  -10.9900   27.0220 C   0  0  0  0  0  0  0  0  0  0  0  0
    8.3791  -12.0769   26.8401 C   0  0  0  0  0  0  0  0  0  0  0  0
    7.9203  -13.3150   26.4782 C   0  0  0  0  0  0  0  0  0  0  0  0
    9.9277  -17.3271   25.9356 C   0  0  0  0  0  0  0  0  0  0  0  0
    8.8532  -17.8470   25.6075 O   0  0  0  0  0  0  0  0  0  0  0  0
   13.9643  -20.9199   27.1252 C   0  0  0  0  0  0  0  0  0  0  0  0
   12.8573  -19.9707   27.5617 C   0  0  0  0  0  0  0  0  0  0  0  0
   11.5347  -20.3392   26.9409 C   0  0  2  0  0  0  0  0  0  0  0  0
   11.7309  -20.5204   25.4622 C   0  0  0  0  0  0  0  0  0  0  0  0
   10.4830  -19.3715   27.3418 C   0  0  2  0  0  0  0  0  0  0  0  0
   10.7509  -18.0281   26.8344 N   0  0  0  0  0  0  0  0  0  0  0  0
   10.4000  -19.2512   28.7943 C   0  0  0  0  0  0  0  0  0  0  0  0
   10.6670  -18.1643   29.3561 O   0  0  0  0  0  0  0  0  0  0  0  0
   10.0310  -20.3017   29.5942 O   0  0  0  0  0  0  0  0  0  0  0  0
  2  3  1  0
  2  1  1  6
  4  3  1  0
  4  5  2  0
  6  5  1  0
  7 12  2  0
  7  6  1  0
  8  7  1  0
  9 10  1  0
  9  8  2  0
 10 11  2  0
 11 12  1  0
 12  4  1  0
 13  2  1  0
 14 13  2  0
 15 13  1  0
 16 17  1  1
 16 15  1  0
 18 17  1  0
 19 18  2  0
 20 19  1  0
 21 20  1  0
 21 26  2  0
 22 23  2  0
 22 21  1  0
 23 24  1  0
 24 25  2  0
 26 25  1  0
 26 18  1  0
 27 16  1  0
 28 27  2  0
 30 29  1  0
 31 30  1  0
 31 32  1  6
 33 31  1  0
 33 34  1  6
 34 27  1  0
 35 37  1  0
 35 33  1  0
 36 35  2  0
M  END
$$$$
