WWI.pdb
     RDKit          3D

 37 40  0  0  1  0  0  0  0  0999 V2000
    7.9303  -21.2211   24.4021 N   0  0  0  0  0  0  0  0  0  0  0  0
    7.9824  -19.9224   25.1027 C   0  0  1  0  0  0  0  0  0  0  0  0
    8.9600  -19.9648   26.2168 C   0  0  0  0  0  0  0  0  0  0  0  0
    8.4067  -19.7293   27.5597 C   0  0  0  0  0  0  0  0  0  0  0  0
    7.2451  -20.2206   28.0952 C   0  0  0  0  0  0  0  0  0  0  0  0
    7.1626  -19.7844   29.3553 N   0  0  0  0  0  0  0  0  0  0  0  0
    8.2463  -19.0184   29.6515 C   0  0  0  0  0  0  0  0  0  0  0  0
    8.6291  -18.3507   30.8078 C   0  0  0  0  0  0  0  0  0  0  0  0
    9.8117  -17.6569   30.7838 C   0  0  0  0  0  0  0  0  0  0  0  0
   10.6191  -17.6019   29.6669 C   0  0  0  0  0  0  0  0  0  0  0  0
   10.2323  -18.2710   28.5139 C   0  0  0  0  0  0  0  0  0  0  0  0
    9.0471  -18.9643   28.5444 C   0  0  0  0  0  0  0  0  0  0  0  0
    8.4450  -18.9159   24.0757 C   0  0  0  0  0  0  0  0  0  0  0  0
    9.3052  -19.2950   23.2574 O   0  0  0  0  0  0  0  0  0  0  0  0
    7.9120  -17.6128   24.0663 N   0  0  0  0  0  0  0  0  0  0  0  0
    8.2180  -16.6152   23.1234 C   0  0  1  0  0  0  0  0  0  0  0  0
    7.1419  -15.5999   22.9604 C   0  0  0  0  0  0  0  0  0  0  0  0
    6.6982  -14.9266   24.1954 C   0  0  0  0  0  0  0  0  0  0  0  0
    6.3404  -15.5689   25.3664 C   0  0  0  0  0  0  0  0  0  0  0  0
    6.0284  -14.6563   26.3291 N   0  0  0  0  0  0  0  0  0  0  0  0
    6.1724  -13.4400   25.8177 C   0  0  0  0  0  0  0  0  0  0  0  0
    5.9683  -12.1967   26.3679 C   0  0  0  0  0  0  0  0  0  0  0  0
    6.1731  -11.0606   25.6054 C   0  0  0  0  0  0  0  0  0  0  0  0
    6.5795  -11.1708   24.2988 C   0  0  0  0  0  0  0  0  0  0  0  0
    6.7793  -12.4463   23.7662 C   0  0  0  0  0  0  0  0  0  0  0  0
    6.5841  -13.5831   24.5038 C   0  0  0  0  0  0  0  0  0  0  0  0
    9.5385  -15.9749   23.4608 C   0  0  0  0  0  0  0  0  0  0  0  0
   10.2409  -15.3220   22.6781 O   0  0  0  0  0  0  0  0  0  0  0  0
    9.6686  -13.0802   27.8251 C   0  0  0  0  0  0  0  0  0  0  0  0
   10.0535  -13.6774   26.4790 C   0  0  0  0  0  0  0  0  0  0  0  0
   10.9512  -14.8767   26.6412 C   0  0  2  0  0  0  0  0  0  0  0  0
   12.1710  -14.4637   27.4153 C   0  0  0  0  0  0  0  0  0  0  0  0
   11.2037  -15.5204   25.3278 C   0  0  2  0  0  0  0  0  0  0  0  0
    9.9995  -16.1389   24.7790 N   0  0  0  0  0  0  0  0  0  0  0  0
   12.1951  -16.5858   25.4421 C   0  0  0  0  0  0  0  0  0  0  0  0
   13.4004  -16.3106   25.6412 O   0  0  0  0  0  0  0  0  0  0  0  0
   11.8581  -17.9109   25.3409 O   0  0  0  0  0  0  0  0  0  0  0  0
  2  3  1  0
  2  1  1  6
  4  3  1  0
  4  5  2  0
  6  5  1  0
  7 12  2  0
  7  6  1  0
  8  7  1  0
  9 10  1  0
  9  8  2  0
 10 11  2  0
 11 12  1  0
 12  4  1  0
 13  2  1  0
 14 13  2  0
 15 13  1  0
 16 17  1  1
 16 15  1  0
 18 17  1  0
 19 18  2  0
 20 19  1  0
 21 20  1  0
 21 26  2  0
 22 23  2  0
 22 21  1  0
 23 24  1  0
 24 25  2  0
 26 25  1  0
 26 18  1  0
 27 16  1  0
 28 27  2  0
 30 29  1  0
 31 30  1  0
 31 32  1  6
 33 31  1  0
 33 34  1  1
 34 27  1  0
 35 37  1  0
 35 33  1  0
 36 35  2  0
M  END
$$$$
