WWI.pdb
     RDKit          3D

 37 40  0  0  1  0  0  0  0  0999 V2000
   11.1239  -17.4198   20.1070 N   0  0  0  0  0  0  0  0  0  0  0  0
    9.9447  -16.6261   20.5065 C   0  0  1  0  0  0  0  0  0  0  0  0
    8.6952  -17.2589   20.0194 C   0  0  0  0  0  0  0  0  0  0  0  0
    7.9550  -16.5036   18.9964 C   0  0  0  0  0  0  0  0  0  0  0  0
    7.1966  -16.9932   17.9657 C   0  0  0  0  0  0  0  0  0  0  0  0
    6.6751  -15.9499   17.3141 N   0  0  0  0  0  0  0  0  0  0  0  0
    7.0788  -14.7906   17.8989 C   0  0  0  0  0  0  0  0  0  0  0  0
    6.8128  -13.4580   17.6106 C   0  0  0  0  0  0  0  0  0  0  0  0
    7.3802  -12.5040   18.4158 C   0  0  0  0  0  0  0  0  0  0  0  0
    8.1927  -12.8203   19.4845 C   0  0  0  0  0  0  0  0  0  0  0  0
    8.4553  -14.1535   19.7687 C   0  0  0  0  0  0  0  0  0  0  0  0
    7.8839  -15.1041   18.9588 C   0  0  0  0  0  0  0  0  0  0  0  0
    9.9412  -16.6210   22.0171 C   0  0  0  0  0  0  0  0  0  0  0  0
   10.6055  -17.5070   22.5888 O   0  0  0  0  0  0  0  0  0  0  0  0
    9.2101  -15.6470   22.7235 N   0  0  0  0  0  0  0  0  0  0  0  0
    9.2492  -15.4510   24.1156 C   0  0  1  0  0  0  0  0  0  0  0  0
    8.5496  -14.2158   24.5628 C   0  0  0  0  0  0  0  0  0  0  0  0
    8.5413  -13.9700   26.0171 C   0  0  0  0  0  0  0  0  0  0  0  0
    9.4468  -14.4994   26.9180 C   0  0  0  0  0  0  0  0  0  0  0  0
    9.1892  -14.0366   28.1735 N   0  0  0  0  0  0  0  0  0  0  0  0
    8.1425  -13.2226   28.1149 C   0  0  0  0  0  0  0  0  0  0  0  0
    7.4852  -12.5211   29.0977 C   0  0  0  0  0  0  0  0  0  0  0  0
    6.3869  -11.7437   28.7761 C   0  0  0  0  0  0  0  0  0  0  0  0
    5.9502  -11.6708   27.4767 C   0  0  0  0  0  0  0  0  0  0  0  0
    6.6372  -12.3937   26.4989 C   0  0  0  0  0  0  0  0  0  0  0  0
    7.7270  -13.1674   26.7956 C   0  0  0  0  0  0  0  0  0  0  0  0
    8.7249  -16.6726   24.8229 C   0  0  0  0  0  0  0  0  0  0  0  0
    7.5579  -17.0833   24.7775 O   0  0  0  0  0  0  0  0  0  0  0  0
   11.6120  -20.6148   24.0526 C   0  0  0  0  0  0  0  0  0  0  0  0
   10.2620  -20.1682   24.5956 C   0  0  0  0  0  0  0  0  0  0  0  0
   10.3679  -19.6941   26.0220 C   0  0  2  0  0  0  0  0  0  0  0  0
   10.3384  -20.8907   26.9303 C   0  0  0  0  0  0  0  0  0  0  0  0
    9.3555  -18.6445   26.2990 C   0  0  2  0  0  0  0  0  0  0  0  0
    9.6490  -17.3991   25.5944 N   0  0  0  0  0  0  0  0  0  0  0  0
    9.3138  -18.3108   27.7196 C   0  0  0  0  0  0  0  0  0  0  0  0
   10.0504  -17.4089   28.1801 O   0  0  0  0  0  0  0  0  0  0  0  0
    8.4808  -18.9557   28.5971 O   0  0  0  0  0  0  0  0  0  0  0  0
  2  3  1  0
  2  1  1  1
  4  3  1  0
  4  5  2  0
  6  5  1  0
  7 12  2  0
  7  6  1  0
  8  7  1  0
  9 10  1  0
  9  8  2  0
 10 11  2  0
 11 12  1  0
 12  4  1  0
 13  2  1  0
 14 13  2  0
 15 13  1  0
 16 17  1  6
 16 15  1  0
 18 17  1  0
 19 18  2  0
 20 19  1  0
 21 20  1  0
 21 26  2  0
 22 23  2  0
 22 21  1  0
 23 24  1  0
 24 25  2  0
 26 25  1  0
 26 18  1  0
 27 16  1  0
 28 27  2  0
 30 29  1  0
 31 30  1  0
 31 32  1  1
 33 31  1  0
 33 34  1  6
 34 27  1  0
 35 37  1  0
 35 33  1  0
 36 35  2  0
M  END
$$$$
