WWI.pdb
     RDKit          3D

 37 40  0  0  1  0  0  0  0  0999 V2000
    8.5398  -17.0317   21.7931 N   0  0  0  0  0  0  0  0  0  0  0  0
    8.8516  -15.6485   22.2049 C   0  0  1  0  0  0  0  0  0  0  0  0
    7.6581  -14.7785   22.0723 C   0  0  0  0  0  0  0  0  0  0  0  0
    7.2984  -14.3949   20.6981 C   0  0  0  0  0  0  0  0  0  0  0  0
    6.1435  -14.6740   20.0157 C   0  0  0  0  0  0  0  0  0  0  0  0
    6.2304  -14.0931   18.8158 N   0  0  0  0  0  0  0  0  0  0  0  0
    7.4186  -13.4417   18.7022 C   0  0  0  0  0  0  0  0  0  0  0  0
    7.9771  -12.6916   17.6751 C   0  0  0  0  0  0  0  0  0  0  0  0
    9.2192  -12.1486   17.8823 C   0  0  0  0  0  0  0  0  0  0  0  0
    9.9194  -12.3210   19.0580 C   0  0  0  0  0  0  0  0  0  0  0  0
    9.3569  -13.0712   20.0815 C   0  0  0  0  0  0  0  0  0  0  0  0
    8.1127  -13.6121   19.8680 C   0  0  0  0  0  0  0  0  0  0  0  0
    9.2469  -15.7287   23.6606 C   0  0  0  0  0  0  0  0  0  0  0  0
    9.6171  -14.6714   24.2069 O   0  0  0  0  0  0  0  0  0  0  0  0
    9.1913  -16.9570   24.3463 N   0  0  0  0  0  0  0  0  0  0  0  0
    9.5557  -17.1563   25.6900 C   0  0  1  0  0  0  0  0  0  0  0  0
    8.4232  -17.0022   26.6432 C   0  0  0  0  0  0  0  0  0  0  0  0
    7.5445  -15.8392   26.4181 C   0  0  0  0  0  0  0  0  0  0  0  0
    6.2506  -15.9022   25.9346 C   0  0  0  0  0  0  0  0  0  0  0  0
    5.7013  -14.6558   25.8919 N   0  0  0  0  0  0  0  0  0  0  0  0
    6.6006  -13.7849   26.3328 C   0  0  0  0  0  0  0  0  0  0  0  0
    6.5456  -12.4180   26.4698 C   0  0  0  0  0  0  0  0  0  0  0  0
    7.6458  -11.7252   26.9426 C   0  0  0  0  0  0  0  0  0  0  0  0
    8.7945  -12.3993   27.2754 C   0  0  0  0  0  0  0  0  0  0  0  0
    8.8220  -13.7876   27.1264 C   0  0  0  0  0  0  0  0  0  0  0  0
    7.7440  -14.4923   26.6620 C   0  0  0  0  0  0  0  0  0  0  0  0
   10.2355  -18.4907   25.8470 C   0  0  0  0  0  0  0  0  0  0  0  0
    9.7244  -19.5907   25.5991 O   0  0  0  0  0  0  0  0  0  0  0  0
   15.7333  -18.3904   25.6047 C   0  0  0  0  0  0  0  0  0  0  0  0
   14.2841  -18.8441   25.5009 C   0  0  0  0  0  0  0  0  0  0  0  0
   13.7745  -19.3757   26.8155 C   0  0  2  0  0  0  0  0  0  0  0  0
   14.6366  -20.5334   27.2332 C   0  0  0  0  0  0  0  0  0  0  0  0
   12.3172  -19.6469   26.7385 C   0  0  2  0  0  0  0  0  0  0  0  0
   11.5618  -18.4711   26.3134 N   0  0  0  0  0  0  0  0  0  0  0  0
   11.7802  -20.0292   28.0410 C   0  0  0  0  0  0  0  0  0  0  0  0
   11.7673  -21.2309   28.3928 O   0  0  0  0  0  0  0  0  0  0  0  0
   11.2771  -19.1075   28.9226 O   0  0  0  0  0  0  0  0  0  0  0  0
  2  3  1  0
  2  1  1  1
  4  3  1  0
  4  5  2  0
  6  5  1  0
  7 12  2  0
  7  6  1  0
  8  7  1  0
  9 10  1  0
  9  8  2  0
 10 11  2  0
 11 12  1  0
 12  4  1  0
 13  2  1  0
 14 13  2  0
 15 13  1  0
 16 17  1  1
 16 15  1  0
 18 17  1  0
 19 18  2  0
 20 19  1  0
 21 20  1  0
 21 26  2  0
 22 23  2  0
 22 21  1  0
 23 24  1  0
 24 25  2  0
 26 25  1  0
 26 18  1  0
 27 16  1  0
 28 27  2  0
 30 29  1  0
 31 30  1  0
 31 32  1  6
 33 31  1  0
 33 34  1  1
 34 27  1  0
 35 37  1  0
 35 33  1  0
 36 35  2  0
M  END
$$$$
