WWI.pdb
     RDKit          3D

 37 40  0  0  1  0  0  0  0  0999 V2000
    8.9381  -17.4735   21.3825 N   0  0  0  0  0  0  0  0  0  0  0  0
    8.7357  -16.0178   21.5243 C   0  0  1  0  0  0  0  0  0  0  0  0
    7.4167  -15.6147   20.9796 C   0  0  0  0  0  0  0  0  0  0  0  0
    7.3987  -15.2567   19.5526 C   0  0  0  0  0  0  0  0  0  0  0  0
    7.0375  -16.0395   18.4876 C   0  0  0  0  0  0  0  0  0  0  0  0
    7.1319  -15.2922   17.3841 N   0  0  0  0  0  0  0  0  0  0  0  0
    7.5478  -14.0389   17.7083 C   0  0  0  0  0  0  0  0  0  0  0  0
    7.7903  -12.9080   16.9390 C   0  0  0  0  0  0  0  0  0  0  0  0
    8.2024  -11.7711   17.5856 C   0  0  0  0  0  0  0  0  0  0  0  0
    8.3809  -11.7161   18.9521 C   0  0  0  0  0  0  0  0  0  0  0  0
    8.1371  -12.8488   19.7166 C   0  0  0  0  0  0  0  0  0  0  0  0
    7.7243  -13.9841   19.0631 C   0  0  0  0  0  0  0  0  0  0  0  0
    8.7654  -15.7379   23.0084 C   0  0  0  0  0  0  0  0  0  0  0  0
    8.3164  -14.6387   23.3873 O   0  0  0  0  0  0  0  0  0  0  0  0
    9.2839  -16.6938   23.9024 N   0  0  0  0  0  0  0  0  0  0  0  0
    9.6614  -16.4426   25.2337 C   0  0  1  0  0  0  0  0  0  0  0  0
    8.5165  -16.4285   26.1846 C   0  0  0  0  0  0  0  0  0  0  0  0
    7.3799  -15.5653   25.8126 C   0  0  0  0  0  0  0  0  0  0  0  0
    6.1343  -16.0173   25.4177 C   0  0  0  0  0  0  0  0  0  0  0  0
    5.2991  -14.9642   25.1933 N   0  0  0  0  0  0  0  0  0  0  0  0
    5.9658  -13.8413   25.4301 C   0  0  0  0  0  0  0  0  0  0  0  0
    5.5832  -12.5242   25.3351 C   0  0  0  0  0  0  0  0  0  0  0  0
    6.4883  -11.5182   25.6228 C   0  0  0  0  0  0  0  0  0  0  0  0
    7.7697  -11.8314   26.0028 C   0  0  0  0  0  0  0  0  0  0  0  0
    8.1308  -13.1776   26.0911 C   0  0  0  0  0  0  0  0  0  0  0  0
    7.2501  -14.1882   25.8125 C   0  0  0  0  0  0  0  0  0  0  0  0
   10.7253  -17.4190   25.6606 C   0  0  0  0  0  0  0  0  0  0  0  0
   11.6772  -17.7941   24.9638 O   0  0  0  0  0  0  0  0  0  0  0  0
   10.3769  -14.5560   29.7988 C   0  0  0  0  0  0  0  0  0  0  0  0
   10.3420  -15.9735   29.2454 C   0  0  0  0  0  0  0  0  0  0  0  0
   11.6012  -16.3031   28.4863 C   0  0  2  0  0  0  0  0  0  0  0  0
   11.7977  -15.2734   27.4099 C   0  0  0  0  0  0  0  0  0  0  0  0
   11.5831  -17.7173   28.0356 C   0  0  2  0  0  0  0  0  0  0  0  0
   10.6171  -17.9391   26.9625 N   0  0  0  0  0  0  0  0  0  0  0  0
   11.2010  -18.6145   29.1219 C   0  0  0  0  0  0  0  0  0  0  0  0
   11.9584  -18.7760   30.1059 O   0  0  0  0  0  0  0  0  0  0  0  0
   10.0173  -19.3062   29.1156 O   0  0  0  0  0  0  0  0  0  0  0  0
  2  3  1  0
  2  1  1  1
  4  3  1  0
  4  5  2  0
  6  5  1  0
  7 12  2  0
  7  6  1  0
  8  7  1  0
  9 10  1  0
  9  8  2  0
 10 11  2  0
 11 12  1  0
 12  4  1  0
 13  2  1  0
 14 13  2  0
 15 13  1  0
 16 17  1  1
 16 15  1  0
 18 17  1  0
 19 18  2  0
 20 19  1  0
 21 20  1  0
 21 26  2  0
 22 23  2  0
 22 21  1  0
 23 24  1  0
 24 25  2  0
 26 25  1  0
 26 18  1  0
 27 16  1  0
 28 27  2  0
 30 29  1  0
 31 30  1  0
 31 32  1  6
 33 31  1  0
 33 34  1  6
 34 27  1  0
 35 37  1  0
 35 33  1  0
 36 35  2  0
M  END
$$$$
