WWI.pdb
     RDKit          3D

 37 40  0  0  1  0  0  0  0  0999 V2000
    9.4880  -16.2861   20.1196 N   0  0  0  0  0  0  0  0  0  0  0  0
    9.9838  -14.9879   20.6184 C   0  0  1  0  0  0  0  0  0  0  0  0
    9.5603  -13.8841   19.7234 C   0  0  0  0  0  0  0  0  0  0  0  0
   10.0665  -13.9524   18.3436 C   0  0  0  0  0  0  0  0  0  0  0  0
    9.3881  -13.7040   17.1793 C   0  0  0  0  0  0  0  0  0  0  0  0
   10.2510  -13.8435   16.1689 N   0  0  0  0  0  0  0  0  0  0  0  0
   11.4775  -14.1784   16.6510 C   0  0  0  0  0  0  0  0  0  0  0  0
   12.6918  -14.4242   16.0229 C   0  0  0  0  0  0  0  0  0  0  0  0
   13.7683  -14.7374   16.8125 C   0  0  0  0  0  0  0  0  0  0  0  0
   13.6849  -14.8149   18.1870 C   0  0  0  0  0  0  0  0  0  0  0  0
   12.4692  -14.5681   18.8101 C   0  0  0  0  0  0  0  0  0  0  0  0
   11.3950  -14.2546   18.0138 C   0  0  0  0  0  0  0  0  0  0  0  0
    9.3495  -14.7961   21.9759 C   0  0  0  0  0  0  0  0  0  0  0  0
    8.8321  -13.6864   22.2085 O   0  0  0  0  0  0  0  0  0  0  0  0
    9.3574  -15.8414   22.9189 N   0  0  0  0  0  0  0  0  0  0  0  0
    8.9799  -15.7228   24.2685 C   0  0  1  0  0  0  0  0  0  0  0  0
    7.6444  -16.3081   24.5669 C   0  0  0  0  0  0  0  0  0  0  0  0
    6.6194  -15.3634   25.0488 C   0  0  0  0  0  0  0  0  0  0  0  0
    5.2990  -15.6849   25.3036 C   0  0  0  0  0  0  0  0  0  0  0  0
    4.6322  -14.5973   25.7827 N   0  0  0  0  0  0  0  0  0  0  0  0
    5.4806  -13.5785   25.8459 C   0  0  0  0  0  0  0  0  0  0  0  0
    5.3008  -12.2740   26.2412 C   0  0  0  0  0  0  0  0  0  0  0  0
    6.3594  -11.3846   26.1941 C   0  0  0  0  0  0  0  0  0  0  0  0
    7.5908  -11.8008   25.7525 C   0  0  0  0  0  0  0  0  0  0  0  0
    7.7446  -13.1315   25.3574 C   0  0  0  0  0  0  0  0  0  0  0  0
    6.7107  -14.0281   25.3979 C   0  0  0  0  0  0  0  0  0  0  0  0
   10.0501  -16.3018   25.1556 C   0  0  0  0  0  0  0  0  0  0  0  0
   10.8806  -17.1548   24.8162 O   0  0  0  0  0  0  0  0  0  0  0  0
   10.7863  -13.2011   29.6974 C   0  0  0  0  0  0  0  0  0  0  0  0
   11.1427  -14.0591   28.4917 C   0  0  0  0  0  0  0  0  0  0  0  0
   10.9054  -15.5221   28.7632 C   0  0  2  0  0  0  0  0  0  0  0  0
   11.8027  -15.9546   29.8882 C   0  0  0  0  0  0  0  0  0  0  0  0
   11.0123  -16.3091   27.5092 C   0  0  2  0  0  0  0  0  0  0  0  0
   10.0999  -15.8235   26.4769 N   0  0  0  0  0  0  0  0  0  0  0  0
   10.6689  -17.7103   27.7325 C   0  0  0  0  0  0  0  0  0  0  0  0
   11.5657  -18.5831   27.7751 O   0  0  0  0  0  0  0  0  0  0  0  0
    9.3739  -18.1263   27.9045 O   0  0  0  0  0  0  0  0  0  0  0  0
  2  3  1  0
  2  1  1  6
  4  3  1  0
  4  5  2  0
  6  5  1  0
  7 12  2  0
  7  6  1  0
  8  7  1  0
  9 10  1  0
  9  8  2  0
 10 11  2  0
 11 12  1  0
 12  4  1  0
 13  2  1  0
 14 13  2  0
 15 13  1  0
 16 17  1  6
 16 15  1  0
 18 17  1  0
 19 18  2  0
 20 19  1  0
 21 20  1  0
 21 26  2  0
 22 23  2  0
 22 21  1  0
 23 24  1  0
 24 25  2  0
 26 25  1  0
 26 18  1  0
 27 16  1  0
 28 27  2  0
 30 29  1  0
 31 30  1  0
 31 32  1  1
 33 31  1  0
 33 34  1  6
 34 27  1  0
 35 37  1  0
 35 33  1  0
 36 35  2  0
M  END
$$$$
