WWI.pdb
     RDKit          3D

 37 40  0  0  1  0  0  0  0  0999 V2000
    7.7147  -16.8094   23.7688 N   0  0  0  0  0  0  0  0  0  0  0  0
    8.3441  -15.4743   23.8057 C   0  0  1  0  0  0  0  0  0  0  0  0
    8.2523  -14.8869   25.1641 C   0  0  0  0  0  0  0  0  0  0  0  0
    6.9152  -14.4265   25.5705 C   0  0  0  0  0  0  0  0  0  0  0  0
    5.8076  -15.1833   25.8499 C   0  0  0  0  0  0  0  0  0  0  0  0
    4.8298  -14.3510   26.2188 N   0  0  0  0  0  0  0  0  0  0  0  0
    5.2775  -13.0675   26.1850 C   0  0  0  0  0  0  0  0  0  0  0  0
    4.6633  -11.8569   26.4797 C   0  0  0  0  0  0  0  0  0  0  0  0
    5.4088  -10.7133   26.3496 C   0  0  0  0  0  0  0  0  0  0  0  0
    6.7265  -10.7269   25.9422 C   0  0  0  0  0  0  0  0  0  0  0  0
    7.3358  -11.9392   25.6491 C   0  0  0  0  0  0  0  0  0  0  0  0
    6.5840  -13.0809   25.7816 C   0  0  0  0  0  0  0  0  0  0  0  0
    9.7977  -15.6917   23.4571 C   0  0  0  0  0  0  0  0  0  0  0  0
   10.4448  -14.6966   23.0772 O   0  0  0  0  0  0  0  0  0  0  0  0
   10.3711  -16.9730   23.5645 N   0  0  0  0  0  0  0  0  0  0  0  0
   11.7393  -17.2391   23.7525 C   0  0  1  0  0  0  0  0  0  0  0  0
   12.0238  -18.0790   24.9478 C   0  0  0  0  0  0  0  0  0  0  0  0
   11.3486  -17.6750   26.1952 C   0  0  0  0  0  0  0  0  0  0  0  0
   10.5560  -18.4989   26.9730 C   0  0  0  0  0  0  0  0  0  0  0  0
   10.1255  -17.8317   28.0805 N   0  0  0  0  0  0  0  0  0  0  0  0
   10.6146  -16.5984   28.0447 C   0  0  0  0  0  0  0  0  0  0  0  0
   10.4634  -15.5393   28.9082 C   0  0  0  0  0  0  0  0  0  0  0  0
   11.0714  -14.3280   28.6305 C   0  0  0  0  0  0  0  0  0  0  0  0
   11.8259  -14.1796   27.4933 C   0  0  0  0  0  0  0  0  0  0  0  0
   11.9625  -15.2723   26.6343 C   0  0  0  0  0  0  0  0  0  0  0  0
   11.3707  -16.4799   26.8913 C   0  0  0  0  0  0  0  0  0  0  0  0
   12.3242  -17.8387   22.5011 C   0  0  0  0  0  0  0  0  0  0  0  0
   11.9415  -18.8836   21.9586 O   0  0  0  0  0  0  0  0  0  0  0  0
   13.2589  -14.5447   18.4811 C   0  0  0  0  0  0  0  0  0  0  0  0
   13.0303  -15.7988   19.3127 C   0  0  0  0  0  0  0  0  0  0  0  0
   14.3313  -16.3986   19.7799 C   0  0  2  0  0  0  0  0  0  0  0  0
   15.1883  -16.6840   18.5792 C   0  0  0  0  0  0  0  0  0  0  0  0
   14.0802  -17.5477   20.6854 C   0  0  2  0  0  0  0  0  0  0  0  0
   13.3926  -17.1424   21.9088 N   0  0  0  0  0  0  0  0  0  0  0  0
   15.3303  -18.1729   21.1066 C   0  0  0  0  0  0  0  0  0  0  0  0
   15.8759  -19.0432   20.3904 O   0  0  0  0  0  0  0  0  0  0  0  0
   15.9532  -17.8407   22.2819 O   0  0  0  0  0  0  0  0  0  0  0  0
  2  3  1  0
  2  1  1  1
  4  3  1  0
  4  5  2  0
  6  5  1  0
  7 12  2  0
  7  6  1  0
  8  7  1  0
  9 10  1  0
  9  8  2  0
 10 11  2  0
 11 12  1  0
 12  4  1  0
 13  2  1  0
 14 13  2  0
 15 13  1  0
 16 17  1  1
 16 15  1  0
 18 17  1  0
 19 18  2  0
 20 19  1  0
 21 20  1  0
 21 26  2  0
 22 23  2  0
 22 21  1  0
 23 24  1  0
 24 25  2  0
 26 25  1  0
 26 18  1  0
 27 16  1  0
 28 27  2  0
 30 29  1  0
 31 30  1  0
 31 32  1  6
 33 31  1  0
 33 34  1  1
 34 27  1  0
 35 37  1  0
 35 33  1  0
 36 35  2  0
M  END
$$$$
