WWI.pdb
     RDKit          3D

 37 40  0  0  1  0  0  0  0  0999 V2000
   10.8269  -16.4088   19.7979 N   0  0  0  0  0  0  0  0  0  0  0  0
   10.8274  -15.0035   20.2506 C   0  0  1  0  0  0  0  0  0  0  0  0
   10.3572  -14.1028   19.1705 C   0  0  0  0  0  0  0  0  0  0  0  0
   11.1320  -14.1479   17.9205 C   0  0  0  0  0  0  0  0  0  0  0  0
   10.7158  -13.8306   16.6542 C   0  0  0  0  0  0  0  0  0  0  0  0
   11.7613  -13.9752   15.8350 N   0  0  0  0  0  0  0  0  0  0  0  0
   12.8499  -14.3809   16.5416 C   0  0  0  0  0  0  0  0  0  0  0  0
   14.1569  -14.6602   16.1632 C   0  0  0  0  0  0  0  0  0  0  0  0
   15.0368  -15.0477   17.1410 C   0  0  0  0  0  0  0  0  0  0  0  0
   14.6711  -15.1670   18.4656 C   0  0  0  0  0  0  0  0  0  0  0  0
   13.3639  -14.8865   18.8388 C   0  0  0  0  0  0  0  0  0  0  0  0
   12.4876  -14.4986   17.8549 C   0  0  0  0  0  0  0  0  0  0  0  0
    9.8566  -14.9401   21.4062 C   0  0  0  0  0  0  0  0  0  0  0  0
    8.8275  -14.2556   21.2456 O   0  0  0  0  0  0  0  0  0  0  0  0
   10.1274  -15.6327   22.6016 N   0  0  0  0  0  0  0  0  0  0  0  0
    9.3344  -15.5934   23.7625 C   0  0  1  0  0  0  0  0  0  0  0  0
    7.8907  -15.8488   23.5063 C   0  0  0  0  0  0  0  0  0  0  0  0
    6.9445  -15.1504   24.3963 C   0  0  0  0  0  0  0  0  0  0  0  0
    5.9751  -15.7662   25.1663 C   0  0  0  0  0  0  0  0  0  0  0  0
    5.3044  -14.8415   25.9093 N   0  0  0  0  0  0  0  0  0  0  0  0
    5.8091  -13.6430   25.6442 C   0  0  0  0  0  0  0  0  0  0  0  0
    5.4747  -12.3955   26.1153 C   0  0  0  0  0  0  0  0  0  0  0  0
    6.1522  -11.2790   25.6590 C   0  0  0  0  0  0  0  0  0  0  0  0
    7.1588  -11.4128   24.7351 C   0  0  0  0  0  0  0  0  0  0  0  0
    7.4774  -12.6920   24.2742 C   0  0  0  0  0  0  0  0  0  0  0  0
    6.8206  -13.8099   24.7140 C   0  0  0  0  0  0  0  0  0  0  0  0
    9.8895  -16.5356   24.7977 C   0  0  0  0  0  0  0  0  0  0  0  0
   10.5723  -17.5408   24.5614 O   0  0  0  0  0  0  0  0  0  0  0  0
    9.8862  -13.0979   28.9985 C   0  0  0  0  0  0  0  0  0  0  0  0
   10.3881  -14.0675   27.9378 C   0  0  0  0  0  0  0  0  0  0  0  0
   10.2389  -15.4998   28.3814 C   0  0  2  0  0  0  0  0  0  0  0  0
   11.0555  -15.7058   29.6258 C   0  0  0  0  0  0  0  0  0  0  0  0
   10.5247  -16.4261   27.2573 C   0  0  2  0  0  0  0  0  0  0  0  0
    9.6019  -16.2358   26.1410 N   0  0  0  0  0  0  0  0  0  0  0  0
   10.3851  -17.8192   27.6706 C   0  0  0  0  0  0  0  0  0  0  0  0
   11.3744  -18.4537   28.1028 O   0  0  0  0  0  0  0  0  0  0  0  0
    9.1872  -18.4830   27.6078 O   0  0  0  0  0  0  0  0  0  0  0  0
  2  3  1  0
  2  1  1  6
  4  3  1  0
  4  5  2  0
  6  5  1  0
  7 12  2  0
  7  6  1  0
  8  7  1  0
  9 10  1  0
  9  8  2  0
 10 11  2  0
 11 12  1  0
 12  4  1  0
 13  2  1  0
 14 13  2  0
 15 13  1  0
 16 17  1  6
 16 15  1  0
 18 17  1  0
 19 18  2  0
 20 19  1  0
 21 20  1  0
 21 26  2  0
 22 23  2  0
 22 21  1  0
 23 24  1  0
 24 25  2  0
 26 25  1  0
 26 18  1  0
 27 16  1  0
 28 27  2  0
 30 29  1  0
 31 30  1  0
 31 32  1  1
 33 31  1  0
 33 34  1  6
 34 27  1  0
 35 37  1  0
 35 33  1  0
 36 35  2  0
M  END
$$$$
