HVE.pdb
     RDKit          3D

 27 27  0  0  1  0  0  0  0  0999 V2000
   27.5723  -22.0197  -16.5991 N   0  0  0  0  0  0  0  0  0  0  0  0
   26.7606  -21.1291  -17.4388 C   0  0  1  0  0  0  0  0  0  0  0  0
   25.9843  -22.0607  -18.3687 C   0  0  0  0  0  0  0  0  0  0  0  0
   26.9323  -22.6712  -19.3339 C   0  0  0  0  0  0  0  0  0  0  0  0
   27.1181  -24.0479  -19.4503 C   0  0  0  0  0  0  0  0  0  0  0  0
   28.0383  -24.2302  -20.4101 N   0  0  0  0  0  0  0  0  0  0  0  0
   28.4154  -23.0321  -20.8768 C   0  0  0  0  0  0  0  0  0  0  0  0
   27.7476  -22.0548  -20.2293 N   0  0  0  0  0  0  0  0  0  0  0  0
   25.8121  -20.3539  -16.6149 C   0  0  0  0  0  0  0  0  0  0  0  0
   25.1442  -20.9363  -15.6949 O   0  0  0  0  0  0  0  0  0  0  0  0
   26.4009  -16.8246  -14.9717 C   0  0  0  0  0  0  0  0  0  0  0  0
   25.0816  -16.8143  -15.7203 C   0  0  1  0  0  0  0  0  0  0  0  0
   25.1712  -16.0326  -16.9928 C   0  0  0  0  0  0  0  0  0  0  0  0
   24.6604  -18.2546  -15.9516 C   0  0  2  0  0  0  0  0  0  0  0  0
   25.5874  -18.9637  -16.7830 N   0  0  0  0  0  0  0  0  0  0  0  0
   23.2682  -18.3360  -16.4573 C   0  0  0  0  0  0  0  0  0  0  0  0
   23.0100  -18.2602  -17.6789 O   0  0  0  0  0  0  0  0  0  0  0  0
   22.1992  -18.5018  -15.5601 N   0  0  0  0  0  0  0  0  0  0  0  0
   20.8122  -18.6087  -15.9050 C   0  0  1  0  0  0  0  0  0  0  0  0
   19.9556  -19.4455  -15.0304 C   0  0  0  0  0  0  0  0  0  0  0  0
   18.5474  -19.6688  -15.4094 C   0  0  0  0  0  0  0  0  0  0  0  0
   17.6963  -20.3955  -14.4825 C   0  0  0  0  0  0  0  0  0  0  0  0
   17.9947  -21.4991  -14.0006 O   0  0  0  0  0  0  0  0  0  0  0  0
   20.2025  -17.2712  -16.1930 C   0  0  0  0  0  0  0  0  0  0  0  0
   19.3414  -17.1803  -17.2775 O   0  0  0  0  0  0  0  0  0  0  0  0
   16.4723  -19.8502  -14.0954 O   0  0  0  0  0  0  0  0  0  0  0  0
   20.4179  -16.2419  -15.5249 O   0  0  0  0  0  0  0  0  0  0  0  0
  2  1  1  1
  3  2  1  0
  4  3  1  0
  5  4  2  0
  6  5  1  0
  7  6  1  0
  7  8  2  0
  8  4  1  0
  9  2  1  0
 10  9  2  0
 12 11  1  6
 13 12  1  0
 14 15  1  6
 14 12  1  0
 15  9  1  0
 16 17  2  0
 16 14  1  0
 18 16  1  0
 19 24  1  0
 19 18  1  0
 19 20  1  1
 21 22  1  0
 21 20  1  0
 22 26  1  0
 23 22  2  0
 24 25  1  0
 27 24  2  0
M  END
$$$$
