HVE.pdb
     RDKit          3D

 27 27  0  0  1  0  0  0  0  0999 V2000
   18.2619  -12.3338  -16.6425 N   0  0  0  0  0  0  0  0  0  0  0  0
   19.1642  -11.3245  -17.2119 C   0  0  1  0  0  0  0  0  0  0  0  0
   18.2457  -10.3158  -17.9003 C   0  0  0  0  0  0  0  0  0  0  0  0
   17.6265  -10.9630  -19.0838 C   0  0  0  0  0  0  0  0  0  0  0  0
   16.2571  -10.9256  -19.3418 C   0  0  0  0  0  0  0  0  0  0  0  0
   16.0635  -11.6078  -20.4813 N   0  0  0  0  0  0  0  0  0  0  0  0
   17.2478  -12.0537  -20.9216 C   0  0  0  0  0  0  0  0  0  0  0  0
   18.2274  -11.6691  -20.0773 N   0  0  0  0  0  0  0  0  0  0  0  0
   19.9296  -10.6465  -16.1471 C   0  0  0  0  0  0  0  0  0  0  0  0
   19.3908  -10.4425  -15.0070 O   0  0  0  0  0  0  0  0  0  0  0  0
   22.9307  -11.7465  -14.5430 C   0  0  0  0  0  0  0  0  0  0  0  0
   23.2758  -10.3181  -14.9193 C   0  0  1  0  0  0  0  0  0  0  0  0
   24.2513  -10.2624  -16.0523 C   0  0  0  0  0  0  0  0  0  0  0  0
   21.9818   -9.5874  -15.2304 C   0  0  2  0  0  0  0  0  0  0  0  0
   21.2634  -10.1936  -16.3120 N   0  0  0  0  0  0  0  0  0  0  0  0
   22.2176   -8.1391  -15.4477 C   0  0  0  0  0  0  0  0  0  0  0  0
   22.9354   -7.7261  -16.3852 O   0  0  0  0  0  0  0  0  0  0  0  0
   21.6307   -7.1914  -14.5917 N   0  0  0  0  0  0  0  0  0  0  0  0
   21.7960   -5.7695  -14.6611 C   0  0  1  0  0  0  0  0  0  0  0  0
   20.6746   -4.9804  -15.2260 C   0  0  0  0  0  0  0  0  0  0  0  0
   20.1029   -5.3784  -16.5264 C   0  0  0  0  0  0  0  0  0  0  0  0
   18.6772   -5.6521  -16.5921 C   0  0  0  0  0  0  0  0  0  0  0  0
   17.8239   -4.9872  -15.9848 O   0  0  0  0  0  0  0  0  0  0  0  0
   22.3029   -5.2015  -13.3713 C   0  0  0  0  0  0  0  0  0  0  0  0
   22.2967   -6.0322  -12.2596 O   0  0  0  0  0  0  0  0  0  0  0  0
   18.2122   -6.7122  -17.3701 O   0  0  0  0  0  0  0  0  0  0  0  0
   22.7272   -4.0381  -13.2339 O   0  0  0  0  0  0  0  0  0  0  0  0
  2  1  1  1
  3  2  1  0
  4  3  1  0
  5  4  2  0
  6  5  1  0
  7  6  1  0
  7  8  2  0
  8  4  1  0
  9  2  1  0
 10  9  2  0
 12 11  1  6
 13 12  1  0
 14 15  1  6
 14 12  1  0
 15  9  1  0
 16 17  2  0
 16 14  1  0
 18 16  1  0
 19 24  1  0
 19 18  1  0
 19 20  1  1
 21 22  1  0
 21 20  1  0
 22 26  1  0
 23 22  2  0
 24 25  1  0
 27 24  2  0
M  END
$$$$
