HVE.pdb
     RDKit          3D

 27 27  0  0  1  0  0  0  0  0999 V2000
   27.7590  -21.0034  -16.8238 N   0  0  0  0  0  0  0  0  0  0  0  0
   27.1567  -19.9394  -16.0100 C   0  0  1  0  0  0  0  0  0  0  0  0
   26.3673  -19.0832  -16.9994 C   0  0  0  0  0  0  0  0  0  0  0  0
   27.3121  -18.1981  -17.7255 C   0  0  0  0  0  0  0  0  0  0  0  0
   27.4241  -16.8323  -17.4697 C   0  0  0  0  0  0  0  0  0  0  0  0
   28.3641  -16.3624  -18.3046 N   0  0  0  0  0  0  0  0  0  0  0  0
   28.8230  -17.3771  -19.0496 C   0  0  0  0  0  0  0  0  0  0  0  0
   28.1902  -18.5196  -18.7114 N   0  0  0  0  0  0  0  0  0  0  0  0
   26.2352  -20.5067  -15.0058 C   0  0  0  0  0  0  0  0  0  0  0  0
   25.4087  -21.4200  -15.3441 O   0  0  0  0  0  0  0  0  0  0  0  0
   24.7743  -21.2631  -10.3871 C   0  0  0  0  0  0  0  0  0  0  0  0
   25.8029  -20.6067  -11.2884 C   0  0  1  0  0  0  0  0  0  0  0  0
   27.1527  -21.2347  -11.1400 C   0  0  0  0  0  0  0  0  0  0  0  0
   25.2868  -20.6690  -12.7150 C   0  0  2  0  0  0  0  0  0  0  0  0
   26.2069  -20.0920  -13.6499 N   0  0  0  0  0  0  0  0  0  0  0  0
   23.9273  -20.0857  -12.8240 C   0  0  0  0  0  0  0  0  0  0  0  0
   23.7442  -18.8483  -12.8282 O   0  0  0  0  0  0  0  0  0  0  0  0
   22.8045  -20.9249  -12.9255 N   0  0  0  0  0  0  0  0  0  0  0  0
   21.4419  -20.5039  -13.0671 C   0  0  1  0  0  0  0  0  0  0  0  0
   20.8456  -20.5720  -14.4232 C   0  0  0  0  0  0  0  0  0  0  0  0
   19.4705  -20.0777  -14.6263 C   0  0  0  0  0  0  0  0  0  0  0  0
   18.5569  -20.8969  -15.4047 C   0  0  0  0  0  0  0  0  0  0  0  0
   18.9287  -21.6977  -16.2762 O   0  0  0  0  0  0  0  0  0  0  0  0
   20.5572  -21.1106  -12.0218 C   0  0  0  0  0  0  0  0  0  0  0  0
   19.5935  -20.2944  -11.4464 O   0  0  0  0  0  0  0  0  0  0  0  0
   17.1831  -20.8000  -15.1843 O   0  0  0  0  0  0  0  0  0  0  0  0
   20.6310  -22.2938  -11.6388 O   0  0  0  0  0  0  0  0  0  0  0  0
  2  1  1  6
  3  2  1  0
  4  3  1  0
  5  4  2  0
  6  5  1  0
  7  6  1  0
  7  8  2  0
  8  4  1  0
  9  2  1  0
 10  9  2  0
 12 11  1  1
 13 12  1  0
 14 15  1  6
 14 12  1  0
 15  9  1  0
 16 17  2  0
 16 14  1  0
 18 16  1  0
 19 24  1  0
 19 18  1  0
 19 20  1  6
 21 22  1  0
 21 20  1  0
 22 26  1  0
 23 22  2  0
 24 25  1  0
 27 24  2  0
M  END
$$$$
