HVE.pdb
     RDKit          3D

 27 27  0  0  1  0  0  0  0  0999 V2000
   23.5275  -13.2147  -17.6112 N   0  0  0  0  0  0  0  0  0  0  0  0
   23.8999  -12.2697  -16.5503 C   0  0  1  0  0  0  0  0  0  0  0  0
   25.3517  -11.8953  -16.8455 C   0  0  0  0  0  0  0  0  0  0  0  0
   26.2090  -13.0840  -16.6109 C   0  0  0  0  0  0  0  0  0  0  0  0
   26.4040  -13.6442  -15.3494 C   0  0  0  0  0  0  0  0  0  0  0  0
   27.2277  -14.6903  -15.5183 N   0  0  0  0  0  0  0  0  0  0  0  0
   27.5379  -14.7874  -16.8182 C   0  0  0  0  0  0  0  0  0  0  0  0
   26.9221  -13.8083  -17.5128 N   0  0  0  0  0  0  0  0  0  0  0  0
   23.0577  -11.0586  -16.6090 C   0  0  0  0  0  0  0  0  0  0  0  0
   22.9362  -10.4202  -17.7087 O   0  0  0  0  0  0  0  0  0  0  0  0
   19.2498   -8.5099  -15.0291 C   0  0  0  0  0  0  0  0  0  0  0  0
   20.0471   -9.7960  -15.1346 C   0  0  1  0  0  0  0  0  0  0  0  0
   19.3649  -10.8023  -16.0067 C   0  0  0  0  0  0  0  0  0  0  0  0
   21.4396   -9.4475  -15.6292 C   0  0  2  0  0  0  0  0  0  0  0  0
   22.3537  -10.5424  -15.4912 N   0  0  0  0  0  0  0  0  0  0  0  0
   21.9434   -8.2050  -14.9946 C   0  0  0  0  0  0  0  0  0  0  0  0
   22.4108   -8.2055  -13.8344 O   0  0  0  0  0  0  0  0  0  0  0  0
   21.9038   -6.9875  -15.6956 N   0  0  0  0  0  0  0  0  0  0  0  0
   22.3040   -5.7066  -15.1924 C   0  0  1  0  0  0  0  0  0  0  0  0
   22.2965   -4.5688  -16.1435 C   0  0  0  0  0  0  0  0  0  0  0  0
   22.7810   -3.2518  -15.6881 C   0  0  0  0  0  0  0  0  0  0  0  0
   22.7126   -2.1382  -16.6190 C   0  0  0  0  0  0  0  0  0  0  0  0
   22.3227   -2.2491  -17.7915 O   0  0  0  0  0  0  0  0  0  0  0  0
   21.6245   -5.3761  -13.8993 C   0  0  0  0  0  0  0  0  0  0  0  0
   22.4069   -4.8495  -12.8811 O   0  0  0  0  0  0  0  0  0  0  0  0
   23.0996   -0.8645  -16.2026 O   0  0  0  0  0  0  0  0  0  0  0  0
   20.4092   -5.5427  -13.6811 O   0  0  0  0  0  0  0  0  0  0  0  0
  2  1  1  6
  3  2  1  0
  4  3  1  0
  5  4  2  0
  6  5  1  0
  7  6  1  0
  7  8  2  0
  8  4  1  0
  9  2  1  0
 10  9  2  0
 12 11  1  6
 13 12  1  0
 14 15  1  1
 14 12  1  0
 15  9  1  0
 16 17  2  0
 16 14  1  0
 18 16  1  0
 19 24  1  0
 19 18  1  0
 19 20  1  6
 21 22  1  0
 21 20  1  0
 22 26  1  0
 23 22  2  0
 24 25  1  0
 27 24  2  0
M  END
$$$$
