HVE.pdb
     RDKit          3D

 27 27  0  0  1  0  0  0  0  0999 V2000
   19.7957  -13.9864  -16.1750 N   0  0  0  0  0  0  0  0  0  0  0  0
   20.4318  -13.0588  -17.1196 C   0  0  1  0  0  0  0  0  0  0  0  0
   19.2744  -12.4142  -17.8813 C   0  0  0  0  0  0  0  0  0  0  0  0
   18.6517  -13.4363  -18.7591 C   0  0  0  0  0  0  0  0  0  0  0  0
   19.2840  -13.9575  -19.8869 C   0  0  0  0  0  0  0  0  0  0  0  0
   18.4333  -14.8440  -20.4272 N   0  0  0  0  0  0  0  0  0  0  0  0
   17.3211  -14.8820  -19.6810 C   0  0  0  0  0  0  0  0  0  0  0  0
   17.4312  -14.0230  -18.6464 N   0  0  0  0  0  0  0  0  0  0  0  0
   21.1886  -12.0157  -16.3996 C   0  0  0  0  0  0  0  0  0  0  0  0
   20.6466  -11.3952  -15.4235 O   0  0  0  0  0  0  0  0  0  0  0  0
   25.3770   -9.7020  -15.2791 C   0  0  0  0  0  0  0  0  0  0  0  0
   24.7265  -10.8428  -16.0383 C   0  0  1  0  0  0  0  0  0  0  0  0
   25.1549  -12.1761  -15.5116 C   0  0  0  0  0  0  0  0  0  0  0  0
   23.2216  -10.6508  -15.9783 C   0  0  2  0  0  0  0  0  0  0  0  0
   22.5175  -11.6469  -16.7302 N   0  0  0  0  0  0  0  0  0  0  0  0
   22.8369   -9.2714  -16.3650 C   0  0  0  0  0  0  0  0  0  0  0  0
   22.8018   -8.9130  -17.5630 O   0  0  0  0  0  0  0  0  0  0  0  0
   22.5005   -8.3287  -15.3783 N   0  0  0  0  0  0  0  0  0  0  0  0
   22.0136   -7.0002  -15.6064 C   0  0  1  0  0  0  0  0  0  0  0  0
   20.6248   -6.8605  -16.1072 C   0  0  0  0  0  0  0  0  0  0  0  0
   20.0840   -5.5096  -16.3504 C   0  0  0  0  0  0  0  0  0  0  0  0
   19.1662   -5.3300  -17.4626 C   0  0  0  0  0  0  0  0  0  0  0  0
   18.7890   -6.2573  -18.1954 O   0  0  0  0  0  0  0  0  0  0  0  0
   22.2986   -6.0934  -14.4489 C   0  0  0  0  0  0  0  0  0  0  0  0
   22.4179   -6.6749  -13.1944 O   0  0  0  0  0  0  0  0  0  0  0  0
   18.6657   -4.0597  -17.7474 O   0  0  0  0  0  0  0  0  0  0  0  0
   22.4348   -4.8584  -14.5401 O   0  0  0  0  0  0  0  0  0  0  0  0
  2  1  1  1
  3  2  1  0
  4  3  1  0
  5  4  2  0
  6  5  1  0
  7  6  1  0
  7  8  2  0
  8  4  1  0
  9  2  1  0
 10  9  2  0
 12 11  1  1
 13 12  1  0
 14 15  1  6
 14 12  1  0
 15  9  1  0
 16 17  2  0
 16 14  1  0
 18 16  1  0
 19 24  1  0
 19 18  1  0
 19 20  1  1
 21 22  1  0
 21 20  1  0
 22 26  1  0
 23 22  2  0
 24 25  1  0
 27 24  2  0
M  END
$$$$
