HVE.pdb
     RDKit          3D

 27 27  0  0  1  0  0  0  0  0999 V2000
   27.2635  -20.0866  -16.7691 N   0  0  0  0  0  0  0  0  0  0  0  0
   26.5159  -19.2274  -15.8417 C   0  0  1  0  0  0  0  0  0  0  0  0
   25.5858  -18.4017  -16.7295 C   0  0  0  0  0  0  0  0  0  0  0  0
   26.3807  -17.3426  -17.4000 C   0  0  0  0  0  0  0  0  0  0  0  0
   26.6299  -16.0983  -16.8230 C   0  0  0  0  0  0  0  0  0  0  0  0
   27.3700  -15.4087  -17.7050 N   0  0  0  0  0  0  0  0  0  0  0  0
   27.5784  -16.1758  -18.7836 C   0  0  0  0  0  0  0  0  0  0  0  0
   26.9786  -17.3732  -18.6199 N   0  0  0  0  0  0  0  0  0  0  0  0
   25.7115  -20.0403  -14.9081 C   0  0  0  0  0  0  0  0  0  0  0  0
   25.0203  -21.0196  -15.3495 O   0  0  0  0  0  0  0  0  0  0  0  0
   24.4808  -21.5298  -10.3984 C   0  0  0  0  0  0  0  0  0  0  0  0
   25.3913  -20.6435  -11.2270 C   0  0  1  0  0  0  0  0  0  0  0  0
   26.8161  -21.0951  -11.1610 C   0  0  0  0  0  0  0  0  0  0  0  0
   24.8558  -20.6155  -12.6475 C   0  0  2  0  0  0  0  0  0  0  0  0
   25.6545  -19.7981  -13.5119 N   0  0  0  0  0  0  0  0  0  0  0  0
   23.4214  -20.2390  -12.6771 C   0  0  0  0  0  0  0  0  0  0  0  0
   22.9999  -19.2193  -12.0879 O   0  0  0  0  0  0  0  0  0  0  0  0
   22.4969  -21.0328  -13.3774 N   0  0  0  0  0  0  0  0  0  0  0  0
   21.0823  -20.8164  -13.4561 C   0  0  1  0  0  0  0  0  0  0  0  0
   20.3678  -21.3992  -14.6175 C   0  0  0  0  0  0  0  0  0  0  0  0
   18.9106  -21.2013  -14.7345 C   0  0  0  0  0  0  0  0  0  0  0  0
   18.3880  -20.6907  -15.9906 C   0  0  0  0  0  0  0  0  0  0  0  0
   19.0189  -20.7234  -17.0583 O   0  0  0  0  0  0  0  0  0  0  0  0
   20.3981  -21.1108  -12.1567 C   0  0  0  0  0  0  0  0  0  0  0  0
   19.4860  -20.1760  -11.6872 O   0  0  0  0  0  0  0  0  0  0  0  0
   17.1127  -20.1272  -16.0305 O   0  0  0  0  0  0  0  0  0  0  0  0
   20.5943  -22.1350  -11.4750 O   0  0  0  0  0  0  0  0  0  0  0  0
  2  1  1  6
  3  2  1  0
  4  3  1  0
  5  4  2  0
  6  5  1  0
  7  6  1  0
  7  8  2  0
  8  4  1  0
  9  2  1  0
 10  9  2  0
 12 11  1  1
 13 12  1  0
 14 15  1  6
 14 12  1  0
 15  9  1  0
 16 17  2  0
 16 14  1  0
 18 16  1  0
 19 24  1  0
 19 18  1  0
 19 20  1  6
 21 22  1  0
 21 20  1  0
 22 26  1  0
 23 22  2  0
 24 25  1  0
 27 24  2  0
M  END
$$$$
