HVE.pdb
     RDKit          3D

 27 27  0  0  1  0  0  0  0  0999 V2000
   21.3799  -13.8027  -18.5038 N   0  0  0  0  0  0  0  0  0  0  0  0
   22.0416  -12.5571  -18.9135 C   0  0  1  0  0  0  0  0  0  0  0  0
   20.9996  -11.8105  -19.7453 C   0  0  0  0  0  0  0  0  0  0  0  0
   20.7880  -12.5450  -21.0177 C   0  0  0  0  0  0  0  0  0  0  0  0
   19.5452  -13.0358  -21.4151 C   0  0  0  0  0  0  0  0  0  0  0  0
   19.7321  -13.6358  -22.6010 N   0  0  0  0  0  0  0  0  0  0  0  0
   21.0250  -13.5306  -22.9368 C   0  0  0  0  0  0  0  0  0  0  0  0
   21.6970  -12.8619  -21.9768 N   0  0  0  0  0  0  0  0  0  0  0  0
   22.4043  -11.7451  -17.7352 C   0  0  0  0  0  0  0  0  0  0  0  0
   21.5409  -11.5326  -16.8181 O   0  0  0  0  0  0  0  0  0  0  0  0
   25.6624   -9.3627  -14.9231 C   0  0  0  0  0  0  0  0  0  0  0  0
   25.4529  -10.3322  -16.0708 C   0  0  1  0  0  0  0  0  0  0  0  0
   25.9775  -11.6959  -15.7486 C   0  0  0  0  0  0  0  0  0  0  0  0
   23.9736  -10.3446  -16.4125 C   0  0  2  0  0  0  0  0  0  0  0  0
   23.6867  -11.1688  -17.5491 N   0  0  0  0  0  0  0  0  0  0  0  0
   23.4418   -8.9680  -16.5618 C   0  0  0  0  0  0  0  0  0  0  0  0
   23.8007   -8.2259  -17.5026 O   0  0  0  0  0  0  0  0  0  0  0  0
   22.5121   -8.4654  -15.6353 N   0  0  0  0  0  0  0  0  0  0  0  0
   21.9215   -7.1596  -15.6507 C   0  0  1  0  0  0  0  0  0  0  0  0
   20.4971   -7.0611  -16.0512 C   0  0  0  0  0  0  0  0  0  0  0  0
   19.8606   -5.7315  -16.1109 C   0  0  0  0  0  0  0  0  0  0  0  0
   18.4540   -5.6618  -16.4690 C   0  0  0  0  0  0  0  0  0  0  0  0
   17.7723   -6.6558  -16.7629 O   0  0  0  0  0  0  0  0  0  0  0  0
   22.2174   -6.3970  -14.3960 C   0  0  0  0  0  0  0  0  0  0  0  0
   22.3162   -5.0162  -14.4943 O   0  0  0  0  0  0  0  0  0  0  0  0
   17.8075   -4.4261  -16.4935 O   0  0  0  0  0  0  0  0  0  0  0  0
   22.3791   -6.9201  -13.2769 O   0  0  0  0  0  0  0  0  0  0  0  0
  2  1  1  1
  3  2  1  0
  4  3  1  0
  5  4  2  0
  6  5  1  0
  7  6  1  0
  7  8  2  0
  8  4  1  0
  9  2  1  0
 10  9  2  0
 12 11  1  1
 13 12  1  0
 14 15  1  6
 14 12  1  0
 15  9  1  0
 16 17  2  0
 16 14  1  0
 18 16  1  0
 19 24  1  0
 19 18  1  0
 19 20  1  1
 21 22  1  0
 21 20  1  0
 22 26  1  0
 23 22  2  0
 24 25  1  0
 27 24  2  0
M  END
$$$$
