HVE.pdb
     RDKit          3D

 27 27  0  0  1  0  0  0  0  0999 V2000
   17.3331  -12.4171  -15.8029 N   0  0  0  0  0  0  0  0  0  0  0  0
   18.0313  -11.3342  -16.5078 C   0  0  1  0  0  0  0  0  0  0  0  0
   16.9352  -10.3418  -16.8935 C   0  0  0  0  0  0  0  0  0  0  0  0
   16.0921  -10.9488  -17.9536 C   0  0  0  0  0  0  0  0  0  0  0  0
   14.7196  -11.1484  -17.8127 C   0  0  0  0  0  0  0  0  0  0  0  0
   14.2956  -11.7118  -18.9548 N   0  0  0  0  0  0  0  0  0  0  0  0
   15.3442  -11.8611  -19.7753 C   0  0  0  0  0  0  0  0  0  0  0  0
   16.4635  -11.3981  -19.1811 N   0  0  0  0  0  0  0  0  0  0  0  0
   19.0039  -10.6713  -15.6167 C   0  0  0  0  0  0  0  0  0  0  0  0
   18.6597  -10.3412  -14.4318 O   0  0  0  0  0  0  0  0  0  0  0  0
   23.1627  -10.3607  -16.4398 C   0  0  0  0  0  0  0  0  0  0  0  0
   22.5866  -10.2731  -15.0394 C   0  0  1  0  0  0  0  0  0  0  0  0
   23.4960   -9.5333  -14.1099 C   0  0  0  0  0  0  0  0  0  0  0  0
   21.2112   -9.6371  -15.1350 C   0  0  2  0  0  0  0  0  0  0  0  0
   20.3349  -10.3684  -16.0016 N   0  0  0  0  0  0  0  0  0  0  0  0
   21.3033   -8.2026  -15.5012 C   0  0  0  0  0  0  0  0  0  0  0  0
   21.5323   -7.8403  -16.6764 O   0  0  0  0  0  0  0  0  0  0  0  0
   21.1328   -7.2107  -14.5203 N   0  0  0  0  0  0  0  0  0  0  0  0
   21.1757   -5.7938  -14.7314 C   0  0  1  0  0  0  0  0  0  0  0  0
   19.8799   -5.0757  -14.7981 C   0  0  0  0  0  0  0  0  0  0  0  0
   19.8817   -3.6075  -14.9423 C   0  0  0  0  0  0  0  0  0  0  0  0
   18.6047   -2.9149  -14.9067 C   0  0  0  0  0  0  0  0  0  0  0  0
   17.5139   -3.4955  -14.7957 O   0  0  0  0  0  0  0  0  0  0  0  0
   22.1562   -5.1217  -13.8202 C   0  0  0  0  0  0  0  0  0  0  0  0
   22.8482   -4.0273  -14.3197 O   0  0  0  0  0  0  0  0  0  0  0  0
   18.5701   -1.5237  -15.0009 O   0  0  0  0  0  0  0  0  0  0  0  0
   22.3884   -5.4804  -12.6499 O   0  0  0  0  0  0  0  0  0  0  0  0
  2  1  1  1
  3  2  1  0
  4  3  1  0
  5  4  2  0
  6  5  1  0
  7  6  1  0
  7  8  2  0
  8  4  1  0
  9  2  1  0
 10  9  2  0
 12 11  1  6
 13 12  1  0
 14 15  1  6
 14 12  1  0
 15  9  1  0
 16 17  2  0
 16 14  1  0
 18 16  1  0
 19 24  1  0
 19 18  1  0
 19 20  1  1
 21 22  1  0
 21 20  1  0
 22 26  1  0
 23 22  2  0
 24 25  1  0
 27 24  2  0
M  END
$$$$
