HVE.pdb
     RDKit          3D

 27 27  0  0  1  0  0  0  0  0999 V2000
   22.3006  -16.0399  -16.2926 N   0  0  0  0  0  0  0  0  0  0  0  0
   22.7742  -14.9758  -17.1873 C   0  0  1  0  0  0  0  0  0  0  0  0
   21.5816  -14.6556  -18.0874 C   0  0  0  0  0  0  0  0  0  0  0  0
   21.3369  -15.8115  -18.9858 C   0  0  0  0  0  0  0  0  0  0  0  0
   20.2094  -16.6255  -18.8880 C   0  0  0  0  0  0  0  0  0  0  0  0
   20.3246  -17.5558  -19.8486 N   0  0  0  0  0  0  0  0  0  0  0  0
   21.4648  -17.3422  -20.5191 C   0  0  0  0  0  0  0  0  0  0  0  0
   22.1069  -16.2722  -20.0063 N   0  0  0  0  0  0  0  0  0  0  0  0
   23.1469  -13.7723  -16.4177 C   0  0  0  0  0  0  0  0  0  0  0  0
   22.4119  -13.3839  -15.4479 O   0  0  0  0  0  0  0  0  0  0  0  0
   26.4038  -10.3705  -15.0371 C   0  0  0  0  0  0  0  0  0  0  0  0
   26.1495  -11.6531  -15.8060 C   0  0  1  0  0  0  0  0  0  0  0  0
   26.8623  -12.8178  -15.1945 C   0  0  0  0  0  0  0  0  0  0  0  0
   24.6482  -11.8661  -15.8830 C   0  0  2  0  0  0  0  0  0  0  0  0
   24.3018  -12.9966  -16.6926 N   0  0  0  0  0  0  0  0  0  0  0  0
   23.9478  -10.6292  -16.3073 C   0  0  0  0  0  0  0  0  0  0  0  0
   23.9519  -10.2507  -17.4995 O   0  0  0  0  0  0  0  0  0  0  0  0
   23.2577   -9.8490  -15.3637 N   0  0  0  0  0  0  0  0  0  0  0  0
   22.3046   -8.8179  -15.6511 C   0  0  1  0  0  0  0  0  0  0  0  0
   21.0293   -9.2276  -16.2874 C   0  0  0  0  0  0  0  0  0  0  0  0
   20.0078   -8.2011  -16.5694 C   0  0  0  0  0  0  0  0  0  0  0  0
   18.7803   -8.6194  -17.2252 C   0  0  0  0  0  0  0  0  0  0  0  0
   18.5486   -9.7909  -17.5610 O   0  0  0  0  0  0  0  0  0  0  0  0
   22.0936   -7.9087  -14.4797 C   0  0  0  0  0  0  0  0  0  0  0  0
   22.3925   -8.4080  -13.2198 O   0  0  0  0  0  0  0  0  0  0  0  0
   17.7913   -7.6769  -17.5063 O   0  0  0  0  0  0  0  0  0  0  0  0
   21.6697   -6.7403  -14.5640 O   0  0  0  0  0  0  0  0  0  0  0  0
  2  1  1  1
  3  2  1  0
  4  3  1  0
  5  4  2  0
  6  5  1  0
  7  6  1  0
  7  8  2  0
  8  4  1  0
  9  2  1  0
 10  9  2  0
 12 11  1  1
 13 12  1  0
 14 15  1  6
 14 12  1  0
 15  9  1  0
 16 17  2  0
 16 14  1  0
 18 16  1  0
 19 24  1  0
 19 18  1  0
 19 20  1  1
 21 22  1  0
 21 20  1  0
 22 26  1  0
 23 22  2  0
 24 25  1  0
 27 24  2  0
M  END
$$$$
