HVE.pdb
     RDKit          3D

 27 27  0  0  1  0  0  0  0  0999 V2000
   27.2155  -18.8389  -16.4189 N   0  0  0  0  0  0  0  0  0  0  0  0
   26.5756  -18.3866  -15.1767 C   0  0  1  0  0  0  0  0  0  0  0  0
   25.7060  -17.1996  -15.5888 C   0  0  0  0  0  0  0  0  0  0  0  0
   26.5836  -16.0306  -15.8462 C   0  0  0  0  0  0  0  0  0  0  0  0
   27.0460  -15.1894  -14.8352 C   0  0  0  0  0  0  0  0  0  0  0  0
   27.8022  -14.2544  -15.4313 N   0  0  0  0  0  0  0  0  0  0  0  0
   27.8177  -14.4910  -16.7501 C   0  0  0  0  0  0  0  0  0  0  0  0
   27.0738  -15.5809  -17.0311 N   0  0  0  0  0  0  0  0  0  0  0  0
   25.7215  -19.4494  -14.6108 C   0  0  0  0  0  0  0  0  0  0  0  0
   25.0417  -20.2013  -15.3881 O   0  0  0  0  0  0  0  0  0  0  0  0
   26.7277  -21.6896  -11.5863 C   0  0  0  0  0  0  0  0  0  0  0  0
   25.2701  -21.3108  -11.4051 C   0  0  1  0  0  0  0  0  0  0  0  0
   25.0804  -20.3621  -10.2639 C   0  0  0  0  0  0  0  0  0  0  0  0
   24.7634  -20.7463  -12.7203 C   0  0  2  0  0  0  0  0  0  0  0  0
   25.6030  -19.6978  -13.2195 N   0  0  0  0  0  0  0  0  0  0  0  0
   23.3418  -20.3348  -12.6201 C   0  0  0  0  0  0  0  0  0  0  0  0
   22.9893  -19.3645  -11.9138 O   0  0  0  0  0  0  0  0  0  0  0  0
   22.3511  -21.0383  -13.3266 N   0  0  0  0  0  0  0  0  0  0  0  0
   20.9454  -20.7588  -13.3197 C   0  0  1  0  0  0  0  0  0  0  0  0
   20.2219  -20.8746  -14.6090 C   0  0  0  0  0  0  0  0  0  0  0  0
   20.1580  -19.7018  -15.5018 C   0  0  0  0  0  0  0  0  0  0  0  0
   19.7866  -19.9181  -16.8900 C   0  0  0  0  0  0  0  0  0  0  0  0
   18.8736  -20.6799  -17.2436 O   0  0  0  0  0  0  0  0  0  0  0  0
   20.2403  -21.4641  -12.2023 C   0  0  0  0  0  0  0  0  0  0  0  0
   18.9683  -21.0213  -11.8674 O   0  0  0  0  0  0  0  0  0  0  0  0
   20.4749  -19.2489  -17.9018 O   0  0  0  0  0  0  0  0  0  0  0  0
   20.7199  -22.4170  -11.5587 O   0  0  0  0  0  0  0  0  0  0  0  0
  2  1  1  6
  3  2  1  0
  4  3  1  0
  5  4  2  0
  6  5  1  0
  7  6  1  0
  7  8  2  0
  8  4  1  0
  9  2  1  0
 10  9  2  0
 12 11  1  6
 13 12  1  0
 14 15  1  1
 14 12  1  0
 15  9  1  0
 16 17  2  0
 16 14  1  0
 18 16  1  0
 19 24  1  0
 19 18  1  0
 19 20  1  6
 21 22  1  0
 21 20  1  0
 22 26  1  0
 23 22  2  0
 24 25  1  0
 27 24  2  0
M  END
$$$$
