HVE.pdb
     RDKit          3D

 27 27  0  0  1  0  0  0  0  0999 V2000
   19.9042  -13.3078  -15.4813 N   0  0  0  0  0  0  0  0  0  0  0  0
   19.5695  -12.0541  -16.1693 C   0  0  1  0  0  0  0  0  0  0  0  0
   18.1151  -11.7729  -15.7944 C   0  0  0  0  0  0  0  0  0  0  0  0
   17.2456  -12.7647  -16.4752 C   0  0  0  0  0  0  0  0  0  0  0  0
   16.9454  -12.7063  -17.8353 C   0  0  0  0  0  0  0  0  0  0  0  0
   16.1436  -13.7508  -18.0954 N   0  0  0  0  0  0  0  0  0  0  0  0
   15.9464  -14.4343  -16.9600 C   0  0  0  0  0  0  0  0  0  0  0  0
   16.6155  -13.8465  -15.9466 N   0  0  0  0  0  0  0  0  0  0  0  0
   20.4236  -10.9497  -15.6896 C   0  0  0  0  0  0  0  0  0  0  0  0
   20.6682  -10.8298  -14.4416 O   0  0  0  0  0  0  0  0  0  0  0  0
   24.3172   -8.4081  -15.7642 C   0  0  0  0  0  0  0  0  0  0  0  0
   23.3878   -9.5330  -16.1789 C   0  0  1  0  0  0  0  0  0  0  0  0
   23.6276  -10.7748  -15.3796 C   0  0  0  0  0  0  0  0  0  0  0  0
   21.9595   -9.0319  -16.0593 C   0  0  2  0  0  0  0  0  0  0  0  0
   21.0079   -9.9847  -16.5491 N   0  0  0  0  0  0  0  0  0  0  0  0
   21.8005   -7.6976  -16.6874 C   0  0  0  0  0  0  0  0  0  0  0  0
   22.1382   -7.4878  -17.8734 O   0  0  0  0  0  0  0  0  0  0  0  0
   21.2601   -6.6297  -15.9506 N   0  0  0  0  0  0  0  0  0  0  0  0
   21.0163   -5.3032  -16.4354 C   0  0  1  0  0  0  0  0  0  0  0  0
   19.8623   -4.5698  -15.8613 C   0  0  0  0  0  0  0  0  0  0  0  0
   18.5054   -5.1226  -16.0334 C   0  0  0  0  0  0  0  0  0  0  0  0
   17.3991   -4.4333  -15.3909 C   0  0  0  0  0  0  0  0  0  0  0  0
   17.2666   -4.3500  -14.1602 O   0  0  0  0  0  0  0  0  0  0  0  0
   22.2655   -4.4772  -16.4579 C   0  0  0  0  0  0  0  0  0  0  0  0
   22.4096   -3.5623  -17.4914 O   0  0  0  0  0  0  0  0  0  0  0  0
   16.4176   -3.8236  -16.1720 O   0  0  0  0  0  0  0  0  0  0  0  0
   23.1776   -4.5588  -15.6131 O   0  0  0  0  0  0  0  0  0  0  0  0
  2  1  1  1
  3  2  1  0
  4  3  1  0
  5  4  2  0
  6  5  1  0
  7  6  1  0
  7  8  2  0
  8  4  1  0
  9  2  1  0
 10  9  2  0
 12 11  1  1
 13 12  1  0
 14 15  1  6
 14 12  1  0
 15  9  1  0
 16 17  2  0
 16 14  1  0
 18 16  1  0
 19 24  1  0
 19 18  1  0
 19 20  1  1
 21 22  1  0
 21 20  1  0
 22 26  1  0
 23 22  2  0
 24 25  1  0
 27 24  2  0
M  END
$$$$
