HIM.pdb
     RDKit          3D

 27 27  0  0  1  0  0  0  0  0999 V2000
   12.7969  -23.6102   -5.9818 N   0  0  0  0  0  0  0  0  0  0  0  0
   13.3068  -23.3496   -4.6623 C   0  0  1  0  0  0  0  0  0  0  0  0
   12.1515  -22.8134   -3.8406 C   0  0  0  0  0  0  0  0  0  0  0  0
   11.8249  -21.4750   -4.3961 C   0  0  0  0  0  0  0  0  0  0  0  0
   12.6711  -20.4376   -4.7249 C   0  0  0  0  0  0  0  0  0  0  0  0
   11.9693  -19.3907   -5.1982 N   0  0  0  0  0  0  0  0  0  0  0  0
   10.6700  -19.7631   -5.1706 C   0  0  0  0  0  0  0  0  0  0  0  0
   10.5769  -21.0236   -4.6861 N   0  0  0  0  0  0  0  0  0  0  0  0
   13.8643  -24.6134   -4.0262 C   0  0  0  0  0  0  0  0  0  0  0  0
   13.0953  -25.6023   -3.8807 O   0  0  0  0  0  0  0  0  0  0  0  0
   18.2054  -25.4723   -5.7773 C   0  0  0  0  0  0  0  0  0  0  0  0
   17.3150  -26.4362   -4.9937 C   0  0  0  0  0  0  0  0  0  0  0  0
   17.2640  -26.0452   -3.5357 C   0  0  2  0  0  0  0  0  0  0  0  0
   18.0178  -27.0959   -2.7550 C   0  0  0  0  0  0  0  0  0  0  0  0
   15.9358  -25.7079   -2.9950 C   0  0  2  0  0  0  0  0  0  0  0  0
   15.2082  -24.6462   -3.6206 N   0  0  0  0  0  0  0  0  0  0  0  0
   15.9315  -25.6421   -1.5337 C   0  0  0  0  0  0  0  0  0  0  0  0
   16.4631  -24.6190   -0.9813 O   0  0  0  0  0  0  0  0  0  0  0  0
   10.5180  -26.8186   -0.0569 C   0  0  0  0  0  0  0  0  0  0  0  0
   11.4360  -26.4482    1.4037 S   0  0  0  0  0  0  0  0  0  0  0  0
   13.0995  -25.8388    1.2018 C   0  0  0  0  0  0  0  0  0  0  0  0
   14.1750  -26.8599    1.3936 C   0  0  0  0  0  0  0  0  0  0  0  0
   15.4605  -26.4556    0.7639 C   0  0  2  0  0  0  0  0  0  0  0  0
   15.3738  -26.6416   -0.7056 N   0  0  0  0  0  0  0  0  0  0  0  0
   16.6090  -27.2798    1.2420 C   0  0  0  0  0  0  0  0  0  0  0  0
   17.3291  -28.0779    0.4231 O   0  0  0  0  0  0  0  0  0  0  0  0
   16.9285  -27.2303    2.4845 O   0  0  0  0  0  0  0  0  0  0  0  0
  2  1  1  6
  3  2  1  0
  4  8  1  0
  4  3  1  0
  5  4  2  0
  6  5  1  0
  6  7  1  0
  7  8  2  0
  9 10  2  0
  9  2  1  0
 12 11  1  0
 13 12  1  0
 13 14  1  1
 15 13  1  0
 15 16  1  6
 16  9  1  0
 17 15  1  0
 18 17  2  0
 20 21  1  0
 20 19  1  0
 22 21  1  0
 23 22  1  1
 23 24  1  0
 24 17  1  0
 25 26  1  0
 25 23  1  0
 27 25  2  0
M  END
$$$$
