HIM.pdb
     RDKit          3D

 27 27  0  0  1  0  0  0  0  0999 V2000
   26.9784  -21.0181  -17.6672 N   0  0  0  0  0  0  0  0  0  0  0  0
   26.6788  -20.0743  -16.6238 C   0  0  1  0  0  0  0  0  0  0  0  0
   25.3997  -19.3659  -17.0234 C   0  0  0  0  0  0  0  0  0  0  0  0
   25.7315  -18.5340  -18.2085 C   0  0  0  0  0  0  0  0  0  0  0  0
   25.1128  -18.4844  -19.4394 C   0  0  0  0  0  0  0  0  0  0  0  0
   25.7292  -17.5943  -20.2395 N   0  0  0  0  0  0  0  0  0  0  0  0
   26.7452  -17.0745  -19.5148 C   0  0  0  0  0  0  0  0  0  0  0  0
   26.7512  -17.6397  -18.2849 N   0  0  0  0  0  0  0  0  0  0  0  0
   26.4991  -20.7710  -15.2840 C   0  0  0  0  0  0  0  0  0  0  0  0
   25.6578  -21.7068  -15.2015 O   0  0  0  0  0  0  0  0  0  0  0  0
   30.9145  -21.1759  -11.8356 C   0  0  0  0  0  0  0  0  0  0  0  0
   29.6515  -21.4754  -12.6425 C   0  0  0  0  0  0  0  0  0  0  0  0
   28.4575  -20.7746  -12.0388 C   0  0  2  0  0  0  0  0  0  0  0  0
   28.3188  -21.2557  -10.6136 C   0  0  0  0  0  0  0  0  0  0  0  0
   27.2127  -20.8075  -12.8260 C   0  0  2  0  0  0  0  0  0  0  0  0
   27.2672  -20.3578  -14.1835 N   0  0  0  0  0  0  0  0  0  0  0  0
   26.0692  -20.2842  -12.0789 C   0  0  0  0  0  0  0  0  0  0  0  0
   25.8688  -19.0218  -12.1022 O   0  0  0  0  0  0  0  0  0  0  0  0
   18.5086  -20.4467  -10.5014 C   0  0  0  0  0  0  0  0  0  0  0  0
   20.0027  -21.1689  -11.1011 S   0  0  0  0  0  0  0  0  0  0  0  0
   21.5420  -20.4318  -10.5848 C   0  0  0  0  0  0  0  0  0  0  0  0
   22.7572  -20.9465  -11.2881 C   0  0  0  0  0  0  0  0  0  0  0  0
   24.0191  -20.4376  -10.6873 C   0  0  2  0  0  0  0  0  0  0  0  0
   25.1793  -21.0942  -11.3387 N   0  0  0  0  0  0  0  0  0  0  0  0
   24.1114  -20.7344   -9.2278 C   0  0  0  0  0  0  0  0  0  0  0  0
   25.0522  -21.5510   -8.7042 O   0  0  0  0  0  0  0  0  0  0  0  0
   23.2612  -20.1919   -8.4333 O   0  0  0  0  0  0  0  0  0  0  0  0
  2  1  1  6
  3  2  1  0
  4  8  1  0
  4  3  1  0
  5  4  2  0
  6  5  1  0
  6  7  1  0
  7  8  2  0
  9 10  2  0
  9  2  1  0
 12 11  1  0
 13 12  1  0
 13 14  1  1
 15 13  1  0
 15 16  1  6
 16  9  1  0
 17 15  1  0
 18 17  2  0
 20 21  1  0
 20 19  1  0
 22 21  1  0
 23 22  1  6
 23 24  1  0
 24 17  1  0
 25 26  1  0
 25 23  1  0
 27 25  2  0
M  END
$$$$
