HIM.pdb
     RDKit          3D

 27 27  0  0  1  0  0  0  0  0999 V2000
   28.1924  -21.6714  -15.7707 N   0  0  0  0  0  0  0  0  0  0  0  0
   27.4498  -20.6702  -15.0527 C   0  0  1  0  0  0  0  0  0  0  0  0
   26.8135  -19.7651  -16.0888 C   0  0  0  0  0  0  0  0  0  0  0  0
   27.9225  -19.0102  -16.7266 C   0  0  0  0  0  0  0  0  0  0  0  0
   28.8008  -19.4152  -17.7090 C   0  0  0  0  0  0  0  0  0  0  0  0
   29.6613  -18.4239  -18.0077 N   0  0  0  0  0  0  0  0  0  0  0  0
   29.3296  -17.3826  -17.2119 C   0  0  0  0  0  0  0  0  0  0  0  0
   28.2779  -17.7320  -16.4346 N   0  0  0  0  0  0  0  0  0  0  0  0
   26.3798  -21.3001  -14.1747 C   0  0  0  0  0  0  0  0  0  0  0  0
   25.7137  -22.2654  -14.6383 O   0  0  0  0  0  0  0  0  0  0  0  0
   26.8160  -20.6330   -8.5871 C   0  0  0  0  0  0  0  0  0  0  0  0
   26.5096  -21.3416   -9.9062 C   0  0  0  0  0  0  0  0  0  0  0  0
   25.2829  -20.7462  -10.5558 C   0  0  2  0  0  0  0  0  0  0  0  0
   24.1009  -21.0550   -9.6674 C   0  0  0  0  0  0  0  0  0  0  0  0
   25.0820  -21.0566  -11.9818 C   0  0  2  0  0  0  0  0  0  0  0  0
   26.1628  -20.7951  -12.8826 N   0  0  0  0  0  0  0  0  0  0  0  0
   23.7832  -20.5963  -12.4727 C   0  0  0  0  0  0  0  0  0  0  0  0
   23.6838  -19.3767  -12.8430 O   0  0  0  0  0  0  0  0  0  0  0  0
   20.6156  -22.0245  -17.7039 C   0  0  0  0  0  0  0  0  0  0  0  0
   19.3248  -21.6827  -16.5505 S   0  0  0  0  0  0  0  0  0  0  0  0
   19.7842  -20.9615  -14.9859 C   0  0  0  0  0  0  0  0  0  0  0  0
   21.0613  -21.4762  -14.4026 C   0  0  0  0  0  0  0  0  0  0  0  0
   21.3939  -20.8300  -13.1049 C   0  0  2  0  0  0  0  0  0  0  0  0
   22.6406  -21.4224  -12.5602 N   0  0  0  0  0  0  0  0  0  0  0  0
   20.3284  -21.0354  -12.0806 C   0  0  0  0  0  0  0  0  0  0  0  0
   20.2367  -22.1577  -11.3335 O   0  0  0  0  0  0  0  0  0  0  0  0
   19.4600  -20.1072  -11.8996 O   0  0  0  0  0  0  0  0  0  0  0  0
  2  1  1  6
  3  2  1  0
  4  8  1  0
  4  3  1  0
  5  4  2  0
  6  5  1  0
  6  7  1  0
  7  8  2  0
  9 10  2  0
  9  2  1  0
 12 11  1  0
 13 12  1  0
 13 14  1  1
 15 13  1  0
 15 16  1  6
 16  9  1  0
 17 15  1  0
 18 17  2  0
 20 21  1  0
 20 19  1  0
 22 21  1  0
 23 22  1  6
 23 24  1  0
 24 17  1  0
 25 26  1  0
 25 23  1  0
 27 25  2  0
M  END
$$$$
