HIM.pdb
     RDKit          3D

 27 27  0  0  1  0  0  0  0  0999 V2000
   20.4154  -12.8647  -17.6589 N   0  0  0  0  0  0  0  0  0  0  0  0
   21.2334  -11.9252  -18.3782 C   0  0  1  0  0  0  0  0  0  0  0  0
   20.3279  -11.2178  -19.3666 C   0  0  0  0  0  0  0  0  0  0  0  0
   19.8852  -12.2461  -20.3429 C   0  0  0  0  0  0  0  0  0  0  0  0
   18.6768  -12.9039  -20.4284 C   0  0  0  0  0  0  0  0  0  0  0  0
   18.6831  -13.7658  -21.4627 N   0  0  0  0  0  0  0  0  0  0  0  0
   19.9013  -13.6563  -22.0386 C   0  0  0  0  0  0  0  0  0  0  0  0
   20.6328  -12.7381  -21.3650 N   0  0  0  0  0  0  0  0  0  0  0  0
   21.8752  -10.9179  -17.4368 C   0  0  0  0  0  0  0  0  0  0  0  0
   21.2259  -10.5457  -16.4218 O   0  0  0  0  0  0  0  0  0  0  0  0
   26.9981  -11.5347  -15.8531 C   0  0  0  0  0  0  0  0  0  0  0  0
   25.5140  -11.2448  -16.0752 C   0  0  0  0  0  0  0  0  0  0  0  0
   25.3225   -9.8531  -16.6299 C   0  0  2  0  0  0  0  0  0  0  0  0
   26.0138   -8.8899  -15.6939 C   0  0  0  0  0  0  0  0  0  0  0  0
   23.9454   -9.4785  -16.9956 C   0  0  2  0  0  0  0  0  0  0  0  0
   23.1620  -10.4324  -17.7197 N   0  0  0  0  0  0  0  0  0  0  0  0
   23.8636   -8.1208  -17.5339 C   0  0  0  0  0  0  0  0  0  0  0  0
   24.3933   -7.8994  -18.6763 O   0  0  0  0  0  0  0  0  0  0  0  0
   20.8067   -3.4372  -22.0368 C   0  0  0  0  0  0  0  0  0  0  0  0
   21.0786   -4.8813  -21.0601 S   0  0  0  0  0  0  0  0  0  0  0  0
   22.0787   -4.7109  -19.5938 C   0  0  0  0  0  0  0  0  0  0  0  0
   22.3347   -5.9833  -18.8511 C   0  0  0  0  0  0  0  0  0  0  0  0
   23.0914   -5.7622  -17.5898 C   0  0  2  0  0  0  0  0  0  0  0  0
   23.2336   -7.0485  -16.8640 N   0  0  0  0  0  0  0  0  0  0  0  0
   22.3947   -4.8159  -16.6701 C   0  0  0  0  0  0  0  0  0  0  0  0
   21.8415   -5.2048  -15.5001 O   0  0  0  0  0  0  0  0  0  0  0  0
   22.3160   -3.5782  -17.0026 O   0  0  0  0  0  0  0  0  0  0  0  0
  2  1  1  1
  3  2  1  0
  4  8  1  0
  4  3  1  0
  5  4  2  0
  6  5  1  0
  6  7  1  0
  7  8  2  0
  9 10  2  0
  9  2  1  0
 12 11  1  0
 13 12  1  0
 13 14  1  1
 15 13  1  0
 15 16  1  6
 16  9  1  0
 17 15  1  0
 18 17  2  0
 20 21  1  0
 20 19  1  0
 22 21  1  0
 23 22  1  6
 23 24  1  0
 24 17  1  0
 25 26  1  0
 25 23  1  0
 27 25  2  0
M  END
$$$$
