HIM.pdb
     RDKit          3D

 27 27  0  0  1  0  0  0  0  0999 V2000
   21.5363  -21.3516  -14.7731 N   0  0  0  0  0  0  0  0  0  0  0  0
   20.7239  -20.7885  -13.7281 C   0  0  1  0  0  0  0  0  0  0  0  0
   19.2974  -20.7687  -14.2404 C   0  0  0  0  0  0  0  0  0  0  0  0
   19.2500  -19.7447  -15.3154 C   0  0  0  0  0  0  0  0  0  0  0  0
   19.4272  -18.3803  -15.2281 C   0  0  0  0  0  0  0  0  0  0  0  0
   19.3010  -17.8115  -16.4417 N   0  0  0  0  0  0  0  0  0  0  0  0
   19.0421  -18.8182  -17.3061 C   0  0  0  0  0  0  0  0  0  0  0  0
   19.0102  -19.9903  -16.6298 N   0  0  0  0  0  0  0  0  0  0  0  0
   20.8148  -21.6125  -12.4533 C   0  0  0  0  0  0  0  0  0  0  0  0
   20.7417  -22.8683  -12.5430 O   0  0  0  0  0  0  0  0  0  0  0  0
   23.5741  -21.8319   -7.4143 C   0  0  0  0  0  0  0  0  0  0  0  0
   22.1064  -21.4392   -7.5804 C   0  0  0  0  0  0  0  0  0  0  0  0
   21.8856  -20.7633   -8.9129 C   0  0  2  0  0  0  0  0  0  0  0  0
   21.3654  -19.3720   -8.6380 C   0  0  0  0  0  0  0  0  0  0  0  0
   21.1164  -21.5242   -9.9129 C   0  0  2  0  0  0  0  0  0  0  0  0
   20.9759  -20.9598  -11.2204 N   0  0  0  0  0  0  0  0  0  0  0  0
   19.8691  -22.0576   -9.3657 C   0  0  0  0  0  0  0  0  0  0  0  0
   18.7855  -21.4345   -9.6343 O   0  0  0  0  0  0  0  0  0  0  0  0
   17.7609  -28.0319   -9.9025 C   0  0  0  0  0  0  0  0  0  0  0  0
   16.4751  -27.1792   -9.0464 S   0  0  0  0  0  0  0  0  0  0  0  0
   16.8589  -25.5784   -8.3613 C   0  0  0  0  0  0  0  0  0  0  0  0
   18.1722  -25.0054   -8.7892 C   0  0  0  0  0  0  0  0  0  0  0  0
   18.4561  -23.6945   -8.1464 C   0  0  2  0  0  0  0  0  0  0  0  0
   19.7981  -23.2176   -8.5626 N   0  0  0  0  0  0  0  0  0  0  0  0
   18.4668  -23.7847   -6.6569 C   0  0  0  0  0  0  0  0  0  0  0  0
   17.3366  -23.8425   -5.9182 O   0  0  0  0  0  0  0  0  0  0  0  0
   19.5972  -23.8085   -6.0486 O   0  0  0  0  0  0  0  0  0  0  0  0
  2  1  1  6
  3  2  1  0
  4  8  1  0
  4  3  1  0
  5  4  2  0
  6  5  1  0
  6  7  1  0
  7  8  2  0
  9 10  2  0
  9  2  1  0
 12 11  1  0
 13 12  1  0
 13 14  1  1
 15 13  1  0
 15 16  1  6
 16  9  1  0
 17 15  1  0
 18 17  2  0
 20 21  1  0
 20 19  1  0
 22 21  1  0
 23 22  1  6
 23 24  1  0
 24 17  1  0
 25 26  1  0
 25 23  1  0
 27 25  2  0
M  END
$$$$
