HIM.pdb
     RDKit          3D

 27 27  0  0  1  0  0  0  0  0999 V2000
   17.3718  -13.0028  -15.1634 N   0  0  0  0  0  0  0  0  0  0  0  0
   17.1728  -11.5852  -15.3054 C   0  0  1  0  0  0  0  0  0  0  0  0
   15.6768  -11.3555  -15.3859 C   0  0  0  0  0  0  0  0  0  0  0  0
   15.2485  -11.8342  -16.7252 C   0  0  0  0  0  0  0  0  0  0  0  0
   15.5888  -12.9955  -17.3857 C   0  0  0  0  0  0  0  0  0  0  0  0
   14.9829  -13.0477  -18.5868 N   0  0  0  0  0  0  0  0  0  0  0  0
   14.2533  -11.9144  -18.6918 C   0  0  0  0  0  0  0  0  0  0  0  0
   14.4104  -11.1765  -17.5681 N   0  0  0  0  0  0  0  0  0  0  0  0
   17.7604  -10.8244  -14.1270 C   0  0  0  0  0  0  0  0  0  0  0  0
   17.5982  -11.2937  -12.9678 O   0  0  0  0  0  0  0  0  0  0  0  0
   21.2225   -9.9742  -15.1155 C   0  0  0  0  0  0  0  0  0  0  0  0
   21.4953   -9.0003  -13.9696 C   0  0  0  0  0  0  0  0  0  0  0  0
   20.3151   -8.0807  -13.7625 C   0  0  2  0  0  0  0  0  0  0  0  0
   20.7517   -6.9834  -12.8207 C   0  0  0  0  0  0  0  0  0  0  0  0
   19.0377   -8.7249  -13.4110 C   0  0  2  0  0  0  0  0  0  0  0  0
   18.4615   -9.6299  -14.3580 N   0  0  0  0  0  0  0  0  0  0  0  0
   18.0773   -7.7797  -12.8416 C   0  0  0  0  0  0  0  0  0  0  0  0
   17.3071   -7.1539  -13.6476 O   0  0  0  0  0  0  0  0  0  0  0  0
   14.1433   -5.0452   -6.4801 C   0  0  0  0  0  0  0  0  0  0  0  0
   15.1782   -6.2280   -7.2822 S   0  0  0  0  0  0  0  0  0  0  0  0
   15.6288   -5.9158   -8.9789 C   0  0  0  0  0  0  0  0  0  0  0  0
   16.4799   -6.9700   -9.6118 C   0  0  0  0  0  0  0  0  0  0  0  0
   16.8591   -6.6303  -11.0093 C   0  0  2  0  0  0  0  0  0  0  0  0
   17.9553   -7.5241  -11.4576 N   0  0  0  0  0  0  0  0  0  0  0  0
   17.3574   -5.2295  -11.1362 C   0  0  0  0  0  0  0  0  0  0  0  0
   16.5525   -4.1912  -11.4527 O   0  0  0  0  0  0  0  0  0  0  0  0
   18.6045   -4.9982  -10.9367 O   0  0  0  0  0  0  0  0  0  0  0  0
  2  1  1  1
  3  2  1  0
  4  8  1  0
  4  3  1  0
  5  4  2  0
  6  5  1  0
  6  7  1  0
  7  8  2  0
  9 10  2  0
  9  2  1  0
 12 11  1  0
 13 12  1  0
 13 14  1  1
 15 13  1  0
 15 16  1  6
 16  9  1  0
 17 15  1  0
 18 17  2  0
 20 21  1  0
 20 19  1  0
 22 21  1  0
 23 22  1  1
 23 24  1  0
 24 17  1  0
 25 26  1  0
 25 23  1  0
 27 25  2  0
M  END
$$$$
