HIM.pdb
     RDKit          3D

 27 27  0  0  1  0  0  0  0  0999 V2000
   24.8235  -17.6504  -17.8488 N   0  0  0  0  0  0  0  0  0  0  0  0
   24.0474  -17.7761  -16.6442 C   0  0  1  0  0  0  0  0  0  0  0  0
   22.6392  -17.3250  -16.9775 C   0  0  0  0  0  0  0  0  0  0  0  0
   22.7123  -15.8617  -17.2221 C   0  0  0  0  0  0  0  0  0  0  0  0
   23.1704  -15.1854  -18.3326 C   0  0  0  0  0  0  0  0  0  0  0  0
   23.0667  -13.8558  -18.1489 N   0  0  0  0  0  0  0  0  0  0  0  0
   22.5402  -13.6844  -16.9156 C   0  0  0  0  0  0  0  0  0  0  0  0
   22.3238  -14.8951  -16.3503 N   0  0  0  0  0  0  0  0  0  0  0  0
   24.0362  -19.2114  -16.1418 C   0  0  0  0  0  0  0  0  0  0  0  0
   24.0654  -20.1448  -16.9892 O   0  0  0  0  0  0  0  0  0  0  0  0
   26.8475  -20.4391  -11.5353 C   0  0  0  0  0  0  0  0  0  0  0  0
   26.1853  -20.3658  -12.9108 C   0  0  0  0  0  0  0  0  0  0  0  0
   24.7535  -20.8408  -12.8364 C   0  0  2  0  0  0  0  0  0  0  0  0
   24.7630  -22.2251  -12.2317 C   0  0  0  0  0  0  0  0  0  0  0  0
   23.9560  -20.7100  -14.0682 C   0  0  2  0  0  0  0  0  0  0  0  0
   23.9935  -19.4579  -14.7601 N   0  0  0  0  0  0  0  0  0  0  0  0
   22.6083  -21.2586  -13.9181 C   0  0  0  0  0  0  0  0  0  0  0  0
   21.7502  -20.5640  -13.2735 O   0  0  0  0  0  0  0  0  0  0  0  0
   19.2727  -22.2403   -9.7515 C   0  0  0  0  0  0  0  0  0  0  0  0
   18.1997  -22.2121  -11.1520 S   0  0  0  0  0  0  0  0  0  0  0  0
   18.8621  -22.7666  -12.7118 C   0  0  0  0  0  0  0  0  0  0  0  0
   20.2900  -22.3980  -12.9597 C   0  0  0  0  0  0  0  0  0  0  0  0
   20.7928  -22.9169  -14.2598 C   0  0  2  0  0  0  0  0  0  0  0  0
   22.2066  -22.5062  -14.4450 N   0  0  0  0  0  0  0  0  0  0  0  0
   20.0251  -22.3770  -15.4199 C   0  0  0  0  0  0  0  0  0  0  0  0
   19.0443  -23.0724  -16.0370 O   0  0  0  0  0  0  0  0  0  0  0  0
   20.3068  -21.2014  -15.8525 O   0  0  0  0  0  0  0  0  0  0  0  0
  2  1  1  6
  3  2  1  0
  4  8  1  0
  4  3  1  0
  5  4  2  0
  6  5  1  0
  6  7  1  0
  7  8  2  0
  9 10  2  0
  9  2  1  0
 12 11  1  0
 13 12  1  0
 13 14  1  6
 15 13  1  0
 15 16  1  1
 16  9  1  0
 17 15  1  0
 18 17  2  0
 20 21  1  0
 20 19  1  0
 22 21  1  0
 23 22  1  1
 23 24  1  0
 24 17  1  0
 25 26  1  0
 25 23  1  0
 27 25  2  0
M  END
$$$$
