HIM.pdb
     RDKit          3D

 27 27  0  0  1  0  0  0  0  0999 V2000
   27.2681  -21.9930  -17.0487 N   0  0  0  0  0  0  0  0  0  0  0  0
   27.1049  -23.3211  -16.5207 C   0  0  1  0  0  0  0  0  0  0  0  0
   25.6595  -23.7139  -16.7532 C   0  0  0  0  0  0  0  0  0  0  0  0
   24.8364  -22.8107  -15.9086 C   0  0  0  0  0  0  0  0  0  0  0  0
   24.0945  -21.7087  -16.2770 C   0  0  0  0  0  0  0  0  0  0  0  0
   23.4953  -21.1647  -15.2011 N   0  0  0  0  0  0  0  0  0  0  0  0
   23.8574  -21.9236  -14.1425 C   0  0  0  0  0  0  0  0  0  0  0  0
   24.6689  -22.9212  -14.5650 N   0  0  0  0  0  0  0  0  0  0  0  0
   28.0362  -24.3070  -17.2085 C   0  0  0  0  0  0  0  0  0  0  0  0
   28.2288  -24.1866  -18.4490 O   0  0  0  0  0  0  0  0  0  0  0  0
   32.9615  -24.9311  -15.5011 C   0  0  0  0  0  0  0  0  0  0  0  0
   31.6431  -24.8766  -16.2724 C   0  0  0  0  0  0  0  0  0  0  0  0
   30.9602  -26.2236  -16.2514 C   0  0  2  0  0  0  0  0  0  0  0  0
   31.9444  -27.2423  -16.7760 C   0  0  0  0  0  0  0  0  0  0  0  0
   29.6206  -26.2874  -16.8613 C   0  0  2  0  0  0  0  0  0  0  0  0
   28.6517  -25.3171  -16.4516 N   0  0  0  0  0  0  0  0  0  0  0  0
   29.0990  -27.6529  -16.9142 C   0  0  0  0  0  0  0  0  0  0  0  0
   28.5771  -28.1335  -15.8506 O   0  0  0  0  0  0  0  0  0  0  0  0
   24.4092  -31.8458  -20.3639 C   0  0  0  0  0  0  0  0  0  0  0  0
   26.1581  -31.8877  -20.5945 S   0  0  0  0  0  0  0  0  0  0  0  0
   27.1862  -31.4938  -19.1920 C   0  0  0  0  0  0  0  0  0  0  0  0
   27.7668  -30.1157  -19.2004 C   0  0  0  0  0  0  0  0  0  0  0  0
   28.5708  -29.8310  -17.9818 C   0  0  2  0  0  0  0  0  0  0  0  0
   29.1396  -28.4634  -18.0705 N   0  0  0  0  0  0  0  0  0  0  0  0
   29.7181  -30.7725  -17.8277 C   0  0  0  0  0  0  0  0  0  0  0  0
   30.9799  -30.4563  -18.1941 O   0  0  0  0  0  0  0  0  0  0  0  0
   29.4996  -31.9338  -17.3256 O   0  0  0  0  0  0  0  0  0  0  0  0
  2  1  1  6
  3  2  1  0
  4  8  1  0
  4  3  1  0
  5  4  2  0
  6  5  1  0
  6  7  1  0
  7  8  2  0
  9 10  2  0
  9  2  1  0
 12 11  1  0
 13 12  1  0
 13 14  1  6
 15 13  1  0
 15 16  1  1
 16  9  1  0
 17 15  1  0
 18 17  2  0
 20 21  1  0
 20 19  1  0
 22 21  1  0
 23 22  1  6
 23 24  1  0
 24 17  1  0
 25 26  1  0
 25 23  1  0
 27 25  2  0
M  END
$$$$
