HIM.pdb
     RDKit          3D

 27 27  0  0  1  0  0  0  0  0999 V2000
   28.1131  -19.9488  -17.1711 N   0  0  0  0  0  0  0  0  0  0  0  0
   27.1279  -19.2550  -16.3854 C   0  0  1  0  0  0  0  0  0  0  0  0
   26.2430  -18.4980  -17.3556 C   0  0  0  0  0  0  0  0  0  0  0  0
   27.1049  -17.4753  -18.0019 C   0  0  0  0  0  0  0  0  0  0  0  0
   27.2678  -17.1931  -19.3414 C   0  0  0  0  0  0  0  0  0  0  0  0
   28.1483  -16.1880  -19.5062 N   0  0  0  0  0  0  0  0  0  0  0  0
   28.5481  -15.8284  -18.2658 C   0  0  0  0  0  0  0  0  0  0  0  0
   27.9197  -16.6042  -17.3517 N   0  0  0  0  0  0  0  0  0  0  0  0
   26.2966  -20.2250  -15.5604 C   0  0  0  0  0  0  0  0  0  0  0  0
   25.8379  -21.2547  -16.1257 O   0  0  0  0  0  0  0  0  0  0  0  0
   25.6032  -21.5249   -9.4952 C   0  0  0  0  0  0  0  0  0  0  0  0
   24.9724  -21.5584  -10.8869 C   0  0  0  0  0  0  0  0  0  0  0  0
   25.7924  -20.7457  -11.8608 C   0  0  2  0  0  0  0  0  0  0  0  0
   26.0401  -19.3947  -11.2323 C   0  0  0  0  0  0  0  0  0  0  0  0
   25.3032  -20.7008  -13.2497 C   0  0  2  0  0  0  0  0  0  0  0  0
   26.0630  -19.9512  -14.2031 N   0  0  0  0  0  0  0  0  0  0  0  0
   23.8628  -20.4571  -13.3235 C   0  0  0  0  0  0  0  0  0  0  0  0
   23.4655  -19.2432  -13.3798 O   0  0  0  0  0  0  0  0  0  0  0  0
   16.6803  -22.6145  -15.7524 C   0  0  0  0  0  0  0  0  0  0  0  0
   18.3753  -22.9767  -15.4218 S   0  0  0  0  0  0  0  0  0  0  0  0
   19.3180  -21.7639  -14.5165 C   0  0  0  0  0  0  0  0  0  0  0  0
   20.7481  -22.1270  -14.2731 C   0  0  0  0  0  0  0  0  0  0  0  0
   21.4689  -21.0953  -13.4804 C   0  0  2  0  0  0  0  0  0  0  0  0
   22.8935  -21.4846  -13.3372 N   0  0  0  0  0  0  0  0  0  0  0  0
   20.9146  -20.9504  -12.1025 C   0  0  0  0  0  0  0  0  0  0  0  0
   19.9767  -20.0315  -11.7829 O   0  0  0  0  0  0  0  0  0  0  0  0
   21.3458  -21.7313  -11.1791 O   0  0  0  0  0  0  0  0  0  0  0  0
  2  1  1  6
  3  2  1  0
  4  8  1  0
  4  3  1  0
  5  4  2  0
  6  5  1  0
  6  7  1  0
  7  8  2  0
  9 10  2  0
  9  2  1  0
 12 11  1  0
 13 12  1  0
 13 14  1  1
 15 13  1  0
 15 16  1  6
 16  9  1  0
 17 15  1  0
 18 17  2  0
 20 21  1  0
 20 19  1  0
 22 21  1  0
 23 22  1  6
 23 24  1  0
 24 17  1  0
 25 26  1  0
 25 23  1  0
 27 25  2  0
M  END
$$$$
