HIM.pdb
     RDKit          3D

 27 27  0  0  1  0  0  0  0  0999 V2000
   18.4321  -11.8754  -15.1068 N   0  0  0  0  0  0  0  0  0  0  0  0
   17.3508  -11.2388  -14.4035 C   0  0  1  0  0  0  0  0  0  0  0  0
   17.0214  -12.1168  -13.2127 C   0  0  0  0  0  0  0  0  0  0  0  0
   16.4052  -13.3532  -13.7585 C   0  0  0  0  0  0  0  0  0  0  0  0
   15.1216  -13.5579  -14.2179 C   0  0  0  0  0  0  0  0  0  0  0  0
   14.9666  -14.8309  -14.6276 N   0  0  0  0  0  0  0  0  0  0  0  0
   16.1570  -15.4399  -14.4283 C   0  0  0  0  0  0  0  0  0  0  0  0
   17.0312  -14.5502  -13.9026 N   0  0  0  0  0  0  0  0  0  0  0  0
   17.7397   -9.8441  -13.9387 C   0  0  0  0  0  0  0  0  0  0  0  0
   18.8459   -9.6928  -13.3524 O   0  0  0  0  0  0  0  0  0  0  0  0
   17.5376   -6.7818  -17.4376 C   0  0  0  0  0  0  0  0  0  0  0  0
   18.1610   -6.7013  -16.0444 C   0  0  0  0  0  0  0  0  0  0  0  0
   17.0997   -6.4373  -15.0028 C   0  0  2  0  0  0  0  0  0  0  0  0
   17.2006   -4.9830  -14.6072 C   0  0  0  0  0  0  0  0  0  0  0  0
   17.0417   -7.3822  -13.8739 C   0  0  2  0  0  0  0  0  0  0  0  0
   16.8648   -8.7707  -14.1717 N   0  0  0  0  0  0  0  0  0  0  0  0
   16.1867   -6.8999  -12.7894 C   0  0  0  0  0  0  0  0  0  0  0  0
   15.0149   -7.4008  -12.6863 O   0  0  0  0  0  0  0  0  0  0  0  0
   13.6846   -9.3407   -8.4521 C   0  0  0  0  0  0  0  0  0  0  0  0
   14.1788   -7.8379   -7.6705 S   0  0  0  0  0  0  0  0  0  0  0  0
   14.5512   -6.4447   -8.7191 C   0  0  0  0  0  0  0  0  0  0  0  0
   15.4192   -6.7535   -9.8970 C   0  0  0  0  0  0  0  0  0  0  0  0
   15.6372   -5.5678  -10.7680 C   0  0  2  0  0  0  0  0  0  0  0  0
   16.5844   -5.9177  -11.8553 N   0  0  0  0  0  0  0  0  0  0  0  0
   16.2316   -4.4196  -10.0230 C   0  0  0  0  0  0  0  0  0  0  0  0
   15.4962   -3.5830   -9.2579 O   0  0  0  0  0  0  0  0  0  0  0  0
   17.4962   -4.2155  -10.1112 O   0  0  0  0  0  0  0  0  0  0  0  0
  2  1  1  1
  3  2  1  0
  4  8  1  0
  4  3  1  0
  5  4  2  0
  6  5  1  0
  6  7  1  0
  7  8  2  0
  9 10  2  0
  9  2  1  0
 12 11  1  0
 13 12  1  0
 13 14  1  1
 15 13  1  0
 15 16  1  6
 16  9  1  0
 17 15  1  0
 18 17  2  0
 20 21  1  0
 20 19  1  0
 22 21  1  0
 23 22  1  1
 23 24  1  0
 24 17  1  0
 25 26  1  0
 25 23  1  0
 27 25  2  0
M  END
$$$$
