EEM.pdb
     RDKit          3D

 27 26  0  0  1  0  0  0  0  0999 V2000
   24.2628  -20.7632  -14.9445 N   0  0  0  0  0  0  0  0  0  0  0  0
   23.5276  -21.9571  -14.5875 C   0  0  1  0  0  0  0  0  0  0  0  0
   24.3668  -22.8519  -13.7512 C   0  0  0  0  0  0  0  0  0  0  0  0
   25.1303  -23.8439  -14.5611 C   0  0  0  0  0  0  0  0  0  0  0  0
   24.3151  -24.9196  -15.1578 C   0  0  0  0  0  0  0  0  0  0  0  0
   23.0802  -25.0410  -15.0007 O   0  0  0  0  0  0  0  0  0  0  0  0
   22.3134  -21.4979  -13.8421 C   0  0  0  0  0  0  0  0  0  0  0  0
   22.4452  -20.5233  -13.0645 O   0  0  0  0  0  0  0  0  0  0  0  0
   24.9372  -25.8778  -15.9543 O   0  0  0  0  0  0  0  0  0  0  0  0
   21.0575  -22.0940  -13.9688 N   0  0  0  0  0  0  0  0  0  0  0  0
   19.8308  -21.5645  -13.3102 C   0  0  1  0  0  0  0  0  0  0  0  0
   19.1198  -20.7564  -14.3463 C   0  0  0  0  0  0  0  0  0  0  0  0
   17.7785  -20.2226  -14.0057 C   0  0  0  0  0  0  0  0  0  0  0  0
   17.1370  -19.4801  -15.1375 C   0  0  0  0  0  0  0  0  0  0  0  0
   16.4515  -19.9904  -16.0297 O   0  0  0  0  0  0  0  0  0  0  0  0
   19.1214  -22.7255  -12.7863 C   0  0  0  0  0  0  0  0  0  0  0  0
   19.0708  -23.8183  -13.4546 O   0  0  0  0  0  0  0  0  0  0  0  0
   17.3691  -18.0919  -15.1315 O   0  0  0  0  0  0  0  0  0  0  0  0
   18.3721  -24.5137   -6.5644 C   0  0  0  0  0  0  0  0  0  0  0  0
   16.7165  -24.8284   -7.2099 S   0  0  0  0  0  0  0  0  0  0  0  0
   16.7904  -24.9214   -9.0161 C   0  0  0  0  0  0  0  0  0  0  0  0
   17.6544  -23.8351   -9.5878 C   0  0  0  0  0  0  0  0  0  0  0  0
   17.7453  -23.9167  -11.0767 C   0  0  2  0  0  0  0  0  0  0  0  0
   18.4693  -22.7173  -11.5448 N   0  0  0  0  0  0  0  0  0  0  0  0
   16.4624  -24.0013  -11.7787 C   0  0  0  0  0  0  0  0  0  0  0  0
   15.7150  -23.0122  -11.9625 O   0  0  0  0  0  0  0  0  0  0  0  0
   16.0255  -25.2158  -12.2751 O   0  0  0  0  0  0  0  0  0  0  0  0
  2  1  1  1
  2  3  1  0
  4  3  1  0
  4  5  1  0
  5  6  2  0
  7  2  1  0
  7  8  2  0
  9  5  1  0
 10  7  1  0
 11 10  1  0
 11 12  1  6
 13 12  1  0
 14 13  1  0
 14 15  2  0
 16 11  1  0
 17 16  2  0
 18 14  1  0
 19 20  1  0
 20 21  1  0
 22 21  1  0
 23 22  1  1
 23 24  1  0
 24 16  1  0
 25 23  1  0
 26 25  2  0
 27 25  1  0
M  END
$$$$
