EEM.pdb
     RDKit          3D

 27 26  0  0  1  0  0  0  0  0999 V2000
   20.3117  -13.7828  -18.9118 N   0  0  0  0  0  0  0  0  0  0  0  0
   19.5177  -13.0665  -17.9372 C   0  0  1  0  0  0  0  0  0  0  0  0
   19.7693  -13.5964  -16.5733 C   0  0  0  0  0  0  0  0  0  0  0  0
   19.0790  -14.8947  -16.3263 C   0  0  0  0  0  0  0  0  0  0  0  0
   17.6184  -14.7974  -16.1399 C   0  0  0  0  0  0  0  0  0  0  0  0
   16.9550  -13.7474  -16.2876 O   0  0  0  0  0  0  0  0  0  0  0  0
   19.9167  -11.6277  -18.0431 C   0  0  0  0  0  0  0  0  0  0  0  0
   21.1280  -11.3760  -18.2459 O   0  0  0  0  0  0  0  0  0  0  0  0
   16.9053  -15.9366  -15.7747 O   0  0  0  0  0  0  0  0  0  0  0  0
   19.0176  -10.5660  -17.9288 N   0  0  0  0  0  0  0  0  0  0  0  0
   19.4282   -9.1357  -17.9971 C   0  0  1  0  0  0  0  0  0  0  0  0
   18.2011   -8.3693  -18.3699 C   0  0  0  0  0  0  0  0  0  0  0  0
   17.7349   -8.4527  -19.7755 C   0  0  0  0  0  0  0  0  0  0  0  0
   16.4828   -7.6696  -20.0264 C   0  0  0  0  0  0  0  0  0  0  0  0
   16.3007   -6.8971  -20.9732 O   0  0  0  0  0  0  0  0  0  0  0  0
   20.0249   -8.8254  -16.7036 C   0  0  0  0  0  0  0  0  0  0  0  0
   19.8397   -9.5952  -15.6955 O   0  0  0  0  0  0  0  0  0  0  0  0
   15.4669   -7.8710  -19.0734 O   0  0  0  0  0  0  0  0  0  0  0  0
   25.9267   -9.6584  -15.1993 C   0  0  0  0  0  0  0  0  0  0  0  0
   24.6612   -9.9481  -13.9458 S   0  0  0  0  0  0  0  0  0  0  0  0
   23.4665   -8.5887  -13.9821 C   0  0  0  0  0  0  0  0  0  0  0  0
   22.5400   -8.7021  -15.1578 C   0  0  0  0  0  0  0  0  0  0  0  0
   21.5933   -7.5492  -15.2383 C   0  0  2  0  0  0  0  0  0  0  0  0
   20.8232   -7.6922  -16.4907 N   0  0  0  0  0  0  0  0  0  0  0  0
   22.2168   -6.2240  -15.2128 C   0  0  0  0  0  0  0  0  0  0  0  0
   22.4404   -5.5515  -16.2464 O   0  0  0  0  0  0  0  0  0  0  0  0
   22.5885   -5.6586  -14.0066 O   0  0  0  0  0  0  0  0  0  0  0  0
  2  1  1  6
  2  3  1  0
  4  3  1  0
  4  5  1  0
  5  6  2  0
  7  2  1  0
  7  8  2  0
  9  5  1  0
 10  7  1  0
 11 10  1  0
 11 12  1  1
 13 12  1  0
 14 13  1  0
 14 15  2  0
 16 11  1  0
 17 16  2  0
 18 14  1  0
 19 20  1  0
 20 21  1  0
 22 21  1  0
 23 22  1  6
 23 24  1  0
 24 16  1  0
 25 23  1  0
 26 25  2  0
 27 25  1  0
M  END
$$$$
