EEM.pdb
     RDKit          3D

 27 26  0  0  1  0  0  0  0  0999 V2000
   28.5895  -18.5046  -17.5614 N   0  0  0  0  0  0  0  0  0  0  0  0
   27.7910  -19.6462  -17.1711 C   0  0  1  0  0  0  0  0  0  0  0  0
   28.4882  -20.4319  -16.1217 C   0  0  0  0  0  0  0  0  0  0  0  0
   29.6326  -21.2206  -16.6614 C   0  0  0  0  0  0  0  0  0  0  0  0
   29.2540  -22.4394  -17.4023 C   0  0  0  0  0  0  0  0  0  0  0  0
   30.0681  -23.2788  -17.8460 O   0  0  0  0  0  0  0  0  0  0  0  0
   26.4916  -19.1001  -16.6674 C   0  0  0  0  0  0  0  0  0  0  0  0
   26.5327  -18.0624  -15.9650 O   0  0  0  0  0  0  0  0  0  0  0  0
   27.9056  -22.6972  -17.6374 O   0  0  0  0  0  0  0  0  0  0  0  0
   25.2519  -19.6820  -16.9380 N   0  0  0  0  0  0  0  0  0  0  0  0
   23.9814  -19.2325  -16.3033 C   0  0  1  0  0  0  0  0  0  0  0  0
   22.9717  -19.1607  -17.4021 C   0  0  0  0  0  0  0  0  0  0  0  0
   21.5830  -18.7852  -17.0407 C   0  0  0  0  0  0  0  0  0  0  0  0
   20.7627  -19.9483  -16.5735 C   0  0  0  0  0  0  0  0  0  0  0  0
   20.8858  -21.1132  -16.9662 O   0  0  0  0  0  0  0  0  0  0  0  0
   23.7111  -20.1792  -15.2279 C   0  0  0  0  0  0  0  0  0  0  0  0
   24.3910  -21.2607  -15.1214 O   0  0  0  0  0  0  0  0  0  0  0  0
   19.7892  -19.6268  -15.6093 O   0  0  0  0  0  0  0  0  0  0  0  0
   25.5676  -21.1491   -8.3722 C   0  0  0  0  0  0  0  0  0  0  0  0
   25.5413  -20.3788  -10.0040 S   0  0  0  0  0  0  0  0  0  0  0  0
   24.0611  -20.9213  -10.8936 C   0  0  0  0  0  0  0  0  0  0  0  0
   23.9856  -20.3072  -12.2614 C   0  0  0  0  0  0  0  0  0  0  0  0
   22.7432  -20.7081  -12.9877 C   0  0  2  0  0  0  0  0  0  0  0  0
   22.7148  -19.9657  -14.2644 N   0  0  0  0  0  0  0  0  0  0  0  0
   21.4908  -20.4639  -12.2682 C   0  0  0  0  0  0  0  0  0  0  0  0
   20.9964  -19.3217  -12.1207 O   0  0  0  0  0  0  0  0  0  0  0  0
   20.7954  -21.5225  -11.7131 O   0  0  0  0  0  0  0  0  0  0  0  0
  2  1  1  1
  2  3  1  0
  4  3  1  0
  4  5  1  0
  5  6  2  0
  7  2  1  0
  7  8  2  0
  9  5  1  0
 10  7  1  0
 11 10  1  0
 11 12  1  6
 13 12  1  0
 14 13  1  0
 14 15  2  0
 16 11  1  0
 17 16  2  0
 18 14  1  0
 19 20  1  0
 20 21  1  0
 22 21  1  0
 23 22  1  1
 23 24  1  0
 24 16  1  0
 25 23  1  0
 26 25  2  0
 27 25  1  0
M  END
$$$$
