EEM.pdb
     RDKit          3D

 27 26  0  0  1  0  0  0  0  0999 V2000
   21.5197  -20.4133  -15.2706 N   0  0  0  0  0  0  0  0  0  0  0  0
   21.2504  -20.1734  -13.8695 C   0  0  1  0  0  0  0  0  0  0  0  0
   19.8534  -20.5517  -13.5381 C   0  0  0  0  0  0  0  0  0  0  0  0
   18.8558  -19.5732  -14.0580 C   0  0  0  0  0  0  0  0  0  0  0  0
   18.6352  -18.3937  -13.1991 C   0  0  0  0  0  0  0  0  0  0  0  0
   18.9083  -17.2183  -13.5281 O   0  0  0  0  0  0  0  0  0  0  0  0
   22.2338  -21.0015  -13.1029 C   0  0  0  0  0  0  0  0  0  0  0  0
   21.7902  -21.9874  -12.4678 O   0  0  0  0  0  0  0  0  0  0  0  0
   18.0868  -18.5725  -11.9314 O   0  0  0  0  0  0  0  0  0  0  0  0
   23.6031  -20.7335  -13.0611 N   0  0  0  0  0  0  0  0  0  0  0  0
   24.5855  -21.6033  -12.3558 C   0  0  1  0  0  0  0  0  0  0  0  0
   25.3482  -22.3178  -13.4234 C   0  0  0  0  0  0  0  0  0  0  0  0
   24.7160  -23.5061  -14.0465 C   0  0  0  0  0  0  0  0  0  0  0  0
   25.6003  -24.1851  -15.0470 C   0  0  0  0  0  0  0  0  0  0  0  0
   26.7346  -23.8140  -15.3664 O   0  0  0  0  0  0  0  0  0  0  0  0
   25.3518  -20.7211  -11.4840 C   0  0  0  0  0  0  0  0  0  0  0  0
   25.5606  -19.4989  -11.8092 O   0  0  0  0  0  0  0  0  0  0  0  0
   25.0400  -25.3331  -15.6378 O   0  0  0  0  0  0  0  0  0  0  0  0
   28.9797  -18.7427   -4.8849 C   0  0  0  0  0  0  0  0  0  0  0  0
   27.7066  -19.7542   -5.6677 S   0  0  0  0  0  0  0  0  0  0  0  0
   27.9683  -19.7578   -7.4588 C   0  0  0  0  0  0  0  0  0  0  0  0
   26.8411  -20.4404   -8.1779 C   0  0  0  0  0  0  0  0  0  0  0  0
   27.0310  -20.4253   -9.6596 C   0  0  2  0  0  0  0  0  0  0  0  0
   25.8916  -21.1472  -10.2617 N   0  0  0  0  0  0  0  0  0  0  0  0
   28.2792  -21.0252  -10.1370 C   0  0  0  0  0  0  0  0  0  0  0  0
   28.3589  -22.2067  -10.5474 O   0  0  0  0  0  0  0  0  0  0  0  0
   29.4437  -20.2794  -10.1489 O   0  0  0  0  0  0  0  0  0  0  0  0
  2  1  1  6
  2  3  1  0
  4  3  1  0
  4  5  1  0
  5  6  2  0
  7  2  1  0
  7  8  2  0
  9  5  1  0
 10  7  1  0
 11 10  1  0
 11 12  1  6
 13 12  1  0
 14 13  1  0
 14 15  2  0
 16 11  1  0
 17 16  2  0
 18 14  1  0
 19 20  1  0
 20 21  1  0
 22 21  1  0
 23 22  1  1
 23 24  1  0
 24 16  1  0
 25 23  1  0
 26 25  2  0
 27 25  1  0
M  END
$$$$
