EEM.pdb
     RDKit          3D

 27 26  0  0  1  0  0  0  0  0999 V2000
   18.3148  -12.0104  -15.6129 N   0  0  0  0  0  0  0  0  0  0  0  0
   18.1473  -10.8274  -16.4288 C   0  0  1  0  0  0  0  0  0  0  0  0
   16.7115  -10.4611  -16.5220 C   0  0  0  0  0  0  0  0  0  0  0  0
   15.9318  -11.4090  -17.3686 C   0  0  0  0  0  0  0  0  0  0  0  0
   14.5322  -11.0135  -17.6183 C   0  0  0  0  0  0  0  0  0  0  0  0
   14.1046  -10.5771  -18.7096 O   0  0  0  0  0  0  0  0  0  0  0  0
   18.9426   -9.7441  -15.7697 C   0  0  0  0  0  0  0  0  0  0  0  0
   18.7675   -9.5624  -14.5416 O   0  0  0  0  0  0  0  0  0  0  0  0
   13.6033  -11.1237  -16.5864 O   0  0  0  0  0  0  0  0  0  0  0  0
   19.8582   -8.9365  -16.4467 N   0  0  0  0  0  0  0  0  0  0  0  0
   20.6458   -7.8600  -15.7836 C   0  0  1  0  0  0  0  0  0  0  0  0
   22.0554   -8.0314  -16.2482 C   0  0  0  0  0  0  0  0  0  0  0  0
   23.0486   -7.0110  -15.8329 C   0  0  0  0  0  0  0  0  0  0  0  0
   24.3833   -7.1892  -16.4891 C   0  0  0  0  0  0  0  0  0  0  0  0
   24.9574   -6.3432  -17.1827 O   0  0  0  0  0  0  0  0  0  0  0  0
   19.9897   -6.6062  -16.1345 C   0  0  0  0  0  0  0  0  0  0  0  0
   19.6645   -6.3548  -17.3487 O   0  0  0  0  0  0  0  0  0  0  0  0
   24.9835   -8.4418  -16.2617 O   0  0  0  0  0  0  0  0  0  0  0  0
   14.6844   -4.4218  -15.4330 C   0  0  0  0  0  0  0  0  0  0  0  0
   15.3850   -2.8141  -15.0076 S   0  0  0  0  0  0  0  0  0  0  0  0
   17.1687   -2.8430  -15.3143 C   0  0  0  0  0  0  0  0  0  0  0  0
   17.7353   -4.2215  -15.1349 C   0  0  0  0  0  0  0  0  0  0  0  0
   19.1471   -4.3138  -15.6146 C   0  0  2  0  0  0  0  0  0  0  0  0
   19.6787   -5.6229  -15.1841 N   0  0  0  0  0  0  0  0  0  0  0  0
   20.0415   -3.2572  -15.1356 C   0  0  0  0  0  0  0  0  0  0  0  0
   19.9199   -2.0542  -15.4656 O   0  0  0  0  0  0  0  0  0  0  0  0
   21.0800   -3.5679  -14.2769 O   0  0  0  0  0  0  0  0  0  0  0  0
  2  1  1  1
  2  3  1  0
  4  3  1  0
  4  5  1  0
  5  6  2  0
  7  2  1  0
  7  8  2  0
  9  5  1  0
 10  7  1  0
 11 10  1  0
 11 12  1  6
 13 12  1  0
 14 13  1  0
 14 15  2  0
 16 11  1  0
 17 16  2  0
 18 14  1  0
 19 20  1  0
 20 21  1  0
 22 21  1  0
 23 22  1  1
 23 24  1  0
 24 16  1  0
 25 23  1  0
 26 25  2  0
 27 25  1  0
M  END
$$$$
