EEM.pdb
     RDKit          3D

 27 26  0  0  1  0  0  0  0  0999 V2000
   13.6727   -9.1763  -12.1596 N   0  0  0  0  0  0  0  0  0  0  0  0
   14.9381   -9.2425  -11.4615 C   0  0  1  0  0  0  0  0  0  0  0  0
   15.9082  -10.0683  -12.2240 C   0  0  0  0  0  0  0  0  0  0  0  0
   15.6011  -11.5256  -12.1527 C   0  0  0  0  0  0  0  0  0  0  0  0
   15.7820  -12.1353  -10.8212 C   0  0  0  0  0  0  0  0  0  0  0  0
   16.7819  -11.9563  -10.0913 O   0  0  0  0  0  0  0  0  0  0  0  0
   15.4176   -7.8314  -11.3221 C   0  0  0  0  0  0  0  0  0  0  0  0
   15.2354   -7.0592  -12.2929 O   0  0  0  0  0  0  0  0  0  0  0  0
   14.7876  -12.9709  -10.3185 O   0  0  0  0  0  0  0  0  0  0  0  0
   16.0495   -7.3393  -10.1787 N   0  0  0  0  0  0  0  0  0  0  0  0
   16.4695   -5.9185  -10.0241 C   0  0  1  0  0  0  0  0  0  0  0  0
   15.7702   -5.4096   -8.8058 C   0  0  0  0  0  0  0  0  0  0  0  0
   14.3421   -5.0308   -8.9366 C   0  0  0  0  0  0  0  0  0  0  0  0
   13.7769   -4.4302   -7.6861 C   0  0  0  0  0  0  0  0  0  0  0  0
   12.6207   -4.0161   -7.5515 O   0  0  0  0  0  0  0  0  0  0  0  0
   17.9269   -5.9312   -9.9838 C   0  0  0  0  0  0  0  0  0  0  0  0
   18.5530   -6.7099   -9.1808 O   0  0  0  0  0  0  0  0  0  0  0  0
   14.6829   -4.3580   -6.6115 O   0  0  0  0  0  0  0  0  0  0  0  0
   22.7988   -9.6100  -13.1000 C   0  0  0  0  0  0  0  0  0  0  0  0
   21.2506   -9.1222  -12.3114 S   0  0  0  0  0  0  0  0  0  0  0  0
   20.8037   -7.4559  -12.8593 C   0  0  0  0  0  0  0  0  0  0  0  0
   19.6355   -6.9174  -12.0854 C   0  0  0  0  0  0  0  0  0  0  0  0
   19.9637   -5.6326  -11.3973 C   0  0  2  0  0  0  0  0  0  0  0  0
   18.7138   -5.1122  -10.8065 N   0  0  0  0  0  0  0  0  0  0  0  0
   20.5525   -4.5978  -12.2506 C   0  0  0  0  0  0  0  0  0  0  0  0
   21.7886   -4.4273  -12.3679 O   0  0  0  0  0  0  0  0  0  0  0  0
   19.7332   -3.7515  -12.9753 O   0  0  0  0  0  0  0  0  0  0  0  0
  2  1  1  6
  2  3  1  0
  4  3  1  0
  4  5  1  0
  5  6  2  0
  7  2  1  0
  7  8  2  0
  9  5  1  0
 10  7  1  0
 11 10  1  0
 11 12  1  1
 13 12  1  0
 14 13  1  0
 14 15  2  0
 16 11  1  0
 17 16  2  0
 18 14  1  0
 19 20  1  0
 20 21  1  0
 22 21  1  0
 23 22  1  6
 23 24  1  0
 24 16  1  0
 25 23  1  0
 26 25  2  0
 27 25  1  0
M  END
$$$$
