EEM.pdb
     RDKit          3D

 27 26  0  0  1  0  0  0  0  0999 V2000
   16.8024  -12.5798  -14.7007 N   0  0  0  0  0  0  0  0  0  0  0  0
   16.4179  -11.1903  -14.8218 C   0  0  1  0  0  0  0  0  0  0  0  0
   14.9391  -11.0584  -14.8048 C   0  0  0  0  0  0  0  0  0  0  0  0
   14.2482  -12.3706  -14.6500 C   0  0  0  0  0  0  0  0  0  0  0  0
   13.0363  -12.3403  -13.8086 C   0  0  0  0  0  0  0  0  0  0  0  0
   12.6369  -11.3356  -13.1798 O   0  0  0  0  0  0  0  0  0  0  0  0
   17.0401  -10.4776  -13.6619 C   0  0  0  0  0  0  0  0  0  0  0  0
   17.2673  -11.1457  -12.6257 O   0  0  0  0  0  0  0  0  0  0  0  0
   12.2664  -13.4947  -13.6890 O   0  0  0  0  0  0  0  0  0  0  0  0
   17.3758   -9.1226  -13.6773 N   0  0  0  0  0  0  0  0  0  0  0  0
   18.0803   -8.4419  -12.5551 C   0  0  1  0  0  0  0  0  0  0  0  0
   19.1945   -7.6639  -13.1761 C   0  0  0  0  0  0  0  0  0  0  0  0
   20.3640   -8.4197  -13.6867 C   0  0  0  0  0  0  0  0  0  0  0  0
   21.4218   -7.5376  -14.2756 C   0  0  0  0  0  0  0  0  0  0  0  0
   21.4735   -6.3087  -14.1599 O   0  0  0  0  0  0  0  0  0  0  0  0
   17.0629   -7.6748  -11.8467 C   0  0  0  0  0  0  0  0  0  0  0  0
   16.1153   -7.0959  -12.4870 O   0  0  0  0  0  0  0  0  0  0  0  0
   22.4100   -8.2203  -15.0093 O   0  0  0  0  0  0  0  0  0  0  0  0
   11.7322   -6.8576   -6.5192 C   0  0  0  0  0  0  0  0  0  0  0  0
   12.9688   -7.8604   -7.3689 S   0  0  0  0  0  0  0  0  0  0  0  0
   14.1145   -6.7707   -8.2499 C   0  0  0  0  0  0  0  0  0  0  0  0
   15.1262   -7.5550   -9.0342 C   0  0  0  0  0  0  0  0  0  0  0  0
   16.0552   -6.6672   -9.7961 C   0  0  2  0  0  0  0  0  0  0  0  0
   17.0584   -7.5307  -10.4517 N   0  0  0  0  0  0  0  0  0  0  0  0
   16.7495   -5.6545   -8.9973 C   0  0  0  0  0  0  0  0  0  0  0  0
   17.9680   -5.7230   -8.7123 O   0  0  0  0  0  0  0  0  0  0  0  0
   16.0565   -4.5573   -8.5193 O   0  0  0  0  0  0  0  0  0  0  0  0
  2  1  1  1
  2  3  1  0
  4  3  1  0
  4  5  1  0
  5  6  2  0
  7  2  1  0
  7  8  2  0
  9  5  1  0
 10  7  1  0
 11 10  1  0
 11 12  1  6
 13 12  1  0
 14 13  1  0
 14 15  2  0
 16 11  1  0
 17 16  2  0
 18 14  1  0
 19 20  1  0
 20 21  1  0
 22 21  1  0
 23 22  1  1
 23 24  1  0
 24 16  1  0
 25 23  1  0
 26 25  2  0
 27 25  1  0
M  END
$$$$
