EEM.pdb
     RDKit          3D

 27 26  0  0  1  0  0  0  0  0999 V2000
   26.2870  -18.2773  -16.5262 N   0  0  0  0  0  0  0  0  0  0  0  0
   26.8405  -19.2009  -15.5599 C   0  0  1  0  0  0  0  0  0  0  0  0
   28.2750  -18.9025  -15.3203 C   0  0  0  0  0  0  0  0  0  0  0  0
   29.1757  -19.6194  -16.2679 C   0  0  0  0  0  0  0  0  0  0  0  0
   28.9580  -19.3037  -17.6928 C   0  0  0  0  0  0  0  0  0  0  0  0
   28.6682  -20.1488  -18.5682 O   0  0  0  0  0  0  0  0  0  0  0  0
   26.0351  -19.0359  -14.3090 C   0  0  0  0  0  0  0  0  0  0  0  0
   25.8280  -17.8678  -13.9033 O   0  0  0  0  0  0  0  0  0  0  0  0
   29.0769  -17.9832  -18.1194 O   0  0  0  0  0  0  0  0  0  0  0  0
   25.5098  -20.1052  -13.5813 N   0  0  0  0  0  0  0  0  0  0  0  0
   24.6381  -19.9311  -12.3860 C   0  0  1  0  0  0  0  0  0  0  0  0
   23.3369  -20.5833  -12.7232 C   0  0  0  0  0  0  0  0  0  0  0  0
   22.3197  -20.6918  -11.6492 C   0  0  0  0  0  0  0  0  0  0  0  0
   21.0774  -21.4052  -12.0866 C   0  0  0  0  0  0  0  0  0  0  0  0
   21.0031  -22.6072  -12.3625 O   0  0  0  0  0  0  0  0  0  0  0  0
   25.3785  -20.4918  -11.2621 C   0  0  0  0  0  0  0  0  0  0  0  0
   25.9462  -21.6371  -11.3581 O   0  0  0  0  0  0  0  0  0  0  0  0
   19.9342  -20.5888  -12.1720 O   0  0  0  0  0  0  0  0  0  0  0  0
   28.9432  -19.7912   -4.3379 C   0  0  0  0  0  0  0  0  0  0  0  0
   28.2956  -18.9700   -5.8086 S   0  0  0  0  0  0  0  0  0  0  0  0
   27.2538  -20.1307   -6.7273 C   0  0  0  0  0  0  0  0  0  0  0  0
   26.8141  -19.5535   -8.0415 C   0  0  0  0  0  0  0  0  0  0  0  0
   26.0379  -20.5378   -8.8541 C   0  0  2  0  0  0  0  0  0  0  0  0
   25.5138  -19.8240  -10.0364 N   0  0  0  0  0  0  0  0  0  0  0  0
   24.9236  -21.1848   -8.1573 C   0  0  0  0  0  0  0  0  0  0  0  0
   23.7279  -20.8417   -8.3096 O   0  0  0  0  0  0  0  0  0  0  0  0
   25.1681  -22.2276   -7.2825 O   0  0  0  0  0  0  0  0  0  0  0  0
  2  1  1  6
  2  3  1  0
  4  3  1  0
  4  5  1  0
  5  6  2  0
  7  2  1  0
  7  8  2  0
  9  5  1  0
 10  7  1  0
 11 10  1  0
 11 12  1  6
 13 12  1  0
 14 13  1  0
 14 15  2  0
 16 11  1  0
 17 16  2  0
 18 14  1  0
 19 20  1  0
 20 21  1  0
 22 21  1  0
 23 22  1  1
 23 24  1  0
 24 16  1  0
 25 23  1  0
 26 25  2  0
 27 25  1  0
M  END
$$$$
