EEM.pdb
     RDKit          3D

 27 26  0  0  1  0  0  0  0  0999 V2000
   19.1244  -12.2717  -15.5066 N   0  0  0  0  0  0  0  0  0  0  0  0
   19.0263  -11.1243  -16.3826 C   0  0  1  0  0  0  0  0  0  0  0  0
   17.6266  -10.6320  -16.4368 C   0  0  0  0  0  0  0  0  0  0  0  0
   16.6958  -11.6176  -17.0574 C   0  0  0  0  0  0  0  0  0  0  0  0
   16.3273  -12.7553  -16.1929 C   0  0  0  0  0  0  0  0  0  0  0  0
   16.7599  -13.9203  -16.3345 O   0  0  0  0  0  0  0  0  0  0  0  0
   19.9463  -10.0853  -15.8218 C   0  0  0  0  0  0  0  0  0  0  0  0
   19.9622   -9.9368  -14.5770 O   0  0  0  0  0  0  0  0  0  0  0  0
   15.4396  -12.5460  -15.1404 O   0  0  0  0  0  0  0  0  0  0  0  0
   20.7770   -9.2838  -16.6069 N   0  0  0  0  0  0  0  0  0  0  0  0
   21.6363   -8.2029  -16.0482 C   0  0  1  0  0  0  0  0  0  0  0  0
   23.0234   -8.4880  -16.5245 C   0  0  0  0  0  0  0  0  0  0  0  0
   24.0704   -7.4741  -16.2493 C   0  0  0  0  0  0  0  0  0  0  0  0
   24.9004   -7.1455  -17.4521 C   0  0  0  0  0  0  0  0  0  0  0  0
   25.3093   -6.0189  -17.7523 O   0  0  0  0  0  0  0  0  0  0  0  0
   21.0399   -6.9468  -16.4864 C   0  0  0  0  0  0  0  0  0  0  0  0
   20.5015   -6.8468  -17.6454 O   0  0  0  0  0  0  0  0  0  0  0  0
   25.2078   -8.2495  -18.2692 O   0  0  0  0  0  0  0  0  0  0  0  0
   15.7092   -2.4626  -17.8958 C   0  0  0  0  0  0  0  0  0  0  0  0
   16.5781   -3.9973  -17.5129 S   0  0  0  0  0  0  0  0  0  0  0  0
   18.2601   -3.6082  -16.9690 C   0  0  0  0  0  0  0  0  0  0  0  0
   19.0292   -4.8514  -16.6279 C   0  0  0  0  0  0  0  0  0  0  0  0
   20.4245   -4.5448  -16.1907 C   0  0  2  0  0  0  0  0  0  0  0  0
   21.0170   -5.7985  -15.6816 N   0  0  0  0  0  0  0  0  0  0  0  0
   20.5449   -3.5101  -15.1609 C   0  0  0  0  0  0  0  0  0  0  0  0
   20.8206   -3.7622  -13.9646 O   0  0  0  0  0  0  0  0  0  0  0  0
   20.3514   -2.1812  -15.4911 O   0  0  0  0  0  0  0  0  0  0  0  0
  2  1  1  1
  2  3  1  0
  4  3  1  0
  4  5  1  0
  5  6  2  0
  7  2  1  0
  7  8  2  0
  9  5  1  0
 10  7  1  0
 11 10  1  0
 11 12  1  6
 13 12  1  0
 14 13  1  0
 14 15  2  0
 16 11  1  0
 17 16  2  0
 18 14  1  0
 19 20  1  0
 20 21  1  0
 22 21  1  0
 23 22  1  1
 23 24  1  0
 24 16  1  0
 25 23  1  0
 26 25  2  0
 27 25  1  0
M  END
$$$$
