YPI.pdb
     RDKit          3D

 28 29  0  0  1  0  0  0  0  0999 V2000
   22.7323  -21.0022   -7.9129 O   0  0  0  0  0  0  0  0  0  0  0  0
   23.4353  -20.8472   -9.1101 C   0  0  0  0  0  0  0  0  0  0  0  0
   22.8411  -20.4148  -10.2662 C   0  0  0  0  0  0  0  0  0  0  0  0
   23.5817  -20.2734  -11.4430 C   0  0  0  0  0  0  0  0  0  0  0  0
   24.9272  -20.5647  -11.4717 C   0  0  0  0  0  0  0  0  0  0  0  0
   25.7366  -20.4215  -12.7006 C   0  0  0  0  0  0  0  0  0  0  0  0
   25.3884  -21.4379  -13.7690 C   0  0  2  0  0  0  0  0  0  0  0  0
   26.0287  -22.7037  -13.6043 N   0  0  0  0  0  0  0  0  0  0  0  0
   25.4930  -20.8510  -15.1261 C   0  0  0  0  0  0  0  0  0  0  0  0
   26.5919  -21.0836  -15.7696 O   0  0  0  0  0  0  0  0  0  0  0  0
   25.5053  -21.0019  -10.2841 C   0  0  0  0  0  0  0  0  0  0  0  0
   24.7750  -21.1407   -9.1261 C   0  0  0  0  0  0  0  0  0  0  0  0
   24.5134  -20.0683  -15.7751 N   0  0  0  0  0  0  0  0  0  0  0  0
   23.2676  -19.5388  -15.3107 C   0  0  0  0  0  0  0  0  0  0  0  0
   22.3623  -19.6233  -16.5351 C   0  0  0  0  0  0  0  0  0  0  0  0
   23.2635  -19.8797  -17.6916 C   0  0  0  0  0  0  0  0  0  0  0  0
   24.6316  -19.6127  -17.1642 C   0  0  1  0  0  0  0  0  0  0  0  0
   25.0447  -18.2080  -17.1766 C   0  0  0  0  0  0  0  0  0  0  0  0
   24.6687  -17.4240  -16.2446 O   0  0  0  0  0  0  0  0  0  0  0  0
   30.1181  -17.6759  -17.6762 C   0  0  0  0  0  0  0  0  0  0  0  0
   28.6844  -17.4195  -17.4874 C   0  0  0  0  0  0  0  0  0  0  0  0
   27.9414  -16.4657  -18.3014 C   0  0  2  0  0  0  0  0  0  0  0  0
   28.6312  -15.0934  -18.3704 C   0  0  0  0  0  0  0  0  0  0  0  0
   26.4890  -16.3282  -18.0871 C   0  0  2  0  0  0  0  0  0  0  0  0
   25.8599  -17.6745  -18.2006 N   0  0  0  0  0  0  0  0  0  0  0  0
   25.8066  -15.5118  -19.0700 C   0  0  0  0  0  0  0  0  0  0  0  0
   25.4452  -16.0052  -20.1689 O   0  0  0  0  0  0  0  0  0  0  0  0
   25.5115  -14.1905  -18.8675 O   0  0  0  0  0  0  0  0  0  0  0  0
  2  1  1  0
  3  2  2  0
  4  3  1  0
  5  4  2  0
  5 11  1  0
  6  5  1  0
  7  9  1  0
  7  6  1  0
  7  8  1  6
  9 13  1  0
  9 10  2  0
 11 12  2  0
 12  2  1  0
 13 14  1  0
 14 15  1  0
 16 15  1  0
 17 13  1  0
 17 16  1  0
 17 18  1  1
 19 18  2  0
 20 21  1  0
 21 22  1  0
 22 24  1  0
 22 23  1  1
 24 25  1  6
 25 18  1  0
 26 24  1  0
 26 28  1  0
 27 26  2  0
M  END
$$$$
