YPI.pdb
     RDKit          3D

 28 29  0  0  1  0  0  0  0  0999 V2000
   21.0769  -17.7344  -16.5888 O   0  0  0  0  0  0  0  0  0  0  0  0
   21.7162  -18.3251  -15.4963 C   0  0  0  0  0  0  0  0  0  0  0  0
   21.0571  -19.1153  -14.5920 C   0  0  0  0  0  0  0  0  0  0  0  0
   21.7352  -19.6875  -13.5121 C   0  0  0  0  0  0  0  0  0  0  0  0
   23.0829  -19.4725  -13.3286 C   0  0  0  0  0  0  0  0  0  0  0  0
   23.8271  -20.0671  -12.1980 C   0  0  0  0  0  0  0  0  0  0  0  0
   24.6576  -21.2708  -12.5945 C   0  0  2  0  0  0  0  0  0  0  0  0
   23.9008  -22.3484  -13.1472 N   0  0  0  0  0  0  0  0  0  0  0  0
   25.6026  -21.6521  -11.5180 C   0  0  0  0  0  0  0  0  0  0  0  0
   25.2191  -22.6019  -10.7264 O   0  0  0  0  0  0  0  0  0  0  0  0
   23.7277  -18.6662  -14.2613 C   0  0  0  0  0  0  0  0  0  0  0  0
   23.0588  -18.1034  -15.3241 C   0  0  0  0  0  0  0  0  0  0  0  0
   26.8707  -21.0793  -11.2786 N   0  0  0  0  0  0  0  0  0  0  0  0
   27.5693  -20.0207  -11.9417 C   0  0  0  0  0  0  0  0  0  0  0  0
   29.0288  -20.4583  -11.8784 C   0  0  0  0  0  0  0  0  0  0  0  0
   29.0796  -21.5666  -10.8862 C   0  0  0  0  0  0  0  0  0  0  0  0
   27.7607  -21.5082  -10.1946 C   0  0  1  0  0  0  0  0  0  0  0  0
   27.6734  -20.5488   -9.0919 C   0  0  0  0  0  0  0  0  0  0  0  0
   27.2501  -19.3660   -9.3072 O   0  0  0  0  0  0  0  0  0  0  0  0
   26.8774  -22.6738   -4.0526 C   0  0  0  0  0  0  0  0  0  0  0  0
   26.8293  -21.7051   -5.1555 C   0  0  0  0  0  0  0  0  0  0  0  0
   27.8715  -20.7101   -5.3753 C   0  0  2  0  0  0  0  0  0  0  0  0
   28.0703  -19.7926   -4.1578 C   0  0  0  0  0  0  0  0  0  0  0  0
   27.8663  -19.9417   -6.6337 C   0  0  2  0  0  0  0  0  0  0  0  0
   28.0471  -20.8872   -7.7714 N   0  0  0  0  0  0  0  0  0  0  0  0
   28.9478  -18.9870   -6.7646 C   0  0  0  0  0  0  0  0  0  0  0  0
   28.7563  -17.7685   -6.5193 O   0  0  0  0  0  0  0  0  0  0  0  0
   30.2144  -19.3416   -7.1442 O   0  0  0  0  0  0  0  0  0  0  0  0
  2  1  1  0
  3  2  2  0
  4  3  1  0
  5  4  2  0
  5 11  1  0
  6  5  1  0
  7  9  1  0
  7  6  1  0
  7  8  1  1
  9 13  1  0
  9 10  2  0
 11 12  2  0
 12  2  1  0
 13 14  1  0
 14 15  1  0
 16 15  1  0
 17 13  1  0
 17 16  1  0
 17 18  1  1
 19 18  2  0
 20 21  1  0
 21 22  1  0
 22 24  1  0
 22 23  1  1
 24 25  1  6
 25 18  1  0
 26 24  1  0
 26 28  1  0
 27 26  2  0
M  END
$$$$
