YPI.pdb
     RDKit          3D

 28 29  0  0  1  0  0  0  0  0999 V2000
   21.8327  -17.6810  -16.5857 O   0  0  0  0  0  0  0  0  0  0  0  0
   22.4361  -18.2453  -15.4593 C   0  0  0  0  0  0  0  0  0  0  0  0
   21.7363  -18.9669  -14.5285 C   0  0  0  0  0  0  0  0  0  0  0  0
   22.3793  -19.5148  -13.4151 C   0  0  0  0  0  0  0  0  0  0  0  0
   23.7324  -19.3441  -13.2243 C   0  0  0  0  0  0  0  0  0  0  0  0
   24.4399  -19.9147  -12.0583 C   0  0  0  0  0  0  0  0  0  0  0  0
   25.1761  -21.2006  -12.3748 C   0  0  2  0  0  0  0  0  0  0  0  0
   24.3427  -22.2427  -12.8836 N   0  0  0  0  0  0  0  0  0  0  0  0
   26.0718  -21.5970  -11.2622 C   0  0  0  0  0  0  0  0  0  0  0  0
   25.6049  -22.4753  -10.4337 O   0  0  0  0  0  0  0  0  0  0  0  0
   24.4187  -18.6073  -14.1843 C   0  0  0  0  0  0  0  0  0  0  0  0
   23.7843  -18.0683  -15.2801 C   0  0  0  0  0  0  0  0  0  0  0  0
   27.3751  -21.1087  -11.0250 N   0  0  0  0  0  0  0  0  0  0  0  0
   28.1657  -20.1459  -11.7294 C   0  0  0  0  0  0  0  0  0  0  0  0
   29.5859  -20.6879  -11.6069 C   0  0  0  0  0  0  0  0  0  0  0  0
   29.5320  -21.7379  -10.5532 C   0  0  0  0  0  0  0  0  0  0  0  0
   28.2082  -21.5404   -9.8977 C   0  0  1  0  0  0  0  0  0  0  0  0
   28.1732  -20.5152   -8.8529 C   0  0  0  0  0  0  0  0  0  0  0  0
   27.7405  -19.3463   -9.1199 O   0  0  0  0  0  0  0  0  0  0  0  0
   25.6847  -22.1554   -4.6916 C   0  0  0  0  0  0  0  0  0  0  0  0
   26.3261  -21.1990   -5.6032 C   0  0  0  0  0  0  0  0  0  0  0  0
   27.6332  -20.6121   -5.3362 C   0  0  2  0  0  0  0  0  0  0  0  0
   27.6727  -19.8565   -3.9979 C   0  0  0  0  0  0  0  0  0  0  0  0
   28.3012  -19.8482   -6.4060 C   0  0  2  0  0  0  0  0  0  0  0  0
   28.6084  -20.7735   -7.5332 N   0  0  0  0  0  0  0  0  0  0  0  0
   29.5781  -19.2746   -6.0336 C   0  0  0  0  0  0  0  0  0  0  0  0
   30.6349  -19.9482   -6.1386 O   0  0  0  0  0  0  0  0  0  0  0  0
   29.7135  -17.9954   -5.5652 O   0  0  0  0  0  0  0  0  0  0  0  0
  2  1  1  0
  3  2  2  0
  4  3  1  0
  5  4  2  0
  5 11  1  0
  6  5  1  0
  7  9  1  0
  7  6  1  0
  7  8  1  1
  9 13  1  0
  9 10  2  0
 11 12  2  0
 12  2  1  0
 13 14  1  0
 14 15  1  0
 16 15  1  0
 17 13  1  0
 17 16  1  0
 17 18  1  1
 19 18  2  0
 20 21  1  0
 21 22  1  0
 22 24  1  0
 22 23  1  1
 24 25  1  6
 25 18  1  0
 26 24  1  0
 26 28  1  0
 27 26  2  0
M  END
$$$$
