YPI.pdb
     RDKit          3D

 28 29  0  0  1  0  0  0  0  0999 V2000
   19.3602  -19.2823  -19.1414 O   0  0  0  0  0  0  0  0  0  0  0  0
   20.3279  -19.6109  -18.1891 C   0  0  0  0  0  0  0  0  0  0  0  0
   21.3998  -18.8033  -17.9145 C   0  0  0  0  0  0  0  0  0  0  0  0
   22.3457  -19.1701  -16.9532 C   0  0  0  0  0  0  0  0  0  0  0  0
   22.2255  -20.3521  -16.2570 C   0  0  0  0  0  0  0  0  0  0  0  0
   23.2084  -20.7646  -15.2326 C   0  0  0  0  0  0  0  0  0  0  0  0
   24.4865  -21.3269  -15.8207 C   0  0  2  0  0  0  0  0  0  0  0  0
   24.3011  -22.5045  -16.6070 N   0  0  0  0  0  0  0  0  0  0  0  0
   25.5575  -21.4135  -14.7996 C   0  0  0  0  0  0  0  0  0  0  0  0
   25.9138  -22.6050  -14.4403 O   0  0  0  0  0  0  0  0  0  0  0  0
   21.1279  -21.1533  -16.5555 C   0  0  0  0  0  0  0  0  0  0  0  0
   20.1973  -20.7910  -17.5023 C   0  0  0  0  0  0  0  0  0  0  0  0
   26.2181  -20.3258  -14.1881 N   0  0  0  0  0  0  0  0  0  0  0  0
   26.2119  -18.9267  -14.4894 C   0  0  0  0  0  0  0  0  0  0  0  0
   27.6369  -18.4846  -14.1736 C   0  0  0  0  0  0  0  0  0  0  0  0
   28.2464  -19.5979  -13.3961 C   0  0  0  0  0  0  0  0  0  0  0  0
   27.0935  -20.4642  -13.0195 C   0  0  1  0  0  0  0  0  0  0  0  0
   26.3639  -20.0494  -11.8196 C   0  0  0  0  0  0  0  0  0  0  0  0
   25.2020  -19.5361  -11.9248 O   0  0  0  0  0  0  0  0  0  0  0  0
   28.8838  -19.8124   -6.9296 C   0  0  0  0  0  0  0  0  0  0  0  0
   28.1143  -20.6627   -7.8471 C   0  0  0  0  0  0  0  0  0  0  0  0
   26.7034  -20.4359   -8.1342 C   0  0  2  0  0  0  0  0  0  0  0  0
   25.7942  -20.8579   -6.9684 C   0  0  0  0  0  0  0  0  0  0  0  0
   26.1608  -20.8839   -9.4299 C   0  0  2  0  0  0  0  0  0  0  0  0
   26.9062  -20.1977  -10.5228 N   0  0  0  0  0  0  0  0  0  0  0  0
   24.7706  -20.5445   -9.6541 C   0  0  0  0  0  0  0  0  0  0  0  0
   23.8550  -21.3079   -9.2535 O   0  0  0  0  0  0  0  0  0  0  0  0
   24.3754  -19.3988  -10.2905 O   0  0  0  0  0  0  0  0  0  0  0  0
  2  1  1  0
  3  2  2  0
  4  3  1  0
  5  4  2  0
  5 11  1  0
  6  5  1  0
  7  9  1  0
  7  6  1  0
  7  8  1  1
  9 13  1  0
  9 10  2  0
 11 12  2  0
 12  2  1  0
 13 14  1  0
 14 15  1  0
 16 15  1  0
 17 13  1  0
 17 16  1  0
 17 18  1  1
 19 18  2  0
 20 21  1  0
 21 22  1  0
 22 24  1  0
 22 23  1  1
 24 25  1  6
 25 18  1  0
 26 24  1  0
 26 28  1  0
 27 26  2  0
M  END
$$$$
