YPI.pdb
     RDKit          3D

 28 29  0  0  1  0  0  0  0  0999 V2000
   17.6488  -23.9532  -11.3428 O   0  0  0  0  0  0  0  0  0  0  0  0
   18.7705  -23.2645  -11.8104 C   0  0  0  0  0  0  0  0  0  0  0  0
   19.1021  -22.0086  -11.3752 C   0  0  0  0  0  0  0  0  0  0  0  0
   20.2340  -21.3545  -11.8694 C   0  0  0  0  0  0  0  0  0  0  0  0
   21.0456  -21.9546  -12.8061 C   0  0  0  0  0  0  0  0  0  0  0  0
   22.2508  -21.2886  -13.3442 C   0  0  0  0  0  0  0  0  0  0  0  0
   23.5386  -21.7828  -12.7172 C   0  0  2  0  0  0  0  0  0  0  0  0
   23.5772  -21.6727  -11.2939 N   0  0  0  0  0  0  0  0  0  0  0  0
   24.7244  -21.2417  -13.4231 C   0  0  0  0  0  0  0  0  0  0  0  0
   25.3838  -20.3120  -12.8094 O   0  0  0  0  0  0  0  0  0  0  0  0
   20.6859  -23.2298  -13.2308 C   0  0  0  0  0  0  0  0  0  0  0  0
   19.5711  -23.8726  -12.7434 C   0  0  0  0  0  0  0  0  0  0  0  0
   25.1960  -21.6430  -14.6920 N   0  0  0  0  0  0  0  0  0  0  0  0
   24.7072  -22.6213  -15.6151 C   0  0  0  0  0  0  0  0  0  0  0  0
   25.9764  -23.1970  -16.2344 C   0  0  0  0  0  0  0  0  0  0  0  0
   27.0728  -22.2625  -15.8602 C   0  0  0  0  0  0  0  0  0  0  0  0
   26.3715  -21.0539  -15.3417 C   0  0  1  0  0  0  0  0  0  0  0  0
   25.9305  -20.0999  -16.3613 C   0  0  0  0  0  0  0  0  0  0  0  0
   24.7978  -20.2483  -16.9266 O   0  0  0  0  0  0  0  0  0  0  0  0
   27.3511  -14.7406  -15.6116 C   0  0  0  0  0  0  0  0  0  0  0  0
   27.2565  -16.1353  -16.0622 C   0  0  0  0  0  0  0  0  0  0  0  0
   26.0491  -16.6883  -16.6628 C   0  0  2  0  0  0  0  0  0  0  0  0
   24.9151  -16.8650  -15.6398 C   0  0  0  0  0  0  0  0  0  0  0  0
   26.1683  -17.8650  -17.5434 C   0  0  2  0  0  0  0  0  0  0  0  0
   26.7255  -18.9988  -16.7527 N   0  0  0  0  0  0  0  0  0  0  0  0
   27.0817  -17.6992  -18.6553 C   0  0  0  0  0  0  0  0  0  0  0  0
   28.2244  -18.2236  -18.6258 O   0  0  0  0  0  0  0  0  0  0  0  0
   26.7650  -16.9885  -19.7816 O   0  0  0  0  0  0  0  0  0  0  0  0
  2  1  1  0
  3  2  2  0
  4  3  1  0
  5  4  2  0
  5 11  1  0
  6  5  1  0
  7  9  1  0
  7  6  1  0
  7  8  1  1
  9 13  1  0
  9 10  2  0
 11 12  2  0
 12  2  1  0
 13 14  1  0
 14 15  1  0
 16 15  1  0
 17 13  1  0
 17 16  1  0
 17 18  1  6
 19 18  2  0
 20 21  1  0
 21 22  1  0
 22 24  1  0
 22 23  1  1
 24 25  1  1
 25 18  1  0
 26 24  1  0
 26 28  1  0
 27 26  2  0
M  END
$$$$
