YPI.pdb
     RDKit          3D

 28 29  0  0  1  0  0  0  0  0999 V2000
   21.5489  -17.7478  -16.7437 O   0  0  0  0  0  0  0  0  0  0  0  0
   22.1563  -18.2904  -15.6089 C   0  0  0  0  0  0  0  0  0  0  0  0
   21.4528  -18.9563  -14.6402 C   0  0  0  0  0  0  0  0  0  0  0  0
   22.1001  -19.4842  -13.5196 C   0  0  0  0  0  0  0  0  0  0  0  0
   23.4612  -19.3493  -13.3596 C   0  0  0  0  0  0  0  0  0  0  0  0
   24.1733  -19.9000  -12.1869 C   0  0  0  0  0  0  0  0  0  0  0  0
   24.9212  -21.1828  -12.4883 C   0  0  2  0  0  0  0  0  0  0  0  0
   24.0959  -22.2415  -12.9754 N   0  0  0  0  0  0  0  0  0  0  0  0
   25.8282  -21.5522  -11.3757 C   0  0  0  0  0  0  0  0  0  0  0  0
   25.3685  -22.4072  -10.5192 O   0  0  0  0  0  0  0  0  0  0  0  0
   24.1511  -18.6687  -14.3579 C   0  0  0  0  0  0  0  0  0  0  0  0
   23.5125  -18.1494  -15.4607 C   0  0  0  0  0  0  0  0  0  0  0  0
   27.1353  -21.0613  -11.1658 N   0  0  0  0  0  0  0  0  0  0  0  0
   27.8949  -20.0691  -11.8634 C   0  0  0  0  0  0  0  0  0  0  0  0
   29.3222  -20.6032  -11.8066 C   0  0  0  0  0  0  0  0  0  0  0  0
   29.3113  -21.6881  -10.7876 C   0  0  0  0  0  0  0  0  0  0  0  0
   28.0089  -21.5235  -10.0821 C   0  0  1  0  0  0  0  0  0  0  0  0
   28.0017  -20.5340   -9.0028 C   0  0  0  0  0  0  0  0  0  0  0  0
   27.6328  -19.3366   -9.2372 O   0  0  0  0  0  0  0  0  0  0  0  0
   25.6976  -22.2283   -4.6588 C   0  0  0  0  0  0  0  0  0  0  0  0
   26.2742  -21.2764   -5.6171 C   0  0  0  0  0  0  0  0  0  0  0  0
   27.5816  -20.6610   -5.4257 C   0  0  2  0  0  0  0  0  0  0  0  0
   27.6666  -19.8648   -4.1133 C   0  0  0  0  0  0  0  0  0  0  0  0
   28.1888  -19.9192   -6.5460 C   0  0  2  0  0  0  0  0  0  0  0  0
   28.3952  -20.8584   -7.6846 N   0  0  0  0  0  0  0  0  0  0  0  0
   29.5010  -19.3719   -6.2693 C   0  0  0  0  0  0  0  0  0  0  0  0
   29.6552  -18.1340   -6.1100 O   0  0  0  0  0  0  0  0  0  0  0  0
   30.6242  -20.1464   -6.1574 O   0  0  0  0  0  0  0  0  0  0  0  0
  2  1  1  0
  3  2  2  0
  4  3  1  0
  5  4  2  0
  5 11  1  0
  6  5  1  0
  7  9  1  0
  7  6  1  0
  7  8  1  1
  9 13  1  0
  9 10  2  0
 11 12  2  0
 12  2  1  0
 13 14  1  0
 14 15  1  0
 16 15  1  0
 17 13  1  0
 17 16  1  0
 17 18  1  1
 19 18  2  0
 20 21  1  0
 21 22  1  0
 22 24  1  0
 22 23  1  1
 24 25  1  6
 25 18  1  0
 26 24  1  0
 26 28  1  0
 27 26  2  0
M  END
$$$$
