YPI.pdb
     RDKit          3D

 28 29  0  0  1  0  0  0  0  0999 V2000
   14.1515  -15.0642  -17.8871 O   0  0  0  0  0  0  0  0  0  0  0  0
   15.1339  -14.1211  -17.5761 C   0  0  0  0  0  0  0  0  0  0  0  0
   15.5755  -13.9073  -16.2971 C   0  0  0  0  0  0  0  0  0  0  0  0
   16.5610  -12.9530  -16.0294 C   0  0  0  0  0  0  0  0  0  0  0  0
   17.1138  -12.2030  -17.0434 C   0  0  0  0  0  0  0  0  0  0  0  0
   18.1598  -11.1891  -16.7908 C   0  0  0  0  0  0  0  0  0  0  0  0
   19.5292  -11.6044  -17.2890 C   0  0  2  0  0  0  0  0  0  0  0  0
   19.9647  -12.8780  -16.8121 N   0  0  0  0  0  0  0  0  0  0  0  0
   20.5131  -10.5059  -17.1399 C   0  0  0  0  0  0  0  0  0  0  0  0
   21.4952  -10.7209  -16.3242 O   0  0  0  0  0  0  0  0  0  0  0  0
   16.6472  -12.4402  -18.3324 C   0  0  0  0  0  0  0  0  0  0  0  0
   15.6768  -13.3801  -18.5946 C   0  0  0  0  0  0  0  0  0  0  0  0
   20.4776   -9.2578  -17.7991 N   0  0  0  0  0  0  0  0  0  0  0  0
   19.5492   -8.7143  -18.7429 C   0  0  0  0  0  0  0  0  0  0  0  0
   20.4277   -7.8881  -19.6764 C   0  0  0  0  0  0  0  0  0  0  0  0
   21.7407   -7.7540  -18.9883 C   0  0  0  0  0  0  0  0  0  0  0  0
   21.4774   -8.2048  -17.5923 C   0  0  1  0  0  0  0  0  0  0  0  0
   20.9249   -7.1852  -16.6984 C   0  0  0  0  0  0  0  0  0  0  0  0
   19.6699   -6.9629  -16.6823 O   0  0  0  0  0  0  0  0  0  0  0  0
   21.2702   -8.4386  -12.0100 C   0  0  0  0  0  0  0  0  0  0  0  0
   20.9445   -7.6462  -13.2030 C   0  0  0  0  0  0  0  0  0  0  0  0
   21.4961   -6.3182  -13.4406 C   0  0  2  0  0  0  0  0  0  0  0  0
   21.3138   -5.3844  -12.2329 C   0  0  0  0  0  0  0  0  0  0  0  0
   21.1756   -5.6314  -14.7055 C   0  0  2  0  0  0  0  0  0  0  0  0
   21.7426   -6.4214  -15.8349 N   0  0  0  0  0  0  0  0  0  0  0  0
   21.7571   -4.3118  -14.8422 C   0  0  0  0  0  0  0  0  0  0  0  0
   21.1649   -3.3029  -14.3808 O   0  0  0  0  0  0  0  0  0  0  0  0
   22.9591   -4.0861  -15.4572 O   0  0  0  0  0  0  0  0  0  0  0  0
  2  1  1  0
  3  2  2  0
  4  3  1  0
  5  4  2  0
  5 11  1  0
  6  5  1  0
  7  9  1  0
  7  6  1  0
  7  8  1  1
  9 13  1  0
  9 10  2  0
 11 12  2  0
 12  2  1  0
 13 14  1  0
 14 15  1  0
 16 15  1  0
 17 13  1  0
 17 16  1  0
 17 18  1  1
 19 18  2  0
 20 21  1  0
 21 22  1  0
 22 24  1  0
 22 23  1  1
 24 25  1  6
 25 18  1  0
 26 24  1  0
 26 28  1  0
 27 26  2  0
M  END
$$$$
