YPI.pdb
     RDKit          3D

 28 29  0  0  1  0  0  0  0  0999 V2000
   20.4998  -16.8087  -18.0828 O   0  0  0  0  0  0  0  0  0  0  0  0
   20.8377  -17.2762  -16.8106 C   0  0  0  0  0  0  0  0  0  0  0  0
   20.0275  -17.1031  -15.7196 C   0  0  0  0  0  0  0  0  0  0  0  0
   20.4038  -17.5870  -14.4636 C   0  0  0  0  0  0  0  0  0  0  0  0
   21.5980  -18.2502  -14.2894 C   0  0  0  0  0  0  0  0  0  0  0  0
   22.0208  -18.7758  -12.9739 C   0  0  0  0  0  0  0  0  0  0  0  0
   21.8141  -20.2701  -12.8314 C   0  0  2  0  0  0  0  0  0  0  0  0
   20.4538  -20.6570  -12.6329 N   0  0  0  0  0  0  0  0  0  0  0  0
   22.7824  -20.8597  -11.8765 C   0  0  0  0  0  0  0  0  0  0  0  0
   22.3730  -21.0010  -10.6565 O   0  0  0  0  0  0  0  0  0  0  0  0
   22.4016  -18.4120  -15.4136 C   0  0  0  0  0  0  0  0  0  0  0  0
   22.0299  -17.9350  -16.6497 C   0  0  0  0  0  0  0  0  0  0  0  0
   24.0984  -21.2769  -12.1724 N   0  0  0  0  0  0  0  0  0  0  0  0
   24.8801  -21.1610  -13.3656 C   0  0  0  0  0  0  0  0  0  0  0  0
   25.6932  -22.4510  -13.3894 C   0  0  0  0  0  0  0  0  0  0  0  0
   25.5581  -23.0433  -12.0305 C   0  0  0  0  0  0  0  0  0  0  0  0
   24.9705  -21.9507  -11.2046 C   0  0  1  0  0  0  0  0  0  0  0  0
   25.9315  -20.9847  -10.6685 C   0  0  0  0  0  0  0  0  0  0  0  0
   26.1418  -19.8867  -11.2808 O   0  0  0  0  0  0  0  0  0  0  0  0
   26.6733  -20.0929   -5.2856 C   0  0  0  0  0  0  0  0  0  0  0  0
   26.6979  -19.9845   -6.7501 C   0  0  0  0  0  0  0  0  0  0  0  0
   27.8425  -20.3999   -7.5511 C   0  0  2  0  0  0  0  0  0  0  0  0
   29.1622  -19.7973   -7.0421 C   0  0  0  0  0  0  0  0  0  0  0  0
   27.7469  -20.3235   -9.0206 C   0  0  2  0  0  0  0  0  0  0  0  0
   26.6503  -21.2244   -9.4753 N   0  0  0  0  0  0  0  0  0  0  0  0
   28.9250  -20.7805   -9.7286 C   0  0  0  0  0  0  0  0  0  0  0  0
   29.1181  -22.0084   -9.9197 O   0  0  0  0  0  0  0  0  0  0  0  0
   29.8725  -19.9284  -10.2288 O   0  0  0  0  0  0  0  0  0  0  0  0
  2  1  1  0
  3  2  2  0
  4  3  1  0
  5  4  2  0
  5 11  1  0
  6  5  1  0
  7  9  1  0
  7  6  1  0
  7  8  1  1
  9 13  1  0
  9 10  2  0
 11 12  2  0
 12  2  1  0
 13 14  1  0
 14 15  1  0
 16 15  1  0
 17 13  1  0
 17 16  1  0
 17 18  1  6
 19 18  2  0
 20 21  1  0
 21 22  1  0
 22 24  1  0
 22 23  1  1
 24 25  1  6
 25 18  1  0
 26 24  1  0
 26 28  1  0
 27 26  2  0
M  END
$$$$
