YPI.pdb
     RDKit          3D

 28 29  0  0  1  0  0  0  0  0999 V2000
   22.1867  -25.5241  -16.7896 O   0  0  0  0  0  0  0  0  0  0  0  0
   22.9735  -24.9846  -15.7693 C   0  0  0  0  0  0  0  0  0  0  0  0
   24.2388  -25.4326  -15.4954 C   0  0  0  0  0  0  0  0  0  0  0  0
   24.9926  -24.8646  -14.4646 C   0  0  0  0  0  0  0  0  0  0  0  0
   24.4840  -23.8403  -13.6975 C   0  0  0  0  0  0  0  0  0  0  0  0
   25.2591  -23.2180  -12.6032 C   0  0  0  0  0  0  0  0  0  0  0  0
   25.8389  -21.8677  -12.9725 C   0  0  2  0  0  0  0  0  0  0  0  0
   26.7588  -21.9038  -14.0642 N   0  0  0  0  0  0  0  0  0  0  0  0
   26.3137  -21.1384  -11.7726 C   0  0  0  0  0  0  0  0  0  0  0  0
   27.5966  -21.0518  -11.6230 O   0  0  0  0  0  0  0  0  0  0  0  0
   23.1970  -23.4047  -13.9969 C   0  0  0  0  0  0  0  0  0  0  0  0
   22.4558  -23.9649  -15.0120 C   0  0  0  0  0  0  0  0  0  0  0  0
   25.5026  -20.5354  -10.7866 N   0  0  0  0  0  0  0  0  0  0  0  0
   24.1130  -20.6911  -10.4821 C   0  0  0  0  0  0  0  0  0  0  0  0
   23.6795  -19.2925  -10.0555 C   0  0  0  0  0  0  0  0  0  0  0  0
   24.9361  -18.5282   -9.8268 C   0  0  0  0  0  0  0  0  0  0  0  0
   26.0053  -19.5664   -9.8071 C   0  0  1  0  0  0  0  0  0  0  0  0
   26.2015  -20.2391   -8.5214 C   0  0  0  0  0  0  0  0  0  0  0  0
   25.6153  -21.3458   -8.2842 O   0  0  0  0  0  0  0  0  0  0  0  0
   31.0781  -19.4596   -6.0209 C   0  0  0  0  0  0  0  0  0  0  0  0
   29.8070  -20.0601   -6.4458 C   0  0  0  0  0  0  0  0  0  0  0  0
   28.5762  -19.9244   -5.6768 C   0  0  2  0  0  0  0  0  0  0  0  0
   28.7489  -20.3655   -4.2142 C   0  0  0  0  0  0  0  0  0  0  0  0
   27.3195  -20.4401   -6.2502 C   0  0  2  0  0  0  0  0  0  0  0  0
   27.0313  -19.7008   -7.5117 N   0  0  0  0  0  0  0  0  0  0  0  0
   26.1484  -20.2384   -5.4219 C   0  0  0  0  0  0  0  0  0  0  0  0
   25.4859  -19.1725   -5.5027 O   0  0  0  0  0  0  0  0  0  0  0  0
   25.6955  -21.1727   -4.5297 O   0  0  0  0  0  0  0  0  0  0  0  0
  2  1  1  0
  3  2  2  0
  4  3  1  0
  5  4  2  0
  5 11  1  0
  6  5  1  0
  7  9  1  0
  7  6  1  0
  7  8  1  6
  9 13  1  0
  9 10  2  0
 11 12  2  0
 12  2  1  0
 13 14  1  0
 14 15  1  0
 16 15  1  0
 17 13  1  0
 17 16  1  0
 17 18  1  1
 19 18  2  0
 20 21  1  0
 21 22  1  0
 22 24  1  0
 22 23  1  1
 24 25  1  6
 25 18  1  0
 26 24  1  0
 26 28  1  0
 27 26  2  0
M  END
$$$$
