YPI.pdb
     RDKit          3D

 28 29  0  0  1  0  0  0  0  0999 V2000
   19.2143  -18.6159  -15.2463 O   0  0  0  0  0  0  0  0  0  0  0  0
   20.4353  -18.3012  -15.8473 C   0  0  0  0  0  0  0  0  0  0  0  0
   20.5443  -17.9712  -17.1724 C   0  0  0  0  0  0  0  0  0  0  0  0
   21.7863  -17.6628  -17.7343 C   0  0  0  0  0  0  0  0  0  0  0  0
   22.9326  -17.6824  -16.9715 C   0  0  0  0  0  0  0  0  0  0  0  0
   24.2592  -17.3576  -17.5375 C   0  0  0  0  0  0  0  0  0  0  0  0
   25.0216  -18.5770  -18.0148 C   0  0  2  0  0  0  0  0  0  0  0  0
   24.3771  -19.2961  -19.0669 N   0  0  0  0  0  0  0  0  0  0  0  0
   25.4814  -19.4056  -16.8751 C   0  0  0  0  0  0  0  0  0  0  0  0
   24.9046  -20.5556  -16.7312 O   0  0  0  0  0  0  0  0  0  0  0  0
   22.7935  -18.0209  -15.6292 C   0  0  0  0  0  0  0  0  0  0  0  0
   21.5701  -18.3243  -15.0772 C   0  0  0  0  0  0  0  0  0  0  0  0
   26.4811  -19.0589  -15.9403 N   0  0  0  0  0  0  0  0  0  0  0  0
   27.2151  -17.8453  -15.7491 C   0  0  0  0  0  0  0  0  0  0  0  0
   28.5983  -18.3253  -15.3221 C   0  0  0  0  0  0  0  0  0  0  0  0
   28.4418  -19.7647  -14.9770 C   0  0  0  0  0  0  0  0  0  0  0  0
   26.9678  -19.9713  -14.9003 C   0  0  1  0  0  0  0  0  0  0  0  0
   26.3511  -19.6158  -13.6207 C   0  0  0  0  0  0  0  0  0  0  0  0
   25.9913  -18.4135  -13.3980 O   0  0  0  0  0  0  0  0  0  0  0  0
   21.6078  -20.9425  -10.5827 C   0  0  0  0  0  0  0  0  0  0  0  0
   23.0410  -20.6586  -10.4330 C   0  0  0  0  0  0  0  0  0  0  0  0
   23.9938  -20.8210  -11.5240 C   0  0  2  0  0  0  0  0  0  0  0  0
   24.0465  -22.2668  -12.0442 C   0  0  0  0  0  0  0  0  0  0  0  0
   25.3461  -20.2519  -11.3771 C   0  0  2  0  0  0  0  0  0  0  0  0
   26.1339  -20.5705  -12.6014 N   0  0  0  0  0  0  0  0  0  0  0  0
   26.1183  -20.8008  -10.2814 C   0  0  0  0  0  0  0  0  0  0  0  0
   25.9445  -20.3850   -9.1073 O   0  0  0  0  0  0  0  0  0  0  0  0
   27.0539  -21.7862  -10.4478 O   0  0  0  0  0  0  0  0  0  0  0  0
  2  1  1  0
  3  2  2  0
  4  3  1  0
  5  4  2  0
  5 11  1  0
  6  5  1  0
  7  9  1  0
  7  6  1  0
  7  8  1  6
  9 13  1  0
  9 10  2  0
 11 12  2  0
 12  2  1  0
 13 14  1  0
 14 15  1  0
 16 15  1  0
 17 13  1  0
 17 16  1  0
 17 18  1  1
 19 18  2  0
 20 21  1  0
 21 22  1  0
 22 24  1  0
 22 23  1  1
 24 25  1  6
 25 18  1  0
 26 24  1  0
 26 28  1  0
 27 26  2  0
M  END
$$$$
