YPI.pdb
     RDKit          3D

 28 29  0  0  1  0  0  0  0  0999 V2000
   21.9191  -17.7262  -16.8978 O   0  0  0  0  0  0  0  0  0  0  0  0
   22.4704  -18.2495  -15.7258 C   0  0  0  0  0  0  0  0  0  0  0  0
   21.7030  -18.6972  -14.6831 C   0  0  0  0  0  0  0  0  0  0  0  0
   22.2955  -19.2139  -13.5274 C   0  0  0  0  0  0  0  0  0  0  0  0
   23.6653  -19.2866  -13.4064 C   0  0  0  0  0  0  0  0  0  0  0  0
   24.3199  -19.8311  -12.1978 C   0  0  0  0  0  0  0  0  0  0  0  0
   24.9031  -21.2142  -12.4041 C   0  0  2  0  0  0  0  0  0  0  0  0
   23.9431  -22.2062  -12.7699 N   0  0  0  0  0  0  0  0  0  0  0  0
   25.8046  -21.5910  -11.2895 C   0  0  0  0  0  0  0  0  0  0  0  0
   25.3479  -22.4656  -10.4514 O   0  0  0  0  0  0  0  0  0  0  0  0
   24.4206  -18.8250  -14.4798 C   0  0  0  0  0  0  0  0  0  0  0  0
   23.8360  -18.3166  -15.6170 C   0  0  0  0  0  0  0  0  0  0  0  0
   27.1037  -21.0877  -11.0596 N   0  0  0  0  0  0  0  0  0  0  0  0
   27.8642  -20.0880  -11.7453 C   0  0  0  0  0  0  0  0  0  0  0  0
   29.2955  -20.6085  -11.6670 C   0  0  0  0  0  0  0  0  0  0  0  0
   29.2795  -21.6939  -10.6486 C   0  0  0  0  0  0  0  0  0  0  0  0
   27.9650  -21.5420   -9.9629 C   0  0  1  0  0  0  0  0  0  0  0  0
   27.9320  -20.5531   -8.8835 C   0  0  0  0  0  0  0  0  0  0  0  0
   27.5874  -19.3509   -9.1298 O   0  0  0  0  0  0  0  0  0  0  0  0
   27.7468  -22.5992   -3.6286 C   0  0  0  0  0  0  0  0  0  0  0  0
   27.4485  -21.6986   -4.7498 C   0  0  0  0  0  0  0  0  0  0  0  0
   28.3467  -20.6258   -5.1583 C   0  0  2  0  0  0  0  0  0  0  0  0
   28.6315  -19.6353   -4.0175 C   0  0  0  0  0  0  0  0  0  0  0  0
   28.0839  -19.9238   -6.4281 C   0  0  2  0  0  0  0  0  0  0  0  0
   28.2736  -20.8834   -7.5524 N   0  0  0  0  0  0  0  0  0  0  0  0
   28.9887  -18.8292   -6.7131 C   0  0  0  0  0  0  0  0  0  0  0  0
   28.6642  -17.6455   -6.4391 O   0  0  0  0  0  0  0  0  0  0  0  0
   30.2240  -19.0090   -7.2749 O   0  0  0  0  0  0  0  0  0  0  0  0
  2  1  1  0
  3  2  2  0
  4  3  1  0
  5  4  2  0
  5 11  1  0
  6  5  1  0
  7  9  1  0
  7  6  1  0
  7  8  1  1
  9 13  1  0
  9 10  2  0
 11 12  2  0
 12  2  1  0
 13 14  1  0
 14 15  1  0
 16 15  1  0
 17 13  1  0
 17 16  1  0
 17 18  1  1
 19 18  2  0
 20 21  1  0
 21 22  1  0
 22 24  1  0
 22 23  1  1
 24 25  1  6
 25 18  1  0
 26 24  1  0
 26 28  1  0
 27 26  2  0
M  END
$$$$
