YPI.pdb
     RDKit          3D

 28 29  0  0  1  0  0  0  0  0999 V2000
   16.2541  -15.8102  -18.7427 O   0  0  0  0  0  0  0  0  0  0  0  0
   17.2513  -16.5487  -18.1013 C   0  0  0  0  0  0  0  0  0  0  0  0
   18.2947  -17.1252  -18.7763 C   0  0  0  0  0  0  0  0  0  0  0  0
   19.2720  -17.8565  -18.0954 C   0  0  0  0  0  0  0  0  0  0  0  0
   19.2121  -18.0168  -16.7291 C   0  0  0  0  0  0  0  0  0  0  0  0
   20.2329  -18.7819  -15.9819 C   0  0  0  0  0  0  0  0  0  0  0  0
   20.0386  -20.2822  -16.0674 C   0  0  2  0  0  0  0  0  0  0  0  0
   18.8052  -20.7455  -15.5168 N   0  0  0  0  0  0  0  0  0  0  0  0
   21.2459  -21.0092  -15.6082 C   0  0  0  0  0  0  0  0  0  0  0  0
   21.2194  -21.4582  -14.3943 O   0  0  0  0  0  0  0  0  0  0  0  0
   18.1423  -17.4212  -16.0685 C   0  0  0  0  0  0  0  0  0  0  0  0
   17.1808  -16.7015  -16.7401 C   0  0  0  0  0  0  0  0  0  0  0  0
   22.4118  -21.2543  -16.3660 N   0  0  0  0  0  0  0  0  0  0  0  0
   22.7717  -20.8692  -17.6965 C   0  0  0  0  0  0  0  0  0  0  0  0
   23.5719  -22.0608  -18.2118 C   0  0  0  0  0  0  0  0  0  0  0  0
   23.8909  -22.8859  -17.0147 C   0  0  0  0  0  0  0  0  0  0  0  0
   23.5643  -22.0054  -15.8574 C   0  0  1  0  0  0  0  0  0  0  0  0
   24.6177  -21.0657  -15.4684 C   0  0  0  0  0  0  0  0  0  0  0  0
   24.6306  -19.8860  -15.9510 O   0  0  0  0  0  0  0  0  0  0  0  0
   25.1809  -21.0548  -10.3019 C   0  0  0  0  0  0  0  0  0  0  0  0
   25.2679  -20.6809  -11.7195 C   0  0  0  0  0  0  0  0  0  0  0  0
   26.5275  -20.6621  -12.4528 C   0  0  2  0  0  0  0  0  0  0  0  0
   27.6029  -19.8205  -11.7465 C   0  0  0  0  0  0  0  0  0  0  0  0
   26.5016  -20.3960  -13.9029 C   0  0  2  0  0  0  0  0  0  0  0  0
   25.6419  -21.4200  -14.5611 N   0  0  0  0  0  0  0  0  0  0  0  0
   27.7869  -20.5064  -14.5617 C   0  0  0  0  0  0  0  0  0  0  0  0
   28.5751  -19.5269  -14.5906 O   0  0  0  0  0  0  0  0  0  0  0  0
   28.2176  -21.6547  -15.1699 O   0  0  0  0  0  0  0  0  0  0  0  0
  2  1  1  0
  3  2  2  0
  4  3  1  0
  5  4  2  0
  5 11  1  0
  6  5  1  0
  7  9  1  0
  7  6  1  0
  7  8  1  1
  9 13  1  0
  9 10  2  0
 11 12  2  0
 12  2  1  0
 13 14  1  0
 14 15  1  0
 16 15  1  0
 17 13  1  0
 17 16  1  0
 17 18  1  6
 19 18  2  0
 20 21  1  0
 21 22  1  0
 22 24  1  0
 22 23  1  1
 24 25  1  6
 25 18  1  0
 26 24  1  0
 26 28  1  0
 27 26  2  0
M  END
$$$$
