YPI.pdb
     RDKit          3D

 28 29  0  0  1  0  0  0  0  0999 V2000
   26.3906  -25.1759  -17.6074 O   0  0  0  0  0  0  0  0  0  0  0  0
   26.6617  -24.3145  -16.5417 C   0  0  0  0  0  0  0  0  0  0  0  0
   27.7826  -23.5285  -16.4925 C   0  0  0  0  0  0  0  0  0  0  0  0
   28.0157  -22.6799  -15.4067 C   0  0  0  0  0  0  0  0  0  0  0  0
   27.1255  -22.6113  -14.3583 C   0  0  0  0  0  0  0  0  0  0  0  0
   27.3440  -21.7209  -13.1985 C   0  0  0  0  0  0  0  0  0  0  0  0
   26.4151  -20.5240  -13.1790 C   0  0  2  0  0  0  0  0  0  0  0  0
   26.6411  -19.5897  -14.2352 N   0  0  0  0  0  0  0  0  0  0  0  0
   26.3267  -19.9322  -11.8229 C   0  0  0  0  0  0  0  0  0  0  0  0
   27.0524  -18.8824  -11.6055 O   0  0  0  0  0  0  0  0  0  0  0  0
   25.9959  -23.4200  -14.4336 C   0  0  0  0  0  0  0  0  0  0  0  0
   25.7676  -24.2551  -15.5032 C   0  0  0  0  0  0  0  0  0  0  0  0
   25.5314  -20.4043  -10.7560 N   0  0  0  0  0  0  0  0  0  0  0  0
   24.6988  -21.5623  -10.6393 C   0  0  0  0  0  0  0  0  0  0  0  0
   23.5328  -21.0819   -9.7816 C   0  0  0  0  0  0  0  0  0  0  0  0
   23.9649  -19.7831   -9.1968 C   0  0  0  0  0  0  0  0  0  0  0  0
   25.4308  -19.7253   -9.4598 C   0  0  1  0  0  0  0  0  0  0  0  0
   26.2702  -20.4235   -8.4842 C   0  0  0  0  0  0  0  0  0  0  0  0
   26.5513  -21.6557   -8.6500 O   0  0  0  0  0  0  0  0  0  0  0  0
   30.0950  -17.4265   -5.9755 C   0  0  0  0  0  0  0  0  0  0  0  0
   29.3572  -18.5656   -6.5369 C   0  0  0  0  0  0  0  0  0  0  0  0
   28.5440  -19.4570   -5.7192 C   0  0  2  0  0  0  0  0  0  0  0  0
   29.3388  -20.0700   -4.5546 C   0  0  0  0  0  0  0  0  0  0  0  0
   27.7042  -20.4672   -6.3889 C   0  0  2  0  0  0  0  0  0  0  0  0
   26.7925  -19.7742   -7.3426 N   0  0  0  0  0  0  0  0  0  0  0  0
   26.8284  -21.2087   -5.5050 C   0  0  0  0  0  0  0  0  0  0  0  0
   25.6574  -20.8071   -5.2831 O   0  0  0  0  0  0  0  0  0  0  0  0
   27.2056  -22.3665   -4.8795 O   0  0  0  0  0  0  0  0  0  0  0  0
  2  1  1  0
  3  2  2  0
  4  3  1  0
  5  4  2  0
  5 11  1  0
  6  5  1  0
  7  9  1  0
  7  6  1  0
  7  8  1  6
  9 13  1  0
  9 10  2  0
 11 12  2  0
 12  2  1  0
 13 14  1  0
 14 15  1  0
 16 15  1  0
 17 13  1  0
 17 16  1  0
 17 18  1  1
 19 18  2  0
 20 21  1  0
 21 22  1  0
 22 24  1  0
 22 23  1  1
 24 25  1  6
 25 18  1  0
 26 24  1  0
 26 28  1  0
 27 26  2  0
M  END
$$$$
