YPI.pdb
     RDKit          3D

 28 29  0  0  1  0  0  0  0  0999 V2000
   20.9423  -18.2250  -16.9421 O   0  0  0  0  0  0  0  0  0  0  0  0
   21.7050  -18.6775  -15.8628 C   0  0  0  0  0  0  0  0  0  0  0  0
   23.0045  -18.2931  -15.6626 C   0  0  0  0  0  0  0  0  0  0  0  0
   23.7324  -18.7699  -14.5688 C   0  0  0  0  0  0  0  0  0  0  0  0
   23.1630  -19.6378  -13.6639 C   0  0  0  0  0  0  0  0  0  0  0  0
   23.9071  -20.1557  -12.4961 C   0  0  0  0  0  0  0  0  0  0  0  0
   24.8775  -21.2649  -12.8481 C   0  0  2  0  0  0  0  0  0  0  0  0
   24.2647  -22.4180  -13.4261 N   0  0  0  0  0  0  0  0  0  0  0  0
   25.8095  -21.5412  -11.7290 C   0  0  0  0  0  0  0  0  0  0  0  0
   25.4814  -22.5083  -10.9334 O   0  0  0  0  0  0  0  0  0  0  0  0
   21.8423  -20.0118  -13.8910 C   0  0  0  0  0  0  0  0  0  0  0  0
   21.1268  -19.5418  -14.9683 C   0  0  0  0  0  0  0  0  0  0  0  0
   27.0108  -20.8524  -11.4533 N   0  0  0  0  0  0  0  0  0  0  0  0
   27.6412  -19.7512  -12.1151 C   0  0  0  0  0  0  0  0  0  0  0  0
   29.1296  -20.0554  -11.9809 C   0  0  0  0  0  0  0  0  0  0  0  0
   29.2351  -21.1319  -10.9584 C   0  0  0  0  0  0  0  0  0  0  0  0
   27.8877  -21.1757  -10.3230 C   0  0  1  0  0  0  0  0  0  0  0  0
   27.6690  -20.2031   -9.2505 C   0  0  0  0  0  0  0  0  0  0  0  0
   27.1473  -19.0701   -9.5130 O   0  0  0  0  0  0  0  0  0  0  0  0
   29.4301  -21.1032   -3.7221 C   0  0  0  0  0  0  0  0  0  0  0  0
   29.1157  -20.5611   -5.0504 C   0  0  0  0  0  0  0  0  0  0  0  0
   27.7489  -20.3648   -5.5171 C   0  0  2  0  0  0  0  0  0  0  0  0
   26.9209  -21.6591   -5.4631 C   0  0  0  0  0  0  0  0  0  0  0  0
   27.5268  -19.6357   -6.7794 C   0  0  2  0  0  0  0  0  0  0  0  0
   28.0198  -20.4743   -7.9084 N   0  0  0  0  0  0  0  0  0  0  0  0
   28.2540  -18.3882   -6.8940 C   0  0  0  0  0  0  0  0  0  0  0  0
   27.8546  -17.3593   -6.2910 O   0  0  0  0  0  0  0  0  0  0  0  0
   29.3956  -18.2554   -7.6377 O   0  0  0  0  0  0  0  0  0  0  0  0
  2  1  1  0
  3  2  2  0
  4  3  1  0
  5  4  2  0
  5 11  1  0
  6  5  1  0
  7  9  1  0
  7  6  1  0
  7  8  1  1
  9 13  1  0
  9 10  2  0
 11 12  2  0
 12  2  1  0
 13 14  1  0
 14 15  1  0
 16 15  1  0
 17 13  1  0
 17 16  1  0
 17 18  1  1
 19 18  2  0
 20 21  1  0
 21 22  1  0
 22 24  1  0
 22 23  1  6
 24 25  1  6
 25 18  1  0
 26 24  1  0
 26 28  1  0
 27 26  2  0
M  END
$$$$
