DMR.pdb
     RDKit          3D

 28 27  0  0  1  0  0  0  0  0999 V2000
    6.6476  -16.8273   19.7707 N   0  0  0  0  0  0  0  0  0  0  0  0
    8.0534  -16.6336   19.6225 C   0  0  1  0  0  0  0  0  0  0  0  0
    8.3448  -16.0582   18.2716 C   0  0  0  0  0  0  0  0  0  0  0  0
    7.7923  -16.8514   17.1645 C   0  0  0  0  0  0  0  0  0  0  0  0
    8.0577  -18.0668   16.9996 O   0  0  0  0  0  0  0  0  0  0  0  0
    8.6590  -15.8612   20.7246 C   0  0  0  0  0  0  0  0  0  0  0  0
    9.8923  -15.5216   20.7208 O   0  0  0  0  0  0  0  0  0  0  0  0
    6.9406  -16.2434   16.2567 O   0  0  0  0  0  0  0  0  0  0  0  0
    6.4021  -11.5523   26.9870 C   0  0  0  0  0  0  0  0  0  0  0  0
    6.1411  -12.3451   25.3857 S   0  0  0  0  0  0  0  0  0  0  0  0
    7.5290  -13.4132   24.9363 C   0  0  0  0  0  0  0  0  0  0  0  0
    7.3857  -14.0443   23.6138 C   0  0  0  0  0  0  0  0  0  0  0  0
    8.4966  -14.8464   23.0502 C   0  0  2  0  0  0  0  0  0  0  0  0
    7.9022  -15.4648   21.8292 N   0  0  0  0  0  0  0  0  0  0  0  0
    9.1466  -15.8425   23.8691 C   0  0  0  0  0  0  0  0  0  0  0  0
    8.5453  -16.9362   24.1748 O   0  0  0  0  0  0  0  0  0  0  0  0
   17.3735  -17.3475   22.8618 N   0  0  0  0  0  0  0  0  0  0  0  0
   16.9061  -16.7378   24.0500 C   0  0  0  0  0  0  0  0  0  0  0  0
   17.6599  -15.9627   24.7766 N   0  0  0  0  0  0  0  0  0  0  0  0
   15.5689  -16.9364   24.5283 N   0  0  0  0  0  0  0  0  0  0  0  0
   14.7716  -18.0140   24.0306 C   0  0  0  0  0  0  0  0  0  0  0  0
   13.3981  -18.0615   24.6650 C   0  0  0  0  0  0  0  0  0  0  0  0
   12.5770  -16.8745   24.2295 C   0  0  0  0  0  0  0  0  0  0  0  0
   11.1628  -16.9515   24.8463 C   0  0  2  0  0  0  0  0  0  0  0  0
   10.4808  -15.7417   24.4041 N   0  0  0  0  0  0  0  0  0  0  0  0
   11.3084  -16.9500   26.3064 C   0  0  0  0  0  0  0  0  0  0  0  0
   11.6693  -18.0292   27.0832 O   0  0  0  0  0  0  0  0  0  0  0  0
   11.0772  -15.8483   26.9090 O   0  0  0  0  0  0  0  0  0  0  0  0
  2  1  1  1
  2  3  1  0
  3  4  1  0
  4  8  1  0
  5  4  2  0
  6  2  1  0
  7  6  2  0
  9 10  1  0
 10 11  1  0
 11 12  1  0
 13 12  1  1
 13 14  1  0
 14  6  1  0
 15 25  1  0
 15 13  1  0
 16 15  2  0
 18 17  1  0
 18 19  2  0
 20 18  1  0
 21 20  1  0
 21 22  1  0
 23 22  1  0
 24 23  1  6
 24 25  1  0
 26 27  1  0
 26 24  1  0
 28 26  2  0
M  END
$$$$
