DMR.pdb
     RDKit          3D

 28 27  0  0  1  0  0  0  0  0999 V2000
    9.3009  -16.9938   15.6825 N   0  0  0  0  0  0  0  0  0  0  0  0
    9.9098  -17.7180   16.7503 C   0  0  1  0  0  0  0  0  0  0  0  0
   11.1738  -18.3602   16.2697 C   0  0  0  0  0  0  0  0  0  0  0  0
   10.9519  -19.6110   15.5305 C   0  0  0  0  0  0  0  0  0  0  0  0
    9.8146  -19.9883   15.1576 O   0  0  0  0  0  0  0  0  0  0  0  0
   10.0971  -16.9136   17.9735 C   0  0  0  0  0  0  0  0  0  0  0  0
   10.9904  -16.0020   18.0589 O   0  0  0  0  0  0  0  0  0  0  0  0
   12.0363  -20.4175   15.2258 O   0  0  0  0  0  0  0  0  0  0  0  0
    6.5255  -12.3639   19.8653 C   0  0  0  0  0  0  0  0  0  0  0  0
    7.6965  -13.5365   20.5824 S   0  0  0  0  0  0  0  0  0  0  0  0
    7.1640  -15.2466   20.3348 C   0  0  0  0  0  0  0  0  0  0  0  0
    8.0891  -16.2422   20.9013 C   0  0  0  0  0  0  0  0  0  0  0  0
    9.4687  -16.3578   20.3736 C   0  0  2  0  0  0  0  0  0  0  0  0
    9.2978  -17.1168   19.1004 N   0  0  0  0  0  0  0  0  0  0  0  0
   10.5005  -16.9492   21.1927 C   0  0  0  0  0  0  0  0  0  0  0  0
   10.3766  -18.1464   21.6427 O   0  0  0  0  0  0  0  0  0  0  0  0
   18.7694  -14.5872   23.8163 N   0  0  0  0  0  0  0  0  0  0  0  0
   18.5980  -15.9418   24.1876 C   0  0  0  0  0  0  0  0  0  0  0  0
   19.5383  -16.6260   24.7747 N   0  0  0  0  0  0  0  0  0  0  0  0
   17.3739  -16.6464   23.9398 N   0  0  0  0  0  0  0  0  0  0  0  0
   16.2973  -16.0108   23.2457 C   0  0  0  0  0  0  0  0  0  0  0  0
   15.0478  -16.8643   23.2057 C   0  0  0  0  0  0  0  0  0  0  0  0
   13.9673  -16.1768   22.4102 C   0  0  0  0  0  0  0  0  0  0  0  0
   12.6788  -17.0289   22.4168 C   0  0  2  0  0  0  0  0  0  0  0  0
   11.7330  -16.3077   21.5745 N   0  0  0  0  0  0  0  0  0  0  0  0
   12.1876  -17.0906   23.7980 C   0  0  0  0  0  0  0  0  0  0  0  0
   12.4607  -18.0877   24.7087 O   0  0  0  0  0  0  0  0  0  0  0  0
   11.4378  -16.1333   24.1879 O   0  0  0  0  0  0  0  0  0  0  0  0
  2  1  1  6
  2  3  1  0
  3  4  1  0
  4  8  1  0
  5  4  2  0
  6  2  1  0
  7  6  2  0
  9 10  1  0
 10 11  1  0
 11 12  1  0
 13 12  1  1
 13 14  1  0
 14  6  1  0
 15 25  1  0
 15 13  1  0
 16 15  2  0
 18 17  1  0
 18 19  2  0
 20 18  1  0
 21 20  1  0
 21 22  1  0
 23 22  1  0
 24 23  1  1
 24 25  1  0
 26 27  1  0
 26 24  1  0
 28 26  2  0
M  END
$$$$
