DMR.pdb
     RDKit          3D

 28 27  0  0  1  0  0  0  0  0999 V2000
    7.6502  -16.2855   20.2867 N   0  0  0  0  0  0  0  0  0  0  0  0
    9.0360  -15.9504   20.3393 C   0  0  1  0  0  0  0  0  0  0  0  0
    9.4548  -15.3259   19.0449 C   0  0  0  0  0  0  0  0  0  0  0  0
    8.8242  -15.9386   17.8670 C   0  0  0  0  0  0  0  0  0  0  0  0
    8.7271  -17.1806   17.7161 O   0  0  0  0  0  0  0  0  0  0  0  0
    9.3998  -15.1402   21.5181 C   0  0  0  0  0  0  0  0  0  0  0  0
   10.5887  -14.7077   21.7066 O   0  0  0  0  0  0  0  0  0  0  0  0
    8.3111  -15.1212   16.8732 O   0  0  0  0  0  0  0  0  0  0  0  0
    5.4114  -14.1153   26.8312 C   0  0  0  0  0  0  0  0  0  0  0  0
    5.8496  -12.5348   26.0758 S   0  0  0  0  0  0  0  0  0  0  0  0
    7.5031  -12.5804   25.3455 C   0  0  0  0  0  0  0  0  0  0  0  0
    7.5756  -13.3512   24.0931 C   0  0  0  0  0  0  0  0  0  0  0  0
    8.7929  -14.1325   23.7722 C   0  0  2  0  0  0  0  0  0  0  0  0
    8.4503  -14.8089   22.4871 N   0  0  0  0  0  0  0  0  0  0  0  0
    9.3087  -15.0795   24.7325 C   0  0  0  0  0  0  0  0  0  0  0  0
    9.6242  -14.7048   25.9205 O   0  0  0  0  0  0  0  0  0  0  0  0
    7.3874  -21.1470   29.5645 N   0  0  0  0  0  0  0  0  0  0  0  0
    8.6129  -21.4816   28.9415 C   0  0  0  0  0  0  0  0  0  0  0  0
    9.7278  -21.5792   29.6081 N   0  0  0  0  0  0  0  0  0  0  0  0
    8.7025  -21.7351   27.5329 N   0  0  0  0  0  0  0  0  0  0  0  0
    8.3563  -20.7191   26.5882 C   0  0  0  0  0  0  0  0  0  0  0  0
    9.3147  -19.5479   26.6175 C   0  0  0  0  0  0  0  0  0  0  0  0
    8.8906  -18.4972   25.6229 C   0  0  0  0  0  0  0  0  0  0  0  0
    9.9189  -17.3446   25.5966 C   0  0  2  0  0  0  0  0  0  0  0  0
    9.5102  -16.4859   24.4922 N   0  0  0  0  0  0  0  0  0  0  0  0
   11.2393  -17.9260   25.3290 C   0  0  0  0  0  0  0  0  0  0  0  0
   12.0959  -18.4525   26.2708 O   0  0  0  0  0  0  0  0  0  0  0  0
   11.6277  -17.9422   24.1127 O   0  0  0  0  0  0  0  0  0  0  0  0
  2  1  1  6
  2  3  1  0
  3  4  1  0
  4  8  1  0
  5  4  2  0
  6  2  1  0
  7  6  2  0
  9 10  1  0
 10 11  1  0
 11 12  1  0
 13 12  1  1
 13 14  1  0
 14  6  1  0
 15 25  1  0
 15 13  1  0
 16 15  2  0
 18 17  1  0
 18 19  2  0
 20 18  1  0
 21 20  1  0
 21 22  1  0
 23 22  1  0
 24 23  1  6
 24 25  1  0
 26 27  1  0
 26 24  1  0
 28 26  2  0
M  END
$$$$
