DMR.pdb
     RDKit          3D

 28 27  0  0  1  0  0  0  0  0999 V2000
    7.7634  -16.8273   20.6496 N   0  0  0  0  0  0  0  0  0  0  0  0
    9.0527  -16.2166   20.6638 C   0  0  1  0  0  0  0  0  0  0  0  0
    9.1684  -15.2529   19.5242 C   0  0  0  0  0  0  0  0  0  0  0  0
    8.7384  -15.8140   18.2356 C   0  0  0  0  0  0  0  0  0  0  0  0
    7.7848  -16.6229   18.1300 O   0  0  0  0  0  0  0  0  0  0  0  0
    9.4048  -15.6187   21.9665 C   0  0  0  0  0  0  0  0  0  0  0  0
   10.5411  -15.0714   22.1798 O   0  0  0  0  0  0  0  0  0  0  0  0
    9.4059  -15.4422   17.0800 O   0  0  0  0  0  0  0  0  0  0  0  0
    5.9317  -11.5356   24.7520 C   0  0  0  0  0  0  0  0  0  0  0  0
    6.1634  -12.5172   26.2499 S   0  0  0  0  0  0  0  0  0  0  0  0
    7.5379  -13.6796   26.0795 C   0  0  0  0  0  0  0  0  0  0  0  0
    7.6631  -14.2538   24.7295 C   0  0  0  0  0  0  0  0  0  0  0  0
    8.8309  -15.0994   24.3883 C   0  0  2  0  0  0  0  0  0  0  0  0
    8.5017  -15.6261   23.0317 N   0  0  0  0  0  0  0  0  0  0  0  0
    9.2232  -16.1687   25.2760 C   0  0  0  0  0  0  0  0  0  0  0  0
    8.7849  -17.3636   25.0993 O   0  0  0  0  0  0  0  0  0  0  0  0
   13.1148  -19.8403   30.1510 N   0  0  0  0  0  0  0  0  0  0  0  0
   12.6712  -19.4759   31.4443 C   0  0  0  0  0  0  0  0  0  0  0  0
   12.6797  -20.3118   32.4434 N   0  0  0  0  0  0  0  0  0  0  0  0
   12.1841  -18.1588   31.7351 N   0  0  0  0  0  0  0  0  0  0  0  0
   12.0500  -17.1874   30.6945 C   0  0  0  0  0  0  0  0  0  0  0  0
   11.3364  -17.7350   29.4771 C   0  0  0  0  0  0  0  0  0  0  0  0
   11.2459  -16.6810   28.4030 C   0  0  0  0  0  0  0  0  0  0  0  0
   10.4199  -17.2087   27.2089 C   0  0  2  0  0  0  0  0  0  0  0  0
   10.1151  -16.0353   26.3999 N   0  0  0  0  0  0  0  0  0  0  0  0
    9.1851  -17.7960   27.7410 C   0  0  0  0  0  0  0  0  0  0  0  0
    9.0138  -19.1091   28.1214 O   0  0  0  0  0  0  0  0  0  0  0  0
    8.1795  -17.0181   27.8593 O   0  0  0  0  0  0  0  0  0  0  0  0
  2  1  1  1
  2  3  1  0
  3  4  1  0
  4  8  1  0
  5  4  2  0
  6  2  1  0
  7  6  2  0
  9 10  1  0
 10 11  1  0
 11 12  1  0
 13 12  1  1
 13 14  1  0
 14  6  1  0
 15 25  1  0
 15 13  1  0
 16 15  2  0
 18 17  1  0
 18 19  2  0
 20 18  1  0
 21 20  1  0
 21 22  1  0
 23 22  1  0
 24 23  1  1
 24 25  1  0
 26 27  1  0
 26 24  1  0
 28 26  2  0
M  END
$$$$
