DMR.pdb
     RDKit          3D

 28 27  0  0  1  0  0  0  0  0999 V2000
    7.1736  -17.8070   19.9620 N   0  0  0  0  0  0  0  0  0  0  0  0
    8.3867  -17.2593   19.4483 C   0  0  1  0  0  0  0  0  0  0  0  0
    8.2036  -16.8853   18.0104 C   0  0  0  0  0  0  0  0  0  0  0  0
    7.7453  -17.9993   17.1683 C   0  0  0  0  0  0  0  0  0  0  0  0
    7.4999  -19.1418   17.6258 O   0  0  0  0  0  0  0  0  0  0  0  0
    8.9278  -16.1586   20.2691 C   0  0  0  0  0  0  0  0  0  0  0  0
   10.0167  -15.5577   19.9700 O   0  0  0  0  0  0  0  0  0  0  0  0
    7.5728  -17.7928   15.8093 O   0  0  0  0  0  0  0  0  0  0  0  0
    6.4897  -11.7757   26.4570 C   0  0  0  0  0  0  0  0  0  0  0  0
    6.2468  -12.9882   25.1411 S   0  0  0  0  0  0  0  0  0  0  0  0
    7.7726  -13.2843   24.2171 C   0  0  0  0  0  0  0  0  0  0  0  0
    7.6189  -14.2479   23.1145 C   0  0  0  0  0  0  0  0  0  0  0  0
    8.7984  -14.6564   22.3163 C   0  0  2  0  0  0  0  0  0  0  0  0
    8.2660  -15.7231   21.4191 N   0  0  0  0  0  0  0  0  0  0  0  0
    9.9982  -15.0979   22.9878 C   0  0  0  0  0  0  0  0  0  0  0  0
   10.7702  -14.2554   23.5756 O   0  0  0  0  0  0  0  0  0  0  0  0
   11.5877  -16.7526   30.5994 N   0  0  0  0  0  0  0  0  0  0  0  0
   10.6987  -15.7231   30.2095 C   0  0  0  0  0  0  0  0  0  0  0  0
   10.5478  -14.6336   30.9074 N   0  0  0  0  0  0  0  0  0  0  0  0
    9.9071  -15.8167   29.0174 N   0  0  0  0  0  0  0  0  0  0  0  0
   10.5164  -15.6974   27.7293 C   0  0  0  0  0  0  0  0  0  0  0  0
   10.1117  -16.8131   26.7898 C   0  0  0  0  0  0  0  0  0  0  0  0
    9.8861  -16.2737   25.4002 C   0  0  0  0  0  0  0  0  0  0  0  0
   10.7995  -17.0050   24.3915 C   0  0  2  0  0  0  0  0  0  0  0  0
   10.4452  -16.4643   23.0852 N   0  0  0  0  0  0  0  0  0  0  0  0
   10.4829  -18.4364   24.4539 C   0  0  0  0  0  0  0  0  0  0  0  0
    9.6699  -19.1228   23.5786 O   0  0  0  0  0  0  0  0  0  0  0  0
   11.0081  -19.1032   25.4078 O   0  0  0  0  0  0  0  0  0  0  0  0
  2  1  1  1
  2  3  1  0
  3  4  1  0
  4  8  1  0
  5  4  2  0
  6  2  1  0
  7  6  2  0
  9 10  1  0
 10 11  1  0
 11 12  1  0
 13 12  1  1
 13 14  1  0
 14  6  1  0
 15 25  1  0
 15 13  1  0
 16 15  2  0
 18 17  1  0
 18 19  2  0
 20 18  1  0
 21 20  1  0
 21 22  1  0
 23 22  1  0
 24 23  1  1
 24 25  1  0
 26 27  1  0
 26 24  1  0
 28 26  2  0
M  END
$$$$
