DMR.pdb
     RDKit          3D

 28 27  0  0  1  0  0  0  0  0999 V2000
    7.1102  -17.1153   20.3848 N   0  0  0  0  0  0  0  0  0  0  0  0
    8.2844  -16.3249   20.2052 C   0  0  1  0  0  0  0  0  0  0  0  0
    8.1714  -15.5315   18.9408 C   0  0  0  0  0  0  0  0  0  0  0  0
    7.9543  -16.3595   17.7461 C   0  0  0  0  0  0  0  0  0  0  0  0
    7.8576  -17.6098   17.7933 O   0  0  0  0  0  0  0  0  0  0  0  0
    8.6208  -15.4979   21.3804 C   0  0  0  0  0  0  0  0  0  0  0  0
    9.6189  -14.6979   21.3870 O   0  0  0  0  0  0  0  0  0  0  0  0
    7.8502  -15.7461   16.5084 O   0  0  0  0  0  0  0  0  0  0  0  0
    7.5012  -12.2078   27.6050 C   0  0  0  0  0  0  0  0  0  0  0  0
    6.2841  -13.0723   26.5891 S   0  0  0  0  0  0  0  0  0  0  0  0
    6.6561  -12.9175   24.8265 C   0  0  0  0  0  0  0  0  0  0  0  0
    6.7871  -14.2101   24.1337 C   0  0  0  0  0  0  0  0  0  0  0  0
    8.1263  -14.7125   23.7475 C   0  0  2  0  0  0  0  0  0  0  0  0
    7.8548  -15.5555   22.5467 N   0  0  0  0  0  0  0  0  0  0  0  0
    8.9263  -15.4302   24.7119 C   0  0  0  0  0  0  0  0  0  0  0  0
    9.5491  -14.8039   25.6452 O   0  0  0  0  0  0  0  0  0  0  0  0
   14.8534  -18.8181   22.8525 N   0  0  0  0  0  0  0  0  0  0  0  0
   15.5702  -17.7837   23.4993 C   0  0  0  0  0  0  0  0  0  0  0  0
   16.7102  -17.9942   24.0935 N   0  0  0  0  0  0  0  0  0  0  0  0
   15.0837  -16.4354   23.5398 N   0  0  0  0  0  0  0  0  0  0  0  0
   13.6977  -16.1561   23.3256 C   0  0  0  0  0  0  0  0  0  0  0  0
   12.7937  -16.9971   24.2013 C   0  0  0  0  0  0  0  0  0  0  0  0
   11.3491  -16.6371   23.9637 C   0  0  0  0  0  0  0  0  0  0  0  0
   10.4410  -17.4047   24.9499 C   0  0  2  0  0  0  0  0  0  0  0  0
    9.1042  -16.8597   24.7501 N   0  0  0  0  0  0  0  0  0  0  0  0
   10.9107  -17.1177   26.3101 C   0  0  0  0  0  0  0  0  0  0  0  0
   12.0651  -17.6024   26.8851 O   0  0  0  0  0  0  0  0  0  0  0  0
   10.1806  -16.3507   27.0236 O   0  0  0  0  0  0  0  0  0  0  0  0
  2  1  1  1
  2  3  1  0
  3  4  1  0
  4  8  1  0
  5  4  2  0
  6  2  1  0
  7  6  2  0
  9 10  1  0
 10 11  1  0
 11 12  1  0
 13 12  1  1
 13 14  1  0
 14  6  1  0
 15 25  1  0
 15 13  1  0
 16 15  2  0
 18 17  1  0
 18 19  2  0
 20 18  1  0
 21 20  1  0
 21 22  1  0
 23 22  1  0
 24 23  1  6
 24 25  1  0
 26 27  1  0
 26 24  1  0
 28 26  2  0
M  END
$$$$
