DMR.pdb
     RDKit          3D

 28 27  0  0  1  0  0  0  0  0999 V2000
    7.9533  -15.7104   18.9071 N   0  0  0  0  0  0  0  0  0  0  0  0
    7.4682  -16.1579   20.1719 C   0  0  1  0  0  0  0  0  0  0  0  0
    7.3203  -17.6475   20.1585 C   0  0  0  0  0  0  0  0  0  0  0  0
    6.4217  -18.1384   19.1042 C   0  0  0  0  0  0  0  0  0  0  0  0
    5.7441  -17.3725   18.3767 O   0  0  0  0  0  0  0  0  0  0  0  0
    8.2628  -15.6645   21.3135 C   0  0  0  0  0  0  0  0  0  0  0  0
    9.5419  -15.6588   21.3011 O   0  0  0  0  0  0  0  0  0  0  0  0
    6.3083  -19.5030   18.8939 O   0  0  0  0  0  0  0  0  0  0  0  0
    6.9439  -11.5726   28.0006 C   0  0  0  0  0  0  0  0  0  0  0  0
    6.4600  -12.2604   26.4027 S   0  0  0  0  0  0  0  0  0  0  0  0
    7.7873  -13.2470   25.6717 C   0  0  0  0  0  0  0  0  0  0  0  0
    7.4480  -13.8122   24.3552 C   0  0  0  0  0  0  0  0  0  0  0  0
    8.3985  -14.7188   23.6697 C   0  0  2  0  0  0  0  0  0  0  0  0
    7.6441  -15.1782   22.4671 N   0  0  0  0  0  0  0  0  0  0  0  0
    8.9606  -15.8396   24.3858 C   0  0  0  0  0  0  0  0  0  0  0  0
    8.2439  -16.8703   24.6602 O   0  0  0  0  0  0  0  0  0  0  0  0
   13.9370  -19.4821   21.1845 N   0  0  0  0  0  0  0  0  0  0  0  0
   14.4083  -20.3433   22.2034 C   0  0  0  0  0  0  0  0  0  0  0  0
   14.7830  -21.5672   21.9612 N   0  0  0  0  0  0  0  0  0  0  0  0
   14.5033  -19.9193   23.5701 N   0  0  0  0  0  0  0  0  0  0  0  0
   14.0612  -18.6162   23.9591 C   0  0  0  0  0  0  0  0  0  0  0  0
   12.6892  -18.6351   24.5981 C   0  0  0  0  0  0  0  0  0  0  0  0
   12.3065  -17.2524   25.0614 C   0  0  0  0  0  0  0  0  0  0  0  0
   10.7986  -17.2018   25.3938 C   0  0  2  0  0  0  0  0  0  0  0  0
   10.3231  -15.9383   24.8445 N   0  0  0  0  0  0  0  0  0  0  0  0
   10.6598  -17.2073   26.8545 C   0  0  0  0  0  0  0  0  0  0  0  0
   10.7265  -18.3173   27.6680 O   0  0  0  0  0  0  0  0  0  0  0  0
   10.4569  -16.0805   27.4199 O   0  0  0  0  0  0  0  0  0  0  0  0
  2  1  1  6
  2  3  1  0
  3  4  1  0
  4  8  1  0
  5  4  2  0
  6  2  1  0
  7  6  2  0
  9 10  1  0
 10 11  1  0
 11 12  1  0
 13 12  1  1
 13 14  1  0
 14  6  1  0
 15 25  1  0
 15 13  1  0
 16 15  2  0
 18 17  1  0
 18 19  2  0
 20 18  1  0
 21 20  1  0
 21 22  1  0
 23 22  1  0
 24 23  1  1
 24 25  1  0
 26 27  1  0
 26 24  1  0
 28 26  2  0
M  END
$$$$
