DMR.pdb
     RDKit          3D

 28 27  0  0  1  0  0  0  0  0999 V2000
    7.4764  -16.8666   20.4605 N   0  0  0  0  0  0  0  0  0  0  0  0
    8.8850  -16.6551   20.5416 C   0  0  1  0  0  0  0  0  0  0  0  0
    9.3842  -16.0749   19.2551 C   0  0  0  0  0  0  0  0  0  0  0  0
    9.0500  -16.8871   18.0766 C   0  0  0  0  0  0  0  0  0  0  0  0
    7.8697  -17.0854   17.6994 O   0  0  0  0  0  0  0  0  0  0  0  0
    9.2944  -15.8759   21.7263 C   0  0  0  0  0  0  0  0  0  0  0  0
   10.5131  -15.5512   21.9399 O   0  0  0  0  0  0  0  0  0  0  0  0
   10.0726  -17.4645   17.3416 O   0  0  0  0  0  0  0  0  0  0  0  0
    6.3873  -10.8919   25.9525 C   0  0  0  0  0  0  0  0  0  0  0  0
    5.9765  -12.6423   26.1202 S   0  0  0  0  0  0  0  0  0  0  0  0
    7.4197  -13.6956   25.8423 C   0  0  0  0  0  0  0  0  0  0  0  0
    7.4828  -14.2669   24.4868 C   0  0  0  0  0  0  0  0  0  0  0  0
    8.7330  -14.9003   24.0061 C   0  0  2  0  0  0  0  0  0  0  0  0
    8.3577  -15.4566   22.6734 N   0  0  0  0  0  0  0  0  0  0  0  0
    9.3858  -15.9005   24.8177 C   0  0  0  0  0  0  0  0  0  0  0  0
    9.6040  -15.6931   26.0669 O   0  0  0  0  0  0  0  0  0  0  0  0
   10.6652  -19.2409   30.8341 N   0  0  0  0  0  0  0  0  0  0  0  0
    9.7232  -20.1222   30.2528 C   0  0  0  0  0  0  0  0  0  0  0  0
    9.6752  -21.3879   30.5572 N   0  0  0  0  0  0  0  0  0  0  0  0
    8.7599  -19.6739   29.2897 N   0  0  0  0  0  0  0  0  0  0  0  0
    8.7340  -20.2322   27.9736 C   0  0  0  0  0  0  0  0  0  0  0  0
    9.8528  -19.7090   27.0986 C   0  0  0  0  0  0  0  0  0  0  0  0
    9.3622  -18.5670   26.2454 C   0  0  0  0  0  0  0  0  0  0  0  0
   10.4830  -18.0961   25.2921 C   0  0  2  0  0  0  0  0  0  0  0  0
    9.8368  -17.1879   24.3532 N   0  0  0  0  0  0  0  0  0  0  0  0
   10.9991  -19.2754   24.5879 C   0  0  0  0  0  0  0  0  0  0  0  0
   11.9794  -20.1266   25.0488 O   0  0  0  0  0  0  0  0  0  0  0  0
   10.4936  -19.5323   23.4438 O   0  0  0  0  0  0  0  0  0  0  0  0
  2  1  1  6
  2  3  1  0
  3  4  1  0
  4  8  1  0
  5  4  2  0
  6  2  1  0
  7  6  2  0
  9 10  1  0
 10 11  1  0
 11 12  1  0
 13 12  1  1
 13 14  1  0
 14  6  1  0
 15 25  1  0
 15 13  1  0
 16 15  2  0
 18 17  1  0
 18 19  2  0
 20 18  1  0
 21 20  1  0
 21 22  1  0
 23 22  1  0
 24 23  1  1
 24 25  1  0
 26 27  1  0
 26 24  1  0
 28 26  2  0
M  END
$$$$
