SPC.pdb
     RDKit          3D

 20 20  0  0  1  0  0  0  0  0999 V2000
   15.7278  -11.3769  -15.3299 O   0  0  0  0  0  0  0  0  0  0  0  0
   16.8361  -10.5335  -15.3842 C   0  0  0  0  0  0  0  0  0  0  0  0
   17.7393  -10.8270  -16.5657 C   0  0  2  0  0  0  0  0  0  0  0  0
   18.3542  -12.0961  -16.3556 N   0  0  0  0  0  0  0  0  0  0  0  0
   18.7512   -9.7572  -16.7099 C   0  0  0  0  0  0  0  0  0  0  0  0
   19.7508   -9.8281  -15.9040 O   0  0  0  0  0  0  0  0  0  0  0  0
   18.6379   -8.7059  -17.6774 N   0  0  0  0  0  0  0  0  0  0  0  0
   17.6237   -8.6271  -18.6585 C   0  0  0  0  0  0  0  0  0  0  0  0
   18.0979   -7.5187  -19.6139 C   0  0  0  0  0  0  0  0  0  0  0  0
   18.9322   -6.6438  -18.7169 C   0  0  0  0  0  0  0  0  0  0  0  0
   19.5278   -7.6187  -17.7704 C   0  0  1  0  0  0  0  0  0  0  0  0
   19.8032   -6.9912  -16.4403 C   0  0  0  0  0  0  0  0  0  0  0  0
   18.8481   -6.9313  -15.6428 O   0  0  0  0  0  0  0  0  0  0  0  0
   21.0573   -6.4852  -16.0735 N   0  0  0  0  0  0  0  0  0  0  0  0
   21.3341   -5.8743  -14.7848 C   0  0  1  0  0  0  0  0  0  0  0  0
   22.6215   -6.3733  -14.1686 C   0  0  0  0  0  0  0  0  0  0  0  0
   22.4076   -8.1420  -13.8305 S   0  0  0  0  0  0  0  0  0  0  0  0
   21.4127   -4.4075  -14.9217 C   0  0  0  0  0  0  0  0  0  0  0  0
   21.4762   -3.8946  -16.0616 O   0  0  0  0  0  0  0  0  0  0  0  0
   21.4183   -3.5695  -13.8281 O   0  0  0  0  0  0  0  0  0  0  0  0
  2  1  1  0
  3  2  1  0
  3  4  1  1
  5  3  1  0
  5  6  2  0
  7  5  1  0
  8  7  1  0
  9 10  1  0
  9  8  1  0
 10 11  1  0
 11  7  1  0
 11 12  1  1
 12 14  1  0
 12 13  2  0
 14 15  1  0
 15 16  1  6
 16 17  1  0
 18 20  1  0
 18 15  1  0
 19 18  2  0
M  END
$$$$
