SPC.pdb
     RDKit          3D

 20 20  0  0  1  0  0  0  0  0999 V2000
   22.4410  -22.3101  -11.9594 O   0  0  0  0  0  0  0  0  0  0  0  0
   22.6598  -21.1105  -11.2841 C   0  0  0  0  0  0  0  0  0  0  0  0
   24.0714  -20.9899  -10.7452 C   0  0  2  0  0  0  0  0  0  0  0  0
   24.0023  -20.4698   -9.4194 N   0  0  0  0  0  0  0  0  0  0  0  0
   24.8778  -20.1143  -11.6241 C   0  0  0  0  0  0  0  0  0  0  0  0
   24.3908  -18.9432  -11.8366 O   0  0  0  0  0  0  0  0  0  0  0  0
   26.1193  -20.5301  -12.2071 N   0  0  0  0  0  0  0  0  0  0  0  0
   26.8502  -21.6707  -11.8045 C   0  0  0  0  0  0  0  0  0  0  0  0
   28.2132  -21.5201  -12.5017 C   0  0  0  0  0  0  0  0  0  0  0  0
   27.8694  -20.7211  -13.7303 C   0  0  0  0  0  0  0  0  0  0  0  0
   26.7665  -19.8494  -13.2561 C   0  0  1  0  0  0  0  0  0  0  0  0
   25.8317  -19.4960  -14.3697 C   0  0  0  0  0  0  0  0  0  0  0  0
   24.6712  -19.9411  -14.2870 O   0  0  0  0  0  0  0  0  0  0  0  0
   26.2050  -18.7073  -15.4661 N   0  0  0  0  0  0  0  0  0  0  0  0
   25.2864  -18.2996  -16.5152 C   0  0  1  0  0  0  0  0  0  0  0  0
   24.1765  -17.4094  -16.0034 C   0  0  0  0  0  0  0  0  0  0  0  0
   23.1844  -16.9069  -17.4357 S   0  0  0  0  0  0  0  0  0  0  0  0
   26.0137  -17.5838  -17.5805 C   0  0  0  0  0  0  0  0  0  0  0  0
   25.9128  -17.9705  -18.7665 O   0  0  0  0  0  0  0  0  0  0  0  0
   26.8099  -16.4909  -17.3162 O   0  0  0  0  0  0  0  0  0  0  0  0
  2  1  1  0
  3  2  1  0
  3  4  1  1
  5  3  1  0
  5  6  2  0
  7  5  1  0
  8  7  1  0
  9 10  1  0
  9  8  1  0
 10 11  1  0
 11  7  1  0
 11 12  1  6
 12 14  1  0
 12 13  2  0
 14 15  1  0
 15 16  1  1
 16 17  1  0
 18 20  1  0
 18 15  1  0
 19 18  2  0
M  END
$$$$
