SPC.pdb
     RDKit          3D

 20 20  0  0  1  0  0  0  0  0999 V2000
   18.1486  -12.6425  -14.4985 O   0  0  0  0  0  0  0  0  0  0  0  0
   18.4472  -11.2970  -14.7062 C   0  0  0  0  0  0  0  0  0  0  0  0
   18.5477  -10.9386  -16.1756 C   0  0  2  0  0  0  0  0  0  0  0  0
   19.6056  -11.7012  -16.7518 N   0  0  0  0  0  0  0  0  0  0  0  0
   18.7871   -9.4865  -16.3291 C   0  0  0  0  0  0  0  0  0  0  0  0
   20.0212   -9.1339  -16.4079 O   0  0  0  0  0  0  0  0  0  0  0  0
   17.7249   -8.5259  -16.3869 N   0  0  0  0  0  0  0  0  0  0  0  0
   16.3508   -8.8536  -16.4261 C   0  0  0  0  0  0  0  0  0  0  0  0
   15.6497   -7.5305  -16.7787 C   0  0  0  0  0  0  0  0  0  0  0  0
   16.5935   -6.4980  -16.2229 C   0  0  0  0  0  0  0  0  0  0  0  0
   17.9213   -7.1318  -16.4132 C   0  0  1  0  0  0  0  0  0  0  0  0
   18.8994   -6.6736  -15.3777 C   0  0  0  0  0  0  0  0  0  0  0  0
   18.9097   -7.3024  -14.3024 O   0  0  0  0  0  0  0  0  0  0  0  0
   19.7750   -5.5967  -15.5700 N   0  0  0  0  0  0  0  0  0  0  0  0
   20.7019   -5.1212  -14.5574 C   0  0  1  0  0  0  0  0  0  0  0  0
   22.1456   -5.3895  -14.9178 C   0  0  0  0  0  0  0  0  0  0  0  0
   23.1713   -4.6714  -13.6061 S   0  0  0  0  0  0  0  0  0  0  0  0
   20.5285   -3.6713  -14.3473 C   0  0  0  0  0  0  0  0  0  0  0  0
   20.3346   -2.9221  -15.3308 O   0  0  0  0  0  0  0  0  0  0  0  0
   20.5718   -3.1031  -13.0928 O   0  0  0  0  0  0  0  0  0  0  0  0
  2  1  1  0
  3  2  1  0
  3  4  1  1
  5  3  1  0
  5  6  2  0
  7  5  1  0
  8  7  1  0
  9 10  1  0
  9  8  1  0
 10 11  1  0
 11  7  1  0
 11 12  1  1
 12 14  1  0
 12 13  2  0
 14 15  1  0
 15 16  1  6
 16 17  1  0
 18 20  1  0
 18 15  1  0
 19 18  2  0
M  END
$$$$
