SPC.pdb
     RDKit          3D

 20 20  0  0  1  0  0  0  0  0999 V2000
   15.5511  -10.5097  -16.5678 O   0  0  0  0  0  0  0  0  0  0  0  0
   15.6845  -10.0162  -15.2711 C   0  0  0  0  0  0  0  0  0  0  0  0
   16.8318  -10.6564  -14.5151 C   0  0  2  0  0  0  0  0  0  0  0  0
   16.4761  -12.0048  -14.2180 N   0  0  0  0  0  0  0  0  0  0  0  0
   17.1164   -9.8917  -13.2807 C   0  0  0  0  0  0  0  0  0  0  0  0
   16.3133  -10.1052  -12.2994 O   0  0  0  0  0  0  0  0  0  0  0  0
   18.2095   -8.9710  -13.1719 N   0  0  0  0  0  0  0  0  0  0  0  0
   19.1918   -8.7737  -14.1684 C   0  0  0  0  0  0  0  0  0  0  0  0
   20.2805   -7.9368  -13.4751 C   0  0  0  0  0  0  0  0  0  0  0  0
   19.5024   -7.1830  -12.4300 C   0  0  0  0  0  0  0  0  0  0  0  0
   18.4403   -8.1478  -12.0531 C   0  0  1  0  0  0  0  0  0  0  0  0
   17.2008   -7.4454  -11.5958 C   0  0  0  0  0  0  0  0  0  0  0  0
   16.3771   -7.1357  -12.4775 O   0  0  0  0  0  0  0  0  0  0  0  0
   16.9436   -7.1345  -10.2540 N   0  0  0  0  0  0  0  0  0  0  0  0
   15.7435   -6.4527   -9.8007 C   0  0  1  0  0  0  0  0  0  0  0  0
   15.4637   -6.6811   -8.3324 C   0  0  0  0  0  0  0  0  0  0  0  0
   15.3641   -8.4733   -8.0748 S   0  0  0  0  0  0  0  0  0  0  0  0
   15.8598   -5.0016  -10.0398 C   0  0  0  0  0  0  0  0  0  0  0  0
   16.9890   -4.4918  -10.2168 O   0  0  0  0  0  0  0  0  0  0  0  0
   14.7579   -4.1753  -10.0768 O   0  0  0  0  0  0  0  0  0  0  0  0
  2  1  1  0
  3  2  1  0
  3  4  1  1
  5  3  1  0
  5  6  2  0
  7  5  1  0
  8  7  1  0
  9 10  1  0
  9  8  1  0
 10 11  1  0
 11  7  1  0
 11 12  1  6
 12 14  1  0
 12 13  2  0
 14 15  1  0
 15 16  1  1
 16 17  1  0
 18 20  1  0
 18 15  1  0
 19 18  2  0
M  END
$$$$
