SPC.pdb
     RDKit          3D

 20 20  0  0  1  0  0  0  0  0999 V2000
   20.9486  -11.4494  -20.8122 O   0  0  0  0  0  0  0  0  0  0  0  0
   21.3328  -10.5780  -19.7945 C   0  0  0  0  0  0  0  0  0  0  0  0
   22.4920  -11.1085  -18.9745 C   0  0  2  0  0  0  0  0  0  0  0  0
   22.0813  -12.3232  -18.3510 N   0  0  0  0  0  0  0  0  0  0  0  0
   22.9068  -10.1033  -17.9712 C   0  0  0  0  0  0  0  0  0  0  0  0
   22.1469  -10.0054  -16.9384 O   0  0  0  0  0  0  0  0  0  0  0  0
   24.0739   -9.2860  -18.1268 N   0  0  0  0  0  0  0  0  0  0  0  0
   24.9913   -9.3962  -19.1961 C   0  0  0  0  0  0  0  0  0  0  0  0
   26.1913   -8.5363  -18.7637 C   0  0  0  0  0  0  0  0  0  0  0  0
   25.5553   -7.5094  -17.8654 C   0  0  0  0  0  0  0  0  0  0  0  0
   24.4520   -8.2697  -17.2285 C   0  0  1  0  0  0  0  0  0  0  0  0
   23.3092   -7.3744  -16.8659 C   0  0  0  0  0  0  0  0  0  0  0  0
   22.3967   -7.2653  -17.7068 O   0  0  0  0  0  0  0  0  0  0  0  0
   23.2332   -6.6775  -15.6526 N   0  0  0  0  0  0  0  0  0  0  0  0
   22.1715   -5.7411  -15.3265 C   0  0  1  0  0  0  0  0  0  0  0  0
   21.4373   -6.1123  -14.0579 C   0  0  0  0  0  0  0  0  0  0  0  0
   20.1783   -4.8391  -13.7712 S   0  0  0  0  0  0  0  0  0  0  0  0
   22.7202   -4.3802  -15.1744 C   0  0  0  0  0  0  0  0  0  0  0  0
   23.7844   -4.2092  -14.5384 O   0  0  0  0  0  0  0  0  0  0  0  0
   22.0979   -3.2755  -15.7137 O   0  0  0  0  0  0  0  0  0  0  0  0
  2  1  1  0
  3  2  1  0
  3  4  1  1
  5  3  1  0
  5  6  2  0
  7  5  1  0
  8  7  1  0
  9 10  1  0
  9  8  1  0
 10 11  1  0
 11  7  1  0
 11 12  1  6
 12 14  1  0
 12 13  2  0
 14 15  1  0
 15 16  1  1
 16 17  1  0
 18 20  1  0
 18 15  1  0
 19 18  2  0
M  END
$$$$
