SPC.pdb
     RDKit          3D

 20 20  0  0  1  0  0  0  0  0999 V2000
   13.4809  -18.3573    3.6412 O   0  0  0  0  0  0  0  0  0  0  0  0
   14.6980  -18.0021    4.2202 C   0  0  0  0  0  0  0  0  0  0  0  0
   15.7979  -17.8011    3.1967 C   0  0  2  0  0  0  0  0  0  0  0  0
   15.9890  -19.0286    2.4970 N   0  0  0  0  0  0  0  0  0  0  0  0
   17.0428  -17.3659    3.8675 C   0  0  0  0  0  0  0  0  0  0  0  0
   17.8574  -18.3078    4.1886 O   0  0  0  0  0  0  0  0  0  0  0  0
   17.3345  -15.9909    4.1479 N   0  0  0  0  0  0  0  0  0  0  0  0
   16.4982  -14.9075    3.7954 C   0  0  0  0  0  0  0  0  0  0  0  0
   17.3650  -13.6592    4.0334 C   0  0  0  0  0  0  0  0  0  0  0  0
   18.3035  -14.1108    5.1203 C   0  0  0  0  0  0  0  0  0  0  0  0
   18.4957  -15.5489    4.8103 C   0  0  1  0  0  0  0  0  0  0  0  0
   18.7838  -16.3409    6.0467 C   0  0  0  0  0  0  0  0  0  0  0  0
   17.7991  -16.7782    6.6718 O   0  0  0  0  0  0  0  0  0  0  0  0
   20.0809  -16.5987    6.5099 N   0  0  0  0  0  0  0  0  0  0  0  0
   20.3698  -17.3446    7.7227 C   0  0  1  0  0  0  0  0  0  0  0  0
   21.3414  -18.4796    7.4905 C   0  0  0  0  0  0  0  0  0  0  0  0
   20.7336  -19.4275    6.0690 S   0  0  0  0  0  0  0  0  0  0  0  0
   20.9277  -16.4477    8.7527 C   0  0  0  0  0  0  0  0  0  0  0  0
   21.0468  -16.8554    9.9299 O   0  0  0  0  0  0  0  0  0  0  0  0
   21.3285  -15.1615    8.4640 O   0  0  0  0  0  0  0  0  0  0  0  0
  2  1  1  0
  3  2  1  0
  3  4  1  1
  5  3  1  0
  5  6  2  0
  7  5  1  0
  8  7  1  0
  9 10  1  0
  9  8  1  0
 10 11  1  0
 11  7  1  0
 11 12  1  1
 12 14  1  0
 12 13  2  0
 14 15  1  0
 15 16  1  6
 16 17  1  0
 18 20  1  0
 18 15  1  0
 19 18  2  0
M  END
$$$$
