SPC.pdb
     RDKit          3D

 20 20  0  0  1  0  0  0  0  0999 V2000
   16.2829  -10.3055  -16.9842 O   0  0  0  0  0  0  0  0  0  0  0  0
   16.8474   -9.8988  -15.7764 C   0  0  0  0  0  0  0  0  0  0  0  0
   18.1913  -10.5471  -15.5093 C   0  0  2  0  0  0  0  0  0  0  0  0
   17.9628  -11.8514  -14.9807 N   0  0  0  0  0  0  0  0  0  0  0  0
   18.9780   -9.7174  -14.5702 C   0  0  0  0  0  0  0  0  0  0  0  0
   18.5227   -9.6576  -13.3690 O   0  0  0  0  0  0  0  0  0  0  0  0
   20.1687   -9.0208  -14.9591 N   0  0  0  0  0  0  0  0  0  0  0  0
   20.7501   -9.0862  -16.2455 C   0  0  0  0  0  0  0  0  0  0  0  0
   22.1316   -8.4309  -16.0772 C   0  0  0  0  0  0  0  0  0  0  0  0
   21.9056   -7.4709  -14.9399 C   0  0  0  0  0  0  0  0  0  0  0  0
   20.9093   -8.1835  -14.1029 C   0  0  1  0  0  0  0  0  0  0  0  0
   20.0410   -7.2245  -13.3511 C   0  0  0  0  0  0  0  0  0  0  0  0
   19.0017   -6.8453  -13.9238 O   0  0  0  0  0  0  0  0  0  0  0  0
   20.3470   -6.7541  -12.0672 N   0  0  0  0  0  0  0  0  0  0  0  0
   19.5661   -5.7458  -11.3713 C   0  0  1  0  0  0  0  0  0  0  0  0
   19.5854   -5.9281   -9.8704 C   0  0  0  0  0  0  0  0  0  0  0  0
   18.5891   -4.5940   -9.1522 S   0  0  0  0  0  0  0  0  0  0  0  0
   20.0730   -4.3976  -11.6905 C   0  0  0  0  0  0  0  0  0  0  0  0
   19.2860   -3.4246  -11.6917 O   0  0  0  0  0  0  0  0  0  0  0  0
   21.3976   -4.1657  -11.9906 O   0  0  0  0  0  0  0  0  0  0  0  0
  2  1  1  0
  3  2  1  0
  3  4  1  1
  5  3  1  0
  5  6  2  0
  7  5  1  0
  8  7  1  0
  9 10  1  0
  9  8  1  0
 10 11  1  0
 11  7  1  0
 11 12  1  6
 12 14  1  0
 12 13  2  0
 14 15  1  0
 15 16  1  1
 16 17  1  0
 18 20  1  0
 18 15  1  0
 19 18  2  0
M  END
$$$$
