SPC.pdb
     RDKit          3D

 20 20  0  0  1  0  0  0  0  0999 V2000
   12.7489  -23.9152   -8.8491 O   0  0  0  0  0  0  0  0  0  0  0  0
   13.8065  -23.1743   -9.3737 C   0  0  0  0  0  0  0  0  0  0  0  0
   13.9865  -21.8378   -8.6814 C   0  0  2  0  0  0  0  0  0  0  0  0
   15.0324  -21.1283   -9.3414 N   0  0  0  0  0  0  0  0  0  0  0  0
   14.2983  -22.0450   -7.2499 C   0  0  0  0  0  0  0  0  0  0  0  0
   15.4710  -22.5097   -7.0001 O   0  0  0  0  0  0  0  0  0  0  0  0
   13.3657  -21.7527   -6.2015 N   0  0  0  0  0  0  0  0  0  0  0  0
   12.0848  -21.1909   -6.4035 C   0  0  0  0  0  0  0  0  0  0  0  0
   11.6088  -20.8015   -4.9935 C   0  0  0  0  0  0  0  0  0  0  0  0
   12.3311  -21.7889   -4.1164 C   0  0  0  0  0  0  0  0  0  0  0  0
   13.6131  -21.9892   -4.8357 C   0  0  1  0  0  0  0  0  0  0  0  0
   14.1732  -23.3539   -4.5851 C   0  0  0  0  0  0  0  0  0  0  0  0
   13.7206  -24.2802   -5.2842 O   0  0  0  0  0  0  0  0  0  0  0  0
   15.1569  -23.6166   -3.6224 N   0  0  0  0  0  0  0  0  0  0  0  0
   15.5974  -24.9540   -3.2648 C   0  0  1  0  0  0  0  0  0  0  0  0
   17.0916  -25.0364   -3.0486 C   0  0  0  0  0  0  0  0  0  0  0  0
   17.4858  -26.7629   -2.6587 S   0  0  0  0  0  0  0  0  0  0  0  0
   14.9162  -25.4042   -2.0362 C   0  0  0  0  0  0  0  0  0  0  0  0
   14.5925  -24.5659   -1.1651 O   0  0  0  0  0  0  0  0  0  0  0  0
   14.6181  -26.7300   -1.8083 O   0  0  0  0  0  0  0  0  0  0  0  0
  2  1  1  0
  3  2  1  0
  3  4  1  6
  5  3  1  0
  5  6  2  0
  7  5  1  0
  8  7  1  0
  9 10  1  0
  9  8  1  0
 10 11  1  0
 11  7  1  0
 11 12  1  6
 12 14  1  0
 12 13  2  0
 14 15  1  0
 15 16  1  1
 16 17  1  0
 18 20  1  0
 18 15  1  0
 19 18  2  0
M  END
$$$$
