SPC.pdb
     RDKit          3D

 20 20  0  0  1  0  0  0  0  0999 V2000
   31.0992   -8.9877  -21.0323 O   0  0  0  0  0  0  0  0  0  0  0  0
   31.2806   -8.3619  -19.8002 C   0  0  0  0  0  0  0  0  0  0  0  0
   30.9598   -9.2689  -18.6288 C   0  0  2  0  0  0  0  0  0  0  0  0
   29.5475   -9.2661  -18.4332 N   0  0  0  0  0  0  0  0  0  0  0  0
   31.6707   -8.8045  -17.4170 C   0  0  0  0  0  0  0  0  0  0  0  0
   31.1252   -7.8175  -16.7990 O   0  0  0  0  0  0  0  0  0  0  0  0
   32.8866   -9.4041  -16.9519 N   0  0  0  0  0  0  0  0  0  0  0  0
   33.4178  -10.6190  -17.4409 C   0  0  0  0  0  0  0  0  0  0  0  0
   34.5339  -10.9792  -16.4454 C   0  0  0  0  0  0  0  0  0  0  0  0
   34.9673   -9.6317  -15.9331 C   0  0  0  0  0  0  0  0  0  0  0  0
   33.7036   -8.8547  -15.9453 C   0  0  1  0  0  0  0  0  0  0  0  0
   33.9611   -7.3953  -16.1526 C   0  0  0  0  0  0  0  0  0  0  0  0
   33.9785   -6.9934  -17.3315 O   0  0  0  0  0  0  0  0  0  0  0  0
   34.1762   -6.4953  -15.1004 N   0  0  0  0  0  0  0  0  0  0  0  0
   34.5078   -5.0942  -15.2938 C   0  0  1  0  0  0  0  0  0  0  0  0
   33.5449   -4.1655  -14.5892 C   0  0  0  0  0  0  0  0  0  0  0  0
   34.1257   -2.4710  -14.8715 S   0  0  0  0  0  0  0  0  0  0  0  0
   35.8724   -4.8205  -14.8045 C   0  0  0  0  0  0  0  0  0  0  0  0
   36.2620   -5.3393  -13.7342 O   0  0  0  0  0  0  0  0  0  0  0  0
   36.7462   -4.0053  -15.4903 O   0  0  0  0  0  0  0  0  0  0  0  0
  2  1  1  0
  3  2  1  0
  3  4  1  1
  5  3  1  0
  5  6  2  0
  7  5  1  0
  8  7  1  0
  9 10  1  0
  9  8  1  0
 10 11  1  0
 11  7  1  0
 11 12  1  6
 12 14  1  0
 12 13  2  0
 14 15  1  0
 15 16  1  1
 16 17  1  0
 18 20  1  0
 18 15  1  0
 19 18  2  0
M  END
$$$$
