SPC.pdb
     RDKit          3D

 20 20  0  0  1  0  0  0  0  0999 V2000
   15.6303  -19.3666    2.4647 O   0  0  0  0  0  0  0  0  0  0  0  0
   16.0895  -19.5158    3.7722 C   0  0  0  0  0  0  0  0  0  0  0  0
   17.1479  -20.5931    3.9027 C   0  0  2  0  0  0  0  0  0  0  0  0
   16.5123  -21.8634    3.7793 N   0  0  0  0  0  0  0  0  0  0  0  0
   17.8453  -20.4655    5.2014 C   0  0  0  0  0  0  0  0  0  0  0  0
   17.2206  -20.9502    6.2156 O   0  0  0  0  0  0  0  0  0  0  0  0
   19.1304  -19.8452    5.3355 N   0  0  0  0  0  0  0  0  0  0  0  0
   19.8893  -19.3354    4.2578 C   0  0  0  0  0  0  0  0  0  0  0  0
   21.2768  -19.0581    4.8615 C   0  0  0  0  0  0  0  0  0  0  0  0
   20.9590  -18.7808    6.3066 C   0  0  0  0  0  0  0  0  0  0  0  0
   19.7979  -19.6682    6.5626 C   0  0  1  0  0  0  0  0  0  0  0  0
   18.9039  -19.1065    7.6228 C   0  0  0  0  0  0  0  0  0  0  0  0
   17.8247  -18.6155    7.2406 O   0  0  0  0  0  0  0  0  0  0  0  0
   19.2286  -19.1137    8.9858 N   0  0  0  0  0  0  0  0  0  0  0  0
   18.3973  -18.5138   10.0153 C   0  0  1  0  0  0  0  0  0  0  0  0
   18.6555  -19.0980   11.3857 C   0  0  0  0  0  0  0  0  0  0  0  0
   18.4062  -20.8900   11.2638 S   0  0  0  0  0  0  0  0  0  0  0  0
   18.6258  -17.0574   10.0713 C   0  0  0  0  0  0  0  0  0  0  0  0
   19.7304  -16.5898    9.7142 O   0  0  0  0  0  0  0  0  0  0  0  0
   17.6563  -16.1806   10.5069 O   0  0  0  0  0  0  0  0  0  0  0  0
  2  1  1  0
  3  2  1  0
  3  4  1  1
  5  3  1  0
  5  6  2  0
  7  5  1  0
  8  7  1  0
  9 10  1  0
  9  8  1  0
 10 11  1  0
 11  7  1  0
 11 12  1  1
 12 14  1  0
 12 13  2  0
 14 15  1  0
 15 16  1  1
 16 17  1  0
 18 20  1  0
 18 15  1  0
 19 18  2  0
M  END
$$$$
