SPC.pdb
     RDKit          3D

 20 20  0  0  1  0  0  0  0  0999 V2000
   22.0188  -17.5664  -18.7614 O   0  0  0  0  0  0  0  0  0  0  0  0
   21.9052  -16.4113  -17.9897 C   0  0  0  0  0  0  0  0  0  0  0  0
   22.2728  -16.6382  -16.5367 C   0  0  2  0  0  0  0  0  0  0  0  0
   21.2889  -17.4890  -15.9528 N   0  0  0  0  0  0  0  0  0  0  0  0
   22.3539  -15.3435  -15.8250 C   0  0  0  0  0  0  0  0  0  0  0  0
   21.2281  -14.8416  -15.4583 O   0  0  0  0  0  0  0  0  0  0  0  0
   23.5962  -14.6812  -15.5561 N   0  0  0  0  0  0  0  0  0  0  0  0
   24.8706  -15.2395  -15.8035 C   0  0  0  0  0  0  0  0  0  0  0  0
   25.8505  -14.2937  -15.0880 C   0  0  0  0  0  0  0  0  0  0  0  0
   25.1209  -12.9774  -15.1185 C   0  0  0  0  0  0  0  0  0  0  0  0
   23.6995  -13.3881  -15.0086 C   0  0  1  0  0  0  0  0  0  0  0  0
   22.7934  -12.4079  -15.6847 C   0  0  0  0  0  0  0  0  0  0  0  0
   22.5228  -12.6304  -16.8801 O   0  0  0  0  0  0  0  0  0  0  0  0
   22.2567  -11.2854  -15.0402 N   0  0  0  0  0  0  0  0  0  0  0  0
   21.3922  -10.3179  -15.6936 C   0  0  1  0  0  0  0  0  0  0  0  0
   20.0048  -10.2783  -15.0936 C   0  0  0  0  0  0  0  0  0  0  0  0
   20.1968  -10.0404  -13.3062 S   0  0  0  0  0  0  0  0  0  0  0  0
   21.9821   -8.9683  -15.6104 C   0  0  0  0  0  0  0  0  0  0  0  0
   23.0275   -8.7894  -14.9459 O   0  0  0  0  0  0  0  0  0  0  0  0
   21.4190   -7.8828  -16.2453 O   0  0  0  0  0  0  0  0  0  0  0  0
  2  1  1  0
  3  2  1  0
  3  4  1  1
  5  3  1  0
  5  6  2  0
  7  5  1  0
  8  7  1  0
  9 10  1  0
  9  8  1  0
 10 11  1  0
 11  7  1  0
 11 12  1  6
 12 14  1  0
 12 13  2  0
 14 15  1  0
 15 16  1  1
 16 17  1  0
 18 20  1  0
 18 15  1  0
 19 18  2  0
M  END
$$$$
