FEE.pdb
     RDKit          3D

 30 30  0  0  1  0  0  0  0  0999 V2000
    5.8586  -17.2255   25.3733 N   0  0  0  0  0  0  0  0  0  0  0  0
    6.7963  -16.2250   24.9087 C   0  0  1  0  0  0  0  0  0  0  0  0
    7.2299  -15.4448   26.1335 C   0  0  0  0  0  0  0  0  0  0  0  0
    6.8090  -14.0408   26.0889 C   0  0  0  0  0  0  0  0  0  0  0  0
    7.6922  -13.1052   25.5921 C   0  0  0  0  0  0  0  0  0  0  0  0
    7.4049  -11.7689   25.5047 C   0  0  0  0  0  0  0  0  0  0  0  0
    6.1750  -11.3432   25.9341 C   0  0  0  0  0  0  0  0  0  0  0  0
    5.2617  -12.2620   26.4404 C   0  0  0  0  0  0  0  0  0  0  0  0
    5.5717  -13.6035   26.5195 C   0  0  0  0  0  0  0  0  0  0  0  0
    7.9947  -16.9114   24.3843 C   0  0  0  0  0  0  0  0  0  0  0  0
    8.3497  -17.9825   24.9205 O   0  0  0  0  0  0  0  0  0  0  0  0
    8.7241  -16.3627   23.2940 N   0  0  0  0  0  0  0  0  0  0  0  0
    9.9380  -16.9793   22.8619 C   0  0  1  0  0  0  0  0  0  0  0  0
   10.3213  -16.4145   21.5136 C   0  0  0  0  0  0  0  0  0  0  0  0
   11.6204  -17.0025   21.0083 C   0  0  0  0  0  0  0  0  0  0  0  0
   11.9110  -16.5151   19.6404 C   0  0  0  0  0  0  0  0  0  0  0  0
   12.2873  -17.3467   18.7772 O   0  0  0  0  0  0  0  0  0  0  0  0
   11.0390  -16.7829   23.8392 C   0  0  0  0  0  0  0  0  0  0  0  0
   11.0095  -15.8155   24.6390 O   0  0  0  0  0  0  0  0  0  0  0  0
   11.7908  -15.1942   19.2611 O   0  0  0  0  0  0  0  0  0  0  0  0
   12.1324  -17.6608   23.8990 N   0  0  0  0  0  0  0  0  0  0  0  0
   12.5814  -18.3050   25.1451 C   0  0  1  0  0  0  0  0  0  0  0  0
   11.4441  -18.8981   25.8576 C   0  0  0  0  0  0  0  0  0  0  0  0
   11.7570  -19.6714   27.0764 C   0  0  0  0  0  0  0  0  0  0  0  0
   11.5840  -18.8845   28.3164 C   0  0  0  0  0  0  0  0  0  0  0  0
   11.0717  -17.7178   28.3179 O   0  0  0  0  0  0  0  0  0  0  0  0
   13.7641  -19.0943   24.9545 C   0  0  0  0  0  0  0  0  0  0  0  0
   14.7874  -19.1345   25.6861 O   0  0  0  0  0  0  0  0  0  0  0  0
   11.9657  -19.3669   29.5842 O   0  0  0  0  0  0  0  0  0  0  0  0
   13.8062  -19.9349   23.8143 O   0  0  0  0  0  0  0  0  0  0  0  0
  2 10  1  0
  2  1  1  1
  3  2  1  0
  3  4  1  0
  4  5  2  0
  4  9  1  0
  5  6  1  0
  6  7  2  0
  8  7  1  0
  9  8  2  0
 10 11  2  0
 12 10  1  0
 12 13  1  0
 13 14  1  6
 14 15  1  0
 16 15  1  0
 16 20  1  0
 17 16  2  0
 18 13  1  0
 18 19  2  0
 21 18  1  0
 22 21  1  0
 22 27  1  0
 22 23  1  6
 24 23  1  0
 25 24  1  0
 26 25  2  0
 27 30  1  0
 28 27  2  0
 29 25  1  0
M  END
$$$$
