FEE.pdb
     RDKit          3D

 30 30  0  0  1  0  0  0  0  0999 V2000
    5.9897  -16.7724   25.6757 N   0  0  0  0  0  0  0  0  0  0  0  0
    6.4143  -16.4701   24.3250 C   0  0  1  0  0  0  0  0  0  0  0  0
    6.1368  -14.9958   24.1100 C   0  0  0  0  0  0  0  0  0  0  0  0
    6.6534  -14.1580   25.1970 C   0  0  0  0  0  0  0  0  0  0  0  0
    7.9128  -13.6116   25.0641 C   0  0  0  0  0  0  0  0  0  0  0  0
    8.4937  -12.8158   26.0155 C   0  0  0  0  0  0  0  0  0  0  0  0
    7.7837  -12.5509   27.1574 C   0  0  0  0  0  0  0  0  0  0  0  0
    6.5107  -13.0870   27.3217 C   0  0  0  0  0  0  0  0  0  0  0  0
    5.9445  -13.8861   26.3508 C   0  0  0  0  0  0  0  0  0  0  0  0
    7.8776  -16.6536   24.2399 C   0  0  0  0  0  0  0  0  0  0  0  0
    8.4510  -17.2938   25.1467 O   0  0  0  0  0  0  0  0  0  0  0  0
    8.6127  -16.1130   23.1495 N   0  0  0  0  0  0  0  0  0  0  0  0
    9.8538  -16.7033   22.7597 C   0  0  1  0  0  0  0  0  0  0  0  0
    9.9321  -16.7276   21.2507 C   0  0  0  0  0  0  0  0  0  0  0  0
   11.1761  -17.4387   20.7653 C   0  0  0  0  0  0  0  0  0  0  0  0
   11.1628  -17.5542   19.2891 C   0  0  0  0  0  0  0  0  0  0  0  0
   12.2212  -17.8998   18.7072 O   0  0  0  0  0  0  0  0  0  0  0  0
   11.0173  -15.9761   23.3284 C   0  0  0  0  0  0  0  0  0  0  0  0
   11.0025  -14.7232   23.4080 O   0  0  0  0  0  0  0  0  0  0  0  0
   10.0485  -17.3025   18.5155 O   0  0  0  0  0  0  0  0  0  0  0  0
   12.1547  -16.6574   23.7888 N   0  0  0  0  0  0  0  0  0  0  0  0
   12.7872  -16.3820   25.0902 C   0  0  1  0  0  0  0  0  0  0  0  0
   11.7840  -16.3809   26.1609 C   0  0  0  0  0  0  0  0  0  0  0  0
   12.2851  -16.1904   27.5372 C   0  0  0  0  0  0  0  0  0  0  0  0
   11.1984  -16.0748   28.5334 C   0  0  0  0  0  0  0  0  0  0  0  0
   11.0923  -16.8712   29.5224 O   0  0  0  0  0  0  0  0  0  0  0  0
   13.9960  -17.1317   25.2776 C   0  0  0  0  0  0  0  0  0  0  0  0
   14.3686  -18.1580   24.6517 O   0  0  0  0  0  0  0  0  0  0  0  0
   10.2069  -15.0757   28.4667 O   0  0  0  0  0  0  0  0  0  0  0  0
   14.8900  -16.6808   26.2806 O   0  0  0  0  0  0  0  0  0  0  0  0
  2 10  1  0
  2  1  1  1
  3  2  1  0
  3  4  1  0
  4  5  2  0
  4  9  1  0
  5  6  1  0
  6  7  2  0
  8  7  1  0
  9  8  2  0
 10 11  2  0
 12 10  1  0
 12 13  1  0
 13 14  1  6
 14 15  1  0
 16 15  1  0
 16 20  1  0
 17 16  2  0
 18 13  1  0
 18 19  2  0
 21 18  1  0
 22 21  1  0
 22 27  1  0
 22 23  1  1
 24 23  1  0
 25 24  1  0
 26 25  2  0
 27 30  1  0
 28 27  2  0
 29 25  1  0
M  END
$$$$
