FEE.pdb
     RDKit          3D

 30 30  0  0  1  0  0  0  0  0999 V2000
    5.9866  -15.8372   24.8674 N   0  0  0  0  0  0  0  0  0  0  0  0
    6.7816  -15.6559   23.6710 C   0  0  1  0  0  0  0  0  0  0  0  0
    7.1726  -14.1921   23.6360 C   0  0  0  0  0  0  0  0  0  0  0  0
    7.1208  -13.5603   24.9583 C   0  0  0  0  0  0  0  0  0  0  0  0
    8.2594  -12.9485   25.4396 C   0  0  0  0  0  0  0  0  0  0  0  0
    8.3242  -12.3290   26.6594 C   0  0  0  0  0  0  0  0  0  0  0  0
    7.1974  -12.3186   27.4393 C   0  0  0  0  0  0  0  0  0  0  0  0
    6.0329  -12.9270   26.9825 C   0  0  0  0  0  0  0  0  0  0  0  0
    5.9895  -13.5453   25.7505 C   0  0  0  0  0  0  0  0  0  0  0  0
    8.0285  -16.4353   23.8127 C   0  0  0  0  0  0  0  0  0  0  0  0
    8.0904  -17.3015   24.7109 O   0  0  0  0  0  0  0  0  0  0  0  0
    9.1303  -16.2023   22.9446 N   0  0  0  0  0  0  0  0  0  0  0  0
   10.1553  -17.1879   22.8080 C   0  0  1  0  0  0  0  0  0  0  0  0
   11.0368  -16.8188   21.6373 C   0  0  0  0  0  0  0  0  0  0  0  0
   12.0449  -17.9043   21.3305 C   0  0  0  0  0  0  0  0  0  0  0  0
   12.8331  -17.5528   20.1272 C   0  0  0  0  0  0  0  0  0  0  0  0
   12.4974  -18.0543   19.0254 O   0  0  0  0  0  0  0  0  0  0  0  0
   10.9650  -17.3221   24.0459 C   0  0  0  0  0  0  0  0  0  0  0  0
   11.2668  -16.3050   24.7174 O   0  0  0  0  0  0  0  0  0  0  0  0
   13.9191  -16.7022   20.1499 O   0  0  0  0  0  0  0  0  0  0  0  0
   11.4125  -18.5731   24.4980 N   0  0  0  0  0  0  0  0  0  0  0  0
   12.1523  -18.7569   25.7583 C   0  0  1  0  0  0  0  0  0  0  0  0
   13.5927  -18.5822   25.5408 C   0  0  0  0  0  0  0  0  0  0  0  0
   14.1003  -18.8918   24.1888 C   0  0  0  0  0  0  0  0  0  0  0  0
   15.5731  -18.8000   24.0930 C   0  0  0  0  0  0  0  0  0  0  0  0
   16.3257  -19.8264   24.1538 O   0  0  0  0  0  0  0  0  0  0  0  0
   11.5325  -18.0749   26.8579 C   0  0  0  0  0  0  0  0  0  0  0  0
   12.0334  -17.8180   27.9835 O   0  0  0  0  0  0  0  0  0  0  0  0
   16.2505  -17.5763   23.9220 O   0  0  0  0  0  0  0  0  0  0  0  0
   10.1994  -17.6295   26.6767 O   0  0  0  0  0  0  0  0  0  0  0  0
  2 10  1  0
  2  1  1  1
  3  2  1  0
  3  4  1  0
  4  5  2  0
  4  9  1  0
  5  6  1  0
  6  7  2  0
  8  7  1  0
  9  8  2  0
 10 11  2  0
 12 10  1  0
 12 13  1  0
 13 14  1  6
 14 15  1  0
 16 15  1  0
 16 20  1  0
 17 16  2  0
 18 13  1  0
 18 19  2  0
 21 18  1  0
 22 21  1  0
 22 27  1  0
 22 23  1  6
 24 23  1  0
 25 24  1  0
 26 25  2  0
 27 30  1  0
 28 27  2  0
 29 25  1  0
M  END
$$$$
