FEE.pdb
     RDKit          3D

 30 30  0  0  1  0  0  0  0  0999 V2000
    6.0593  -16.7117   25.0859 N   0  0  0  0  0  0  0  0  0  0  0  0
    7.0637  -15.7777   24.6223 C   0  0  1  0  0  0  0  0  0  0  0  0
    7.6207  -15.1011   25.8587 C   0  0  0  0  0  0  0  0  0  0  0  0
    7.1504  -13.7203   26.0091 C   0  0  0  0  0  0  0  0  0  0  0  0
    7.9633  -12.6973   25.5677 C   0  0  0  0  0  0  0  0  0  0  0  0
    7.6253  -11.3731   25.6586 C   0  0  0  0  0  0  0  0  0  0  0  0
    6.4160  -11.0519   26.2177 C   0  0  0  0  0  0  0  0  0  0  0  0
    5.5732  -12.0607   26.6726 C   0  0  0  0  0  0  0  0  0  0  0  0
    5.9333  -13.3881   26.5713 C   0  0  0  0  0  0  0  0  0  0  0  0
    8.1696  -16.5422   24.0101 C   0  0  0  0  0  0  0  0  0  0  0  0
    8.4529  -17.6627   24.4845 O   0  0  0  0  0  0  0  0  0  0  0  0
    8.8920  -16.0118   22.9062 N   0  0  0  0  0  0  0  0  0  0  0  0
   10.0365  -16.7015   22.4014 C   0  0  1  0  0  0  0  0  0  0  0  0
   10.4226  -16.1005   21.0696 C   0  0  0  0  0  0  0  0  0  0  0  0
   11.6447  -16.7733   20.4842 C   0  0  0  0  0  0  0  0  0  0  0  0
   11.2555  -17.9872   19.7306 C   0  0  0  0  0  0  0  0  0  0  0  0
   11.5854  -19.1082   20.1918 O   0  0  0  0  0  0  0  0  0  0  0  0
   11.1802  -16.6458   23.3473 C   0  0  0  0  0  0  0  0  0  0  0  0
   11.7919  -15.5658   23.5370 O   0  0  0  0  0  0  0  0  0  0  0  0
   10.5485  -17.9544   18.5464 O   0  0  0  0  0  0  0  0  0  0  0  0
   11.6076  -17.7833   24.0497 N   0  0  0  0  0  0  0  0  0  0  0  0
   12.7330  -17.7679   24.9998 C   0  0  1  0  0  0  0  0  0  0  0  0
   12.2443  -17.8690   26.3795 C   0  0  0  0  0  0  0  0  0  0  0  0
   11.6531  -19.1620   26.7793 C   0  0  0  0  0  0  0  0  0  0  0  0
   11.3463  -19.2313   28.2243 C   0  0  0  0  0  0  0  0  0  0  0  0
   11.6725  -18.3047   29.0359 O   0  0  0  0  0  0  0  0  0  0  0  0
   13.8082  -18.6220   24.5840 C   0  0  0  0  0  0  0  0  0  0  0  0
   13.8171  -19.4334   23.6220 O   0  0  0  0  0  0  0  0  0  0  0  0
   10.6678  -20.3199   28.8076 O   0  0  0  0  0  0  0  0  0  0  0  0
   15.0111  -18.5610   25.3309 O   0  0  0  0  0  0  0  0  0  0  0  0
  2 10  1  0
  2  1  1  1
  3  2  1  0
  3  4  1  0
  4  5  2  0
  4  9  1  0
  5  6  1  0
  6  7  2  0
  8  7  1  0
  9  8  2  0
 10 11  2  0
 12 10  1  0
 12 13  1  0
 13 14  1  6
 14 15  1  0
 16 15  1  0
 16 20  1  0
 17 16  2  0
 18 13  1  0
 18 19  2  0
 21 18  1  0
 22 21  1  0
 22 27  1  0
 22 23  1  1
 24 23  1  0
 25 24  1  0
 26 25  2  0
 27 30  1  0
 28 27  2  0
 29 25  1  0
M  END
$$$$
