FEE.pdb
     RDKit          3D

 30 30  0  0  1  0  0  0  0  0999 V2000
    6.6397  -16.2724   26.1671 N   0  0  0  0  0  0  0  0  0  0  0  0
    6.9410  -15.6024   24.9195 C   0  0  1  0  0  0  0  0  0  0  0  0
    7.8251  -14.4227   25.2712 C   0  0  0  0  0  0  0  0  0  0  0  0
    7.1288  -13.4131   26.0752 C   0  0  0  0  0  0  0  0  0  0  0  0
    6.2034  -12.6013   25.4533 C   0  0  0  0  0  0  0  0  0  0  0  0
    5.4962  -11.6266   26.1059 C   0  0  0  0  0  0  0  0  0  0  0  0
    5.7227  -11.4520   27.4462 C   0  0  0  0  0  0  0  0  0  0  0  0
    6.6497  -12.2548   28.1027 C   0  0  0  0  0  0  0  0  0  0  0  0
    7.3510  -13.2307   27.4261 C   0  0  0  0  0  0  0  0  0  0  0  0
    7.7456  -16.5128   24.0793 C   0  0  0  0  0  0  0  0  0  0  0  0
    8.3370  -17.4652   24.6308 O   0  0  0  0  0  0  0  0  0  0  0  0
    7.8418  -16.3069   22.6757 N   0  0  0  0  0  0  0  0  0  0  0  0
    8.9233  -16.8812   21.9401 C   0  0  1  0  0  0  0  0  0  0  0  0
    8.6919  -16.6463   20.4653 C   0  0  0  0  0  0  0  0  0  0  0  0
    8.3639  -15.1986   20.1729 C   0  0  0  0  0  0  0  0  0  0  0  0
    8.3199  -14.9634   18.7116 C   0  0  0  0  0  0  0  0  0  0  0  0
    7.1985  -14.9192   18.1469 O   0  0  0  0  0  0  0  0  0  0  0  0
   10.2355  -16.3231   22.3553 C   0  0  0  0  0  0  0  0  0  0  0  0
   10.3037  -15.1739   22.8566 O   0  0  0  0  0  0  0  0  0  0  0  0
    9.4461  -14.7897   17.9340 O   0  0  0  0  0  0  0  0  0  0  0  0
   11.4247  -17.0526   22.2026 N   0  0  0  0  0  0  0  0  0  0  0  0
   12.2878  -17.4325   23.3340 C   0  0  1  0  0  0  0  0  0  0  0  0
   11.4825  -17.9506   24.4456 C   0  0  0  0  0  0  0  0  0  0  0  0
   11.7547  -17.3823   25.7814 C   0  0  0  0  0  0  0  0  0  0  0  0
   11.4327  -18.3179   26.8804 C   0  0  0  0  0  0  0  0  0  0  0  0
   11.6113  -19.5755   26.7797 O   0  0  0  0  0  0  0  0  0  0  0  0
   13.4418  -18.1740   22.9134 C   0  0  0  0  0  0  0  0  0  0  0  0
   13.5145  -19.0220   21.9863 O   0  0  0  0  0  0  0  0  0  0  0  0
   10.9122  -17.8893   28.1177 O   0  0  0  0  0  0  0  0  0  0  0  0
   14.6532  -17.9394   23.6107 O   0  0  0  0  0  0  0  0  0  0  0  0
  2 10  1  0
  2  1  1  1
  3  2  1  0
  3  4  1  0
  4  5  2  0
  4  9  1  0
  5  6  1  0
  6  7  2  0
  8  7  1  0
  9  8  2  0
 10 11  2  0
 12 10  1  0
 12 13  1  0
 13 14  1  6
 14 15  1  0
 16 15  1  0
 16 20  1  0
 17 16  2  0
 18 13  1  0
 18 19  2  0
 21 18  1  0
 22 21  1  0
 22 27  1  0
 22 23  1  1
 24 23  1  0
 25 24  1  0
 26 25  2  0
 27 30  1  0
 28 27  2  0
 29 25  1  0
M  END
$$$$
