FEE.pdb
     RDKit          3D

 30 30  0  0  1  0  0  0  0  0999 V2000
    5.5837  -17.7366   25.2064 N   0  0  0  0  0  0  0  0  0  0  0  0
    6.4448  -16.6039   24.9384 C   0  0  1  0  0  0  0  0  0  0  0  0
    6.8304  -16.0321   26.2879 C   0  0  0  0  0  0  0  0  0  0  0  0
    7.0463  -14.5822   26.2477 C   0  0  0  0  0  0  0  0  0  0  0  0
    5.9485  -13.7576   26.1163 C   0  0  0  0  0  0  0  0  0  0  0  0
    6.0333  -12.3915   26.0674 C   0  0  0  0  0  0  0  0  0  0  0  0
    7.2749  -11.8178   26.1540 C   0  0  0  0  0  0  0  0  0  0  0  0
    8.4020  -12.6220   26.2872 C   0  0  0  0  0  0  0  0  0  0  0  0
    8.2939  -13.9960   26.3343 C   0  0  0  0  0  0  0  0  0  0  0  0
    7.6851  -17.0959   24.3046 C   0  0  0  0  0  0  0  0  0  0  0  0
    8.2702  -18.0722   24.8198 O   0  0  0  0  0  0  0  0  0  0  0  0
    8.1978  -16.4703   23.1352 N   0  0  0  0  0  0  0  0  0  0  0  0
    9.4314  -16.9140   22.5679 C   0  0  1  0  0  0  0  0  0  0  0  0
    9.5456  -16.3746   21.1608 C   0  0  0  0  0  0  0  0  0  0  0  0
   10.8318  -16.8120   20.4954 C   0  0  0  0  0  0  0  0  0  0  0  0
   10.8773  -16.3349   19.0942 C   0  0  0  0  0  0  0  0  0  0  0  0
   10.6799  -17.1662   18.1733 O   0  0  0  0  0  0  0  0  0  0  0  0
   10.6001  -16.4928   23.3820 C   0  0  0  0  0  0  0  0  0  0  0  0
   10.8228  -15.2739   23.5853 O   0  0  0  0  0  0  0  0  0  0  0  0
   11.1254  -15.0239   18.7439 O   0  0  0  0  0  0  0  0  0  0  0  0
   11.4807  -17.4312   23.9421 N   0  0  0  0  0  0  0  0  0  0  0  0
   12.6628  -17.0534   24.7354 C   0  0  1  0  0  0  0  0  0  0  0  0
   12.4899  -17.4478   26.1380 C   0  0  0  0  0  0  0  0  0  0  0  0
   12.1720  -18.8676   26.3921 C   0  0  0  0  0  0  0  0  0  0  0  0
   12.1953  -19.2133   27.8297 C   0  0  0  0  0  0  0  0  0  0  0  0
   12.5524  -18.3806   28.7256 O   0  0  0  0  0  0  0  0  0  0  0  0
   13.8916  -17.3829   24.0722 C   0  0  0  0  0  0  0  0  0  0  0  0
   14.0394  -18.0500   23.0153 O   0  0  0  0  0  0  0  0  0  0  0  0
   11.8199  -20.4821   28.3142 O   0  0  0  0  0  0  0  0  0  0  0  0
   15.0923  -16.9119   24.6594 O   0  0  0  0  0  0  0  0  0  0  0  0
  2 10  1  0
  2  1  1  1
  3  2  1  0
  3  4  1  0
  4  5  2  0
  4  9  1  0
  5  6  1  0
  6  7  2  0
  8  7  1  0
  9  8  2  0
 10 11  2  0
 12 10  1  0
 12 13  1  0
 13 14  1  6
 14 15  1  0
 16 15  1  0
 16 20  1  0
 17 16  2  0
 18 13  1  0
 18 19  2  0
 21 18  1  0
 22 21  1  0
 22 27  1  0
 22 23  1  1
 24 23  1  0
 25 24  1  0
 26 25  2  0
 27 30  1  0
 28 27  2  0
 29 25  1  0
M  END
$$$$
