FEE.pdb
     RDKit          3D

 30 30  0  0  1  0  0  0  0  0999 V2000
    6.8222  -15.3083   20.9442 N   0  0  0  0  0  0  0  0  0  0  0  0
    7.3744  -14.6324   22.0993 C   0  0  1  0  0  0  0  0  0  0  0  0
    6.2244  -14.4294   23.0654 C   0  0  0  0  0  0  0  0  0  0  0  0
    6.6452  -13.8038   24.3232 C   0  0  0  0  0  0  0  0  0  0  0  0
    6.3071  -14.4207   25.5095 C   0  0  0  0  0  0  0  0  0  0  0  0
    6.6470  -13.9255   26.7404 C   0  0  0  0  0  0  0  0  0  0  0  0
    7.3601  -12.7563   26.7919 C   0  0  0  0  0  0  0  0  0  0  0  0
    7.7166  -12.1097   25.6131 C   0  0  0  0  0  0  0  0  0  0  0  0
    7.3639  -12.6259   24.3839 C   0  0  0  0  0  0  0  0  0  0  0  0
    8.3394  -15.5372   22.7568 C   0  0  0  0  0  0  0  0  0  0  0  0
    7.9518  -16.6751   23.0973 O   0  0  0  0  0  0  0  0  0  0  0  0
    9.6775  -15.1193   22.9942 N   0  0  0  0  0  0  0  0  0  0  0  0
   10.6524  -16.0606   23.4459 C   0  0  1  0  0  0  0  0  0  0  0  0
   12.0293  -15.5477   23.0925 C   0  0  0  0  0  0  0  0  0  0  0  0
   13.1091  -16.5412   23.4606 C   0  0  0  0  0  0  0  0  0  0  0  0
   14.4322  -16.0610   23.0003 C   0  0  0  0  0  0  0  0  0  0  0  0
   14.8239  -16.3958   21.8546 O   0  0  0  0  0  0  0  0  0  0  0  0
   10.5497  -16.3085   24.9067 C   0  0  0  0  0  0  0  0  0  0  0  0
   10.5461  -15.3458   25.7127 O   0  0  0  0  0  0  0  0  0  0  0  0
   15.2605  -15.2638   23.7629 O   0  0  0  0  0  0  0  0  0  0  0  0
   10.4546  -17.6092   25.4254 N   0  0  0  0  0  0  0  0  0  0  0  0
   10.3192  -17.8951   26.8639 C   0  0  1  0  0  0  0  0  0  0  0  0
    9.2868  -18.9122   27.0925 C   0  0  0  0  0  0  0  0  0  0  0  0
    9.1153  -19.3806   28.4827 C   0  0  0  0  0  0  0  0  0  0  0  0
    8.3521  -20.6439   28.5733 C   0  0  0  0  0  0  0  0  0  0  0  0
    7.7363  -21.1419   27.5751 O   0  0  0  0  0  0  0  0  0  0  0  0
   11.5908  -18.0446   27.5113 C   0  0  0  0  0  0  0  0  0  0  0  0
   11.8717  -17.8130   28.7161 O   0  0  0  0  0  0  0  0  0  0  0  0
    8.2547  -21.3912   29.7641 O   0  0  0  0  0  0  0  0  0  0  0  0
   12.6716  -18.5062   26.7194 O   0  0  0  0  0  0  0  0  0  0  0  0
  2 10  1  0
  2  1  1  6
  3  2  1  0
  3  4  1  0
  4  5  2  0
  4  9  1  0
  5  6  1  0
  6  7  2  0
  8  7  1  0
  9  8  2  0
 10 11  2  0
 12 10  1  0
 12 13  1  0
 13 14  1  1
 14 15  1  0
 16 15  1  0
 16 20  1  0
 17 16  2  0
 18 13  1  0
 18 19  2  0
 21 18  1  0
 22 21  1  0
 22 27  1  0
 22 23  1  6
 24 23  1  0
 25 24  1  0
 26 25  2  0
 27 30  1  0
 28 27  2  0
 29 25  1  0
M  END
$$$$
