FEE.pdb
     RDKit          3D

 30 30  0  0  1  0  0  0  0  0999 V2000
    6.1655  -16.3634   25.6916 N   0  0  0  0  0  0  0  0  0  0  0  0
    7.1619  -15.7328   24.8514 C   0  0  1  0  0  0  0  0  0  0  0  0
    8.0280  -14.8956   25.7711 C   0  0  0  0  0  0  0  0  0  0  0  0
    7.4150  -13.6070   26.1086 C   0  0  0  0  0  0  0  0  0  0  0  0
    7.6847  -12.5199   25.3037 C   0  0  0  0  0  0  0  0  0  0  0  0
    7.1675  -11.2711   25.5250 C   0  0  0  0  0  0  0  0  0  0  0  0
    6.3396  -11.0966   26.6031 C   0  0  0  0  0  0  0  0  0  0  0  0
    6.0479  -12.1732   27.4342 C   0  0  0  0  0  0  0  0  0  0  0  0
    6.5796  -13.4226   27.1929 C   0  0  0  0  0  0  0  0  0  0  0  0
    8.0269  -16.7841   24.2781 C   0  0  0  0  0  0  0  0  0  0  0  0
    8.2112  -17.8289   24.9379 O   0  0  0  0  0  0  0  0  0  0  0  0
    8.6333  -16.6075   23.0042 N   0  0  0  0  0  0  0  0  0  0  0  0
    9.4122  -17.6584   22.4300 C   0  0  1  0  0  0  0  0  0  0  0  0
    9.2774  -17.6021   20.9258 C   0  0  0  0  0  0  0  0  0  0  0  0
   10.0820  -18.6903   20.2497 C   0  0  0  0  0  0  0  0  0  0  0  0
    9.9176  -18.6175   18.7799 C   0  0  0  0  0  0  0  0  0  0  0  0
    9.2710  -19.5285   18.2051 O   0  0  0  0  0  0  0  0  0  0  0  0
   10.8407  -17.5714   22.8270 C   0  0  0  0  0  0  0  0  0  0  0  0
   11.5989  -16.7331   22.2804 O   0  0  0  0  0  0  0  0  0  0  0  0
   10.4371  -17.6013   18.0049 O   0  0  0  0  0  0  0  0  0  0  0  0
   11.3809  -18.4121   23.8125 N   0  0  0  0  0  0  0  0  0  0  0  0
   12.8073  -18.4104   24.1794 C   0  0  1  0  0  0  0  0  0  0  0  0
   13.5564  -17.4753   23.3325 C   0  0  0  0  0  0  0  0  0  0  0  0
   13.7538  -16.1121   23.8654 C   0  0  0  0  0  0  0  0  0  0  0  0
   15.0852  -15.5558   23.5419 C   0  0  0  0  0  0  0  0  0  0  0  0
   16.0683  -15.6261   24.3495 O   0  0  0  0  0  0  0  0  0  0  0  0
   13.0041  -18.3645   25.5999 C   0  0  0  0  0  0  0  0  0  0  0  0
   14.0839  -18.5042   26.2310 O   0  0  0  0  0  0  0  0  0  0  0  0
   15.3662  -14.9148   22.3189 O   0  0  0  0  0  0  0  0  0  0  0  0
   11.8610  -18.1363   26.4060 O   0  0  0  0  0  0  0  0  0  0  0  0
  2 10  1  0
  2  1  1  1
  3  2  1  0
  3  4  1  0
  4  5  2  0
  4  9  1  0
  5  6  1  0
  6  7  2  0
  8  7  1  0
  9  8  2  0
 10 11  2  0
 12 10  1  0
 12 13  1  0
 13 14  1  6
 14 15  1  0
 16 15  1  0
 16 20  1  0
 17 16  2  0
 18 13  1  0
 18 19  2  0
 21 18  1  0
 22 21  1  0
 22 27  1  0
 22 23  1  6
 24 23  1  0
 25 24  1  0
 26 25  2  0
 27 30  1  0
 28 27  2  0
 29 25  1  0
M  END
$$$$
