NQY.pdb
     RDKit          3D

 30 30  0  0  1  0  0  0  0  0999 V2000
   25.6100  -36.6167   -7.1362 N   0  0  0  0  0  0  0  0  0  0  0  0
   26.6821  -35.6983   -6.9467 C   0  0  0  0  0  0  0  0  0  0  0  0
   27.8376  -36.1322   -7.1039 O   0  0  0  0  0  0  0  0  0  0  0  0
   26.4268  -34.2930   -6.5796 C   0  0  0  0  0  0  0  0  0  0  0  0
   24.9395  -34.0680   -6.5209 C   0  0  2  0  0  0  0  0  0  0  0  0
   24.4081  -33.8467   -7.8285 N   0  0  0  0  0  0  0  0  0  0  0  0
   24.5773  -33.0041   -5.5480 C   0  0  0  0  0  0  0  0  0  0  0  0
   24.7102  -31.7910   -5.7697 O   0  0  0  0  0  0  0  0  0  0  0  0
   19.4100  -32.3073   -3.1674 N   0  0  0  0  0  0  0  0  0  0  0  0
   20.0270  -33.5815   -3.0707 C   0  0  0  0  0  0  0  0  0  0  0  0
   19.2825  -34.5732   -2.9308 O   0  0  0  0  0  0  0  0  0  0  0  0
   21.4943  -33.7863   -3.1274 C   0  0  0  0  0  0  0  0  0  0  0  0
   22.1702  -32.4626   -3.2284 C   0  0  0  0  0  0  0  0  0  0  0  0
   23.6642  -32.4948   -3.2482 C   0  0  2  0  0  0  0  0  0  0  0  0
   24.0513  -33.4213   -4.3002 N   0  0  0  0  0  0  0  0  0  0  0  0
   24.2735  -32.8849   -1.9480 C   0  0  0  0  0  0  0  0  0  0  0  0
   24.4182  -34.0714   -1.5680 O   0  0  0  0  0  0  0  0  0  0  0  0
   28.5917  -32.2989    5.7977 O   0  0  0  0  0  0  0  0  0  0  0  0
   28.0311  -32.0196    4.5639 C   0  0  0  0  0  0  0  0  0  0  0  0
   26.8109  -31.3655    4.5044 C   0  0  0  0  0  0  0  0  0  0  0  0
   26.2233  -31.0714    3.2811 C   0  0  0  0  0  0  0  0  0  0  0  0
   26.8213  -31.4133    2.0855 C   0  0  0  0  0  0  0  0  0  0  0  0
   26.2594  -31.1356    0.7547 C   0  0  0  0  0  0  0  0  0  0  0  0
   25.3356  -32.2224    0.2579 C   0  0  2  0  0  0  0  0  0  0  0  0
   24.7475  -31.8858   -1.0210 N   0  0  0  0  0  0  0  0  0  0  0  0
   24.3448  -32.6347    1.2538 C   0  0  0  0  0  0  0  0  0  0  0  0
   23.1775  -31.9308    1.4509 O   0  0  0  0  0  0  0  0  0  0  0  0
   28.0364  -32.0644    2.1593 C   0  0  0  0  0  0  0  0  0  0  0  0
   28.6228  -32.3581    3.3667 C   0  0  0  0  0  0  0  0  0  0  0  0
   24.5562  -33.6512    1.9478 O   0  0  0  0  0  0  0  0  0  0  0  0
  1  2  1  0
  2  3  2  0
  4  2  1  0
  4  5  1  0
  5  7  1  0
  5  6  1  6
  7  8  2  0
  9 10  1  0
 10 11  2  0
 12 10  1  0
 12 13  1  0
 14 13  1  1
 15 14  1  0
 15  7  1  0
 16 17  2  0
 16 14  1  0
 18 19  1  0
 19 29  2  0
 20 19  1  0
 20 21  2  0
 21 22  1  0
 22 28  2  0
 22 23  1  0
 24 23  1  1
 24 26  1  0
 24 25  1  0
 25 16  1  0
 26 27  1  0
 29 28  1  0
 30 26  2  0
M  END
$$$$
