NQY.pdb
     RDKit          3D

 30 30  0  0  1  0  0  0  0  0999 V2000
   23.1924  -16.2850  -16.7224 N   0  0  0  0  0  0  0  0  0  0  0  0
   23.7428  -15.6497  -17.8722 C   0  0  0  0  0  0  0  0  0  0  0  0
   24.5000  -16.3282  -18.5895 O   0  0  0  0  0  0  0  0  0  0  0  0
   23.4247  -14.2460  -18.1939 C   0  0  0  0  0  0  0  0  0  0  0  0
   22.3365  -13.7697  -17.2692 C   0  0  2  0  0  0  0  0  0  0  0  0
   21.5133  -14.8598  -16.8508 N   0  0  0  0  0  0  0  0  0  0  0  0
   21.5681  -12.6390  -17.8529 C   0  0  0  0  0  0  0  0  0  0  0  0
   20.8005  -12.7521  -18.8207 O   0  0  0  0  0  0  0  0  0  0  0  0
   16.8413  -10.7059  -17.0602 N   0  0  0  0  0  0  0  0  0  0  0  0
   17.6810  -10.5881  -15.9223 C   0  0  0  0  0  0  0  0  0  0  0  0
   17.1343  -10.5842  -14.8006 O   0  0  0  0  0  0  0  0  0  0  0  0
   19.1568  -10.4711  -16.0034 C   0  0  0  0  0  0  0  0  0  0  0  0
   19.5675  -10.4339  -17.4349 C   0  0  0  0  0  0  0  0  0  0  0  0
   21.0178  -10.1788  -17.6893 C   0  0  2  0  0  0  0  0  0  0  0  0
   21.7365  -11.3658  -17.2542 N   0  0  0  0  0  0  0  0  0  0  0  0
   21.5418   -8.9633  -17.0095 C   0  0  0  0  0  0  0  0  0  0  0  0
   21.9778   -8.9491  -15.8336 O   0  0  0  0  0  0  0  0  0  0  0  0
   24.0937   -0.5420  -15.6941 O   0  0  0  0  0  0  0  0  0  0  0  0
   23.6455   -1.7179  -16.2694 C   0  0  0  0  0  0  0  0  0  0  0  0
   24.5679   -2.6380  -16.7414 C   0  0  0  0  0  0  0  0  0  0  0  0
   24.1487   -3.8269  -17.3237 C   0  0  0  0  0  0  0  0  0  0  0  0
   22.8115   -4.1406  -17.4562 C   0  0  0  0  0  0  0  0  0  0  0  0
   22.2940   -5.3775  -18.0612 C   0  0  0  0  0  0  0  0  0  0  0  0
   22.0597   -6.4809  -17.0567 C   0  0  2  0  0  0  0  0  0  0  0  0
   21.5783   -7.6907  -17.6887 N   0  0  0  0  0  0  0  0  0  0  0  0
   21.2358   -6.0600  -15.9219 C   0  0  0  0  0  0  0  0  0  0  0  0
   21.7936   -5.5653  -14.7640 O   0  0  0  0  0  0  0  0  0  0  0  0
   21.9035   -3.2152  -16.9818 C   0  0  0  0  0  0  0  0  0  0  0  0
   22.3122   -2.0371  -16.4047 C   0  0  0  0  0  0  0  0  0  0  0  0
   19.9924   -6.1489  -15.9979 O   0  0  0  0  0  0  0  0  0  0  0  0
  1  2  1  0
  2  3  2  0
  4  2  1  0
  4  5  1  0
  5  7  1  0
  5  6  1  6
  7  8  2  0
  9 10  1  0
 10 11  2  0
 12 10  1  0
 12 13  1  0
 14 13  1  1
 15 14  1  0
 15  7  1  0
 16 17  2  0
 16 14  1  0
 18 19  1  0
 19 29  2  0
 20 19  1  0
 20 21  2  0
 21 22  1  0
 22 28  2  0
 22 23  1  0
 24 23  1  6
 24 26  1  0
 24 25  1  0
 25 16  1  0
 26 27  1  0
 29 28  1  0
 30 26  2  0
M  END
$$$$
