NQY.pdb
     RDKit          3D

 30 30  0  0  1  0  0  0  0  0999 V2000
   28.6155  -22.0280  -17.6276 N   0  0  0  0  0  0  0  0  0  0  0  0
   28.7746  -20.6185  -17.4983 C   0  0  0  0  0  0  0  0  0  0  0  0
   29.6320  -20.0743  -18.2173 O   0  0  0  0  0  0  0  0  0  0  0  0
   27.9543  -19.8420  -16.5501 C   0  0  0  0  0  0  0  0  0  0  0  0
   27.0863  -20.7908  -15.7675 C   0  0  2  0  0  0  0  0  0  0  0  0
   26.0624  -21.3429  -16.5969 N   0  0  0  0  0  0  0  0  0  0  0  0
   26.5660  -20.1678  -14.5221 C   0  0  0  0  0  0  0  0  0  0  0  0
   26.5758  -18.9467  -14.3044 O   0  0  0  0  0  0  0  0  0  0  0  0
   21.3377  -22.1790  -13.0678 N   0  0  0  0  0  0  0  0  0  0  0  0
   21.5414  -21.3559  -11.9300 C   0  0  0  0  0  0  0  0  0  0  0  0
   20.5614  -21.1489  -11.1856 O   0  0  0  0  0  0  0  0  0  0  0  0
   22.8459  -20.7392  -11.5895 C   0  0  0  0  0  0  0  0  0  0  0  0
   23.8550  -21.1305  -12.6132 C   0  0  0  0  0  0  0  0  0  0  0  0
   25.2288  -20.5756  -12.4180 C   0  0  2  0  0  0  0  0  0  0  0  0
   26.0323  -21.0372  -13.5387 N   0  0  0  0  0  0  0  0  0  0  0  0
   25.8536  -20.9613  -11.1238 C   0  0  0  0  0  0  0  0  0  0  0  0
   26.2278  -22.1252  -10.8438 O   0  0  0  0  0  0  0  0  0  0  0  0
   29.6161  -20.2191   -3.0862 O   0  0  0  0  0  0  0  0  0  0  0  0
   29.1024  -19.9692   -4.3465 C   0  0  0  0  0  0  0  0  0  0  0  0
   29.5617  -20.7070   -5.4259 C   0  0  0  0  0  0  0  0  0  0  0  0
   29.0653  -20.4793   -6.7026 C   0  0  0  0  0  0  0  0  0  0  0  0
   28.1046  -19.5202   -6.9496 C   0  0  0  0  0  0  0  0  0  0  0  0
   27.5335  -19.2233   -8.2723 C   0  0  0  0  0  0  0  0  0  0  0  0
   26.6440  -20.3244   -8.7995 C   0  0  2  0  0  0  0  0  0  0  0  0
   26.0707  -19.9844  -10.0842 N   0  0  0  0  0  0  0  0  0  0  0  0
   25.6457  -20.7725   -7.8268 C   0  0  0  0  0  0  0  0  0  0  0  0
   25.9664  -21.6362   -6.8030 O   0  0  0  0  0  0  0  0  0  0  0  0
   27.6559  -18.7926   -5.8655 C   0  0  0  0  0  0  0  0  0  0  0  0
   28.1433  -19.0133   -4.5999 C   0  0  0  0  0  0  0  0  0  0  0  0
   24.4689  -20.3652   -7.9208 O   0  0  0  0  0  0  0  0  0  0  0  0
  1  2  1  0
  2  3  2  0
  4  2  1  0
  4  5  1  0
  5  7  1  0
  5  6  1  6
  7  8  2  0
  9 10  1  0
 10 11  2  0
 12 10  1  0
 12 13  1  0
 14 13  1  6
 15 14  1  0
 15  7  1  0
 16 17  2  0
 16 14  1  0
 18 19  1  0
 19 29  2  0
 20 19  1  0
 20 21  2  0
 21 22  1  0
 22 28  2  0
 22 23  1  0
 24 23  1  1
 24 26  1  0
 24 25  1  0
 25 16  1  0
 26 27  1  0
 29 28  1  0
 30 26  2  0
M  END
$$$$
