NQY.pdb
     RDKit          3D

 30 30  0  0  1  0  0  0  0  0999 V2000
   22.8896  -19.7412   -8.3070 N   0  0  0  0  0  0  0  0  0  0  0  0
   22.4499  -20.2715   -9.5536 C   0  0  0  0  0  0  0  0  0  0  0  0
   21.5038  -21.0792   -9.5264 O   0  0  0  0  0  0  0  0  0  0  0  0
   23.0932  -19.8759  -10.8203 C   0  0  0  0  0  0  0  0  0  0  0  0
   23.8967  -21.0374  -11.3413 C   0  0  2  0  0  0  0  0  0  0  0  0
   24.8665  -21.4553  -10.3789 N   0  0  0  0  0  0  0  0  0  0  0  0
   24.4768  -20.7545  -12.6803 C   0  0  0  0  0  0  0  0  0  0  0  0
   25.2812  -19.8373  -12.9048 O   0  0  0  0  0  0  0  0  0  0  0  0
   26.7843  -25.1050  -15.7310 N   0  0  0  0  0  0  0  0  0  0  0  0
   26.8299  -24.1062  -16.7379 C   0  0  0  0  0  0  0  0  0  0  0  0
   27.5673  -24.3141  -17.7229 O   0  0  0  0  0  0  0  0  0  0  0  0
   26.0530  -22.8450  -16.6748 C   0  0  0  0  0  0  0  0  0  0  0  0
   25.3688  -22.7565  -15.3545 C   0  0  0  0  0  0  0  0  0  0  0  0
   24.6207  -21.4895  -15.0930 C   0  0  2  0  0  0  0  0  0  0  0  0
   24.0744  -21.5930  -13.7493 N   0  0  0  0  0  0  0  0  0  0  0  0
   23.5446  -21.2126  -16.0826 C   0  0  0  0  0  0  0  0  0  0  0  0
   22.3833  -21.6805  -16.0068 O   0  0  0  0  0  0  0  0  0  0  0  0
   19.1873  -18.8620  -12.8855 O   0  0  0  0  0  0  0  0  0  0  0  0
   19.9088  -18.8050  -14.0648 C   0  0  0  0  0  0  0  0  0  0  0  0
   19.3488  -19.3066  -15.2289 C   0  0  0  0  0  0  0  0  0  0  0  0
   20.0483  -19.2635  -16.4278 C   0  0  0  0  0  0  0  0  0  0  0  0
   21.3162  -18.7257  -16.5116 C   0  0  0  0  0  0  0  0  0  0  0  0
   22.1160  -18.6464  -17.7436 C   0  0  0  0  0  0  0  0  0  0  0  0
   22.7371  -19.9655  -18.1382 C   0  0  2  0  0  0  0  0  0  0  0  0
   23.7858  -20.3618  -17.2228 N   0  0  0  0  0  0  0  0  0  0  0  0
   23.1543  -20.0078  -19.5410 C   0  0  0  0  0  0  0  0  0  0  0  0
   22.2610  -19.8093  -20.5702 O   0  0  0  0  0  0  0  0  0  0  0  0
   21.8620  -18.2296  -15.3446 C   0  0  0  0  0  0  0  0  0  0  0  0
   21.1749  -18.2695  -14.1554 C   0  0  0  0  0  0  0  0  0  0  0  0
   24.3512  -20.2296  -19.8205 O   0  0  0  0  0  0  0  0  0  0  0  0
  1  2  1  0
  2  3  2  0
  4  2  1  0
  4  5  1  0
  5  7  1  0
  5  6  1  1
  7  8  2  0
  9 10  1  0
 10 11  2  0
 12 10  1  0
 12 13  1  0
 14 13  1  6
 15 14  1  0
 15  7  1  0
 16 17  2  0
 16 14  1  0
 18 19  1  0
 19 29  2  0
 20 19  1  0
 20 21  2  0
 21 22  1  0
 22 28  2  0
 22 23  1  0
 24 23  1  1
 24 26  1  0
 24 25  1  0
 25 16  1  0
 26 27  1  0
 29 28  1  0
 30 26  2  0
M  END
$$$$
