NQY.pdb
     RDKit          3D

 30 30  0  0  1  0  0  0  0  0999 V2000
   22.6027  -23.4330  -11.7271 N   0  0  0  0  0  0  0  0  0  0  0  0
   22.2315  -22.1315  -11.2832 C   0  0  0  0  0  0  0  0  0  0  0  0
   21.0646  -21.9793  -10.8791 O   0  0  0  0  0  0  0  0  0  0  0  0
   23.1947  -21.0148  -11.3042 C   0  0  0  0  0  0  0  0  0  0  0  0
   24.4933  -21.5035  -11.8882 C   0  0  2  0  0  0  0  0  0  0  0  0
   25.2662  -22.1902  -10.9021 N   0  0  0  0  0  0  0  0  0  0  0  0
   25.2395  -20.4138  -12.5705 C   0  0  0  0  0  0  0  0  0  0  0  0
   25.5945  -19.3648  -12.0118 O   0  0  0  0  0  0  0  0  0  0  0  0
   28.8668  -21.9956  -17.2046 N   0  0  0  0  0  0  0  0  0  0  0  0
   28.8707  -20.5878  -17.3827 C   0  0  0  0  0  0  0  0  0  0  0  0
   29.6428  -20.1180  -18.2432 O   0  0  0  0  0  0  0  0  0  0  0  0
   28.0124  -19.6625  -16.6048 C   0  0  0  0  0  0  0  0  0  0  0  0
   27.1756  -20.4503  -15.6571 C   0  0  0  0  0  0  0  0  0  0  0  0
   26.3289  -19.6526  -14.7189 C   0  0  2  0  0  0  0  0  0  0  0  0
   25.5538  -20.6043  -13.9389 N   0  0  0  0  0  0  0  0  0  0  0  0
   25.4375  -18.6744  -15.3990 C   0  0  0  0  0  0  0  0  0  0  0  0
   24.4405  -18.9946  -16.0895 O   0  0  0  0  0  0  0  0  0  0  0  0
   22.0003  -10.8921  -18.0274 O   0  0  0  0  0  0  0  0  0  0  0  0
   22.7451  -11.8658  -17.3858 C   0  0  0  0  0  0  0  0  0  0  0  0
   22.1575  -12.6197  -16.3825 C   0  0  0  0  0  0  0  0  0  0  0  0
   22.8793  -13.6041  -15.7204 C   0  0  0  0  0  0  0  0  0  0  0  0
   24.1973  -13.8715  -16.0288 C   0  0  0  0  0  0  0  0  0  0  0  0
   25.0234  -14.8960  -15.3715 C   0  0  0  0  0  0  0  0  0  0  0  0
   24.8555  -16.2727  -15.9698 C   0  0  2  0  0  0  0  0  0  0  0  0
   25.6790  -17.2554  -15.2982 N   0  0  0  0  0  0  0  0  0  0  0  0
   25.0138  -16.2903  -17.4252 C   0  0  0  0  0  0  0  0  0  0  0  0
   23.9320  -16.2108  -18.2739 O   0  0  0  0  0  0  0  0  0  0  0  0
   24.7703  -13.1133  -17.0301 C   0  0  0  0  0  0  0  0  0  0  0  0
   24.0612  -12.1379  -17.6888 C   0  0  0  0  0  0  0  0  0  0  0  0
   26.1575  -16.3798  -17.9187 O   0  0  0  0  0  0  0  0  0  0  0  0
  1  2  1  0
  2  3  2  0
  4  2  1  0
  4  5  1  0
  5  7  1  0
  5  6  1  1
  7  8  2  0
  9 10  1  0
 10 11  2  0
 12 10  1  0
 12 13  1  0
 14 13  1  6
 15 14  1  0
 15  7  1  0
 16 17  2  0
 16 14  1  0
 18 19  1  0
 19 29  2  0
 20 19  1  0
 20 21  2  0
 21 22  1  0
 22 28  2  0
 22 23  1  0
 24 23  1  1
 24 26  1  0
 24 25  1  0
 25 16  1  0
 26 27  1  0
 29 28  1  0
 30 26  2  0
M  END
$$$$
