NQY.pdb
     RDKit          3D

 30 30  0  0  1  0  0  0  0  0999 V2000
   18.8231  -16.4113  -14.4751 N   0  0  0  0  0  0  0  0  0  0  0  0
   20.1495  -16.2756  -14.9759 C   0  0  0  0  0  0  0  0  0  0  0  0
   21.0508  -16.8856  -14.3727 O   0  0  0  0  0  0  0  0  0  0  0  0
   20.4364  -15.4454  -16.1606 C   0  0  0  0  0  0  0  0  0  0  0  0
   19.1674  -14.7616  -16.5943 C   0  0  2  0  0  0  0  0  0  0  0  0
   18.2997  -15.6792  -17.2623 N   0  0  0  0  0  0  0  0  0  0  0  0
   19.4415  -13.5294  -17.3792 C   0  0  0  0  0  0  0  0  0  0  0  0
   19.8509  -13.5331  -18.5501 O   0  0  0  0  0  0  0  0  0  0  0  0
   15.7346  -10.2781  -19.6119 N   0  0  0  0  0  0  0  0  0  0  0  0
   15.6430  -10.3764  -18.1992 C   0  0  0  0  0  0  0  0  0  0  0  0
   14.5138  -10.2453  -17.6844 O   0  0  0  0  0  0  0  0  0  0  0  0
   16.8101  -10.6240  -17.3191 C   0  0  0  0  0  0  0  0  0  0  0  0
   18.0245  -10.8203  -18.1592 C   0  0  0  0  0  0  0  0  0  0  0  0
   19.3071  -11.0069  -17.4153 C   0  0  2  0  0  0  0  0  0  0  0  0
   19.2158  -12.2883  -16.7337 N   0  0  0  0  0  0  0  0  0  0  0  0
   19.6062   -9.9140  -16.4509 C   0  0  0  0  0  0  0  0  0  0  0  0
   19.1317   -9.8510  -15.2915 O   0  0  0  0  0  0  0  0  0  0  0  0
   22.0900   -1.7816  -13.7595 O   0  0  0  0  0  0  0  0  0  0  0  0
   21.9847   -2.9760  -14.4502 C   0  0  0  0  0  0  0  0  0  0  0  0
   22.4440   -4.1437  -13.8621 C   0  0  0  0  0  0  0  0  0  0  0  0
   22.3521   -5.3575  -14.5303 C   0  0  0  0  0  0  0  0  0  0  0  0
   21.8060   -5.4531  -15.7938 C   0  0  0  0  0  0  0  0  0  0  0  0
   21.6762   -6.7012  -16.5615 C   0  0  0  0  0  0  0  0  0  0  0  0
   20.6757   -7.6653  -15.9692 C   0  0  2  0  0  0  0  0  0  0  0  0
   20.4884   -8.8296  -16.8083 N   0  0  0  0  0  0  0  0  0  0  0  0
   19.4156   -7.0244  -15.5882 C   0  0  0  0  0  0  0  0  0  0  0  0
   19.1877   -6.5767  -14.3058 O   0  0  0  0  0  0  0  0  0  0  0  0
   21.3524   -4.2823  -16.3679 C   0  0  0  0  0  0  0  0  0  0  0  0
   21.4407   -3.0783  -15.7117 C   0  0  0  0  0  0  0  0  0  0  0  0
   18.5177   -6.8760  -16.4434 O   0  0  0  0  0  0  0  0  0  0  0  0
  1  2  1  0
  2  3  2  0
  4  2  1  0
  4  5  1  0
  5  7  1  0
  5  6  1  6
  7  8  2  0
  9 10  1  0
 10 11  2  0
 12 10  1  0
 12 13  1  0
 14 13  1  1
 15 14  1  0
 15  7  1  0
 16 17  2  0
 16 14  1  0
 18 19  1  0
 19 29  2  0
 20 19  1  0
 20 21  2  0
 21 22  1  0
 22 28  2  0
 22 23  1  0
 24 23  1  6
 24 26  1  0
 24 25  1  0
 25 16  1  0
 26 27  1  0
 29 28  1  0
 30 26  2  0
M  END
$$$$
