NQY.pdb
     RDKit          3D

 30 30  0  0  1  0  0  0  0  0999 V2000
   15.4556  -12.9891  -17.6785 N   0  0  0  0  0  0  0  0  0  0  0  0
   14.4421  -12.7914  -16.6976 C   0  0  0  0  0  0  0  0  0  0  0  0
   13.2600  -12.8355  -17.0836 O   0  0  0  0  0  0  0  0  0  0  0  0
   14.7857  -12.5451  -15.2846 C   0  0  0  0  0  0  0  0  0  0  0  0
   16.2775  -12.6604  -15.1196 C   0  0  2  0  0  0  0  0  0  0  0  0
   16.6683  -14.0276  -14.9814 N   0  0  0  0  0  0  0  0  0  0  0  0
   16.7839  -11.7878  -14.0279 C   0  0  0  0  0  0  0  0  0  0  0  0
   16.6570  -12.0467  -12.8215 O   0  0  0  0  0  0  0  0  0  0  0  0
   20.6330   -7.1844  -15.7289 N   0  0  0  0  0  0  0  0  0  0  0  0
   20.5150   -6.9324  -14.3374 C   0  0  0  0  0  0  0  0  0  0  0  0
   21.1587   -5.9713  -13.8692 O   0  0  0  0  0  0  0  0  0  0  0  0
   19.6744   -7.7465  -13.4270 C   0  0  0  0  0  0  0  0  0  0  0  0
   19.0027   -8.8210  -14.2102 C   0  0  0  0  0  0  0  0  0  0  0  0
   18.0308   -9.6671  -13.4533 C   0  0  2  0  0  0  0  0  0  0  0  0
   17.4473  -10.5951  -14.4089 N   0  0  0  0  0  0  0  0  0  0  0  0
   16.9715   -8.8877  -12.7572 C   0  0  0  0  0  0  0  0  0  0  0  0
   15.9460   -8.4369  -13.3212 O   0  0  0  0  0  0  0  0  0  0  0  0
   11.8070   -5.6179   -6.3582 O   0  0  0  0  0  0  0  0  0  0  0  0
   12.8015   -6.2819   -7.0544 C   0  0  0  0  0  0  0  0  0  0  0  0
   12.4662   -7.3660   -7.8498 C   0  0  0  0  0  0  0  0  0  0  0  0
   13.4420   -8.0524   -8.5604 C   0  0  0  0  0  0  0  0  0  0  0  0
   14.7721   -7.6896   -8.5064 C   0  0  0  0  0  0  0  0  0  0  0  0
   15.8587   -8.3682   -9.2294 C   0  0  0  0  0  0  0  0  0  0  0  0
   16.0603   -7.8454  -10.6321 C   0  0  2  0  0  0  0  0  0  0  0  0
   17.0691   -8.5977  -11.3470 N   0  0  0  0  0  0  0  0  0  0  0  0
   16.2824   -6.3990  -10.6802 C   0  0  0  0  0  0  0  0  0  0  0  0
   15.2356   -5.5052  -10.7281 O   0  0  0  0  0  0  0  0  0  0  0  0
   15.0922   -6.6080   -7.7104 C   0  0  0  0  0  0  0  0  0  0  0  0
   14.1311   -5.9249   -7.0050 C   0  0  0  0  0  0  0  0  0  0  0  0
   17.4498   -5.9553  -10.6783 O   0  0  0  0  0  0  0  0  0  0  0  0
  1  2  1  0
  2  3  2  0
  4  2  1  0
  4  5  1  0
  5  7  1  0
  5  6  1  1
  7  8  2  0
  9 10  1  0
 10 11  2  0
 12 10  1  0
 12 13  1  0
 14 13  1  6
 15 14  1  0
 15  7  1  0
 16 17  2  0
 16 14  1  0
 18 19  1  0
 19 29  2  0
 20 19  1  0
 20 21  2  0
 21 22  1  0
 22 28  2  0
 22 23  1  0
 24 23  1  1
 24 26  1  0
 24 25  1  0
 25 16  1  0
 26 27  1  0
 29 28  1  0
 30 26  2  0
M  END
$$$$
