NQY.pdb
     RDKit          3D

 30 30  0  0  1  0  0  0  0  0999 V2000
-27321.361315518.2725 6351.4678 N   0  0  0  0  0  0  0  0  0  0  0  0
-27321.408215518.8115 6350.1509 C   0  0  0  0  0  0  0  0  0  0  0  0
-27321.705115520.0205 6350.0396 O   0  0  0  0  0  0  0  0  0  0  0  0
-27321.125015517.9775 6348.9697 C   0  0  0  0  0  0  0  0  0  0  0  0
-27321.070315516.5332 6349.3994 C   0  0  2  0  0  0  0  0  0  0  0  0
-27321.675815515.6924 6348.4185 N   0  0  0  0  0  0  0  0  0  0  0  0
-27321.625015516.3408 6350.7637 C   0  0  0  0  0  0  0  0  0  0  0  0
-27322.798815516.0303 6350.9966 O   0  0  0  0  0  0  0  0  0  0  0  0
-27322.326215512.2646 6354.8232 N   0  0  0  0  0  0  0  0  0  0  0  0
-27321.355515512.6562 6353.8574 C   0  0  0  0  0  0  0  0  0  0  0  0
-27321.074215511.8311 6352.9683 O   0  0  0  0  0  0  0  0  0  0  0  0
-27320.701215513.9805 6353.8447 C   0  0  0  0  0  0  0  0  0  0  0  0
-27321.677715515.0156 6353.4087 C   0  0  0  0  0  0  0  0  0  0  0  0
-27321.138715516.4033 6353.2437 C   0  0  2  0  0  0  0  0  0  0  0  0
-27320.734415516.5293 6351.8535 N   0  0  0  0  0  0  0  0  0  0  0  0
-27320.005915516.7080 6354.1592 C   0  0  0  0  0  0  0  0  0  0  0  0
-27319.003915515.9795 6354.3008 O   0  0  0  0  0  0  0  0  0  0  0  0
-27323.644515513.2920 6359.5225 O   0  0  0  0  0  0  0  0  0  0  0  0
-27323.289115514.3350 6358.6831 C   0  0  0  0  0  0  0  0  0  0  0  0
-27322.011715514.8711 6358.7666 C   0  0  0  0  0  0  0  0  0  0  0  0
-27321.623015515.9141 6357.9360 C   0  0  0  0  0  0  0  0  0  0  0  0
-27322.488315516.4531 6357.0015 C   0  0  0  0  0  0  0  0  0  0  0  0
-27322.152315517.5596 6356.0898 C   0  0  0  0  0  0  0  0  0  0  0  0
-27320.722715518.0234 6356.2119 C   0  0  2  0  0  0  0  0  0  0  0  0
-27320.011715517.9141 6354.9556 N   0  0  0  0  0  0  0  0  0  0  0  0
-27320.013715517.3936 6357.3276 C   0  0  0  0  0  0  0  0  0  0  0  0
-27320.054715517.9121 6358.6011 O   0  0  0  0  0  0  0  0  0  0  0  0
-27323.742215515.9121 6356.9307 C   0  0  0  0  0  0  0  0  0  0  0  0
-27324.136715514.8799 6357.7476 C   0  0  0  0  0  0  0  0  0  0  0  0
-27319.334015516.3682 6357.1255 O   0  0  0  0  0  0  0  0  0  0  0  0
  1  2  1  0
  2  3  2  0
  4  2  1  0
  4  5  1  0
  5  7  1  0
  5  6  1  6
  7  8  2  0
  9 10  1  0
 10 11  2  0
 12 10  1  0
 12 13  1  0
 14 13  1  6
 15 14  1  0
 15  7  1  0
 16 17  2  0
 16 14  1  0
 18 19  1  0
 19 29  2  0
 20 19  1  0
 20 21  2  0
 21 22  1  0
 22 28  2  0
 22 23  1  0
 24 23  1  6
 24 26  1  0
 24 25  1  0
 25 16  1  0
 26 27  1  0
 29 28  1  0
 30 26  2  0
M  END
$$$$
