NQY.pdb
     RDKit          3D

 30 30  0  0  1  0  0  0  0  0999 V2000
   18.7095  -22.1656  -16.5993 N   0  0  0  0  0  0  0  0  0  0  0  0
   18.7078  -22.0560  -15.1792 C   0  0  0  0  0  0  0  0  0  0  0  0
   17.9830  -21.1782  -14.6770 O   0  0  0  0  0  0  0  0  0  0  0  0
   19.5331  -22.9487  -14.3443 C   0  0  0  0  0  0  0  0  0  0  0  0
   20.2627  -23.9147  -15.2390 C   0  0  2  0  0  0  0  0  0  0  0  0
   19.5734  -25.1644  -15.3052 N   0  0  0  0  0  0  0  0  0  0  0  0
   21.6940  -24.0486  -14.8606 C   0  0  0  0  0  0  0  0  0  0  0  0
   22.1717  -25.0519  -14.3094 O   0  0  0  0  0  0  0  0  0  0  0  0
   25.8814  -21.9872  -18.5477 N   0  0  0  0  0  0  0  0  0  0  0  0
   26.6902  -22.1356  -17.3912 C   0  0  0  0  0  0  0  0  0  0  0  0
   27.9236  -22.0055  -17.5299 O   0  0  0  0  0  0  0  0  0  0  0  0
   26.1455  -22.4337  -16.0449 C   0  0  0  0  0  0  0  0  0  0  0  0
   24.6711  -22.6224  -16.1436 C   0  0  0  0  0  0  0  0  0  0  0  0
   23.9706  -22.9536  -14.8657 C   0  0  2  0  0  0  0  0  0  0  0  0
   22.5454  -22.9550  -15.1552 N   0  0  0  0  0  0  0  0  0  0  0  0
   24.2837  -22.0201  -13.7501 C   0  0  0  0  0  0  0  0  0  0  0  0
   23.8408  -20.8495  -13.6686 O   0  0  0  0  0  0  0  0  0  0  0  0
   27.6988  -18.7843   -6.2352 O   0  0  0  0  0  0  0  0  0  0  0  0
   27.3773  -19.6167   -7.2928 C   0  0  0  0  0  0  0  0  0  0  0  0
   28.3861  -20.0875   -8.1179 C   0  0  0  0  0  0  0  0  0  0  0  0
   28.0947  -20.9242   -9.1871 C   0  0  0  0  0  0  0  0  0  0  0  0
   26.8035  -21.3189   -9.4714 C   0  0  0  0  0  0  0  0  0  0  0  0
   26.4196  -22.2007  -10.5845 C   0  0  0  0  0  0  0  0  0  0  0  0
   25.5928  -21.5049  -11.6398 C   0  0  2  0  0  0  0  0  0  0  0  0
   25.1433  -22.4237  -12.6638 N   0  0  0  0  0  0  0  0  0  0  0  0
   26.2428  -20.3118  -12.1854 C   0  0  0  0  0  0  0  0  0  0  0  0
   25.9136  -19.0453  -11.7558 O   0  0  0  0  0  0  0  0  0  0  0  0
   25.8083  -20.8427   -8.6415 C   0  0  0  0  0  0  0  0  0  0  0  0
   26.0904  -20.0145   -7.5821 C   0  0  0  0  0  0  0  0  0  0  0  0
   27.1207  -20.4372  -13.0648 O   0  0  0  0  0  0  0  0  0  0  0  0
  1  2  1  0
  2  3  2  0
  4  2  1  0
  4  5  1  0
  5  7  1  0
  5  6  1  1
  7  8  2  0
  9 10  1  0
 10 11  2  0
 12 10  1  0
 12 13  1  0
 14 13  1  6
 15 14  1  0
 15  7  1  0
 16 17  2  0
 16 14  1  0
 18 19  1  0
 19 29  2  0
 20 19  1  0
 20 21  2  0
 21 22  1  0
 22 28  2  0
 22 23  1  0
 24 23  1  1
 24 26  1  0
 24 25  1  0
 25 16  1  0
 26 27  1  0
 29 28  1  0
 30 26  2  0
M  END
$$$$
