NQY.pdb
     RDKit          3D

 30 30  0  0  1  0  0  0  0  0999 V2000
   26.3450  -26.6624  -17.8125 N   0  0  0  0  0  0  0  0  0  0  0  0
   26.5904  -25.2595  -17.7935 C   0  0  0  0  0  0  0  0  0  0  0  0
   26.2445  -24.6076  -18.7953 O   0  0  0  0  0  0  0  0  0  0  0  0
   27.2283  -24.6123  -16.6319 C   0  0  0  0  0  0  0  0  0  0  0  0
   28.1381  -23.5184  -17.1234 C   0  0  2  0  0  0  0  0  0  0  0  0
   29.3163  -24.0669  -17.7168 N   0  0  0  0  0  0  0  0  0  0  0  0
   28.4223  -22.5152  -16.0638 C   0  0  0  0  0  0  0  0  0  0  0  0
   29.4354  -22.5343  -15.3485 O   0  0  0  0  0  0  0  0  0  0  0  0
   26.6148  -16.7565  -16.3230 N   0  0  0  0  0  0  0  0  0  0  0  0
   26.9568  -16.8380  -14.9482 C   0  0  0  0  0  0  0  0  0  0  0  0
   26.9631  -15.7766  -14.2920 O   0  0  0  0  0  0  0  0  0  0  0  0
   27.3021  -18.1078  -14.2650 C   0  0  0  0  0  0  0  0  0  0  0  0
   27.4092  -19.1954  -15.2773 C   0  0  0  0  0  0  0  0  0  0  0  0
   27.4794  -20.5857  -14.7335 C   0  0  2  0  0  0  0  0  0  0  0  0
   27.4673  -21.4855  -15.8759 N   0  0  0  0  0  0  0  0  0  0  0  0
   26.3799  -20.9163  -13.7871 C   0  0  0  0  0  0  0  0  0  0  0  0
   25.1749  -21.0204  -14.1191 O   0  0  0  0  0  0  0  0  0  0  0  0
   27.9781  -18.0891   -6.5405 O   0  0  0  0  0  0  0  0  0  0  0  0
   27.5322  -19.0587   -7.4213 C   0  0  0  0  0  0  0  0  0  0  0  0
   28.4433  -19.6953   -8.2490 C   0  0  0  0  0  0  0  0  0  0  0  0
   28.0262  -20.6724   -9.1433 C   0  0  0  0  0  0  0  0  0  0  0  0
   26.7024  -21.0477   -9.2458 C   0  0  0  0  0  0  0  0  0  0  0  0
   26.1878  -22.0718  -10.1679 C   0  0  0  0  0  0  0  0  0  0  0  0
   25.6127  -21.4952  -11.4399 C   0  0  2  0  0  0  0  0  0  0  0  0
   26.6484  -21.1429  -12.3875 N   0  0  0  0  0  0  0  0  0  0  0  0
   24.6613  -20.4084  -11.2000 C   0  0  0  0  0  0  0  0  0  0  0  0
   23.3743  -20.6513  -10.7742 O   0  0  0  0  0  0  0  0  0  0  0  0
   25.8056  -20.4056   -8.4155 C   0  0  0  0  0  0  0  0  0  0  0  0
   26.2122  -19.4381   -7.5287 C   0  0  0  0  0  0  0  0  0  0  0  0
   25.0188  -19.2261  -11.3842 O   0  0  0  0  0  0  0  0  0  0  0  0
  1  2  1  0
  2  3  2  0
  4  2  1  0
  4  5  1  0
  5  7  1  0
  5  6  1  1
  7  8  2  0
  9 10  1  0
 10 11  2  0
 12 10  1  0
 12 13  1  0
 14 13  1  6
 15 14  1  0
 15  7  1  0
 16 17  2  0
 16 14  1  0
 18 19  1  0
 19 29  2  0
 20 19  1  0
 20 21  2  0
 21 22  1  0
 22 28  2  0
 22 23  1  0
 24 23  1  1
 24 26  1  0
 24 25  1  0
 25 16  1  0
 26 27  1  0
 29 28  1  0
 30 26  2  0
M  END
$$$$
