NQY.pdb
     RDKit          3D

 30 30  0  0  1  0  0  0  0  0999 V2000
   29.6225  -22.3280  -18.3581 N   0  0  0  0  0  0  0  0  0  0  0  0
   29.1580  -22.4460  -17.0168 C   0  0  0  0  0  0  0  0  0  0  0  0
   29.6424  -23.3600  -16.3253 O   0  0  0  0  0  0  0  0  0  0  0  0
   28.1452  -21.5205  -16.4760 C   0  0  0  0  0  0  0  0  0  0  0  0
   27.7295  -20.5653  -17.5628 C   0  0  2  0  0  0  0  0  0  0  0  0
   28.8132  -19.7083  -17.9265 N   0  0  0  0  0  0  0  0  0  0  0  0
   26.4872  -19.8295  -17.2093 C   0  0  0  0  0  0  0  0  0  0  0  0
   26.4667  -18.8033  -16.5128 O   0  0  0  0  0  0  0  0  0  0  0  0
   21.2042  -21.7035  -19.7500 N   0  0  0  0  0  0  0  0  0  0  0  0
   20.7311  -20.6104  -18.9786 C   0  0  0  0  0  0  0  0  0  0  0  0
   19.4959  -20.4484  -18.9057 O   0  0  0  0  0  0  0  0  0  0  0  0
   21.6237  -19.6655  -18.2654 C   0  0  0  0  0  0  0  0  0  0  0  0
   23.0398  -20.0807  -18.4688 C   0  0  0  0  0  0  0  0  0  0  0  0
   23.9634  -19.8268  -17.3218 C   0  0  2  0  0  0  0  0  0  0  0  0
   25.2656  -20.3472  -17.7069 N   0  0  0  0  0  0  0  0  0  0  0  0
   23.5092  -20.4313  -16.0402 C   0  0  0  0  0  0  0  0  0  0  0  0
   23.6187  -21.6490  -15.7603 O   0  0  0  0  0  0  0  0  0  0  0  0
   21.3307  -21.2850   -7.5180 O   0  0  0  0  0  0  0  0  0  0  0  0
   21.6319  -20.7645   -8.7642 C   0  0  0  0  0  0  0  0  0  0  0  0
   22.9299  -20.8525   -9.2416 C   0  0  0  0  0  0  0  0  0  0  0  0
   23.2628  -20.3395  -10.4883 C   0  0  0  0  0  0  0  0  0  0  0  0
   22.3273  -19.7271  -11.2967 C   0  0  0  0  0  0  0  0  0  0  0  0
   22.6060  -19.1612  -12.6256 C   0  0  0  0  0  0  0  0  0  0  0  0
   22.4647  -20.1661  -13.7443 C   0  0  2  0  0  0  0  0  0  0  0  0
   22.8970  -19.6224  -15.0140 N   0  0  0  0  0  0  0  0  0  0  0  0
   21.1350  -20.7761  -13.8047 C   0  0  0  0  0  0  0  0  0  0  0  0
   20.8441  -21.9494  -13.1448 O   0  0  0  0  0  0  0  0  0  0  0  0
   21.0383  -19.6462  -10.8089 C   0  0  0  0  0  0  0  0  0  0  0  0
   20.7028  -20.1519   -9.5762 C   0  0  0  0  0  0  0  0  0  0  0  0
   20.2345  -20.2238  -14.4707 O   0  0  0  0  0  0  0  0  0  0  0  0
  1  2  1  0
  2  3  2  0
  4  2  1  0
  4  5  1  0
  5  7  1  0
  5  6  1  1
  7  8  2  0
  9 10  1  0
 10 11  2  0
 12 10  1  0
 12 13  1  0
 14 13  1  6
 15 14  1  0
 15  7  1  0
 16 17  2  0
 16 14  1  0
 18 19  1  0
 19 29  2  0
 20 19  1  0
 20 21  2  0
 21 22  1  0
 22 28  2  0
 22 23  1  0
 24 23  1  1
 24 26  1  0
 24 25  1  0
 25 16  1  0
 26 27  1  0
 29 28  1  0
 30 26  2  0
M  END
$$$$
