TLS.pdb
     RDKit          3D

 22 21  0  0  1  0  0  0  0  0999 V2000
   21.9890   -8.3348  -21.1432 C   0  0  0  0  0  0  0  0  0  0  0  0
   21.1606   -9.5992  -21.0828 C   0  0  1  0  0  0  0  0  0  0  0  0
   20.8238   -9.9440  -22.3895 O   0  0  0  0  0  0  0  0  0  0  0  0
   22.0515  -10.6782  -20.4744 C   0  0  2  0  0  0  0  0  0  0  0  0
   21.3289  -11.9291  -20.5928 N   0  0  0  0  0  0  0  0  0  0  0  0
   22.3436  -10.3793  -19.0411 C   0  0  0  0  0  0  0  0  0  0  0  0
   21.4805  -10.5233  -18.1428 O   0  0  0  0  0  0  0  0  0  0  0  0
   27.6237   -9.5877  -16.2014 C   0  0  0  0  0  0  0  0  0  0  0  0
   26.1127   -9.3859  -15.9524 C   0  0  2  0  0  0  0  0  0  0  0  0
   25.7575  -10.2547  -14.7745 C   0  0  0  0  0  0  0  0  0  0  0  0
   25.4369   -9.7697  -17.2102 C   0  0  0  0  0  0  0  0  0  0  0  0
   23.9658   -9.5535  -17.3012 C   0  0  2  0  0  0  0  0  0  0  0  0
   23.6222   -9.9248  -18.6962 N   0  0  0  0  0  0  0  0  0  0  0  0
   23.5240   -8.1652  -17.1196 C   0  0  0  0  0  0  0  0  0  0  0  0
   23.7996   -7.3052  -17.9864 O   0  0  0  0  0  0  0  0  0  0  0  0
   20.7925   -4.9302  -14.6781 O   0  0  0  0  0  0  0  0  0  0  0  0
   21.1569   -6.2458  -14.9148 C   0  0  0  0  0  0  0  0  0  0  0  0
   22.3428   -6.3412  -15.8530 C   0  0  2  0  0  0  0  0  0  0  0  0
   22.7835   -7.7232  -15.9973 N   0  0  0  0  0  0  0  0  0  0  0  0
   23.4241   -5.4909  -15.2902 C   0  0  0  0  0  0  0  0  0  0  0  0
   24.2295   -5.9514  -14.4692 O   0  0  0  0  0  0  0  0  0  0  0  0
   23.5791   -4.1472  -15.6584 O   0  0  0  0  0  0  0  0  0  0  0  0
  2  4  1  0
  2  1  1  6
  3  2  1  0
  4  6  1  0
  4  5  1  1
  6  7  2  0
  9  8  1  6
  9 10  1  0
  9 11  1  0
 12 11  1  6
 12 14  1  0
 13 12  1  0
 13  6  1  0
 14 19  1  0
 14 15  2  0
 16 17  1  0
 18 17  1  1
 18 20  1  0
 19 18  1  0
 20 21  2  0
 20 22  1  0
M  END
$$$$
