TLS.pdb
     RDKit          3D

 22 21  0  0  1  0  0  0  0  0999 V2000
   20.8228   -8.8150  -20.0317 C   0  0  0  0  0  0  0  0  0  0  0  0
   20.3698  -10.2030  -19.6352 C   0  0  1  0  0  0  0  0  0  0  0  0
   20.0184  -10.8794  -20.8010 O   0  0  0  0  0  0  0  0  0  0  0  0
   21.5676  -10.8846  -18.9806 C   0  0  2  0  0  0  0  0  0  0  0  0
   21.2044  -12.2755  -18.7958 N   0  0  0  0  0  0  0  0  0  0  0  0
   21.8863  -10.2508  -17.6668 C   0  0  0  0  0  0  0  0  0  0  0  0
   21.1242  -10.3548  -16.6765 O   0  0  0  0  0  0  0  0  0  0  0  0
   25.3106  -10.9172  -14.9531 C   0  0  0  0  0  0  0  0  0  0  0  0
   25.6655  -10.2525  -16.3014 C   0  0  2  0  0  0  0  0  0  0  0  0
   27.1683  -10.1636  -16.3477 C   0  0  0  0  0  0  0  0  0  0  0  0
   24.9837   -8.9404  -16.3017 C   0  0  0  0  0  0  0  0  0  0  0  0
   23.4950   -8.9323  -16.2477 C   0  0  2  0  0  0  0  0  0  0  0  0
   23.0740   -9.5196  -17.5437 N   0  0  0  0  0  0  0  0  0  0  0  0
   22.8778   -7.6022  -16.1739 C   0  0  0  0  0  0  0  0  0  0  0  0
   22.9696   -6.8179  -17.1451 O   0  0  0  0  0  0  0  0  0  0  0  0
   19.4129   -6.8393  -15.0087 O   0  0  0  0  0  0  0  0  0  0  0  0
   20.1774   -5.8449  -14.4202 C   0  0  0  0  0  0  0  0  0  0  0  0
   21.5799   -5.8010  -14.9916 C   0  0  2  0  0  0  0  0  0  0  0  0
   22.1632   -7.1358  -15.0446 N   0  0  0  0  0  0  0  0  0  0  0  0
   22.3844   -4.8997  -14.1259 C   0  0  0  0  0  0  0  0  0  0  0  0
   23.2822   -5.3519  -13.4019 O   0  0  0  0  0  0  0  0  0  0  0  0
   22.1661   -3.5153  -14.0903 O   0  0  0  0  0  0  0  0  0  0  0  0
  2  4  1  0
  2  1  1  6
  3  2  1  0
  4  6  1  0
  4  5  1  1
  6  7  2  0
  9  8  1  1
  9 10  1  0
  9 11  1  0
 12 11  1  6
 12 14  1  0
 13 12  1  0
 13  6  1  0
 14 19  1  0
 14 15  2  0
 16 17  1  0
 18 17  1  1
 18 20  1  0
 19 18  1  0
 20 21  2  0
 20 22  1  0
M  END
$$$$
