TLS.pdb
     RDKit          3D

 22 21  0  0  1  0  0  0  0  0999 V2000
   19.0066   -8.0954  -19.4388 C   0  0  0  0  0  0  0  0  0  0  0  0
   18.1414   -9.2554  -18.9977 C   0  0  1  0  0  0  0  0  0  0  0  0
   17.6124   -9.8447  -20.1435 O   0  0  0  0  0  0  0  0  0  0  0  0
   19.0611  -10.2416  -18.2840 C   0  0  2  0  0  0  0  0  0  0  0  0
   18.2744  -11.4312  -18.0257 N   0  0  0  0  0  0  0  0  0  0  0  0
   19.5673   -9.6641  -17.0036 C   0  0  0  0  0  0  0  0  0  0  0  0
   18.8078   -9.4308  -16.0336 O   0  0  0  0  0  0  0  0  0  0  0  0
   22.1608  -10.7383  -13.4853 C   0  0  0  0  0  0  0  0  0  0  0  0
   22.7481  -10.8725  -14.9075 C   0  0  2  0  0  0  0  0  0  0  0  0
   24.0998  -11.5175  -14.7489 C   0  0  0  0  0  0  0  0  0  0  0  0
   22.7952   -9.5020  -15.4606 C   0  0  0  0  0  0  0  0  0  0  0  0
   21.5027   -8.7867  -15.6527 C   0  0  2  0  0  0  0  0  0  0  0  0
   20.9329   -9.3766  -16.8893 N   0  0  0  0  0  0  0  0  0  0  0  0
   21.6154   -7.3429  -15.8945 C   0  0  0  0  0  0  0  0  0  0  0  0
   22.2022   -6.9266  -16.9188 O   0  0  0  0  0  0  0  0  0  0  0  0
   18.8780   -4.7453  -15.9663 O   0  0  0  0  0  0  0  0  0  0  0  0
   19.8436   -4.2535  -15.1030 C   0  0  0  0  0  0  0  0  0  0  0  0
   21.1808   -4.9361  -15.3067 C   0  0  2  0  0  0  0  0  0  0  0  0
   21.0867   -6.3626  -15.0211 N   0  0  0  0  0  0  0  0  0  0  0  0
   22.1597   -4.2737  -14.4057 C   0  0  0  0  0  0  0  0  0  0  0  0
   22.6527   -4.8846  -13.4474 O   0  0  0  0  0  0  0  0  0  0  0  0
   22.5639   -2.9451  -14.5976 O   0  0  0  0  0  0  0  0  0  0  0  0
  2  4  1  0
  2  1  1  6
  3  2  1  0
  4  6  1  0
  4  5  1  1
  6  7  2  0
  9  8  1  1
  9 10  1  0
  9 11  1  0
 12 11  1  6
 12 14  1  0
 13 12  1  0
 13  6  1  0
 14 19  1  0
 14 15  2  0
 16 17  1  0
 18 17  1  1
 18 20  1  0
 19 18  1  0
 20 21  2  0
 20 22  1  0
M  END
$$$$
