TLS.pdb
     RDKit          3D

 22 21  0  0  1  0  0  0  0  0999 V2000
   15.1496  -13.7739   10.6365 C   0  0  0  0  0  0  0  0  0  0  0  0
   13.9789  -12.9616   10.1282 C   0  0  1  0  0  0  0  0  0  0  0  0
   13.2547  -12.5291   11.2365 O   0  0  0  0  0  0  0  0  0  0  0  0
   14.5655  -11.7615    9.3909 C   0  0  2  0  0  0  0  0  0  0  0  0
   13.4565  -10.8805    9.0828 N   0  0  0  0  0  0  0  0  0  0  0  0
   15.2517  -12.1926    8.1369 C   0  0  0  0  0  0  0  0  0  0  0  0
   14.6169  -12.4503    7.0867 O   0  0  0  0  0  0  0  0  0  0  0  0
   20.9685  -11.7298    6.3441 C   0  0  0  0  0  0  0  0  0  0  0  0
   19.6339  -12.3542    5.8806 C   0  0  2  0  0  0  0  0  0  0  0  0
   19.3178  -11.7355    4.5443 C   0  0  0  0  0  0  0  0  0  0  0  0
   18.6483  -12.0420    6.9378 C   0  0  0  0  0  0  0  0  0  0  0  0
   17.3865  -12.8332    6.9652 C   0  0  2  0  0  0  0  0  0  0  0  0
   16.6469  -12.3106    8.1407 N   0  0  0  0  0  0  0  0  0  0  0  0
   17.5552  -14.2746    7.1873 C   0  0  0  0  0  0  0  0  0  0  0  0
   17.8743  -15.0190    6.2329 O   0  0  0  0  0  0  0  0  0  0  0  0
   18.7402  -17.8208   10.2052 O   0  0  0  0  0  0  0  0  0  0  0  0
   18.5259  -16.4825    9.9176 C   0  0  0  0  0  0  0  0  0  0  0  0
   17.6861  -16.3026    8.6695 C   0  0  2  0  0  0  0  0  0  0  0  0
   17.3778  -14.8953    8.4469 N   0  0  0  0  0  0  0  0  0  0  0  0
   16.4449  -17.1000    8.8502 C   0  0  0  0  0  0  0  0  0  0  0  0
   16.4926  -18.3346    8.9400 O   0  0  0  0  0  0  0  0  0  0  0  0
   15.1809  -16.4984    8.9262 O   0  0  0  0  0  0  0  0  0  0  0  0
  2  4  1  0
  2  1  1  1
  3  2  1  0
  4  6  1  0
  4  5  1  6
  6  7  2  0
  9  8  1  1
  9 10  1  0
  9 11  1  0
 12 11  1  1
 12 14  1  0
 13 12  1  0
 13  6  1  0
 14 19  1  0
 14 15  2  0
 16 17  1  0
 18 17  1  1
 18 20  1  0
 19 18  1  0
 20 21  2  0
 20 22  1  0
M  END
$$$$
