TLS.pdb
     RDKit          3D

 22 21  0  0  1  0  0  0  0  0999 V2000
   28.5640  -18.6151  -17.4618 C   0  0  0  0  0  0  0  0  0  0  0  0
   27.4351  -19.2867  -16.7111 C   0  0  1  0  0  0  0  0  0  0  0  0
   26.5958  -19.8760  -17.6536 O   0  0  0  0  0  0  0  0  0  0  0  0
   28.0702  -20.3633  -15.8362 C   0  0  2  0  0  0  0  0  0  0  0  0
   28.6096  -21.3643  -16.7351 N   0  0  0  0  0  0  0  0  0  0  0  0
   27.0564  -20.9734  -14.9256 C   0  0  0  0  0  0  0  0  0  0  0  0
   26.3458  -21.9447  -15.2778 O   0  0  0  0  0  0  0  0  0  0  0  0
   25.9203  -19.8372   -9.0583 C   0  0  0  0  0  0  0  0  0  0  0  0
   25.3153  -20.6057  -10.2537 C   0  0  2  0  0  0  0  0  0  0  0  0
   25.1805  -22.0392   -9.8117 C   0  0  0  0  0  0  0  0  0  0  0  0
   26.2508  -20.4080  -11.3816 C   0  0  0  0  0  0  0  0  0  0  0  0
   25.8490  -20.9336  -12.7163 C   0  0  2  0  0  0  0  0  0  0  0  0
   26.8995  -20.4398  -13.6407 N   0  0  0  0  0  0  0  0  0  0  0  0
   24.5708  -20.4265  -13.2307 C   0  0  0  0  0  0  0  0  0  0  0  0
   24.4389  -19.2068  -13.4790 O   0  0  0  0  0  0  0  0  0  0  0  0
   21.7108  -22.8778  -14.9941 O   0  0  0  0  0  0  0  0  0  0  0  0
   21.7974  -21.5218  -15.2648 C   0  0  0  0  0  0  0  0  0  0  0  0
   22.2088  -20.7288  -14.0411 C   0  0  2  0  0  0  0  0  0  0  0  0
   23.4460  -21.2507  -13.4734 N   0  0  0  0  0  0  0  0  0  0  0  0
   21.0940  -20.8125  -13.0618 C   0  0  0  0  0  0  0  0  0  0  0  0
   21.2478  -21.3856  -11.9743 O   0  0  0  0  0  0  0  0  0  0  0  0
   19.8347  -20.2539  -13.3214 O   0  0  0  0  0  0  0  0  0  0  0  0
  2  4  1  0
  2  1  1  6
  3  2  1  0
  4  6  1  0
  4  5  1  6
  6  7  2  0
  9  8  1  1
  9 10  1  0
  9 11  1  0
 12 11  1  1
 12 14  1  0
 13 12  1  0
 13  6  1  0
 14 19  1  0
 14 15  2  0
 16 17  1  0
 18 17  1  6
 18 20  1  0
 19 18  1  0
 20 21  2  0
 20 22  1  0
M  END
$$$$
