TLS.pdb
     RDKit          3D

 22 21  0  0  1  0  0  0  0  0999 V2000
   18.4505   -7.6665  -19.3998 C   0  0  0  0  0  0  0  0  0  0  0  0
   17.3398   -8.6587  -19.1342 C   0  0  1  0  0  0  0  0  0  0  0  0
   16.8118   -9.0381  -20.3659 O   0  0  0  0  0  0  0  0  0  0  0  0
   17.9819   -9.8628  -18.4516 C   0  0  2  0  0  0  0  0  0  0  0  0
   16.9445  -10.8660  -18.3167 N   0  0  0  0  0  0  0  0  0  0  0  0
   18.5208   -9.4877  -17.1106 C   0  0  0  0  0  0  0  0  0  0  0  0
   17.7769   -9.3459  -16.1112 O   0  0  0  0  0  0  0  0  0  0  0  0
   23.5906  -10.7627  -14.4079 C   0  0  0  0  0  0  0  0  0  0  0  0
   22.4952   -9.6789  -14.3012 C   0  0  2  0  0  0  0  0  0  0  0  0
   21.8129   -9.8949  -12.9759 C   0  0  0  0  0  0  0  0  0  0  0  0
   21.6133   -9.8731  -15.4720 C   0  0  0  0  0  0  0  0  0  0  0  0
   20.5032   -8.9005  -15.6732 C   0  0  2  0  0  0  0  0  0  0  0  0
   19.9000   -9.2899  -16.9719 N   0  0  0  0  0  0  0  0  0  0  0  0
   20.9157   -7.4981  -15.8103 C   0  0  0  0  0  0  0  0  0  0  0  0
   21.5682   -7.1359  -16.8152 O   0  0  0  0  0  0  0  0  0  0  0  0
   20.2350   -2.8440  -14.7802 O   0  0  0  0  0  0  0  0  0  0  0  0
   19.8598   -4.1746  -14.6888 C   0  0  0  0  0  0  0  0  0  0  0  0
   21.0028   -5.1065  -15.0359 C   0  0  2  0  0  0  0  0  0  0  0  0
   20.6133   -6.4994  -14.8539 N   0  0  0  0  0  0  0  0  0  0  0  0
   22.1478   -4.7521  -14.1570 C   0  0  0  0  0  0  0  0  0  0  0  0
   22.2641   -5.2595  -13.0329 O   0  0  0  0  0  0  0  0  0  0  0  0
   23.1346   -3.8397  -14.5556 O   0  0  0  0  0  0  0  0  0  0  0  0
  2  4  1  0
  2  1  1  6
  3  2  1  0
  4  6  1  0
  4  5  1  1
  6  7  2  0
  9  8  1  6
  9 10  1  0
  9 11  1  0
 12 11  1  6
 12 14  1  0
 13 12  1  0
 13  6  1  0
 14 19  1  0
 14 15  2  0
 16 17  1  0
 18 17  1  1
 18 20  1  0
 19 18  1  0
 20 21  2  0
 20 22  1  0
M  END
$$$$
