TLS.pdb
     RDKit          3D

 22 21  0  0  1  0  0  0  0  0999 V2000
   19.9333  -23.3799  -13.9339 C   0  0  0  0  0  0  0  0  0  0  0  0
   21.1204  -22.4777  -14.1900 C   0  0  1  0  0  0  0  0  0  0  0  0
   20.8467  -21.7388  -15.3385 O   0  0  0  0  0  0  0  0  0  0  0  0
   21.2300  -21.5457  -12.9870 C   0  0  2  0  0  0  0  0  0  0  0  0
   20.0768  -20.6690  -13.0342 N   0  0  0  0  0  0  0  0  0  0  0  0
   22.4918  -20.7497  -13.0455 C   0  0  0  0  0  0  0  0  0  0  0  0
   22.4882  -19.5120  -13.2468 O   0  0  0  0  0  0  0  0  0  0  0  0
   25.3124  -19.3338  -10.1488 C   0  0  0  0  0  0  0  0  0  0  0  0
   25.1579  -20.8679  -10.2412 C   0  0  2  0  0  0  0  0  0  0  0  0
   25.9462  -21.4433   -9.0941 C   0  0  0  0  0  0  0  0  0  0  0  0
   25.6685  -21.2499  -11.5753 C   0  0  0  0  0  0  0  0  0  0  0  0
   24.9933  -20.6684  -12.7691 C   0  0  2  0  0  0  0  0  0  0  0  0
   23.7130  -21.4117  -12.8695 N   0  0  0  0  0  0  0  0  0  0  0  0
   25.6922  -20.8698  -14.0444 C   0  0  0  0  0  0  0  0  0  0  0  0
   25.9428  -22.0303  -14.4412 O   0  0  0  0  0  0  0  0  0  0  0  0
   27.2361  -17.7002  -16.2814 O   0  0  0  0  0  0  0  0  0  0  0  0
   26.7115  -18.7557  -17.0095 C   0  0  0  0  0  0  0  0  0  0  0  0
   26.6821  -20.0370  -16.2016 C   0  0  2  0  0  0  0  0  0  0  0  0
   26.1112  -19.8071  -14.8802 N   0  0  0  0  0  0  0  0  0  0  0  0
   28.0801  -20.5316  -16.1017 C   0  0  0  0  0  0  0  0  0  0  0  0
   28.6908  -20.4910  -15.0247 O   0  0  0  0  0  0  0  0  0  0  0  0
   28.7614  -21.0592  -17.2074 O   0  0  0  0  0  0  0  0  0  0  0  0
  2  4  1  0
  2  1  1  1
  3  2  1  0
  4  6  1  0
  4  5  1  6
  6  7  2  0
  9  8  1  6
  9 10  1  0
  9 11  1  0
 12 11  1  1
 12 14  1  0
 13 12  1  0
 13  6  1  0
 14 19  1  0
 14 15  2  0
 16 17  1  0
 18 17  1  6
 18 20  1  0
 19 18  1  0
 20 21  2  0
 20 22  1  0
M  END
$$$$
