TLS.pdb
     RDKit          3D

 22 21  0  0  1  0  0  0  0  0999 V2000
   18.5391   -8.3790  -19.5818 C   0  0  0  0  0  0  0  0  0  0  0  0
   17.6916   -9.6067  -19.3304 C   0  0  1  0  0  0  0  0  0  0  0  0
   17.2374  -10.0639  -20.5652 O   0  0  0  0  0  0  0  0  0  0  0  0
   18.6074  -10.6490  -18.6959 C   0  0  2  0  0  0  0  0  0  0  0  0
   17.8412  -11.8761  -18.6066 N   0  0  0  0  0  0  0  0  0  0  0  0
   19.0493  -10.2113  -17.3385 C   0  0  0  0  0  0  0  0  0  0  0  0
   18.2611  -10.1701  -16.3641 O   0  0  0  0  0  0  0  0  0  0  0  0
   24.0896  -10.7485  -14.3578 C   0  0  0  0  0  0  0  0  0  0  0  0
   22.8796   -9.7885  -14.3623 C   0  0  2  0  0  0  0  0  0  0  0  0
   22.1572  -10.0108  -13.0595 C   0  0  0  0  0  0  0  0  0  0  0  0
   22.0854  -10.1384  -15.5594 C   0  0  0  0  0  0  0  0  0  0  0  0
   20.8769   -9.3187  -15.8541 C   0  0  2  0  0  0  0  0  0  0  0  0
   20.3859   -9.8368  -17.1550 N   0  0  0  0  0  0  0  0  0  0  0  0
   21.1240   -7.8841  -16.0445 C   0  0  0  0  0  0  0  0  0  0  0  0
   21.8573   -7.4971  -16.9822 O   0  0  0  0  0  0  0  0  0  0  0  0
   20.0335   -3.2436  -15.1771 O   0  0  0  0  0  0  0  0  0  0  0  0
   19.7164   -4.5885  -15.0767 C   0  0  0  0  0  0  0  0  0  0  0  0
   20.9135   -5.4719  -15.3633 C   0  0  2  0  0  0  0  0  0  0  0  0
   20.5694   -6.8806  -15.2144 N   0  0  0  0  0  0  0  0  0  0  0  0
   21.9907   -5.0814  -14.4167 C   0  0  0  0  0  0  0  0  0  0  0  0
   22.6804   -4.0732  -14.6228 O   0  0  0  0  0  0  0  0  0  0  0  0
   22.2709   -5.8269  -13.2629 O   0  0  0  0  0  0  0  0  0  0  0  0
  2  4  1  0
  2  1  1  6
  3  2  1  0
  4  6  1  0
  4  5  1  1
  6  7  2  0
  9  8  1  1
  9 10  1  0
  9 11  1  0
 12 11  1  6
 12 14  1  0
 13 12  1  0
 13  6  1  0
 14 19  1  0
 14 15  2  0
 16 17  1  0
 18 17  1  1
 18 20  1  0
 19 18  1  0
 20 21  2  0
 20 22  1  0
M  END
$$$$
