TLS.pdb
     RDKit          3D

 22 21  0  0  1  0  0  0  0  0999 V2000
   26.2253  -18.8748  -14.1409 C   0  0  0  0  0  0  0  0  0  0  0  0
   26.7992  -20.1898  -14.6207 C   0  0  1  0  0  0  0  0  0  0  0  0
   27.4450  -19.9497  -15.8312 O   0  0  0  0  0  0  0  0  0  0  0  0
   27.8130  -20.6345  -13.5708 C   0  0  2  0  0  0  0  0  0  0  0  0
   28.5621  -21.7296  -14.1542 N   0  0  0  0  0  0  0  0  0  0  0  0
   27.1243  -21.0811  -12.3237 C   0  0  0  0  0  0  0  0  0  0  0  0
   26.6376  -22.2310  -12.2085 O   0  0  0  0  0  0  0  0  0  0  0  0
   27.0019  -18.5807   -6.8184 C   0  0  0  0  0  0  0  0  0  0  0  0
   26.5174  -19.8476   -7.5572 C   0  0  2  0  0  0  0  0  0  0  0  0
   27.1045  -21.0206   -6.8170 C   0  0  0  0  0  0  0  0  0  0  0  0
   26.9934  -19.7146   -8.9508 C   0  0  0  0  0  0  0  0  0  0  0  0
   26.3350  -20.5527   -9.9916 C   0  0  2  0  0  0  0  0  0  0  0  0
   27.0222  -20.1835  -11.2539 N   0  0  0  0  0  0  0  0  0  0  0  0
   24.9070  -20.2841  -10.2016 C   0  0  0  0  0  0  0  0  0  0  0  0
   24.1640  -20.0601   -9.2195 O   0  0  0  0  0  0  0  0  0  0  0  0
   23.2032  -19.0283  -13.8194 O   0  0  0  0  0  0  0  0  0  0  0  0
   22.5016  -19.9997  -13.1239 C   0  0  0  0  0  0  0  0  0  0  0  0
   22.8713  -20.0174  -11.6547 C   0  0  2  0  0  0  0  0  0  0  0  0
   24.2981  -20.2589  -11.4791 N   0  0  0  0  0  0  0  0  0  0  0  0
   22.0645  -21.0840  -11.0063 C   0  0  0  0  0  0  0  0  0  0  0  0
   22.6145  -22.0189  -10.4080 O   0  0  0  0  0  0  0  0  0  0  0  0
   20.6631  -21.0798  -11.0422 O   0  0  0  0  0  0  0  0  0  0  0  0
  2  4  1  0
  2  1  1  1
  3  2  1  0
  4  6  1  0
  4  5  1  6
  6  7  2  0
  9  8  1  1
  9 10  1  0
  9 11  1  0
 12 11  1  1
 12 14  1  0
 13 12  1  0
 13  6  1  0
 14 19  1  0
 14 15  2  0
 16 17  1  0
 18 17  1  6
 18 20  1  0
 19 18  1  0
 20 21  2  0
 20 22  1  0
M  END
$$$$
