TLS.pdb
     RDKit          3D

 22 21  0  0  1  0  0  0  0  0999 V2000
   21.4501  -10.2376  -19.7490 C   0  0  0  0  0  0  0  0  0  0  0  0
   21.1775  -11.6273  -19.2168 C   0  0  1  0  0  0  0  0  0  0  0  0
   20.7382  -12.4073  -20.2838 O   0  0  0  0  0  0  0  0  0  0  0  0
   22.5061  -12.1646  -18.6935 C   0  0  2  0  0  0  0  0  0  0  0  0
   22.2885  -13.5584  -18.3607 N   0  0  0  0  0  0  0  0  0  0  0  0
   22.9479  -11.4041  -17.4869 C   0  0  0  0  0  0  0  0  0  0  0  0
   22.4396  -11.5968  -16.3569 O   0  0  0  0  0  0  0  0  0  0  0  0
   26.6063  -10.9442  -14.9902 C   0  0  0  0  0  0  0  0  0  0  0  0
   26.7242  -10.5824  -16.4872 C   0  0  2  0  0  0  0  0  0  0  0  0
   28.1837  -10.3144  -16.7449 C   0  0  0  0  0  0  0  0  0  0  0  0
   25.8500   -9.4078  -16.6933 C   0  0  0  0  0  0  0  0  0  0  0  0
   24.3849   -9.5901  -16.4946 C   0  0  2  0  0  0  0  0  0  0  0  0
   23.9611  -10.4482  -17.6286 N   0  0  0  0  0  0  0  0  0  0  0  0
   23.5834   -8.3629  -16.5796 C   0  0  0  0  0  0  0  0  0  0  0  0
   23.4361   -7.7901  -17.6828 O   0  0  0  0  0  0  0  0  0  0  0  0
   20.6380   -5.1099  -14.4081 O   0  0  0  0  0  0  0  0  0  0  0  0
   21.4100   -6.2555  -14.3023 C   0  0  0  0  0  0  0  0  0  0  0  0
   22.1935   -6.5252  -15.5707 C   0  0  2  0  0  0  0  0  0  0  0  0
   22.9461   -7.7691  -15.4640 N   0  0  0  0  0  0  0  0  0  0  0  0
   23.1007   -5.3681  -15.7872 C   0  0  0  0  0  0  0  0  0  0  0  0
   24.2498   -5.3688  -15.3244 O   0  0  0  0  0  0  0  0  0  0  0  0
   22.7018   -4.2385  -16.5154 O   0  0  0  0  0  0  0  0  0  0  0  0
  2  4  1  0
  2  1  1  6
  3  2  1  0
  4  6  1  0
  4  5  1  1
  6  7  2  0
  9  8  1  1
  9 10  1  0
  9 11  1  0
 12 11  1  6
 12 14  1  0
 13 12  1  0
 13  6  1  0
 14 19  1  0
 14 15  2  0
 16 17  1  0
 18 17  1  1
 18 20  1  0
 19 18  1  0
 20 21  2  0
 20 22  1  0
M  END
$$$$
