VMI.pdb
     RDKit          3D

 24 23  0  0  1  0  0  0  0  0999 V2000
    9.7943  -15.9835   20.1917 C   0  0  0  0  0  0  0  0  0  0  0  0
    8.2897  -15.8951   20.2299 C   0  0  2  0  0  0  0  0  0  0  0  0
    7.7681  -16.1501   18.8345 C   0  0  0  0  0  0  0  0  0  0  0  0
    7.7564  -14.6229   20.8225 C   0  0  2  0  0  0  0  0  0  0  0  0
    8.1887  -13.5433   19.9028 N   0  0  0  0  0  0  0  0  0  0  0  0
    8.1783  -14.3258   22.1855 C   0  0  0  0  0  0  0  0  0  0  0  0
    9.1990  -13.6543   22.4935 O   0  0  0  0  0  0  0  0  0  0  0  0
    6.9749  -11.1705   26.2074 C   0  0  0  0  0  0  0  0  0  0  0  0
    5.5966  -12.3313   26.5455 S   0  0  0  0  0  0  0  0  0  0  0  0
    5.5679  -13.5118   25.1480 C   0  0  0  0  0  0  0  0  0  0  0  0
    6.5079  -14.6417   25.4810 C   0  0  0  0  0  0  0  0  0  0  0  0
    7.8108  -14.4580   24.6665 C   0  0  2  0  0  0  0  0  0  0  0  0
    7.4202  -14.7996   23.2973 N   0  0  0  0  0  0  0  0  0  0  0  0
    8.7920  -15.3483   25.2623 C   0  0  0  0  0  0  0  0  0  0  0  0
    8.9607  -16.4721   24.6764 O   0  0  0  0  0  0  0  0  0  0  0  0
   10.6747  -13.6070   29.3725 C   0  0  0  0  0  0  0  0  0  0  0  0
   11.3753  -14.3074   28.2280 C   0  0  0  0  0  0  0  0  0  0  0  0
   11.0173  -15.7796   28.2791 C   0  0  2  0  0  0  0  0  0  0  0  0
   12.2333  -16.5886   28.5901 C   0  0  0  0  0  0  0  0  0  0  0  0
   10.4894  -16.1582   26.9079 C   0  0  2  0  0  0  0  0  0  0  0  0
    9.5841  -15.1274   26.4071 N   0  0  0  0  0  0  0  0  0  0  0  0
    9.7772  -17.4377   26.9035 C   0  0  0  0  0  0  0  0  0  0  0  0
   10.4322  -18.5665   26.4101 O   0  0  0  0  0  0  0  0  0  0  0  0
    8.6185  -17.5201   27.3278 O   0  0  0  0  0  0  0  0  0  0  0  0
  2  1  1  6
  3  2  1  0
  4  2  1  0
  4  5  1  6
  6  4  1  0
  6  7  2  0
  9  8  1  0
  9 10  1  0
 10 11  1  0
 12 11  1  1
 12 14  1  0
 13 12  1  0
 13  6  1  0
 14 15  2  0
 17 18  1  0
 17 16  1  0
 18 20  1  0
 18 19  1  6
 20 22  1  0
 21 14  1  0
 20 21  1  1
 22 24  2  0
 22 23  1  0
M  END
$$$$
