VMI.pdb
     RDKit          3D

 24 23  0  0  1  0  0  0  0  0999 V2000
    9.0002  -18.9993   19.4371 C   0  0  0  0  0  0  0  0  0  0  0  0
    9.4022  -18.1964   20.6484 C   0  0  2  0  0  0  0  0  0  0  0  0
    9.0503  -18.9969   21.8811 C   0  0  0  0  0  0  0  0  0  0  0  0
    8.8431  -16.8035   20.6847 C   0  0  2  0  0  0  0  0  0  0  0  0
    9.3756  -16.1291   19.4765 N   0  0  0  0  0  0  0  0  0  0  0  0
    9.1485  -16.0223   21.8765 C   0  0  0  0  0  0  0  0  0  0  0  0
   10.2808  -15.5442   22.1539 O   0  0  0  0  0  0  0  0  0  0  0  0
    5.2049  -12.0410   25.0194 C   0  0  0  0  0  0  0  0  0  0  0  0
    5.6896  -13.1217   26.4188 S   0  0  0  0  0  0  0  0  0  0  0  0
    7.2786  -13.8934   25.9424 C   0  0  0  0  0  0  0  0  0  0  0  0
    7.0760  -14.5832   24.6179 C   0  0  0  0  0  0  0  0  0  0  0  0
    8.4545  -15.0350   24.0792 C   0  0  2  0  0  0  0  0  0  0  0  0
    8.1323  -15.7410   22.8375 N   0  0  0  0  0  0  0  0  0  0  0  0
    9.0457  -15.8622   25.1167 C   0  0  0  0  0  0  0  0  0  0  0  0
    8.7526  -17.1062   25.0793 O   0  0  0  0  0  0  0  0  0  0  0  0
   10.9007  -14.3515   30.1557 C   0  0  0  0  0  0  0  0  0  0  0  0
   10.2046  -15.0822   29.0275 C   0  0  0  0  0  0  0  0  0  0  0  0
   11.2596  -15.7608   28.1762 C   0  0  2  0  0  0  0  0  0  0  0  0
   12.2050  -14.7424   27.6296 C   0  0  0  0  0  0  0  0  0  0  0  0
   10.5360  -16.4503   27.0346 C   0  0  2  0  0  0  0  0  0  0  0  0
    9.9047  -15.4647   26.1611 N   0  0  0  0  0  0  0  0  0  0  0  0
    9.5065  -17.3853   27.4929 C   0  0  0  0  0  0  0  0  0  0  0  0
    9.9062  -18.6005   28.0498 O   0  0  0  0  0  0  0  0  0  0  0  0
    8.3059  -17.1070   27.3902 O   0  0  0  0  0  0  0  0  0  0  0  0
  2  1  1  6
  3  2  1  0
  4  2  1  0
  4  5  1  6
  6  4  1  0
  6  7  2  0
  9  8  1  0
  9 10  1  0
 10 11  1  0
 12 11  1  1
 12 14  1  0
 13 12  1  0
 13  6  1  0
 14 15  2  0
 17 18  1  0
 17 16  1  0
 18 20  1  0
 18 19  1  6
 20 22  1  0
 21 14  1  0
 20 21  1  6
 22 24  2  0
 22 23  1  0
M  END
$$$$
