VMI.pdb
     RDKit          3D

 24 23  0  0  1  0  0  0  0  0999 V2000
    7.1453  -13.8924   19.9219 C   0  0  0  0  0  0  0  0  0  0  0  0
    8.0295  -15.0806   19.6396 C   0  0  2  0  0  0  0  0  0  0  0  0
    8.3435  -15.0924   18.1613 C   0  0  0  0  0  0  0  0  0  0  0  0
    7.4825  -16.3920   20.1247 C   0  0  2  0  0  0  0  0  0  0  0  0
    6.4124  -16.7564   19.1652 N   0  0  0  0  0  0  0  0  0  0  0  0
    6.9663  -16.4051   21.4876 C   0  0  0  0  0  0  0  0  0  0  0  0
    5.9641  -15.7529   21.8846 O   0  0  0  0  0  0  0  0  0  0  0  0
    7.4110  -19.9500   28.4799 C   0  0  0  0  0  0  0  0  0  0  0  0
    7.9696  -19.9414   26.7338 S   0  0  0  0  0  0  0  0  0  0  0  0
    7.2506  -18.4401   25.9744 C   0  0  0  0  0  0  0  0  0  0  0  0
    7.6358  -18.4322   24.5174 C   0  0  0  0  0  0  0  0  0  0  0  0
    7.1875  -17.0887   23.8942 C   0  0  2  0  0  0  0  0  0  0  0  0
    7.5967  -17.1976   22.4925 N   0  0  0  0  0  0  0  0  0  0  0  0
    7.8610  -16.0455   24.6482 C   0  0  0  0  0  0  0  0  0  0  0  0
    9.1106  -15.9029   24.4181 O   0  0  0  0  0  0  0  0  0  0  0  0
    5.4805  -11.3976   26.2853 C   0  0  0  0  0  0  0  0  0  0  0  0
    6.4848  -12.3613   25.6904 C   0  0  0  0  0  0  0  0  0  0  0  0
    7.2137  -13.0519   26.8262 C   0  0  2  0  0  0  0  0  0  0  0  0
    8.0455  -12.0623   27.5735 C   0  0  0  0  0  0  0  0  0  0  0  0
    8.1103  -14.1066   26.2049 C   0  0  2  0  0  0  0  0  0  0  0  0
    7.3081  -15.1681   25.6027 N   0  0  0  0  0  0  0  0  0  0  0  0
    9.0292  -14.7149   27.1691 C   0  0  0  0  0  0  0  0  0  0  0  0
    8.6117  -15.8476   27.8688 O   0  0  0  0  0  0  0  0  0  0  0  0
   10.1535  -14.2374   27.3621 O   0  0  0  0  0  0  0  0  0  0  0  0
  2  1  1  6
  3  2  1  0
  4  2  1  0
  4  5  1  6
  6  4  1  0
  6  7  2  0
  9  8  1  0
  9 10  1  0
 10 11  1  0
 12 11  1  1
 12 14  1  0
 13 12  1  0
 13  6  1  0
 14 15  2  0
 17 18  1  0
 17 16  1  0
 18 20  1  0
 18 19  1  6
 20 22  1  0
 21 14  1  0
 20 21  1  1
 22 24  2  0
 22 23  1  0
M  END
$$$$
