VMI.pdb
     RDKit          3D

 24 23  0  0  1  0  0  0  0  0999 V2000
   11.0726  -18.2558   20.5479 C   0  0  0  0  0  0  0  0  0  0  0  0
    9.5731  -18.2086   20.3974 C   0  0  2  0  0  0  0  0  0  0  0  0
    9.1944  -19.0459   19.1976 C   0  0  0  0  0  0  0  0  0  0  0  0
    8.9973  -16.8232   20.3404 C   0  0  2  0  0  0  0  0  0  0  0  0
    9.5549  -16.2105   19.1108 N   0  0  0  0  0  0  0  0  0  0  0  0
    9.2609  -15.9726   21.4941 C   0  0  0  0  0  0  0  0  0  0  0  0
   10.3411  -15.3591   21.7049 O   0  0  0  0  0  0  0  0  0  0  0  0
    6.0121  -12.4675   26.1493 C   0  0  0  0  0  0  0  0  0  0  0  0
    5.6121  -12.3834   24.3621 S   0  0  0  0  0  0  0  0  0  0  0  0
    6.9645  -13.2577   23.4938 C   0  0  0  0  0  0  0  0  0  0  0  0
    7.2345  -14.5407   24.2371 C   0  0  0  0  0  0  0  0  0  0  0  0
    8.5887  -15.1153   23.7570 C   0  0  2  0  0  0  0  0  0  0  0  0
    8.2611  -15.7774   22.4928 N   0  0  0  0  0  0  0  0  0  0  0  0
    9.0503  -16.0031   24.8102 C   0  0  0  0  0  0  0  0  0  0  0  0
    9.4581  -17.1556   24.4356 O   0  0  0  0  0  0  0  0  0  0  0  0
   11.3525  -14.2437   30.1292 C   0  0  0  0  0  0  0  0  0  0  0  0
   11.4527  -15.2534   29.0059 C   0  0  0  0  0  0  0  0  0  0  0  0
   10.6173  -14.7569   27.8424 C   0  0  2  0  0  0  0  0  0  0  0  0
    9.3274  -14.1967   28.3444 C   0  0  0  0  0  0  0  0  0  0  0  0
   10.3415  -15.9520   26.9491 C   0  0  2  0  0  0  0  0  0  0  0  0
    9.1063  -15.7522   26.1960 N   0  0  0  0  0  0  0  0  0  0  0  0
   10.2283  -17.2076   27.6940 C   0  0  0  0  0  0  0  0  0  0  0  0
    8.9800  -17.8248   27.7797 O   0  0  0  0  0  0  0  0  0  0  0  0
   11.2171  -17.7140   28.2376 O   0  0  0  0  0  0  0  0  0  0  0  0
  2  1  1  6
  3  2  1  0
  4  2  1  0
  4  5  1  6
  6  4  1  0
  6  7  2  0
  9  8  1  0
  9 10  1  0
 10 11  1  0
 12 11  1  1
 12 14  1  0
 13 12  1  0
 13  6  1  0
 14 15  2  0
 17 18  1  0
 17 16  1  0
 18 20  1  0
 18 19  1  1
 20 22  1  0
 21 14  1  0
 20 21  1  1
 22 24  2  0
 22 23  1  0
M  END
$$$$
