VMI.pdb
     RDKit          3D

 24 23  0  0  1  0  0  0  0  0999 V2000
   10.0620  -18.5625   19.3066 C   0  0  0  0  0  0  0  0  0  0  0  0
   10.2076  -17.8402   20.6220 C   0  0  2  0  0  0  0  0  0  0  0  0
    9.7718  -18.7779   21.7242 C   0  0  0  0  0  0  0  0  0  0  0  0
    9.5092  -16.5126   20.6829 C   0  0  2  0  0  0  0  0  0  0  0  0
   10.1064  -15.6982   19.5974 N   0  0  0  0  0  0  0  0  0  0  0  0
    9.5936  -15.8028   21.9531 C   0  0  0  0  0  0  0  0  0  0  0  0
   10.6555  -15.3443   22.4529 O   0  0  0  0  0  0  0  0  0  0  0  0
    5.6171  -11.3668   25.3917 C   0  0  0  0  0  0  0  0  0  0  0  0
    5.3740  -13.1039   25.9253 S   0  0  0  0  0  0  0  0  0  0  0  0
    6.9972  -13.9275   25.7402 C   0  0  0  0  0  0  0  0  0  0  0  0
    7.0408  -14.5552   24.3707 C   0  0  0  0  0  0  0  0  0  0  0  0
    8.5097  -14.9068   24.0339 C   0  0  2  0  0  0  0  0  0  0  0  0
    8.4218  -15.5757   22.7344 N   0  0  0  0  0  0  0  0  0  0  0  0
    8.9873  -15.7437   25.1210 C   0  0  0  0  0  0  0  0  0  0  0  0
    9.0342  -16.9995   24.8852 O   0  0  0  0  0  0  0  0  0  0  0  0
   10.8128  -13.3625   29.5968 C   0  0  0  0  0  0  0  0  0  0  0  0
   10.9472  -14.1590   28.3166 C   0  0  0  0  0  0  0  0  0  0  0  0
   10.4884  -15.5783   28.5876 C   0  0  2  0  0  0  0  0  0  0  0  0
   11.5615  -16.3325   29.3013 C   0  0  0  0  0  0  0  0  0  0  0  0
   10.2189  -16.2247   27.2416 C   0  0  2  0  0  0  0  0  0  0  0  0
    9.4077  -15.3439   26.4056 N   0  0  0  0  0  0  0  0  0  0  0  0
    9.5324  -17.5132   27.3541 C   0  0  0  0  0  0  0  0  0  0  0  0
   10.2997  -18.6759   27.4318 O   0  0  0  0  0  0  0  0  0  0  0  0
    8.2974  -17.5737   27.3802 O   0  0  0  0  0  0  0  0  0  0  0  0
  2  1  1  6
  3  2  1  0
  4  2  1  0
  4  5  1  6
  6  4  1  0
  6  7  2  0
  9  8  1  0
  9 10  1  0
 10 11  1  0
 12 11  1  1
 12 14  1  0
 13 12  1  0
 13  6  1  0
 14 15  2  0
 17 18  1  0
 17 16  1  0
 18 20  1  0
 18 19  1  6
 20 22  1  0
 21 14  1  0
 20 21  1  6
 22 24  2  0
 22 23  1  0
M  END
$$$$
