VMI.pdb
     RDKit          3D

 24 23  0  0  1  0  0  0  0  0999 V2000
   10.0550  -19.2907   21.2958 C   0  0  0  0  0  0  0  0  0  0  0  0
    8.6199  -18.8634   21.1195 C   0  0  2  0  0  0  0  0  0  0  0  0
    7.9542  -19.8320   20.1693 C   0  0  0  0  0  0  0  0  0  0  0  0
    8.4441  -17.4319   20.7025 C   0  0  2  0  0  0  0  0  0  0  0  0
    9.1172  -17.3149   19.3866 N   0  0  0  0  0  0  0  0  0  0  0  0
    8.9593  -16.4286   21.6255 C   0  0  0  0  0  0  0  0  0  0  0  0
   10.1316  -15.9670   21.6069 O   0  0  0  0  0  0  0  0  0  0  0  0
    5.5174  -13.0102   26.8524 C   0  0  0  0  0  0  0  0  0  0  0  0
    6.2864  -12.0963   25.4614 S   0  0  0  0  0  0  0  0  0  0  0  0
    7.7874  -13.0354   25.0004 C   0  0  0  0  0  0  0  0  0  0  0  0
    7.3718  -14.1298   24.0513 C   0  0  0  0  0  0  0  0  0  0  0  0
    8.6385  -14.8825   23.5786 C   0  0  2  0  0  0  0  0  0  0  0  0
    8.1229  -15.8872   22.6466 N   0  0  0  0  0  0  0  0  0  0  0  0
    9.2617  -15.4216   24.7750 C   0  0  0  0  0  0  0  0  0  0  0  0
    8.6763  -16.4239   25.3112 O   0  0  0  0  0  0  0  0  0  0  0  0
   10.7634  -14.3075   30.2553 C   0  0  0  0  0  0  0  0  0  0  0  0
   11.1154  -15.2176   29.0981 C   0  0  0  0  0  0  0  0  0  0  0  0
   10.7008  -14.5336   27.8102 C   0  0  2  0  0  0  0  0  0  0  0  0
    9.2746  -14.1006   27.9003 C   0  0  0  0  0  0  0  0  0  0  0  0
   10.8560  -15.5507   26.6950 C   0  0  2  0  0  0  0  0  0  0  0  0
   10.4341  -14.9780   25.4195 N   0  0  0  0  0  0  0  0  0  0  0  0
   10.0863  -16.7745   26.9271 C   0  0  0  0  0  0  0  0  0  0  0  0
    8.9143  -16.9765   26.1975 O   0  0  0  0  0  0  0  0  0  0  0  0
   10.4642  -17.6147   27.7522 O   0  0  0  0  0  0  0  0  0  0  0  0
  2  1  1  6
  3  2  1  0
  4  2  1  0
  4  5  1  6
  6  4  1  0
  6  7  2  0
  9  8  1  0
  9 10  1  0
 10 11  1  0
 12 11  1  1
 12 14  1  0
 13 12  1  0
 13  6  1  0
 14 15  2  0
 17 18  1  0
 17 16  1  0
 18 20  1  0
 18 19  1  1
 20 22  1  0
 21 14  1  0
 20 21  1  6
 22 24  2  0
 22 23  1  0
M  END
$$$$
