VMI.pdb
     RDKit          3D

 24 23  0  0  1  0  0  0  0  0999 V2000
    7.7014  -14.4549   17.9428 C   0  0  0  0  0  0  0  0  0  0  0  0
    7.6529  -14.0458   19.3932 C   0  0  2  0  0  0  0  0  0  0  0  0
    7.9708  -12.5707   19.4766 C   0  0  0  0  0  0  0  0  0  0  0  0
    8.5135  -14.8748   20.3022 C   0  0  2  0  0  0  0  0  0  0  0  0
    7.9165  -16.2319   20.2873 N   0  0  0  0  0  0  0  0  0  0  0  0
    8.6454  -14.3949   21.6720 C   0  0  0  0  0  0  0  0  0  0  0  0
    9.3319  -13.3984   22.0232 O   0  0  0  0  0  0  0  0  0  0  0  0
    6.7849  -11.2587   26.4438 C   0  0  0  0  0  0  0  0  0  0  0  0
    5.6876  -12.6895   26.1122 S   0  0  0  0  0  0  0  0  0  0  0  0
    6.7602  -14.1716   26.1312 C   0  0  0  0  0  0  0  0  0  0  0  0
    6.7419  -14.7703   24.7483 C   0  0  0  0  0  0  0  0  0  0  0  0
    8.1495  -14.6173   24.1240 C   0  0  2  0  0  0  0  0  0  0  0  0
    7.9694  -15.0577   22.7392 N   0  0  0  0  0  0  0  0  0  0  0  0
    9.0393  -15.4467   24.9182 C   0  0  0  0  0  0  0  0  0  0  0  0
    8.6441  -16.6420   25.1414 O   0  0  0  0  0  0  0  0  0  0  0  0
   10.1559  -13.7472   29.4353 C   0  0  0  0  0  0  0  0  0  0  0  0
   10.5976  -14.1125   28.0343 C   0  0  0  0  0  0  0  0  0  0  0  0
   10.4425  -15.6105   27.8608 C   0  0  2  0  0  0  0  0  0  0  0  0
   11.2699  -16.3288   28.8752 C   0  0  0  0  0  0  0  0  0  0  0  0
   10.9347  -15.9514   26.4666 C   0  0  2  0  0  0  0  0  0  0  0  0
   10.2869  -15.0984   25.4738 N   0  0  0  0  0  0  0  0  0  0  0  0
   10.6925  -17.3485   26.1012 C   0  0  0  0  0  0  0  0  0  0  0  0
    9.3799  -17.7627   25.8727 O   0  0  0  0  0  0  0  0  0  0  0  0
   11.6299  -18.1483   25.9961 O   0  0  0  0  0  0  0  0  0  0  0  0
  2  1  1  6
  3  2  1  0
  4  2  1  0
  4  5  1  1
  6  4  1  0
  6  7  2  0
  9  8  1  0
  9 10  1  0
 10 11  1  0
 12 11  1  1
 12 14  1  0
 13 12  1  0
 13  6  1  0
 14 15  2  0
 17 18  1  0
 17 16  1  0
 18 20  1  0
 18 19  1  1
 20 22  1  0
 21 14  1  0
 20 21  1  6
 22 24  2  0
 22 23  1  0
M  END
$$$$
