VMI.pdb
     RDKit          3D

 24 23  0  0  1  0  0  0  0  0999 V2000
    8.7573  -19.6206   19.5806 C   0  0  0  0  0  0  0  0  0  0  0  0
    9.1047  -20.2907   20.8858 C   0  0  2  0  0  0  0  0  0  0  0  0
    8.3440  -21.5944   20.9620 C   0  0  0  0  0  0  0  0  0  0  0  0
    8.9012  -19.4310   22.0997 C   0  0  2  0  0  0  0  0  0  0  0  0
    7.4325  -19.3384   22.2803 N   0  0  0  0  0  0  0  0  0  0  0  0
    9.4896  -18.0987   22.0462 C   0  0  0  0  0  0  0  0  0  0  0  0
   10.7261  -17.8577   22.0210 O   0  0  0  0  0  0  0  0  0  0  0  0
    6.2269  -13.4489   19.7641 C   0  0  0  0  0  0  0  0  0  0  0  0
    7.5398  -12.2969   20.3213 S   0  0  0  0  0  0  0  0  0  0  0  0
    8.7584  -13.3128   21.2326 C   0  0  0  0  0  0  0  0  0  0  0  0
    8.2264  -14.7213   21.2971 C   0  0  0  0  0  0  0  0  0  0  0  0
    9.2422  -15.5994   22.0662 C   0  0  2  0  0  0  0  0  0  0  0  0
    8.6570  -16.9406   22.0150 N   0  0  0  0  0  0  0  0  0  0  0  0
    9.3470  -15.0288   23.3981 C   0  0  0  0  0  0  0  0  0  0  0  0
   10.1045  -14.0053   23.5134 O   0  0  0  0  0  0  0  0  0  0  0  0
    5.9363  -12.5655   25.7819 C   0  0  0  0  0  0  0  0  0  0  0  0
    7.2194  -13.2097   25.3020 C   0  0  0  0  0  0  0  0  0  0  0  0
    7.7169  -14.1462   26.3853 C   0  0  2  0  0  0  0  0  0  0  0  0
    8.0335  -13.3715   27.6219 C   0  0  0  0  0  0  0  0  0  0  0  0
    8.9779  -14.8063   25.8597 C   0  0  2  0  0  0  0  0  0  0  0  0
    8.7159  -15.4624   24.5815 N   0  0  0  0  0  0  0  0  0  0  0  0
    9.5293  -15.8005   26.7826 C   0  0  0  0  0  0  0  0  0  0  0  0
   10.3289  -15.3624   27.8387 O   0  0  0  0  0  0  0  0  0  0  0  0
    9.2932  -17.0051   26.6324 O   0  0  0  0  0  0  0  0  0  0  0  0
  2  1  1  6
  3  2  1  0
  4  2  1  0
  4  5  1  6
  6  4  1  0
  6  7  2  0
  9  8  1  0
  9 10  1  0
 10 11  1  0
 12 11  1  6
 12 14  1  0
 13 12  1  0
 13  6  1  0
 14 15  2  0
 17 18  1  0
 17 16  1  0
 18 20  1  0
 18 19  1  1
 20 22  1  0
 21 14  1  0
 20 21  1  6
 22 24  2  0
 22 23  1  0
M  END
$$$$
