VMI.pdb
     RDKit          3D

 24 23  0  0  1  0  0  0  0  0999 V2000
    9.9117  -18.8078   19.4202 C   0  0  0  0  0  0  0  0  0  0  0  0
   10.0183  -18.1122   20.7537 C   0  0  2  0  0  0  0  0  0  0  0  0
    9.3663  -18.9913   21.7960 C   0  0  0  0  0  0  0  0  0  0  0  0
    9.4863  -16.7083   20.7670 C   0  0  2  0  0  0  0  0  0  0  0  0
   10.2560  -15.9811   19.7292 N   0  0  0  0  0  0  0  0  0  0  0  0
    9.5659  -16.0058   22.0414 C   0  0  0  0  0  0  0  0  0  0  0  0
   10.6360  -15.6365   22.5948 O   0  0  0  0  0  0  0  0  0  0  0  0
    5.5447  -11.3023   25.6142 C   0  0  0  0  0  0  0  0  0  0  0  0
    5.2914  -13.1034   25.8446 S   0  0  0  0  0  0  0  0  0  0  0  0
    6.9400  -13.8778   25.6717 C   0  0  0  0  0  0  0  0  0  0  0  0
    7.0030  -14.5271   24.3131 C   0  0  0  0  0  0  0  0  0  0  0  0
    8.4565  -14.9892   24.0523 C   0  0  2  0  0  0  0  0  0  0  0  0
    8.3795  -15.6805   22.7638 N   0  0  0  0  0  0  0  0  0  0  0  0
    8.8236  -15.8321   25.1771 C   0  0  0  0  0  0  0  0  0  0  0  0
    8.7303  -17.0933   24.9888 O   0  0  0  0  0  0  0  0  0  0  0  0
   10.7555  -13.3563   29.5316 C   0  0  0  0  0  0  0  0  0  0  0  0
   10.9815  -14.1655   28.2724 C   0  0  0  0  0  0  0  0  0  0  0  0
   10.5419  -15.5921   28.5371 C   0  0  2  0  0  0  0  0  0  0  0  0
   11.6363  -16.3435   29.2206 C   0  0  0  0  0  0  0  0  0  0  0  0
   10.2514  -16.2265   27.1898 C   0  0  2  0  0  0  0  0  0  0  0  0
    9.2719  -15.4329   26.4524 N   0  0  0  0  0  0  0  0  0  0  0  0
    9.7445  -17.5958   27.3007 C   0  0  0  0  0  0  0  0  0  0  0  0
    8.4365  -17.7913   27.7450 O   0  0  0  0  0  0  0  0  0  0  0  0
   10.4584  -18.5621   27.0073 O   0  0  0  0  0  0  0  0  0  0  0  0
  2  1  1  6
  3  2  1  0
  4  2  1  0
  4  5  1  6
  6  4  1  0
  6  7  2  0
  9  8  1  0
  9 10  1  0
 10 11  1  0
 12 11  1  1
 12 14  1  0
 13 12  1  0
 13  6  1  0
 14 15  2  0
 17 18  1  0
 17 16  1  0
 18 20  1  0
 18 19  1  6
 20 22  1  0
 21 14  1  0
 20 21  1  1
 22 24  2  0
 22 23  1  0
M  END
$$$$
