VMI.pdb
     RDKit          3D

 24 23  0  0  1  0  0  0  0  0999 V2000
    7.1193  -13.7466   20.0302 C   0  0  0  0  0  0  0  0  0  0  0  0
    8.4470  -14.3569   19.6587 C   0  0  2  0  0  0  0  0  0  0  0  0
    8.3141  -14.9707   18.2840 C   0  0  0  0  0  0  0  0  0  0  0  0
    8.9935  -15.3209   20.6716 C   0  0  2  0  0  0  0  0  0  0  0  0
    8.2351  -16.5794   20.4732 N   0  0  0  0  0  0  0  0  0  0  0  0
    8.9167  -14.8979   22.0641 C   0  0  0  0  0  0  0  0  0  0  0  0
    9.6364  -14.0053   22.5866 O   0  0  0  0  0  0  0  0  0  0  0  0
    5.5393  -12.6553   25.3821 C   0  0  0  0  0  0  0  0  0  0  0  0
    6.6733  -13.5031   26.5467 S   0  0  0  0  0  0  0  0  0  0  0  0
    6.4027  -15.2969   26.3092 C   0  0  0  0  0  0  0  0  0  0  0  0
    6.5394  -15.5918   24.8376 C   0  0  0  0  0  0  0  0  0  0  0  0
    7.9345  -15.1173   24.3652 C   0  0  2  0  0  0  0  0  0  0  0  0
    7.9754  -15.4985   22.9521 N   0  0  0  0  0  0  0  0  0  0  0  0
    8.9026  -15.7959   25.2095 C   0  0  0  0  0  0  0  0  0  0  0  0
    9.4538  -16.8356   24.7095 O   0  0  0  0  0  0  0  0  0  0  0  0
   11.0333  -13.2725   29.5381 C   0  0  0  0  0  0  0  0  0  0  0  0
   10.7933  -13.9793   28.2212 C   0  0  0  0  0  0  0  0  0  0  0  0
   10.7672  -15.4729   28.4794 C   0  0  2  0  0  0  0  0  0  0  0  0
   12.1114  -15.9336   28.9382 C   0  0  0  0  0  0  0  0  0  0  0  0
   10.4176  -16.1467   27.1657 C   0  0  2  0  0  0  0  0  0  0  0  0
    9.3120  -15.4504   26.5132 N   0  0  0  0  0  0  0  0  0  0  0  0
   10.0443  -17.5534   27.3269 C   0  0  0  0  0  0  0  0  0  0  0  0
   11.0244  -18.5305   27.1501 O   0  0  0  0  0  0  0  0  0  0  0  0
    8.8846  -17.8729   27.6142 O   0  0  0  0  0  0  0  0  0  0  0  0
  2  1  1  1
  3  2  1  0
  4  2  1  0
  4  5  1  1
  6  4  1  0
  6  7  2  0
  9  8  1  0
  9 10  1  0
 10 11  1  0
 12 11  1  1
 12 14  1  0
 13 12  1  0
 13  6  1  0
 14 15  2  0
 17 18  1  0
 17 16  1  0
 18 20  1  0
 18 19  1  6
 20 22  1  0
 21 14  1  0
 20 21  1  1
 22 24  2  0
 22 23  1  0
M  END
$$$$
