VMI.pdb
     RDKit          3D

 24 23  0  0  1  0  0  0  0  0999 V2000
   11.5953  -18.2133   21.2258 C   0  0  0  0  0  0  0  0  0  0  0  0
   10.1517  -18.1006   20.8052 C   0  0  2  0  0  0  0  0  0  0  0  0
    9.9908  -18.8117   19.4814 C   0  0  0  0  0  0  0  0  0  0  0  0
    9.6206  -16.6966   20.7755 C   0  0  2  0  0  0  0  0  0  0  0  0
   10.4443  -15.9805   19.7720 N   0  0  0  0  0  0  0  0  0  0  0  0
    9.6333  -15.9806   22.0448 C   0  0  0  0  0  0  0  0  0  0  0  0
   10.6465  -15.4274   22.5497 O   0  0  0  0  0  0  0  0  0  0  0  0
    6.4648  -11.4853   25.7757 C   0  0  0  0  0  0  0  0  0  0  0  0
    5.5756  -13.0856   25.6770 S   0  0  0  0  0  0  0  0  0  0  0  0
    6.8498  -14.3891   25.8345 C   0  0  0  0  0  0  0  0  0  0  0  0
    6.9605  -15.0873   24.5035 C   0  0  0  0  0  0  0  0  0  0  0  0
    8.4533  -15.1523   24.1013 C   0  0  2  0  0  0  0  0  0  0  0  0
    8.4413  -15.8593   22.8192 N   0  0  0  0  0  0  0  0  0  0  0  0
    9.1347  -15.8503   25.1778 C   0  0  0  0  0  0  0  0  0  0  0  0
    9.2865  -17.1104   25.0236 O   0  0  0  0  0  0  0  0  0  0  0  0
   10.7282  -13.2473   29.7094 C   0  0  0  0  0  0  0  0  0  0  0  0
   10.8033  -13.9796   28.3867 C   0  0  0  0  0  0  0  0  0  0  0  0
   10.5537  -15.4529   28.6425 C   0  0  2  0  0  0  0  0  0  0  0  0
   11.6968  -16.0381   29.4044 C   0  0  0  0  0  0  0  0  0  0  0  0
   10.4437  -16.1284   27.2883 C   0  0  2  0  0  0  0  0  0  0  0  0
    9.6518  -15.3111   26.3730 N   0  0  0  0  0  0  0  0  0  0  0  0
    9.8354  -17.4583   27.3613 C   0  0  0  0  0  0  0  0  0  0  0  0
   10.6709  -18.5734   27.4341 O   0  0  0  0  0  0  0  0  0  0  0  0
    8.6062  -17.5946   27.3587 O   0  0  0  0  0  0  0  0  0  0  0  0
  2  1  1  6
  3  2  1  0
  4  2  1  0
  4  5  1  6
  6  4  1  0
  6  7  2  0
  9  8  1  0
  9 10  1  0
 10 11  1  0
 12 11  1  1
 12 14  1  0
 13 12  1  0
 13  6  1  0
 14 15  2  0
 17 18  1  0
 17 16  1  0
 18 20  1  0
 18 19  1  1
 20 22  1  0
 21 14  1  0
 20 21  1  6
 22 24  2  0
 22 23  1  0
M  END
$$$$
