VMI.pdb
     RDKit          3D

 24 23  0  0  1  0  0  0  0  0999 V2000
   11.7997  -17.2725   20.6762 C   0  0  0  0  0  0  0  0  0  0  0  0
   10.4257  -17.8925   20.7108 C   0  0  2  0  0  0  0  0  0  0  0  0
   10.2775  -18.7752   19.4929 C   0  0  0  0  0  0  0  0  0  0  0  0
    9.3020  -16.9067   20.8503 C   0  0  2  0  0  0  0  0  0  0  0  0
    9.3534  -16.0688   19.6283 N   0  0  0  0  0  0  0  0  0  0  0  0
    9.3313  -16.0672   22.0413 C   0  0  0  0  0  0  0  0  0  0  0  0
   10.2946  -15.3280   22.3780 O   0  0  0  0  0  0  0  0  0  0  0  0
    6.8489  -11.5426   25.6036 C   0  0  0  0  0  0  0  0  0  0  0  0
    5.7117  -12.9764   25.7142 S   0  0  0  0  0  0  0  0  0  0  0  0
    6.7686  -14.4494   25.9607 C   0  0  0  0  0  0  0  0  0  0  0  0
    6.8174  -15.2038   24.6569 C   0  0  0  0  0  0  0  0  0  0  0  0
    8.2907  -15.2948   24.1926 C   0  0  2  0  0  0  0  0  0  0  0  0
    8.2164  -16.0336   22.9307 N   0  0  0  0  0  0  0  0  0  0  0  0
    9.0115  -15.9727   25.2562 C   0  0  0  0  0  0  0  0  0  0  0  0
    9.0601  -17.2480   25.1785 O   0  0  0  0  0  0  0  0  0  0  0  0
   10.8267  -13.3256   29.6852 C   0  0  0  0  0  0  0  0  0  0  0  0
   10.8657  -14.0755   28.3709 C   0  0  0  0  0  0  0  0  0  0  0  0
   10.5464  -15.5323   28.6435 C   0  0  2  0  0  0  0  0  0  0  0  0
   11.6485  -16.1554   29.4352 C   0  0  0  0  0  0  0  0  0  0  0  0
   10.4312  -16.2230   27.2975 C   0  0  2  0  0  0  0  0  0  0  0  0
    9.6664  -15.3995   26.3649 N   0  0  0  0  0  0  0  0  0  0  0  0
    9.7907  -17.5370   27.3829 C   0  0  0  0  0  0  0  0  0  0  0  0
   10.5970  -18.6756   27.3880 O   0  0  0  0  0  0  0  0  0  0  0  0
    8.5600  -17.6396   27.4495 O   0  0  0  0  0  0  0  0  0  0  0  0
  2  1  1  6
  3  2  1  0
  4  2  1  0
  4  5  1  6
  6  4  1  0
  6  7  2  0
  9  8  1  0
  9 10  1  0
 10 11  1  0
 12 11  1  1
 12 14  1  0
 13 12  1  0
 13  6  1  0
 14 15  2  0
 17 18  1  0
 17 16  1  0
 18 20  1  0
 18 19  1  1
 20 22  1  0
 21 14  1  0
 20 21  1  6
 22 24  2  0
 22 23  1  0
M  END
$$$$
