VMI.pdb
     RDKit          3D

 24 23  0  0  1  0  0  0  0  0999 V2000
    7.2681  -14.0893   19.8264 C   0  0  0  0  0  0  0  0  0  0  0  0
    8.3841  -15.0670   19.5584 C   0  0  2  0  0  0  0  0  0  0  0  0
    8.0533  -15.8227   18.2921 C   0  0  0  0  0  0  0  0  0  0  0  0
    8.7023  -15.9780   20.7086 C   0  0  2  0  0  0  0  0  0  0  0  0
    7.5568  -16.9145   20.8034 N   0  0  0  0  0  0  0  0  0  0  0  0
    8.9338  -15.3298   21.9932 C   0  0  0  0  0  0  0  0  0  0  0  0
    9.9467  -14.6367   22.2783 O   0  0  0  0  0  0  0  0  0  0  0  0
    5.3539  -11.9899   24.9773 C   0  0  0  0  0  0  0  0  0  0  0  0
    5.5630  -12.8777   26.5677 S   0  0  0  0  0  0  0  0  0  0  0  0
    6.9557  -14.0392   26.3256 C   0  0  0  0  0  0  0  0  0  0  0  0
    6.8182  -14.6420   24.9512 C   0  0  0  0  0  0  0  0  0  0  0  0
    8.2320  -14.8429   24.3551 C   0  0  2  0  0  0  0  0  0  0  0  0
    7.9787  -15.4486   23.0463 N   0  0  0  0  0  0  0  0  0  0  0  0
    8.9518  -15.6892   25.2911 C   0  0  0  0  0  0  0  0  0  0  0  0
    9.1192  -16.9058   24.9352 O   0  0  0  0  0  0  0  0  0  0  0  0
   10.8524  -13.6686   29.9662 C   0  0  0  0  0  0  0  0  0  0  0  0
   10.9919  -14.2739   28.5857 C   0  0  0  0  0  0  0  0  0  0  0  0
   10.6301  -15.7437   28.6708 C   0  0  2  0  0  0  0  0  0  0  0  0
   11.7520  -16.5089   29.2915 C   0  0  0  0  0  0  0  0  0  0  0  0
   10.4041  -16.2302   27.2515 C   0  0  2  0  0  0  0  0  0  0  0  0
    9.4910  -15.3361   26.5446 N   0  0  0  0  0  0  0  0  0  0  0  0
    9.8566  -17.5870   27.1933 C   0  0  0  0  0  0  0  0  0  0  0  0
    8.4853  -17.7640   27.3799 O   0  0  0  0  0  0  0  0  0  0  0  0
   10.5917  -18.5591   26.9830 O   0  0  0  0  0  0  0  0  0  0  0  0
  2  1  1  1
  3  2  1  0
  4  2  1  0
  4  5  1  1
  6  4  1  0
  6  7  2  0
  9  8  1  0
  9 10  1  0
 10 11  1  0
 12 11  1  1
 12 14  1  0
 13 12  1  0
 13  6  1  0
 14 15  2  0
 17 18  1  0
 17 16  1  0
 18 20  1  0
 18 19  1  6
 20 22  1  0
 21 14  1  0
 20 21  1  1
 22 24  2  0
 22 23  1  0
M  END
$$$$
