VMI.pdb
     RDKit          3D

 24 23  0  0  1  0  0  0  0  0999 V2000
    9.9564  -18.5874   19.2560 C   0  0  0  0  0  0  0  0  0  0  0  0
   10.0774  -17.8666   20.5747 C   0  0  2  0  0  0  0  0  0  0  0  0
    9.5614  -18.7827   21.6604 C   0  0  0  0  0  0  0  0  0  0  0  0
    9.4295  -16.5125   20.6050 C   0  0  2  0  0  0  0  0  0  0  0  0
   10.0541  -15.7476   19.4990 N   0  0  0  0  0  0  0  0  0  0  0  0
    9.5440  -15.7762   21.8575 C   0  0  0  0  0  0  0  0  0  0  0  0
   10.6125  -15.2839   22.3087 O   0  0  0  0  0  0  0  0  0  0  0  0
    5.6002  -11.2219   25.3182 C   0  0  0  0  0  0  0  0  0  0  0  0
    5.4073  -12.9681   25.8427 S   0  0  0  0  0  0  0  0  0  0  0  0
    7.0459  -13.7519   25.6232 C   0  0  0  0  0  0  0  0  0  0  0  0
    7.0698  -14.3935   24.2597 C   0  0  0  0  0  0  0  0  0  0  0  0
    8.5150  -14.8553   23.9553 C   0  0  2  0  0  0  0  0  0  0  0  0
    8.3967  -15.5605   22.6776 N   0  0  0  0  0  0  0  0  0  0  0  0
    8.9216  -15.6854   25.0761 C   0  0  0  0  0  0  0  0  0  0  0  0
    8.8562  -16.9491   24.8928 O   0  0  0  0  0  0  0  0  0  0  0  0
   11.0142  -13.2924   29.5106 C   0  0  0  0  0  0  0  0  0  0  0  0
   11.0574  -14.0691   28.2120 C   0  0  0  0  0  0  0  0  0  0  0  0
   10.5541  -15.4739   28.4797 C   0  0  2  0  0  0  0  0  0  0  0  0
   11.5981  -16.2594   29.2027 C   0  0  0  0  0  0  0  0  0  0  0  0
   10.2769  -16.1128   27.1317 C   0  0  2  0  0  0  0  0  0  0  0  0
    9.3813  -15.2713   26.3425 N   0  0  0  0  0  0  0  0  0  0  0  0
    9.6779  -17.4443   27.2432 C   0  0  0  0  0  0  0  0  0  0  0  0
    8.3323  -17.5453   27.5979 O   0  0  0  0  0  0  0  0  0  0  0  0
   10.3479  -18.4612   27.0279 O   0  0  0  0  0  0  0  0  0  0  0  0
  2  1  1  6
  3  2  1  0
  4  2  1  0
  4  5  1  6
  6  4  1  0
  6  7  2  0
  9  8  1  0
  9 10  1  0
 10 11  1  0
 12 11  1  1
 12 14  1  0
 13 12  1  0
 13  6  1  0
 14 15  2  0
 17 18  1  0
 17 16  1  0
 18 20  1  0
 18 19  1  6
 20 22  1  0
 21 14  1  0
 20 21  1  6
 22 24  2  0
 22 23  1  0
M  END
$$$$
