TRW.pdb
     RDKit          3D

 33 34  0  0  1  0  0  0  0  0999 V2000
   29.2808  -22.9843  -16.9629 C   0  0  0  0  0  0  0  0  0  0  0  0
   28.4610  -22.1113  -16.0542 C   0  0  1  0  0  0  0  0  0  0  0  0
   29.1235  -20.9347  -15.7923 O   0  0  0  0  0  0  0  0  0  0  0  0
   27.0654  -21.8572  -16.5799 C   0  0  2  0  0  0  0  0  0  0  0  0
   27.1540  -21.2477  -17.8919 N   0  0  0  0  0  0  0  0  0  0  0  0
   26.3956  -20.9200  -15.6357 C   0  0  0  0  0  0  0  0  0  0  0  0
   25.9533  -19.7913  -16.0410 O   0  0  0  0  0  0  0  0  0  0  0  0
   21.6900  -17.4494  -16.8989 N   0  0  0  0  0  0  0  0  0  0  0  0
   20.9207  -18.5410  -16.4373 C   0  0  0  0  0  0  0  0  0  0  0  0
   19.9778  -19.0238  -17.1786 N   0  0  0  0  0  0  0  0  0  0  0  0
   21.1622  -19.1196  -15.1775 N   0  0  0  0  0  0  0  0  0  0  0  0
   22.1884  -18.5689  -14.3022 C   0  0  0  0  0  0  0  0  0  0  0  0
   23.5545  -19.0698  -14.6707 C   0  0  0  0  0  0  0  0  0  0  0  0
   23.8873  -20.3921  -14.0954 C   0  0  0  0  0  0  0  0  0  0  0  0
   25.2123  -20.5363  -13.4258 C   0  0  2  0  0  0  0  0  0  0  0  0
   26.2085  -21.2143  -14.2487 N   0  0  0  0  0  0  0  0  0  0  0  0
   25.1916  -21.0262  -12.0382 C   0  0  0  0  0  0  0  0  0  0  0  0
   24.8834  -22.2366  -11.7664 O   0  0  0  0  0  0  0  0  0  0  0  0
   19.3724  -19.7956  -16.8579 N   0  0  0  0  0  0  0  0  0  0  0  0
   25.5083  -20.2092  -10.9264 C   0  0  2  0  0  0  0  0  0  0  0  0
   25.4789  -20.7697   -9.5532 C   0  0  0  0  0  0  0  0  0  0  0  0
   26.6763  -20.1743   -8.8880 C   0  0  0  0  0  0  0  0  0  0  0  0
   26.8123  -20.4097   -7.4439 C   0  0  0  0  0  0  0  0  0  0  0  0
   26.0645  -21.3111   -6.6663 N   0  0  0  0  0  0  0  0  0  0  0  0
   26.4455  -21.2335   -5.3832 C   0  0  0  0  0  0  0  0  0  0  0  0
   27.4253  -20.3145   -5.2561 C   0  0  0  0  0  0  0  0  0  0  0  0
   28.1304  -19.9057   -4.1434 C   0  0  0  0  0  0  0  0  0  0  0  0
   29.0982  -18.9487   -4.3363 C   0  0  0  0  0  0  0  0  0  0  0  0
   29.3606  -18.4154   -5.5760 C   0  0  0  0  0  0  0  0  0  0  0  0
   28.6412  -18.8440   -6.6571 C   0  0  0  0  0  0  0  0  0  0  0  0
   27.6554  -19.8012   -6.5348 C   0  0  0  0  0  0  0  0  0  0  0  0
   24.1956  -20.4125   -8.9698 O   0  0  0  0  0  0  0  0  0  0  0  0
   23.5520  -19.4289   -9.3883 O   0  0  0  0  0  0  0  0  0  0  0  0
  2  3  1  0
  2  1  1  6
  4  2  1  0
  4  5  1  6
  6  7  2  0
  6  4  1  0
  8  9  1  0
  9 11  1  0
 10  9  2  0
 11 12  1  0
 13 12  1  0
 13 14  1  0
 15 14  1  6
 15 16  1  0
 16  6  1  0
 17 15  1  0
 18 17  2  0
 19 17  1  0
 20 31  1  0
 20 19  1  0
 20 21  1  6
 21 22  1  0
 22 30  1  0
 22 23  2  0
 23 24  1  0
 25 24  1  0
 25 26  2  0
 27 26  1  0
 28 27  2  0
 29 30  2  0
 29 28  1  0
 30 25  1  0
 31 33  1  0
 32 31  2  0
M  END
$$$$
