TRW.pdb
     RDKit          3D

 33 34  0  0  1  0  0  0  0  0999 V2000
   26.4334  -23.4362  -18.9335 C   0  0  0  0  0  0  0  0  0  0  0  0
   26.6069  -22.8543  -17.5582 C   0  0  1  0  0  0  0  0  0  0  0  0
   25.9913  -23.6489  -16.6194 O   0  0  0  0  0  0  0  0  0  0  0  0
   28.0549  -22.5968  -17.2040 C   0  0  2  0  0  0  0  0  0  0  0  0
   28.7924  -23.8422  -17.2786 N   0  0  0  0  0  0  0  0  0  0  0  0
   28.0882  -22.0770  -15.8085 C   0  0  0  0  0  0  0  0  0  0  0  0
   28.4585  -22.8270  -14.8419 O   0  0  0  0  0  0  0  0  0  0  0  0
   26.1799  -17.3018  -18.1968 N   0  0  0  0  0  0  0  0  0  0  0  0
   25.6176  -16.4201  -17.2464 C   0  0  0  0  0  0  0  0  0  0  0  0
   24.4371  -15.9303  -17.4415 N   0  0  0  0  0  0  0  0  0  0  0  0
   26.3211  -16.0622  -16.0814 N   0  0  0  0  0  0  0  0  0  0  0  0
   27.3853  -16.9188  -15.5751 C   0  0  0  0  0  0  0  0  0  0  0  0
   26.8699  -17.8971  -14.5601 C   0  0  0  0  0  0  0  0  0  0  0  0
   27.9132  -18.7757  -13.9856 C   0  0  0  0  0  0  0  0  0  0  0  0
   27.7062  -20.2489  -14.0929 C   0  0  2  0  0  0  0  0  0  0  0  0
   27.7171  -20.7386  -15.4675 N   0  0  0  0  0  0  0  0  0  0  0  0
   26.6038  -20.8120  -13.2971 C   0  0  0  0  0  0  0  0  0  0  0  0
   25.3868  -20.5038  -13.5377 O   0  0  0  0  0  0  0  0  0  0  0  0
   23.9756  -15.3245  -16.7450 N   0  0  0  0  0  0  0  0  0  0  0  0
   26.8073  -21.7201  -12.2304 C   0  0  2  0  0  0  0  0  0  0  0  0
   26.1867  -21.4706  -10.9063 C   0  0  0  0  0  0  0  0  0  0  0  0
   27.3088  -20.9546  -10.0664 C   0  0  0  0  0  0  0  0  0  0  0  0
   26.9546  -20.4494   -8.7327 C   0  0  0  0  0  0  0  0  0  0  0  0
   25.6669  -20.1199   -8.2747 N   0  0  0  0  0  0  0  0  0  0  0  0
   25.7321  -19.6648   -7.0154 C   0  0  0  0  0  0  0  0  0  0  0  0
   27.0148  -19.6723   -6.5964 C   0  0  0  0  0  0  0  0  0  0  0  0
   27.5624  -19.3109   -5.3833 C   0  0  0  0  0  0  0  0  0  0  0  0
   28.9234  -19.4502   -5.2481 C   0  0  0  0  0  0  0  0  0  0  0  0
   29.7132  -19.9262   -6.2678 C   0  0  0  0  0  0  0  0  0  0  0  0
   29.1360  -20.2743   -7.4575 C   0  0  0  0  0  0  0  0  0  0  0  0
   27.7764  -20.1595   -7.6613 C   0  0  0  0  0  0  0  0  0  0  0  0
   25.0837  -20.5461  -11.1151 O   0  0  0  0  0  0  0  0  0  0  0  0
   25.2577  -19.4638  -11.7109 O   0  0  0  0  0  0  0  0  0  0  0  0
  2  3  1  0
  2  1  1  6
  4  2  1  0
  4  5  1  1
  6  7  2  0
  6  4  1  0
  8  9  1  0
  9 11  1  0
 10  9  2  0
 11 12  1  0
 13 12  1  0
 13 14  1  0
 15 14  1  6
 15 16  1  0
 16  6  1  0
 17 15  1  0
 18 17  2  0
 19 17  1  0
 20 31  1  0
 20 19  1  0
 20 21  1  6
 21 22  1  0
 22 30  1  0
 22 23  2  0
 23 24  1  0
 25 24  1  0
 25 26  2  0
 27 26  1  0
 28 27  2  0
 29 30  2  0
 29 28  1  0
 30 25  1  0
 31 33  1  0
 32 31  2  0
M  END
$$$$
