TRW.pdb
     RDKit          3D

 33 34  0  0  1  0  0  0  0  0999 V2000
   27.6830  -18.7341  -14.6053 C   0  0  0  0  0  0  0  0  0  0  0  0
   27.6971  -19.1634  -16.0460 C   0  0  1  0  0  0  0  0  0  0  0  0
   28.6898  -18.5051  -16.7336 O   0  0  0  0  0  0  0  0  0  0  0  0
   27.8056  -20.6628  -16.2146 C   0  0  2  0  0  0  0  0  0  0  0  0
   28.0397  -20.9695  -17.6116 N   0  0  0  0  0  0  0  0  0  0  0  0
   26.5103  -21.2565  -15.7810 C   0  0  0  0  0  0  0  0  0  0  0  0
   25.4161  -20.6121  -15.9273 O   0  0  0  0  0  0  0  0  0  0  0  0
   22.0848  -28.2946  -14.5353 N   0  0  0  0  0  0  0  0  0  0  0  0
   23.2175  -28.3601  -15.3776 C   0  0  0  0  0  0  0  0  0  0  0  0
   23.7554  -29.5048  -15.6459 N   0  0  0  0  0  0  0  0  0  0  0  0
   23.7764  -27.1957  -15.9363 N   0  0  0  0  0  0  0  0  0  0  0  0
   23.1512  -25.8998  -15.7078 C   0  0  0  0  0  0  0  0  0  0  0  0
   23.7450  -25.2031  -14.5183 C   0  0  0  0  0  0  0  0  0  0  0  0
   25.0619  -24.5803  -14.7796 C   0  0  0  0  0  0  0  0  0  0  0  0
   25.1503  -23.0945  -14.6839 C   0  0  2  0  0  0  0  0  0  0  0  0
   26.4087  -22.5536  -15.1872 N   0  0  0  0  0  0  0  0  0  0  0  0
   24.7482  -22.4988  -13.3997 C   0  0  0  0  0  0  0  0  0  0  0  0
   23.6970  -22.8906  -12.7867 O   0  0  0  0  0  0  0  0  0  0  0  0
   24.6163  -29.5847  -16.2094 N   0  0  0  0  0  0  0  0  0  0  0  0
   25.4834  -21.4712  -12.7615 C   0  0  1  0  0  0  0  0  0  0  0  0
   25.0192  -20.9107  -11.4689 C   0  0  0  0  0  0  0  0  0  0  0  0
   26.1155  -19.9845  -11.0556 C   0  0  0  0  0  0  0  0  0  0  0  0
   27.1879  -20.5596  -10.2318 C   0  0  0  0  0  0  0  0  0  0  0  0
   28.2118  -21.4189  -10.6674 N   0  0  0  0  0  0  0  0  0  0  0  0
   28.9909  -21.7634   -9.6322 C   0  0  0  0  0  0  0  0  0  0  0  0
   28.5384  -21.1711   -8.5074 C   0  0  0  0  0  0  0  0  0  0  0  0
   29.0197  -21.2170   -7.2157 C   0  0  0  0  0  0  0  0  0  0  0  0
   28.3440  -20.4793   -6.2728 C   0  0  0  0  0  0  0  0  0  0  0  0
   27.2379  -19.7269   -6.5899 C   0  0  0  0  0  0  0  0  0  0  0  0
   26.7882  -19.7056   -7.8810 C   0  0  0  0  0  0  0  0  0  0  0  0
   27.4184  -20.4225   -8.8770 C   0  0  0  0  0  0  0  0  0  0  0  0
   23.7283  -20.2858  -11.7093 O   0  0  0  0  0  0  0  0  0  0  0  0
   23.3971  -19.9175  -12.8545 O   0  0  0  0  0  0  0  0  0  0  0  0
  2  3  1  0
  2  1  1  1
  4  2  1  0
  4  5  1  6
  6  7  2  0
  6  4  1  0
  8  9  1  0
  9 11  1  0
 10  9  2  0
 11 12  1  0
 13 12  1  0
 13 14  1  0
 15 14  1  1
 15 16  1  0
 16  6  1  0
 17 15  1  0
 18 17  2  0
 19 17  1  0
 20 31  1  0
 20 19  1  0
 20 21  1  1
 21 22  1  0
 22 30  1  0
 22 23  2  0
 23 24  1  0
 25 24  1  0
 25 26  2  0
 27 26  1  0
 28 27  2  0
 29 30  2  0
 29 28  1  0
 30 25  1  0
 31 33  1  0
 32 31  2  0
M  END
$$$$
