TRW.pdb
     RDKit          3D

 33 34  0  0  1  0  0  0  0  0999 V2000
   20.1286  -17.6645  -12.8076 C   0  0  0  0  0  0  0  0  0  0  0  0
   21.2087  -18.6682  -12.5141 C   0  0  1  0  0  0  0  0  0  0  0  0
   21.6388  -18.5443  -11.2136 O   0  0  0  0  0  0  0  0  0  0  0  0
   20.7964  -20.0891  -12.8294 C   0  0  2  0  0  0  0  0  0  0  0  0
   19.7249  -20.4836  -11.9368 N   0  0  0  0  0  0  0  0  0  0  0  0
   21.9836  -20.9598  -12.6034 C   0  0  0  0  0  0  0  0  0  0  0  0
   22.1923  -21.4944  -11.4613 O   0  0  0  0  0  0  0  0  0  0  0  0
   28.9535  -25.5389  -15.7108 N   0  0  0  0  0  0  0  0  0  0  0  0
   27.6236  -26.0067  -15.8065 C   0  0  0  0  0  0  0  0  0  0  0  0
   27.3867  -27.2777  -15.8125 N   0  0  0  0  0  0  0  0  0  0  0  0
   26.5423  -25.1105  -15.8947 N   0  0  0  0  0  0  0  0  0  0  0  0
   26.7504  -23.6860  -15.6714 C   0  0  0  0  0  0  0  0  0  0  0  0
   26.1217  -23.2315  -14.3865 C   0  0  0  0  0  0  0  0  0  0  0  0
   24.8287  -22.5331  -14.5618 C   0  0  0  0  0  0  0  0  0  0  0  0
   24.2067  -21.9246  -13.3504 C   0  0  2  0  0  0  0  0  0  0  0  0
   22.9436  -21.2471  -13.6238 N   0  0  0  0  0  0  0  0  0  0  0  0
   25.0992  -21.1367  -12.4852 C   0  0  0  0  0  0  0  0  0  0  0  0
   25.3740  -19.9168  -12.7507 O   0  0  0  0  0  0  0  0  0  0  0  0
   26.4271  -27.6538  -15.8643 N   0  0  0  0  0  0  0  0  0  0  0  0
   25.7038  -21.6617  -11.3179 C   0  0  2  0  0  0  0  0  0  0  0  0
   26.6679  -20.8439  -10.5418 C   0  0  0  0  0  0  0  0  0  0  0  0
   26.2946  -21.0904   -9.1168 C   0  0  0  0  0  0  0  0  0  0  0  0
   26.9806  -20.2740   -8.1057 C   0  0  0  0  0  0  0  0  0  0  0  0
   27.0468  -18.8703   -8.0642 N   0  0  0  0  0  0  0  0  0  0  0  0
   27.7821  -18.4781   -7.0141 C   0  0  0  0  0  0  0  0  0  0  0  0
   28.2191  -19.5604   -6.3371 C   0  0  0  0  0  0  0  0  0  0  0  0
   28.9866  -19.6521   -5.1947 C   0  0  0  0  0  0  0  0  0  0  0  0
   29.2557  -20.9157   -4.7250 C   0  0  0  0  0  0  0  0  0  0  0  0
   28.7876  -22.0440   -5.3559 C   0  0  0  0  0  0  0  0  0  0  0  0
   28.0300  -21.9152   -6.4870 C   0  0  0  0  0  0  0  0  0  0  0  0
   27.7225  -20.6775   -7.0129 C   0  0  0  0  0  0  0  0  0  0  0  0
   28.0033  -21.2751  -10.9232 O   0  0  0  0  0  0  0  0  0  0  0  0
   28.2008  -22.4160  -11.3884 O   0  0  0  0  0  0  0  0  0  0  0  0
  2  3  1  0
  2  1  1  1
  4  2  1  0
  4  5  1  1
  6  7  2  0
  6  4  1  0
  8  9  1  0
  9 11  1  0
 10  9  2  0
 11 12  1  0
 13 12  1  0
 13 14  1  0
 15 14  1  6
 15 16  1  0
 16  6  1  0
 17 15  1  0
 18 17  2  0
 19 17  1  0
 20 31  1  0
 20 19  1  0
 20 21  1  1
 21 22  1  0
 22 30  1  0
 22 23  2  0
 23 24  1  0
 25 24  1  0
 25 26  2  0
 27 26  1  0
 28 27  2  0
 29 30  2  0
 29 28  1  0
 30 25  1  0
 31 33  1  0
 32 31  2  0
M  END
$$$$
