TRW.pdb
     RDKit          3D

 33 34  0  0  1  0  0  0  0  0999 V2000
   32.1415  -20.5151   -9.7371 C   0  0  0  0  0  0  0  0  0  0  0  0
   30.7019  -20.6272  -10.1557 C   0  0  1  0  0  0  0  0  0  0  0  0
   30.5498  -20.2303  -11.4637 O   0  0  0  0  0  0  0  0  0  0  0  0
   30.1248  -22.0061   -9.9234 C   0  0  2  0  0  0  0  0  0  0  0  0
   30.8990  -22.9785  -10.6689 N   0  0  0  0  0  0  0  0  0  0  0  0
   28.7215  -21.9934  -10.4224 C   0  0  0  0  0  0  0  0  0  0  0  0
   28.4156  -22.5659  -11.5235 O   0  0  0  0  0  0  0  0  0  0  0  0
   21.5112  -19.4812  -10.6514 N   0  0  0  0  0  0  0  0  0  0  0  0
   21.0033  -20.7438  -10.2714 C   0  0  0  0  0  0  0  0  0  0  0  0
   20.0872  -21.3112  -10.9858 N   0  0  0  0  0  0  0  0  0  0  0  0
   21.4789  -21.4029   -9.1226 N   0  0  0  0  0  0  0  0  0  0  0  0
   22.8229  -21.1363   -8.6277 C   0  0  0  0  0  0  0  0  0  0  0  0
   23.8416  -21.2167   -9.7273 C   0  0  0  0  0  0  0  0  0  0  0  0
   25.2412  -21.0924   -9.2627 C   0  0  0  0  0  0  0  0  0  0  0  0
   26.3177  -21.1961  -10.2899 C   0  0  2  0  0  0  0  0  0  0  0  0
   27.6515  -21.3555   -9.7198 N   0  0  0  0  0  0  0  0  0  0  0  0
   26.2785  -20.2055  -11.3776 C   0  0  0  0  0  0  0  0  0  0  0  0
   26.6466  -18.9962  -11.1874 O   0  0  0  0  0  0  0  0  0  0  0  0
   19.7098  -22.2424  -10.7501 N   0  0  0  0  0  0  0  0  0  0  0  0
   25.8418  -20.5150  -12.6881 C   0  0  2  0  0  0  0  0  0  0  0  0
   25.7768  -19.4561  -13.7250 C   0  0  0  0  0  0  0  0  0  0  0  0
   27.2055  -19.1963  -14.0744 C   0  0  0  0  0  0  0  0  0  0  0  0
   27.4573  -18.1731  -15.0986 C   0  0  0  0  0  0  0  0  0  0  0  0
   26.9488  -16.8626  -15.1186 N   0  0  0  0  0  0  0  0  0  0  0  0
   27.3681  -16.2262  -16.2216 C   0  0  0  0  0  0  0  0  0  0  0  0
   28.1440  -17.0521  -16.9541 C   0  0  0  0  0  0  0  0  0  0  0  0
   28.8039  -16.8375  -18.1461 C   0  0  0  0  0  0  0  0  0  0  0  0
   29.5447  -17.8826  -18.6448 C   0  0  0  0  0  0  0  0  0  0  0  0
   29.6314  -19.0912  -17.9952 C   0  0  0  0  0  0  0  0  0  0  0  0
   28.9631  -19.2687  -16.8155 C   0  0  0  0  0  0  0  0  0  0  0  0
   28.2013  -18.2623  -16.2588 C   0  0  0  0  0  0  0  0  0  0  0  0
   24.9492  -19.9638  -14.8076 O   0  0  0  0  0  0  0  0  0  0  0  0
   24.7429  -21.1875  -14.9379 O   0  0  0  0  0  0  0  0  0  0  0  0
  2  3  1  0
  2  1  1  6
  4  2  1  0
  4  5  1  6
  6  7  2  0
  6  4  1  0
  8  9  1  0
  9 11  1  0
 10  9  2  0
 11 12  1  0
 13 12  1  0
 13 14  1  0
 15 14  1  1
 15 16  1  0
 16  6  1  0
 17 15  1  0
 18 17  2  0
 19 17  1  0
 20 31  1  0
 20 19  1  0
 20 21  1  6
 21 22  1  0
 22 30  1  0
 22 23  2  0
 23 24  1  0
 25 24  1  0
 25 26  2  0
 27 26  1  0
 28 27  2  0
 29 30  2  0
 29 28  1  0
 30 25  1  0
 31 33  1  0
 32 31  2  0
M  END
$$$$
