TRW.pdb
     RDKit          3D

 33 34  0  0  1  0  0  0  0  0999 V2000
   27.3168  -20.1188  -20.6744 C   0  0  0  0  0  0  0  0  0  0  0  0
   26.8694  -20.0981  -19.2393 C   0  0  1  0  0  0  0  0  0  0  0  0
   27.7789  -20.7544  -18.4432 O   0  0  0  0  0  0  0  0  0  0  0  0
   26.5897  -18.7022  -18.7277 C   0  0  2  0  0  0  0  0  0  0  0  0
   27.8096  -17.9215  -18.7816 N   0  0  0  0  0  0  0  0  0  0  0  0
   26.1358  -18.8265  -17.3145 C   0  0  0  0  0  0  0  0  0  0  0  0
   26.9462  -18.6170  -16.3485 O   0  0  0  0  0  0  0  0  0  0  0  0
   18.0457  -19.2040  -14.1321 N   0  0  0  0  0  0  0  0  0  0  0  0
   18.9024  -18.6805  -15.1265 C   0  0  0  0  0  0  0  0  0  0  0  0
   18.4063  -18.0243  -16.1239 N   0  0  0  0  0  0  0  0  0  0  0  0
   20.2963  -18.8588  -15.0524 N   0  0  0  0  0  0  0  0  0  0  0  0
   20.8791  -19.6410  -13.9704 C   0  0  0  0  0  0  0  0  0  0  0  0
   22.3786  -19.6444  -14.0380 C   0  0  0  0  0  0  0  0  0  0  0  0
   22.9240  -19.2318  -15.3504 C   0  0  0  0  0  0  0  0  0  0  0  0
   24.3871  -19.4152  -15.5747 C   0  0  2  0  0  0  0  0  0  0  0  0
   24.7974  -19.1798  -16.9552 N   0  0  0  0  0  0  0  0  0  0  0  0
   24.9870  -20.6311  -15.0025 C   0  0  0  0  0  0  0  0  0  0  0  0
   24.7925  -21.7789  -15.5306 O   0  0  0  0  0  0  0  0  0  0  0  0
   19.0029  -17.6230  -16.8642 N   0  0  0  0  0  0  0  0  0  0  0  0
   25.8091  -20.6174  -13.8501 C   0  0  2  0  0  0  0  0  0  0  0  0
   26.2997  -21.8895  -13.2655 C   0  0  0  0  0  0  0  0  0  0  0  0
   27.3905  -21.4695  -12.3358 C   0  0  0  0  0  0  0  0  0  0  0  0
   27.0015  -21.1951  -10.9456 C   0  0  0  0  0  0  0  0  0  0  0  0
   26.8904  -22.1331   -9.9043 N   0  0  0  0  0  0  0  0  0  0  0  0
   26.4841  -21.5238   -8.7813 C   0  0  0  0  0  0  0  0  0  0  0  0
   26.3150  -20.2059   -9.0164 C   0  0  0  0  0  0  0  0  0  0  0  0
   25.9263  -19.1883   -8.1705 C   0  0  0  0  0  0  0  0  0  0  0  0
   25.8634  -17.9235   -8.7054 C   0  0  0  0  0  0  0  0  0  0  0  0
   26.1709  -17.6715  -10.0215 C   0  0  0  0  0  0  0  0  0  0  0  0
   26.5519  -18.7051  -10.8316 C   0  0  0  0  0  0  0  0  0  0  0  0
   26.6359  -19.9988  -10.3601 C   0  0  0  0  0  0  0  0  0  0  0  0
   25.1610  -22.5436  -12.6407 O   0  0  0  0  0  0  0  0  0  0  0  0
   24.2113  -21.8777  -12.1809 O   0  0  0  0  0  0  0  0  0  0  0  0
  2  3  1  0
  2  1  1  6
  4  2  1  0
  4  5  1  1
  6  7  2  0
  6  4  1  0
  8  9  1  0
  9 11  1  0
 10  9  2  0
 11 12  1  0
 13 12  1  0
 13 14  1  0
 15 14  1  6
 15 16  1  0
 16  6  1  0
 17 15  1  0
 18 17  2  0
 19 17  1  0
 20 31  1  0
 20 19  1  0
 20 21  1  6
 21 22  1  0
 22 30  1  0
 22 23  2  0
 23 24  1  0
 25 24  1  0
 25 26  2  0
 27 26  1  0
 28 27  2  0
 29 30  2  0
 29 28  1  0
 30 25  1  0
 31 33  1  0
 32 31  2  0
M  END
$$$$
