TRW.pdb
     RDKit          3D

 33 34  0  0  1  0  0  0  0  0999 V2000
   22.9749  -20.1232  -14.2250 C   0  0  0  0  0  0  0  0  0  0  0  0
   23.8981  -19.2689  -15.0484 C   0  0  1  0  0  0  0  0  0  0  0  0
   24.4640  -18.2858  -14.2707 O   0  0  0  0  0  0  0  0  0  0  0  0
   24.9506  -20.0721  -15.7803 C   0  0  2  0  0  0  0  0  0  0  0  0
   24.2990  -21.0292  -16.6521 N   0  0  0  0  0  0  0  0  0  0  0  0
   25.7552  -20.7939  -14.7555 C   0  0  0  0  0  0  0  0  0  0  0  0
   25.3338  -21.8887  -14.2479 O   0  0  0  0  0  0  0  0  0  0  0  0
   33.1832  -22.3017  -10.2731 N   0  0  0  0  0  0  0  0  0  0  0  0
   33.1133  -22.8280  -11.5826 C   0  0  0  0  0  0  0  0  0  0  0  0
   33.8481  -23.8402  -11.9101 N   0  0  0  0  0  0  0  0  0  0  0  0
   32.2523  -22.2697  -12.5455 N   0  0  0  0  0  0  0  0  0  0  0  0
   31.4786  -21.0755  -12.2328 C   0  0  0  0  0  0  0  0  0  0  0  0
   30.0104  -21.3760  -12.1486 C   0  0  0  0  0  0  0  0  0  0  0  0
   29.2027  -20.7398  -13.2132 C   0  0  0  0  0  0  0  0  0  0  0  0
   27.7250  -20.9365  -13.1647 C   0  0  2  0  0  0  0  0  0  0  0  0
   27.0198  -20.3208  -14.2840 N   0  0  0  0  0  0  0  0  0  0  0  0
   27.0748  -20.6765  -11.8703 C   0  0  0  0  0  0  0  0  0  0  0  0
   26.8860  -19.4840  -11.4503 O   0  0  0  0  0  0  0  0  0  0  0  0
   33.8276  -24.2451  -12.8591 N   0  0  0  0  0  0  0  0  0  0  0  0
   26.6178  -21.7077  -11.0150 C   0  0  1  0  0  0  0  0  0  0  0  0
   25.9459  -21.3757   -9.7348 C   0  0  0  0  0  0  0  0  0  0  0  0
   27.0439  -20.8494   -8.8698 C   0  0  0  0  0  0  0  0  0  0  0  0
   26.6847  -20.5034   -7.4875 C   0  0  0  0  0  0  0  0  0  0  0  0
   25.4165  -20.6279   -6.8936 N   0  0  0  0  0  0  0  0  0  0  0  0
   25.4592  -20.1880   -5.6279 C   0  0  0  0  0  0  0  0  0  0  0  0
   26.7081  -19.7693   -5.3354 C   0  0  0  0  0  0  0  0  0  0  0  0
   27.2294  -19.2558   -4.1662 C   0  0  0  0  0  0  0  0  0  0  0  0
   28.5655  -18.9326   -4.1691 C   0  0  0  0  0  0  0  0  0  0  0  0
   29.3565  -19.1080   -5.2798 C   0  0  0  0  0  0  0  0  0  0  0  0
   28.8057  -19.6190   -6.4223 C   0  0  0  0  0  0  0  0  0  0  0  0
   27.4717  -19.9643   -6.4888 C   0  0  0  0  0  0  0  0  0  0  0  0
   24.8814  -20.4328  -10.0391 O   0  0  0  0  0  0  0  0  0  0  0  0
   25.0565  -19.5109  -10.8615 O   0  0  0  0  0  0  0  0  0  0  0  0
  2  3  1  0
  2  1  1  1
  4  2  1  0
  4  5  1  6
  6  7  2  0
  6  4  1  0
  8  9  1  0
  9 11  1  0
 10  9  2  0
 11 12  1  0
 13 12  1  0
 13 14  1  0
 15 14  1  1
 15 16  1  0
 16  6  1  0
 17 15  1  0
 18 17  2  0
 19 17  1  0
 20 31  1  0
 20 19  1  0
 20 21  1  1
 21 22  1  0
 22 30  1  0
 22 23  2  0
 23 24  1  0
 25 24  1  0
 25 26  2  0
 27 26  1  0
 28 27  2  0
 29 30  2  0
 29 28  1  0
 30 25  1  0
 31 33  1  0
 32 31  2  0
M  END
$$$$
