TRW.pdb
     RDKit          3D

 33 34  0  0  1  0  0  0  0  0999 V2000
   20.2379  -21.8158  -15.1440 C   0  0  0  0  0  0  0  0  0  0  0  0
   21.5167  -21.9740  -14.3695 C   0  0  1  0  0  0  0  0  0  0  0  0
   21.2491  -22.3305  -13.0683 O   0  0  0  0  0  0  0  0  0  0  0  0
   22.4863  -22.9356  -15.0202 C   0  0  2  0  0  0  0  0  0  0  0  0
   21.9414  -24.2772  -14.9577 N   0  0  0  0  0  0  0  0  0  0  0  0
   23.7602  -22.8754  -14.2506 C   0  0  0  0  0  0  0  0  0  0  0  0
   24.0535  -23.7857  -13.4027 O   0  0  0  0  0  0  0  0  0  0  0  0
   29.6206  -21.1727  -16.1232 N   0  0  0  0  0  0  0  0  0  0  0  0
   28.9091  -20.0253  -16.5403 C   0  0  0  0  0  0  0  0  0  0  0  0
   28.6342  -19.8577  -17.7925 N   0  0  0  0  0  0  0  0  0  0  0  0
   28.4885  -19.0538  -15.6132 N   0  0  0  0  0  0  0  0  0  0  0  0
   28.7916  -19.2118  -14.1971 C   0  0  0  0  0  0  0  0  0  0  0  0
   27.6616  -19.8714  -13.4615 C   0  0  0  0  0  0  0  0  0  0  0  0
   27.0257  -20.9824  -14.2042 C   0  0  0  0  0  0  0  0  0  0  0  0
   25.8857  -21.6845  -13.5468 C   0  0  2  0  0  0  0  0  0  0  0  0
   24.7141  -21.8213  -14.4060 N   0  0  0  0  0  0  0  0  0  0  0  0
   25.5443  -21.2409  -12.1858 C   0  0  0  0  0  0  0  0  0  0  0  0
   24.5779  -20.4313  -11.9745 O   0  0  0  0  0  0  0  0  0  0  0  0
   28.1270  -19.0261  -18.1334 N   0  0  0  0  0  0  0  0  0  0  0  0
   26.2459  -21.6725  -11.0345 C   0  0  2  0  0  0  0  0  0  0  0  0
   25.9122  -21.1138   -9.7014 C   0  0  0  0  0  0  0  0  0  0  0  0
   27.1910  -21.2042   -8.9350 C   0  0  0  0  0  0  0  0  0  0  0  0
   27.2586  -20.4499   -7.6757 C   0  0  0  0  0  0  0  0  0  0  0  0
   26.2766  -19.5853   -7.1614 N   0  0  0  0  0  0  0  0  0  0  0  0
   26.6970  -19.0519   -6.0055 C   0  0  0  0  0  0  0  0  0  0  0  0
   27.9277  -19.5203   -5.7112 C   0  0  0  0  0  0  0  0  0  0  0  0
   28.7461  -19.2693   -4.6297 C   0  0  0  0  0  0  0  0  0  0  0  0
   29.9559  -19.9214   -4.5995 C   0  0  0  0  0  0  0  0  0  0  0  0
   30.3439  -20.7861   -5.5955 C   0  0  0  0  0  0  0  0  0  0  0  0
   29.5071  -21.0107   -6.6534 C   0  0  0  0  0  0  0  0  0  0  0  0
   28.2790  -20.3892   -6.7470 C   0  0  0  0  0  0  0  0  0  0  0  0
   25.4026  -19.7684   -9.9136 O   0  0  0  0  0  0  0  0  0  0  0  0
   25.9450  -18.9985  -10.7322 O   0  0  0  0  0  0  0  0  0  0  0  0
  2  3  1  0
  2  1  1  6
  4  2  1  0
  4  5  1  1
  6  7  2  0
  6  4  1  0
  8  9  1  0
  9 11  1  0
 10  9  2  0
 11 12  1  0
 13 12  1  0
 13 14  1  0
 15 14  1  6
 15 16  1  0
 16  6  1  0
 17 15  1  0
 18 17  2  0
 19 17  1  0
 20 31  1  0
 20 19  1  0
 20 21  1  6
 21 22  1  0
 22 30  1  0
 22 23  2  0
 23 24  1  0
 25 24  1  0
 25 26  2  0
 27 26  1  0
 28 27  2  0
 29 30  2  0
 29 28  1  0
 30 25  1  0
 31 33  1  0
 32 31  2  0
M  END
$$$$
