TRW.pdb
     RDKit          3D

 33 34  0  0  1  0  0  0  0  0999 V2000
   32.5704  -24.8784  -14.7486 C   0  0  0  0  0  0  0  0  0  0  0  0
   31.3122  -25.1218  -15.5346 C   0  0  1  0  0  0  0  0  0  0  0  0
   31.0298  -24.0403  -16.3360 O   0  0  0  0  0  0  0  0  0  0  0  0
   31.3527  -26.4072  -16.3311 C   0  0  2  0  0  0  0  0  0  0  0  0
   32.3800  -26.3054  -17.3484 N   0  0  0  0  0  0  0  0  0  0  0  0
   30.0214  -26.5747  -16.9778 C   0  0  0  0  0  0  0  0  0  0  0  0
   29.8120  -26.1397  -18.1614 O   0  0  0  0  0  0  0  0  0  0  0  0
   29.1692  -32.6195  -15.9829 N   0  0  0  0  0  0  0  0  0  0  0  0
   27.8568  -32.2901  -15.5756 C   0  0  0  0  0  0  0  0  0  0  0  0
   27.4354  -32.6502  -14.4076 N   0  0  0  0  0  0  0  0  0  0  0  0
   26.9921  -31.5709  -16.4213 N   0  0  0  0  0  0  0  0  0  0  0  0
   27.4375  -31.1578  -17.7455 C   0  0  0  0  0  0  0  0  0  0  0  0
   27.9911  -29.7627  -17.7307 C   0  0  0  0  0  0  0  0  0  0  0  0
   27.1400  -28.7837  -17.0184 C   0  0  0  0  0  0  0  0  0  0  0  0
   27.6134  -27.3702  -16.9681 C   0  0  2  0  0  0  0  0  0  0  0  0
   28.9181  -27.2166  -16.3328 N   0  0  0  0  0  0  0  0  0  0  0  0
   26.6356  -26.3711  -16.5083 C   0  0  0  0  0  0  0  0  0  0  0  0
   26.4725  -26.1258  -15.2644 O   0  0  0  0  0  0  0  0  0  0  0  0
   26.4664  -32.4746  -14.0989 N   0  0  0  0  0  0  0  0  0  0  0  0
   25.8230  -25.6222  -17.3930 C   0  0  2  0  0  0  0  0  0  0  0  0
   24.8083  -24.6799  -16.8609 C   0  0  0  0  0  0  0  0  0  0  0  0
   24.4394  -23.8357  -18.0365 C   0  0  0  0  0  0  0  0  0  0  0  0
   23.3434  -22.8767  -17.8403 C   0  0  0  0  0  0  0  0  0  0  0  0
   23.4219  -21.6346  -17.1865 N   0  0  0  0  0  0  0  0  0  0  0  0
   22.2168  -21.0472  -17.1746 C   0  0  0  0  0  0  0  0  0  0  0  0
   21.3196  -21.8404  -17.7962 C   0  0  0  0  0  0  0  0  0  0  0  0
   19.9751  -21.6521  -18.0393 C   0  0  0  0  0  0  0  0  0  0  0  0
   19.3207  -22.6477  -18.7251 C   0  0  0  0  0  0  0  0  0  0  0  0
   19.9653  -23.7838  -19.1539 C   0  0  0  0  0  0  0  0  0  0  0  0
   21.2991  -23.9373  -18.8945 C   0  0  0  0  0  0  0  0  0  0  0  0
   22.0168  -22.9777  -18.2110 C   0  0  0  0  0  0  0  0  0  0  0  0
   23.7304  -25.4792  -16.3005 O   0  0  0  0  0  0  0  0  0  0  0  0
   23.4868  -26.6230  -16.7355 O   0  0  0  0  0  0  0  0  0  0  0  0
  2  3  1  0
  2  1  1  6
  4  2  1  0
  4  5  1  6
  6  7  2  0
  6  4  1  0
  8  9  1  0
  9 11  1  0
 10  9  2  0
 11 12  1  0
 13 12  1  0
 13 14  1  0
 15 14  1  1
 15 16  1  0
 16  6  1  0
 17 15  1  0
 18 17  2  0
 19 17  1  0
 20 31  1  0
 20 19  1  0
 20 21  1  6
 21 22  1  0
 22 30  1  0
 22 23  2  0
 23 24  1  0
 25 24  1  0
 25 26  2  0
 27 26  1  0
 28 27  2  0
 29 30  2  0
 29 28  1  0
 30 25  1  0
 31 33  1  0
 32 31  2  0
M  END
$$$$
