TRW.pdb
     RDKit          3D

 33 34  0  0  1  0  0  0  0  0999 V2000
   28.9548  -21.6483  -15.3731 C   0  0  0  0  0  0  0  0  0  0  0  0
   29.0663  -20.4969  -16.3333 C   0  0  1  0  0  0  0  0  0  0  0  0
   29.7967  -20.8633  -17.4396 O   0  0  0  0  0  0  0  0  0  0  0  0
   27.7233  -19.9190  -16.7213 C   0  0  2  0  0  0  0  0  0  0  0  0
   27.9294  -18.7614  -17.5687 N   0  0  0  0  0  0  0  0  0  0  0  0
   27.0349  -19.5059  -15.4667 C   0  0  0  0  0  0  0  0  0  0  0  0
   27.3092  -18.3886  -14.9098 O   0  0  0  0  0  0  0  0  0  0  0  0
   20.0503  -20.9409  -11.7575 N   0  0  0  0  0  0  0  0  0  0  0  0
   20.0662  -19.7788  -12.5611 C   0  0  0  0  0  0  0  0  0  0  0  0
   19.3397  -18.7602  -12.2352 N   0  0  0  0  0  0  0  0  0  0  0  0
   20.8642  -19.7057  -13.7179 N   0  0  0  0  0  0  0  0  0  0  0  0
   21.6792  -20.8445  -14.1196 C   0  0  0  0  0  0  0  0  0  0  0  0
   23.0084  -20.8448  -13.4224 C   0  0  0  0  0  0  0  0  0  0  0  0
   23.8846  -19.7116  -13.7943 C   0  0  0  0  0  0  0  0  0  0  0  0
   25.3537  -19.8889  -13.6070 C   0  0  2  0  0  0  0  0  0  0  0  0
   26.0471  -20.3124  -14.8192 N   0  0  0  0  0  0  0  0  0  0  0  0
   25.7725  -20.6477  -12.4176 C   0  0  0  0  0  0  0  0  0  0  0  0
   25.7285  -21.9250  -12.3959 O   0  0  0  0  0  0  0  0  0  0  0  0
   19.3505  -17.8848  -12.7817 N   0  0  0  0  0  0  0  0  0  0  0  0
   26.2476  -20.0300  -11.2358 C   0  0  2  0  0  0  0  0  0  0  0  0
   26.2443  -20.7710   -9.9507 C   0  0  0  0  0  0  0  0  0  0  0  0
   27.0446  -19.9104   -9.0288 C   0  0  0  0  0  0  0  0  0  0  0  0
   27.0770  -20.3117   -7.6156 C   0  0  0  0  0  0  0  0  0  0  0  0
   26.2835  -21.2986   -7.0048 N   0  0  0  0  0  0  0  0  0  0  0  0
   26.5687  -21.3698   -5.6968 C   0  0  0  0  0  0  0  0  0  0  0  0
   27.5270  -20.4702   -5.3921 C   0  0  0  0  0  0  0  0  0  0  0  0
   28.1445  -20.1921   -4.1906 C   0  0  0  0  0  0  0  0  0  0  0  0
   29.1140  -19.2175   -4.1994 C   0  0  0  0  0  0  0  0  0  0  0  0
   29.4610  -18.5435   -5.3463 C   0  0  0  0  0  0  0  0  0  0  0  0
   28.8271  -18.8449   -6.5199 C   0  0  0  0  0  0  0  0  0  0  0  0
   27.8449  -19.8115   -6.5823 C   0  0  0  0  0  0  0  0  0  0  0  0
   24.8544  -20.9710   -9.5726 O   0  0  0  0  0  0  0  0  0  0  0  0
   23.9831  -20.1255   -9.8604 O   0  0  0  0  0  0  0  0  0  0  0  0
  2  3  1  0
  2  1  1  1
  4  2  1  0
  4  5  1  6
  6  7  2  0
  6  4  1  0
  8  9  1  0
  9 11  1  0
 10  9  2  0
 11 12  1  0
 13 12  1  0
 13 14  1  0
 15 14  1  6
 15 16  1  0
 16  6  1  0
 17 15  1  0
 18 17  2  0
 19 17  1  0
 20 31  1  0
 20 19  1  0
 20 21  1  6
 21 22  1  0
 22 30  1  0
 22 23  2  0
 23 24  1  0
 25 24  1  0
 25 26  2  0
 27 26  1  0
 28 27  2  0
 29 30  2  0
 29 28  1  0
 30 25  1  0
 31 33  1  0
 32 31  2  0
M  END
$$$$
