TRW.pdb
     RDKit          3D

 33 34  0  0  1  0  0  0  0  0999 V2000
   19.9862  -27.5085  -10.2979 C   0  0  0  0  0  0  0  0  0  0  0  0
   20.6085  -28.2706  -11.4346 C   0  0  1  0  0  0  0  0  0  0  0  0
   21.0693  -29.4912  -10.9992 O   0  0  0  0  0  0  0  0  0  0  0  0
   19.6842  -28.4181  -12.6230 C   0  0  2  0  0  0  0  0  0  0  0  0
   20.3907  -29.0894  -13.6958 N   0  0  0  0  0  0  0  0  0  0  0  0
   19.2946  -27.0483  -13.0592 C   0  0  0  0  0  0  0  0  0  0  0  0
   20.0613  -26.3627  -13.8182 O   0  0  0  0  0  0  0  0  0  0  0  0
   13.3654  -27.8097  -11.6862 N   0  0  0  0  0  0  0  0  0  0  0  0
   13.2314  -27.0901  -10.4775 C   0  0  0  0  0  0  0  0  0  0  0  0
   12.8178  -27.6931   -9.4112 N   0  0  0  0  0  0  0  0  0  0  0  0
   13.5428  -25.7195  -10.4091 N   0  0  0  0  0  0  0  0  0  0  0  0
   14.1486  -25.0473  -11.5508 C   0  0  0  0  0  0  0  0  0  0  0  0
   15.5812  -25.4559  -11.7350 C   0  0  0  0  0  0  0  0  0  0  0  0
   16.2792  -24.7338  -12.8220 C   0  0  0  0  0  0  0  0  0  0  0  0
   17.7149  -25.0643  -13.0549 C   0  0  2  0  0  0  0  0  0  0  0  0
   18.0681  -26.4260  -12.6669 N   0  0  0  0  0  0  0  0  0  0  0  0
   18.6961  -24.0689  -12.5943 C   0  0  0  0  0  0  0  0  0  0  0  0
   19.0957  -24.0434  -11.3802 O   0  0  0  0  0  0  0  0  0  0  0  0
   12.7285  -27.2035   -8.5071 N   0  0  0  0  0  0  0  0  0  0  0  0
   19.2596  -23.0888  -13.4462 C   0  0  1  0  0  0  0  0  0  0  0  0
   20.2951  -22.1581  -12.9344 C   0  0  0  0  0  0  0  0  0  0  0  0
   21.4946  -22.4442  -13.7769 C   0  0  0  0  0  0  0  0  0  0  0  0
   21.5596  -21.7696  -15.0808 C   0  0  0  0  0  0  0  0  0  0  0  0
   21.6193  -20.3833  -15.3064 N   0  0  0  0  0  0  0  0  0  0  0  0
   21.6387  -20.1348  -16.6237 C   0  0  0  0  0  0  0  0  0  0  0  0
   21.5956  -21.2986  -17.3052 C   0  0  0  0  0  0  0  0  0  0  0  0
   21.6098  -21.5422  -18.6627 C   0  0  0  0  0  0  0  0  0  0  0  0
   21.5748  -22.8578  -19.0598 C   0  0  0  0  0  0  0  0  0  0  0  0
   21.5271  -23.8922  -18.1554 C   0  0  0  0  0  0  0  0  0  0  0  0
   21.5135  -23.6134  -16.8168 C   0  0  0  0  0  0  0  0  0  0  0  0
   21.5465  -22.3159  -16.3492 C   0  0  0  0  0  0  0  0  0  0  0  0
   19.7572  -20.8116  -13.0467 O   0  0  0  0  0  0  0  0  0  0  0  0
   18.6868  -20.5966  -13.6507 O   0  0  0  0  0  0  0  0  0  0  0  0
  2  3  1  0
  2  1  1  1
  4  2  1  0
  4  5  1  6
  6  7  2  0
  6  4  1  0
  8  9  1  0
  9 11  1  0
 10  9  2  0
 11 12  1  0
 13 12  1  0
 13 14  1  0
 15 14  1  1
 15 16  1  0
 16  6  1  0
 17 15  1  0
 18 17  2  0
 19 17  1  0
 20 31  1  0
 20 19  1  0
 20 21  1  1
 21 22  1  0
 22 30  1  0
 22 23  2  0
 23 24  1  0
 25 24  1  0
 25 26  2  0
 27 26  1  0
 28 27  2  0
 29 30  2  0
 29 28  1  0
 30 25  1  0
 31 33  1  0
 32 31  2  0
M  END
$$$$
