KLK.pdb
     RDKit          3D

 27 26  0  0  1  0  0  0  0  0999 V2000
    7.5948  -15.0394   20.8323 N   0  0  0  0  0  0  0  0  0  0  0  0
    7.1631  -15.7440   22.0171 C   0  0  1  0  0  0  0  0  0  0  0  0
    7.4287  -17.2125   21.7744 C   0  0  0  0  0  0  0  0  0  0  0  0
    6.4784  -17.6903   20.7051 C   0  0  0  0  0  0  0  0  0  0  0  0
    6.5483  -19.1723   20.4861 C   0  0  0  0  0  0  0  0  0  0  0  0
    5.4902  -19.6340   19.5071 C   0  0  0  0  0  0  0  0  0  0  0  0
    5.5267  -21.0556   19.2902 N   0  0  0  0  0  0  0  0  0  0  0  0
    7.9491  -15.2310   23.1722 C   0  0  0  0  0  0  0  0  0  0  0  0
    9.1813  -15.0583   23.0131 O   0  0  0  0  0  0  0  0  0  0  0  0
    7.3759  -11.4778   25.3134 C   0  0  0  0  0  0  0  0  0  0  0  0
    6.3009  -12.5340   25.6262 C   0  0  2  0  0  0  0  0  0  0  0  0
    5.2310  -11.9418   26.4855 C   0  0  0  0  0  0  0  0  0  0  0  0
    6.9657  -13.6699   26.3192 C   0  0  0  0  0  0  0  0  0  0  0  0
    7.9908  -14.4129   25.5526 C   0  0  2  0  0  0  0  0  0  0  0  0
    7.2924  -14.9646   24.3758 N   0  0  0  0  0  0  0  0  0  0  0  0
    8.6145  -15.5753   26.2148 C   0  0  0  0  0  0  0  0  0  0  0  0
    7.9488  -16.6519   26.4392 O   0  0  0  0  0  0  0  0  0  0  0  0
    9.9647  -15.5735   26.6318 N   0  0  0  0  0  0  0  0  0  0  0  0
   10.4946  -16.7849   27.2939 C   0  0  1  0  0  0  0  0  0  0  0  0
   11.5184  -17.4259   26.3818 C   0  0  0  0  0  0  0  0  0  0  0  0
   12.5247  -16.4366   25.9407 C   0  0  0  0  0  0  0  0  0  0  0  0
   13.5783  -16.9187   25.0062 C   0  0  0  0  0  0  0  0  0  0  0  0
   14.5318  -15.9105   24.4846 C   0  0  0  0  0  0  0  0  0  0  0  0
   15.5705  -16.4902   23.6663 N   0  0  0  0  0  0  0  0  0  0  0  0
   11.0105  -16.3838   28.6106 C   0  0  0  0  0  0  0  0  0  0  0  0
   10.9467  -15.1252   29.1510 O   0  0  0  0  0  0  0  0  0  0  0  0
   11.5828  -17.2589   29.3560 O   0  0  0  0  0  0  0  0  0  0  0  0
  2  1  1  6
  2  3  1  0
  4  3  1  0
  4  5  1  0
  5  6  1  0
  6  7  1  0
  8  2  1  0
  9  8  2  0
 11 10  1  1
 12 11  1  0
 13 11  1  0
 14 13  1  1
 14 15  1  0
 15  8  1  0
 16 14  1  0
 16 17  2  0
 18 16  1  0
 19 18  1  0
 19 20  1  6
 21 20  1  0
 22 21  1  0
 22 23  1  0
 24 23  1  0
 25 26  1  0
 25 19  1  0
 27 25  2  0
M  END
$$$$
