KLK.pdb
     RDKit          3D

 27 26  0  0  1  0  0  0  0  0999 V2000
    7.3143  -17.0973   21.7353 N   0  0  0  0  0  0  0  0  0  0  0  0
    8.6169  -16.5734   21.3957 C   0  0  1  0  0  0  0  0  0  0  0  0
    8.5216  -16.0458   19.9819 C   0  0  0  0  0  0  0  0  0  0  0  0
    8.0231  -17.1616   19.0979 C   0  0  0  0  0  0  0  0  0  0  0  0
    8.0323  -16.7979   17.6430 C   0  0  0  0  0  0  0  0  0  0  0  0
    7.3593  -17.8641   16.8054 C   0  0  0  0  0  0  0  0  0  0  0  0
    7.3325  -17.5273   15.4071 N   0  0  0  0  0  0  0  0  0  0  0  0
    8.9454  -15.4895   22.3614 C   0  0  0  0  0  0  0  0  0  0  0  0
   10.0477  -14.9046   22.2343 O   0  0  0  0  0  0  0  0  0  0  0  0
    5.4320  -12.3308   26.1753 C   0  0  0  0  0  0  0  0  0  0  0  0
    6.9095  -12.5598   25.8094 C   0  0  2  0  0  0  0  0  0  0  0  0
    7.5461  -11.2698   25.4041 C   0  0  0  0  0  0  0  0  0  0  0  0
    6.9558  -13.5440   24.6951 C   0  0  0  0  0  0  0  0  0  0  0  0
    8.2798  -14.1166   24.3637 C   0  0  2  0  0  0  0  0  0  0  0  0
    8.0242  -15.1684   23.3610 N   0  0  0  0  0  0  0  0  0  0  0  0
    9.0136  -14.7889   25.4539 C   0  0  0  0  0  0  0  0  0  0  0  0
    9.2300  -14.1990   26.5755 O   0  0  0  0  0  0  0  0  0  0  0  0
    9.5113  -16.1057   25.3307 N   0  0  0  0  0  0  0  0  0  0  0  0
   10.3298  -16.6509   26.4349 C   0  0  1  0  0  0  0  0  0  0  0  0
    9.5984  -17.8281   27.0434 C   0  0  0  0  0  0  0  0  0  0  0  0
    9.7115  -19.0230   26.1801 C   0  0  0  0  0  0  0  0  0  0  0  0
    9.0371  -20.2625   26.6540 C   0  0  0  0  0  0  0  0  0  0  0  0
    9.1430  -21.4622   25.7896 C   0  0  0  0  0  0  0  0  0  0  0  0
    8.4692  -22.6135   26.3417 N   0  0  0  0  0  0  0  0  0  0  0  0
   11.6582  -16.9676   25.8910 C   0  0  0  0  0  0  0  0  0  0  0  0
   12.0172  -16.9269   24.5682 O   0  0  0  0  0  0  0  0  0  0  0  0
   12.5984  -17.3215   26.6909 O   0  0  0  0  0  0  0  0  0  0  0  0
  2  1  1  1
  2  3  1  0
  4  3  1  0
  4  5  1  0
  5  6  1  0
  6  7  1  0
  8  2  1  0
  9  8  2  0
 11 10  1  6
 12 11  1  0
 13 11  1  0
 14 13  1  1
 14 15  1  0
 15  8  1  0
 16 14  1  0
 16 17  2  0
 18 16  1  0
 19 18  1  0
 19 20  1  6
 21 20  1  0
 22 21  1  0
 22 23  1  0
 24 23  1  0
 25 26  1  0
 25 19  1  0
 27 25  2  0
M  END
$$$$
