KLK.pdb
     RDKit          3D

 27 26  0  0  1  0  0  0  0  0999 V2000
    7.4376  -15.6536   21.0098 N   0  0  0  0  0  0  0  0  0  0  0  0
    8.6456  -14.8721   20.8824 C   0  0  1  0  0  0  0  0  0  0  0  0
    8.3333  -13.7343   19.9370 C   0  0  0  0  0  0  0  0  0  0  0  0
    7.8377  -14.3247   18.6406 C   0  0  0  0  0  0  0  0  0  0  0  0
    8.1335  -13.4544   17.4555 C   0  0  0  0  0  0  0  0  0  0  0  0
    7.6839  -14.1087   16.1668 C   0  0  0  0  0  0  0  0  0  0  0  0
    7.9907  -13.3103   15.0102 N   0  0  0  0  0  0  0  0  0  0  0  0
    9.0173  -14.3718   22.2340 C   0  0  0  0  0  0  0  0  0  0  0  0
   10.1396  -13.8283   22.3704 O   0  0  0  0  0  0  0  0  0  0  0  0
    5.7425  -12.7164   27.0147 C   0  0  0  0  0  0  0  0  0  0  0  0
    7.1924  -13.0220   26.5979 C   0  0  2  0  0  0  0  0  0  0  0  0
    8.0373  -11.7968   26.7350 C   0  0  0  0  0  0  0  0  0  0  0  0
    7.1715  -13.4931   25.1872 C   0  0  0  0  0  0  0  0  0  0  0  0
    8.4203  -14.0902   24.6633 C   0  0  2  0  0  0  0  0  0  0  0  0
    8.1127  -14.5247   23.2872 N   0  0  0  0  0  0  0  0  0  0  0  0
    8.9278  -15.2958   25.3474 C   0  0  0  0  0  0  0  0  0  0  0  0
    9.0910  -15.3207   26.6223 O   0  0  0  0  0  0  0  0  0  0  0  0
    9.2558  -16.4798   24.6491 N   0  0  0  0  0  0  0  0  0  0  0  0
    9.7485  -17.6372   25.4263 C   0  0  1  0  0  0  0  0  0  0  0  0
    9.6570  -18.8754   24.5605 C   0  0  0  0  0  0  0  0  0  0  0  0
   10.1643  -20.0621   25.2816 C   0  0  0  0  0  0  0  0  0  0  0  0
   10.2581  -21.3307   24.5086 C   0  0  0  0  0  0  0  0  0  0  0  0
   10.7190  -22.5352   25.2397 C   0  0  0  0  0  0  0  0  0  0  0  0
    9.6982  -23.1014   26.0893 N   0  0  0  0  0  0  0  0  0  0  0  0
   11.1036  -17.3148   25.8958 C   0  0  0  0  0  0  0  0  0  0  0  0
   11.6496  -17.6879   27.0970 O   0  0  0  0  0  0  0  0  0  0  0  0
   11.8813  -16.6205   25.1460 O   0  0  0  0  0  0  0  0  0  0  0  0
  2  1  1  1
  2  3  1  0
  4  3  1  0
  4  5  1  0
  5  6  1  0
  6  7  1  0
  8  2  1  0
  9  8  2  0
 11 10  1  6
 12 11  1  0
 13 11  1  0
 14 13  1  1
 14 15  1  0
 15  8  1  0
 16 14  1  0
 16 17  2  0
 18 16  1  0
 19 18  1  0
 19 20  1  6
 21 20  1  0
 22 21  1  0
 22 23  1  0
 24 23  1  0
 25 26  1  0
 25 19  1  0
 27 25  2  0
M  END
$$$$
