KLK.pdb
     RDKit          3D

 27 26  0  0  1  0  0  0  0  0999 V2000
    8.5717  -16.4125   20.5988 N   0  0  0  0  0  0  0  0  0  0  0  0
    7.9536  -16.7278   21.8656 C   0  0  1  0  0  0  0  0  0  0  0  0
    8.3500  -18.1468   22.2050 C   0  0  0  0  0  0  0  0  0  0  0  0
    7.7660  -19.0602   21.1565 C   0  0  0  0  0  0  0  0  0  0  0  0
    8.0585  -20.5075   21.4190 C   0  0  0  0  0  0  0  0  0  0  0  0
    7.5253  -21.3865   20.3081 C   0  0  0  0  0  0  0  0  0  0  0  0
    7.7608  -22.7842   20.5538 N   0  0  0  0  0  0  0  0  0  0  0  0
    8.4593  -15.7627   22.8797 C   0  0  0  0  0  0  0  0  0  0  0  0
    9.6871  -15.5060   22.8844 O   0  0  0  0  0  0  0  0  0  0  0  0
    5.5336  -12.1089   26.8074 C   0  0  0  0  0  0  0  0  0  0  0  0
    6.9358  -12.6351   26.4524 C   0  0  2  0  0  0  0  0  0  0  0  0
    7.8582  -11.4938   26.1690 C   0  0  0  0  0  0  0  0  0  0  0  0
    6.8041  -13.5152   25.2605 C   0  0  0  0  0  0  0  0  0  0  0  0
    7.9928  -14.3126   24.8838 C   0  0  2  0  0  0  0  0  0  0  0  0
    7.5577  -15.1862   23.7773 N   0  0  0  0  0  0  0  0  0  0  0  0
    8.5424  -15.2245   25.9061 C   0  0  0  0  0  0  0  0  0  0  0  0
    7.8638  -16.2261   26.3409 O   0  0  0  0  0  0  0  0  0  0  0  0
    9.8327  -15.0538   26.4566 N   0  0  0  0  0  0  0  0  0  0  0  0
   10.2987  -16.0305   27.4643 C   0  0  1  0  0  0  0  0  0  0  0  0
   11.4673  -16.8004   26.8873 C   0  0  0  0  0  0  0  0  0  0  0  0
   11.9886  -17.7792   27.8650 C   0  0  0  0  0  0  0  0  0  0  0  0
   13.1489  -18.6070   27.4359 C   0  0  0  0  0  0  0  0  0  0  0  0
   13.6552  -19.6125   28.4003 C   0  0  0  0  0  0  0  0  0  0  0  0
   14.8220  -20.3141   27.9198 N   0  0  0  0  0  0  0  0  0  0  0  0
   10.6002  -15.2895   28.6974 C   0  0  0  0  0  0  0  0  0  0  0  0
   10.6031  -13.9253   28.8367 O   0  0  0  0  0  0  0  0  0  0  0  0
   10.8953  -15.9380   29.7658 O   0  0  0  0  0  0  0  0  0  0  0  0
  2  1  1  6
  2  3  1  0
  4  3  1  0
  4  5  1  0
  5  6  1  0
  6  7  1  0
  8  2  1  0
  9  8  2  0
 11 10  1  6
 12 11  1  0
 13 11  1  0
 14 13  1  1
 14 15  1  0
 15  8  1  0
 16 14  1  0
 16 17  2  0
 18 16  1  0
 19 18  1  0
 19 20  1  6
 21 20  1  0
 22 21  1  0
 22 23  1  0
 24 23  1  0
 25 26  1  0
 25 19  1  0
 27 25  2  0
M  END
$$$$
