KLK.pdb
     RDKit          3D

 27 26  0  0  1  0  0  0  0  0999 V2000
   10.9087  -18.0685   19.0812 N   0  0  0  0  0  0  0  0  0  0  0  0
    9.6664  -17.8526   19.7859 C   0  0  1  0  0  0  0  0  0  0  0  0
    9.4248  -19.0808   20.6338 C   0  0  0  0  0  0  0  0  0  0  0  0
    8.4113  -19.9460   19.9276 C   0  0  0  0  0  0  0  0  0  0  0  0
    9.0296  -21.1392   19.2618 C   0  0  0  0  0  0  0  0  0  0  0  0
    7.9890  -21.9646   18.5358 C   0  0  0  0  0  0  0  0  0  0  0  0
    8.5423  -23.1607   17.9592 N   0  0  0  0  0  0  0  0  0  0  0  0
    9.8164  -16.6318   20.6241 C   0  0  0  0  0  0  0  0  0  0  0  0
   10.9693  -16.3232   21.0102 O   0  0  0  0  0  0  0  0  0  0  0  0
    8.7047  -12.4413   19.8213 C   0  0  0  0  0  0  0  0  0  0  0  0
    7.4944  -13.3657   20.0440 C   0  0  2  0  0  0  0  0  0  0  0  0
    6.2230  -12.6160   19.8092 C   0  0  0  0  0  0  0  0  0  0  0  0
    7.5581  -13.8715   21.4414 C   0  0  0  0  0  0  0  0  0  0  0  0
    8.7392  -14.6864   21.8041 C   0  0  2  0  0  0  0  0  0  0  0  0
    8.6807  -15.8849   20.9453 N   0  0  0  0  0  0  0  0  0  0  0  0
    8.8024  -15.2012   23.1860 C   0  0  0  0  0  0  0  0  0  0  0  0
    8.9241  -14.4065   24.1892 O   0  0  0  0  0  0  0  0  0  0  0  0
    8.7294  -16.5808   23.4831 N   0  0  0  0  0  0  0  0  0  0  0  0
    8.7489  -16.9932   24.9030 C   0  0  1  0  0  0  0  0  0  0  0  0
    8.1568  -18.3820   25.0114 C   0  0  0  0  0  0  0  0  0  0  0  0
    8.0994  -18.8225   26.4216 C   0  0  0  0  0  0  0  0  0  0  0  0
    7.5464  -20.1798   26.6811 C   0  0  0  0  0  0  0  0  0  0  0  0
    7.4434  -20.6084   28.0965 C   0  0  0  0  0  0  0  0  0  0  0  0
    6.6803  -21.8228   28.2617 N   0  0  0  0  0  0  0  0  0  0  0  0
   10.1336  -16.8767   25.3822 C   0  0  0  0  0  0  0  0  0  0  0  0
   10.5198  -16.5870   26.6656 O   0  0  0  0  0  0  0  0  0  0  0  0
   11.1023  -17.0523   24.5577 O   0  0  0  0  0  0  0  0  0  0  0  0
  2  1  1  1
  2  3  1  0
  4  3  1  0
  4  5  1  0
  5  6  1  0
  6  7  1  0
  8  2  1  0
  9  8  2  0
 11 10  1  1
 12 11  1  0
 13 11  1  0
 14 13  1  1
 14 15  1  0
 15  8  1  0
 16 14  1  0
 16 17  2  0
 18 16  1  0
 19 18  1  0
 19 20  1  6
 21 20  1  0
 22 21  1  0
 22 23  1  0
 24 23  1  0
 25 26  1  0
 25 19  1  0
 27 25  2  0
M  END
$$$$
