KLK.pdb
     RDKit          3D

 27 26  0  0  1  0  0  0  0  0999 V2000
    8.2971  -14.9343   20.3598 N   0  0  0  0  0  0  0  0  0  0  0  0
    8.4693  -15.8689   21.4476 C   0  0  1  0  0  0  0  0  0  0  0  0
    9.5833  -16.8086   21.0452 C   0  0  0  0  0  0  0  0  0  0  0  0
    9.1562  -17.5329   19.7931 C   0  0  0  0  0  0  0  0  0  0  0  0
   10.1492  -18.5672   19.3531 C   0  0  0  0  0  0  0  0  0  0  0  0
    9.7253  -19.2191   18.0545 C   0  0  0  0  0  0  0  0  0  0  0  0
   10.6878  -20.1784   17.5827 N   0  0  0  0  0  0  0  0  0  0  0  0
    8.8223  -15.0961   22.6697 C   0  0  0  0  0  0  0  0  0  0  0  0
    9.3938  -13.9896   22.5196 O   0  0  0  0  0  0  0  0  0  0  0  0
    5.8035  -12.2532   25.8906 C   0  0  0  0  0  0  0  0  0  0  0  0
    7.1328  -12.9738   26.1785 C   0  0  2  0  0  0  0  0  0  0  0  0
    8.2076  -11.9765   26.4683 C   0  0  0  0  0  0  0  0  0  0  0  0
    7.4778  -13.7887   24.9830 C   0  0  0  0  0  0  0  0  0  0  0  0
    8.5319  -14.8136   25.1542 C   0  0  2  0  0  0  0  0  0  0  0  0
    8.5073  -15.6262   23.9229 N   0  0  0  0  0  0  0  0  0  0  0  0
    8.3599  -15.7769   26.2593 C   0  0  0  0  0  0  0  0  0  0  0  0
    8.2373  -15.3814   27.4763 O   0  0  0  0  0  0  0  0  0  0  0  0
    8.3166  -17.1732   26.0454 N   0  0  0  0  0  0  0  0  0  0  0  0
    9.5360  -17.9621   26.3228 C   0  0  1  0  0  0  0  0  0  0  0  0
   10.4335  -17.9094   25.1050 C   0  0  0  0  0  0  0  0  0  0  0  0
   11.0882  -19.2149   24.8752 C   0  0  0  0  0  0  0  0  0  0  0  0
   11.9345  -19.3387   23.6570 C   0  0  0  0  0  0  0  0  0  0  0  0
   12.6209  -20.6346   23.4397 C   0  0  0  0  0  0  0  0  0  0  0  0
   13.4078  -20.6575   22.2295 N   0  0  0  0  0  0  0  0  0  0  0  0
   10.1395  -17.4322   27.5539 C   0  0  0  0  0  0  0  0  0  0  0  0
   10.7769  -16.2251   27.6832 O   0  0  0  0  0  0  0  0  0  0  0  0
   10.0907  -18.1306   28.6304 O   0  0  0  0  0  0  0  0  0  0  0  0
  2  1  1  6
  2  3  1  0
  4  3  1  0
  4  5  1  0
  5  6  1  0
  6  7  1  0
  8  2  1  0
  9  8  2  0
 11 10  1  6
 12 11  1  0
 13 11  1  0
 14 13  1  6
 14 15  1  0
 15  8  1  0
 16 14  1  0
 16 17  2  0
 18 16  1  0
 19 18  1  0
 19 20  1  6
 21 20  1  0
 22 21  1  0
 22 23  1  0
 24 23  1  0
 25 26  1  0
 25 19  1  0
 27 25  2  0
M  END
$$$$
