KLK.pdb
     RDKit          3D

 27 26  0  0  1  0  0  0  0  0999 V2000
    9.1602  -19.3379   18.9161 N   0  0  0  0  0  0  0  0  0  0  0  0
   10.3219  -18.7259   18.3142 C   0  0  1  0  0  0  0  0  0  0  0  0
   10.1151  -18.7724   16.8172 C   0  0  0  0  0  0  0  0  0  0  0  0
    9.6727  -20.1662   16.4482 C   0  0  0  0  0  0  0  0  0  0  0  0
    9.5288  -20.3570   14.9676 C   0  0  0  0  0  0  0  0  0  0  0  0
    9.0324  -21.7484   14.6381 C   0  0  0  0  0  0  0  0  0  0  0  0
    9.9420  -22.7732   15.0758 N   0  0  0  0  0  0  0  0  0  0  0  0
   10.4151  -17.3251   18.8087 C   0  0  0  0  0  0  0  0  0  0  0  0
   11.3682  -16.6203   18.3986 O   0  0  0  0  0  0  0  0  0  0  0  0
    6.2491  -13.5785   21.0419 C   0  0  0  0  0  0  0  0  0  0  0  0
    7.7735  -13.7132   20.8769 C   0  0  2  0  0  0  0  0  0  0  0  0
    8.2969  -12.6158   20.0076 C   0  0  0  0  0  0  0  0  0  0  0  0
    8.0507  -15.0433   20.2715 C   0  0  0  0  0  0  0  0  0  0  0  0
    9.4653  -15.4768   20.2296 C   0  0  2  0  0  0  0  0  0  0  0  0
    9.4489  -16.8542   19.7006 N   0  0  0  0  0  0  0  0  0  0  0  0
   10.1805  -15.5636   21.5179 C   0  0  0  0  0  0  0  0  0  0  0  0
   10.5582  -14.5063   22.1439 O   0  0  0  0  0  0  0  0  0  0  0  0
   10.4841  -16.7994   22.1324 N   0  0  0  0  0  0  0  0  0  0  0  0
   11.1783  -16.7802   23.4379 C   0  0  1  0  0  0  0  0  0  0  0  0
   10.7294  -17.9814   24.2420 C   0  0  0  0  0  0  0  0  0  0  0  0
   11.4889  -18.0836   25.5064 C   0  0  0  0  0  0  0  0  0  0  0  0
   11.1972  -19.2573   26.3742 C   0  0  0  0  0  0  0  0  0  0  0  0
   11.9306  -19.3465   27.6594 C   0  0  0  0  0  0  0  0  0  0  0  0
   11.5512  -20.4975   28.4440 N   0  0  0  0  0  0  0  0  0  0  0  0
   12.6232  -16.7229   23.1738 C   0  0  0  0  0  0  0  0  0  0  0  0
   13.5399  -15.9776   23.8696 O   0  0  0  0  0  0  0  0  0  0  0  0
   13.1156  -17.4165   22.2117 O   0  0  0  0  0  0  0  0  0  0  0  0
  2  1  1  1
  2  3  1  0
  4  3  1  0
  4  5  1  0
  5  6  1  0
  6  7  1  0
  8  2  1  0
  9  8  2  0
 11 10  1  6
 12 11  1  0
 13 11  1  0
 14 13  1  1
 14 15  1  0
 15  8  1  0
 16 14  1  0
 16 17  2  0
 18 16  1  0
 19 18  1  0
 19 20  1  6
 21 20  1  0
 22 21  1  0
 22 23  1  0
 24 23  1  0
 25 26  1  0
 25 19  1  0
 27 25  2  0
M  END
$$$$
