KLK.pdb
     RDKit          3D

 27 26  0  0  1  0  0  0  0  0999 V2000
    9.2892  -16.1960   20.1340 N   0  0  0  0  0  0  0  0  0  0  0  0
    8.2262  -16.3318   21.1025 C   0  0  1  0  0  0  0  0  0  0  0  0
    7.9524  -17.8116   21.2476 C   0  0  0  0  0  0  0  0  0  0  0  0
    7.7558  -18.3893   19.8683 C   0  0  0  0  0  0  0  0  0  0  0  0
    6.3647  -18.9042   19.6471 C   0  0  0  0  0  0  0  0  0  0  0  0
    6.2051  -19.4771   18.2552 C   0  0  0  0  0  0  0  0  0  0  0  0
    4.8699  -19.9513   18.0071 N   0  0  0  0  0  0  0  0  0  0  0  0
    8.6898  -15.7346   22.3846 C   0  0  0  0  0  0  0  0  0  0  0  0
    9.9035  -15.8486   22.6801 O   0  0  0  0  0  0  0  0  0  0  0  0
    5.7666  -12.2063   26.4468 C   0  0  0  0  0  0  0  0  0  0  0  0
    7.0971  -12.9427   26.2085 C   0  0  2  0  0  0  0  0  0  0  0  0
    8.2396  -11.9827   26.2911 C   0  0  0  0  0  0  0  0  0  0  0  0
    7.0344  -13.5735   24.8629 C   0  0  0  0  0  0  0  0  0  0  0  0
    8.1377  -14.4922   24.5033 C   0  0  2  0  0  0  0  0  0  0  0  0
    7.7662  -15.0773   23.2007 N   0  0  0  0  0  0  0  0  0  0  0  0
    8.3704  -15.6451   25.3952 C   0  0  0  0  0  0  0  0  0  0  0  0
    7.4638  -16.5369   25.5833 O   0  0  0  0  0  0  0  0  0  0  0  0
    9.5904  -15.8353   26.0825 N   0  0  0  0  0  0  0  0  0  0  0  0
    9.7992  -17.1124   26.7980 C   0  0  1  0  0  0  0  0  0  0  0  0
   10.7295  -17.9799   25.9775 C   0  0  0  0  0  0  0  0  0  0  0  0
   11.0267  -19.2463   26.6802 C   0  0  0  0  0  0  0  0  0  0  0  0
   11.9510  -20.1935   25.9990 C   0  0  0  0  0  0  0  0  0  0  0  0
   12.1580  -21.5143   26.6395 C   0  0  0  0  0  0  0  0  0  0  0  0
   13.0396  -22.3728   25.8844 N   0  0  0  0  0  0  0  0  0  0  0  0
   10.2874  -16.7930   28.1471 C   0  0  0  0  0  0  0  0  0  0  0  0
   10.5074  -15.5352   28.6469 O   0  0  0  0  0  0  0  0  0  0  0  0
   10.5468  -17.7479   28.9656 O   0  0  0  0  0  0  0  0  0  0  0  0
  2  1  1  6
  2  3  1  0
  4  3  1  0
  4  5  1  0
  5  6  1  0
  6  7  1  0
  8  2  1  0
  9  8  2  0
 11 10  1  6
 12 11  1  0
 13 11  1  0
 14 13  1  1
 14 15  1  0
 15  8  1  0
 16 14  1  0
 16 17  2  0
 18 16  1  0
 19 18  1  0
 19 20  1  6
 21 20  1  0
 22 21  1  0
 22 23  1  0
 24 23  1  0
 25 26  1  0
 25 19  1  0
 27 25  2  0
M  END
$$$$
