KLK.pdb
     RDKit          3D

 27 26  0  0  1  0  0  0  0  0999 V2000
    9.0488  -19.0522   16.2615 N   0  0  0  0  0  0  0  0  0  0  0  0
    8.1537  -18.7368   17.3505 C   0  0  1  0  0  0  0  0  0  0  0  0
    7.8856  -20.0305   18.0856 C   0  0  0  0  0  0  0  0  0  0  0  0
    8.7854  -21.0936   17.5069 C   0  0  0  0  0  0  0  0  0  0  0  0
    8.2648  -22.4816   17.7336 C   0  0  0  0  0  0  0  0  0  0  0  0
    9.1942  -23.5207   17.1442 C   0  0  0  0  0  0  0  0  0  0  0  0
    8.8745  -24.8534   17.5810 N   0  0  0  0  0  0  0  0  0  0  0  0
    8.8261  -17.7401   18.2278 C   0  0  0  0  0  0  0  0  0  0  0  0
   10.0802  -17.7337   18.2549 O   0  0  0  0  0  0  0  0  0  0  0  0
    6.5529  -12.9494   21.2899 C   0  0  0  0  0  0  0  0  0  0  0  0
    7.8692  -13.6639   20.9349 C   0  0  2  0  0  0  0  0  0  0  0  0
    8.7747  -12.7365   20.1907 C   0  0  0  0  0  0  0  0  0  0  0  0
    7.5336  -14.8520   20.1052 C   0  0  0  0  0  0  0  0  0  0  0  0
    8.6328  -15.8020   19.8228 C   0  0  2  0  0  0  0  0  0  0  0  0
    8.0441  -16.8598   18.9792 N   0  0  0  0  0  0  0  0  0  0  0  0
    9.2240  -16.5086   20.9761 C   0  0  0  0  0  0  0  0  0  0  0  0
    8.5722  -17.4204   21.6056 O   0  0  0  0  0  0  0  0  0  0  0  0
   10.5269  -16.2298   21.4468 N   0  0  0  0  0  0  0  0  0  0  0  0
   11.0804  -17.0818   22.5212 C   0  0  1  0  0  0  0  0  0  0  0  0
   12.1548  -17.9689   21.9297 C   0  0  0  0  0  0  0  0  0  0  0  0
   12.7501  -18.8391   22.9662 C   0  0  0  0  0  0  0  0  0  0  0  0
   13.8838  -19.7076   22.5465 C   0  0  0  0  0  0  0  0  0  0  0  0
   14.4040  -20.6702   23.5466 C   0  0  0  0  0  0  0  0  0  0  0  0
   15.3041  -21.6433   22.9745 N   0  0  0  0  0  0  0  0  0  0  0  0
   11.5404  -16.1961   23.6003 C   0  0  0  0  0  0  0  0  0  0  0  0
   11.6767  -16.5395   24.9208 O   0  0  0  0  0  0  0  0  0  0  0  0
   11.8521  -14.9805   23.3277 O   0  0  0  0  0  0  0  0  0  0  0  0
  2  1  1  6
  2  3  1  0
  4  3  1  0
  4  5  1  0
  5  6  1  0
  6  7  1  0
  8  2  1  0
  9  8  2  0
 11 10  1  6
 12 11  1  0
 13 11  1  0
 14 13  1  1
 14 15  1  0
 15  8  1  0
 16 14  1  0
 16 17  2  0
 18 16  1  0
 19 18  1  0
 19 20  1  6
 21 20  1  0
 22 21  1  0
 22 23  1  0
 24 23  1  0
 25 26  1  0
 25 19  1  0
 27 25  2  0
M  END
$$$$
