KLK.pdb
     RDKit          3D

 27 26  0  0  1  0  0  0  0  0999 V2000
    7.0772  -15.6124   21.0668 N   0  0  0  0  0  0  0  0  0  0  0  0
    8.2905  -14.8760   20.7982 C   0  0  1  0  0  0  0  0  0  0  0  0
    7.9360  -13.7974   19.7997 C   0  0  0  0  0  0  0  0  0  0  0  0
    7.8533  -14.4319   18.4339 C   0  0  0  0  0  0  0  0  0  0  0  0
    8.1791  -13.4732   17.3275 C   0  0  0  0  0  0  0  0  0  0  0  0
    7.9918  -14.1160   15.9700 C   0  0  0  0  0  0  0  0  0  0  0  0
    8.1255  -13.1718   14.8930 N   0  0  0  0  0  0  0  0  0  0  0  0
    8.7722  -14.2949   22.0810 C   0  0  0  0  0  0  0  0  0  0  0  0
    9.8790  -13.7046   22.0788 O   0  0  0  0  0  0  0  0  0  0  0  0
    5.7009  -12.4831   26.9490 C   0  0  0  0  0  0  0  0  0  0  0  0
    7.1400  -12.7305   26.4623 C   0  0  2  0  0  0  0  0  0  0  0  0
    7.8934  -11.4410   26.4041 C   0  0  0  0  0  0  0  0  0  0  0  0
    7.0644  -13.3584   25.1160 C   0  0  0  0  0  0  0  0  0  0  0  0
    8.3415  -13.7984   24.5110 C   0  0  2  0  0  0  0  0  0  0  0  0
    7.9825  -14.4273   23.2254 N   0  0  0  0  0  0  0  0  0  0  0  0
    9.1144  -14.8217   25.2419 C   0  0  0  0  0  0  0  0  0  0  0  0
    9.4403  -14.6577   26.4746 O   0  0  0  0  0  0  0  0  0  0  0  0
    9.5325  -16.0286   24.6372 N   0  0  0  0  0  0  0  0  0  0  0  0
   10.3988  -16.9388   25.4167 C   0  0  1  0  0  0  0  0  0  0  0  0
    9.5967  -18.1662   25.7922 C   0  0  0  0  0  0  0  0  0  0  0  0
    9.8388  -18.5441   27.2009 C   0  0  0  0  0  0  0  0  0  0  0  0
    9.5790  -19.9620   27.5720 C   0  0  0  0  0  0  0  0  0  0  0  0
    9.9157  -20.3708   28.9566 C   0  0  0  0  0  0  0  0  0  0  0  0
    9.7235  -21.7829   29.1879 N   0  0  0  0  0  0  0  0  0  0  0  0
   11.5980  -17.2113   24.6115 C   0  0  0  0  0  0  0  0  0  0  0  0
   12.8699  -17.3832   25.0942 O   0  0  0  0  0  0  0  0  0  0  0  0
   11.4922  -17.3031   23.3350 O   0  0  0  0  0  0  0  0  0  0  0  0
  2  1  1  1
  2  3  1  0
  4  3  1  0
  4  5  1  0
  5  6  1  0
  6  7  1  0
  8  2  1  0
  9  8  2  0
 11 10  1  6
 12 11  1  0
 13 11  1  0
 14 13  1  1
 14 15  1  0
 15  8  1  0
 16 14  1  0
 16 17  2  0
 18 16  1  0
 19 18  1  0
 19 20  1  6
 21 20  1  0
 22 21  1  0
 22 23  1  0
 24 23  1  0
 25 26  1  0
 25 19  1  0
 27 25  2  0
M  END
$$$$
