KLK.pdb
     RDKit          3D

 27 26  0  0  1  0  0  0  0  0999 V2000
    6.8651  -16.1094   21.6057 N   0  0  0  0  0  0  0  0  0  0  0  0
    7.9323  -15.1796   21.3177 C   0  0  1  0  0  0  0  0  0  0  0  0
    7.3086  -14.0075   20.5944 C   0  0  0  0  0  0  0  0  0  0  0  0
    7.8054  -14.0174   19.1704 C   0  0  0  0  0  0  0  0  0  0  0  0
    8.3695  -12.6951   18.7429 C   0  0  0  0  0  0  0  0  0  0  0  0
    8.6395  -12.6679   17.2539 C   0  0  0  0  0  0  0  0  0  0  0  0
    7.7034  -13.4695   16.5120 N   0  0  0  0  0  0  0  0  0  0  0  0
    8.5425  -14.7616   22.6093 C   0  0  0  0  0  0  0  0  0  0  0  0
    9.6562  -14.1857   22.5730 O   0  0  0  0  0  0  0  0  0  0  0  0
    7.5390  -11.8088   25.9005 C   0  0  0  0  0  0  0  0  0  0  0  0
    6.5099  -12.9156   25.6091 C   0  0  2  0  0  0  0  0  0  0  0  0
    5.2920  -12.7225   26.4537 C   0  0  0  0  0  0  0  0  0  0  0  0
    7.1528  -14.2245   25.9022 C   0  0  0  0  0  0  0  0  0  0  0  0
    8.3561  -14.5698   25.1125 C   0  0  2  0  0  0  0  0  0  0  0  0
    7.8594  -15.0234   23.7992 N   0  0  0  0  0  0  0  0  0  0  0  0
    9.1950  -15.6759   25.6140 C   0  0  0  0  0  0  0  0  0  0  0  0
    9.3399  -15.8851   26.8741 O   0  0  0  0  0  0  0  0  0  0  0  0
    9.8761  -16.5610   24.7482 N   0  0  0  0  0  0  0  0  0  0  0  0
   10.5901  -17.7112   25.3430 C   0  0  1  0  0  0  0  0  0  0  0  0
   10.2300  -18.9587   24.5651 C   0  0  0  0  0  0  0  0  0  0  0  0
   10.9643  -20.1332   25.0821 C   0  0  0  0  0  0  0  0  0  0  0  0
   10.7918  -21.4139   24.3435 C   0  0  0  0  0  0  0  0  0  0  0  0
   11.4766  -22.6084   24.8928 C   0  0  0  0  0  0  0  0  0  0  0  0
   11.3739  -22.7037   26.3297 N   0  0  0  0  0  0  0  0  0  0  0  0
   12.0240  -17.3877   25.3558 C   0  0  0  0  0  0  0  0  0  0  0  0
   12.9666  -17.9406   26.1840 O   0  0  0  0  0  0  0  0  0  0  0  0
   12.4793  -16.5115   24.5350 O   0  0  0  0  0  0  0  0  0  0  0  0
  2  1  1  1
  2  3  1  0
  4  3  1  0
  4  5  1  0
  5  6  1  0
  6  7  1  0
  8  2  1  0
  9  8  2  0
 11 10  1  1
 12 11  1  0
 13 11  1  0
 14 13  1  1
 14 15  1  0
 15  8  1  0
 16 14  1  0
 16 17  2  0
 18 16  1  0
 19 18  1  0
 19 20  1  6
 21 20  1  0
 22 21  1  0
 22 23  1  0
 24 23  1  0
 25 26  1  0
 25 19  1  0
 27 25  2  0
M  END
$$$$
