KLK.pdb
     RDKit          3D

 27 26  0  0  1  0  0  0  0  0999 V2000
    6.1165  -14.7342   21.0297 N   0  0  0  0  0  0  0  0  0  0  0  0
    6.8350  -15.8119   21.6690 C   0  0  1  0  0  0  0  0  0  0  0  0
    7.6557  -16.4888   20.5947 C   0  0  0  0  0  0  0  0  0  0  0  0
    7.0231  -17.8243   20.2933 C   0  0  0  0  0  0  0  0  0  0  0  0
    7.8444  -18.6574   19.3548 C   0  0  0  0  0  0  0  0  0  0  0  0
    7.1194  -19.9293   18.9706 C   0  0  0  0  0  0  0  0  0  0  0  0
    7.9055  -20.7692   18.1069 N   0  0  0  0  0  0  0  0  0  0  0  0
    7.7005  -15.2260   22.7287 C   0  0  0  0  0  0  0  0  0  0  0  0
    8.8581  -14.8648   22.4077 O   0  0  0  0  0  0  0  0  0  0  0  0
    7.6666  -11.6305   25.2355 C   0  0  0  0  0  0  0  0  0  0  0  0
    6.5063  -12.6074   25.4976 C   0  0  2  0  0  0  0  0  0  0  0  0
    5.5413  -12.0121   26.4713 C   0  0  0  0  0  0  0  0  0  0  0  0
    7.0845  -13.8691   26.0323 C   0  0  0  0  0  0  0  0  0  0  0  0
    8.0155  -14.6052   25.1479 C   0  0  2  0  0  0  0  0  0  0  0  0
    7.1967  -15.1020   24.0255 N   0  0  0  0  0  0  0  0  0  0  0  0
    8.6720  -15.8020   25.7097 C   0  0  0  0  0  0  0  0  0  0  0  0
    7.9856  -16.8063   26.1256 O   0  0  0  0  0  0  0  0  0  0  0  0
   10.0766  -15.9135   25.8176 N   0  0  0  0  0  0  0  0  0  0  0  0
   10.6351  -17.1147   26.4747 C   0  0  1  0  0  0  0  0  0  0  0  0
   11.9618  -17.4475   25.8267 C   0  0  0  0  0  0  0  0  0  0  0  0
   11.7629  -17.9914   24.4663 C   0  0  0  0  0  0  0  0  0  0  0  0
   12.9809  -18.4299   23.7316 C   0  0  0  0  0  0  0  0  0  0  0  0
   12.7936  -18.9228   22.3461 C   0  0  0  0  0  0  0  0  0  0  0  0
   13.1093  -17.9281   21.3485 N   0  0  0  0  0  0  0  0  0  0  0  0
   10.7075  -16.8409   27.9171 C   0  0  0  0  0  0  0  0  0  0  0  0
   10.9109  -17.7710   28.9039 O   0  0  0  0  0  0  0  0  0  0  0  0
   10.5713  -15.6350   28.3369 O   0  0  0  0  0  0  0  0  0  0  0  0
  2  1  1  6
  2  3  1  0
  4  3  1  0
  4  5  1  0
  5  6  1  0
  6  7  1  0
  8  2  1  0
  9  8  2  0
 11 10  1  1
 12 11  1  0
 13 11  1  0
 14 13  1  1
 14 15  1  0
 15  8  1  0
 16 14  1  0
 16 17  2  0
 18 16  1  0
 19 18  1  0
 19 20  1  6
 21 20  1  0
 22 21  1  0
 22 23  1  0
 24 23  1  0
 25 26  1  0
 25 19  1  0
 27 25  2  0
M  END
$$$$
