KLK.pdb
     RDKit          3D

 27 26  0  0  1  0  0  0  0  0999 V2000
    7.3802  -15.3047   21.5591 N   0  0  0  0  0  0  0  0  0  0  0  0
    8.7605  -14.8792   21.5462 C   0  0  1  0  0  0  0  0  0  0  0  0
    8.8197  -13.6102   20.7263 C   0  0  0  0  0  0  0  0  0  0  0  0
    7.9246  -13.7860   19.5252 C   0  0  0  0  0  0  0  0  0  0  0  0
    8.4743  -13.1348   18.2910 C   0  0  0  0  0  0  0  0  0  0  0  0
    7.5321  -13.2969   17.1176 C   0  0  0  0  0  0  0  0  0  0  0  0
    8.0293  -12.6668   15.9238 N   0  0  0  0  0  0  0  0  0  0  0  0
    9.1838  -14.6400   22.9529 C   0  0  0  0  0  0  0  0  0  0  0  0
   10.3445  -14.2074   23.1509 O   0  0  0  0  0  0  0  0  0  0  0  0
    8.0082  -11.7589   25.9819 C   0  0  0  0  0  0  0  0  0  0  0  0
    6.8809  -12.7356   25.6020 C   0  0  2  0  0  0  0  0  0  0  0  0
    5.6173  -12.3644   26.3086 C   0  0  0  0  0  0  0  0  0  0  0  0
    7.3164  -14.1054   25.9846 C   0  0  0  0  0  0  0  0  0  0  0  0
    8.5850  -14.5919   25.3976 C   0  0  2  0  0  0  0  0  0  0  0  0
    8.2829  -14.9032   23.9873 N   0  0  0  0  0  0  0  0  0  0  0  0
    9.1521  -15.8345   25.9571 C   0  0  0  0  0  0  0  0  0  0  0  0
    9.2994  -15.9890   27.2249 O   0  0  0  0  0  0  0  0  0  0  0  0
    9.5572  -16.9151   25.1416 N   0  0  0  0  0  0  0  0  0  0  0  0
   10.1027  -18.1221   25.7989 C   0  0  1  0  0  0  0  0  0  0  0  0
    9.8574  -19.3149   24.9000 C   0  0  0  0  0  0  0  0  0  0  0  0
   10.3277  -20.5626   25.5387 C   0  0  0  0  0  0  0  0  0  0  0  0
   10.2567  -21.8053   24.7225 C   0  0  0  0  0  0  0  0  0  0  0  0
   10.5765  -23.0817   25.4053 C   0  0  0  0  0  0  0  0  0  0  0  0
   10.2339  -24.2417   24.6170 N   0  0  0  0  0  0  0  0  0  0  0  0
   11.5172  -17.8632   26.1035 C   0  0  0  0  0  0  0  0  0  0  0  0
   12.1909  -18.2867   27.2202 O   0  0  0  0  0  0  0  0  0  0  0  0
   12.2246  -17.1803   25.2775 O   0  0  0  0  0  0  0  0  0  0  0  0
  2  1  1  1
  2  3  1  0
  4  3  1  0
  4  5  1  0
  5  6  1  0
  6  7  1  0
  8  2  1  0
  9  8  2  0
 11 10  1  1
 12 11  1  0
 13 11  1  0
 14 13  1  1
 14 15  1  0
 15  8  1  0
 16 14  1  0
 16 17  2  0
 18 16  1  0
 19 18  1  0
 19 20  1  6
 21 20  1  0
 22 21  1  0
 22 23  1  0
 24 23  1  0
 25 26  1  0
 25 19  1  0
 27 25  2  0
M  END
$$$$
