VVD.pdb
     RDKit          3D

 23 22  0  0  1  0  0  0  0  0999 V2000
   27.5418  -11.8033  -16.2177 C   0  0  0  0  0  0  0  0  0  0  0  0
   26.3267  -10.9472  -16.4101 C   0  0  2  0  0  0  0  0  0  0  0  0
   26.0839  -10.1262  -15.1660 C   0  0  0  0  0  0  0  0  0  0  0  0
   25.0836  -11.7363  -16.6993 C   0  0  2  0  0  0  0  0  0  0  0  0
   25.2145  -12.6147  -17.8236 N   0  0  0  0  0  0  0  0  0  0  0  0
   23.8868  -10.8830  -16.8790 C   0  0  0  0  0  0  0  0  0  0  0  0
   23.7735  -10.2652  -17.9650 O   0  0  0  0  0  0  0  0  0  0  0  0
   20.2747  -11.7183  -17.1005 C   0  0  0  0  0  0  0  0  0  0  0  0
   20.4236  -10.7274  -15.9559 C   0  0  2  0  0  0  0  0  0  0  0  0
   19.2005   -9.8495  -15.9568 C   0  0  0  0  0  0  0  0  0  0  0  0
   21.6998   -9.9434  -16.0552 C   0  0  2  0  0  0  0  0  0  0  0  0
   22.8780  -10.7310  -15.9001 N   0  0  0  0  0  0  0  0  0  0  0  0
   21.6833   -8.7339  -15.1839 C   0  0  0  0  0  0  0  0  0  0  0  0
   21.8449   -8.7811  -13.9364 O   0  0  0  0  0  0  0  0  0  0  0  0
   21.4800   -7.4338  -15.7243 N   0  0  0  0  0  0  0  0  0  0  0  0
   21.4541   -6.2322  -14.8676 C   0  0  1  0  0  0  0  0  0  0  0  0
   22.4540   -5.2599  -15.4167 C   0  0  0  0  0  0  0  0  0  0  0  0
   22.4971   -3.9752  -14.7323 C   0  0  0  0  0  0  0  0  0  0  0  0
   21.8642   -3.7591  -13.6813 O   0  0  0  0  0  0  0  0  0  0  0  0
   20.0787   -5.6833  -14.9831 C   0  0  0  0  0  0  0  0  0  0  0  0
   19.6224   -4.7570  -14.2813 O   0  0  0  0  0  0  0  0  0  0  0  0
   23.2666   -2.9496  -15.2605 O   0  0  0  0  0  0  0  0  0  0  0  0
   19.2011   -6.2112  -15.9301 O   0  0  0  0  0  0  0  0  0  0  0  0
  2  3  1  1
  2  1  1  0
  4  2  1  0
  4  5  1  6
  6  7  2  0
  6  4  1  0
  9  8  1  6
  9 11  1  0
 10  9  1  0
 11 12  1  1
 12  6  1  0
 13 15  1  0
 13 11  1  0
 14 13  2  0
 16 15  1  0
 16 20  1  0
 17 18  1  0
 16 17  1  6
 18 19  2  0
 20 21  2  0
 20 23  1  0
 22 18  1  0
M  END
$$$$
