VVD.pdb
     RDKit          3D

 23 22  0  0  1  0  0  0  0  0999 V2000
   21.2373  -36.7680  -11.4117 C   0  0  0  0  0  0  0  0  0  0  0  0
   22.5355  -36.4634  -10.7273 C   0  0  2  0  0  0  0  0  0  0  0  0
   23.4879  -37.6211  -10.9099 C   0  0  0  0  0  0  0  0  0  0  0  0
   22.3861  -36.2088   -9.2560 C   0  0  2  0  0  0  0  0  0  0  0  0
   21.3622  -35.2567   -8.9432 N   0  0  0  0  0  0  0  0  0  0  0  0
   23.6534  -35.7979   -8.6096 C   0  0  0  0  0  0  0  0  0  0  0  0
   24.6445  -36.5550   -8.7444 O   0  0  0  0  0  0  0  0  0  0  0  0
   25.3447  -32.2542   -8.8544 C   0  0  0  0  0  0  0  0  0  0  0  0
   25.2551  -32.6862   -7.3985 C   0  0  2  0  0  0  0  0  0  0  0  0
   26.5194  -32.2366   -6.7157 C   0  0  0  0  0  0  0  0  0  0  0  0
   25.0179  -34.1624   -7.2650 C   0  0  2  0  0  0  0  0  0  0  0  0
   23.8006  -34.6101   -7.8569 N   0  0  0  0  0  0  0  0  0  0  0  0
   25.1965  -34.6337   -5.8621 C   0  0  0  0  0  0  0  0  0  0  0  0
   24.3411  -34.4459   -4.9579 O   0  0  0  0  0  0  0  0  0  0  0  0
   26.3665  -35.3355   -5.4592 N   0  0  0  0  0  0  0  0  0  0  0  0
   26.5386  -35.8305   -4.0795 C   0  0  1  0  0  0  0  0  0  0  0  0
   27.8228  -36.6018   -4.0293 C   0  0  0  0  0  0  0  0  0  0  0  0
   28.1371  -37.1822   -2.7312 C   0  0  0  0  0  0  0  0  0  0  0  0
   27.3704  -37.0833   -1.7544 O   0  0  0  0  0  0  0  0  0  0  0  0
   26.6266  -34.6194   -3.2239 C   0  0  0  0  0  0  0  0  0  0  0  0
   27.3994  -33.6602   -3.4278 O   0  0  0  0  0  0  0  0  0  0  0  0
   29.3291  -37.8712   -2.5658 O   0  0  0  0  0  0  0  0  0  0  0  0
   25.8051  -34.5043   -2.1025 O   0  0  0  0  0  0  0  0  0  0  0  0
  2  3  1  1
  2  1  1  0
  4  2  1  0
  4  5  1  6
  6  7  2  0
  6  4  1  0
  9  8  1  6
  9 11  1  0
 10  9  1  0
 11 12  1  1
 12  6  1  0
 13 15  1  0
 13 11  1  0
 14 13  2  0
 16 15  1  0
 16 20  1  0
 17 18  1  0
 16 17  1  6
 18 19  2  0
 20 21  2  0
 20 23  1  0
 22 18  1  0
M  END
$$$$
