VVD.pdb
     RDKit          3D

 23 22  0  0  1  0  0  0  0  0999 V2000
   18.5538  -18.9609  -16.7344 C   0  0  0  0  0  0  0  0  0  0  0  0
   17.9201  -17.6663  -17.1454 C   0  0  2  0  0  0  0  0  0  0  0  0
   18.0352  -17.4990  -18.6419 C   0  0  0  0  0  0  0  0  0  0  0  0
   18.5413  -16.4668  -16.4919 C   0  0  2  0  0  0  0  0  0  0  0  0
   18.6911  -16.6037  -15.0737 N   0  0  0  0  0  0  0  0  0  0  0  0
   17.8205  -15.2083  -16.7908 C   0  0  0  0  0  0  0  0  0  0  0  0
   17.7714  -14.8393  -17.9888 O   0  0  0  0  0  0  0  0  0  0  0  0
   14.2289  -14.2403  -16.3949 C   0  0  0  0  0  0  0  0  0  0  0  0
   15.0513  -13.2261  -15.6145 C   0  0  2  0  0  0  0  0  0  0  0  0
   14.3742  -11.8891  -15.7585 C   0  0  0  0  0  0  0  0  0  0  0  0
   16.4837  -13.2014  -16.0627 C   0  0  2  0  0  0  0  0  0  0  0  0
   17.1927  -14.4113  -15.8060 N   0  0  0  0  0  0  0  0  0  0  0  0
   17.2008  -11.9870  -15.5799 C   0  0  0  0  0  0  0  0  0  0  0  0
   17.4802  -11.7878  -14.3687 O   0  0  0  0  0  0  0  0  0  0  0  0
   17.6174  -10.9659  -16.4784 N   0  0  0  0  0  0  0  0  0  0  0  0
   18.2985   -9.7451  -16.0046 C   0  0  1  0  0  0  0  0  0  0  0  0
   18.9044   -9.0696  -17.1976 C   0  0  0  0  0  0  0  0  0  0  0  0
   19.5190   -7.7784  -16.9224 C   0  0  0  0  0  0  0  0  0  0  0  0
   19.5362   -7.2788  -15.7814 O   0  0  0  0  0  0  0  0  0  0  0  0
   17.2357   -8.8944  -15.4103 C   0  0  0  0  0  0  0  0  0  0  0  0
   16.1426   -8.6382  -15.9565 O   0  0  0  0  0  0  0  0  0  0  0  0
   20.1085   -7.0718  -17.9598 O   0  0  0  0  0  0  0  0  0  0  0  0
   17.4312   -8.3211  -14.1539 O   0  0  0  0  0  0  0  0  0  0  0  0
  2  3  1  6
  2  1  1  0
  4  2  1  0
  4  5  1  1
  6  7  2  0
  6  4  1  0
  9  8  1  6
  9 11  1  0
 10  9  1  0
 11 12  1  1
 12  6  1  0
 13 15  1  0
 13 11  1  0
 14 13  2  0
 16 15  1  0
 16 20  1  0
 17 18  1  0
 16 17  1  6
 18 19  2  0
 20 21  2  0
 20 23  1  0
 22 18  1  0
M  END
$$$$
