VVD.pdb
     RDKit          3D

 23 22  0  0  1  0  0  0  0  0999 V2000
   16.2381  -13.4390  -18.0774 C   0  0  0  0  0  0  0  0  0  0  0  0
   17.0130  -12.4521  -17.2576 C   0  0  2  0  0  0  0  0  0  0  0  0
   17.3231  -11.2328  -18.0931 C   0  0  0  0  0  0  0  0  0  0  0  0
   18.3076  -13.0012  -16.7339 C   0  0  2  0  0  0  0  0  0  0  0  0
   18.1546  -14.2261  -16.0065 N   0  0  0  0  0  0  0  0  0  0  0  0
   19.0546  -12.0276  -15.9053 C   0  0  0  0  0  0  0  0  0  0  0  0
   18.6551  -11.8390  -14.7312 O   0  0  0  0  0  0  0  0  0  0  0  0
   22.6416  -11.7055  -14.6794 C   0  0  0  0  0  0  0  0  0  0  0  0
   22.3154  -10.4629  -15.4940 C   0  0  2  0  0  0  0  0  0  0  0  0
   22.9923   -9.2952  -14.8268 C   0  0  0  0  0  0  0  0  0  0  0  0
   20.8353  -10.2648  -15.6466 C   0  0  2  0  0  0  0  0  0  0  0  0
   20.1816  -11.3082  -16.3654 N   0  0  0  0  0  0  0  0  0  0  0  0
   20.5018   -8.9037  -16.1548 C   0  0  0  0  0  0  0  0  0  0  0  0
   20.8045   -8.5062  -17.3102 O   0  0  0  0  0  0  0  0  0  0  0  0
   19.8095   -7.9597  -15.3465 N   0  0  0  0  0  0  0  0  0  0  0  0
   19.5107   -6.5968  -15.8275 C   0  0  1  0  0  0  0  0  0  0  0  0
   18.2090   -6.1735  -15.2168 C   0  0  0  0  0  0  0  0  0  0  0  0
   17.8375   -4.7880  -15.4682 C   0  0  0  0  0  0  0  0  0  0  0  0
   18.4814   -4.0563  -16.2440 O   0  0  0  0  0  0  0  0  0  0  0  0
   20.6192   -5.7413  -15.3319 C   0  0  0  0  0  0  0  0  0  0  0  0
   20.8203   -4.5619  -15.6886 O   0  0  0  0  0  0  0  0  0  0  0  0
   16.7299   -4.2546  -14.8267 O   0  0  0  0  0  0  0  0  0  0  0  0
   21.5232   -6.2523  -14.4005 O   0  0  0  0  0  0  0  0  0  0  0  0
  2  3  1  6
  2  1  1  0
  4  2  1  0
  4  5  1  1
  6  7  2  0
  6  4  1  0
  9  8  1  1
  9 11  1  0
 10  9  1  0
 11 12  1  6
 12  6  1  0
 13 15  1  0
 13 11  1  0
 14 13  2  0
 16 15  1  0
 16 20  1  0
 17 18  1  0
 16 17  1  1
 18 19  2  0
 20 21  2  0
 20 23  1  0
 22 18  1  0
M  END
$$$$
