VVD.pdb
     RDKit          3D

 23 22  0  0  1  0  0  0  0  0999 V2000
   17.4598   -8.8065  -18.2645 C   0  0  0  0  0  0  0  0  0  0  0  0
   18.3272   -9.7965  -18.9815 C   0  0  2  0  0  0  0  0  0  0  0  0
   17.5826  -10.3531  -20.1717 C   0  0  0  0  0  0  0  0  0  0  0  0
   18.7549  -10.9468  -18.1181 C   0  0  2  0  0  0  0  0  0  0  0  0
   17.6683  -11.7841  -17.7045 N   0  0  0  0  0  0  0  0  0  0  0  0
   19.5270  -10.5203  -16.9288 C   0  0  0  0  0  0  0  0  0  0  0  0
   18.8913  -10.3240  -15.8652 O   0  0  0  0  0  0  0  0  0  0  0  0
   22.6394  -12.1032  -15.2449 C   0  0  0  0  0  0  0  0  0  0  0  0
   22.9414  -10.6471  -15.5653 C   0  0  2  0  0  0  0  0  0  0  0  0
   23.7544  -10.0934  -14.4255 C   0  0  0  0  0  0  0  0  0  0  0  0
   21.6904   -9.8580  -15.8216 C   0  0  2  0  0  0  0  0  0  0  0  0
   20.9273  -10.3251  -16.9317 N   0  0  0  0  0  0  0  0  0  0  0  0
   21.9524   -8.3912  -15.8649 C   0  0  0  0  0  0  0  0  0  0  0  0
   22.5843   -7.8314  -16.7986 O   0  0  0  0  0  0  0  0  0  0  0  0
   21.4941   -7.5256  -14.8332 N   0  0  0  0  0  0  0  0  0  0  0  0
   21.7673   -6.0754  -14.8579 C   0  0  1  0  0  0  0  0  0  0  0  0
   20.4918   -5.3779  -15.2227 C   0  0  0  0  0  0  0  0  0  0  0  0
   20.5544   -3.9238  -15.1732 C   0  0  0  0  0  0  0  0  0  0  0  0
   21.6343   -3.3053  -15.1198 O   0  0  0  0  0  0  0  0  0  0  0  0
   22.1776   -5.7180  -13.4758 C   0  0  0  0  0  0  0  0  0  0  0  0
   22.0864   -6.4775  -12.4890 O   0  0  0  0  0  0  0  0  0  0  0  0
   19.3763   -3.1924  -15.1852 O   0  0  0  0  0  0  0  0  0  0  0  0
   22.7078   -4.4541  -13.2172 O   0  0  0  0  0  0  0  0  0  0  0  0
  2  3  1  6
  2  1  1  0
  4  2  1  0
  4  5  1  1
  6  7  2  0
  6  4  1  0
  9  8  1  1
  9 11  1  0
 10  9  1  0
 11 12  1  6
 12  6  1  0
 13 15  1  0
 13 11  1  0
 14 13  2  0
 16 15  1  0
 16 20  1  0
 17 18  1  0
 16 17  1  1
 18 19  2  0
 20 21  2  0
 20 23  1  0
 22 18  1  0
M  END
$$$$
