VVD.pdb
     RDKit          3D

 23 22  0  0  1  0  0  0  0  0999 V2000
   17.3433  -13.3269  -18.6805 C   0  0  0  0  0  0  0  0  0  0  0  0
   17.9063  -12.4816  -17.5782 C   0  0  2  0  0  0  0  0  0  0  0  0
   16.8040  -11.6532  -16.9622 C   0  0  0  0  0  0  0  0  0  0  0  0
   18.9895  -11.5503  -18.0378 C   0  0  2  0  0  0  0  0  0  0  0  0
   19.9008  -12.1499  -18.9667 N   0  0  0  0  0  0  0  0  0  0  0  0
   19.7516  -10.9535  -16.9172 C   0  0  0  0  0  0  0  0  0  0  0  0
   19.0968  -10.4974  -15.9492 O   0  0  0  0  0  0  0  0  0  0  0  0
   22.8698  -12.5319  -15.1301 C   0  0  0  0  0  0  0  0  0  0  0  0
   23.1722  -11.0850  -15.4895 C   0  0  2  0  0  0  0  0  0  0  0  0
   23.9412  -10.4861  -14.3420 C   0  0  0  0  0  0  0  0  0  0  0  0
   21.9252  -10.3156  -15.8156 C   0  0  2  0  0  0  0  0  0  0  0  0
   21.1628  -10.8725  -16.8839 N   0  0  0  0  0  0  0  0  0  0  0  0
   22.1936   -8.8589  -15.9831 C   0  0  0  0  0  0  0  0  0  0  0  0
   22.6236   -8.3561  -17.0540 O   0  0  0  0  0  0  0  0  0  0  0  0
   21.9744   -7.9379  -14.9213 N   0  0  0  0  0  0  0  0  0  0  0  0
   22.1764   -6.4866  -15.0982 C   0  0  1  0  0  0  0  0  0  0  0  0
   21.2301   -6.0216  -16.1635 C   0  0  0  0  0  0  0  0  0  0  0  0
   21.1938   -4.5794  -16.3620 C   0  0  0  0  0  0  0  0  0  0  0  0
   22.2020   -3.8620  -16.2188 O   0  0  0  0  0  0  0  0  0  0  0  0
   21.8319   -5.8687  -13.7920 C   0  0  0  0  0  0  0  0  0  0  0  0
   21.1859   -6.4356  -12.8864 O   0  0  0  0  0  0  0  0  0  0  0  0
   20.0000   -3.9733  -16.7231 O   0  0  0  0  0  0  0  0  0  0  0  0
   22.2396   -4.5637  -13.5159 O   0  0  0  0  0  0  0  0  0  0  0  0
  2  3  1  6
  2  1  1  0
  4  2  1  0
  4  5  1  6
  6  7  2  0
  6  4  1  0
  9  8  1  1
  9 11  1  0
 10  9  1  0
 11 12  1  6
 12  6  1  0
 13 15  1  0
 13 11  1  0
 14 13  2  0
 16 15  1  0
 16 20  1  0
 17 18  1  0
 16 17  1  6
 18 19  2  0
 20 21  2  0
 20 23  1  0
 22 18  1  0
M  END
$$$$
