VVD.pdb
     RDKit          3D

 23 22  0  0  1  0  0  0  0  0999 V2000
   16.2853   -9.6417  -14.5208 C   0  0  0  0  0  0  0  0  0  0  0  0
   16.9476  -10.4510  -13.4471 C   0  0  2  0  0  0  0  0  0  0  0  0
   17.5148  -11.7167  -14.0445 C   0  0  0  0  0  0  0  0  0  0  0  0
   16.0176  -10.8356  -12.3340 C   0  0  2  0  0  0  0  0  0  0  0  0
   14.9953  -11.7549  -12.7370 N   0  0  0  0  0  0  0  0  0  0  0  0
   15.3944   -9.6666  -11.6724 C   0  0  0  0  0  0  0  0  0  0  0  0
   14.2868   -9.2745  -12.1119 O   0  0  0  0  0  0  0  0  0  0  0  0
   14.1392   -8.7978   -8.1500 C   0  0  0  0  0  0  0  0  0  0  0  0
   15.2667   -7.8476   -8.5241 C   0  0  2  0  0  0  0  0  0  0  0  0
   14.9482   -6.5076   -7.9160 C   0  0  0  0  0  0  0  0  0  0  0  0
   15.4705   -7.7761  -10.0096 C   0  0  2  0  0  0  0  0  0  0  0  0
   15.9779   -8.9783  -10.5839 N   0  0  0  0  0  0  0  0  0  0  0  0
   16.2387   -6.5635  -10.4118 C   0  0  0  0  0  0  0  0  0  0  0  0
   17.4930   -6.4871  -10.3394 O   0  0  0  0  0  0  0  0  0  0  0  0
   15.5841   -5.4027  -10.9095 N   0  0  0  0  0  0  0  0  0  0  0  0
   16.3370   -4.1976  -11.3085 C   0  0  1  0  0  0  0  0  0  0  0  0
   16.5480   -4.2625  -12.7910 C   0  0  0  0  0  0  0  0  0  0  0  0
   17.1306   -3.0642  -13.3786 C   0  0  0  0  0  0  0  0  0  0  0  0
   17.4028   -2.0550  -12.7010 O   0  0  0  0  0  0  0  0  0  0  0  0
   15.4691   -3.0444  -10.9576 C   0  0  0  0  0  0  0  0  0  0  0  0
   14.2229   -3.0869  -10.8937 O   0  0  0  0  0  0  0  0  0  0  0  0
   17.3957   -3.0350  -14.7395 O   0  0  0  0  0  0  0  0  0  0  0  0
   16.0460   -1.8071  -10.6714 O   0  0  0  0  0  0  0  0  0  0  0  0
  2  3  1  6
  2  1  1  0
  4  2  1  0
  4  5  1  6
  6  7  2  0
  6  4  1  0
  9  8  1  6
  9 11  1  0
 10  9  1  0
 11 12  1  1
 12  6  1  0
 13 15  1  0
 13 11  1  0
 14 13  2  0
 16 15  1  0
 16 20  1  0
 17 18  1  0
 16 17  1  6
 18 19  2  0
 20 21  2  0
 20 23  1  0
 22 18  1  0
M  END
$$$$
