VVD.pdb
     RDKit          3D

 23 22  0  0  1  0  0  0  0  0999 V2000
   14.1902  -11.7413  -15.7584 C   0  0  0  0  0  0  0  0  0  0  0  0
   15.5830  -11.2901  -15.4374 C   0  0  2  0  0  0  0  0  0  0  0  0
   15.8175   -9.9172  -16.0211 C   0  0  0  0  0  0  0  0  0  0  0  0
   16.6428  -12.2106  -15.9677 C   0  0  2  0  0  0  0  0  0  0  0  0
   16.4931  -13.5659  -15.5278 N   0  0  0  0  0  0  0  0  0  0  0  0
   18.0157  -11.7448  -15.6663 C   0  0  0  0  0  0  0  0  0  0  0  0
   18.4721  -11.9879  -14.5233 O   0  0  0  0  0  0  0  0  0  0  0  0
   21.3956  -12.4772  -17.2221 C   0  0  0  0  0  0  0  0  0  0  0  0
   21.1864  -10.9712  -17.2678 C   0  0  2  0  0  0  0  0  0  0  0  0
   22.5189  -10.3221  -17.0035 C   0  0  0  0  0  0  0  0  0  0  0  0
   20.1230  -10.5231  -16.3078 C   0  0  2  0  0  0  0  0  0  0  0  0
   18.8280  -11.0481  -16.5903 N   0  0  0  0  0  0  0  0  0  0  0  0
   20.1282   -9.0448  -16.1162 C   0  0  0  0  0  0  0  0  0  0  0  0
   19.6249   -8.2410  -16.9440 O   0  0  0  0  0  0  0  0  0  0  0  0
   20.7137   -8.4486  -14.9650 N   0  0  0  0  0  0  0  0  0  0  0  0
   20.8770   -6.9866  -14.8457 C   0  0  1  0  0  0  0  0  0  0  0  0
   21.3775   -6.6955  -13.4632 C   0  0  0  0  0  0  0  0  0  0  0  0
   21.7009   -5.2981  -13.2116 C   0  0  0  0  0  0  0  0  0  0  0  0
   20.9388   -4.3689  -13.5393 O   0  0  0  0  0  0  0  0  0  0  0  0
   21.8976   -6.6103  -15.8573 C   0  0  0  0  0  0  0  0  0  0  0  0
   21.8260   -5.6095  -16.6003 O   0  0  0  0  0  0  0  0  0  0  0  0
   22.8969   -4.9797  -12.5859 O   0  0  0  0  0  0  0  0  0  0  0  0
   23.0329   -7.4038  -16.0219 O   0  0  0  0  0  0  0  0  0  0  0  0
  2  3  1  6
  2  1  1  0
  4  2  1  0
  4  5  1  1
  6  7  2  0
  6  4  1  0
  9  8  1  1
  9 11  1  0
 10  9  1  0
 11 12  1  6
 12  6  1  0
 13 15  1  0
 13 11  1  0
 14 13  2  0
 16 15  1  0
 16 20  1  0
 17 18  1  0
 16 17  1  1
 18 19  2  0
 20 21  2  0
 20 23  1  0
 22 18  1  0
M  END
$$$$
