VVD.pdb
     RDKit          3D

 23 22  0  0  1  0  0  0  0  0999 V2000
   19.1157  -33.6061   -5.6268 C   0  0  0  0  0  0  0  0  0  0  0  0
   20.5405  -34.0704   -5.5991 C   0  0  2  0  0  0  0  0  0  0  0  0
   21.2362  -33.4971   -4.3875 C   0  0  0  0  0  0  0  0  0  0  0  0
   21.3194  -33.6709   -6.8179 C   0  0  2  0  0  0  0  0  0  0  0  0
   20.7305  -34.1212   -8.0439 N   0  0  0  0  0  0  0  0  0  0  0  0
   22.7351  -34.1018   -6.7653 C   0  0  0  0  0  0  0  0  0  0  0  0
   22.9730  -35.3267   -6.8948 O   0  0  0  0  0  0  0  0  0  0  0  0
   25.8010  -33.1392   -8.7919 C   0  0  0  0  0  0  0  0  0  0  0  0
   26.1357  -32.9000   -7.3274 C   0  0  2  0  0  0  0  0  0  0  0  0
   27.5644  -33.3252   -7.1156 C   0  0  0  0  0  0  0  0  0  0  0  0
   25.1791  -33.6058   -6.4109 C   0  0  2  0  0  0  0  0  0  0  0  0
   23.8188  -33.2132   -6.5783 N   0  0  0  0  0  0  0  0  0  0  0  0
   25.6311  -33.5657   -4.9909 C   0  0  0  0  0  0  0  0  0  0  0  0
   25.3661  -32.6147   -4.2100 O   0  0  0  0  0  0  0  0  0  0  0  0
   26.4022  -34.6206   -4.4285 N   0  0  0  0  0  0  0  0  0  0  0  0
   26.7112  -34.6728   -2.9862 C   0  0  1  0  0  0  0  0  0  0  0  0
   25.4103  -34.7218   -2.2433 C   0  0  0  0  0  0  0  0  0  0  0  0
   25.5348  -34.9022   -0.8036 C   0  0  0  0  0  0  0  0  0  0  0  0
   26.6405  -34.9535   -0.2321 O   0  0  0  0  0  0  0  0  0  0  0  0
   27.4736  -35.9312   -2.7817 C   0  0  0  0  0  0  0  0  0  0  0  0
   27.6556  -36.8017   -3.6579 O   0  0  0  0  0  0  0  0  0  0  0  0
   24.3886  -35.0222   -0.0324 O   0  0  0  0  0  0  0  0  0  0  0  0
   28.0439  -36.1993   -1.5373 O   0  0  0  0  0  0  0  0  0  0  0  0
  2  3  1  1
  2  1  1  0
  4  2  1  0
  4  5  1  6
  6  7  2  0
  6  4  1  0
  9  8  1  6
  9 11  1  0
 10  9  1  0
 11 12  1  1
 12  6  1  0
 13 15  1  0
 13 11  1  0
 14 13  2  0
 16 15  1  0
 16 20  1  0
 17 18  1  0
 16 17  1  1
 18 19  2  0
 20 21  2  0
 20 23  1  0
 22 18  1  0
M  END
$$$$
