VVD.pdb
     RDKit          3D

 23 22  0  0  1  0  0  0  0  0999 V2000
   25.2754  -14.7013  -15.8843 C   0  0  0  0  0  0  0  0  0  0  0  0
   24.7092  -13.3698  -16.2754 C   0  0  2  0  0  0  0  0  0  0  0  0
   24.4482  -12.5471  -15.0362 C   0  0  0  0  0  0  0  0  0  0  0  0
   23.4261  -13.4731  -17.0466 C   0  0  2  0  0  0  0  0  0  0  0  0
   23.5225  -14.3117  -18.2043 N   0  0  0  0  0  0  0  0  0  0  0  0
   22.8809  -12.1536  -17.4395 C   0  0  0  0  0  0  0  0  0  0  0  0
   23.4923  -11.5161  -18.3303 O   0  0  0  0  0  0  0  0  0  0  0  0
   20.0748  -10.9877  -19.3562 C   0  0  0  0  0  0  0  0  0  0  0  0
   19.8880  -10.3803  -17.9740 C   0  0  2  0  0  0  0  0  0  0  0  0
   19.2467   -9.0305  -18.1570 C   0  0  0  0  0  0  0  0  0  0  0  0
   21.1800  -10.3096  -17.2130 C   0  0  2  0  0  0  0  0  0  0  0  0
   21.7203  -11.5830  -16.8680 N   0  0  0  0  0  0  0  0  0  0  0  0
   21.0979   -9.3736  -16.0557 C   0  0  0  0  0  0  0  0  0  0  0  0
   20.4953   -9.6517  -14.9861 O   0  0  0  0  0  0  0  0  0  0  0  0
   21.7077   -8.0890  -16.0966 N   0  0  0  0  0  0  0  0  0  0  0  0
   21.5596   -7.1236  -14.9900 C   0  0  1  0  0  0  0  0  0  0  0  0
   22.6031   -6.0626  -15.1687 C   0  0  0  0  0  0  0  0  0  0  0  0
   22.5725   -5.0011  -14.1723 C   0  0  0  0  0  0  0  0  0  0  0  0
   21.8724   -5.0726  -13.1444 O   0  0  0  0  0  0  0  0  0  0  0  0
   20.1998   -6.5446  -15.1383 C   0  0  0  0  0  0  0  0  0  0  0  0
   19.7248   -6.1121  -16.2089 O   0  0  0  0  0  0  0  0  0  0  0  0
   23.3462   -3.8664  -14.3646 O   0  0  0  0  0  0  0  0  0  0  0  0
   19.3601   -6.4590  -14.0278 O   0  0  0  0  0  0  0  0  0  0  0  0
  2  3  1  1
  2  1  1  0
  4  2  1  0
  4  5  1  6
  6  7  2  0
  6  4  1  0
  9  8  1  6
  9 11  1  0
 10  9  1  0
 11 12  1  1
 12  6  1  0
 13 15  1  0
 13 11  1  0
 14 13  2  0
 16 15  1  0
 16 20  1  0
 17 18  1  0
 16 17  1  6
 18 19  2  0
 20 21  2  0
 20 23  1  0
 22 18  1  0
M  END
$$$$
