GYG.pdb
     RDKit          3D

 21 21  0  0  1  0  0  0  0  0999 V2000
   23.7787  -25.7317  -14.9049 N   0  0  0  0  0  0  0  0  0  0  0  0
   24.5760  -24.5305  -14.9689 C   0  0  0  0  0  0  0  0  0  0  0  0
   23.7967  -23.3369  -14.5177 C   0  0  0  0  0  0  0  0  0  0  0  0
   22.5697  -23.4085  -14.2565 O   0  0  0  0  0  0  0  0  0  0  0  0
   24.6237  -21.3303   -7.5760 O   0  0  0  0  0  0  0  0  0  0  0  0
   24.6157  -20.9950   -8.9406 C   0  0  0  0  0  0  0  0  0  0  0  0
   25.7655  -21.0380   -9.6968 C   0  0  0  0  0  0  0  0  0  0  0  0
   25.7378  -20.7042  -11.0397 C   0  0  0  0  0  0  0  0  0  0  0  0
   24.5822  -20.3191  -11.6774 C   0  0  0  0  0  0  0  0  0  0  0  0
   24.5394  -19.9652  -13.0896 C   0  0  0  0  0  0  0  0  0  0  0  0
   23.6792  -20.8830  -13.9268 C   0  0  2  0  0  0  0  0  0  0  0  0
   24.4113  -22.0564  -14.3620 N   0  0  0  0  0  0  0  0  0  0  0  0
   23.2847  -20.1152  -15.1386 C   0  0  0  0  0  0  0  0  0  0  0  0
   24.0686  -20.0140  -16.1383 O   0  0  0  0  0  0  0  0  0  0  0  0
   23.4349  -20.2771  -10.9189 C   0  0  0  0  0  0  0  0  0  0  0  0
   23.4470  -20.6116   -9.5607 C   0  0  0  0  0  0  0  0  0  0  0  0
   22.0396  -19.4586  -15.2625 N   0  0  0  0  0  0  0  0  0  0  0  0
   21.6569  -18.7454  -16.4904 C   0  0  0  0  0  0  0  0  0  0  0  0
   20.6228  -19.4631  -17.2310 C   0  0  0  0  0  0  0  0  0  0  0  0
   20.7407  -20.6811  -17.4994 O   0  0  0  0  0  0  0  0  0  0  0  0
   19.4881  -18.7926  -17.6479 O   0  0  0  0  0  0  0  0  0  0  0  0
  1  2  1  0
  3  4  2  0
  3  2  1  0
  6  5  1  0
  6  7  2  0
  8  7  1  0
  9  8  2  0
 10  9  1  0
 11 12  1  0
 11 10  1  1
 12  3  1  0
 13 11  1  0
 14 13  2  0
 15 16  2  0
 15  9  1  0
 16  6  1  0
 17 13  1  0
 18 17  1  0
 19 18  1  0
 19 21  1  0
 20 19  2  0
M  END
$$$$
