GYG.pdb
     RDKit          3D

 21 21  0  0  1  0  0  0  0  0999 V2000
   26.4512  -21.8563  -16.7819 N   0  0  0  0  0  0  0  0  0  0  0  0
   25.9651  -20.7688  -15.9672 C   0  0  0  0  0  0  0  0  0  0  0  0
   25.4143  -21.2667  -14.6695 C   0  0  0  0  0  0  0  0  0  0  0  0
   25.2516  -22.4926  -14.4471 O   0  0  0  0  0  0  0  0  0  0  0  0
   30.6939  -21.5246  -10.3426 O   0  0  0  0  0  0  0  0  0  0  0  0
   29.3545  -21.1627  -10.5655 C   0  0  0  0  0  0  0  0  0  0  0  0
   28.9566  -20.5759  -11.7457 C   0  0  0  0  0  0  0  0  0  0  0  0
   27.6327  -20.2263  -11.9469 C   0  0  0  0  0  0  0  0  0  0  0  0
   26.6630  -20.4427  -10.9963 C   0  0  0  0  0  0  0  0  0  0  0  0
   25.2666  -20.0797  -11.1953 C   0  0  0  0  0  0  0  0  0  0  0  0
   24.5918  -20.8289  -12.3207 C   0  0  2  0  0  0  0  0  0  0  0  0
   25.0461  -20.3706  -13.6192 N   0  0  0  0  0  0  0  0  0  0  0  0
   23.1361  -20.5391  -12.2177 C   0  0  0  0  0  0  0  0  0  0  0  0
   22.6375  -19.4820  -12.7256 O   0  0  0  0  0  0  0  0  0  0  0  0
   27.0640  -21.0293   -9.8180 C   0  0  0  0  0  0  0  0  0  0  0  0
   28.3982  -21.3881   -9.6000 C   0  0  0  0  0  0  0  0  0  0  0  0
   22.2247  -21.3980  -11.5633 N   0  0  0  0  0  0  0  0  0  0  0  0
   20.8014  -21.0563  -11.4209 C   0  0  0  0  0  0  0  0  0  0  0  0
   20.0146  -21.5410  -12.5517 C   0  0  0  0  0  0  0  0  0  0  0  0
   20.5507  -22.1582  -13.5011 O   0  0  0  0  0  0  0  0  0  0  0  0
   18.6506  -21.3187  -12.5832 O   0  0  0  0  0  0  0  0  0  0  0  0
  1  2  1  0
  3  4  2  0
  3  2  1  0
  6  5  1  0
  6  7  2  0
  8  7  1  0
  9  8  2  0
 10  9  1  0
 11 12  1  0
 11 10  1  1
 12  3  1  0
 13 11  1  0
 14 13  2  0
 15 16  2  0
 15  9  1  0
 16  6  1  0
 17 13  1  0
 18 17  1  0
 19 18  1  0
 19 21  1  0
 20 19  2  0
M  END
$$$$
