GYG.pdb
     RDKit          3D

 21 21  0  0  1  0  0  0  0  0999 V2000
   22.1142  -15.6164  -20.2055 N   0  0  0  0  0  0  0  0  0  0  0  0
   22.1211  -15.2815  -18.8018 C   0  0  0  0  0  0  0  0  0  0  0  0
   22.5469  -16.4470  -17.9677 C   0  0  0  0  0  0  0  0  0  0  0  0
   22.9266  -17.5271  -18.4855 O   0  0  0  0  0  0  0  0  0  0  0  0
   29.0627  -16.9796  -17.8724 O   0  0  0  0  0  0  0  0  0  0  0  0
   27.8639  -16.9919  -17.1395 C   0  0  0  0  0  0  0  0  0  0  0  0
   27.0744  -15.8686  -17.0361 C   0  0  0  0  0  0  0  0  0  0  0  0
   25.8968  -15.9001  -16.3097 C   0  0  0  0  0  0  0  0  0  0  0  0
   25.4613  -17.0338  -15.6649 C   0  0  0  0  0  0  0  0  0  0  0  0
   24.2243  -17.0804  -14.8974 C   0  0  0  0  0  0  0  0  0  0  0  0
   23.0131  -17.4781  -15.7084 C   0  0  2  0  0  0  0  0  0  0  0  0
   22.5420  -16.3878  -16.5400 N   0  0  0  0  0  0  0  0  0  0  0  0
   21.9359  -17.8102  -14.7373 C   0  0  0  0  0  0  0  0  0  0  0  0
   21.2086  -16.8987  -14.2233 O   0  0  0  0  0  0  0  0  0  0  0  0
   26.2526  -18.1546  -15.7702 C   0  0  0  0  0  0  0  0  0  0  0  0
   27.4453  -18.1383  -16.5007 C   0  0  0  0  0  0  0  0  0  0  0  0
   21.6506  -19.1317  -14.3262 N   0  0  0  0  0  0  0  0  0  0  0  0
   20.5192  -19.4416  -13.4393 C   0  0  0  0  0  0  0  0  0  0  0  0
   19.6646  -20.4849  -13.9996 C   0  0  0  0  0  0  0  0  0  0  0  0
   19.9319  -21.0257  -15.0976 O   0  0  0  0  0  0  0  0  0  0  0  0
   18.5363  -20.8897  -13.3111 O   0  0  0  0  0  0  0  0  0  0  0  0
  1  2  1  0
  3  4  2  0
  3  2  1  0
  6  5  1  0
  6  7  2  0
  8  7  1  0
  9  8  2  0
 10  9  1  0
 11 12  1  0
 11 10  1  1
 12  3  1  0
 13 11  1  0
 14 13  2  0
 15 16  2  0
 15  9  1  0
 16  6  1  0
 17 13  1  0
 18 17  1  0
 19 18  1  0
 19 21  1  0
 20 19  2  0
M  END
$$$$
