GYG.pdb
     RDKit          3D

 21 21  0  0  1  0  0  0  0  0999 V2000
   13.3685  -13.0057    5.9828 N   0  0  0  0  0  0  0  0  0  0  0  0
   14.0522  -13.8707    6.9139 C   0  0  0  0  0  0  0  0  0  0  0  0
   14.8502  -14.9142    6.2000 C   0  0  0  0  0  0  0  0  0  0  0  0
   14.6849  -15.1516    4.9772 O   0  0  0  0  0  0  0  0  0  0  0  0
   19.3926  -11.3320    3.7973 O   0  0  0  0  0  0  0  0  0  0  0  0
   19.0814  -12.5649    4.3953 C   0  0  0  0  0  0  0  0  0  0  0  0
   18.8898  -13.7005    3.6405 C   0  0  0  0  0  0  0  0  0  0  0  0
   18.5839  -14.9060    4.2475 C   0  0  0  0  0  0  0  0  0  0  0  0
   18.4576  -15.0310    5.6110 C   0  0  0  0  0  0  0  0  0  0  0  0
   18.1361  -16.2934    6.2623 C   0  0  0  0  0  0  0  0  0  0  0  0
   16.6730  -16.6643    6.1942 C   0  0  2  0  0  0  0  0  0  0  0  0
   15.8403  -15.6923    6.8755 N   0  0  0  0  0  0  0  0  0  0  0  0
   16.5263  -17.9659    6.8999 C   0  0  0  0  0  0  0  0  0  0  0  0
   16.6056  -18.0391    8.1697 O   0  0  0  0  0  0  0  0  0  0  0  0
   18.6497  -13.8943    6.3624 C   0  0  0  0  0  0  0  0  0  0  0  0
   18.9593  -12.6688    5.7634 C   0  0  0  0  0  0  0  0  0  0  0  0
   16.2938  -19.1855    6.2253 N   0  0  0  0  0  0  0  0  0  0  0  0
   16.1774  -20.4617    6.9467 C   0  0  0  0  0  0  0  0  0  0  0  0
   16.5454  -21.5945    6.1016 C   0  0  0  0  0  0  0  0  0  0  0  0
   16.9294  -21.4283    4.9207 O   0  0  0  0  0  0  0  0  0  0  0  0
   16.4715  -22.8791    6.6069 O   0  0  0  0  0  0  0  0  0  0  0  0
  1  2  1  0
  3  4  2  0
  3  2  1  0
  6  5  1  0
  6  7  2  0
  8  7  1  0
  9  8  2  0
 10  9  1  0
 11 12  1  0
 11 10  1  1
 12  3  1  0
 13 11  1  0
 14 13  2  0
 15 16  2  0
 15  9  1  0
 16  6  1  0
 17 13  1  0
 18 17  1  0
 19 18  1  0
 19 21  1  0
 20 19  2  0
M  END
$$$$
