GYG.pdb
     RDKit          3D

 21 21  0  0  1  0  0  0  0  0999 V2000
   21.1854  -20.3403  -11.5193 N   0  0  0  0  0  0  0  0  0  0  0  0
   22.2620  -21.1027  -10.9342 C   0  0  0  0  0  0  0  0  0  0  0  0
   23.5934  -20.6100  -11.4032 C   0  0  0  0  0  0  0  0  0  0  0  0
   23.7511  -19.4408  -11.8355 O   0  0  0  0  0  0  0  0  0  0  0  0
   27.4402  -19.0357   -5.6586 O   0  0  0  0  0  0  0  0  0  0  0  0
   27.3720  -19.6631   -6.9141 C   0  0  0  0  0  0  0  0  0  0  0  0
   28.5109  -20.0054   -7.6081 C   0  0  0  0  0  0  0  0  0  0  0  0
   28.4236  -20.6228   -8.8436 C   0  0  0  0  0  0  0  0  0  0  0  0
   27.2173  -20.9213   -9.4323 C   0  0  0  0  0  0  0  0  0  0  0  0
   27.1116  -21.5707  -10.7318 C   0  0  0  0  0  0  0  0  0  0  0  0
   26.0858  -20.9460  -11.6486 C   0  0  2  0  0  0  0  0  0  0  0  0
   24.7515  -21.4469  -11.3820 N   0  0  0  0  0  0  0  0  0  0  0  0
   26.4529  -21.3398  -13.0356 C   0  0  0  0  0  0  0  0  0  0  0  0
   27.5696  -20.9958  -13.5443 O   0  0  0  0  0  0  0  0  0  0  0  0
   26.0812  -20.5778   -8.7362 C   0  0  0  0  0  0  0  0  0  0  0  0
   26.1532  -19.9535   -7.4866 C   0  0  0  0  0  0  0  0  0  0  0  0
   25.6064  -22.1066  -13.8677 N   0  0  0  0  0  0  0  0  0  0  0  0
   26.0586  -22.6264  -15.1670 C   0  0  0  0  0  0  0  0  0  0  0  0
   25.6602  -21.7513  -16.2662 C   0  0  0  0  0  0  0  0  0  0  0  0
   25.9000  -22.0529  -17.4584 O   0  0  0  0  0  0  0  0  0  0  0  0
   25.0051  -20.5647  -15.9948 O   0  0  0  0  0  0  0  0  0  0  0  0
  1  2  1  0
  3  4  2  0
  3  2  1  0
  6  5  1  0
  6  7  2  0
  8  7  1  0
  9  8  2  0
 10  9  1  0
 11 12  1  0
 11 10  1  1
 12  3  1  0
 13 11  1  0
 14 13  2  0
 15 16  2  0
 15  9  1  0
 16  6  1  0
 17 13  1  0
 18 17  1  0
 19 18  1  0
 19 21  1  0
 20 19  2  0
M  END
$$$$
