GYG.pdb
     RDKit          3D

 21 21  0  0  1  0  0  0  0  0999 V2000
   21.3700  -20.1196  -11.6508 N   0  0  0  0  0  0  0  0  0  0  0  0
   22.3854  -21.1444  -11.6878 C   0  0  0  0  0  0  0  0  0  0  0  0
   23.7561  -20.5492  -11.7338 C   0  0  0  0  0  0  0  0  0  0  0  0
   23.9376  -19.3211  -11.9279 O   0  0  0  0  0  0  0  0  0  0  0  0
   27.0908  -19.3371   -5.3961 O   0  0  0  0  0  0  0  0  0  0  0  0
   27.1297  -19.8705   -6.6955 C   0  0  0  0  0  0  0  0  0  0  0  0
   28.2999  -19.9107   -7.4200 C   0  0  0  0  0  0  0  0  0  0  0  0
   28.3185  -20.4399   -8.6986 C   0  0  0  0  0  0  0  0  0  0  0  0
   27.1903  -20.9441   -9.3017 C   0  0  0  0  0  0  0  0  0  0  0  0
   27.1963  -21.5037  -10.6464 C   0  0  0  0  0  0  0  0  0  0  0  0
   26.2674  -20.8002  -11.6082 C   0  0  2  0  0  0  0  0  0  0  0  0
   24.9266  -21.3500  -11.5591 N   0  0  0  0  0  0  0  0  0  0  0  0
   26.8069  -21.0337  -12.9750 C   0  0  0  0  0  0  0  0  0  0  0  0
   26.6445  -22.1515  -13.5651 O   0  0  0  0  0  0  0  0  0  0  0  0
   26.0226  -20.9024   -8.5750 C   0  0  0  0  0  0  0  0  0  0  0  0
   25.9880  -20.3707   -7.2817 C   0  0  0  0  0  0  0  0  0  0  0  0
   27.5218  -20.0528  -13.6984 N   0  0  0  0  0  0  0  0  0  0  0  0
   28.0415  -20.3099  -15.0499 C   0  0  0  0  0  0  0  0  0  0  0  0
   27.0554  -19.9866  -16.0775 C   0  0  0  0  0  0  0  0  0  0  0  0
   26.3436  -20.8755  -16.5996 O   0  0  0  0  0  0  0  0  0  0  0  0
   26.8979  -18.6760  -16.4881 O   0  0  0  0  0  0  0  0  0  0  0  0
  1  2  1  0
  3  4  2  0
  3  2  1  0
  6  5  1  0
  6  7  2  0
  8  7  1  0
  9  8  2  0
 10  9  1  0
 11 12  1  0
 11 10  1  1
 12  3  1  0
 13 11  1  0
 14 13  2  0
 15 16  2  0
 15  9  1  0
 16  6  1  0
 17 13  1  0
 18 17  1  0
 19 18  1  0
 19 21  1  0
 20 19  2  0
M  END
$$$$
