GYG.pdb
     RDKit          3D

 21 21  0  0  1  0  0  0  0  0999 V2000
   28.6464  -20.3894  -19.2767 N   0  0  0  0  0  0  0  0  0  0  0  0
   28.5263  -19.4432  -18.1937 C   0  0  0  0  0  0  0  0  0  0  0  0
   27.8492  -20.0561  -17.0099 C   0  0  0  0  0  0  0  0  0  0  0  0
   27.2225  -21.1418  -17.0953 O   0  0  0  0  0  0  0  0  0  0  0  0
   24.7144  -21.1291   -8.7455 O   0  0  0  0  0  0  0  0  0  0  0  0
   25.4714  -20.7418   -9.8642 C   0  0  0  0  0  0  0  0  0  0  0  0
   25.7051  -19.4149  -10.1481 C   0  0  0  0  0  0  0  0  0  0  0  0
   26.4532  -19.0529  -11.2547 C   0  0  0  0  0  0  0  0  0  0  0  0
   26.9925  -19.9819  -12.1130 C   0  0  0  0  0  0  0  0  0  0  0  0
   27.7815  -19.6143  -13.2808 C   0  0  0  0  0  0  0  0  0  0  0  0
   27.1076  -19.9203  -14.5981 C   0  0  2  0  0  0  0  0  0  0  0  0
   27.8829  -19.4353  -15.7233 N   0  0  0  0  0  0  0  0  0  0  0  0
   25.8074  -19.1971  -14.5938 C   0  0  0  0  0  0  0  0  0  0  0  0
   25.7596  -17.9274  -14.6923 O   0  0  0  0  0  0  0  0  0  0  0  0
   26.7571  -21.3070  -11.8265 C   0  0  0  0  0  0  0  0  0  0  0  0
   26.0031  -21.6885  -10.7119 C   0  0  0  0  0  0  0  0  0  0  0  0
   24.5614  -19.8542  -14.4824 N   0  0  0  0  0  0  0  0  0  0  0  0
   23.2960  -19.1097  -14.3971 C   0  0  0  0  0  0  0  0  0  0  0  0
   22.1736  -19.9883  -14.0792 C   0  0  0  0  0  0  0  0  0  0  0  0
   22.3563  -21.1767  -13.7269 O   0  0  0  0  0  0  0  0  0  0  0  0
   20.8806  -19.5072  -14.1660 O   0  0  0  0  0  0  0  0  0  0  0  0
  1  2  1  0
  3  4  2  0
  3  2  1  0
  6  5  1  0
  6  7  2  0
  8  7  1  0
  9  8  2  0
 10  9  1  0
 11 12  1  0
 11 10  1  1
 12  3  1  0
 13 11  1  0
 14 13  2  0
 15 16  2  0
 15  9  1  0
 16  6  1  0
 17 13  1  0
 18 17  1  0
 19 18  1  0
 19 21  1  0
 20 19  2  0
M  END
$$$$
