GYG.pdb
     RDKit          3D

 21 21  0  0  1  0  0  0  0  0999 V2000
   27.9649  -21.8793  -15.3925 N   0  0  0  0  0  0  0  0  0  0  0  0
   27.3417  -20.8022  -14.6615 C   0  0  0  0  0  0  0  0  0  0  0  0
   26.2895  -21.3149  -13.7313 C   0  0  0  0  0  0  0  0  0  0  0  0
   25.9079  -22.5118  -13.7597 O   0  0  0  0  0  0  0  0  0  0  0  0
   29.7715  -21.0420   -7.8953 O   0  0  0  0  0  0  0  0  0  0  0  0
   28.5337  -20.8343   -8.5273 C   0  0  0  0  0  0  0  0  0  0  0  0
   27.5655  -20.0339   -7.9635 C   0  0  0  0  0  0  0  0  0  0  0  0
   26.3523  -19.8413   -8.6011 C   0  0  0  0  0  0  0  0  0  0  0  0
   26.0555  -20.4282   -9.8087 C   0  0  0  0  0  0  0  0  0  0  0  0
   24.7830  -20.2337  -10.4900 C   0  0  0  0  0  0  0  0  0  0  0  0
   24.6813  -20.9495  -11.8168 C   0  0  2  0  0  0  0  0  0  0  0  0
   25.6670  -20.4668  -12.7643 N   0  0  0  0  0  0  0  0  0  0  0  0
   23.3324  -20.6459  -12.3665 C   0  0  0  0  0  0  0  0  0  0  0  0
   23.0135  -19.4616  -12.7124 O   0  0  0  0  0  0  0  0  0  0  0  0
   27.0252  -21.2274  -10.3693 C   0  0  0  0  0  0  0  0  0  0  0  0
   28.2561  -21.4316   -9.7371 C   0  0  0  0  0  0  0  0  0  0  0  0
   22.3325  -21.6292  -12.5394 N   0  0  0  0  0  0  0  0  0  0  0  0
   21.0414  -21.3205  -13.1724 C   0  0  0  0  0  0  0  0  0  0  0  0
   20.1841  -22.5000  -13.2522 C   0  0  0  0  0  0  0  0  0  0  0  0
   20.2132  -23.2602  -14.2477 O   0  0  0  0  0  0  0  0  0  0  0  0
   19.3202  -22.7910  -12.2130 O   0  0  0  0  0  0  0  0  0  0  0  0
  1  2  1  0
  3  4  2  0
  3  2  1  0
  6  5  1  0
  6  7  2  0
  8  7  1  0
  9  8  2  0
 10  9  1  0
 11 12  1  0
 11 10  1  1
 12  3  1  0
 13 11  1  0
 14 13  2  0
 15 16  2  0
 15  9  1  0
 16  6  1  0
 17 13  1  0
 18 17  1  0
 19 18  1  0
 19 21  1  0
 20 19  2  0
M  END
$$$$
