GYG.pdb
     RDKit          3D

 21 21  0  0  1  0  0  0  0  0999 V2000
   29.4177  -24.6216  -15.9455 N   0  0  0  0  0  0  0  0  0  0  0  0
   29.7583  -23.2230  -15.8423 C   0  0  0  0  0  0  0  0  0  0  0  0
   28.5367  -22.3621  -15.8860 C   0  0  0  0  0  0  0  0  0  0  0  0
   27.4101  -22.8276  -16.1906 O   0  0  0  0  0  0  0  0  0  0  0  0
   24.6401  -21.3629   -9.9594 O   0  0  0  0  0  0  0  0  0  0  0  0
   25.3265  -20.8178  -11.0577 C   0  0  0  0  0  0  0  0  0  0  0  0
   26.5252  -20.1591  -10.8997 C   0  0  0  0  0  0  0  0  0  0  0  0
   27.1867  -19.6288  -11.9936 C   0  0  0  0  0  0  0  0  0  0  0  0
   26.6909  -19.7300  -13.2721 C   0  0  0  0  0  0  0  0  0  0  0  0
   27.3768  -19.1766  -14.4316 C   0  0  0  0  0  0  0  0  0  0  0  0
   27.4243  -20.1089  -15.6197 C   0  0  2  0  0  0  0  0  0  0  0  0
   28.5926  -20.9668  -15.5829 N   0  0  0  0  0  0  0  0  0  0  0  0
   27.5237  -19.2537  -16.8332 C   0  0  0  0  0  0  0  0  0  0  0  0
   28.6053  -18.6457  -17.1236 O   0  0  0  0  0  0  0  0  0  0  0  0
   25.4928  -20.3889  -13.4266 C   0  0  0  0  0  0  0  0  0  0  0  0
   24.8125  -20.9301  -12.3307 C   0  0  0  0  0  0  0  0  0  0  0  0
   26.4481  -19.0606  -17.7290 N   0  0  0  0  0  0  0  0  0  0  0  0
   26.6040  -18.2966  -18.9760 C   0  0  0  0  0  0  0  0  0  0  0  0
   25.3639  -18.2629  -19.7465 C   0  0  0  0  0  0  0  0  0  0  0  0
   24.8050  -19.3174  -20.1275 O   0  0  0  0  0  0  0  0  0  0  0  0
   24.7884  -17.0473  -20.0661 O   0  0  0  0  0  0  0  0  0  0  0  0
  1  2  1  0
  3  4  2  0
  3  2  1  0
  6  5  1  0
  6  7  2  0
  8  7  1  0
  9  8  2  0
 10  9  1  0
 11 12  1  0
 11 10  1  1
 12  3  1  0
 13 11  1  0
 14 13  2  0
 15 16  2  0
 15  9  1  0
 16  6  1  0
 17 13  1  0
 18 17  1  0
 19 18  1  0
 19 21  1  0
 20 19  2  0
M  END
$$$$
