GYG.pdb
     RDKit          3D

 21 21  0  0  1  0  0  0  0  0999 V2000
   29.3862  -21.9236  -12.7369 N   0  0  0  0  0  0  0  0  0  0  0  0
   29.0034  -20.8381  -11.8664 C   0  0  0  0  0  0  0  0  0  0  0  0
   27.7578  -21.1649  -11.1067 C   0  0  0  0  0  0  0  0  0  0  0  0
   27.1146  -22.2239  -11.3153 O   0  0  0  0  0  0  0  0  0  0  0  0
   29.4621  -20.2986   -4.0339 O   0  0  0  0  0  0  0  0  0  0  0  0
   28.5438  -20.1318   -5.0843 C   0  0  0  0  0  0  0  0  0  0  0  0
   27.7866  -21.1836   -5.5493 C   0  0  0  0  0  0  0  0  0  0  0  0
   26.8872  -21.0000   -6.5850 C   0  0  0  0  0  0  0  0  0  0  0  0
   26.7058  -19.7801   -7.1930 C   0  0  0  0  0  0  0  0  0  0  0  0
   25.7629  -19.5733   -8.2836 C   0  0  0  0  0  0  0  0  0  0  0  0
   25.9629  -20.5081   -9.4537 C   0  0  2  0  0  0  0  0  0  0  0  0
   27.2389  -20.2869  -10.1058 N   0  0  0  0  0  0  0  0  0  0  0  0
   24.8886  -20.2023  -10.4366 C   0  0  0  0  0  0  0  0  0  0  0  0
   25.0334  -19.2811  -11.3051 O   0  0  0  0  0  0  0  0  0  0  0  0
   27.4640  -18.7311   -6.7260 C   0  0  0  0  0  0  0  0  0  0  0  0
   28.3771  -18.9011   -5.6800 C   0  0  0  0  0  0  0  0  0  0  0  0
   23.6591  -20.8976  -10.4743 N   0  0  0  0  0  0  0  0  0  0  0  0
   22.6675  -20.6642  -11.5350 C   0  0  0  0  0  0  0  0  0  0  0  0
   21.4492  -21.4386  -11.3144 C   0  0  0  0  0  0  0  0  0  0  0  0
   20.4679  -20.9501  -10.7078 O   0  0  0  0  0  0  0  0  0  0  0  0
   21.3688  -22.7374  -11.7810 O   0  0  0  0  0  0  0  0  0  0  0  0
  1  2  1  0
  3  4  2  0
  3  2  1  0
  6  5  1  0
  6  7  2  0
  8  7  1  0
  9  8  2  0
 10  9  1  0
 11 12  1  0
 11 10  1  1
 12  3  1  0
 13 11  1  0
 14 13  2  0
 15 16  2  0
 15  9  1  0
 16  6  1  0
 17 13  1  0
 18 17  1  0
 19 18  1  0
 19 21  1  0
 20 19  2  0
M  END
$$$$
