CYR.pdb
     RDKit          3D

 30 30  0  0  1  0  0  0  0  0999 V2000
   29.1279   -5.2832  -21.4809 N   0  0  0  0  0  0  0  0  0  0  0  0
   28.8739   -5.3636  -20.0740 C   0  0  1  0  0  0  0  0  0  0  0  0
   28.1250   -4.1158  -19.6394 C   0  0  0  0  0  0  0  0  0  0  0  0
   29.2446   -2.6970  -19.5275 S   0  0  0  0  0  0  0  0  0  0  0  0
   28.1241   -6.5881  -19.6947 C   0  0  0  0  0  0  0  0  0  0  0  0
   27.2524   -7.0116  -20.4644 O   0  0  0  0  0  0  0  0  0  0  0  0
   26.1537  -14.2797  -15.8139 O   0  0  0  0  0  0  0  0  0  0  0  0
   26.7556  -13.0671  -16.1744 C   0  0  0  0  0  0  0  0  0  0  0  0
   27.2469  -12.8535  -17.4392 C   0  0  0  0  0  0  0  0  0  0  0  0
   27.8393  -11.6631  -17.7984 C   0  0  0  0  0  0  0  0  0  0  0  0
   27.9575  -10.6380  -16.8856 C   0  0  0  0  0  0  0  0  0  0  0  0
   28.5932   -9.3855  -17.3050 C   0  0  0  0  0  0  0  0  0  0  0  0
   27.6636   -8.4467  -18.0420 C   0  0  2  0  0  0  0  0  0  0  0  0
   28.3857   -7.2608  -18.4955 N   0  0  0  0  0  0  0  0  0  0  0  0
   26.4022   -8.1585  -17.3872 C   0  0  0  0  0  0  0  0  0  0  0  0
   26.3545   -7.3309  -16.4500 O   0  0  0  0  0  0  0  0  0  0  0  0
   27.4651  -10.8569  -15.6238 C   0  0  0  0  0  0  0  0  0  0  0  0
   26.8695  -12.0468  -15.2542 C   0  0  0  0  0  0  0  0  0  0  0  0
   18.0575   -8.7722  -20.5038 N   0  0  0  0  0  0  0  0  0  0  0  0
   17.9602   -8.4032  -19.1156 C   0  0  0  0  0  0  0  0  0  0  0  0
   16.8056   -8.1025  -18.6106 N   0  0  0  0  0  0  0  0  0  0  0  0
   19.0847   -8.3543  -18.2698 N   0  0  0  0  0  0  0  0  0  0  0  0
   20.3923   -8.7430  -18.7327 C   0  0  0  0  0  0  0  0  0  0  0  0
   21.4572   -8.5346  -17.6834 C   0  0  0  0  0  0  0  0  0  0  0  0
   22.8293   -8.8788  -18.2150 C   0  0  0  0  0  0  0  0  0  0  0  0
   23.9153   -8.5246  -17.2096 C   0  0  2  0  0  0  0  0  0  0  0  0
   25.2060   -8.7926  -17.7845 N   0  0  0  0  0  0  0  0  0  0  0  0
   23.7065   -9.4097  -16.0505 C   0  0  0  0  0  0  0  0  0  0  0  0
   24.1466  -10.5798  -16.0845 O   0  0  0  0  0  0  0  0  0  0  0  0
   23.0366   -9.0143  -14.8994 O   0  0  0  0  0  0  0  0  0  0  0  0
  2  1  1  6
  2  3  1  0
  3  4  1  0
  5  2  1  0
  6  5  2  0
  8  9  2  0
  8  7  1  0
 10  9  1  0
 11 10  2  0
 12 11  1  0
 13 12  1  1
 13 14  1  0
 14  5  1  0
 15 27  1  0
 15 13  1  0
 16 15  2  0
 17 11  1  0
 17 18  2  0
 18  8  1  0
 20 19  1  0
 21 20  2  0
 22 20  1  0
 23 22  1  0
 24 23  1  0
 25 24  1  0
 26 25  1  6
 26 27  1  0
 28 30  1  0
 28 26  1  0
 29 28  2  0
M  END
$$$$
