CYR.pdb
     RDKit          3D

 30 30  0  0  1  0  0  0  0  0999 V2000
   26.1951  -24.9805  -15.8443 N   0  0  0  0  0  0  0  0  0  0  0  0
   25.8945  -23.6070  -16.1157 C   0  0  1  0  0  0  0  0  0  0  0  0
   25.4732  -23.4758  -17.5690 C   0  0  0  0  0  0  0  0  0  0  0  0
   26.8643  -23.8153  -18.6775 S   0  0  0  0  0  0  0  0  0  0  0  0
   24.8514  -23.0580  -15.2122 C   0  0  0  0  0  0  0  0  0  0  0  0
   23.9764  -23.8214  -14.7842 O   0  0  0  0  0  0  0  0  0  0  0  0
   24.8378  -20.7981   -7.6200 O   0  0  0  0  0  0  0  0  0  0  0  0
   24.7313  -20.5834   -9.0003 C   0  0  0  0  0  0  0  0  0  0  0  0
   25.8224  -20.6700   -9.8302 C   0  0  0  0  0  0  0  0  0  0  0  0
   25.7227  -20.4598  -11.1877 C   0  0  0  0  0  0  0  0  0  0  0  0
   24.5078  -20.1522  -11.7598 C   0  0  0  0  0  0  0  0  0  0  0  0
   24.4409  -19.9362  -13.2082 C   0  0  0  0  0  0  0  0  0  0  0  0
   23.8435  -21.0980  -13.9711 C   0  0  2  0  0  0  0  0  0  0  0  0
   24.8440  -21.7079  -14.8432 N   0  0  0  0  0  0  0  0  0  0  0  0
   22.5693  -20.8463  -14.6159 C   0  0  0  0  0  0  0  0  0  0  0  0
   22.5296  -20.2830  -15.7324 O   0  0  0  0  0  0  0  0  0  0  0  0
   23.4213  -20.0670  -10.9261 C   0  0  0  0  0  0  0  0  0  0  0  0
   23.5112  -20.2760   -9.5640 C   0  0  0  0  0  0  0  0  0  0  0  0
   21.9675  -22.7345  -17.8018 N   0  0  0  0  0  0  0  0  0  0  0  0
   20.9033  -23.3789  -18.5262 C   0  0  0  0  0  0  0  0  0  0  0  0
   21.1857  -24.1811  -19.5035 N   0  0  0  0  0  0  0  0  0  0  0  0
   19.5465  -23.1709  -18.2128 N   0  0  0  0  0  0  0  0  0  0  0  0
   19.1493  -22.4025  -17.0608 C   0  0  0  0  0  0  0  0  0  0  0  0
   19.5591  -23.0589  -15.7649 C   0  0  0  0  0  0  0  0  0  0  0  0
   19.2101  -22.1948  -14.5752 C   0  0  0  0  0  0  0  0  0  0  0  0
   20.0515  -20.9272  -14.5481 C   0  0  2  0  0  0  0  0  0  0  0  0
   21.3520  -21.2269  -14.0124 N   0  0  0  0  0  0  0  0  0  0  0  0
   19.3576  -19.9928  -13.6448 C   0  0  0  0  0  0  0  0  0  0  0  0
   19.8554  -19.7362  -12.5266 O   0  0  0  0  0  0  0  0  0  0  0  0
   18.1596  -19.3676  -13.9675 O   0  0  0  0  0  0  0  0  0  0  0  0
  2  1  1  1
  2  3  1  0
  3  4  1  0
  5  2  1  0
  6  5  2  0
  8  9  2  0
  8  7  1  0
 10  9  1  0
 11 10  2  0
 12 11  1  0
 13 12  1  6
 13 14  1  0
 14  5  1  0
 15 27  1  0
 15 13  1  0
 16 15  2  0
 17 11  1  0
 17 18  2  0
 18  8  1  0
 20 19  1  0
 21 20  2  0
 22 20  1  0
 23 22  1  0
 24 23  1  0
 25 24  1  0
 26 25  1  1
 26 27  1  0
 28 30  1  0
 28 26  1  0
 29 28  2  0
M  END
$$$$
