CYR.pdb
     RDKit          3D

 30 30  0  0  1  0  0  0  0  0999 V2000
   27.0479  -13.7014  -18.4646 N   0  0  0  0  0  0  0  0  0  0  0  0
   26.2125  -13.1241  -17.4549 C   0  0  1  0  0  0  0  0  0  0  0  0
   27.0821  -12.3336  -16.4929 C   0  0  0  0  0  0  0  0  0  0  0  0
   28.2593  -13.4184  -15.6465 S   0  0  0  0  0  0  0  0  0  0  0  0
   25.1373  -12.2689  -18.0190 C   0  0  0  0  0  0  0  0  0  0  0  0
   25.3214  -11.7341  -19.1198 O   0  0  0  0  0  0  0  0  0  0  0  0
   21.6858  -16.2930  -21.7581 O   0  0  0  0  0  0  0  0  0  0  0  0
   21.6525  -15.2631  -20.8090 C   0  0  0  0  0  0  0  0  0  0  0  0
   21.8338  -15.5097  -19.4700 C   0  0  0  0  0  0  0  0  0  0  0  0
   21.8019  -14.5005  -18.5332 C   0  0  0  0  0  0  0  0  0  0  0  0
   21.5839  -13.1959  -18.9187 C   0  0  0  0  0  0  0  0  0  0  0  0
   21.5577  -12.1489  -17.8931 C   0  0  0  0  0  0  0  0  0  0  0  0
   22.8075  -11.2972  -17.8589 C   0  0  2  0  0  0  0  0  0  0  0  0
   23.9352  -12.0619  -17.3326 N   0  0  0  0  0  0  0  0  0  0  0  0
   22.6613   -9.9781  -17.2746 C   0  0  0  0  0  0  0  0  0  0  0  0
   22.8259   -9.8128  -16.0453 O   0  0  0  0  0  0  0  0  0  0  0  0
   21.4034  -12.9554  -20.2575 C   0  0  0  0  0  0  0  0  0  0  0  0
   21.4337  -13.9604  -21.2041 C   0  0  0  0  0  0  0  0  0  0  0  0
   21.3285   -1.9507  -21.2433 N   0  0  0  0  0  0  0  0  0  0  0  0
   21.4734   -1.7310  -19.8279 C   0  0  0  0  0  0  0  0  0  0  0  0
   21.3927   -0.5283  -19.3532 N   0  0  0  0  0  0  0  0  0  0  0  0
   21.7029   -2.7849  -18.9228 N   0  0  0  0  0  0  0  0  0  0  0  0
   21.8201   -4.1492  -19.3701 C   0  0  0  0  0  0  0  0  0  0  0  0
   21.9470   -5.1201  -18.2215 C   0  0  0  0  0  0  0  0  0  0  0  0
   22.0403   -6.5461  -18.7130 C   0  0  0  0  0  0  0  0  0  0  0  0
   22.1694   -7.5224  -17.5529 C   0  0  2  0  0  0  0  0  0  0  0  0
   22.3361   -8.8557  -18.0653 N   0  0  0  0  0  0  0  0  0  0  0  0
   20.9015   -7.4436  -16.8067 C   0  0  0  0  0  0  0  0  0  0  0  0
   19.9327   -8.1479  -17.1666 O   0  0  0  0  0  0  0  0  0  0  0  0
   20.7142   -6.6174  -15.7056 O   0  0  0  0  0  0  0  0  0  0  0  0
  2  1  1  6
  2  3  1  0
  3  4  1  0
  5  2  1  0
  6  5  2  0
  8  9  2  0
  8  7  1  0
 10  9  1  0
 11 10  2  0
 12 11  1  0
 13 12  1  1
 13 14  1  0
 14  5  1  0
 15 27  1  0
 15 13  1  0
 16 15  2  0
 17 11  1  0
 17 18  2  0
 18  8  1  0
 20 19  1  0
 21 20  2  0
 22 20  1  0
 23 22  1  0
 24 23  1  0
 25 24  1  0
 26 25  1  6
 26 27  1  0
 28 30  1  0
 28 26  1  0
 29 28  2  0
M  END
$$$$
