CYR.pdb
     RDKit          3D

 30 30  0  0  1  0  0  0  0  0999 V2000
   18.9748  -14.5838  -16.0406 N   0  0  0  0  0  0  0  0  0  0  0  0
   18.7321  -13.3524  -16.7301 C   0  0  1  0  0  0  0  0  0  0  0  0
   17.3221  -13.3765  -17.2939 C   0  0  0  0  0  0  0  0  0  0  0  0
   17.0988  -14.7817  -18.4141 S   0  0  0  0  0  0  0  0  0  0  0  0
   18.9349  -12.1611  -15.8667 C   0  0  0  0  0  0  0  0  0  0  0  0
   18.2789  -12.0680  -14.8214 O   0  0  0  0  0  0  0  0  0  0  0  0
   22.0463   -4.1098  -13.5921 O   0  0  0  0  0  0  0  0  0  0  0  0
   21.8855   -5.4094  -14.0899 C   0  0  0  0  0  0  0  0  0  0  0  0
   21.9213   -6.5074  -13.2654 C   0  0  0  0  0  0  0  0  0  0  0  0
   21.7638   -7.7870  -13.7500 C   0  0  0  0  0  0  0  0  0  0  0  0
   21.5629   -8.0048  -15.0954 C   0  0  0  0  0  0  0  0  0  0  0  0
   21.3984   -9.3807  -15.5737 C   0  0  0  0  0  0  0  0  0  0  0  0
   19.9724   -9.8819  -15.5109 C   0  0  2  0  0  0  0  0  0  0  0  0
   19.8449  -11.1559  -16.2138 N   0  0  0  0  0  0  0  0  0  0  0  0
   18.9442   -8.9152  -15.8443 C   0  0  0  0  0  0  0  0  0  0  0  0
   18.6458   -8.7015  -17.0404 O   0  0  0  0  0  0  0  0  0  0  0  0
   21.5280   -6.9045  -15.9144 C   0  0  0  0  0  0  0  0  0  0  0  0
   21.6849   -5.6178  -15.4380 C   0  0  0  0  0  0  0  0  0  0  0  0
   11.1765   -7.3387  -12.0118 N   0  0  0  0  0  0  0  0  0  0  0  0
   11.2875   -6.4428  -13.1334 C   0  0  0  0  0  0  0  0  0  0  0  0
   10.2641   -5.7343  -13.4927 N   0  0  0  0  0  0  0  0  0  0  0  0
   12.4801   -6.3019  -13.8683 N   0  0  0  0  0  0  0  0  0  0  0  0
   13.6474   -7.0906  -13.5674 C   0  0  0  0  0  0  0  0  0  0  0  0
   14.8387   -6.6941  -14.4053 C   0  0  0  0  0  0  0  0  0  0  0  0
   16.0185   -7.6033  -14.1506 C   0  0  0  0  0  0  0  0  0  0  0  0
   17.1704   -7.2901  -15.0943 C   0  0  2  0  0  0  0  0  0  0  0  0
   18.2566   -8.1982  -14.8423 N   0  0  0  0  0  0  0  0  0  0  0  0
   17.6008   -5.9176  -14.7757 C   0  0  0  0  0  0  0  0  0  0  0  0
   18.4020   -5.7285  -13.8342 O   0  0  0  0  0  0  0  0  0  0  0  0
   17.1611   -4.7989  -15.4723 O   0  0  0  0  0  0  0  0  0  0  0  0
  2  1  1  1
  2  3  1  0
  3  4  1  0
  5  2  1  0
  6  5  2  0
  8  9  2  0
  8  7  1  0
 10  9  1  0
 11 10  2  0
 12 11  1  0
 13 12  1  6
 13 14  1  0
 14  5  1  0
 15 27  1  0
 15 13  1  0
 16 15  2  0
 17 11  1  0
 17 18  2  0
 18  8  1  0
 20 19  1  0
 21 20  2  0
 22 20  1  0
 23 22  1  0
 24 23  1  0
 25 24  1  0
 26 25  1  1
 26 27  1  0
 28 30  1  0
 28 26  1  0
 29 28  2  0
M  END
$$$$
