CYR.pdb
     RDKit          3D

 30 30  0  0  1  0  0  0  0  0999 V2000
   28.6169  -21.5228  -16.7961 N   0  0  0  0  0  0  0  0  0  0  0  0
   28.0987  -20.4710  -15.9742 C   0  0  1  0  0  0  0  0  0  0  0  0
   27.5046  -19.3975  -16.8694 C   0  0  0  0  0  0  0  0  0  0  0  0
   28.4355  -17.8508  -16.7276 S   0  0  0  0  0  0  0  0  0  0  0  0
   27.0958  -20.9521  -14.9901 C   0  0  0  0  0  0  0  0  0  0  0  0
   26.3293  -21.8648  -15.3230 O   0  0  0  0  0  0  0  0  0  0  0  0
   22.3046  -21.1910   -7.4714 O   0  0  0  0  0  0  0  0  0  0  0  0
   23.2732  -20.9208   -8.4468 C   0  0  0  0  0  0  0  0  0  0  0  0
   24.5106  -21.5164   -8.4192 C   0  0  0  0  0  0  0  0  0  0  0  0
   25.4661  -21.2540   -9.3759 C   0  0  0  0  0  0  0  0  0  0  0  0
   25.2036  -20.3737  -10.4027 C   0  0  0  0  0  0  0  0  0  0  0  0
   26.2450  -20.1205  -11.4027 C   0  0  0  0  0  0  0  0  0  0  0  0
   25.8993  -20.6281  -12.7853 C   0  0  2  0  0  0  0  0  0  0  0  0
   27.0065  -20.3953  -13.7091 N   0  0  0  0  0  0  0  0  0  0  0  0
   24.6032  -20.2323  -13.3014 C   0  0  0  0  0  0  0  0  0  0  0  0
   24.4401  -19.0888  -13.7824 O   0  0  0  0  0  0  0  0  0  0  0  0
   23.9659  -19.7818  -10.4253 C   0  0  0  0  0  0  0  0  0  0  0  0
   23.0015  -20.0384   -9.4708 C   0  0  0  0  0  0  0  0  0  0  0  0
   21.0362  -20.0213  -19.9130 N   0  0  0  0  0  0  0  0  0  0  0  0
   21.8238  -18.9211  -19.4211 C   0  0  0  0  0  0  0  0  0  0  0  0
   21.8633  -17.8110  -20.0879 N   0  0  0  0  0  0  0  0  0  0  0  0
   22.5652  -19.0016  -18.2268 N   0  0  0  0  0  0  0  0  0  0  0  0
   22.5616  -20.1933  -17.4174 C   0  0  0  0  0  0  0  0  0  0  0  0
   21.8740  -19.9827  -16.0903 C   0  0  0  0  0  0  0  0  0  0  0  0
   22.0276  -21.1886  -15.1927 C   0  0  0  0  0  0  0  0  0  0  0  0
   22.1814  -20.7763  -13.7360 C   0  0  2  0  0  0  0  0  0  0  0  0
   23.5024  -21.1146  -13.2793 N   0  0  0  0  0  0  0  0  0  0  0  0
   21.1901  -21.5614  -12.9801 C   0  0  0  0  0  0  0  0  0  0  0  0
   19.9876  -21.2188  -13.0048 O   0  0  0  0  0  0  0  0  0  0  0  0
   21.5179  -22.6816  -12.2266 O   0  0  0  0  0  0  0  0  0  0  0  0
  2  1  1  6
  2  3  1  0
  3  4  1  0
  5  2  1  0
  6  5  2  0
  8  9  2  0
  8  7  1  0
 10  9  1  0
 11 10  2  0
 12 11  1  0
 13 12  1  1
 13 14  1  0
 14  5  1  0
 15 27  1  0
 15 13  1  0
 16 15  2  0
 17 11  1  0
 17 18  2  0
 18  8  1  0
 20 19  1  0
 21 20  2  0
 22 20  1  0
 23 22  1  0
 24 23  1  0
 25 24  1  0
 26 25  1  6
 26 27  1  0
 28 30  1  0
 28 26  1  0
 29 28  2  0
M  END
$$$$
