CYR.pdb
     RDKit          3D

 30 30  0  0  1  0  0  0  0  0999 V2000
   27.6476   -8.0998  -19.7614 N   0  0  0  0  0  0  0  0  0  0  0  0
   28.4652   -8.8082  -18.8232 C   0  0  1  0  0  0  0  0  0  0  0  0
   28.4634  -10.2826  -19.1875 C   0  0  0  0  0  0  0  0  0  0  0  0
   26.9138  -11.0708  -18.6810 S   0  0  0  0  0  0  0  0  0  0  0  0
   29.8526   -8.2822  -18.7585 C   0  0  0  0  0  0  0  0  0  0  0  0
   30.4077   -7.9432  -19.8114 O   0  0  0  0  0  0  0  0  0  0  0  0
   37.3707   -5.1725  -15.1380 O   0  0  0  0  0  0  0  0  0  0  0  0
   36.0700   -5.6460  -15.3540 C   0  0  0  0  0  0  0  0  0  0  0  0
   35.1139   -4.8742  -15.9678 C   0  0  0  0  0  0  0  0  0  0  0  0
   33.8339   -5.3353  -16.1824 C   0  0  0  0  0  0  0  0  0  0  0  0
   33.4713   -6.6025  -15.7812 C   0  0  0  0  0  0  0  0  0  0  0  0
   32.1000   -7.0585  -16.0275 C   0  0  0  0  0  0  0  0  0  0  0  0
   31.8935   -7.6556  -17.4021 C   0  0  2  0  0  0  0  0  0  0  0  0
   30.5320   -8.1663  -17.5403 N   0  0  0  0  0  0  0  0  0  0  0  0
   32.9200   -8.5736  -17.8565 C   0  0  0  0  0  0  0  0  0  0  0  0
   32.9097   -9.7662  -17.4783 O   0  0  0  0  0  0  0  0  0  0  0  0
   34.4303   -7.3690  -15.1686 C   0  0  0  0  0  0  0  0  0  0  0  0
   35.7161   -6.9156  -14.9491 C   0  0  0  0  0  0  0  0  0  0  0  0
   35.3615  -10.4137  -25.6332 N   0  0  0  0  0  0  0  0  0  0  0  0
   34.4373  -10.7908  -24.5957 C   0  0  0  0  0  0  0  0  0  0  0  0
   33.3160  -11.3586  -24.9099 N   0  0  0  0  0  0  0  0  0  0  0  0
   34.7046  -10.5649  -23.2319 N   0  0  0  0  0  0  0  0  0  0  0  0
   35.9702  -10.0372  -22.7901 C   0  0  0  0  0  0  0  0  0  0  0  0
   36.0537   -9.9311  -21.2868 C   0  0  0  0  0  0  0  0  0  0  0  0
   34.9352   -9.0801  -20.7316 C   0  0  0  0  0  0  0  0  0  0  0  0
   34.9990   -9.0073  -19.2129 C   0  0  2  0  0  0  0  0  0  0  0  0
   33.9463   -8.1550  -18.7297 N   0  0  0  0  0  0  0  0  0  0  0  0
   36.3021   -8.4033  -18.8851 C   0  0  0  0  0  0  0  0  0  0  0  0
   37.2763   -9.1455  -18.6317 O   0  0  0  0  0  0  0  0  0  0  0  0
   36.5176   -7.0316  -18.8397 O   0  0  0  0  0  0  0  0  0  0  0  0
  2  1  1  6
  2  3  1  0
  3  4  1  0
  5  2  1  0
  6  5  2  0
  8  9  2  0
  8  7  1  0
 10  9  1  0
 11 10  2  0
 12 11  1  0
 13 12  1  1
 13 14  1  0
 14  5  1  0
 15 27  1  0
 15 13  1  0
 16 15  2  0
 17 11  1  0
 17 18  2  0
 18  8  1  0
 20 19  1  0
 21 20  2  0
 22 20  1  0
 23 22  1  0
 24 23  1  0
 25 24  1  0
 26 25  1  6
 26 27  1  0
 28 30  1  0
 28 26  1  0
 29 28  2  0
M  END
$$$$
