CYR.pdb
     RDKit          3D

 30 30  0  0  1  0  0  0  0  0999 V2000
   29.0257  -21.8939  -18.3257 N   0  0  0  0  0  0  0  0  0  0  0  0
   28.7722  -20.7709  -17.4742 C   0  0  1  0  0  0  0  0  0  0  0  0
   28.2538  -19.6216  -18.3210 C   0  0  0  0  0  0  0  0  0  0  0  0
   29.5696  -18.9438  -19.3643 S   0  0  0  0  0  0  0  0  0  0  0  0
   27.8246  -21.0858  -16.3749 C   0  0  0  0  0  0  0  0  0  0  0  0
   26.7941  -21.7165  -16.6432 O   0  0  0  0  0  0  0  0  0  0  0  0
   24.2587  -20.7992   -8.2099 O   0  0  0  0  0  0  0  0  0  0  0  0
   25.1254  -20.7025   -9.3063 C   0  0  0  0  0  0  0  0  0  0  0  0
   25.7544  -21.8064   -9.8284 C   0  0  0  0  0  0  0  0  0  0  0  0
   26.6073  -21.7164  -10.9061 C   0  0  0  0  0  0  0  0  0  0  0  0
   26.8573  -20.4984  -11.4995 C   0  0  0  0  0  0  0  0  0  0  0  0
   27.7702  -20.4424  -12.6451 C   0  0  0  0  0  0  0  0  0  0  0  0
   27.1216  -20.8133  -13.9605 C   0  0  2  0  0  0  0  0  0  0  0  0
   28.0769  -20.6848  -15.0579 N   0  0  0  0  0  0  0  0  0  0  0  0
   25.8303  -20.2086  -14.2247 C   0  0  0  0  0  0  0  0  0  0  0  0
   25.7609  -19.0341  -14.6503 O   0  0  0  0  0  0  0  0  0  0  0  0
   26.2263  -19.3992  -10.9740 C   0  0  0  0  0  0  0  0  0  0  0  0
   25.3696  -19.4793   -9.8938 C   0  0  0  0  0  0  0  0  0  0  0  0
   19.1485  -22.8689  -15.5543 N   0  0  0  0  0  0  0  0  0  0  0  0
   18.5815  -21.7764  -16.3010 C   0  0  0  0  0  0  0  0  0  0  0  0
   17.3082  -21.5465  -16.2355 N   0  0  0  0  0  0  0  0  0  0  0  0
   19.3646  -20.9336  -17.1127 N   0  0  0  0  0  0  0  0  0  0  0  0
   20.8037  -20.9959  -17.0948 C   0  0  0  0  0  0  0  0  0  0  0  0
   21.3882  -20.3857  -15.8441 C   0  0  0  0  0  0  0  0  0  0  0  0
   22.7479  -20.9664  -15.5314 C   0  0  0  0  0  0  0  0  0  0  0  0
   23.3163  -20.3800  -14.2473 C   0  0  2  0  0  0  0  0  0  0  0  0
   24.6292  -20.9188  -14.0149 N   0  0  0  0  0  0  0  0  0  0  0  0
   22.4153  -20.8118  -13.1646 C   0  0  0  0  0  0  0  0  0  0  0  0
   22.6328  -21.8962  -12.5809 O   0  0  0  0  0  0  0  0  0  0  0  0
   21.3170  -20.0716  -12.7451 O   0  0  0  0  0  0  0  0  0  0  0  0
  2  1  1  6
  2  3  1  0
  3  4  1  0
  5  2  1  0
  6  5  2  0
  8  9  2  0
  8  7  1  0
 10  9  1  0
 11 10  2  0
 12 11  1  0
 13 12  1  1
 13 14  1  0
 14  5  1  0
 15 27  1  0
 15 13  1  0
 16 15  2  0
 17 11  1  0
 17 18  2  0
 18  8  1  0
 20 19  1  0
 21 20  2  0
 22 20  1  0
 23 22  1  0
 24 23  1  0
 25 24  1  0
 26 25  1  6
 26 27  1  0
 28 30  1  0
 28 26  1  0
 29 28  2  0
M  END
$$$$
