CYR.pdb
     RDKit          3D

 30 30  0  0  1  0  0  0  0  0999 V2000
   25.4837  -12.4667  -16.4042 N   0  0  0  0  0  0  0  0  0  0  0  0
   24.9227  -11.5712  -17.3706 C   0  0  1  0  0  0  0  0  0  0  0  0
   24.0223  -12.3605  -18.3049 C   0  0  0  0  0  0  0  0  0  0  0  0
   24.9829  -13.5505  -19.2746 S   0  0  0  0  0  0  0  0  0  0  0  0
   24.1801  -10.4458  -16.7478 C   0  0  0  0  0  0  0  0  0  0  0  0
   23.2982  -10.7042  -15.9189 O   0  0  0  0  0  0  0  0  0  0  0  0
   21.8552   -2.0111  -15.0685 O   0  0  0  0  0  0  0  0  0  0  0  0
   22.5319   -3.1690  -15.4734 C   0  0  0  0  0  0  0  0  0  0  0  0
   22.8224   -4.1808  -14.5911 C   0  0  0  0  0  0  0  0  0  0  0  0
   23.4874   -5.3210  -14.9845 C   0  0  0  0  0  0  0  0  0  0  0  0
   23.8859   -5.4810  -16.2935 C   0  0  0  0  0  0  0  0  0  0  0  0
   24.5906   -6.7086  -16.6748 C   0  0  0  0  0  0  0  0  0  0  0  0
   23.7572   -7.9621  -16.5237 C   0  0  2  0  0  0  0  0  0  0  0  0
   24.4597   -9.1153  -17.0806 N   0  0  0  0  0  0  0  0  0  0  0  0
   22.3709   -7.8566  -16.9359 C   0  0  0  0  0  0  0  0  0  0  0  0
   22.0669   -7.9358  -18.1470 O   0  0  0  0  0  0  0  0  0  0  0  0
   23.5931   -4.4672  -17.1706 C   0  0  0  0  0  0  0  0  0  0  0  0
   22.9268   -3.3204  -16.7857 C   0  0  0  0  0  0  0  0  0  0  0  0
   15.8242  -12.2822  -14.3711 N   0  0  0  0  0  0  0  0  0  0  0  0
   16.8774  -12.2578  -15.3524 C   0  0  0  0  0  0  0  0  0  0  0  0
   17.3464  -13.3718  -15.8187 N   0  0  0  0  0  0  0  0  0  0  0  0
   17.4283  -11.0551  -15.8346 N   0  0  0  0  0  0  0  0  0  0  0  0
   16.9426   -9.7735  -15.3910 C   0  0  0  0  0  0  0  0  0  0  0  0
   17.7022   -8.6265  -16.0120 C   0  0  0  0  0  0  0  0  0  0  0  0
   19.1855   -8.7401  -15.7467 C   0  0  0  0  0  0  0  0  0  0  0  0
   19.9429   -7.5569  -16.3317 C   0  0  2  0  0  0  0  0  0  0  0  0
   21.3367   -7.6667  -15.9950 N   0  0  0  0  0  0  0  0  0  0  0  0
   19.3821   -6.3537  -15.6928 C   0  0  0  0  0  0  0  0  0  0  0  0
   19.9692   -5.8503  -14.7100 O   0  0  0  0  0  0  0  0  0  0  0  0
   18.2170   -5.7328  -16.1254 O   0  0  0  0  0  0  0  0  0  0  0  0
  2  1  1  1
  2  3  1  0
  3  4  1  0
  5  2  1  0
  6  5  2  0
  8  9  2  0
  8  7  1  0
 10  9  1  0
 11 10  2  0
 12 11  1  0
 13 12  1  6
 13 14  1  0
 14  5  1  0
 15 27  1  0
 15 13  1  0
 16 15  2  0
 17 11  1  0
 17 18  2  0
 18  8  1  0
 20 19  1  0
 21 20  2  0
 22 20  1  0
 23 22  1  0
 24 23  1  0
 25 24  1  0
 26 25  1  1
 26 27  1  0
 28 30  1  0
 28 26  1  0
 29 28  2  0
M  END
$$$$
