CYR.pdb
     RDKit          3D

 30 30  0  0  1  0  0  0  0  0999 V2000
   28.6366  -22.7188  -18.0747 N   0  0  0  0  0  0  0  0  0  0  0  0
   28.2743  -21.4949  -17.4258 C   0  0  1  0  0  0  0  0  0  0  0  0
   27.6524  -20.5626  -18.4508 C   0  0  0  0  0  0  0  0  0  0  0  0
   28.9083  -19.4899  -19.1935 S   0  0  0  0  0  0  0  0  0  0  0  0
   27.3564  -21.7037  -16.2770 C   0  0  0  0  0  0  0  0  0  0  0  0
   26.4325  -22.5182  -16.3970 O   0  0  0  0  0  0  0  0  0  0  0  0
   23.8071  -20.6914   -8.1739 O   0  0  0  0  0  0  0  0  0  0  0  0
   24.6585  -20.6765   -9.2864 C   0  0  0  0  0  0  0  0  0  0  0  0
   24.7234  -19.5951  -10.1308 C   0  0  0  0  0  0  0  0  0  0  0  0
   25.5588  -19.5758  -11.2257 C   0  0  0  0  0  0  0  0  0  0  0  0
   26.3648  -20.6566  -11.5088 C   0  0  0  0  0  0  0  0  0  0  0  0
   27.2414  -20.5989  -12.6823 C   0  0  0  0  0  0  0  0  0  0  0  0
   26.5726  -21.0402  -13.9655 C   0  0  2  0  0  0  0  0  0  0  0  0
   27.5194  -21.0019  -15.0770 N   0  0  0  0  0  0  0  0  0  0  0  0
   25.2910  -20.4276  -14.2569 C   0  0  0  0  0  0  0  0  0  0  0  0
   25.2408  -19.2901  -14.7755 O   0  0  0  0  0  0  0  0  0  0  0  0
   26.2959  -21.7340  -10.6619 C   0  0  0  0  0  0  0  0  0  0  0  0
   25.4616  -21.7628   -9.5619 C   0  0  0  0  0  0  0  0  0  0  0  0
   21.0535  -19.2142  -19.7597 N   0  0  0  0  0  0  0  0  0  0  0  0
   19.9141  -18.8585  -18.9548 C   0  0  0  0  0  0  0  0  0  0  0  0
   19.1421  -17.8874  -19.3283 N   0  0  0  0  0  0  0  0  0  0  0  0
   19.5980  -19.5319  -17.7593 N   0  0  0  0  0  0  0  0  0  0  0  0
   20.4451  -20.5724  -17.2349 C   0  0  0  0  0  0  0  0  0  0  0  0
   20.9137  -20.2768  -15.8309 C   0  0  0  0  0  0  0  0  0  0  0  0
   22.3102  -20.8034  -15.5938 C   0  0  0  0  0  0  0  0  0  0  0  0
   22.7740  -20.5172  -14.1730 C   0  0  2  0  0  0  0  0  0  0  0  0
   24.0779  -21.0889  -13.9705 N   0  0  0  0  0  0  0  0  0  0  0  0
   21.8075  -21.1842  -13.2833 C   0  0  0  0  0  0  0  0  0  0  0  0
   20.6209  -20.7901  -13.2604 O   0  0  0  0  0  0  0  0  0  0  0  0
   22.1424  -22.2456  -12.4518 O   0  0  0  0  0  0  0  0  0  0  0  0
  2  1  1  6
  2  3  1  0
  3  4  1  0
  5  2  1  0
  6  5  2  0
  8  9  2  0
  8  7  1  0
 10  9  1  0
 11 10  2  0
 12 11  1  0
 13 12  1  1
 13 14  1  0
 14  5  1  0
 15 27  1  0
 15 13  1  0
 16 15  2  0
 17 11  1  0
 17 18  2  0
 18  8  1  0
 20 19  1  0
 21 20  2  0
 22 20  1  0
 23 22  1  0
 24 23  1  0
 25 24  1  0
 26 25  1  6
 26 27  1  0
 28 30  1  0
 28 26  1  0
 29 28  2  0
M  END
$$$$
