CYR.pdb
     RDKit          3D

 30 30  0  0  1  0  0  0  0  0999 V2000
   27.9113  -20.9790  -11.0591 N   0  0  0  0  0  0  0  0  0  0  0  0
   27.4948  -20.3254  -12.2631 C   0  0  1  0  0  0  0  0  0  0  0  0
   28.5011  -20.6300  -13.3590 C   0  0  0  0  0  0  0  0  0  0  0  0
   29.9743  -19.5906  -13.1897 S   0  0  0  0  0  0  0  0  0  0  0  0
   26.1240  -20.7136  -12.6827 C   0  0  0  0  0  0  0  0  0  0  0  0
   25.7165  -21.8475  -12.4003 O   0  0  0  0  0  0  0  0  0  0  0  0
   18.0780  -19.9062  -16.4325 O   0  0  0  0  0  0  0  0  0  0  0  0
   19.3220  -19.6633  -15.8358 C   0  0  0  0  0  0  0  0  0  0  0  0
   20.4774  -19.6011  -16.5760 C   0  0  0  0  0  0  0  0  0  0  0  0
   21.7027  -19.3625  -15.9939 C   0  0  0  0  0  0  0  0  0  0  0  0
   21.8053  -19.1769  -14.6327 C   0  0  0  0  0  0  0  0  0  0  0  0
   23.1263  -18.9244  -14.0495 C   0  0  0  0  0  0  0  0  0  0  0  0
   23.9745  -20.1680  -13.8992 C   0  0  2  0  0  0  0  0  0  0  0  0
   25.2978  -19.8272  -13.3833 N   0  0  0  0  0  0  0  0  0  0  0  0
   23.9952  -21.0642  -15.0390 C   0  0  0  0  0  0  0  0  0  0  0  0
   24.7003  -20.7962  -16.0373 O   0  0  0  0  0  0  0  0  0  0  0  0
   20.6480  -19.2401  -13.8983 C   0  0  0  0  0  0  0  0  0  0  0  0
   19.4151  -19.4787  -14.4726 C   0  0  0  0  0  0  0  0  0  0  0  0
   21.2877  -27.5463  -12.8105 N   0  0  0  0  0  0  0  0  0  0  0  0
   20.4642  -26.3775  -12.9800 C   0  0  0  0  0  0  0  0  0  0  0  0
   19.5620  -26.0939  -12.0946 N   0  0  0  0  0  0  0  0  0  0  0  0
   20.5998  -25.5158  -14.0852 N   0  0  0  0  0  0  0  0  0  0  0  0
   21.6603  -25.6843  -15.0455 C   0  0  0  0  0  0  0  0  0  0  0  0
   22.9658  -25.0974  -14.5665 C   0  0  0  0  0  0  0  0  0  0  0  0
   23.7618  -24.5161  -15.7120 C   0  0  0  0  0  0  0  0  0  0  0  0
   23.1929  -23.1761  -16.1553 C   0  0  2  0  0  0  0  0  0  0  0  0
   23.2326  -22.2513  -15.0548 N   0  0  0  0  0  0  0  0  0  0  0  0
   21.7898  -23.4285  -16.5273 C   0  0  0  0  0  0  0  0  0  0  0  0
   20.8732  -22.9972  -15.7940 O   0  0  0  0  0  0  0  0  0  0  0  0
   21.4170  -24.1309  -17.6666 O   0  0  0  0  0  0  0  0  0  0  0  0
  2  1  1  1
  2  3  1  0
  3  4  1  0
  5  2  1  0
  6  5  2  0
  8  9  2  0
  8  7  1  0
 10  9  1  0
 11 10  2  0
 12 11  1  0
 13 12  1  6
 13 14  1  0
 14  5  1  0
 15 27  1  0
 15 13  1  0
 16 15  2  0
 17 11  1  0
 17 18  2  0
 18  8  1  0
 20 19  1  0
 21 20  2  0
 22 20  1  0
 23 22  1  0
 24 23  1  0
 25 24  1  0
 26 25  1  1
 26 27  1  0
 28 30  1  0
 28 26  1  0
 29 28  2  0
M  END
$$$$
