CYR.pdb
     RDKit          3D

 30 30  0  0  1  0  0  0  0  0999 V2000
   29.5716  -22.9147  -17.7007 N   0  0  0  0  0  0  0  0  0  0  0  0
   29.2711  -21.7233  -16.9653 C   0  0  1  0  0  0  0  0  0  0  0  0
   28.9699  -20.6045  -17.9473 C   0  0  0  0  0  0  0  0  0  0  0  0
   27.5224  -21.0058  -18.9587 S   0  0  0  0  0  0  0  0  0  0  0  0
   28.1474  -21.9050  -16.0114 C   0  0  0  0  0  0  0  0  0  0  0  0
   27.3564  -22.8383  -16.1983 O   0  0  0  0  0  0  0  0  0  0  0  0
   22.9093  -20.6035   -8.9548 O   0  0  0  0  0  0  0  0  0  0  0  0
   23.9577  -20.5500   -9.8824 C   0  0  0  0  0  0  0  0  0  0  0  0
   23.8672  -19.8026  -11.0312 C   0  0  0  0  0  0  0  0  0  0  0  0
   24.8952  -19.7468  -11.9462 C   0  0  0  0  0  0  0  0  0  0  0  0
   26.0605  -20.4498  -11.7316 C   0  0  0  0  0  0  0  0  0  0  0  0
   27.1328  -20.3651  -12.7274 C   0  0  0  0  0  0  0  0  0  0  0  0
   26.8189  -21.0788  -14.0239 C   0  0  2  0  0  0  0  0  0  0  0  0
   27.9726  -21.0475  -14.9191 N   0  0  0  0  0  0  0  0  0  0  0  0
   25.5657  -20.7199  -14.6590 C   0  0  0  0  0  0  0  0  0  0  0  0
   25.5415  -19.8452  -15.5533 O   0  0  0  0  0  0  0  0  0  0  0  0
   26.1454  -21.1947  -10.5824 C   0  0  0  0  0  0  0  0  0  0  0  0
   25.1203  -21.2569   -9.6592 C   0  0  0  0  0  0  0  0  0  0  0  0
   18.6016  -22.4842  -17.7967 N   0  0  0  0  0  0  0  0  0  0  0  0
   19.1852  -21.7373  -18.8804 C   0  0  0  0  0  0  0  0  0  0  0  0
   18.4172  -21.1229  -19.7235 N   0  0  0  0  0  0  0  0  0  0  0  0
   20.5779  -21.6450  -19.0659 N   0  0  0  0  0  0  0  0  0  0  0  0
   21.5010  -22.3018  -18.1761 C   0  0  0  0  0  0  0  0  0  0  0  0
   21.5992  -21.6091  -16.8387 C   0  0  0  0  0  0  0  0  0  0  0  0
   22.9627  -21.8030  -16.2166 C   0  0  0  0  0  0  0  0  0  0  0  0
   23.0793  -21.0528  -14.8978 C   0  0  2  0  0  0  0  0  0  0  0  0
   24.3523  -21.3406  -14.2940 N   0  0  0  0  0  0  0  0  0  0  0  0
   22.0038  -21.5707  -14.0343 C   0  0  0  0  0  0  0  0  0  0  0  0
   20.8509  -21.0974  -14.1389 O   0  0  0  0  0  0  0  0  0  0  0  0
   22.1977  -22.5732  -13.0922 O   0  0  0  0  0  0  0  0  0  0  0  0
  2  1  1  6
  2  3  1  0
  3  4  1  0
  5  2  1  0
  6  5  2  0
  8  9  2  0
  8  7  1  0
 10  9  1  0
 11 10  2  0
 12 11  1  0
 13 12  1  1
 13 14  1  0
 14  5  1  0
 15 27  1  0
 15 13  1  0
 16 15  2  0
 17 11  1  0
 17 18  2  0
 18  8  1  0
 20 19  1  0
 21 20  2  0
 22 20  1  0
 23 22  1  0
 24 23  1  0
 25 24  1  0
 26 25  1  6
 26 27  1  0
 28 30  1  0
 28 26  1  0
 29 28  2  0
M  END
$$$$
