CYR.pdb
     RDKit          3D

 30 30  0  0  1  0  0  0  0  0999 V2000
   29.5714  -23.3292  -17.4607 N   0  0  0  0  0  0  0  0  0  0  0  0
   28.9432  -22.0749  -17.1734 C   0  0  1  0  0  0  0  0  0  0  0  0
   28.3043  -21.5446  -18.4450 C   0  0  0  0  0  0  0  0  0  0  0  0
   29.5643  -21.1493  -19.6841 S   0  0  0  0  0  0  0  0  0  0  0  0
   27.9424  -22.1708  -16.0803 C   0  0  0  0  0  0  0  0  0  0  0  0
   27.3340  -23.2373  -15.9256 O   0  0  0  0  0  0  0  0  0  0  0  0
   23.8462  -20.2046   -8.4415 O   0  0  0  0  0  0  0  0  0  0  0  0
   24.6639  -20.1903   -9.5790 C   0  0  0  0  0  0  0  0  0  0  0  0
   25.8988  -20.7916   -9.5875 C   0  0  0  0  0  0  0  0  0  0  0  0
   26.7062  -20.7802  -10.7032 C   0  0  0  0  0  0  0  0  0  0  0  0
   26.2917  -20.1560  -11.8593 C   0  0  0  0  0  0  0  0  0  0  0  0
   27.1781  -20.1655  -13.0268 C   0  0  0  0  0  0  0  0  0  0  0  0
   26.7441  -21.1234  -14.1143 C   0  0  2  0  0  0  0  0  0  0  0  0
   27.6811  -21.0868  -15.2342 N   0  0  0  0  0  0  0  0  0  0  0  0
   25.3496  -21.0505  -14.5054 C   0  0  0  0  0  0  0  0  0  0  0  0
   24.9599  -20.1490  -15.2805 O   0  0  0  0  0  0  0  0  0  0  0  0
   25.0573  -19.5570  -11.8452 C   0  0  0  0  0  0  0  0  0  0  0  0
   24.2407  -19.5631  -10.7316 C   0  0  0  0  0  0  0  0  0  0  0  0
   22.6211  -26.5195  -14.0543 N   0  0  0  0  0  0  0  0  0  0  0  0
   21.6875  -26.5540  -15.1498 C   0  0  0  0  0  0  0  0  0  0  0  0
   21.8324  -27.4341  -16.0893 N   0  0  0  0  0  0  0  0  0  0  0  0
   20.6063  -25.6571  -15.2450 N   0  0  0  0  0  0  0  0  0  0  0  0
   20.3205  -24.7088  -14.1989 C   0  0  0  0  0  0  0  0  0  0  0  0
   20.9306  -23.3551  -14.4701 C   0  0  0  0  0  0  0  0  0  0  0  0
   22.3922  -23.3229  -14.0874 C   0  0  0  0  0  0  0  0  0  0  0  0
   23.0023  -21.9546  -14.3538 C   0  0  2  0  0  0  0  0  0  0  0  0
   24.4035  -21.9840  -14.0317 N   0  0  0  0  0  0  0  0  0  0  0  0
   22.3155  -21.0156  -13.4498 C   0  0  0  0  0  0  0  0  0  0  0  0
   22.7089  -20.9025  -12.2681 O   0  0  0  0  0  0  0  0  0  0  0  0
   21.2359  -20.2329  -13.8395 O   0  0  0  0  0  0  0  0  0  0  0  0
  2  1  1  6
  2  3  1  0
  3  4  1  0
  5  2  1  0
  6  5  2  0
  8  9  2  0
  8  7  1  0
 10  9  1  0
 11 10  2  0
 12 11  1  0
 13 12  1  1
 13 14  1  0
 14  5  1  0
 15 27  1  0
 15 13  1  0
 16 15  2  0
 17 11  1  0
 17 18  2  0
 18  8  1  0
 20 19  1  0
 21 20  2  0
 22 20  1  0
 23 22  1  0
 24 23  1  0
 25 24  1  0
 26 25  1  1
 26 27  1  0
 28 30  1  0
 28 26  1  0
 29 28  2  0
M  END
$$$$
