CYR.pdb
     RDKit          3D

 30 30  0  0  1  0  0  0  0  0999 V2000
   29.6853  -21.7547  -18.0880 N   0  0  0  0  0  0  0  0  0  0  0  0
   28.7004  -20.8085  -17.6576 C   0  0  1  0  0  0  0  0  0  0  0  0
   27.7547  -20.5267  -18.8121 C   0  0  0  0  0  0  0  0  0  0  0  0
   28.4907  -19.3523  -19.9775 S   0  0  0  0  0  0  0  0  0  0  0  0
   27.9499  -21.2651  -16.4601 C   0  0  0  0  0  0  0  0  0  0  0  0
   27.6475  -22.4618  -16.3709 O   0  0  0  0  0  0  0  0  0  0  0  0
   23.9207  -20.8015   -8.5261 O   0  0  0  0  0  0  0  0  0  0  0  0
   24.6947  -20.5446   -9.6652 C   0  0  0  0  0  0  0  0  0  0  0  0
   24.1716  -19.9088  -10.7646 C   0  0  0  0  0  0  0  0  0  0  0  0
   24.9285  -19.6540  -11.8868 C   0  0  0  0  0  0  0  0  0  0  0  0
   26.2512  -20.0356  -11.9388 C   0  0  0  0  0  0  0  0  0  0  0  0
   27.0251  -19.7465  -13.1498 C   0  0  0  0  0  0  0  0  0  0  0  0
   26.8026  -20.7412  -14.2677 C   0  0  2  0  0  0  0  0  0  0  0  0
   27.5849  -20.3733  -15.4450 N   0  0  0  0  0  0  0  0  0  0  0  0
   25.4211  -21.0756  -14.5545 C   0  0  0  0  0  0  0  0  0  0  0  0
   24.7456  -20.3546  -15.3222 O   0  0  0  0  0  0  0  0  0  0  0  0
   26.7685  -20.6703  -10.8378 C   0  0  0  0  0  0  0  0  0  0  0  0
   26.0178  -20.9301   -9.7083 C   0  0  0  0  0  0  0  0  0  0  0  0
   21.5253  -29.1146  -14.6423 N   0  0  0  0  0  0  0  0  0  0  0  0
   20.5028  -28.1449  -14.9371 C   0  0  0  0  0  0  0  0  0  0  0  0
   19.3090  -28.5438  -15.2442 N   0  0  0  0  0  0  0  0  0  0  0  0
   20.7490  -26.7590  -14.9056 N   0  0  0  0  0  0  0  0  0  0  0  0
   22.0432  -26.2321  -14.5553 C   0  0  0  0  0  0  0  0  0  0  0  0
   22.0693  -24.7230  -14.5644 C   0  0  0  0  0  0  0  0  0  0  0  0
   23.4527  -24.1941  -14.2643 C   0  0  0  0  0  0  0  0  0  0  0  0
   23.4867  -22.6738  -14.3219 C   0  0  2  0  0  0  0  0  0  0  0  0
   24.8062  -22.2112  -13.9859 N   0  0  0  0  0  0  0  0  0  0  0  0
   22.5326  -22.2028  -13.3028 C   0  0  0  0  0  0  0  0  0  0  0  0
   22.9338  -21.9917  -12.1373 O   0  0  0  0  0  0  0  0  0  0  0  0
   21.1874  -21.9745  -13.5646 O   0  0  0  0  0  0  0  0  0  0  0  0
  2  1  1  6
  2  3  1  0
  3  4  1  0
  5  2  1  0
  6  5  2  0
  8  9  2  0
  8  7  1  0
 10  9  1  0
 11 10  2  0
 12 11  1  0
 13 12  1  1
 13 14  1  0
 14  5  1  0
 15 27  1  0
 15 13  1  0
 16 15  2  0
 17 11  1  0
 17 18  2  0
 18  8  1  0
 20 19  1  0
 21 20  2  0
 22 20  1  0
 23 22  1  0
 24 23  1  0
 25 24  1  0
 26 25  1  1
 26 27  1  0
 28 30  1  0
 28 26  1  0
 29 28  2  0
M  END
$$$$
