CYR.pdb
     RDKit          3D

 30 30  0  0  1  0  0  0  0  0999 V2000
   28.6844  -17.9857  -16.1502 N   0  0  0  0  0  0  0  0  0  0  0  0
   27.7359  -17.6667  -15.1259 C   0  0  1  0  0  0  0  0  0  0  0  0
   26.8537  -16.5301  -15.6122 C   0  0  0  0  0  0  0  0  0  0  0  0
   27.7254  -14.9464  -15.5078 S   0  0  0  0  0  0  0  0  0  0  0  0
   26.9146  -18.8355  -14.7195 C   0  0  0  0  0  0  0  0  0  0  0  0
   26.6201  -19.6794  -15.5754 O   0  0  0  0  0  0  0  0  0  0  0  0
   31.5298  -22.3559  -11.3137 O   0  0  0  0  0  0  0  0  0  0  0  0
   30.2012  -21.9164  -11.3789 C   0  0  0  0  0  0  0  0  0  0  0  0
   29.6784  -21.0581  -10.4426 C   0  0  0  0  0  0  0  0  0  0  0  0
   28.3729  -20.6234  -10.5024 C   0  0  0  0  0  0  0  0  0  0  0  0
   27.5423  -21.0434  -11.5181 C   0  0  0  0  0  0  0  0  0  0  0  0
   26.1593  -20.5585  -11.5490 C   0  0  0  0  0  0  0  0  0  0  0  0
   25.6932  -20.1318  -12.9235 C   0  0  2  0  0  0  0  0  0  0  0  0
   26.4750  -18.9938  -13.4001 N   0  0  0  0  0  0  0  0  0  0  0  0
   24.2607  -19.9780  -13.0890 C   0  0  0  0  0  0  0  0  0  0  0  0
   23.7173  -18.8725  -12.8701 O   0  0  0  0  0  0  0  0  0  0  0  0
   28.0698  -21.9007  -12.4506 C   0  0  0  0  0  0  0  0  0  0  0  0
   29.3773  -22.3422  -12.3992 C   0  0  0  0  0  0  0  0  0  0  0  0
   17.8666  -25.3207  -14.0020 N   0  0  0  0  0  0  0  0  0  0  0  0
   17.3155  -24.3077  -14.8639 C   0  0  0  0  0  0  0  0  0  0  0  0
   16.0323  -24.2300  -15.0245 N   0  0  0  0  0  0  0  0  0  0  0  0
   18.1250  -23.3829  -15.5510 N   0  0  0  0  0  0  0  0  0  0  0  0
   19.5571  -23.3751  -15.3957 C   0  0  0  0  0  0  0  0  0  0  0  0
   20.0344  -22.2284  -14.5380 C   0  0  0  0  0  0  0  0  0  0  0  0
   21.5435  -22.1733  -14.4818 C   0  0  0  0  0  0  0  0  0  0  0  0
   22.0222  -20.9794  -13.6688 C   0  0  2  0  0  0  0  0  0  0  0  0
   23.4481  -21.0561  -13.4992 N   0  0  0  0  0  0  0  0  0  0  0  0
   21.3696  -21.0906  -12.3526 C   0  0  0  0  0  0  0  0  0  0  0  0
   21.9454  -21.7120  -11.4326 O   0  0  0  0  0  0  0  0  0  0  0  0
   20.1286  -20.5354  -12.0668 O   0  0  0  0  0  0  0  0  0  0  0  0
  2  1  1  6
  2  3  1  0
  3  4  1  0
  5  2  1  0
  6  5  2  0
  8  9  2  0
  8  7  1  0
 10  9  1  0
 11 10  2  0
 12 11  1  0
 13 12  1  1
 13 14  1  0
 14  5  1  0
 15 27  1  0
 15 13  1  0
 16 15  2  0
 17 11  1  0
 17 18  2  0
 18  8  1  0
 20 19  1  0
 21 20  2  0
 22 20  1  0
 23 22  1  0
 24 23  1  0
 25 24  1  0
 26 25  1  6
 26 27  1  0
 28 30  1  0
 28 26  1  0
 29 28  2  0
M  END
$$$$
