CYR.pdb
     RDKit          3D

 30 30  0  0  1  0  0  0  0  0999 V2000
   23.4525  -10.0043  -16.7703 N   0  0  0  0  0  0  0  0  0  0  0  0
   22.5402   -8.9037  -16.8525 C   0  0  1  0  0  0  0  0  0  0  0  0
   21.5501   -9.1709  -17.9727 C   0  0  0  0  0  0  0  0  0  0  0  0
   22.3357   -8.9649  -19.5913 S   0  0  0  0  0  0  0  0  0  0  0  0
   21.8322   -8.6476  -15.5723 C   0  0  0  0  0  0  0  0  0  0  0  0
   21.3812   -9.6120  -14.9413 O   0  0  0  0  0  0  0  0  0  0  0  0
   18.9026   -4.0673   -8.5062 O   0  0  0  0  0  0  0  0  0  0  0  0
   19.5634   -4.4933   -9.6658 C   0  0  0  0  0  0  0  0  0  0  0  0
   19.3029   -3.9322  -10.8921 C   0  0  0  0  0  0  0  0  0  0  0  0
   19.9499   -4.3476  -12.0348 C   0  0  0  0  0  0  0  0  0  0  0  0
   20.8906   -5.3526  -11.9791 C   0  0  0  0  0  0  0  0  0  0  0  0
   21.5589   -5.7672  -13.2161 C   0  0  0  0  0  0  0  0  0  0  0  0
   20.9813   -7.0234  -13.8300 C   0  0  2  0  0  0  0  0  0  0  0  0
   21.6700   -7.3489  -15.0763 N   0  0  0  0  0  0  0  0  0  0  0  0
   19.5351   -7.0794  -13.9196 C   0  0  0  0  0  0  0  0  0  0  0  0
   18.9395   -6.4962  -14.8527 O   0  0  0  0  0  0  0  0  0  0  0  0
   21.1469   -5.9095  -10.7515 C   0  0  0  0  0  0  0  0  0  0  0  0
   20.5034   -5.4999   -9.6003 C   0  0  0  0  0  0  0  0  0  0  0  0
   14.7087   -8.3811   -8.5952 N   0  0  0  0  0  0  0  0  0  0  0  0
   13.5565   -8.9805   -9.2165 C   0  0  0  0  0  0  0  0  0  0  0  0
   12.3830   -8.8066   -8.6958 N   0  0  0  0  0  0  0  0  0  0  0  0
   13.6525   -9.7606  -10.3847 N   0  0  0  0  0  0  0  0  0  0  0  0
   14.9284  -10.0969  -10.9626 C   0  0  0  0  0  0  0  0  0  0  0  0
   15.3785   -9.0839  -11.9871 C   0  0  0  0  0  0  0  0  0  0  0  0
   16.8729   -8.8670  -11.9278 C   0  0  0  0  0  0  0  0  0  0  0  0
   17.3335   -7.9005  -13.0092 C   0  0  2  0  0  0  0  0  0  0  0  0
   18.7665   -7.7865  -12.9708 N   0  0  0  0  0  0  0  0  0  0  0  0
   16.7333   -6.5966  -12.6774 C   0  0  0  0  0  0  0  0  0  0  0  0
   17.2397   -5.9008  -11.7700 O   0  0  0  0  0  0  0  0  0  0  0  0
   15.6163   -6.0838  -13.3252 O   0  0  0  0  0  0  0  0  0  0  0  0
  2  1  1  1
  2  3  1  0
  3  4  1  0
  5  2  1  0
  6  5  2  0
  8  9  2  0
  8  7  1  0
 10  9  1  0
 11 10  2  0
 12 11  1  0
 13 12  1  6
 13 14  1  0
 14  5  1  0
 15 27  1  0
 15 13  1  0
 16 15  2  0
 17 11  1  0
 17 18  2  0
 18  8  1  0
 20 19  1  0
 21 20  2  0
 22 20  1  0
 23 22  1  0
 24 23  1  0
 25 24  1  0
 26 25  1  1
 26 27  1  0
 28 30  1  0
 28 26  1  0
 29 28  2  0
M  END
$$$$
