CYR.pdb
     RDKit          3D

 30 30  0  0  1  0  0  0  0  0999 V2000
   35.0127  -28.8753  -19.1129 N   0  0  0  0  0  0  0  0  0  0  0  0
   33.8754  -29.7346  -19.2496 C   0  0  1  0  0  0  0  0  0  0  0  0
   34.2479  -31.1219  -18.7564 C   0  0  0  0  0  0  0  0  0  0  0  0
   35.4874  -31.8800  -19.8372 S   0  0  0  0  0  0  0  0  0  0  0  0
   32.6796  -29.2231  -18.5327 C   0  0  0  0  0  0  0  0  0  0  0  0
   32.7200  -28.0843  -18.0498 O   0  0  0  0  0  0  0  0  0  0  0  0
   24.9397  -26.0482  -16.7840 O   0  0  0  0  0  0  0  0  0  0  0  0
   26.1763  -26.5642  -17.1929 C   0  0  0  0  0  0  0  0  0  0  0  0
   26.3035  -27.3095  -18.3396 C   0  0  0  0  0  0  0  0  0  0  0  0
   27.5170  -27.8190  -18.7457 C   0  0  0  0  0  0  0  0  0  0  0  0
   28.6542  -27.5919  -18.0020 C   0  0  0  0  0  0  0  0  0  0  0  0
   29.9279  -28.1495  -18.4666 C   0  0  0  0  0  0  0  0  0  0  0  0
   30.2535  -29.5028  -17.8739 C   0  0  2  0  0  0  0  0  0  0  0  0
   31.5232  -30.0000  -18.3975 N   0  0  0  0  0  0  0  0  0  0  0  0
   29.1814  -30.4790  -17.8928 C   0  0  0  0  0  0  0  0  0  0  0  0
   28.7684  -30.9389  -18.9806 O   0  0  0  0  0  0  0  0  0  0  0  0
   28.5213  -26.8468  -16.8575 C   0  0  0  0  0  0  0  0  0  0  0  0
   27.3092  -26.3319  -16.4422 C   0  0  0  0  0  0  0  0  0  0  0  0
   22.1803  -31.6869  -13.4858 N   0  0  0  0  0  0  0  0  0  0  0  0
   22.4893  -33.0853  -13.6334 C   0  0  0  0  0  0  0  0  0  0  0  0
   21.5348  -33.9607  -13.6001 N   0  0  0  0  0  0  0  0  0  0  0  0
   23.8060  -33.5495  -13.8153 N   0  0  0  0  0  0  0  0  0  0  0  0
   24.9175  -32.6390  -13.9193 C   0  0  0  0  0  0  0  0  0  0  0  0
   25.5993  -32.7180  -15.2636 C   0  0  0  0  0  0  0  0  0  0  0  0
   26.6981  -31.6878  -15.3855 C   0  0  0  0  0  0  0  0  0  0  0  0
   27.5254  -31.9096  -16.6433 C   0  0  2  0  0  0  0  0  0  0  0  0
   28.5816  -30.9353  -16.6999 N   0  0  0  0  0  0  0  0  0  0  0  0
   26.6104  -31.7007  -17.7789 C   0  0  0  0  0  0  0  0  0  0  0  0
   26.1063  -32.6917  -18.3515 O   0  0  0  0  0  0  0  0  0  0  0  0
   26.2673  -30.4438  -18.2611 O   0  0  0  0  0  0  0  0  0  0  0  0
  2  1  1  1
  2  3  1  0
  3  4  1  0
  5  2  1  0
  6  5  2  0
  8  9  2  0
  8  7  1  0
 10  9  1  0
 11 10  2  0
 12 11  1  0
 13 12  1  6
 13 14  1  0
 14  5  1  0
 15 27  1  0
 15 13  1  0
 16 15  2  0
 17 11  1  0
 17 18  2  0
 18  8  1  0
 20 19  1  0
 21 20  2  0
 22 20  1  0
 23 22  1  0
 24 23  1  0
 25 24  1  0
 26 25  1  1
 26 27  1  0
 28 30  1  0
 28 26  1  0
 29 28  2  0
M  END
$$$$
