YFH.pdb
     RDKit          3D

 34 36  0  0  1  0  0  0  0  0999 V2000
    6.7889  -12.8857   16.6689 O   0  0  0  0  0  0  0  0  0  0  0  0
    7.7373  -13.5304   17.4542 C   0  0  0  0  0  0  0  0  0  0  0  0
    8.2823  -12.9249   18.5596 C   0  0  0  0  0  0  0  0  0  0  0  0
    9.2213  -13.5465   19.3484 C   0  0  0  0  0  0  0  0  0  0  0  0
    9.6195  -14.8275   19.0011 C   0  0  0  0  0  0  0  0  0  0  0  0
   10.6367  -15.5494   19.8229 C   0  0  0  0  0  0  0  0  0  0  0  0
    9.8992  -16.4920   20.7500 C   0  0  2  0  0  0  0  0  0  0  0  0
    8.6252  -16.8460   20.2079 N   0  0  0  0  0  0  0  0  0  0  0  0
    9.7687  -15.8295   22.0931 C   0  0  0  0  0  0  0  0  0  0  0  0
   10.7968  -15.4772   22.7249 O   0  0  0  0  0  0  0  0  0  0  0  0
    9.0958  -15.4671   17.9003 C   0  0  0  0  0  0  0  0  0  0  0  0
    8.1462  -14.7965   17.1308 C   0  0  0  0  0  0  0  0  0  0  0  0
    8.5158  -15.5814   22.6864 N   0  0  0  0  0  0  0  0  0  0  0  0
    8.3681  -14.9560   24.0090 C   0  0  1  0  0  0  0  0  0  0  0  0
    7.2930  -13.8922   23.9505 C   0  0  0  0  0  0  0  0  0  0  0  0
    7.0495  -13.2155   25.2274 C   0  0  0  0  0  0  0  0  0  0  0  0
    7.8438  -12.1575   25.6133 C   0  0  0  0  0  0  0  0  0  0  0  0
    7.6454  -11.4919   26.8170 C   0  0  0  0  0  0  0  0  0  0  0  0
    6.6365  -11.8715   27.6748 C   0  0  0  0  0  0  0  0  0  0  0  0
    5.8371  -12.9283   27.2977 C   0  0  0  0  0  0  0  0  0  0  0  0
    6.0483  -13.5819   26.0934 C   0  0  0  0  0  0  0  0  0  0  0  0
    8.1522  -15.9589   25.0535 C   0  0  0  0  0  0  0  0  0  0  0  0
    7.1345  -16.7103   24.9920 O   0  0  0  0  0  0  0  0  0  0  0  0
    9.0070  -16.1725   26.1581 N   0  0  0  0  0  0  0  0  0  0  0  0
    9.5975  -17.4677   26.4172 C   0  0  1  0  0  0  0  0  0  0  0  0
   10.3604  -17.9646   25.1923 C   0  0  0  0  0  0  0  0  0  0  0  0
   10.7965  -19.3540   25.4955 C   0  0  0  0  0  0  0  0  0  0  0  0
   10.8650  -19.9134   26.7580 C   0  0  0  0  0  0  0  0  0  0  0  0
   11.3000  -21.1816   26.6386 N   0  0  0  0  0  0  0  0  0  0  0  0
   11.5066  -21.4367   25.3441 C   0  0  0  0  0  0  0  0  0  0  0  0
   11.1995  -20.3254   24.6589 N   0  0  0  0  0  0  0  0  0  0  0  0
   10.4782  -17.3489   27.5866 C   0  0  0  0  0  0  0  0  0  0  0  0
   10.2550  -18.0570   28.5934 O   0  0  0  0  0  0  0  0  0  0  0  0
   11.5430  -16.4804   27.6049 O   0  0  0  0  0  0  0  0  0  0  0  0
  2  1  1  0
  3  2  2  0
  4  3  1  0
  5  4  2  0
  5 11  1  0
  6  5  1  0
  7  6  1  0
  7  8  1  6
  9  7  1  0
  9 10  2  0
 11 12  2  0
 12  2  1  0
 13  9  1  0
 14 13  1  0
 14 15  1  6
 16 15  1  0
 16 17  2  0
 17 18  1  0
 19 18  2  0
 20 19  1  0
 21 20  2  0
 21 16  1  0
 22 14  1  0
 23 22  2  0
 24 22  1  0
 25 26  1  6
 25 24  1  0
 26 27  1  0
 27 28  2  0
 28 29  1  0
 30 29  1  0
 31 27  1  0
 31 30  2  0
 32 34  1  0
 32 25  1  0
 33 32  2  0
M  END
$$$$
