YFH.pdb
     RDKit          3D

 34 36  0  0  1  0  0  0  0  0999 V2000
    9.0639  -21.0308   15.8865 O   0  0  0  0  0  0  0  0  0  0  0  0
    9.1469  -20.3820   17.1128 C   0  0  0  0  0  0  0  0  0  0  0  0
   10.2308  -20.5492   17.9390 C   0  0  0  0  0  0  0  0  0  0  0  0
   10.3307  -19.9161   19.1554 C   0  0  0  0  0  0  0  0  0  0  0  0
    9.2928  -19.0847   19.5446 C   0  0  0  0  0  0  0  0  0  0  0  0
    9.3492  -18.3720   20.8562 C   0  0  0  0  0  0  0  0  0  0  0  0
    9.6997  -16.9249   20.5825 C   0  0  2  0  0  0  0  0  0  0  0  0
   10.9581  -16.8237   19.9128 N   0  0  0  0  0  0  0  0  0  0  0  0
    9.7030  -16.1830   21.8900 C   0  0  0  0  0  0  0  0  0  0  0  0
   10.7283  -16.1918   22.6173 O   0  0  0  0  0  0  0  0  0  0  0  0
    8.1899  -18.8920   18.7436 C   0  0  0  0  0  0  0  0  0  0  0  0
    8.1335  -19.5555   17.5188 C   0  0  0  0  0  0  0  0  0  0  0  0
    8.5814  -15.4626   22.3443 N   0  0  0  0  0  0  0  0  0  0  0  0
    8.4979  -14.8814   23.6924 C   0  0  1  0  0  0  0  0  0  0  0  0
    7.4939  -13.7488   23.6958 C   0  0  0  0  0  0  0  0  0  0  0  0
    7.3712  -13.0607   24.9838 C   0  0  0  0  0  0  0  0  0  0  0  0
    8.3473  -12.1785   25.3937 C   0  0  0  0  0  0  0  0  0  0  0  0
    8.2674  -11.5084   26.6086 C   0  0  0  0  0  0  0  0  0  0  0  0
    7.1976  -11.7057   27.4538 C   0  0  0  0  0  0  0  0  0  0  0  0
    6.2166  -12.5859   27.0527 C   0  0  0  0  0  0  0  0  0  0  0  0
    6.3112  -13.2465   25.8374 C   0  0  0  0  0  0  0  0  0  0  0  0
    8.2350  -15.9085   24.7021 C   0  0  0  0  0  0  0  0  0  0  0  0
    7.3410  -16.7788   24.4844 O   0  0  0  0  0  0  0  0  0  0  0  0
    8.9137  -16.0212   25.9363 N   0  0  0  0  0  0  0  0  0  0  0  0
    9.8487  -17.0960   26.1891 C   0  0  1  0  0  0  0  0  0  0  0  0
   10.9102  -17.1527   25.0939 C   0  0  0  0  0  0  0  0  0  0  0  0
   10.9029  -18.5425   24.5638 C   0  0  0  0  0  0  0  0  0  0  0  0
    9.9049  -19.4750   24.7777 C   0  0  0  0  0  0  0  0  0  0  0  0
   10.2437  -20.6139   24.1454 N   0  0  0  0  0  0  0  0  0  0  0  0
   11.4205  -20.4274   23.5421 C   0  0  0  0  0  0  0  0  0  0  0  0
   11.8127  -19.1710   23.8003 N   0  0  0  0  0  0  0  0  0  0  0  0
   10.4519  -16.8828   27.5111 C   0  0  0  0  0  0  0  0  0  0  0  0
   11.2554  -17.7303   27.9594 O   0  0  0  0  0  0  0  0  0  0  0  0
   10.1582  -15.7755   28.2701 O   0  0  0  0  0  0  0  0  0  0  0  0
  2  1  1  0
  3  2  2  0
  4  3  1  0
  5  4  2  0
  5 11  1  0
  6  5  1  0
  7  6  1  0
  7  8  1  1
  9  7  1  0
  9 10  2  0
 11 12  2  0
 12  2  1  0
 13  9  1  0
 14 13  1  0
 14 15  1  6
 16 15  1  0
 16 17  2  0
 17 18  1  0
 19 18  2  0
 20 19  1  0
 21 20  2  0
 21 16  1  0
 22 14  1  0
 23 22  2  0
 24 22  1  0
 25 26  1  6
 25 24  1  0
 26 27  1  0
 27 28  2  0
 28 29  1  0
 30 29  1  0
 31 27  1  0
 31 30  2  0
 32 34  1  0
 32 25  1  0
 33 32  2  0
M  END
$$$$
