YFH.pdb
     RDKit          3D

 34 36  0  0  1  0  0  0  0  0999 V2000
    6.3689  -24.2850   13.9989 O   0  0  0  0  0  0  0  0  0  0  0  0
    6.9038  -23.3108   14.8336 C   0  0  0  0  0  0  0  0  0  0  0  0
    6.1142  -22.3387   15.3967 C   0  0  0  0  0  0  0  0  0  0  0  0
    6.6251  -21.3671   16.2245 C   0  0  0  0  0  0  0  0  0  0  0  0
    7.9852  -21.3848   16.4886 C   0  0  0  0  0  0  0  0  0  0  0  0
    8.5933  -20.3528   17.3810 C   0  0  0  0  0  0  0  0  0  0  0  0
    8.6099  -19.0401   16.6272 C   0  0  2  0  0  0  0  0  0  0  0  0
    9.5128  -19.0994   15.5211 N   0  0  0  0  0  0  0  0  0  0  0  0
    8.9791  -17.9459   17.5897 C   0  0  0  0  0  0  0  0  0  0  0  0
   10.1881  -17.6792   17.8076 O   0  0  0  0  0  0  0  0  0  0  0  0
    8.8089  -22.3433   15.9425 C   0  0  0  0  0  0  0  0  0  0  0  0
    8.2451  -23.3081   15.1090 C   0  0  0  0  0  0  0  0  0  0  0  0
    8.0063  -17.1904   18.2725 N   0  0  0  0  0  0  0  0  0  0  0  0
    8.3473  -16.1363   19.2393 C   0  0  1  0  0  0  0  0  0  0  0  0
    7.1011  -15.3575   19.6021 C   0  0  0  0  0  0  0  0  0  0  0  0
    7.3173  -14.3172   20.6114 C   0  0  0  0  0  0  0  0  0  0  0  0
    7.8227  -13.0892   20.2433 C   0  0  0  0  0  0  0  0  0  0  0  0
    8.0432  -12.0783   21.1711 C   0  0  0  0  0  0  0  0  0  0  0  0
    7.7607  -12.2720   22.5055 C   0  0  0  0  0  0  0  0  0  0  0  0
    7.2550  -13.4966   22.8833 C   0  0  0  0  0  0  0  0  0  0  0  0
    7.0409  -14.4947   21.9451 C   0  0  0  0  0  0  0  0  0  0  0  0
    9.0618  -16.6817   20.3950 C   0  0  0  0  0  0  0  0  0  0  0  0
    8.6785  -17.7773   20.9018 O   0  0  0  0  0  0  0  0  0  0  0  0
   10.1791  -16.0770   21.0137 N   0  0  0  0  0  0  0  0  0  0  0  0
   10.8669  -16.7112   22.1172 C   0  0  1  0  0  0  0  0  0  0  0  0
   12.3624  -16.8133   21.8302 C   0  0  0  0  0  0  0  0  0  0  0  0
   12.9658  -17.5575   22.9680 C   0  0  0  0  0  0  0  0  0  0  0  0
   12.2595  -18.2099   23.9616 C   0  0  0  0  0  0  0  0  0  0  0  0
   13.1399  -18.7668   24.8140 N   0  0  0  0  0  0  0  0  0  0  0  0
   14.3743  -18.4860   24.3888 C   0  0  0  0  0  0  0  0  0  0  0  0
   14.2602  -17.7537   23.2709 N   0  0  0  0  0  0  0  0  0  0  0  0
   10.6057  -15.9317   23.3343 C   0  0  0  0  0  0  0  0  0  0  0  0
   10.5474  -14.6844   23.2596 O   0  0  0  0  0  0  0  0  0  0  0  0
   10.4221  -16.5360   24.5548 O   0  0  0  0  0  0  0  0  0  0  0  0
  2  1  1  0
  3  2  2  0
  4  3  1  0
  5  4  2  0
  5 11  1  0
  6  5  1  0
  7  6  1  0
  7  8  1  6
  9  7  1  0
  9 10  2  0
 11 12  2  0
 12  2  1  0
 13  9  1  0
 14 13  1  0
 14 15  1  1
 16 15  1  0
 16 17  2  0
 17 18  1  0
 19 18  2  0
 20 19  1  0
 21 20  2  0
 21 16  1  0
 22 14  1  0
 23 22  2  0
 24 22  1  0
 25 26  1  6
 25 24  1  0
 26 27  1  0
 27 28  2  0
 28 29  1  0
 30 29  1  0
 31 27  1  0
 31 30  2  0
 32 34  1  0
 32 25  1  0
 33 32  2  0
M  END
$$$$
