YFH.pdb
     RDKit          3D

 34 36  0  0  1  0  0  0  0  0999 V2000
    6.2598  -22.8959   28.6192 O   0  0  0  0  0  0  0  0  0  0  0  0
    6.7546  -22.2192   27.5106 C   0  0  0  0  0  0  0  0  0  0  0  0
    6.3505  -22.5390   26.2378 C   0  0  0  0  0  0  0  0  0  0  0  0
    6.8287  -21.8811   25.1293 C   0  0  0  0  0  0  0  0  0  0  0  0
    7.7492  -20.8635   25.3218 C   0  0  0  0  0  0  0  0  0  0  0  0
    8.3017  -20.1157   24.1527 C   0  0  0  0  0  0  0  0  0  0  0  0
    7.1363  -19.5252   23.3878 C   0  0  2  0  0  0  0  0  0  0  0  0
    7.0654  -20.0691   22.0682 N   0  0  0  0  0  0  0  0  0  0  0  0
    7.2926  -18.0301   23.3666 C   0  0  0  0  0  0  0  0  0  0  0  0
    7.9007  -17.4732   22.4177 O   0  0  0  0  0  0  0  0  0  0  0  0
    8.1784  -20.5143   26.5824 C   0  0  0  0  0  0  0  0  0  0  0  0
    7.6651  -21.2100   27.6761 C   0  0  0  0  0  0  0  0  0  0  0  0
    6.7751  -17.2092   24.3872 N   0  0  0  0  0  0  0  0  0  0  0  0
    7.1660  -15.8017   24.5554 C   0  0  1  0  0  0  0  0  0  0  0  0
    6.2291  -15.1281   25.5348 C   0  0  0  0  0  0  0  0  0  0  0  0
    6.5675  -13.7319   25.8242 C   0  0  0  0  0  0  0  0  0  0  0  0
    6.4335  -12.7696   24.8469 C   0  0  0  0  0  0  0  0  0  0  0  0
    6.7459  -11.4361   25.0823 C   0  0  0  0  0  0  0  0  0  0  0  0
    7.2054  -11.0264   26.3148 C   0  0  0  0  0  0  0  0  0  0  0  0
    7.3427  -11.9813   27.2983 C   0  0  0  0  0  0  0  0  0  0  0  0
    7.0267  -13.3077   27.0473 C   0  0  0  0  0  0  0  0  0  0  0  0
    8.5812  -15.6786   24.9098 C   0  0  0  0  0  0  0  0  0  0  0  0
    9.1357  -14.5408   24.8656 O   0  0  0  0  0  0  0  0  0  0  0  0
    9.4097  -16.7499   25.3129 N   0  0  0  0  0  0  0  0  0  0  0  0
   10.8253  -16.5637   25.5469 C   0  0  1  0  0  0  0  0  0  0  0  0
   11.3438  -17.5926   26.5478 C   0  0  0  0  0  0  0  0  0  0  0  0
   10.8884  -17.1477   27.8921 C   0  0  0  0  0  0  0  0  0  0  0  0
   10.3126  -15.9234   28.1770 C   0  0  0  0  0  0  0  0  0  0  0  0
   10.0330  -15.8803   29.4929 N   0  0  0  0  0  0  0  0  0  0  0  0
   10.4138  -17.0361   30.0432 C   0  0  0  0  0  0  0  0  0  0  0  0
   10.9305  -17.7976   29.0675 N   0  0  0  0  0  0  0  0  0  0  0  0
   11.5244  -16.6674   24.2593 C   0  0  0  0  0  0  0  0  0  0  0  0
   12.4073  -15.8283   23.9748 O   0  0  0  0  0  0  0  0  0  0  0  0
   11.2353  -17.6632   23.3575 O   0  0  0  0  0  0  0  0  0  0  0  0
  2  1  1  0
  3  2  2  0
  4  3  1  0
  5  4  2  0
  5 11  1  0
  6  5  1  0
  7  6  1  0
  7  8  1  6
  9  7  1  0
  9 10  2  0
 11 12  2  0
 12  2  1  0
 13  9  1  0
 14 13  1  0
 14 15  1  1
 16 15  1  0
 16 17  2  0
 17 18  1  0
 19 18  2  0
 20 19  1  0
 21 20  2  0
 21 16  1  0
 22 14  1  0
 23 22  2  0
 24 22  1  0
 25 26  1  1
 25 24  1  0
 26 27  1  0
 27 28  2  0
 28 29  1  0
 30 29  1  0
 31 27  1  0
 31 30  2  0
 32 34  1  0
 32 25  1  0
 33 32  2  0
M  END
$$$$
