YFH.pdb
     RDKit          3D

 34 36  0  0  1  0  0  0  0  0999 V2000
    7.7202  -13.8043   15.7429 O   0  0  0  0  0  0  0  0  0  0  0  0
    8.0546  -13.8906   17.0892 C   0  0  0  0  0  0  0  0  0  0  0  0
    9.0028  -14.7778   17.5356 C   0  0  0  0  0  0  0  0  0  0  0  0
    9.3468  -14.8776   18.8630 C   0  0  0  0  0  0  0  0  0  0  0  0
    8.7047  -14.0468   19.7671 C   0  0  0  0  0  0  0  0  0  0  0  0
    9.0396  -14.1132   21.2212 C   0  0  0  0  0  0  0  0  0  0  0  0
    8.6855  -15.4996   21.7154 C   0  0  2  0  0  0  0  0  0  0  0  0
    7.3523  -15.8497   21.3381 N   0  0  0  0  0  0  0  0  0  0  0  0
    8.8691  -15.5320   23.2071 C   0  0  0  0  0  0  0  0  0  0  0  0
    9.9429  -15.1259   23.7192 O   0  0  0  0  0  0  0  0  0  0  0  0
    7.7488  -13.1447   19.3575 C   0  0  0  0  0  0  0  0  0  0  0  0
    7.4334  -13.0798   18.0011 C   0  0  0  0  0  0  0  0  0  0  0  0
    7.8668  -16.0085   24.0741 N   0  0  0  0  0  0  0  0  0  0  0  0
    8.0641  -16.1445   25.5248 C   0  0  1  0  0  0  0  0  0  0  0  0
    6.8556  -15.5992   26.2550 C   0  0  0  0  0  0  0  0  0  0  0  0
    6.7927  -14.1357   26.3000 C   0  0  0  0  0  0  0  0  0  0  0  0
    7.6663  -13.4290   27.0978 C   0  0  0  0  0  0  0  0  0  0  0  0
    7.6366  -12.0414   27.1685 C   0  0  0  0  0  0  0  0  0  0  0  0
    6.7224  -11.3173   26.4351 C   0  0  0  0  0  0  0  0  0  0  0  0
    5.8448  -12.0151   25.6346 C   0  0  0  0  0  0  0  0  0  0  0  0
    5.8875  -13.3996   25.5753 C   0  0  0  0  0  0  0  0  0  0  0  0
    8.4061  -17.5202   25.8913 C   0  0  0  0  0  0  0  0  0  0  0  0
    7.8356  -18.4815   25.2959 O   0  0  0  0  0  0  0  0  0  0  0  0
    9.3485  -17.8829   26.8796 N   0  0  0  0  0  0  0  0  0  0  0  0
   10.3521  -18.8951   26.6314 C   0  0  1  0  0  0  0  0  0  0  0  0
   11.1880  -18.5333   25.4068 C   0  0  0  0  0  0  0  0  0  0  0  0
   12.2112  -19.6026   25.2571 C   0  0  0  0  0  0  0  0  0  0  0  0
   12.9862  -20.1169   26.2800 C   0  0  0  0  0  0  0  0  0  0  0  0
   13.7939  -21.0638   25.7673 N   0  0  0  0  0  0  0  0  0  0  0  0
   13.5518  -21.1608   24.4576 C   0  0  0  0  0  0  0  0  0  0  0  0
   12.5925  -20.2730   24.1567 N   0  0  0  0  0  0  0  0  0  0  0  0
   11.1870  -19.0230   27.8329 C   0  0  0  0  0  0  0  0  0  0  0  0
   11.4419  -20.1629   28.2807 O   0  0  0  0  0  0  0  0  0  0  0  0
   11.6977  -17.9231   28.4793 O   0  0  0  0  0  0  0  0  0  0  0  0
  2  1  1  0
  3  2  2  0
  4  3  1  0
  5  4  2  0
  5 11  1  0
  6  5  1  0
  7  6  1  0
  7  8  1  1
  9  7  1  0
  9 10  2  0
 11 12  2  0
 12  2  1  0
 13  9  1  0
 14 13  1  0
 14 15  1  1
 16 15  1  0
 16 17  2  0
 17 18  1  0
 19 18  2  0
 20 19  1  0
 21 20  2  0
 21 16  1  0
 22 14  1  0
 23 22  2  0
 24 22  1  0
 25 26  1  6
 25 24  1  0
 26 27  1  0
 27 28  2  0
 28 29  1  0
 30 29  1  0
 31 27  1  0
 31 30  2  0
 32 34  1  0
 32 25  1  0
 33 32  2  0
M  END
$$$$
