YFH.pdb
     RDKit          3D

 34 36  0  0  1  0  0  0  0  0999 V2000
    6.4780  -14.0666   16.3641 O   0  0  0  0  0  0  0  0  0  0  0  0
    7.4694  -14.3657   17.2911 C   0  0  0  0  0  0  0  0  0  0  0  0
    7.6976  -13.5605   18.3798 C   0  0  0  0  0  0  0  0  0  0  0  0
    8.6733  -13.8399   19.3073 C   0  0  0  0  0  0  0  0  0  0  0  0
    9.4432  -14.9768   19.1211 C   0  0  0  0  0  0  0  0  0  0  0  0
   10.5172  -15.3281   20.0979 C   0  0  0  0  0  0  0  0  0  0  0  0
    9.9633  -16.3773   21.0382 C   0  0  2  0  0  0  0  0  0  0  0  0
    8.7257  -16.8976   20.5483 N   0  0  0  0  0  0  0  0  0  0  0  0
    9.8078  -15.7588   22.3994 C   0  0  0  0  0  0  0  0  0  0  0  0
   10.7882  -15.2007   22.9541 O   0  0  0  0  0  0  0  0  0  0  0  0
    9.2442  -15.8083   18.0421 C   0  0  0  0  0  0  0  0  0  0  0  0
    8.2428  -15.4838   17.1281 C   0  0  0  0  0  0  0  0  0  0  0  0
    8.5833  -15.7785   23.0948 N   0  0  0  0  0  0  0  0  0  0  0  0
    8.3863  -15.1008   24.3847 C   0  0  1  0  0  0  0  0  0  0  0  0
    7.2917  -14.0639   24.2516 C   0  0  0  0  0  0  0  0  0  0  0  0
    7.0836  -13.2544   25.4554 C   0  0  0  0  0  0  0  0  0  0  0  0
    5.8946  -13.3352   26.1475 C   0  0  0  0  0  0  0  0  0  0  0  0
    5.6591  -12.5826   27.2918 C   0  0  0  0  0  0  0  0  0  0  0  0
    6.6171  -11.7205   27.7784 C   0  0  0  0  0  0  0  0  0  0  0  0
    7.8091  -11.6329   27.0933 C   0  0  0  0  0  0  0  0  0  0  0  0
    8.0284  -12.3906   25.9531 C   0  0  0  0  0  0  0  0  0  0  0  0
    8.1620  -16.0628   25.4654 C   0  0  0  0  0  0  0  0  0  0  0  0
    8.1653  -15.6599   26.6661 O   0  0  0  0  0  0  0  0  0  0  0  0
    7.9316  -17.4448   25.2824 N   0  0  0  0  0  0  0  0  0  0  0  0
    8.9365  -18.4296   25.6197 C   0  0  1  0  0  0  0  0  0  0  0  0
   10.0231  -18.4760   24.5490 C   0  0  0  0  0  0  0  0  0  0  0  0
   10.9529  -19.5723   24.9316 C   0  0  0  0  0  0  0  0  0  0  0  0
   11.1884  -20.0075   26.2225 C   0  0  0  0  0  0  0  0  0  0  0  0
   12.0851  -21.0103   26.1768 N   0  0  0  0  0  0  0  0  0  0  0  0
   12.4200  -21.2189   24.9010 C   0  0  0  0  0  0  0  0  0  0  0  0
   11.7304  -20.3444   24.1536 N   0  0  0  0  0  0  0  0  0  0  0  0
    9.4933  -18.0901   26.9357 C   0  0  0  0  0  0  0  0  0  0  0  0
    8.8261  -18.3403   27.9638 O   0  0  0  0  0  0  0  0  0  0  0  0
   10.7296  -17.5051   27.0689 O   0  0  0  0  0  0  0  0  0  0  0  0
  2  1  1  0
  3  2  2  0
  4  3  1  0
  5  4  2  0
  5 11  1  0
  6  5  1  0
  7  6  1  0
  7  8  1  6
  9  7  1  0
  9 10  2  0
 11 12  2  0
 12  2  1  0
 13  9  1  0
 14 13  1  0
 14 15  1  6
 16 15  1  0
 16 17  2  0
 17 18  1  0
 19 18  2  0
 20 19  1  0
 21 20  2  0
 21 16  1  0
 22 14  1  0
 23 22  2  0
 24 22  1  0
 25 26  1  6
 25 24  1  0
 26 27  1  0
 27 28  2  0
 28 29  1  0
 30 29  1  0
 31 27  1  0
 31 30  2  0
 32 34  1  0
 32 25  1  0
 33 32  2  0
M  END
$$$$
