YFH.pdb
     RDKit          3D

 34 36  0  0  1  0  0  0  0  0999 V2000
    2.9530  -24.3903   22.5236 O   0  0  0  0  0  0  0  0  0  0  0  0
    3.8690  -23.3837   22.8057 C   0  0  0  0  0  0  0  0  0  0  0  0
    5.1469  -23.4179   22.3043 C   0  0  0  0  0  0  0  0  0  0  0  0
    6.0667  -22.4318   22.5724 C   0  0  0  0  0  0  0  0  0  0  0  0
    5.6734  -21.3750   23.3777 C   0  0  0  0  0  0  0  0  0  0  0  0
    6.6323  -20.2763   23.7012 C   0  0  0  0  0  0  0  0  0  0  0  0
    6.4924  -19.2104   22.6353 C   0  0  2  0  0  0  0  0  0  0  0  0
    7.0112  -19.6692   21.3853 N   0  0  0  0  0  0  0  0  0  0  0  0
    7.1976  -17.9705   23.1099 C   0  0  0  0  0  0  0  0  0  0  0  0
    8.3905  -17.7568   22.7760 O   0  0  0  0  0  0  0  0  0  0  0  0
    4.4010  -21.3059   23.8987 C   0  0  0  0  0  0  0  0  0  0  0  0
    3.5032  -22.3295   23.5991 C   0  0  0  0  0  0  0  0  0  0  0  0
    6.5643  -17.0175   23.9309 N   0  0  0  0  0  0  0  0  0  0  0  0
    7.2895  -15.9169   24.5827 C   0  0  1  0  0  0  0  0  0  0  0  0
    6.3011  -14.9686   25.2268 C   0  0  0  0  0  0  0  0  0  0  0  0
    6.9192  -13.8115   25.8800 C   0  0  0  0  0  0  0  0  0  0  0  0
    7.4470  -12.7885   25.1224 C   0  0  0  0  0  0  0  0  0  0  0  0
    8.0426  -11.6761   25.7048 C   0  0  0  0  0  0  0  0  0  0  0  0
    8.1265  -11.5572   27.0747 C   0  0  0  0  0  0  0  0  0  0  0  0
    7.6017  -12.5751   27.8405 C   0  0  0  0  0  0  0  0  0  0  0  0
    7.0107  -13.6782   27.2440 C   0  0  0  0  0  0  0  0  0  0  0  0
    8.3117  -16.4205   25.5019 C   0  0  0  0  0  0  0  0  0  0  0  0
    8.0041  -17.3174   26.3416 O   0  0  0  0  0  0  0  0  0  0  0  0
    9.6550  -15.9836   25.5349 N   0  0  0  0  0  0  0  0  0  0  0  0
   10.6413  -16.6352   26.3691 C   0  0  1  0  0  0  0  0  0  0  0  0
   12.0184  -16.5822   25.7134 C   0  0  0  0  0  0  0  0  0  0  0  0
   11.9031  -17.3057   24.4188 C   0  0  0  0  0  0  0  0  0  0  0  0
   11.8424  -16.7104   23.1724 C   0  0  0  0  0  0  0  0  0  0  0  0
   11.7423  -17.6786   22.2427 N   0  0  0  0  0  0  0  0  0  0  0  0
   11.7381  -18.8609   22.8637 C   0  0  0  0  0  0  0  0  0  0  0  0
   11.8357  -18.6265   24.1806 N   0  0  0  0  0  0  0  0  0  0  0  0
   10.6456  -15.9756   27.6814 C   0  0  0  0  0  0  0  0  0  0  0  0
   11.3323  -16.4621   28.6069 O   0  0  0  0  0  0  0  0  0  0  0  0
    9.9155  -14.8363   27.9207 O   0  0  0  0  0  0  0  0  0  0  0  0
  2  1  1  0
  3  2  2  0
  4  3  1  0
  5  4  2  0
  5 11  1  0
  6  5  1  0
  7  6  1  0
  7  8  1  6
  9  7  1  0
  9 10  2  0
 11 12  2  0
 12  2  1  0
 13  9  1  0
 14 13  1  0
 14 15  1  1
 16 15  1  0
 16 17  2  0
 17 18  1  0
 19 18  2  0
 20 19  1  0
 21 20  2  0
 21 16  1  0
 22 14  1  0
 23 22  2  0
 24 22  1  0
 25 26  1  6
 25 24  1  0
 26 27  1  0
 27 28  2  0
 28 29  1  0
 30 29  1  0
 31 27  1  0
 31 30  2  0
 32 34  1  0
 32 25  1  0
 33 32  2  0
M  END
$$$$
