YFH.pdb
     RDKit          3D

 34 36  0  0  1  0  0  0  0  0999 V2000
    7.8231  -13.6960   15.9056 O   0  0  0  0  0  0  0  0  0  0  0  0
    8.1055  -13.7144   17.2663 C   0  0  0  0  0  0  0  0  0  0  0  0
    7.3314  -13.0254   18.1672 C   0  0  0  0  0  0  0  0  0  0  0  0
    7.5950  -13.0316   19.5166 C   0  0  0  0  0  0  0  0  0  0  0  0
    8.6828  -13.7634   19.9649 C   0  0  0  0  0  0  0  0  0  0  0  0
    9.0151  -13.8050   21.4206 C   0  0  0  0  0  0  0  0  0  0  0  0
    9.1891  -15.2562   21.8149 C   0  0  2  0  0  0  0  0  0  0  0  0
    8.0517  -16.0293   21.4263 N   0  0  0  0  0  0  0  0  0  0  0  0
    9.4249  -15.3189   23.2983 C   0  0  0  0  0  0  0  0  0  0  0  0
   10.4774  -14.8388   23.7902 O   0  0  0  0  0  0  0  0  0  0  0  0
    9.4821  -14.4669   19.0922 C   0  0  0  0  0  0  0  0  0  0  0  0
    9.1753  -14.4305   17.7328 C   0  0  0  0  0  0  0  0  0  0  0  0
    8.4962  -15.9058   24.1794 N   0  0  0  0  0  0  0  0  0  0  0  0
    8.6739  -15.9122   25.6390 C   0  0  1  0  0  0  0  0  0  0  0  0
    7.3779  -15.5114   26.3102 C   0  0  0  0  0  0  0  0  0  0  0  0
    7.1312  -14.0669   26.3225 C   0  0  0  0  0  0  0  0  0  0  0  0
    8.1211  -13.1985   26.7285 C   0  0  0  0  0  0  0  0  0  0  0  0
    7.9248  -11.8230   26.7557 C   0  0  0  0  0  0  0  0  0  0  0  0
    6.7202  -11.2748   26.3731 C   0  0  0  0  0  0  0  0  0  0  0  0
    5.7243  -12.1351   25.9656 C   0  0  0  0  0  0  0  0  0  0  0  0
    5.9362  -13.5051   25.9443 C   0  0  0  0  0  0  0  0  0  0  0  0
    9.2117  -17.1913   26.1064 C   0  0  0  0  0  0  0  0  0  0  0  0
    9.3561  -17.3872   27.3494 O   0  0  0  0  0  0  0  0  0  0  0  0
    9.5932  -18.2626   25.2678 N   0  0  0  0  0  0  0  0  0  0  0  0
   10.0764  -19.5131   25.8120 C   0  0  1  0  0  0  0  0  0  0  0  0
    9.6802  -20.6794   24.9109 C   0  0  0  0  0  0  0  0  0  0  0  0
    8.1948  -20.6717   24.8308 C   0  0  0  0  0  0  0  0  0  0  0  0
    7.4567  -20.6896   23.6619 C   0  0  0  0  0  0  0  0  0  0  0  0
    6.1497  -20.6755   23.9835 N   0  0  0  0  0  0  0  0  0  0  0  0
    6.0431  -20.6494   25.3145 C   0  0  0  0  0  0  0  0  0  0  0  0
    7.2855  -20.6473   25.8198 N   0  0  0  0  0  0  0  0  0  0  0  0
   11.5346  -19.4202   25.9603 C   0  0  0  0  0  0  0  0  0  0  0  0
   12.1721  -18.6223   25.2379 O   0  0  0  0  0  0  0  0  0  0  0  0
   12.2191  -20.1863   26.8729 O   0  0  0  0  0  0  0  0  0  0  0  0
  2  1  1  0
  3  2  2  0
  4  3  1  0
  5  4  2  0
  5 11  1  0
  6  5  1  0
  7  6  1  0
  7  8  1  1
  9  7  1  0
  9 10  2  0
 11 12  2  0
 12  2  1  0
 13  9  1  0
 14 13  1  0
 14 15  1  1
 16 15  1  0
 16 17  2  0
 17 18  1  0
 19 18  2  0
 20 19  1  0
 21 20  2  0
 21 16  1  0
 22 14  1  0
 23 22  2  0
 24 22  1  0
 25 26  1  6
 25 24  1  0
 26 27  1  0
 27 28  2  0
 28 29  1  0
 30 29  1  0
 31 27  1  0
 31 30  2  0
 32 34  1  0
 32 25  1  0
 33 32  2  0
M  END
$$$$
