YFH.pdb
     RDKit          3D

 34 36  0  0  1  0  0  0  0  0999 V2000
    8.0289  -13.7679   15.2536 O   0  0  0  0  0  0  0  0  0  0  0  0
    8.0453  -13.7512   16.6433 C   0  0  0  0  0  0  0  0  0  0  0  0
    9.1453  -14.1692   17.3511 C   0  0  0  0  0  0  0  0  0  0  0  0
    9.1802  -14.1600   18.7254 C   0  0  0  0  0  0  0  0  0  0  0  0
    8.0582  -13.7105   19.4031 C   0  0  0  0  0  0  0  0  0  0  0  0
    8.0416  -13.6793   20.8963 C   0  0  0  0  0  0  0  0  0  0  0  0
    8.1722  -15.1042   21.3910 C   0  0  2  0  0  0  0  0  0  0  0  0
    7.0390  -15.8837   21.0030 N   0  0  0  0  0  0  0  0  0  0  0  0
    8.3424  -15.0734   22.8843 C   0  0  0  0  0  0  0  0  0  0  0  0
    7.9116  -14.0966   23.5480 O   0  0  0  0  0  0  0  0  0  0  0  0
    6.9367  -13.2836   18.7284 C   0  0  0  0  0  0  0  0  0  0  0  0
    6.9483  -13.3112   17.3346 C   0  0  0  0  0  0  0  0  0  0  0  0
    8.9782  -16.1155   23.5865 N   0  0  0  0  0  0  0  0  0  0  0  0
    9.0852  -16.1416   25.0528 C   0  0  1  0  0  0  0  0  0  0  0  0
    7.7123  -15.9664   25.6654 C   0  0  0  0  0  0  0  0  0  0  0  0
    7.2934  -14.5693   25.8076 C   0  0  0  0  0  0  0  0  0  0  0  0
    6.3109  -14.0540   24.9903 C   0  0  0  0  0  0  0  0  0  0  0  0
    5.8881  -12.7341   25.0935 C   0  0  0  0  0  0  0  0  0  0  0  0
    6.4433  -11.8868   26.0271 C   0  0  0  0  0  0  0  0  0  0  0  0
    7.4263  -12.3929   26.8489 C   0  0  0  0  0  0  0  0  0  0  0  0
    7.8369  -13.7121   26.7330 C   0  0  0  0  0  0  0  0  0  0  0  0
    9.7919  -17.3373   25.5160 C   0  0  0  0  0  0  0  0  0  0  0  0
    9.2420  -18.4713   25.3907 O   0  0  0  0  0  0  0  0  0  0  0  0
   11.0755  -17.3395   26.1067 N   0  0  0  0  0  0  0  0  0  0  0  0
   11.3333  -18.0305   27.3515 C   0  0  1  0  0  0  0  0  0  0  0  0
   10.3947  -17.5315   28.4467 C   0  0  0  0  0  0  0  0  0  0  0  0
   10.8907  -16.1901   28.8556 C   0  0  0  0  0  0  0  0  0  0  0  0
   11.9637  -15.5271   28.2893 C   0  0  0  0  0  0  0  0  0  0  0  0
   12.1130  -14.3454   28.9162 N   0  0  0  0  0  0  0  0  0  0  0  0
   11.1701  -14.2446   29.8565 C   0  0  0  0  0  0  0  0  0  0  0  0
   10.4344  -15.3653   29.8133 N   0  0  0  0  0  0  0  0  0  0  0  0
   11.1724  -19.4722   27.1221 C   0  0  0  0  0  0  0  0  0  0  0  0
   12.1565  -20.1431   26.7398 O   0  0  0  0  0  0  0  0  0  0  0  0
    9.9686  -20.1057   27.3171 O   0  0  0  0  0  0  0  0  0  0  0  0
  2  1  1  0
  3  2  2  0
  4  3  1  0
  5  4  2  0
  5 11  1  0
  6  5  1  0
  7  6  1  0
  7  8  1  1
  9  7  1  0
  9 10  2  0
 11 12  2  0
 12  2  1  0
 13  9  1  0
 14 13  1  0
 14 15  1  1
 16 15  1  0
 16 17  2  0
 17 18  1  0
 19 18  2  0
 20 19  1  0
 21 20  2  0
 21 16  1  0
 22 14  1  0
 23 22  2  0
 24 22  1  0
 25 26  1  1
 25 24  1  0
 26 27  1  0
 27 28  2  0
 28 29  1  0
 30 29  1  0
 31 27  1  0
 31 30  2  0
 32 34  1  0
 32 25  1  0
 33 32  2  0
M  END
$$$$
