YFH.pdb
     RDKit          3D

 34 36  0  0  1  0  0  0  0  0999 V2000
    9.7953  -23.1018   17.6543 O   0  0  0  0  0  0  0  0  0  0  0  0
    9.7945  -22.0590   18.5732 C   0  0  0  0  0  0  0  0  0  0  0  0
    8.6324  -21.4200   18.9294 C   0  0  0  0  0  0  0  0  0  0  0  0
    8.6117  -20.3869   19.8363 C   0  0  0  0  0  0  0  0  0  0  0  0
    9.8137  -19.9901   20.4000 C   0  0  0  0  0  0  0  0  0  0  0  0
    9.8492  -18.8728   21.3907 C   0  0  0  0  0  0  0  0  0  0  0  0
    9.5325  -17.5893   20.6532 C   0  0  2  0  0  0  0  0  0  0  0  0
   10.4451  -17.3843   19.5727 N   0  0  0  0  0  0  0  0  0  0  0  0
    9.5719  -16.4547   21.6387 C   0  0  0  0  0  0  0  0  0  0  0  0
   10.6466  -15.8361   21.8453 O   0  0  0  0  0  0  0  0  0  0  0  0
   10.9991  -20.6064   20.0679 C   0  0  0  0  0  0  0  0  0  0  0  0
   10.9701  -21.6495   19.1434 C   0  0  0  0  0  0  0  0  0  0  0  0
    8.4307  -16.0466   22.3559 N   0  0  0  0  0  0  0  0  0  0  0  0
    8.4526  -14.9497   23.3349 C   0  0  1  0  0  0  0  0  0  0  0  0
    7.0409  -14.6449   23.7877 C   0  0  0  0  0  0  0  0  0  0  0  0
    6.9560  -13.6351   24.8464 C   0  0  0  0  0  0  0  0  0  0  0  0
    6.3658  -13.9440   26.0527 C   0  0  0  0  0  0  0  0  0  0  0  0
    6.2648  -13.0134   27.0799 C   0  0  0  0  0  0  0  0  0  0  0  0
    6.7570  -11.7360   26.9250 C   0  0  0  0  0  0  0  0  0  0  0  0
    7.3489  -11.4178   25.7224 C   0  0  0  0  0  0  0  0  0  0  0  0
    7.4417  -12.3578   24.7076 C   0  0  0  0  0  0  0  0  0  0  0  0
    9.3786  -15.2319   24.4334 C   0  0  0  0  0  0  0  0  0  0  0  0
    9.9153  -14.2684   25.0561 O   0  0  0  0  0  0  0  0  0  0  0  0
    9.7361  -16.5248   24.8772 N   0  0  0  0  0  0  0  0  0  0  0  0
   10.5801  -16.7193   26.0362 C   0  0  1  0  0  0  0  0  0  0  0  0
    9.7327  -16.9217   27.2893 C   0  0  0  0  0  0  0  0  0  0  0  0
    9.9762  -15.7435   28.1642 C   0  0  0  0  0  0  0  0  0  0  0  0
   10.7556  -14.6501   27.8350 C   0  0  0  0  0  0  0  0  0  0  0  0
   10.7410  -13.7898   28.8700 N   0  0  0  0  0  0  0  0  0  0  0  0
    9.9789  -14.3064   29.8373 C   0  0  0  0  0  0  0  0  0  0  0  0
    9.5197  -15.4891   29.4022 N   0  0  0  0  0  0  0  0  0  0  0  0
   11.4517  -17.8745   25.7849 C   0  0  0  0  0  0  0  0  0  0  0  0
   12.2860  -18.2102   26.6544 O   0  0  0  0  0  0  0  0  0  0  0  0
   11.3751  -18.5984   24.6194 O   0  0  0  0  0  0  0  0  0  0  0  0
  2  1  1  0
  3  2  2  0
  4  3  1  0
  5  4  2  0
  5 11  1  0
  6  5  1  0
  7  6  1  0
  7  8  1  6
  9  7  1  0
  9 10  2  0
 11 12  2  0
 12  2  1  0
 13  9  1  0
 14 13  1  0
 14 15  1  1
 16 15  1  0
 16 17  2  0
 17 18  1  0
 19 18  2  0
 20 19  1  0
 21 20  2  0
 21 16  1  0
 22 14  1  0
 23 22  2  0
 24 22  1  0
 25 26  1  1
 25 24  1  0
 26 27  1  0
 27 28  2  0
 28 29  1  0
 30 29  1  0
 31 27  1  0
 31 30  2  0
 32 34  1  0
 32 25  1  0
 33 32  2  0
M  END
$$$$
