YFH.pdb
     RDKit          3D

 34 36  0  0  1  0  0  0  0  0999 V2000
    7.2768  -14.1806   14.8853 O   0  0  0  0  0  0  0  0  0  0  0  0
    7.6205  -14.6768   16.1373 C   0  0  0  0  0  0  0  0  0  0  0  0
    8.5420  -14.0397   16.9313 C   0  0  0  0  0  0  0  0  0  0  0  0
    8.8947  -14.5152   18.1721 C   0  0  0  0  0  0  0  0  0  0  0  0
    8.2895  -15.6781   18.6207 C   0  0  0  0  0  0  0  0  0  0  0  0
    8.6355  -16.2393   19.9611 C   0  0  0  0  0  0  0  0  0  0  0  0
    9.7169  -15.3675   20.5633 C   0  0  2  0  0  0  0  0  0  0  0  0
   11.0150  -15.8506   20.2116 N   0  0  0  0  0  0  0  0  0  0  0  0
    9.5208  -15.3310   22.0533 C   0  0  0  0  0  0  0  0  0  0  0  0
   10.3535  -15.8879   22.8127 O   0  0  0  0  0  0  0  0  0  0  0  0
    7.3612  -16.3450   17.8534 C   0  0  0  0  0  0  0  0  0  0  0  0
    7.0357  -15.8244   16.6017 C   0  0  0  0  0  0  0  0  0  0  0  0
    8.4194  -14.6850   22.6474 N   0  0  0  0  0  0  0  0  0  0  0  0
    8.3956  -14.2857   24.0623 C   0  0  1  0  0  0  0  0  0  0  0  0
    7.3658  -13.1950   24.2649 C   0  0  0  0  0  0  0  0  0  0  0  0
    7.2893  -12.6909   25.6388 C   0  0  0  0  0  0  0  0  0  0  0  0
    6.1227  -12.8212   26.3606 C   0  0  0  0  0  0  0  0  0  0  0  0
    6.0107  -12.3544   27.6648 C   0  0  0  0  0  0  0  0  0  0  0  0
    7.0743  -11.7386   28.2872 C   0  0  0  0  0  0  0  0  0  0  0  0
    8.2449  -11.6036   27.5735 C   0  0  0  0  0  0  0  0  0  0  0  0
    8.3403  -12.0748   26.2731 C   0  0  0  0  0  0  0  0  0  0  0  0
    8.2134  -15.4423   24.9413 C   0  0  0  0  0  0  0  0  0  0  0  0
    8.6183  -15.3814   26.1398 O   0  0  0  0  0  0  0  0  0  0  0  0
    7.6035  -16.6587   24.5606 N   0  0  0  0  0  0  0  0  0  0  0  0
    7.7409  -17.8559   25.3613 C   0  0  1  0  0  0  0  0  0  0  0  0
    8.2854  -19.0059   24.5185 C   0  0  0  0  0  0  0  0  0  0  0  0
    7.4261  -19.0917   23.3073 C   0  0  0  0  0  0  0  0  0  0  0  0
    6.3181  -18.3042   23.0552 C   0  0  0  0  0  0  0  0  0  0  0  0
    5.7986  -18.6679   21.8679 N   0  0  0  0  0  0  0  0  0  0  0  0
    6.5431  -19.6568   21.3668 C   0  0  0  0  0  0  0  0  0  0  0  0
    7.5262  -19.9074   22.2441 N   0  0  0  0  0  0  0  0  0  0  0  0
    8.6252  -17.5552   26.4948 C   0  0  0  0  0  0  0  0  0  0  0  0
    8.2166  -17.7607   27.6591 O   0  0  0  0  0  0  0  0  0  0  0  0
    9.8917  -17.0546   26.3111 O   0  0  0  0  0  0  0  0  0  0  0  0
  2  1  1  0
  3  2  2  0
  4  3  1  0
  5  4  2  0
  5 11  1  0
  6  5  1  0
  7  6  1  0
  7  8  1  1
  9  7  1  0
  9 10  2  0
 11 12  2  0
 12  2  1  0
 13  9  1  0
 14 13  1  0
 14 15  1  6
 16 15  1  0
 16 17  2  0
 17 18  1  0
 19 18  2  0
 20 19  1  0
 21 20  2  0
 21 16  1  0
 22 14  1  0
 23 22  2  0
 24 22  1  0
 25 26  1  6
 25 24  1  0
 26 27  1  0
 27 28  2  0
 28 29  1  0
 30 29  1  0
 31 27  1  0
 31 30  2  0
 32 34  1  0
 32 25  1  0
 33 32  2  0
M  END
$$$$
