VMG.pdb
     RDKit          3D

 20 19  0  0  1  0  0  0  0  0999 V2000
    5.6556  -21.4818   24.2407 C   0  0  0  0  0  0  0  0  0  0  0  0
    6.3943  -20.1777   24.2595 C   0  0  1  0  0  0  0  0  0  0  0  0
    7.7116  -20.3017   23.4934 C   0  0  0  0  0  0  0  0  0  0  0  0
    5.6384  -19.0276   23.6461 C   0  0  2  0  0  0  0  0  0  0  0  0
    5.4696  -19.4026   22.2252 N   0  0  0  0  0  0  0  0  0  0  0  0
    6.4525  -17.7817   23.6341 C   0  0  0  0  0  0  0  0  0  0  0  0
    7.1179  -17.4215   22.5987 O   0  0  0  0  0  0  0  0  0  0  0  0
    7.4027  -10.5721   26.7214 C   0  0  0  0  0  0  0  0  0  0  0  0
    6.5485  -12.1911   26.7908 S   0  0  0  0  0  0  0  0  0  0  0  0
    7.3573  -13.3698   25.6960 C   0  0  0  0  0  0  0  0  0  0  0  0
    6.6998  -14.7185   25.7128 C   0  0  0  0  0  0  0  0  0  0  0  0
    7.3396  -15.7077   24.7512 C   0  0  2  0  0  0  0  0  0  0  0  0
    6.5280  -16.9371   24.7644 N   0  0  0  0  0  0  0  0  0  0  0  0
    8.6903  -16.0394   25.2397 C   0  0  0  0  0  0  0  0  0  0  0  0
    8.8898  -16.4676   26.4168 O   0  0  0  0  0  0  0  0  0  0  0  0
    9.8600  -15.9064   24.4401 N   0  0  0  0  0  0  0  0  0  0  0  0
   11.1821  -16.0759   24.9947 C   0  0  0  0  0  0  0  0  0  0  0  0
   12.2416  -15.8735   23.9858 C   0  0  0  0  0  0  0  0  0  0  0  0
   11.9006  -15.7622   22.7651 O   0  0  0  0  0  0  0  0  0  0  0  0
   13.5736  -15.8050   24.3440 O   0  0  0  0  0  0  0  0  0  0  0  0
  2  1  1  6
  3  2  1  0
  4  2  1  0
  4  5  1  6
  6  4  1  0
  7  6  2  0
  9  8  1  0
  9 10  1  0
 10 11  1  0
 12 11  1  1
 12 13  1  0
 13  6  1  0
 14 15  2  0
 14 12  1  0
 16 14  1  0
 17 16  1  0
 17 18  1  0
 18 20  1  0
 19 18  2  0
M  END
$$$$
