VMG.pdb
     RDKit          3D

 20 19  0  0  1  0  0  0  0  0999 V2000
    7.3046  -15.8140   18.7750 C   0  0  0  0  0  0  0  0  0  0  0  0
    7.9107  -15.3781   20.0748 C   0  0  1  0  0  0  0  0  0  0  0  0
    9.4069  -15.1150   19.9020 C   0  0  0  0  0  0  0  0  0  0  0  0
    7.3094  -14.1216   20.6493 C   0  0  2  0  0  0  0  0  0  0  0  0
    7.7071  -13.0499   19.7105 N   0  0  0  0  0  0  0  0  0  0  0  0
    7.9342  -13.7613   21.9512 C   0  0  0  0  0  0  0  0  0  0  0  0
    8.8292  -12.8470   22.0389 O   0  0  0  0  0  0  0  0  0  0  0  0
    6.7139  -10.2196   27.0585 C   0  0  0  0  0  0  0  0  0  0  0  0
    6.1284  -11.9549   27.0979 S   0  0  0  0  0  0  0  0  0  0  0  0
    6.2608  -12.6945   25.4616 C   0  0  0  0  0  0  0  0  0  0  0  0
    7.0292  -13.9833   25.4709 C   0  0  0  0  0  0  0  0  0  0  0  0
    8.1520  -14.0174   24.4459 C   0  0  2  0  0  0  0  0  0  0  0  0
    7.5679  -14.4103   23.1517 N   0  0  0  0  0  0  0  0  0  0  0  0
    9.1284  -15.0473   24.8447 C   0  0  0  0  0  0  0  0  0  0  0  0
    9.6163  -15.0894   26.0148 O   0  0  0  0  0  0  0  0  0  0  0  0
    9.5942  -16.0603   23.9604 N   0  0  0  0  0  0  0  0  0  0  0  0
   10.5895  -17.0239   24.3666 C   0  0  0  0  0  0  0  0  0  0  0  0
   10.9575  -17.9431   23.2708 C   0  0  0  0  0  0  0  0  0  0  0  0
   10.1747  -18.9102   23.0043 O   0  0  0  0  0  0  0  0  0  0  0  0
   12.1195  -17.7697   22.5447 O   0  0  0  0  0  0  0  0  0  0  0  0
  2  1  1  6
  3  2  1  0
  4  2  1  0
  4  5  1  6
  6  4  1  0
  7  6  2  0
  9  8  1  0
  9 10  1  0
 10 11  1  0
 12 11  1  1
 12 13  1  0
 13  6  1  0
 14 15  2  0
 14 12  1  0
 16 14  1  0
 17 16  1  0
 17 18  1  0
 18 20  1  0
 19 18  2  0
M  END
$$$$
