VMG.pdb
     RDKit          3D

 20 19  0  0  1  0  0  0  0  0999 V2000
    7.1995  -18.0096   21.5748 C   0  0  0  0  0  0  0  0  0  0  0  0
    7.9156  -17.3740   20.4215 C   0  0  1  0  0  0  0  0  0  0  0  0
    7.4048  -17.9452   19.0984 C   0  0  0  0  0  0  0  0  0  0  0  0
    7.7576  -15.8777   20.3417 C   0  0  2  0  0  0  0  0  0  0  0  0
    8.5576  -15.4763   19.1640 N   0  0  0  0  0  0  0  0  0  0  0  0
    8.3920  -15.1973   21.5035 C   0  0  0  0  0  0  0  0  0  0  0  0
    9.6454  -14.9268   21.5237 O   0  0  0  0  0  0  0  0  0  0  0  0
    5.3206  -12.3623   27.4724 C   0  0  0  0  0  0  0  0  0  0  0  0
    6.4246  -11.4352   26.3421 S   0  0  0  0  0  0  0  0  0  0  0  0
    7.6737  -12.5330   25.6516 C   0  0  0  0  0  0  0  0  0  0  0  0
    7.1699  -13.3109   24.4716 C   0  0  0  0  0  0  0  0  0  0  0  0
    8.2616  -14.0989   23.7646 C   0  0  2  0  0  0  0  0  0  0  0  0
    7.6406  -14.8167   22.6379 N   0  0  0  0  0  0  0  0  0  0  0  0
    8.8113  -15.0953   24.7018 C   0  0  0  0  0  0  0  0  0  0  0  0
    9.4124  -14.7535   25.7651 O   0  0  0  0  0  0  0  0  0  0  0  0
    8.7125  -16.4989   24.4894 N   0  0  0  0  0  0  0  0  0  0  0  0
    9.2195  -17.4497   25.4502 C   0  0  0  0  0  0  0  0  0  0  0  0
   10.6759  -17.6562   25.3171 C   0  0  0  0  0  0  0  0  0  0  0  0
   11.1090  -18.2597   24.2841 O   0  0  0  0  0  0  0  0  0  0  0  0
   11.5577  -17.2107   26.2822 O   0  0  0  0  0  0  0  0  0  0  0  0
  2  1  1  1
  3  2  1  0
  4  2  1  0
  4  5  1  6
  6  4  1  0
  7  6  2  0
  9  8  1  0
  9 10  1  0
 10 11  1  0
 12 11  1  1
 12 13  1  0
 13  6  1  0
 14 15  2  0
 14 12  1  0
 16 14  1  0
 17 16  1  0
 17 18  1  0
 18 20  1  0
 19 18  2  0
M  END
$$$$
