VMG.pdb
     RDKit          3D

 20 19  0  0  1  0  0  0  0  0999 V2000
    6.7350  -16.9401   19.3274 C   0  0  0  0  0  0  0  0  0  0  0  0
    7.2444  -16.7315   20.7216 C   0  0  1  0  0  0  0  0  0  0  0  0
    8.4321  -17.6540   20.9974 C   0  0  0  0  0  0  0  0  0  0  0  0
    7.7061  -15.3264   21.0098 C   0  0  2  0  0  0  0  0  0  0  0  0
    8.9392  -15.1632   20.2093 N   0  0  0  0  0  0  0  0  0  0  0  0
    8.1292  -15.1692   22.4280 C   0  0  0  0  0  0  0  0  0  0  0  0
    9.3412  -15.3705   22.7957 O   0  0  0  0  0  0  0  0  0  0  0  0
    9.2207  -12.9937   28.8242 C   0  0  0  0  0  0  0  0  0  0  0  0
    8.4461  -12.5014   27.2388 S   0  0  0  0  0  0  0  0  0  0  0  0
    6.9409  -13.4495   26.9598 C   0  0  0  0  0  0  0  0  0  0  0  0
    6.6557  -13.6641   25.5024 C   0  0  0  0  0  0  0  0  0  0  0  0
    7.6412  -14.6094   24.8332 C   0  0  2  0  0  0  0  0  0  0  0  0
    7.2137  -14.7889   23.4348 N   0  0  0  0  0  0  0  0  0  0  0  0
    7.5776  -15.9183   25.5083 C   0  0  0  0  0  0  0  0  0  0  0  0
    6.4730  -16.4905   25.7559 O   0  0  0  0  0  0  0  0  0  0  0  0
    8.7343  -16.6320   25.9300 N   0  0  0  0  0  0  0  0  0  0  0  0
    8.6376  -17.9115   26.5917 C   0  0  0  0  0  0  0  0  0  0  0  0
    9.5826  -18.0296   27.7206 C   0  0  0  0  0  0  0  0  0  0  0  0
   10.4124  -17.0850   27.9158 O   0  0  0  0  0  0  0  0  0  0  0  0
    9.5773  -19.1325   28.5520 O   0  0  0  0  0  0  0  0  0  0  0  0
  2  1  1  6
  3  2  1  0
  4  2  1  0
  4  5  1  6
  6  4  1  0
  7  6  2  0
  9  8  1  0
  9 10  1  0
 10 11  1  0
 12 11  1  1
 12 13  1  0
 13  6  1  0
 14 15  2  0
 14 12  1  0
 16 14  1  0
 17 16  1  0
 17 18  1  0
 18 20  1  0
 19 18  2  0
M  END
$$$$
