VMG.pdb
     RDKit          3D

 20 19  0  0  1  0  0  0  0  0999 V2000
    6.1972  -21.4116   25.3475 C   0  0  0  0  0  0  0  0  0  0  0  0
    6.8454  -20.0882   25.0733 C   0  0  1  0  0  0  0  0  0  0  0  0
    8.0526  -20.2681   24.1524 C   0  0  0  0  0  0  0  0  0  0  0  0
    5.9406  -19.0786   24.4158 C   0  0  2  0  0  0  0  0  0  0  0  0
    5.6423  -19.6503   23.0845 N   0  0  0  0  0  0  0  0  0  0  0  0
    6.6515  -17.7986   24.1482 C   0  0  0  0  0  0  0  0  0  0  0  0
    7.2816  -17.5947   23.0500 O   0  0  0  0  0  0  0  0  0  0  0  0
    5.2899  -11.4164   26.3098 C   0  0  0  0  0  0  0  0  0  0  0  0
    6.9920  -11.8850   26.7989 S   0  0  0  0  0  0  0  0  0  0  0  0
    7.6371  -13.1424   25.6832 C   0  0  0  0  0  0  0  0  0  0  0  0
    6.9010  -14.4452   25.7941 C   0  0  0  0  0  0  0  0  0  0  0  0
    7.4448  -15.5201   24.8660 C   0  0  2  0  0  0  0  0  0  0  0  0
    6.6630  -16.7480   25.0929 N   0  0  0  0  0  0  0  0  0  0  0  0
    8.8485  -15.7921   25.2247 C   0  0  0  0  0  0  0  0  0  0  0  0
    9.2028  -16.0096   26.4230 O   0  0  0  0  0  0  0  0  0  0  0  0
    9.9014  -15.8306   24.2681 N   0  0  0  0  0  0  0  0  0  0  0  0
   11.2852  -15.9348   24.6661 C   0  0  0  0  0  0  0  0  0  0  0  0
   12.1902  -16.0817   23.5081 C   0  0  0  0  0  0  0  0  0  0  0  0
   11.6760  -16.2455   22.3559 O   0  0  0  0  0  0  0  0  0  0  0  0
   13.5627  -16.0443   23.6574 O   0  0  0  0  0  0  0  0  0  0  0  0
  2  1  1  6
  3  2  1  0
  4  2  1  0
  4  5  1  6
  6  4  1  0
  7  6  2  0
  9  8  1  0
  9 10  1  0
 10 11  1  0
 12 11  1  1
 12 13  1  0
 13  6  1  0
 14 15  2  0
 14 12  1  0
 16 14  1  0
 17 16  1  0
 17 18  1  0
 18 20  1  0
 19 18  2  0
M  END
$$$$
