VMG.pdb
     RDKit          3D

 20 19  0  0  1  0  0  0  0  0999 V2000
    7.4588  -18.5130   21.0699 C   0  0  0  0  0  0  0  0  0  0  0  0
    8.1768  -17.7843   19.9744 C   0  0  1  0  0  0  0  0  0  0  0  0
    7.6589  -18.2345   18.6081 C   0  0  0  0  0  0  0  0  0  0  0  0
    8.0292  -16.2856   20.0256 C   0  0  2  0  0  0  0  0  0  0  0  0
    8.8852  -15.7847   18.9281 N   0  0  0  0  0  0  0  0  0  0  0  0
    8.6115  -15.7204   21.2732 C   0  0  0  0  0  0  0  0  0  0  0  0
    9.8788  -15.6082   21.4346 O   0  0  0  0  0  0  0  0  0  0  0  0
    7.1846  -11.4139   27.7966 C   0  0  0  0  0  0  0  0  0  0  0  0
    6.5174  -12.2033   26.2841 S   0  0  0  0  0  0  0  0  0  0  0  0
    7.7502  -13.2946   25.5551 C   0  0  0  0  0  0  0  0  0  0  0  0
    7.3008  -13.8829   24.2500 C   0  0  0  0  0  0  0  0  0  0  0  0
    8.3729  -14.7210   23.5712 C   0  0  2  0  0  0  0  0  0  0  0  0
    7.7932  -15.2798   22.3374 N   0  0  0  0  0  0  0  0  0  0  0  0
    8.7355  -15.8396   24.4602 C   0  0  0  0  0  0  0  0  0  0  0  0
    7.8969  -16.7330   24.7876 O   0  0  0  0  0  0  0  0  0  0  0  0
   10.0365  -16.0019   25.0137 N   0  0  0  0  0  0  0  0  0  0  0  0
   10.4355  -17.2247   25.6693 C   0  0  0  0  0  0  0  0  0  0  0  0
   10.3995  -17.1071   27.1410 C   0  0  0  0  0  0  0  0  0  0  0  0
    9.8384  -16.0861   27.6525 O   0  0  0  0  0  0  0  0  0  0  0  0
   10.9571  -18.0739   27.9546 O   0  0  0  0  0  0  0  0  0  0  0  0
  2  1  1  1
  3  2  1  0
  4  2  1  0
  4  5  1  6
  6  4  1  0
  7  6  2  0
  9  8  1  0
  9 10  1  0
 10 11  1  0
 12 11  1  1
 12 13  1  0
 13  6  1  0
 14 15  2  0
 14 12  1  0
 16 14  1  0
 17 16  1  0
 17 18  1  0
 18 20  1  0
 19 18  2  0
M  END
$$$$
