VMG.pdb
     RDKit          3D

 20 19  0  0  1  0  0  0  0  0999 V2000
    7.1363  -21.3013   25.1878 C   0  0  0  0  0  0  0  0  0  0  0  0
    7.4476  -19.8918   24.7837 C   0  0  1  0  0  0  0  0  0  0  0  0
    8.3544  -19.8795   23.5527 C   0  0  0  0  0  0  0  0  0  0  0  0
    6.2368  -19.0623   24.4431 C   0  0  2  0  0  0  0  0  0  0  0  0
    5.6354  -19.7362   23.2716 N   0  0  0  0  0  0  0  0  0  0  0  0
    6.6193  -17.7048   23.9674 C   0  0  0  0  0  0  0  0  0  0  0  0
    6.8592  -17.4672   22.7302 O   0  0  0  0  0  0  0  0  0  0  0  0
    8.8103  -12.2276   28.3849 C   0  0  0  0  0  0  0  0  0  0  0  0
    7.7587  -12.3709   26.8918 S   0  0  0  0  0  0  0  0  0  0  0  0
    7.3369  -14.0951   26.5899 C   0  0  0  0  0  0  0  0  0  0  0  0
    6.4522  -14.2716   25.3909 C   0  0  0  0  0  0  0  0  0  0  0  0
    7.0134  -15.2519   24.3728 C   0  0  2  0  0  0  0  0  0  0  0  0
    6.7341  -16.6144   24.8586 N   0  0  0  0  0  0  0  0  0  0  0  0
    8.4753  -15.0769   24.3003 C   0  0  0  0  0  0  0  0  0  0  0  0
    9.0007  -13.9874   23.9184 O   0  0  0  0  0  0  0  0  0  0  0  0
    9.3987  -16.1025   24.6475 N   0  0  0  0  0  0  0  0  0  0  0  0
   10.8256  -15.9008   24.5605 C   0  0  0  0  0  0  0  0  0  0  0  0
   11.5860  -17.0581   25.0738 C   0  0  0  0  0  0  0  0  0  0  0  0
   10.9412  -18.0968   25.4267 O   0  0  0  0  0  0  0  0  0  0  0  0
   12.9631  -17.0279   25.1741 O   0  0  0  0  0  0  0  0  0  0  0  0
  2  1  1  6
  3  2  1  0
  4  2  1  0
  4  5  1  6
  6  4  1  0
  7  6  2  0
  9  8  1  0
  9 10  1  0
 10 11  1  0
 12 11  1  1
 12 13  1  0
 13  6  1  0
 14 15  2  0
 14 12  1  0
 16 14  1  0
 17 16  1  0
 17 18  1  0
 18 20  1  0
 19 18  2  0
M  END
$$$$
