VMG.pdb
     RDKit          3D

 20 19  0  0  1  0  0  0  0  0999 V2000
    7.8714  -14.0702   18.1049 C   0  0  0  0  0  0  0  0  0  0  0  0
    8.3227  -13.7353   19.4945 C   0  0  1  0  0  0  0  0  0  0  0  0
    7.2290  -12.9684   20.2384 C   0  0  0  0  0  0  0  0  0  0  0  0
    8.6689  -14.9335   20.3401 C   0  0  2  0  0  0  0  0  0  0  0  0
    7.4616  -15.7871   20.2966 N   0  0  0  0  0  0  0  0  0  0  0  0
    8.8416  -14.5622   21.7710 C   0  0  0  0  0  0  0  0  0  0  0  0
    9.9066  -13.9864   22.1938 O   0  0  0  0  0  0  0  0  0  0  0  0
    7.0437  -11.6382   28.1026 C   0  0  0  0  0  0  0  0  0  0  0  0
    7.1920  -12.1763   26.3578 S   0  0  0  0  0  0  0  0  0  0  0  0
    6.6134  -13.8718   26.1773 C   0  0  0  0  0  0  0  0  0  0  0  0
    6.6011  -14.3285   24.7481 C   0  0  0  0  0  0  0  0  0  0  0  0
    7.9903  -14.4122   24.1351 C   0  0  2  0  0  0  0  0  0  0  0  0
    7.8377  -14.8265   22.7296 N   0  0  0  0  0  0  0  0  0  0  0  0
    8.7602  -15.4511   24.8430 C   0  0  0  0  0  0  0  0  0  0  0  0
    9.0816  -15.3304   26.0640 O   0  0  0  0  0  0  0  0  0  0  0  0
    9.1978  -16.6535   24.2202 N   0  0  0  0  0  0  0  0  0  0  0  0
    9.8434  -17.7051   24.9695 C   0  0  0  0  0  0  0  0  0  0  0  0
   11.3054  -17.5139   25.0549 C   0  0  0  0  0  0  0  0  0  0  0  0
   11.9560  -17.3365   23.9760 O   0  0  0  0  0  0  0  0  0  0  0  0
   11.9635  -17.5251   26.2691 O   0  0  0  0  0  0  0  0  0  0  0  0
  2  1  1  6
  3  2  1  0
  4  2  1  0
  4  5  1  1
  6  4  1  0
  7  6  2  0
  9  8  1  0
  9 10  1  0
 10 11  1  0
 12 11  1  1
 12 13  1  0
 13  6  1  0
 14 15  2  0
 14 12  1  0
 16 14  1  0
 17 16  1  0
 17 18  1  0
 18 20  1  0
 19 18  2  0
M  END
$$$$
