VMG.pdb
     RDKit          3D

 20 19  0  0  1  0  0  0  0  0999 V2000
    7.0414  -15.1754   18.3553 C   0  0  0  0  0  0  0  0  0  0  0  0
    7.6126  -15.0613   19.7364 C   0  0  1  0  0  0  0  0  0  0  0  0
    9.1217  -15.3058   19.7096 C   0  0  0  0  0  0  0  0  0  0  0  0
    7.3988  -13.7193   20.3874 C   0  0  2  0  0  0  0  0  0  0  0  0
    8.1893  -12.7734   19.5698 N   0  0  0  0  0  0  0  0  0  0  0  0
    8.0011  -13.6684   21.7475 C   0  0  0  0  0  0  0  0  0  0  0  0
    9.1432  -13.1246   21.9586 O   0  0  0  0  0  0  0  0  0  0  0  0
    6.8474  -10.4427   27.0478 C   0  0  0  0  0  0  0  0  0  0  0  0
    6.2189  -12.1625   26.9942 S   0  0  0  0  0  0  0  0  0  0  0  0
    6.3064  -12.8059   25.3148 C   0  0  0  0  0  0  0  0  0  0  0  0
    6.9213  -14.1732   25.2517 C   0  0  0  0  0  0  0  0  0  0  0  0
    7.9984  -14.2958   24.1853 C   0  0  2  0  0  0  0  0  0  0  0  0
    7.3401  -14.2163   22.8697 N   0  0  0  0  0  0  0  0  0  0  0  0
    8.6365  -15.6194   24.3043 C   0  0  0  0  0  0  0  0  0  0  0  0
    7.9605  -16.6716   24.5155 O   0  0  0  0  0  0  0  0  0  0  0  0
   10.0415  -15.8173   24.1938 N   0  0  0  0  0  0  0  0  0  0  0  0
   10.6419  -17.1170   24.3791 C   0  0  0  0  0  0  0  0  0  0  0  0
   12.0843  -17.1166   24.0616 C   0  0  0  0  0  0  0  0  0  0  0  0
   12.6104  -16.0374   23.6404 O   0  0  0  0  0  0  0  0  0  0  0  0
   12.8555  -18.2523   24.2132 O   0  0  0  0  0  0  0  0  0  0  0  0
  2  1  1  6
  3  2  1  0
  4  2  1  0
  4  5  1  6
  6  4  1  0
  7  6  2  0
  9  8  1  0
  9 10  1  0
 10 11  1  0
 12 11  1  1
 12 13  1  0
 13  6  1  0
 14 15  2  0
 14 12  1  0
 16 14  1  0
 17 16  1  0
 17 18  1  0
 18 20  1  0
 19 18  2  0
M  END
$$$$
