QDP.pdb
     RDKit          3D

 25 25  0  0  1  0  0  0  0  0999 V2000
    8.6069  -12.2883   17.4004 N   0  0  0  0  0  0  0  0  0  0  0  0
    7.9096  -13.4368   16.9780 C   0  0  0  0  0  0  0  0  0  0  0  0
    7.5094  -13.4892   15.7875 O   0  0  0  0  0  0  0  0  0  0  0  0
    7.6513  -14.5604   17.9124 C   0  0  0  0  0  0  0  0  0  0  0  0
    8.2111  -14.2735   19.2856 C   0  0  0  0  0  0  0  0  0  0  0  0
    8.5047  -15.5422   20.0153 C   0  0  2  0  0  0  0  0  0  0  0  0
    8.2501  -16.6876   19.1955 N   0  0  0  0  0  0  0  0  0  0  0  0
    7.7686  -15.5882   21.3032 C   0  0  0  0  0  0  0  0  0  0  0  0
    6.5603  -15.8955   21.4086 O   0  0  0  0  0  0  0  0  0  0  0  0
    8.4680  -15.2614   22.5331 N   0  0  0  0  0  0  0  0  0  0  0  0
    7.8844  -15.5204   23.8125 C   0  0  1  0  0  0  0  0  0  0  0  0
    7.6162  -16.9997   23.9461 C   0  0  0  0  0  0  0  0  0  0  0  0
    7.0648  -17.2883   25.2789 C   0  0  0  0  0  0  0  0  0  0  0  0
    7.7391  -17.6816   26.2501 O   0  0  0  0  0  0  0  0  0  0  0  0
    8.6637  -15.1195   24.9940 C   0  0  0  0  0  0  0  0  0  0  0  0
    9.9168  -15.4708   24.8870 O   0  0  0  0  0  0  0  0  0  0  0  0
    5.6910  -17.1297   25.5410 O   0  0  0  0  0  0  0  0  0  0  0  0
    8.2343  -14.4515   26.1363 N   0  0  0  0  0  0  0  0  0  0  0  0
    6.8297  -14.2801   26.4649 C   0  0  0  0  0  0  0  0  0  0  0  0
    6.7877  -12.8984   27.0590 C   0  0  0  0  0  0  0  0  0  0  0  0
    8.2107  -12.5051   27.3441 C   0  0  0  0  0  0  0  0  0  0  0  0
    8.9747  -13.8421   27.1730 C   0  0  1  0  0  0  0  0  0  0  0  0
    8.8861  -14.5060   28.5002 C   0  0  0  0  0  0  0  0  0  0  0  0
    9.7276  -14.1355   29.5557 O   0  0  0  0  0  0  0  0  0  0  0  0
    8.0698  -15.4194   28.7512 O   0  0  0  0  0  0  0  0  0  0  0  0
  1  2  1  0
  2  4  1  0
  3  2  2  0
  4  5  1  0
  6  8  1  0
  6  5  1  0
  6  7  1  6
  8  9  2  0
 10 11  1  0
 10  8  1  0
 11 12  1  1
 12 13  1  0
 13 14  2  0
 13 17  1  0
 15 11  1  0
 16 15  2  0
 18 15  1  0
 18 22  1  0
 19 20  1  0
 19 18  1  0
 20 21  1  0
 21 22  1  0
 22 23  1  1
 23 24  1  0
 25 23  2  0
M  END
$$$$
