QDP.pdb
     RDKit          3D

 25 25  0  0  1  0  0  0  0  0999 V2000
    5.2880  -18.8600   19.1972 N   0  0  0  0  0  0  0  0  0  0  0  0
    6.5506  -18.9602   18.5813 C   0  0  0  0  0  0  0  0  0  0  0  0
    6.8803  -20.0597   18.0687 O   0  0  0  0  0  0  0  0  0  0  0  0
    7.4728  -17.7984   18.5361 C   0  0  0  0  0  0  0  0  0  0  0  0
    6.8183  -16.5548   19.0895 C   0  0  0  0  0  0  0  0  0  0  0  0
    7.7750  -15.7829   19.9363 C   0  0  2  0  0  0  0  0  0  0  0  0
    9.0856  -16.3573   19.9006 N   0  0  0  0  0  0  0  0  0  0  0  0
    7.2532  -15.6390   21.3182 C   0  0  0  0  0  0  0  0  0  0  0  0
    6.1258  -15.1727   21.5961 O   0  0  0  0  0  0  0  0  0  0  0  0
    8.0798  -16.0568   22.4366 N   0  0  0  0  0  0  0  0  0  0  0  0
    7.6640  -15.8470   23.7885 C   0  0  1  0  0  0  0  0  0  0  0  0
    7.6768  -17.1656   24.5228 C   0  0  0  0  0  0  0  0  0  0  0  0
    9.0591  -17.6520   24.6508 C   0  0  0  0  0  0  0  0  0  0  0  0
    9.6690  -17.7646   25.7316 O   0  0  0  0  0  0  0  0  0  0  0  0
    8.4580  -14.9039   24.5912 C   0  0  0  0  0  0  0  0  0  0  0  0
    9.6954  -14.8427   24.1790 O   0  0  0  0  0  0  0  0  0  0  0  0
    9.7981  -18.0322   23.5148 O   0  0  0  0  0  0  0  0  0  0  0  0
    8.0558  -14.1241   25.6709 N   0  0  0  0  0  0  0  0  0  0  0  0
    6.6921  -14.1190   26.1716 C   0  0  0  0  0  0  0  0  0  0  0  0
    6.4771  -12.6792   26.5517 C   0  0  0  0  0  0  0  0  0  0  0  0
    7.8316  -12.0264   26.5638 C   0  0  0  0  0  0  0  0  0  0  0  0
    8.7943  -13.2377   26.4853 C   0  0  1  0  0  0  0  0  0  0  0  0
    8.9829  -13.6688   27.8955 C   0  0  0  0  0  0  0  0  0  0  0  0
    9.8139  -12.9565   28.7682 O   0  0  0  0  0  0  0  0  0  0  0  0
    8.4215  -14.6754   28.3804 O   0  0  0  0  0  0  0  0  0  0  0  0
  1  2  1  0
  2  4  1  0
  3  2  2  0
  4  5  1  0
  6  8  1  0
  6  5  1  0
  6  7  1  1
  8  9  2  0
 10 11  1  0
 10  8  1  0
 11 12  1  1
 12 13  1  0
 13 14  2  0
 13 17  1  0
 15 11  1  0
 16 15  2  0
 18 15  1  0
 18 22  1  0
 19 20  1  0
 19 18  1  0
 20 21  1  0
 21 22  1  0
 22 23  1  1
 23 24  1  0
 25 23  2  0
M  END
$$$$
