QDP.pdb
     RDKit          3D

 25 25  0  0  1  0  0  0  0  0999 V2000
    8.9587  -12.5854   17.8575 N   0  0  0  0  0  0  0  0  0  0  0  0
    8.4414  -13.8028   17.3736 C   0  0  0  0  0  0  0  0  0  0  0  0
    8.6737  -14.1185   16.1792 O   0  0  0  0  0  0  0  0  0  0  0  0
    7.6408  -14.6943   18.2491 C   0  0  0  0  0  0  0  0  0  0  0  0
    7.5482  -14.1472   19.6538 C   0  0  0  0  0  0  0  0  0  0  0  0
    8.5056  -14.8467   20.5606 C   0  0  2  0  0  0  0  0  0  0  0  0
    8.7757  -16.1778   20.1089 N   0  0  0  0  0  0  0  0  0  0  0  0
    8.0224  -14.8078   21.9633 C   0  0  0  0  0  0  0  0  0  0  0  0
    7.5603  -13.7851   22.5166 O   0  0  0  0  0  0  0  0  0  0  0  0
    8.0772  -16.0158   22.7672 N   0  0  0  0  0  0  0  0  0  0  0  0
    7.7432  -16.0004   24.1574 C   0  0  1  0  0  0  0  0  0  0  0  0
    7.3391  -17.3898   24.5869 C   0  0  0  0  0  0  0  0  0  0  0  0
    6.3322  -17.9260   23.6583 C   0  0  0  0  0  0  0  0  0  0  0  0
    5.1362  -17.5769   23.6378 O   0  0  0  0  0  0  0  0  0  0  0  0
    8.7897  -15.5531   25.0894 C   0  0  0  0  0  0  0  0  0  0  0  0
    9.9821  -15.8761   24.6665 O   0  0  0  0  0  0  0  0  0  0  0  0
    6.6778  -18.9015   22.7043 O   0  0  0  0  0  0  0  0  0  0  0  0
    8.6512  -14.8691   26.2929 N   0  0  0  0  0  0  0  0  0  0  0  0
    7.3628  -14.4411   26.8097 C   0  0  0  0  0  0  0  0  0  0  0  0
    7.6748  -13.1080   27.4337 C   0  0  0  0  0  0  0  0  0  0  0  0
    9.1722  -13.0159   27.5348 C   0  0  0  0  0  0  0  0  0  0  0  0
    9.6240  -14.4671   27.2345 C   0  0  1  0  0  0  0  0  0  0  0  0
    9.5723  -15.1634   28.5470 C   0  0  0  0  0  0  0  0  0  0  0  0
   10.5623  -14.9620   29.5159 O   0  0  0  0  0  0  0  0  0  0  0  0
    8.6585  -15.9571   28.8609 O   0  0  0  0  0  0  0  0  0  0  0  0
  1  2  1  0
  2  4  1  0
  3  2  2  0
  4  5  1  0
  6  8  1  0
  6  5  1  0
  6  7  1  6
  8  9  2  0
 10 11  1  0
 10  8  1  0
 11 12  1  1
 12 13  1  0
 13 14  2  0
 13 17  1  0
 15 11  1  0
 16 15  2  0
 18 15  1  0
 18 22  1  0
 19 20  1  0
 19 18  1  0
 20 21  1  0
 21 22  1  0
 22 23  1  1
 23 24  1  0
 25 23  2  0
M  END
$$$$
