QDP.pdb
     RDKit          3D

 25 25  0  0  1  0  0  0  0  0999 V2000
    2.0616  -20.3539   21.7574 N   0  0  0  0  0  0  0  0  0  0  0  0
    3.0476  -20.6438   20.7944 C   0  0  0  0  0  0  0  0  0  0  0  0
    2.7556  -21.4292   19.8573 O   0  0  0  0  0  0  0  0  0  0  0  0
    4.4000  -20.0388   20.8799 C   0  0  0  0  0  0  0  0  0  0  0  0
    4.5044  -19.0883   22.0490 C   0  0  0  0  0  0  0  0  0  0  0  0
    5.2798  -17.8689   21.6747 C   0  0  2  0  0  0  0  0  0  0  0  0
    5.9439  -18.0372   20.4179 N   0  0  0  0  0  0  0  0  0  0  0  0
    6.2112  -17.4852   22.7646 C   0  0  0  0  0  0  0  0  0  0  0  0
    5.8678  -17.3337   23.9583 O   0  0  0  0  0  0  0  0  0  0  0  0
    7.6131  -17.2654   22.4564 N   0  0  0  0  0  0  0  0  0  0  0  0
    8.5243  -16.7762   23.4438 C   0  0  1  0  0  0  0  0  0  0  0  0
    9.9384  -16.9563   22.9478 C   0  0  0  0  0  0  0  0  0  0  0  0
   10.8892  -16.5250   23.9840 C   0  0  0  0  0  0  0  0  0  0  0  0
   10.7341  -16.7155   25.2056 O   0  0  0  0  0  0  0  0  0  0  0  0
    8.3864  -15.3654   23.8371 C   0  0  0  0  0  0  0  0  0  0  0  0
    8.7603  -14.5593   22.8804 O   0  0  0  0  0  0  0  0  0  0  0  0
   12.0734  -15.8469   23.6390 O   0  0  0  0  0  0  0  0  0  0  0  0
    7.9311  -14.8362   25.0405 N   0  0  0  0  0  0  0  0  0  0  0  0
    7.3911  -15.6611   26.1074 C   0  0  0  0  0  0  0  0  0  0  0  0
    6.2770  -14.8137   26.6590 C   0  0  0  0  0  0  0  0  0  0  0  0
    6.4688  -13.4295   26.1040 C   0  0  0  0  0  0  0  0  0  0  0  0
    7.8923  -13.5001   25.4965 C   0  0  1  0  0  0  0  0  0  0  0  0
    8.8062  -13.1808   26.6247 C   0  0  0  0  0  0  0  0  0  0  0  0
    8.9950  -11.8626   27.0562 O   0  0  0  0  0  0  0  0  0  0  0  0
    9.4508  -14.0534   27.2464 O   0  0  0  0  0  0  0  0  0  0  0  0
  1  2  1  0
  2  4  1  0
  3  2  2  0
  4  5  1  0
  6  8  1  0
  6  5  1  0
  6  7  1  6
  8  9  2  0
 10 11  1  0
 10  8  1  0
 11 12  1  6
 12 13  1  0
 13 14  2  0
 13 17  1  0
 15 11  1  0
 16 15  2  0
 18 15  1  0
 18 22  1  0
 19 20  1  0
 19 18  1  0
 20 21  1  0
 21 22  1  0
 22 23  1  1
 23 24  1  0
 25 23  2  0
M  END
$$$$
