QDP.pdb
     RDKit          3D

 25 25  0  0  1  0  0  0  0  0999 V2000
    9.8253  -13.3319   17.1923 N   0  0  0  0  0  0  0  0  0  0  0  0
    8.5608  -13.9005   17.4399 C   0  0  0  0  0  0  0  0  0  0  0  0
    8.2722  -14.9858   16.8750 O   0  0  0  0  0  0  0  0  0  0  0  0
    7.5893  -13.2377   18.3450 C   0  0  0  0  0  0  0  0  0  0  0  0
    7.9199  -13.5017   19.7949 C   0  0  0  0  0  0  0  0  0  0  0  0
    7.7744  -14.9518   20.1175 C   0  0  2  0  0  0  0  0  0  0  0  0
    6.9389  -15.6179   19.1650 N   0  0  0  0  0  0  0  0  0  0  0  0
    7.3041  -15.1334   21.5134 C   0  0  0  0  0  0  0  0  0  0  0  0
    6.1521  -14.8448   21.9074 O   0  0  0  0  0  0  0  0  0  0  0  0
    8.2152  -15.6774   22.5047 N   0  0  0  0  0  0  0  0  0  0  0  0
    7.8089  -15.8711   23.8619 C   0  0  1  0  0  0  0  0  0  0  0  0
    7.9171  -17.3361   24.2088 C   0  0  0  0  0  0  0  0  0  0  0  0
    7.4990  -17.5509   25.6026 C   0  0  0  0  0  0  0  0  0  0  0  0
    6.3156  -17.5396   25.9927 O   0  0  0  0  0  0  0  0  0  0  0  0
    8.5543  -15.1323   24.8927 C   0  0  0  0  0  0  0  0  0  0  0  0
    9.8387  -15.1405   24.6579 O   0  0  0  0  0  0  0  0  0  0  0  0
    8.4500  -17.7907   26.6122 O   0  0  0  0  0  0  0  0  0  0  0  0
    8.0670  -14.4713   26.0157 N   0  0  0  0  0  0  0  0  0  0  0  0
    6.6531  -14.4204   26.3456 C   0  0  0  0  0  0  0  0  0  0  0  0
    6.4846  -13.0306   26.8966 C   0  0  0  0  0  0  0  0  0  0  0  0
    7.8655  -12.4985   27.1626 C   0  0  0  0  0  0  0  0  0  0  0  0
    8.7497  -13.7638   27.0294 C   0  0  1  0  0  0  0  0  0  0  0  0
    8.7255  -14.3911   28.3771 C   0  0  0  0  0  0  0  0  0  0  0  0
    8.0167  -15.5746   28.6150 O   0  0  0  0  0  0  0  0  0  0  0  0
    9.3255  -13.9096   29.3628 O   0  0  0  0  0  0  0  0  0  0  0  0
  1  2  1  0
  2  4  1  0
  3  2  2  0
  4  5  1  0
  6  8  1  0
  6  5  1  0
  6  7  1  6
  8  9  2  0
 10 11  1  0
 10  8  1  0
 11 12  1  1
 12 13  1  0
 13 14  2  0
 13 17  1  0
 15 11  1  0
 16 15  2  0
 18 15  1  0
 18 22  1  0
 19 20  1  0
 19 18  1  0
 20 21  1  0
 21 22  1  0
 22 23  1  1
 23 24  1  0
 25 23  2  0
M  END
$$$$
