QDP.pdb
     RDKit          3D

 25 25  0  0  1  0  0  0  0  0999 V2000
    9.1980  -12.6697   17.7684 N   0  0  0  0  0  0  0  0  0  0  0  0
    8.3670  -13.6931   17.2725 C   0  0  0  0  0  0  0  0  0  0  0  0
    8.5713  -14.1171   16.1069 O   0  0  0  0  0  0  0  0  0  0  0  0
    7.2754  -14.2601   18.1027 C   0  0  0  0  0  0  0  0  0  0  0  0
    7.2407  -13.6263   19.4732 C   0  0  0  0  0  0  0  0  0  0  0  0
    8.2222  -14.2822   20.3868 C   0  0  2  0  0  0  0  0  0  0  0  0
    8.7669  -15.4701   19.8028 N   0  0  0  0  0  0  0  0  0  0  0  0
    7.6150  -14.5285   21.7184 C   0  0  0  0  0  0  0  0  0  0  0  0
    6.8389  -13.7322   22.2923 O   0  0  0  0  0  0  0  0  0  0  0  0
    7.9223  -15.7609   22.4222 N   0  0  0  0  0  0  0  0  0  0  0  0
    7.5415  -15.9533   23.7870 C   0  0  1  0  0  0  0  0  0  0  0  0
    7.5473  -17.4295   24.1013 C   0  0  0  0  0  0  0  0  0  0  0  0
    7.1512  -17.6430   25.5017 C   0  0  0  0  0  0  0  0  0  0  0  0
    6.1412  -17.1421   26.0322 O   0  0  0  0  0  0  0  0  0  0  0  0
    8.3706  -15.2961   24.8091 C   0  0  0  0  0  0  0  0  0  0  0  0
    9.6447  -15.4377   24.5607 O   0  0  0  0  0  0  0  0  0  0  0  0
    7.9217  -18.4571   26.3531 O   0  0  0  0  0  0  0  0  0  0  0  0
    7.9667  -14.5885   25.9368 N   0  0  0  0  0  0  0  0  0  0  0  0
    6.5787  -14.5067   26.3576 C   0  0  0  0  0  0  0  0  0  0  0  0
    6.4625  -13.0957   26.8668 C   0  0  0  0  0  0  0  0  0  0  0  0
    7.8639  -12.5729   27.0207 C   0  0  0  0  0  0  0  0  0  0  0  0
    8.7233  -13.8539   26.8761 C   0  0  1  0  0  0  0  0  0  0  0  0
    8.7822  -14.4317   28.2447 C   0  0  0  0  0  0  0  0  0  0  0  0
    8.1186  -15.6234   28.5595 O   0  0  0  0  0  0  0  0  0  0  0  0
    9.4162  -13.8991   29.1816 O   0  0  0  0  0  0  0  0  0  0  0  0
  1  2  1  0
  2  4  1  0
  3  2  2  0
  4  5  1  0
  6  8  1  0
  6  5  1  0
  6  7  1  6
  8  9  2  0
 10 11  1  0
 10  8  1  0
 11 12  1  1
 12 13  1  0
 13 14  2  0
 13 17  1  0
 15 11  1  0
 16 15  2  0
 18 15  1  0
 18 22  1  0
 19 20  1  0
 19 18  1  0
 20 21  1  0
 21 22  1  0
 22 23  1  1
 23 24  1  0
 25 23  2  0
M  END
$$$$
