QDP.pdb
     RDKit          3D

 25 25  0  0  1  0  0  0  0  0999 V2000
   10.2760  -13.1647   18.8891 N   0  0  0  0  0  0  0  0  0  0  0  0
    9.0734  -13.5256   18.2509 C   0  0  0  0  0  0  0  0  0  0  0  0
    9.1375  -14.1991   17.1915 O   0  0  0  0  0  0  0  0  0  0  0  0
    7.7601  -13.1226   18.8122 C   0  0  0  0  0  0  0  0  0  0  0  0
    7.7530  -13.2194   20.3194 C   0  0  0  0  0  0  0  0  0  0  0  0
    8.1081  -14.5991   20.7649 C   0  0  2  0  0  0  0  0  0  0  0  0
    7.5631  -15.5886   19.8858 N   0  0  0  0  0  0  0  0  0  0  0  0
    7.7105  -14.8118   22.1789 C   0  0  0  0  0  0  0  0  0  0  0  0
    6.9385  -14.0562   22.8104 O   0  0  0  0  0  0  0  0  0  0  0  0
    8.2339  -15.9589   22.8990 N   0  0  0  0  0  0  0  0  0  0  0  0
    7.9446  -16.1633   24.2843 C   0  0  1  0  0  0  0  0  0  0  0  0
    7.6223  -17.6196   24.5152 C   0  0  0  0  0  0  0  0  0  0  0  0
    7.2339  -17.8283   25.9186 C   0  0  0  0  0  0  0  0  0  0  0  0
    7.1572  -16.9221   26.7704 O   0  0  0  0  0  0  0  0  0  0  0  0
    8.9979  -15.8017   25.2455 C   0  0  0  0  0  0  0  0  0  0  0  0
   10.1821  -16.1428   24.8141 O   0  0  0  0  0  0  0  0  0  0  0  0
    6.9149  -19.1136   26.3952 O   0  0  0  0  0  0  0  0  0  0  0  0
    8.8726  -15.1776   26.4826 N   0  0  0  0  0  0  0  0  0  0  0  0
    7.5857  -14.9151   27.1035 C   0  0  0  0  0  0  0  0  0  0  0  0
    7.7932  -13.5765   27.7583 C   0  0  0  0  0  0  0  0  0  0  0  0
    9.2746  -13.3191   27.7602 C   0  0  0  0  0  0  0  0  0  0  0  0
    9.8609  -14.6993   27.3708 C   0  0  1  0  0  0  0  0  0  0  0  0
    9.9820  -15.4396   28.6543 C   0  0  0  0  0  0  0  0  0  0  0  0
   10.9540  -15.0972   29.6017 O   0  0  0  0  0  0  0  0  0  0  0  0
    9.2371  -16.3958   28.9614 O   0  0  0  0  0  0  0  0  0  0  0  0
  1  2  1  0
  2  4  1  0
  3  2  2  0
  4  5  1  0
  6  8  1  0
  6  5  1  0
  6  7  1  6
  8  9  2  0
 10 11  1  0
 10  8  1  0
 11 12  1  6
 12 13  1  0
 13 14  2  0
 13 17  1  0
 15 11  1  0
 16 15  2  0
 18 15  1  0
 18 22  1  0
 19 20  1  0
 19 18  1  0
 20 21  1  0
 21 22  1  0
 22 23  1  1
 23 24  1  0
 25 23  2  0
M  END
$$$$
