QDP.pdb
     RDKit          3D

 25 25  0  0  1  0  0  0  0  0999 V2000
    8.7158  -12.4157   17.2768 N   0  0  0  0  0  0  0  0  0  0  0  0
    8.2159  -13.7062   17.0153 C   0  0  0  0  0  0  0  0  0  0  0  0
    8.2662  -14.1392   15.8362 O   0  0  0  0  0  0  0  0  0  0  0  0
    7.6428  -14.5381   18.1024 C   0  0  0  0  0  0  0  0  0  0  0  0
    7.6730  -13.8108   19.4257 C   0  0  0  0  0  0  0  0  0  0  0  0
    8.5264  -14.5372   20.4117 C   0  0  2  0  0  0  0  0  0  0  0  0
    8.8610  -15.8490   19.9470 N   0  0  0  0  0  0  0  0  0  0  0  0
    7.8837  -14.5532   21.7494 C   0  0  0  0  0  0  0  0  0  0  0  0
    7.3063  -13.5679   22.2607 O   0  0  0  0  0  0  0  0  0  0  0  0
    7.9110  -15.7735   22.5360 N   0  0  0  0  0  0  0  0  0  0  0  0
    7.4685  -15.7926   23.8955 C   0  0  1  0  0  0  0  0  0  0  0  0
    7.2945  -17.2240   24.3415 C   0  0  0  0  0  0  0  0  0  0  0  0
    6.1076  -17.8067   23.6969 C   0  0  0  0  0  0  0  0  0  0  0  0
    5.1644  -17.1425   23.2259 O   0  0  0  0  0  0  0  0  0  0  0  0
    8.3356  -15.1389   24.8878 C   0  0  0  0  0  0  0  0  0  0  0  0
    9.5928  -15.1924   24.5393 O   0  0  0  0  0  0  0  0  0  0  0  0
    5.9664  -19.2015   23.5716 O   0  0  0  0  0  0  0  0  0  0  0  0
    7.9805  -14.5129   26.0784 N   0  0  0  0  0  0  0  0  0  0  0  0
    6.6163  -14.4891   26.5772 C   0  0  0  0  0  0  0  0  0  0  0  0
    6.5011  -13.1159   27.1811 C   0  0  0  0  0  0  0  0  0  0  0  0
    7.8985  -12.5723   27.2931 C   0  0  0  0  0  0  0  0  0  0  0  0
    8.7731  -13.8219   27.0211 C   0  0  1  0  0  0  0  0  0  0  0  0
    8.9180  -14.4831   28.3448 C   0  0  0  0  0  0  0  0  0  0  0  0
    9.8055  -13.9917   29.3093 O   0  0  0  0  0  0  0  0  0  0  0  0
    8.2682  -15.5000   28.6723 O   0  0  0  0  0  0  0  0  0  0  0  0
  1  2  1  0
  2  4  1  0
  3  2  2  0
  4  5  1  0
  6  8  1  0
  6  5  1  0
  6  7  1  6
  8  9  2  0
 10 11  1  0
 10  8  1  0
 11 12  1  1
 12 13  1  0
 13 14  2  0
 13 17  1  0
 15 11  1  0
 16 15  2  0
 18 15  1  0
 18 22  1  0
 19 20  1  0
 19 18  1  0
 20 21  1  0
 21 22  1  0
 22 23  1  1
 23 24  1  0
 25 23  2  0
M  END
$$$$
