QDP.pdb
     RDKit          3D

 25 25  0  0  1  0  0  0  0  0999 V2000
    9.2288  -12.2093   18.6916 N   0  0  0  0  0  0  0  0  0  0  0  0
    8.6436  -13.3629   18.1344 C   0  0  0  0  0  0  0  0  0  0  0  0
    9.2848  -13.9941   17.2565 O   0  0  0  0  0  0  0  0  0  0  0  0
    7.3027  -13.8257   18.5702 C   0  0  0  0  0  0  0  0  0  0  0  0
    7.1572  -13.7536   20.0718 C   0  0  0  0  0  0  0  0  0  0  0  0
    8.1860  -14.5988   20.7465 C   0  0  2  0  0  0  0  0  0  0  0  0
    8.3302  -15.8656   20.0960 N   0  0  0  0  0  0  0  0  0  0  0  0
    7.8873  -14.7322   22.1941 C   0  0  0  0  0  0  0  0  0  0  0  0
    7.4293  -13.8081   22.9027 O   0  0  0  0  0  0  0  0  0  0  0  0
    8.1316  -16.0015   22.8558 N   0  0  0  0  0  0  0  0  0  0  0  0
    7.9307  -16.1581   24.2628 C   0  0  1  0  0  0  0  0  0  0  0  0
    7.6059  -17.6016   24.5609 C   0  0  0  0  0  0  0  0  0  0  0  0
    6.2390  -17.9083   24.1122 C   0  0  0  0  0  0  0  0  0  0  0  0
    5.3761  -17.0501   23.8450 O   0  0  0  0  0  0  0  0  0  0  0  0
    9.0488  -15.7820   25.1416 C   0  0  0  0  0  0  0  0  0  0  0  0
   10.2038  -16.0193   24.5807 O   0  0  0  0  0  0  0  0  0  0  0  0
    5.8138  -19.2407   23.9535 O   0  0  0  0  0  0  0  0  0  0  0  0
    9.0072  -15.2379   26.4213 N   0  0  0  0  0  0  0  0  0  0  0  0
    7.7680  -15.0527   27.1565 C   0  0  0  0  0  0  0  0  0  0  0  0
    7.9931  -13.7504   27.8756 C   0  0  0  0  0  0  0  0  0  0  0  0
    9.4628  -13.4486   27.7774 C   0  0  0  0  0  0  0  0  0  0  0  0
   10.0510  -14.7843   27.2575 C   0  0  1  0  0  0  0  0  0  0  0  0
   10.2935  -15.5968   28.4787 C   0  0  0  0  0  0  0  0  0  0  0  0
    9.5378  -16.7433   28.7505 O   0  0  0  0  0  0  0  0  0  0  0  0
   11.1709  -15.3117   29.3226 O   0  0  0  0  0  0  0  0  0  0  0  0
  1  2  1  0
  2  4  1  0
  3  2  2  0
  4  5  1  0
  6  8  1  0
  6  5  1  0
  6  7  1  6
  8  9  2  0
 10 11  1  0
 10  8  1  0
 11 12  1  6
 12 13  1  0
 13 14  2  0
 13 17  1  0
 15 11  1  0
 16 15  2  0
 18 15  1  0
 18 22  1  0
 19 20  1  0
 19 18  1  0
 20 21  1  0
 21 22  1  0
 22 23  1  1
 23 24  1  0
 25 23  2  0
M  END
$$$$
