QDP.pdb
     RDKit          3D

 25 25  0  0  1  0  0  0  0  0999 V2000
    8.8970  -12.6245   17.9058 N   0  0  0  0  0  0  0  0  0  0  0  0
    8.0095  -13.7034   17.7266 C   0  0  0  0  0  0  0  0  0  0  0  0
    7.8154  -14.1306   16.5604 O   0  0  0  0  0  0  0  0  0  0  0  0
    7.3180  -14.3239   18.8838 C   0  0  0  0  0  0  0  0  0  0  0  0
    7.6062  -13.5747   20.1631 C   0  0  0  0  0  0  0  0  0  0  0  0
    8.6601  -14.2695   20.9598 C   0  0  2  0  0  0  0  0  0  0  0  0
    9.0559  -15.4991   20.3432 N   0  0  0  0  0  0  0  0  0  0  0  0
    8.2191  -14.4527   22.3651 C   0  0  0  0  0  0  0  0  0  0  0  0
    7.5989  -13.5875   23.0228 O   0  0  0  0  0  0  0  0  0  0  0  0
    8.5115  -15.7025   23.0441 N   0  0  0  0  0  0  0  0  0  0  0  0
    8.2740  -15.8616   24.4450 C   0  0  1  0  0  0  0  0  0  0  0  0
    7.6471  -17.2121   24.6927 C   0  0  0  0  0  0  0  0  0  0  0  0
    6.3671  -17.3073   23.9741 C   0  0  0  0  0  0  0  0  0  0  0  0
    5.3100  -16.7603   24.3428 O   0  0  0  0  0  0  0  0  0  0  0  0
    9.4417  -15.7637   25.3343 C   0  0  0  0  0  0  0  0  0  0  0  0
   10.5269  -16.2016   24.7552 O   0  0  0  0  0  0  0  0  0  0  0  0
    6.2618  -18.0506   22.7835 O   0  0  0  0  0  0  0  0  0  0  0  0
    9.5061  -15.2866   26.6396 N   0  0  0  0  0  0  0  0  0  0  0  0
    8.3471  -14.7662   27.3441 C   0  0  0  0  0  0  0  0  0  0  0  0
    8.9194  -13.6244   28.1393 C   0  0  0  0  0  0  0  0  0  0  0  0
   10.4148  -13.7775   28.1041 C   0  0  0  0  0  0  0  0  0  0  0  0
   10.5979  -15.2055   27.5317 C   0  0  1  0  0  0  0  0  0  0  0  0
   10.5278  -16.1037   28.7143 C   0  0  0  0  0  0  0  0  0  0  0  0
    9.4414  -16.9646   28.9096 O   0  0  0  0  0  0  0  0  0  0  0  0
   11.4182  -16.1451   29.5912 O   0  0  0  0  0  0  0  0  0  0  0  0
  1  2  1  0
  2  4  1  0
  3  2  2  0
  4  5  1  0
  6  8  1  0
  6  5  1  0
  6  7  1  6
  8  9  2  0
 10 11  1  0
 10  8  1  0
 11 12  1  6
 12 13  1  0
 13 14  2  0
 13 17  1  0
 15 11  1  0
 16 15  2  0
 18 15  1  0
 18 22  1  0
 19 20  1  0
 19 18  1  0
 20 21  1  0
 21 22  1  0
 22 23  1  1
 23 24  1  0
 25 23  2  0
M  END
$$$$
