QDP.pdb
     RDKit          3D

 25 25  0  0  1  0  0  0  0  0999 V2000
    6.9504  -14.4618   16.4466 N   0  0  0  0  0  0  0  0  0  0  0  0
    8.1418  -14.2104   17.1545 C   0  0  0  0  0  0  0  0  0  0  0  0
    9.0961  -15.0184   17.0248 O   0  0  0  0  0  0  0  0  0  0  0  0
    8.2718  -13.0217   18.0333 C   0  0  0  0  0  0  0  0  0  0  0  0
    7.6167  -13.2546   19.3741 C   0  0  0  0  0  0  0  0  0  0  0  0
    8.5967  -13.8067   20.3554 C   0  0  2  0  0  0  0  0  0  0  0  0
    9.2517  -14.9710   19.8414 N   0  0  0  0  0  0  0  0  0  0  0  0
    7.9446  -14.0513   21.6660 C   0  0  0  0  0  0  0  0  0  0  0  0
    7.3427  -13.1732   22.3234 O   0  0  0  0  0  0  0  0  0  0  0  0
    7.9918  -15.3820   22.2454 N   0  0  0  0  0  0  0  0  0  0  0  0
    7.5255  -15.6322   23.5737 C   0  0  1  0  0  0  0  0  0  0  0  0
    7.3015  -17.1143   23.7509 C   0  0  0  0  0  0  0  0  0  0  0  0
    6.7911  -17.3835   25.1040 C   0  0  0  0  0  0  0  0  0  0  0  0
    6.6253  -16.5133   25.9803 O   0  0  0  0  0  0  0  0  0  0  0  0
    8.3943  -15.1969   24.6781 C   0  0  0  0  0  0  0  0  0  0  0  0
    9.6354  -15.5535   24.4846 O   0  0  0  0  0  0  0  0  0  0  0  0
    6.4483  -18.6903   25.4989 O   0  0  0  0  0  0  0  0  0  0  0  0
    8.0548  -14.4935   25.8294 N   0  0  0  0  0  0  0  0  0  0  0  0
    6.6825  -14.1609   26.1710 C   0  0  0  0  0  0  0  0  0  0  0  0
    6.8081  -12.7894   26.7769 C   0  0  0  0  0  0  0  0  0  0  0  0
    8.2695  -12.5692   27.0536 C   0  0  0  0  0  0  0  0  0  0  0  0
    8.8692  -13.9852   26.8651 C   0  0  1  0  0  0  0  0  0  0  0  0
    8.7124  -14.6464   28.1874 C   0  0  0  0  0  0  0  0  0  0  0  0
    9.5188  -14.2943   29.2761 O   0  0  0  0  0  0  0  0  0  0  0  0
    7.8665  -15.5412   28.4049 O   0  0  0  0  0  0  0  0  0  0  0  0
  1  2  1  0
  2  4  1  0
  3  2  2  0
  4  5  1  0
  6  8  1  0
  6  5  1  0
  6  7  1  6
  8  9  2  0
 10 11  1  0
 10  8  1  0
 11 12  1  6
 12 13  1  0
 13 14  2  0
 13 17  1  0
 15 11  1  0
 16 15  2  0
 18 15  1  0
 18 22  1  0
 19 20  1  0
 19 18  1  0
 20 21  1  0
 21 22  1  0
 22 23  1  1
 23 24  1  0
 25 23  2  0
M  END
$$$$
