QDP.pdb
     RDKit          3D

 25 25  0  0  1  0  0  0  0  0999 V2000
    8.9011  -13.9431   16.4707 N   0  0  0  0  0  0  0  0  0  0  0  0
    7.6687  -14.3696   17.0027 C   0  0  0  0  0  0  0  0  0  0  0  0
    6.9555  -15.1423   16.3139 O   0  0  0  0  0  0  0  0  0  0  0  0
    7.2190  -13.9200   18.3436 C   0  0  0  0  0  0  0  0  0  0  0  0
    8.2116  -12.9667   18.9656 C   0  0  0  0  0  0  0  0  0  0  0  0
    9.0746  -13.6718   19.9588 C   0  0  2  0  0  0  0  0  0  0  0  0
    9.6107  -14.8839   19.4180 N   0  0  0  0  0  0  0  0  0  0  0  0
    8.3398  -13.8905   21.2295 C   0  0  0  0  0  0  0  0  0  0  0  0
    7.7186  -12.9939   21.8425 O   0  0  0  0  0  0  0  0  0  0  0  0
    8.3235  -15.2165   21.8213 N   0  0  0  0  0  0  0  0  0  0  0  0
    7.7687  -15.4454   23.1191 C   0  0  1  0  0  0  0  0  0  0  0  0
    7.6251  -16.9310   23.3433 C   0  0  0  0  0  0  0  0  0  0  0  0
    6.9636  -17.1793   24.6335 C   0  0  0  0  0  0  0  0  0  0  0  0
    7.5649  -17.3793   25.7064 O   0  0  0  0  0  0  0  0  0  0  0  0
    8.5168  -14.9108   24.2675 C   0  0  0  0  0  0  0  0  0  0  0  0
    9.8057  -15.0467   24.1087 O   0  0  0  0  0  0  0  0  0  0  0  0
    5.5597  -17.2055   24.7311 O   0  0  0  0  0  0  0  0  0  0  0  0
    8.0277  -14.3170   25.4266 N   0  0  0  0  0  0  0  0  0  0  0  0
    6.6078  -14.1604   25.6904 C   0  0  0  0  0  0  0  0  0  0  0  0
    6.5362  -12.8204   26.3709 C   0  0  0  0  0  0  0  0  0  0  0  0
    7.9424  -12.4538   26.7568 C   0  0  0  0  0  0  0  0  0  0  0  0
    8.7124  -13.7805   26.5392 C   0  0  1  0  0  0  0  0  0  0  0  0
    8.5518  -14.5295   27.8133 C   0  0  0  0  0  0  0  0  0  0  0  0
    7.7845  -15.6986   27.8772 O   0  0  0  0  0  0  0  0  0  0  0  0
    9.0822  -14.1685   28.8866 O   0  0  0  0  0  0  0  0  0  0  0  0
  1  2  1  0
  2  4  1  0
  3  2  2  0
  4  5  1  0
  6  8  1  0
  6  5  1  0
  6  7  1  6
  8  9  2  0
 10 11  1  0
 10  8  1  0
 11 12  1  1
 12 13  1  0
 13 14  2  0
 13 17  1  0
 15 11  1  0
 16 15  2  0
 18 15  1  0
 18 22  1  0
 19 20  1  0
 19 18  1  0
 20 21  1  0
 21 22  1  0
 22 23  1  1
 23 24  1  0
 25 23  2  0
M  END
$$$$
