QDP.pdb
     RDKit          3D

 25 25  0  0  1  0  0  0  0  0999 V2000
    9.6881  -12.8582   17.5180 N   0  0  0  0  0  0  0  0  0  0  0  0
    8.3665  -13.3320   17.6302 C   0  0  0  0  0  0  0  0  0  0  0  0
    7.9687  -14.1947   16.8070 O   0  0  0  0  0  0  0  0  0  0  0  0
    7.4620  -12.8279   18.6932 C   0  0  0  0  0  0  0  0  0  0  0  0
    6.8934  -13.9607   19.5145 C   0  0  0  0  0  0  0  0  0  0  0  0
    7.9677  -14.6423   20.2951 C   0  0  2  0  0  0  0  0  0  0  0  0
    8.5081  -15.7568   19.5777 N   0  0  0  0  0  0  0  0  0  0  0  0
    7.4773  -15.0170   21.6449 C   0  0  0  0  0  0  0  0  0  0  0  0
    6.2738  -15.2187   21.9216 O   0  0  0  0  0  0  0  0  0  0  0  0
    8.4299  -15.1657   22.7307 N   0  0  0  0  0  0  0  0  0  0  0  0
    8.0300  -15.6692   24.0078 C   0  0  1  0  0  0  0  0  0  0  0  0
    7.9252  -17.1733   23.9384 C   0  0  0  0  0  0  0  0  0  0  0  0
    7.6022  -17.7128   25.2682 C   0  0  0  0  0  0  0  0  0  0  0  0
    8.4029  -18.3413   25.9869 O   0  0  0  0  0  0  0  0  0  0  0  0
    8.9008  -15.3544   25.1508 C   0  0  0  0  0  0  0  0  0  0  0  0
   10.1460  -15.6634   24.9078 O   0  0  0  0  0  0  0  0  0  0  0  0
    6.3203  -17.5421   25.8240 O   0  0  0  0  0  0  0  0  0  0  0  0
    8.5595  -14.8004   26.3805 N   0  0  0  0  0  0  0  0  0  0  0  0
    7.1845  -14.6792   26.8332 C   0  0  0  0  0  0  0  0  0  0  0  0
    7.1813  -13.3588   27.5545 C   0  0  0  0  0  0  0  0  0  0  0  0
    8.6199  -12.9740   27.7620 C   0  0  0  0  0  0  0  0  0  0  0  0
    9.3763  -14.2789   27.4078 C   0  0  1  0  0  0  0  0  0  0  0  0
    9.3979  -15.0634   28.6705 C   0  0  0  0  0  0  0  0  0  0  0  0
   10.2517  -14.7195   29.7251 O   0  0  0  0  0  0  0  0  0  0  0  0
    8.6685  -16.0602   28.8649 O   0  0  0  0  0  0  0  0  0  0  0  0
  1  2  1  0
  2  4  1  0
  3  2  2  0
  4  5  1  0
  6  8  1  0
  6  5  1  0
  6  7  1  6
  8  9  2  0
 10 11  1  0
 10  8  1  0
 11 12  1  6
 12 13  1  0
 13 14  2  0
 13 17  1  0
 15 11  1  0
 16 15  2  0
 18 15  1  0
 18 22  1  0
 19 20  1  0
 19 18  1  0
 20 21  1  0
 21 22  1  0
 22 23  1  1
 23 24  1  0
 25 23  2  0
M  END
$$$$
