QDP.pdb
     RDKit          3D

 25 25  0  0  1  0  0  0  0  0999 V2000
    8.0280  -12.3784   17.4847 N   0  0  0  0  0  0  0  0  0  0  0  0
    7.8217  -13.7299   17.1461 C   0  0  0  0  0  0  0  0  0  0  0  0
    7.9147  -14.0646   15.9380 O   0  0  0  0  0  0  0  0  0  0  0  0
    7.5021  -14.7379   18.1873 C   0  0  0  0  0  0  0  0  0  0  0  0
    7.4635  -14.1148   19.5626 C   0  0  0  0  0  0  0  0  0  0  0  0
    8.3950  -14.8200   20.4917 C   0  0  2  0  0  0  0  0  0  0  0  0
    8.6117  -16.1753   20.0854 N   0  0  0  0  0  0  0  0  0  0  0  0
    7.9169  -14.7146   21.8928 C   0  0  0  0  0  0  0  0  0  0  0  0
    7.5500  -13.6451   22.4289 O   0  0  0  0  0  0  0  0  0  0  0  0
    7.8609  -15.9095   22.7160 N   0  0  0  0  0  0  0  0  0  0  0  0
    7.5317  -15.8409   24.1058 C   0  0  1  0  0  0  0  0  0  0  0  0
    7.3144  -17.2378   24.6346 C   0  0  0  0  0  0  0  0  0  0  0  0
    6.2430  -17.8984   23.8735 C   0  0  0  0  0  0  0  0  0  0  0  0
    5.0454  -17.5552   23.9001 O   0  0  0  0  0  0  0  0  0  0  0  0
    8.5133  -15.1969   24.9922 C   0  0  0  0  0  0  0  0  0  0  0  0
    9.7316  -15.3344   24.5432 O   0  0  0  0  0  0  0  0  0  0  0  0
    6.5225  -18.9978   23.0402 O   0  0  0  0  0  0  0  0  0  0  0  0
    8.2941  -14.5046   26.1789 N   0  0  0  0  0  0  0  0  0  0  0  0
    6.9829  -14.3960   26.7946 C   0  0  0  0  0  0  0  0  0  0  0  0
    6.9812  -12.9942   27.3413 C   0  0  0  0  0  0  0  0  0  0  0  0
    8.4049  -12.5120   27.3037 C   0  0  0  0  0  0  0  0  0  0  0  0
    9.1974  -13.8114   27.0144 C   0  0  1  0  0  0  0  0  0  0  0  0
    9.4331  -14.4212   28.3496 C   0  0  0  0  0  0  0  0  0  0  0  0
    8.8171  -15.6229   28.7185 O   0  0  0  0  0  0  0  0  0  0  0  0
   10.1820  -13.9082   29.2095 O   0  0  0  0  0  0  0  0  0  0  0  0
  1  2  1  0
  2  4  1  0
  3  2  2  0
  4  5  1  0
  6  8  1  0
  6  5  1  0
  6  7  1  6
  8  9  2  0
 10 11  1  0
 10  8  1  0
 11 12  1  1
 12 13  1  0
 13 14  2  0
 13 17  1  0
 15 11  1  0
 16 15  2  0
 18 15  1  0
 18 22  1  0
 19 20  1  0
 19 18  1  0
 20 21  1  0
 21 22  1  0
 22 23  1  1
 23 24  1  0
 25 23  2  0
M  END
$$$$
