QDP.pdb
     RDKit          3D

 25 25  0  0  1  0  0  0  0  0999 V2000
    8.6479  -12.3248   17.3984 N   0  0  0  0  0  0  0  0  0  0  0  0
    7.8481  -13.4668   17.1989 C   0  0  0  0  0  0  0  0  0  0  0  0
    7.0295  -13.4643   16.2449 O   0  0  0  0  0  0  0  0  0  0  0  0
    7.9656  -14.6468   18.0911 C   0  0  0  0  0  0  0  0  0  0  0  0
    8.9971  -14.4196   19.1707 C   0  0  0  0  0  0  0  0  0  0  0  0
    9.1832  -15.6500   19.9951 C   0  0  2  0  0  0  0  0  0  0  0  0
    9.0471  -16.8349   19.2036 N   0  0  0  0  0  0  0  0  0  0  0  0
    8.2715  -15.6390   21.1661 C   0  0  0  0  0  0  0  0  0  0  0  0
    7.0319  -15.7914   21.0900 O   0  0  0  0  0  0  0  0  0  0  0  0
    8.8239  -15.4411   22.4944 N   0  0  0  0  0  0  0  0  0  0  0  0
    8.0152  -15.5818   23.6652 C   0  0  1  0  0  0  0  0  0  0  0  0
    7.6497  -17.0351   23.8452 C   0  0  0  0  0  0  0  0  0  0  0  0
    6.9983  -17.2279   25.1498 C   0  0  0  0  0  0  0  0  0  0  0  0
    7.6077  -17.3649   26.2280 O   0  0  0  0  0  0  0  0  0  0  0  0
    8.5990  -15.1280   24.9369 C   0  0  0  0  0  0  0  0  0  0  0  0
    9.8756  -15.3940   25.0036 O   0  0  0  0  0  0  0  0  0  0  0  0
    5.5954  -17.2697   25.2564 O   0  0  0  0  0  0  0  0  0  0  0  0
    7.9753  -14.4892   26.0039 N   0  0  0  0  0  0  0  0  0  0  0  0
    6.5314  -14.4433   26.1569 C   0  0  0  0  0  0  0  0  0  0  0  0
    6.2939  -13.0646   26.7106 C   0  0  0  0  0  0  0  0  0  0  0  0
    7.6305  -12.5395   27.1563 C   0  0  0  0  0  0  0  0  0  0  0  0
    8.5261  -13.8029   27.1084 C   0  0  1  0  0  0  0  0  0  0  0  0
    8.3359  -14.4571   28.4298 C   0  0  0  0  0  0  0  0  0  0  0  0
    8.9717  -13.9724   29.5788 O   0  0  0  0  0  0  0  0  0  0  0  0
    7.6099  -15.4619   28.5935 O   0  0  0  0  0  0  0  0  0  0  0  0
  1  2  1  0
  2  4  1  0
  3  2  2  0
  4  5  1  0
  6  8  1  0
  6  5  1  0
  6  7  1  6
  8  9  2  0
 10 11  1  0
 10  8  1  0
 11 12  1  1
 12 13  1  0
 13 14  2  0
 13 17  1  0
 15 11  1  0
 16 15  2  0
 18 15  1  0
 18 22  1  0
 19 20  1  0
 19 18  1  0
 20 21  1  0
 21 22  1  0
 22 23  1  1
 23 24  1  0
 25 23  2  0
M  END
$$$$
