QDP.pdb
     RDKit          3D

 25 25  0  0  1  0  0  0  0  0999 V2000
    7.4649  -15.3720   17.5562 N   0  0  0  0  0  0  0  0  0  0  0  0
    8.0047  -14.1688   17.0614 C   0  0  0  0  0  0  0  0  0  0  0  0
    8.4412  -14.1494   15.8827 O   0  0  0  0  0  0  0  0  0  0  0  0
    8.0588  -12.9510   17.9077 C   0  0  0  0  0  0  0  0  0  0  0  0
    7.4481  -13.1980   19.2668 C   0  0  0  0  0  0  0  0  0  0  0  0
    8.5014  -13.5354   20.2692 C   0  0  2  0  0  0  0  0  0  0  0  0
    9.3702  -14.5660   19.7876 N   0  0  0  0  0  0  0  0  0  0  0  0
    7.8898  -13.8714   21.5790 C   0  0  0  0  0  0  0  0  0  0  0  0
    7.2057  -13.0732   22.2577 O   0  0  0  0  0  0  0  0  0  0  0  0
    8.0803  -15.2006   22.1318 N   0  0  0  0  0  0  0  0  0  0  0  0
    7.6084  -15.5376   23.4388 C   0  0  1  0  0  0  0  0  0  0  0  0
    7.4589  -17.0360   23.5421 C   0  0  0  0  0  0  0  0  0  0  0  0
    6.9851  -17.3985   24.8867 C   0  0  0  0  0  0  0  0  0  0  0  0
    7.7305  -17.6983   25.8391 O   0  0  0  0  0  0  0  0  0  0  0  0
    8.4375  -15.1120   24.5769 C   0  0  0  0  0  0  0  0  0  0  0  0
    9.7089  -15.2951   24.3424 O   0  0  0  0  0  0  0  0  0  0  0  0
    5.6094  -17.4278   25.1831 O   0  0  0  0  0  0  0  0  0  0  0  0
    8.0359  -14.5724   25.7947 N   0  0  0  0  0  0  0  0  0  0  0  0
    6.6449  -14.5198   26.2103 C   0  0  0  0  0  0  0  0  0  0  0  0
    6.5555  -13.1991   26.9255 C   0  0  0  0  0  0  0  0  0  0  0  0
    7.9668  -12.7412   27.1694 C   0  0  0  0  0  0  0  0  0  0  0  0
    8.7975  -14.0071   26.8411 C   0  0  1  0  0  0  0  0  0  0  0  0
    8.8251  -14.7857   28.1072 C   0  0  0  0  0  0  0  0  0  0  0  0
    9.6526  -14.4116   29.1724 O   0  0  0  0  0  0  0  0  0  0  0  0
    8.1240  -15.8038   28.2955 O   0  0  0  0  0  0  0  0  0  0  0  0
  1  2  1  0
  2  4  1  0
  3  2  2  0
  4  5  1  0
  6  8  1  0
  6  5  1  0
  6  7  1  6
  8  9  2  0
 10 11  1  0
 10  8  1  0
 11 12  1  6
 12 13  1  0
 13 14  2  0
 13 17  1  0
 15 11  1  0
 16 15  2  0
 18 15  1  0
 18 22  1  0
 19 20  1  0
 19 18  1  0
 20 21  1  0
 21 22  1  0
 22 23  1  1
 23 24  1  0
 25 23  2  0
M  END
$$$$
