YQS.pdb
     RDKit          3D

 28 28  0  0  1  0  0  0  0  0999 V2000
    6.9967  -11.9949   18.7300 O   0  0  0  0  0  0  0  0  0  0  0  0
    7.6396  -12.8876   19.5715 C   0  0  0  0  0  0  0  0  0  0  0  0
    6.9040  -13.7625   20.3775 C   0  0  0  0  0  0  0  0  0  0  0  0
    7.5745  -14.6348   21.1987 C   0  0  0  0  0  0  0  0  0  0  0  0
    8.9445  -14.6968   21.2732 C   0  0  0  0  0  0  0  0  0  0  0  0
    9.6696  -15.6225   22.1543 C   0  0  0  0  0  0  0  0  0  0  0  0
   10.2663  -16.7331   21.2889 C   0  0  2  0  0  0  0  0  0  0  0  0
    9.2303  -17.5155   20.6654 N   0  0  0  0  0  0  0  0  0  0  0  0
   11.0798  -17.5675   22.2225 C   0  0  0  0  0  0  0  0  0  0  0  0
   10.5349  -18.5356   22.8102 O   0  0  0  0  0  0  0  0  0  0  0  0
    9.6607  -13.8275   20.4726 C   0  0  0  0  0  0  0  0  0  0  0  0
    9.0138  -12.9493   19.6465 C   0  0  0  0  0  0  0  0  0  0  0  0
   17.3936  -18.3664   22.7318 N   0  0  0  0  0  0  0  0  0  0  0  0
   16.6129  -18.6410   21.5736 C   0  0  0  0  0  0  0  0  0  0  0  0
   17.1883  -19.1055   20.5607 O   0  0  0  0  0  0  0  0  0  0  0  0
   15.1312  -18.3799   21.5630 C   0  0  0  0  0  0  0  0  0  0  0  0
   14.6786  -17.8204   22.8715 C   0  0  0  0  0  0  0  0  0  0  0  0
   13.2497  -18.1618   23.2475 C   0  0  2  0  0  0  0  0  0  0  0  0
   12.4399  -17.2497   22.4236 N   0  0  0  0  0  0  0  0  0  0  0  0
   12.9035  -17.8666   24.6401 C   0  0  0  0  0  0  0  0  0  0  0  0
   13.2240  -16.7478   25.1854 O   0  0  0  0  0  0  0  0  0  0  0  0
    9.8049  -19.2312   26.6413 O   0  0  0  0  0  0  0  0  0  0  0  0
   10.5054  -18.1572   27.2414 C   0  0  0  0  0  0  0  0  0  0  0  0
   11.9588  -18.4010   26.9081 C   0  0  2  0  0  0  0  0  0  0  0  0
   12.2001  -18.7293   25.5325 N   0  0  0  0  0  0  0  0  0  0  0  0
   12.4131  -19.5277   27.7541 C   0  0  0  0  0  0  0  0  0  0  0  0
   12.4086  -19.4232   29.1572 O   0  0  0  0  0  0  0  0  0  0  0  0
   12.8046  -20.5825   27.2175 O   0  0  0  0  0  0  0  0  0  0  0  0
  2  1  1  0
  3  2  2  0
  4  3  1  0
  5  4  2  0
  5 11  1  0
  6  5  1  0
  7  6  1  0
  7  9  1  0
  7  8  1  1
  9 10  2  0
 11 12  2  0
 12  2  1  0
 14 13  1  0
 15 14  2  0
 16 14  1  0
 17 16  1  0
 18 17  1  1
 19  9  1  0
 19 18  1  0
 20 18  1  0
 20 21  2  0
 22 23  1  0
 24 23  1  6
 24 25  1  0
 25 20  1  0
 26 24  1  0
 26 27  1  0
 28 26  2  0
M  END
$$$$
