YQS.pdb
     RDKit          3D

 28 28  0  0  1  0  0  0  0  0999 V2000
    5.4843  -10.3413   27.0933 O   0  0  0  0  0  0  0  0  0  0  0  0
    6.2061  -11.4614   26.7154 C   0  0  0  0  0  0  0  0  0  0  0  0
    6.0013  -12.6891   27.3531 C   0  0  0  0  0  0  0  0  0  0  0  0
    6.7338  -13.7788   26.9517 C   0  0  0  0  0  0  0  0  0  0  0  0
    7.6679  -13.7292   25.9460 C   0  0  0  0  0  0  0  0  0  0  0  0
    8.4607  -14.8888   25.5152 C   0  0  0  0  0  0  0  0  0  0  0  0
    7.9634  -15.3180   24.1342 C   0  0  2  0  0  0  0  0  0  0  0  0
    6.6122  -15.8121   24.2021 N   0  0  0  0  0  0  0  0  0  0  0  0
    8.9043  -16.3891   23.6907 C   0  0  0  0  0  0  0  0  0  0  0  0
    8.6574  -17.5837   23.9930 O   0  0  0  0  0  0  0  0  0  0  0  0
    7.8618  -12.5108   25.3234 C   0  0  0  0  0  0  0  0  0  0  0  0
    7.1433  -11.4114   25.7069 C   0  0  0  0  0  0  0  0  0  0  0  0
   13.1054  -15.5072   19.2385 N   0  0  0  0  0  0  0  0  0  0  0  0
   13.3959  -14.9249   20.5046 C   0  0  0  0  0  0  0  0  0  0  0  0
   14.2195  -13.9804   20.5538 O   0  0  0  0  0  0  0  0  0  0  0  0
   12.7311  -15.4301   21.7561 C   0  0  0  0  0  0  0  0  0  0  0  0
   11.7903  -16.5477   21.4468 C   0  0  0  0  0  0  0  0  0  0  0  0
   11.0318  -17.0886   22.6434 C   0  0  2  0  0  0  0  0  0  0  0  0
   10.0482  -16.0356   22.9437 N   0  0  0  0  0  0  0  0  0  0  0  0
   11.8425  -17.2442   23.8538 C   0  0  0  0  0  0  0  0  0  0  0  0
   12.6229  -16.3074   24.2601 O   0  0  0  0  0  0  0  0  0  0  0  0
   10.9967  -19.8354   26.7230 O   0  0  0  0  0  0  0  0  0  0  0  0
   11.9038  -18.8302   27.1369 C   0  0  0  0  0  0  0  0  0  0  0  0
   12.6747  -18.4598   25.8913 C   0  0  2  0  0  0  0  0  0  0  0  0
   11.8743  -18.3903   24.7027 N   0  0  0  0  0  0  0  0  0  0  0  0
   13.7172  -19.4941   25.7046 C   0  0  0  0  0  0  0  0  0  0  0  0
   13.8278  -20.1952   24.4898 O   0  0  0  0  0  0  0  0  0  0  0  0
   14.5072  -19.7478   26.6349 O   0  0  0  0  0  0  0  0  0  0  0  0
  2  1  1  0
  3  2  2  0
  4  3  1  0
  5  4  2  0
  5 11  1  0
  6  5  1  0
  7  6  1  0
  7  9  1  0
  7  8  1  1
  9 10  2  0
 11 12  2  0
 12  2  1  0
 14 13  1  0
 15 14  2  0
 16 14  1  0
 17 16  1  0
 18 17  1  6
 19  9  1  0
 19 18  1  0
 20 18  1  0
 20 21  2  0
 22 23  1  0
 24 23  1  1
 24 25  1  0
 25 20  1  0
 26 24  1  0
 26 27  1  0
 28 26  2  0
M  END
$$$$
