YQS.pdb
     RDKit          3D

 28 28  0  0  1  0  0  0  0  0999 V2000
    5.7364  -10.6291   28.1817 O   0  0  0  0  0  0  0  0  0  0  0  0
    6.3189  -11.6998   27.5238 C   0  0  0  0  0  0  0  0  0  0  0  0
    6.0149  -11.9633   26.1843 C   0  0  0  0  0  0  0  0  0  0  0  0
    6.6119  -13.0326   25.5636 C   0  0  0  0  0  0  0  0  0  0  0  0
    7.5024  -13.8677   26.1929 C   0  0  0  0  0  0  0  0  0  0  0  0
    8.1403  -15.0178   25.5379 C   0  0  0  0  0  0  0  0  0  0  0  0
    7.0498  -15.8340   24.8428 C   0  0  2  0  0  0  0  0  0  0  0  0
    6.6262  -16.9374   25.6660 N   0  0  0  0  0  0  0  0  0  0  0  0
    7.6680  -16.3189   23.5731 C   0  0  0  0  0  0  0  0  0  0  0  0
    7.9206  -17.5433   23.4443 O   0  0  0  0  0  0  0  0  0  0  0  0
    7.7948  -13.5976   27.5162 C   0  0  0  0  0  0  0  0  0  0  0  0
    7.2116  -12.5376   28.1553 C   0  0  0  0  0  0  0  0  0  0  0  0
    7.6861  -12.7864   18.4522 N   0  0  0  0  0  0  0  0  0  0  0  0
    8.3214  -13.9635   17.9651 C   0  0  0  0  0  0  0  0  0  0  0  0
    8.5318  -14.0634   16.7328 O   0  0  0  0  0  0  0  0  0  0  0  0
    8.7314  -15.0637   18.9059 C   0  0  0  0  0  0  0  0  0  0  0  0
    8.2132  -14.8091   20.2831 C   0  0  0  0  0  0  0  0  0  0  0  0
    8.5139  -15.9050   21.2871 C   0  0  2  0  0  0  0  0  0  0  0  0
    7.9545  -15.3920   22.5482 N   0  0  0  0  0  0  0  0  0  0  0  0
    9.9411  -16.1237   21.5351 C   0  0  0  0  0  0  0  0  0  0  0  0
   10.6260  -15.3104   22.2571 O   0  0  0  0  0  0  0  0  0  0  0  0
   11.7334  -19.6514   21.0906 O   0  0  0  0  0  0  0  0  0  0  0  0
   12.4727  -18.7415   21.8842 C   0  0  0  0  0  0  0  0  0  0  0  0
   12.1147  -17.3740   21.3506 C   0  0  2  0  0  0  0  0  0  0  0  0
   10.7237  -17.2090   21.0403 N   0  0  0  0  0  0  0  0  0  0  0  0
   12.9061  -17.1709   20.1162 C   0  0  0  0  0  0  0  0  0  0  0  0
   12.2706  -16.9489   18.8807 O   0  0  0  0  0  0  0  0  0  0  0  0
   14.1512  -17.1967   20.1711 O   0  0  0  0  0  0  0  0  0  0  0  0
  2  1  1  0
  3  2  2  0
  4  3  1  0
  5  4  2  0
  5 11  1  0
  6  5  1  0
  7  6  1  0
  7  9  1  0
  7  8  1  1
  9 10  2  0
 11 12  2  0
 12  2  1  0
 14 13  1  0
 15 14  2  0
 16 14  1  0
 17 16  1  0
 18 17  1  6
 19  9  1  0
 19 18  1  0
 20 18  1  0
 20 21  2  0
 22 23  1  0
 24 23  1  6
 24 25  1  0
 25 20  1  0
 26 24  1  0
 26 27  1  0
 28 26  2  0
M  END
$$$$
