YQS.pdb
     RDKit          3D

 28 28  0  0  1  0  0  0  0  0999 V2000
    6.7170  -10.4633   27.1119 O   0  0  0  0  0  0  0  0  0  0  0  0
    6.8430  -11.8162   26.8433 C   0  0  0  0  0  0  0  0  0  0  0  0
    5.7144  -12.5966   26.5725 C   0  0  0  0  0  0  0  0  0  0  0  0
    5.8768  -13.9343   26.3093 C   0  0  0  0  0  0  0  0  0  0  0  0
    7.1014  -14.5560   26.2967 C   0  0  0  0  0  0  0  0  0  0  0  0
    7.2832  -15.9880   26.0228 C   0  0  0  0  0  0  0  0  0  0  0  0
    6.3034  -16.3890   24.9193 C   0  0  2  0  0  0  0  0  0  0  0  0
    5.8125  -17.7273   25.1253 N   0  0  0  0  0  0  0  0  0  0  0  0
    7.0797  -16.2926   23.6475 C   0  0  0  0  0  0  0  0  0  0  0  0
    7.6133  -17.3284   23.1765 O   0  0  0  0  0  0  0  0  0  0  0  0
    8.2092  -13.7749   26.5659 C   0  0  0  0  0  0  0  0  0  0  0  0
    8.0713  -12.4398   26.8312 C   0  0  0  0  0  0  0  0  0  0  0  0
    6.3851  -14.3193   18.4461 N   0  0  0  0  0  0  0  0  0  0  0  0
    7.7699  -14.1790   18.7442 C   0  0  0  0  0  0  0  0  0  0  0  0
    8.5987  -14.8131   18.0486 O   0  0  0  0  0  0  0  0  0  0  0  0
    8.2304  -13.2910   19.8681 C   0  0  0  0  0  0  0  0  0  0  0  0
    7.5383  -13.6424   21.1438 C   0  0  0  0  0  0  0  0  0  0  0  0
    7.9324  -14.9838   21.7311 C   0  0  2  0  0  0  0  0  0  0  0  0
    7.1967  -15.0418   23.0046 N   0  0  0  0  0  0  0  0  0  0  0  0
    9.3515  -15.0999   22.0762 C   0  0  0  0  0  0  0  0  0  0  0  0
    9.7913  -14.7334   23.2269 O   0  0  0  0  0  0  0  0  0  0  0  0
   11.1295  -18.1560   22.0101 O   0  0  0  0  0  0  0  0  0  0  0  0
   11.7454  -17.0754   22.6864 C   0  0  0  0  0  0  0  0  0  0  0  0
   11.6987  -15.9232   21.7101 C   0  0  2  0  0  0  0  0  0  0  0  0
   10.3828  -15.6094   21.2325 N   0  0  0  0  0  0  0  0  0  0  0  0
   12.5477  -16.2990   20.5571 C   0  0  0  0  0  0  0  0  0  0  0  0
   12.0139  -16.3546   19.2565 O   0  0  0  0  0  0  0  0  0  0  0  0
   13.7507  -16.5698   20.7398 O   0  0  0  0  0  0  0  0  0  0  0  0
  2  1  1  0
  3  2  2  0
  4  3  1  0
  5  4  2  0
  5 11  1  0
  6  5  1  0
  7  6  1  0
  7  9  1  0
  7  8  1  1
  9 10  2  0
 11 12  2  0
 12  2  1  0
 14 13  1  0
 15 14  2  0
 16 14  1  0
 17 16  1  0
 18 17  1  1
 19  9  1  0
 19 18  1  0
 20 18  1  0
 20 21  2  0
 22 23  1  0
 24 23  1  1
 24 25  1  0
 25 20  1  0
 26 24  1  0
 26 27  1  0
 28 26  2  0
M  END
$$$$
