YQS.pdb
     RDKit          3D

 28 28  0  0  1  0  0  0  0  0999 V2000
    6.4781  -11.5184   28.3581 O   0  0  0  0  0  0  0  0  0  0  0  0
    6.5546  -12.2597   27.1905 C   0  0  0  0  0  0  0  0  0  0  0  0
    7.1542  -11.7250   26.0456 C   0  0  0  0  0  0  0  0  0  0  0  0
    7.2135  -12.4887   24.9062 C   0  0  0  0  0  0  0  0  0  0  0  0
    6.7108  -13.7644   24.8276 C   0  0  0  0  0  0  0  0  0  0  0  0
    6.7641  -14.5855   23.6104 C   0  0  0  0  0  0  0  0  0  0  0  0
    7.9381  -15.5563   23.7430 C   0  0  2  0  0  0  0  0  0  0  0  0
    8.9969  -14.9820   24.5327 N   0  0  0  0  0  0  0  0  0  0  0  0
    8.3936  -15.8188   22.3455 C   0  0  0  0  0  0  0  0  0  0  0  0
    7.6917  -16.5477   21.6001 O   0  0  0  0  0  0  0  0  0  0  0  0
    6.1205  -14.2819   25.9649 C   0  0  0  0  0  0  0  0  0  0  0  0
    6.0498  -13.5390   27.1117 C   0  0  0  0  0  0  0  0  0  0  0  0
    8.0071  -12.5813   17.3986 N   0  0  0  0  0  0  0  0  0  0  0  0
    8.1593  -13.8963   17.9220 C   0  0  0  0  0  0  0  0  0  0  0  0
    8.1372  -14.8639   17.1244 O   0  0  0  0  0  0  0  0  0  0  0  0
    8.3423  -14.1220   19.3982 C   0  0  0  0  0  0  0  0  0  0  0  0
    9.7822  -14.3358   19.7311 C   0  0  0  0  0  0  0  0  0  0  0  0
   10.0677  -15.5855   20.5412 C   0  0  2  0  0  0  0  0  0  0  0  0
    9.6008  -15.2436   21.8945 N   0  0  0  0  0  0  0  0  0  0  0  0
   11.4903  -15.9099   20.6722 C   0  0  0  0  0  0  0  0  0  0  0  0
   12.1813  -16.3042   19.6628 O   0  0  0  0  0  0  0  0  0  0  0  0
   15.8150  -15.5838   22.6204 O   0  0  0  0  0  0  0  0  0  0  0  0
   14.4720  -15.1559   22.7518 C   0  0  0  0  0  0  0  0  0  0  0  0
   13.6683  -16.1201   21.9107 C   0  0  2  0  0  0  0  0  0  0  0  0
   12.2630  -15.8347   21.8691 N   0  0  0  0  0  0  0  0  0  0  0  0
   13.8644  -17.4675   22.4916 C   0  0  0  0  0  0  0  0  0  0  0  0
   12.7747  -18.2010   22.9956 O   0  0  0  0  0  0  0  0  0  0  0  0
   15.0091  -17.9592   22.5352 O   0  0  0  0  0  0  0  0  0  0  0  0
  2  1  1  0
  3  2  2  0
  4  3  1  0
  5  4  2  0
  5 11  1  0
  6  5  1  0
  7  6  1  0
  7  9  1  0
  7  8  1  1
  9 10  2  0
 11 12  2  0
 12  2  1  0
 14 13  1  0
 15 14  2  0
 16 14  1  0
 17 16  1  0
 18 17  1  6
 19  9  1  0
 19 18  1  0
 20 18  1  0
 20 21  2  0
 22 23  1  0
 24 23  1  1
 24 25  1  0
 25 20  1  0
 26 24  1  0
 26 27  1  0
 28 26  2  0
M  END
$$$$
