YQS.pdb
     RDKit          3D

 28 28  0  0  1  0  0  0  0  0999 V2000
    5.6858  -10.5536   27.0435 O   0  0  0  0  0  0  0  0  0  0  0  0
    6.2935  -11.7227   26.6162 C   0  0  0  0  0  0  0  0  0  0  0  0
    6.6197  -12.7305   27.5294 C   0  0  0  0  0  0  0  0  0  0  0  0
    7.2203  -13.8766   27.0702 C   0  0  0  0  0  0  0  0  0  0  0  0
    7.5219  -14.0908   25.7476 C   0  0  0  0  0  0  0  0  0  0  0  0
    8.1707  -15.3112   25.2491 C   0  0  0  0  0  0  0  0  0  0  0  0
    7.4505  -15.7446   23.9716 C   0  0  2  0  0  0  0  0  0  0  0  0
    6.3554  -16.6309   24.2710 N   0  0  0  0  0  0  0  0  0  0  0  0
    8.4877  -16.4333   23.1474 C   0  0  0  0  0  0  0  0  0  0  0  0
    8.4679  -17.6870   23.0622 O   0  0  0  0  0  0  0  0  0  0  0  0
    7.1952  -13.0879   24.8547 C   0  0  0  0  0  0  0  0  0  0  0  0
    6.5964  -11.9371   25.2896 C   0  0  0  0  0  0  0  0  0  0  0  0
   12.6211  -15.0275   17.4700 N   0  0  0  0  0  0  0  0  0  0  0  0
   12.4824  -14.7188   18.8527 C   0  0  0  0  0  0  0  0  0  0  0  0
   12.6756  -13.5366   19.2240 O   0  0  0  0  0  0  0  0  0  0  0  0
   12.1128  -15.7855   19.8473 C   0  0  0  0  0  0  0  0  0  0  0  0
   11.0014  -15.3273   20.7332 C   0  0  0  0  0  0  0  0  0  0  0  0
   10.5022  -16.3689   21.7157 C   0  0  2  0  0  0  0  0  0  0  0  0
    9.4655  -15.6614   22.4845 N   0  0  0  0  0  0  0  0  0  0  0  0
   11.5024  -16.8087   22.6917 C   0  0  0  0  0  0  0  0  0  0  0  0
   12.6084  -17.3468   22.3185 O   0  0  0  0  0  0  0  0  0  0  0  0
   10.8147  -17.2228   26.6850 O   0  0  0  0  0  0  0  0  0  0  0  0
   12.1584  -16.8378   26.4598 C   0  0  0  0  0  0  0  0  0  0  0  0
   12.4202  -17.1573   25.0064 C   0  0  2  0  0  0  0  0  0  0  0  0
   11.3954  -16.7043   24.1104 N   0  0  0  0  0  0  0  0  0  0  0  0
   12.5297  -18.6298   24.9005 C   0  0  0  0  0  0  0  0  0  0  0  0
   13.5130  -19.3332   25.6201 O   0  0  0  0  0  0  0  0  0  0  0  0
   11.7412  -19.2551   24.1648 O   0  0  0  0  0  0  0  0  0  0  0  0
  2  1  1  0
  3  2  2  0
  4  3  1  0
  5  4  2  0
  5 11  1  0
  6  5  1  0
  7  6  1  0
  7  9  1  0
  7  8  1  1
  9 10  2  0
 11 12  2  0
 12  2  1  0
 14 13  1  0
 15 14  2  0
 16 14  1  0
 17 16  1  0
 18 17  1  6
 19  9  1  0
 19 18  1  0
 20 18  1  0
 20 21  2  0
 22 23  1  0
 24 23  1  1
 24 25  1  0
 25 20  1  0
 26 24  1  0
 26 27  1  0
 28 26  2  0
M  END
$$$$
