YQS.pdb
     RDKit          3D

 28 28  0  0  1  0  0  0  0  0999 V2000
    7.1610  -11.3990   18.5511 O   0  0  0  0  0  0  0  0  0  0  0  0
    7.5996  -12.4402   19.3524 C   0  0  0  0  0  0  0  0  0  0  0  0
    6.6846  -13.2421   20.0422 C   0  0  0  0  0  0  0  0  0  0  0  0
    7.1550  -14.2661   20.8264 C   0  0  0  0  0  0  0  0  0  0  0  0
    8.4907  -14.5503   20.9726 C   0  0  0  0  0  0  0  0  0  0  0  0
    9.0026  -15.6397   21.8151 C   0  0  0  0  0  0  0  0  0  0  0  0
    9.1281  -16.8927   20.9475 C   0  0  2  0  0  0  0  0  0  0  0  0
    7.8307  -17.4077   20.5927 N   0  0  0  0  0  0  0  0  0  0  0  0
    9.8856  -17.8747   21.7789 C   0  0  0  0  0  0  0  0  0  0  0  0
    9.2537  -18.6369   22.5530 O   0  0  0  0  0  0  0  0  0  0  0  0
    9.3853  -13.7511   20.2865 C   0  0  0  0  0  0  0  0  0  0  0  0
    8.9394  -12.7247   19.4992 C   0  0  0  0  0  0  0  0  0  0  0  0
   15.5176  -19.5418   19.8887 N   0  0  0  0  0  0  0  0  0  0  0  0
   15.4026  -20.3513   21.0539 C   0  0  0  0  0  0  0  0  0  0  0  0
   16.3632  -21.0964   21.3619 O   0  0  0  0  0  0  0  0  0  0  0  0
   14.1574  -20.3152   21.8977 C   0  0  0  0  0  0  0  0  0  0  0  0
   13.2772  -19.1757   21.5018 C   0  0  0  0  0  0  0  0  0  0  0  0
   11.9925  -19.0593   22.2989 C   0  0  2  0  0  0  0  0  0  0  0  0
   11.2923  -17.9239   21.6768 N   0  0  0  0  0  0  0  0  0  0  0  0
   12.1838  -18.6970   23.7055 C   0  0  0  0  0  0  0  0  0  0  0  0
   12.6549  -17.5494   24.0417 O   0  0  0  0  0  0  0  0  0  0  0  0
   10.3573  -20.4501   26.7700 O   0  0  0  0  0  0  0  0  0  0  0  0
   10.9979  -19.2383   27.1241 C   0  0  0  0  0  0  0  0  0  0  0  0
   12.1746  -19.1264   26.1829 C   0  0  2  0  0  0  0  0  0  0  0  0
   11.8881  -19.5193   24.8332 N   0  0  0  0  0  0  0  0  0  0  0  0
   13.2412  -20.0021   26.7184 C   0  0  0  0  0  0  0  0  0  0  0  0
   13.7626  -19.7966   28.0089 O   0  0  0  0  0  0  0  0  0  0  0  0
   13.6835  -20.9336   26.0179 O   0  0  0  0  0  0  0  0  0  0  0  0
  2  1  1  0
  3  2  2  0
  4  3  1  0
  5  4  2  0
  5 11  1  0
  6  5  1  0
  7  6  1  0
  7  9  1  0
  7  8  1  1
  9 10  2  0
 11 12  2  0
 12  2  1  0
 14 13  1  0
 15 14  2  0
 16 14  1  0
 17 16  1  0
 18 17  1  6
 19  9  1  0
 19 18  1  0
 20 18  1  0
 20 21  2  0
 22 23  1  0
 24 23  1  1
 24 25  1  0
 25 20  1  0
 26 24  1  0
 26 27  1  0
 28 26  2  0
M  END
$$$$
