YQS.pdb
     RDKit          3D

 28 28  0  0  1  0  0  0  0  0999 V2000
    5.2188  -10.5270   26.6175 O   0  0  0  0  0  0  0  0  0  0  0  0
    5.9275  -11.6690   26.2827 C   0  0  0  0  0  0  0  0  0  0  0  0
    5.5125  -12.9241   26.7393 C   0  0  0  0  0  0  0  0  0  0  0  0
    6.2386  -14.0348   26.3869 C   0  0  0  0  0  0  0  0  0  0  0  0
    7.3636  -13.9808   25.6008 C   0  0  0  0  0  0  0  0  0  0  0  0
    8.1500  -15.1636   25.2248 C   0  0  0  0  0  0  0  0  0  0  0  0
    7.5543  -15.7419   23.9406 C   0  0  2  0  0  0  0  0  0  0  0  0
    6.3124  -16.4210   24.2070 N   0  0  0  0  0  0  0  0  0  0  0  0
    8.5831  -16.6904   23.4200 C   0  0  0  0  0  0  0  0  0  0  0  0
    8.4319  -17.9231   23.6129 O   0  0  0  0  0  0  0  0  0  0  0  0
    7.7641  -12.7353   25.1559 C   0  0  0  0  0  0  0  0  0  0  0  0
    7.0562  -11.6146   25.4947 C   0  0  0  0  0  0  0  0  0  0  0  0
    9.4007  -18.7050   18.4838 N   0  0  0  0  0  0  0  0  0  0  0  0
   10.2299  -17.5638   18.6746 C   0  0  0  0  0  0  0  0  0  0  0  0
   11.2416  -17.4308   17.9457 O   0  0  0  0  0  0  0  0  0  0  0  0
    9.9014  -16.5396   19.7268 C   0  0  0  0  0  0  0  0  0  0  0  0
   10.9714  -16.4807   20.7667 C   0  0  0  0  0  0  0  0  0  0  0  0
   10.6137  -17.1418   22.0837 C   0  0  2  0  0  0  0  0  0  0  0  0
    9.7006  -16.1815   22.7246 N   0  0  0  0  0  0  0  0  0  0  0  0
   11.7415  -17.3063   23.0042 C   0  0  0  0  0  0  0  0  0  0  0  0
   12.4319  -16.2978   23.4018 O   0  0  0  0  0  0  0  0  0  0  0  0
   11.8789  -19.4272   26.1590 O   0  0  0  0  0  0  0  0  0  0  0  0
   13.1234  -19.6963   25.5400 C   0  0  0  0  0  0  0  0  0  0  0  0
   13.2846  -18.6159   24.4960 C   0  0  2  0  0  0  0  0  0  0  0  0
   12.2019  -18.5378   23.5580 N   0  0  0  0  0  0  0  0  0  0  0  0
   14.5342  -18.9102   23.7589 C   0  0  0  0  0  0  0  0  0  0  0  0
   15.7627  -19.0166   24.4362 O   0  0  0  0  0  0  0  0  0  0  0  0
   14.4984  -19.0657   22.5226 O   0  0  0  0  0  0  0  0  0  0  0  0
  2  1  1  0
  3  2  2  0
  4  3  1  0
  5  4  2  0
  5 11  1  0
  6  5  1  0
  7  6  1  0
  7  9  1  0
  7  8  1  1
  9 10  2  0
 11 12  2  0
 12  2  1  0
 14 13  1  0
 15 14  2  0
 16 14  1  0
 17 16  1  0
 18 17  1  6
 19  9  1  0
 19 18  1  0
 20 18  1  0
 20 21  2  0
 22 23  1  0
 24 23  1  1
 24 25  1  0
 25 20  1  0
 26 24  1  0
 26 27  1  0
 28 26  2  0
M  END
$$$$
