YQS.pdb
     RDKit          3D

 28 28  0  0  1  0  0  0  0  0999 V2000
    7.5009  -11.3368   18.4628 O   0  0  0  0  0  0  0  0  0  0  0  0
    7.9005  -12.4461   19.1896 C   0  0  0  0  0  0  0  0  0  0  0  0
    9.2566  -12.7644   19.3153 C   0  0  0  0  0  0  0  0  0  0  0  0
    9.6165  -13.8708   20.0443 C   0  0  0  0  0  0  0  0  0  0  0  0
    8.7073  -14.6922   20.6647 C   0  0  0  0  0  0  0  0  0  0  0  0
    9.0837  -15.8817   21.4407 C   0  0  0  0  0  0  0  0  0  0  0  0
    9.4677  -16.9885   20.4579 C   0  0  2  0  0  0  0  0  0  0  0  0
    8.2989  -17.5566   19.8368 N   0  0  0  0  0  0  0  0  0  0  0  0
   10.1904  -18.0087   21.2742 C   0  0  0  0  0  0  0  0  0  0  0  0
    9.5573  -19.0022   21.7117 O   0  0  0  0  0  0  0  0  0  0  0  0
    7.3704  -14.3680   20.5333 C   0  0  0  0  0  0  0  0  0  0  0  0
    6.9884  -13.2702   19.8114 C   0  0  0  0  0  0  0  0  0  0  0  0
   15.2699  -19.7477   19.2221 N   0  0  0  0  0  0  0  0  0  0  0  0
   15.4062  -20.4403   20.4582 C   0  0  0  0  0  0  0  0  0  0  0  0
   16.2502  -21.3647   20.5361 O   0  0  0  0  0  0  0  0  0  0  0  0
   14.5575  -20.0733   21.6451 C   0  0  0  0  0  0  0  0  0  0  0  0
   13.6171  -18.9640   21.3062 C   0  0  0  0  0  0  0  0  0  0  0  0
   12.3169  -18.9734   22.0865 C   0  0  2  0  0  0  0  0  0  0  0  0
   11.5660  -17.8335   21.5358 N   0  0  0  0  0  0  0  0  0  0  0  0
   12.4687  -18.7059   23.5189 C   0  0  0  0  0  0  0  0  0  0  0  0
   13.1126  -17.6770   23.9417 O   0  0  0  0  0  0  0  0  0  0  0  0
   10.7380  -20.9899   26.3108 O   0  0  0  0  0  0  0  0  0  0  0  0
   11.1643  -19.7810   26.9116 C   0  0  0  0  0  0  0  0  0  0  0  0
   12.1985  -19.2157   25.9660 C   0  0  2  0  0  0  0  0  0  0  0  0
   11.9502  -19.5027   24.5825 N   0  0  0  0  0  0  0  0  0  0  0  0
   13.5017  -19.8042   26.3490 C   0  0  0  0  0  0  0  0  0  0  0  0
   14.0194  -19.6278   27.6453 O   0  0  0  0  0  0  0  0  0  0  0  0
   14.1492  -20.4645   25.5131 O   0  0  0  0  0  0  0  0  0  0  0  0
  2  1  1  0
  3  2  2  0
  4  3  1  0
  5  4  2  0
  5 11  1  0
  6  5  1  0
  7  6  1  0
  7  9  1  0
  7  8  1  1
  9 10  2  0
 11 12  2  0
 12  2  1  0
 14 13  1  0
 15 14  2  0
 16 14  1  0
 17 16  1  0
 18 17  1  6
 19  9  1  0
 19 18  1  0
 20 18  1  0
 20 21  2  0
 22 23  1  0
 24 23  1  1
 24 25  1  0
 25 20  1  0
 26 24  1  0
 26 27  1  0
 28 26  2  0
M  END
$$$$
