YQS.pdb
     RDKit          3D

 28 28  0  0  1  0  0  0  0  0999 V2000
    8.0968  -12.3736   16.9407 O   0  0  0  0  0  0  0  0  0  0  0  0
    8.0567  -12.9306   18.2082 C   0  0  0  0  0  0  0  0  0  0  0  0
    6.8367  -13.1144   18.8670 C   0  0  0  0  0  0  0  0  0  0  0  0
    6.8345  -13.6707   20.1222 C   0  0  0  0  0  0  0  0  0  0  0  0
    7.9781  -14.0617   20.7746 C   0  0  0  0  0  0  0  0  0  0  0  0
    7.9851  -14.6514   22.1203 C   0  0  0  0  0  0  0  0  0  0  0  0
    8.3224  -16.1369   21.9866 C   0  0  2  0  0  0  0  0  0  0  0  0
    7.3014  -16.8343   21.2480 N   0  0  0  0  0  0  0  0  0  0  0  0
    8.4155  -16.6485   23.3863 C   0  0  0  0  0  0  0  0  0  0  0  0
    7.5050  -17.3946   23.8266 O   0  0  0  0  0  0  0  0  0  0  0  0
    9.1775  -13.8750   20.1139 C   0  0  0  0  0  0  0  0  0  0  0  0
    9.2039  -13.3223   18.8626 C   0  0  0  0  0  0  0  0  0  0  0  0
   11.5871  -20.3770   25.9494 N   0  0  0  0  0  0  0  0  0  0  0  0
   11.7608  -19.7493   24.6836 C   0  0  0  0  0  0  0  0  0  0  0  0
   12.7099  -20.1248   23.9549 O   0  0  0  0  0  0  0  0  0  0  0  0
   10.8280  -18.6599   24.2289 C   0  0  0  0  0  0  0  0  0  0  0  0
    9.8290  -18.3353   25.2903 C   0  0  0  0  0  0  0  0  0  0  0  0
    9.6215  -16.8531   25.5348 C   0  0  2  0  0  0  0  0  0  0  0  0
    9.5221  -16.2823   24.1817 N   0  0  0  0  0  0  0  0  0  0  0  0
   10.7542  -16.1814   26.1768 C   0  0  0  0  0  0  0  0  0  0  0  0
   11.8432  -16.8115   26.4392 O   0  0  0  0  0  0  0  0  0  0  0  0
    8.9413  -13.3597   29.3404 O   0  0  0  0  0  0  0  0  0  0  0  0
    9.0368  -13.8584   28.0189 C   0  0  0  0  0  0  0  0  0  0  0  0
   10.4534  -14.3687   27.8930 C   0  0  2  0  0  0  0  0  0  0  0  0
   10.8042  -14.8122   26.5745 N   0  0  0  0  0  0  0  0  0  0  0  0
   10.5879  -15.5063   28.8306 C   0  0  0  0  0  0  0  0  0  0  0  0
   10.1180  -16.7862   28.4833 O   0  0  0  0  0  0  0  0  0  0  0  0
   11.1241  -15.3290   29.9419 O   0  0  0  0  0  0  0  0  0  0  0  0
  2  1  1  0
  3  2  2  0
  4  3  1  0
  5  4  2  0
  5 11  1  0
  6  5  1  0
  7  6  1  0
  7  9  1  0
  7  8  1  6
  9 10  2  0
 11 12  2  0
 12  2  1  0
 14 13  1  0
 15 14  2  0
 16 14  1  0
 17 16  1  0
 18 17  1  6
 19  9  1  0
 19 18  1  0
 20 18  1  0
 20 21  2  0
 22 23  1  0
 24 23  1  6
 24 25  1  0
 25 20  1  0
 26 24  1  0
 26 27  1  0
 28 26  2  0
M  END
$$$$
