YQS.pdb
     RDKit          3D

 28 28  0  0  1  0  0  0  0  0999 V2000
    7.8900  -13.4219   23.0493 O   0  0  0  0  0  0  0  0  0  0  0  0
    7.8029  -13.5223   21.6705 C   0  0  0  0  0  0  0  0  0  0  0  0
    8.1120  -12.4282   20.8560 C   0  0  0  0  0  0  0  0  0  0  0  0
    8.0158  -12.5640   19.4931 C   0  0  0  0  0  0  0  0  0  0  0  0
    7.6283  -13.7292   18.8780 C   0  0  0  0  0  0  0  0  0  0  0  0
    7.5161  -13.8807   17.4208 C   0  0  0  0  0  0  0  0  0  0  0  0
    8.9277  -14.0040   16.8457 C   0  0  2  0  0  0  0  0  0  0  0  0
    8.8922  -14.4775   15.4860 N   0  0  0  0  0  0  0  0  0  0  0  0
    9.6327  -14.9756   17.7336 C   0  0  0  0  0  0  0  0  0  0  0  0
    9.4294  -16.2059   17.5772 O   0  0  0  0  0  0  0  0  0  0  0  0
    7.3251  -14.8032   19.6930 C   0  0  0  0  0  0  0  0  0  0  0  0
    7.4137  -14.6909   21.0537 C   0  0  0  0  0  0  0  0  0  0  0  0
   16.0163  -13.8279   19.6881 N   0  0  0  0  0  0  0  0  0  0  0  0
   15.3151  -14.7223   18.8309 C   0  0  0  0  0  0  0  0  0  0  0  0
   15.7501  -14.9014   17.6684 O   0  0  0  0  0  0  0  0  0  0  0  0
   14.0798  -15.4370   19.3072 C   0  0  0  0  0  0  0  0  0  0  0  0
   12.8467  -14.6950   18.9086 C   0  0  0  0  0  0  0  0  0  0  0  0
   11.5461  -15.4006   19.2404 C   0  0  2  0  0  0  0  0  0  0  0  0
   10.5094  -14.4904   18.7273 N   0  0  0  0  0  0  0  0  0  0  0  0
   11.2853  -15.5460   20.6747 C   0  0  0  0  0  0  0  0  0  0  0  0
   11.3387  -14.5370   21.4689 O   0  0  0  0  0  0  0  0  0  0  0  0
   10.2067  -19.0538   22.3778 O   0  0  0  0  0  0  0  0  0  0  0  0
    9.8946  -17.9678   23.2307 C   0  0  0  0  0  0  0  0  0  0  0  0
   10.7889  -16.8392   22.7730 C   0  0  2  0  0  0  0  0  0  0  0  0
   10.9519  -16.7576   21.3500 N   0  0  0  0  0  0  0  0  0  0  0  0
   12.1149  -17.0598   23.3931 C   0  0  0  0  0  0  0  0  0  0  0  0
   12.2711  -17.0288   24.7910 O   0  0  0  0  0  0  0  0  0  0  0  0
   13.1059  -17.2757   22.6685 O   0  0  0  0  0  0  0  0  0  0  0  0
  2  1  1  0
  3  2  2  0
  4  3  1  0
  5  4  2  0
  5 11  1  0
  6  5  1  0
  7  6  1  0
  7  9  1  0
  7  8  1  6
  9 10  2  0
 11 12  2  0
 12  2  1  0
 14 13  1  0
 15 14  2  0
 16 14  1  0
 17 16  1  0
 18 17  1  1
 19  9  1  0
 19 18  1  0
 20 18  1  0
 20 21  2  0
 22 23  1  0
 24 23  1  6
 24 25  1  0
 25 20  1  0
 26 24  1  0
 26 27  1  0
 28 26  2  0
M  END
$$$$
