LYK.pdb
     RDKit          3D

 30 30  0  0  1  0  0  0  0  0999 V2000
   20.3070  -22.2592  -15.2633 C   0  0  0  0  0  0  0  0  0  0  0  0
   20.8552  -22.1826  -13.8767 C   0  0  1  0  0  0  0  0  0  0  0  0
   21.2660  -23.5763  -13.4426 C   0  0  0  0  0  0  0  0  0  0  0  0
   21.9985  -21.2299  -13.6997 C   0  0  0  0  0  0  0  0  0  0  0  0
   22.5317  -21.2644  -12.2912 C   0  0  2  0  0  0  0  0  0  0  0  0
   21.6815  -20.6197  -11.3340 N   0  0  0  0  0  0  0  0  0  0  0  0
   23.8842  -20.6691  -12.2898 C   0  0  0  0  0  0  0  0  0  0  0  0
   24.0017  -19.4215  -12.4848 O   0  0  0  0  0  0  0  0  0  0  0  0
   26.8816  -19.2480   -6.0159 O   0  0  0  0  0  0  0  0  0  0  0  0
   26.9594  -19.8195   -7.2838 C   0  0  0  0  0  0  0  0  0  0  0  0
   25.8933  -19.8206   -8.1579 C   0  0  0  0  0  0  0  0  0  0  0  0
   26.0015  -20.3972   -9.4135 C   0  0  0  0  0  0  0  0  0  0  0  0
   27.1632  -20.9934   -9.8543 C   0  0  0  0  0  0  0  0  0  0  0  0
   27.2891  -21.6099  -11.1999 C   0  0  0  0  0  0  0  0  0  0  0  0
   26.3205  -20.9633  -12.1824 C   0  0  2  0  0  0  0  0  0  0  0  0
   25.0043  -21.5192  -12.0698 N   0  0  0  0  0  0  0  0  0  0  0  0
   26.7958  -21.2188  -13.5912 C   0  0  0  0  0  0  0  0  0  0  0  0
   26.5304  -22.2824  -14.2017 O   0  0  0  0  0  0  0  0  0  0  0  0
   28.2367  -20.9937   -8.9768 C   0  0  0  0  0  0  0  0  0  0  0  0
   28.1261  -20.4147   -7.7171 C   0  0  0  0  0  0  0  0  0  0  0  0
   27.5698  -20.2354  -14.2648 N   0  0  0  0  0  0  0  0  0  0  0  0
   27.4277  -20.0608  -15.6885 C   0  0  1  0  0  0  0  0  0  0  0  0
   25.9878  -19.6772  -15.9828 C   0  0  0  0  0  0  0  0  0  0  0  0
   25.8365  -19.5118  -17.4704 C   0  0  0  0  0  0  0  0  0  0  0  0
   24.4151  -19.1073  -17.8497 C   0  0  0  0  0  0  0  0  0  0  0  0
   24.2995  -18.8992  -19.3371 C   0  0  0  0  0  0  0  0  0  0  0  0
   23.0079  -18.3393  -19.6343 N   0  0  0  0  0  0  0  0  0  0  0  0
   28.3716  -19.0384  -16.1958 C   0  0  0  0  0  0  0  0  0  0  0  0
   28.5894  -17.9751  -15.5783 O   0  0  0  0  0  0  0  0  0  0  0  0
   29.0304  -19.2675  -17.3876 O   0  0  0  0  0  0  0  0  0  0  0  0
  2  1  1  6
  2  3  1  0
  4  2  1  0
  5  4  1  0
  5  6  1  1
  7  5  1  0
  7  8  2  0
  9 10  1  0
 10 20  2  0
 11 10  1  0
 11 12  2  0
 12 13  1  0
 13 19  2  0
 13 14  1  0
 15 14  1  1
 15 16  1  0
 16  7  1  0
 17 15  1  0
 18 17  2  0
 20 19  1  0
 21 17  1  0
 22 23  1  1
 22 21  1  0
 23 24  1  0
 24 25  1  0
 25 26  1  0
 26 27  1  0
 28 30  1  0
 28 22  1  0
 29 28  2  0
M  END
$$$$
