LYK.pdb
     RDKit          3D

 30 30  0  0  1  0  0  0  0  0999 V2000
   30.0765  -20.3519  -11.2758 C   0  0  0  0  0  0  0  0  0  0  0  0
   28.8518  -20.9698  -11.8651 C   0  0  1  0  0  0  0  0  0  0  0  0
   28.9004  -22.4656  -11.6202 C   0  0  0  0  0  0  0  0  0  0  0  0
   27.5557  -20.4077  -11.3648 C   0  0  0  0  0  0  0  0  0  0  0  0
   26.3758  -21.0612  -12.0357 C   0  0  2  0  0  0  0  0  0  0  0  0
   26.3878  -20.9507  -13.4648 N   0  0  0  0  0  0  0  0  0  0  0  0
   25.1387  -20.4875  -11.4664 C   0  0  0  0  0  0  0  0  0  0  0  0
   25.1939  -19.3487  -10.9111 O   0  0  0  0  0  0  0  0  0  0  0  0
   17.7760  -16.8126  -13.5095 O   0  0  0  0  0  0  0  0  0  0  0  0
   18.9786  -17.4986  -13.3574 C   0  0  0  0  0  0  0  0  0  0  0  0
   19.7040  -17.4629  -12.1857 C   0  0  0  0  0  0  0  0  0  0  0  0
   20.8976  -18.1566  -12.0647 C   0  0  0  0  0  0  0  0  0  0  0  0
   21.4205  -18.9109  -13.0928 C   0  0  0  0  0  0  0  0  0  0  0  0
   22.6969  -19.6608  -12.9702 C   0  0  0  0  0  0  0  0  0  0  0  0
   22.6956  -20.5268  -11.7165 C   0  0  2  0  0  0  0  0  0  0  0  0
   23.9317  -21.2355  -11.5628 N   0  0  0  0  0  0  0  0  0  0  0  0
   21.5989  -21.5572  -11.8244 C   0  0  0  0  0  0  0  0  0  0  0  0
   21.5785  -22.4158  -12.7390 O   0  0  0  0  0  0  0  0  0  0  0  0
   20.6929  -18.9482  -14.2724 C   0  0  0  0  0  0  0  0  0  0  0  0
   19.4952  -18.2513  -14.3919 C   0  0  0  0  0  0  0  0  0  0  0  0
   20.5469  -21.5718  -10.8688 N   0  0  0  0  0  0  0  0  0  0  0  0
   19.5475  -22.6093  -10.9166 C   0  0  1  0  0  0  0  0  0  0  0  0
   18.8396  -22.6549   -9.5736 C   0  0  0  0  0  0  0  0  0  0  0  0
   18.6480  -24.0964   -9.1882 C   0  0  0  0  0  0  0  0  0  0  0  0
   17.9750  -24.2296   -7.8254 C   0  0  0  0  0  0  0  0  0  0  0  0
   17.8049  -25.6797   -7.4547 C   0  0  0  0  0  0  0  0  0  0  0  0
   17.2742  -25.7645   -6.1201 N   0  0  0  0  0  0  0  0  0  0  0  0
   18.5901  -22.3750  -12.0221 C   0  0  0  0  0  0  0  0  0  0  0  0
   18.2209  -21.2266  -12.3449 O   0  0  0  0  0  0  0  0  0  0  0  0
   18.0904  -23.4589  -12.7166 O   0  0  0  0  0  0  0  0  0  0  0  0
  2  1  1  1
  2  3  1  0
  4  2  1  0
  5  4  1  0
  5  6  1  6
  7  5  1  0
  7  8  2  0
  9 10  1  0
 10 20  2  0
 11 10  1  0
 11 12  2  0
 12 13  1  0
 13 19  2  0
 13 14  1  0
 15 14  1  6
 15 16  1  0
 16  7  1  0
 17 15  1  0
 18 17  2  0
 20 19  1  0
 21 17  1  0
 22 23  1  1
 22 21  1  0
 23 24  1  0
 24 25  1  0
 25 26  1  0
 26 27  1  0
 28 30  1  0
 28 22  1  0
 29 28  2  0
M  END
$$$$
