LYK.pdb
     RDKit          3D

 30 30  0  0  1  0  0  0  0  0999 V2000
   19.5892  -19.6623  -20.1594 C   0  0  0  0  0  0  0  0  0  0  0  0
   19.6581  -19.2122  -18.7375 C   0  0  1  0  0  0  0  0  0  0  0  0
   18.2938  -18.6907  -18.3297 C   0  0  0  0  0  0  0  0  0  0  0  0
   20.1229  -20.2541  -17.7656 C   0  0  0  0  0  0  0  0  0  0  0  0
   20.1186  -19.7312  -16.3528 C   0  0  2  0  0  0  0  0  0  0  0  0
   21.0402  -18.6560  -16.1304 N   0  0  0  0  0  0  0  0  0  0  0  0
   20.3842  -20.8599  -15.4368 C   0  0  0  0  0  0  0  0  0  0  0  0
   20.1630  -22.0405  -15.8435 O   0  0  0  0  0  0  0  0  0  0  0  0
   27.1041  -21.7493  -15.8005 O   0  0  0  0  0  0  0  0  0  0  0  0
   25.9753  -21.6868  -14.9867 C   0  0  0  0  0  0  0  0  0  0  0  0
   25.4257  -22.8078  -14.4022 C   0  0  0  0  0  0  0  0  0  0  0  0
   24.3018  -22.7135  -13.5968 C   0  0  0  0  0  0  0  0  0  0  0  0
   23.6782  -21.5121  -13.3374 C   0  0  0  0  0  0  0  0  0  0  0  0
   22.4759  -21.4016  -12.4721 C   0  0  0  0  0  0  0  0  0  0  0  0
   21.2084  -21.6765  -13.2719 C   0  0  2  0  0  0  0  0  0  0  0  0
   20.8781  -20.5788  -14.1319 N   0  0  0  0  0  0  0  0  0  0  0  0
   20.0517  -21.8654  -12.3220 C   0  0  0  0  0  0  0  0  0  0  0  0
   19.5691  -20.9139  -11.6616 O   0  0  0  0  0  0  0  0  0  0  0  0
   24.2290  -20.3833  -13.9245 C   0  0  0  0  0  0  0  0  0  0  0  0
   25.3569  -20.4800  -14.7325 C   0  0  0  0  0  0  0  0  0  0  0  0
   19.4767  -23.1546  -12.1566 N   0  0  0  0  0  0  0  0  0  0  0  0
   18.4199  -23.3519  -11.1965 C   0  0  1  0  0  0  0  0  0  0  0  0
   17.2745  -24.0726  -11.8862 C   0  0  0  0  0  0  0  0  0  0  0  0
   16.1299  -24.1798  -10.9158 C   0  0  0  0  0  0  0  0  0  0  0  0
   14.9255  -24.8768  -11.5414 C   0  0  0  0  0  0  0  0  0  0  0  0
   13.7774  -24.9327  -10.5679 C   0  0  0  0  0  0  0  0  0  0  0  0
   12.6366  -25.5193  -11.2196 N   0  0  0  0  0  0  0  0  0  0  0  0
   18.9042  -24.1118  -10.0211 C   0  0  0  0  0  0  0  0  0  0  0  0
   18.3951  -23.9743   -8.8892 O   0  0  0  0  0  0  0  0  0  0  0  0
   19.9502  -24.9990  -10.1815 O   0  0  0  0  0  0  0  0  0  0  0  0
  2  1  1  6
  2  3  1  0
  4  2  1  0
  5  4  1  0
  5  6  1  6
  7  5  1  0
  7  8  2  0
  9 10  1  0
 10 20  2  0
 11 10  1  0
 11 12  2  0
 12 13  1  0
 13 19  2  0
 13 14  1  0
 15 14  1  1
 15 16  1  0
 16  7  1  0
 17 15  1  0
 18 17  2  0
 20 19  1  0
 21 17  1  0
 22 23  1  6
 22 21  1  0
 23 24  1  0
 24 25  1  0
 25 26  1  0
 26 27  1  0
 28 30  1  0
 28 22  1  0
 29 28  2  0
M  END
$$$$
