LYK.pdb
     RDKit          3D

 30 30  0  0  1  0  0  0  0  0999 V2000
   31.3132  -23.4104  -18.9539 C   0  0  0  0  0  0  0  0  0  0  0  0
   30.2321  -22.4011  -18.7491 C   0  0  1  0  0  0  0  0  0  0  0  0
   29.6901  -21.9928  -20.1053 C   0  0  0  0  0  0  0  0  0  0  0  0
   29.1114  -22.8458  -17.8590 C   0  0  0  0  0  0  0  0  0  0  0  0
   28.1239  -21.7338  -17.6187 C   0  0  2  0  0  0  0  0  0  0  0  0
   28.6812  -20.4217  -17.7689 N   0  0  0  0  0  0  0  0  0  0  0  0
   27.5369  -21.9136  -16.2746 C   0  0  0  0  0  0  0  0  0  0  0  0
   27.0575  -23.0461  -15.9649 O   0  0  0  0  0  0  0  0  0  0  0  0
   24.6846  -20.5295   -8.1037 O   0  0  0  0  0  0  0  0  0  0  0  0
   25.3874  -20.4357   -9.3026 C   0  0  0  0  0  0  0  0  0  0  0  0
   26.3859  -21.3233   -9.6426 C   0  0  0  0  0  0  0  0  0  0  0  0
   27.0673  -21.2040  -10.8435 C   0  0  0  0  0  0  0  0  0  0  0  0
   26.7905  -20.2067  -11.7535 C   0  0  0  0  0  0  0  0  0  0  0  0
   27.5130  -20.0741  -13.0445 C   0  0  0  0  0  0  0  0  0  0  0  0
   26.8750  -20.9537  -14.1127 C   0  0  2  0  0  0  0  0  0  0  0  0
   27.5316  -20.8081  -15.3782 N   0  0  0  0  0  0  0  0  0  0  0  0
   25.4367  -20.5404  -14.3039 C   0  0  0  0  0  0  0  0  0  0  0  0
   25.1171  -19.5294  -14.9749 O   0  0  0  0  0  0  0  0  0  0  0  0
   25.7868  -19.3126  -11.4136 C   0  0  0  0  0  0  0  0  0  0  0  0
   25.1041  -19.4339  -10.2079 C   0  0  0  0  0  0  0  0  0  0  0  0
   24.3966  -21.3081  -13.7133 N   0  0  0  0  0  0  0  0  0  0  0  0
   23.0258  -20.8831  -13.8465 C   0  0  1  0  0  0  0  0  0  0  0  0
   22.2727  -21.9361  -14.6409 C   0  0  0  0  0  0  0  0  0  0  0  0
   20.8459  -21.4841  -14.7926 C   0  0  0  0  0  0  0  0  0  0  0  0
   20.0167  -22.4939  -15.5805 C   0  0  0  0  0  0  0  0  0  0  0  0
   18.6088  -21.9937  -15.7713 C   0  0  0  0  0  0  0  0  0  0  0  0
   17.8834  -22.9313  -16.5867 N   0  0  0  0  0  0  0  0  0  0  0  0
   22.4055  -20.6640  -12.5195 C   0  0  0  0  0  0  0  0  0  0  0  0
   22.6168  -21.4300  -11.5563 O   0  0  0  0  0  0  0  0  0  0  0  0
   21.5681  -19.5804  -12.3421 O   0  0  0  0  0  0  0  0  0  0  0  0
  2  1  1  6
  2  3  1  0
  4  2  1  0
  5  4  1  0
  5  6  1  1
  7  5  1  0
  7  8  2  0
  9 10  1  0
 10 20  2  0
 11 10  1  0
 11 12  2  0
 12 13  1  0
 13 19  2  0
 13 14  1  0
 15 14  1  1
 15 16  1  0
 16  7  1  0
 17 15  1  0
 18 17  2  0
 20 19  1  0
 21 17  1  0
 22 23  1  1
 22 21  1  0
 23 24  1  0
 24 25  1  0
 25 26  1  0
 26 27  1  0
 28 30  1  0
 28 22  1  0
 29 28  2  0
M  END
$$$$
