LYK.pdb
     RDKit          3D

 30 30  0  0  1  0  0  0  0  0999 V2000
   29.4300  -17.9007  -18.1294 C   0  0  0  0  0  0  0  0  0  0  0  0
   28.5488  -17.8097  -16.9276 C   0  0  1  0  0  0  0  0  0  0  0  0
   27.9597  -16.4137  -16.8657 C   0  0  0  0  0  0  0  0  0  0  0  0
   27.4558  -18.8333  -16.8651 C   0  0  0  0  0  0  0  0  0  0  0  0
   26.6500  -18.7027  -15.5990 C   0  0  2  0  0  0  0  0  0  0  0  0
   27.4450  -18.6757  -14.4066 N   0  0  0  0  0  0  0  0  0  0  0  0
   25.6639  -19.8025  -15.5581 C   0  0  0  0  0  0  0  0  0  0  0  0
   25.3047  -20.3404  -16.6489 O   0  0  0  0  0  0  0  0  0  0  0  0
   26.1759  -19.9715   -8.3115 O   0  0  0  0  0  0  0  0  0  0  0  0
   25.7781  -20.5405   -9.5190 C   0  0  0  0  0  0  0  0  0  0  0  0
   26.6783  -20.8732  -10.5086 C   0  0  0  0  0  0  0  0  0  0  0  0
   26.2517  -21.4386  -11.6998 C   0  0  0  0  0  0  0  0  0  0  0  0
   24.9232  -21.6971  -11.9601 C   0  0  0  0  0  0  0  0  0  0  0  0
   24.4579  -22.3066  -13.2323 C   0  0  0  0  0  0  0  0  0  0  0  0
   24.1414  -21.2296  -14.2625 C   0  0  2  0  0  0  0  0  0  0  0  0
   25.1542  -20.2162  -14.2953 N   0  0  0  0  0  0  0  0  0  0  0  0
   22.8436  -20.5543  -13.8941 C   0  0  0  0  0  0  0  0  0  0  0  0
   22.7839  -19.6571  -13.0189 O   0  0  0  0  0  0  0  0  0  0  0  0
   24.0158  -21.3631  -10.9664 C   0  0  0  0  0  0  0  0  0  0  0  0
   24.4460  -20.7957   -9.7717 C   0  0  0  0  0  0  0  0  0  0  0  0
   21.6399  -20.9326  -14.5483 N   0  0  0  0  0  0  0  0  0  0  0  0
   20.4034  -20.2705  -14.2163 C   0  0  1  0  0  0  0  0  0  0  0  0
   19.8931  -19.5583  -15.4570 C   0  0  0  0  0  0  0  0  0  0  0  0
   18.5826  -18.9008  -15.1201 C   0  0  0  0  0  0  0  0  0  0  0  0
   17.8973  -18.3427  -16.3638 C   0  0  0  0  0  0  0  0  0  0  0  0
   16.6708  -17.5534  -15.9872 C   0  0  0  0  0  0  0  0  0  0  0  0
   16.0927  -16.9870  -17.1769 N   0  0  0  0  0  0  0  0  0  0  0  0
   19.4051  -21.2355  -13.7007 C   0  0  0  0  0  0  0  0  0  0  0  0
   19.4375  -22.4463  -14.0046 O   0  0  0  0  0  0  0  0  0  0  0  0
   18.4084  -20.7829  -12.8589 O   0  0  0  0  0  0  0  0  0  0  0  0
  2  1  1  6
  2  3  1  0
  4  2  1  0
  5  4  1  0
  5  6  1  1
  7  5  1  0
  7  8  2  0
  9 10  1  0
 10 20  2  0
 11 10  1  0
 11 12  2  0
 12 13  1  0
 13 19  2  0
 13 14  1  0
 15 14  1  1
 15 16  1  0
 16  7  1  0
 17 15  1  0
 18 17  2  0
 20 19  1  0
 21 17  1  0
 22 23  1  6
 22 21  1  0
 23 24  1  0
 24 25  1  0
 25 26  1  0
 26 27  1  0
 28 30  1  0
 28 22  1  0
 29 28  2  0
M  END
$$$$
