LYK.pdb
     RDKit          3D

 30 30  0  0  1  0  0  0  0  0999 V2000
   30.8448  -23.9651  -18.0395 C   0  0  0  0  0  0  0  0  0  0  0  0
   29.5765  -23.1806  -18.1116 C   0  0  1  0  0  0  0  0  0  0  0  0
   28.8039  -23.6240  -19.3389 C   0  0  0  0  0  0  0  0  0  0  0  0
   28.7063  -23.2709  -16.8947 C   0  0  0  0  0  0  0  0  0  0  0  0
   27.4539  -22.4483  -17.0503 C   0  0  2  0  0  0  0  0  0  0  0  0
   27.6968  -21.0934  -17.4501 N   0  0  0  0  0  0  0  0  0  0  0  0
   26.6992  -22.5030  -15.7810 C   0  0  0  0  0  0  0  0  0  0  0  0
   26.4146  -23.6367  -15.2890 O   0  0  0  0  0  0  0  0  0  0  0  0
   22.9029  -20.5700   -8.1578 O   0  0  0  0  0  0  0  0  0  0  0  0
   23.6193  -20.4726   -9.3484 C   0  0  0  0  0  0  0  0  0  0  0  0
   23.0917  -19.8877  -10.4798 C   0  0  0  0  0  0  0  0  0  0  0  0
   23.8296  -19.8055  -11.6500 C   0  0  0  0  0  0  0  0  0  0  0  0
   25.1138  -20.2958  -11.7490 C   0  0  0  0  0  0  0  0  0  0  0  0
   25.9130  -20.2080  -12.9979 C   0  0  0  0  0  0  0  0  0  0  0  0
   25.5442  -21.3349  -13.9549 C   0  0  2  0  0  0  0  0  0  0  0  0
   26.3199  -21.2805  -15.1588 N   0  0  0  0  0  0  0  0  0  0  0  0
   24.0945  -21.1983  -14.3494 C   0  0  0  0  0  0  0  0  0  0  0  0
   23.7040  -20.3255  -15.1618 O   0  0  0  0  0  0  0  0  0  0  0  0
   25.6465  -20.8847  -10.6124 C   0  0  0  0  0  0  0  0  0  0  0  0
   24.9043  -20.9664   -9.4390 C   0  0  0  0  0  0  0  0  0  0  0  0
   23.1255  -22.0773  -13.7941 N   0  0  0  0  0  0  0  0  0  0  0  0
   21.7450  -21.9698  -14.1944 C   0  0  1  0  0  0  0  0  0  0  0  0
   20.9755  -23.1240  -13.5759 C   0  0  0  0  0  0  0  0  0  0  0  0
   19.5569  -23.0678  -14.0735 C   0  0  0  0  0  0  0  0  0  0  0  0
   18.7598  -24.2945  -13.6402 C   0  0  0  0  0  0  0  0  0  0  0  0
   17.3724  -24.2624  -14.2260 C   0  0  0  0  0  0  0  0  0  0  0  0
   16.6512  -25.4287  -13.7903 N   0  0  0  0  0  0  0  0  0  0  0  0
   21.1742  -20.6642  -13.7902 C   0  0  0  0  0  0  0  0  0  0  0  0
   21.1929  -20.2730  -12.6045 O   0  0  0  0  0  0  0  0  0  0  0  0
   20.6040  -19.8553  -14.7532 O   0  0  0  0  0  0  0  0  0  0  0  0
  2  1  1  1
  2  3  1  0
  4  2  1  0
  5  4  1  0
  5  6  1  1
  7  5  1  0
  7  8  2  0
  9 10  1  0
 10 20  2  0
 11 10  1  0
 11 12  2  0
 12 13  1  0
 13 19  2  0
 13 14  1  0
 15 14  1  1
 15 16  1  0
 16  7  1  0
 17 15  1  0
 18 17  2  0
 20 19  1  0
 21 17  1  0
 22 23  1  1
 22 21  1  0
 23 24  1  0
 24 25  1  0
 25 26  1  0
 26 27  1  0
 28 30  1  0
 28 22  1  0
 29 28  2  0
M  END
$$$$
