LYK.pdb
     RDKit          3D

 30 30  0  0  1  0  0  0  0  0999 V2000
   30.2738  -23.3863  -16.6675 C   0  0  0  0  0  0  0  0  0  0  0  0
   29.0170  -22.5954  -16.8230 C   0  0  1  0  0  0  0  0  0  0  0  0
   28.3694  -22.9727  -18.1413 C   0  0  0  0  0  0  0  0  0  0  0  0
   28.0319  -22.7456  -15.7035 C   0  0  0  0  0  0  0  0  0  0  0  0
   26.8135  -21.8872  -15.9225 C   0  0  2  0  0  0  0  0  0  0  0  0
   27.1157  -20.5194  -16.2269 N   0  0  0  0  0  0  0  0  0  0  0  0
   25.9498  -21.9898  -14.7279 C   0  0  0  0  0  0  0  0  0  0  0  0
   25.6298  -23.1413  -14.3037 O   0  0  0  0  0  0  0  0  0  0  0  0
   27.3195  -21.2927   -7.1616 O   0  0  0  0  0  0  0  0  0  0  0  0
   26.7224  -20.9048   -8.3587 C   0  0  0  0  0  0  0  0  0  0  0  0
   27.4421  -20.7485   -9.5241 C   0  0  0  0  0  0  0  0  0  0  0  0
   26.8194  -20.3616  -10.7002 C   0  0  0  0  0  0  0  0  0  0  0  0
   25.4654  -20.1146  -10.7719 C   0  0  0  0  0  0  0  0  0  0  0  0
   24.7894  -19.7037  -12.0290 C   0  0  0  0  0  0  0  0  0  0  0  0
   24.6317  -20.8916  -12.9701 C   0  0  2  0  0  0  0  0  0  0  0  0
   25.5094  -20.7916  -14.0986 N   0  0  0  0  0  0  0  0  0  0  0  0
   23.2201  -20.9216  -13.5016 C   0  0  0  0  0  0  0  0  0  0  0  0
   22.8090  -20.0926  -14.3490 O   0  0  0  0  0  0  0  0  0  0  0  0
   24.7395  -20.2709   -9.6010 C   0  0  0  0  0  0  0  0  0  0  0  0
   25.3663  -20.6592   -8.4217 C   0  0  0  0  0  0  0  0  0  0  0  0
   22.3125  -21.9131  -13.0400 N   0  0  0  0  0  0  0  0  0  0  0  0
   20.9478  -21.9093  -13.5038 C   0  0  1  0  0  0  0  0  0  0  0  0
   20.3971  -23.3198  -13.3843 C   0  0  0  0  0  0  0  0  0  0  0  0
   18.9838  -23.3215  -13.8998 C   0  0  0  0  0  0  0  0  0  0  0  0
   18.3335  -24.6940  -13.7537 C   0  0  0  0  0  0  0  0  0  0  0  0
   16.9754  -24.7120  -14.4051 C   0  0  0  0  0  0  0  0  0  0  0  0
   16.4167  -26.0329  -14.2906 N   0  0  0  0  0  0  0  0  0  0  0  0
   20.1276  -20.9444  -12.7356 C   0  0  0  0  0  0  0  0  0  0  0  0
   19.0786  -20.4513  -13.2000 O   0  0  0  0  0  0  0  0  0  0  0  0
   20.5354  -20.5788  -11.4679 O   0  0  0  0  0  0  0  0  0  0  0  0
  2  1  1  1
  2  3  1  0
  4  2  1  0
  5  4  1  0
  5  6  1  1
  7  5  1  0
  7  8  2  0
  9 10  1  0
 10 20  2  0
 11 10  1  0
 11 12  2  0
 12 13  1  0
 13 19  2  0
 13 14  1  0
 15 14  1  1
 15 16  1  0
 16  7  1  0
 17 15  1  0
 18 17  2  0
 20 19  1  0
 21 17  1  0
 22 23  1  1
 22 21  1  0
 23 24  1  0
 24 25  1  0
 25 26  1  0
 26 27  1  0
 28 30  1  0
 28 22  1  0
 29 28  2  0
M  END
$$$$
