LYK.pdb
     RDKit          3D

 30 30  0  0  1  0  0  0  0  0999 V2000
   25.1924  -22.1371  -16.7037 C   0  0  0  0  0  0  0  0  0  0  0  0
   26.5512  -22.4786  -17.2198 C   0  0  1  0  0  0  0  0  0  0  0  0
   27.5789  -21.6888  -16.4326 C   0  0  0  0  0  0  0  0  0  0  0  0
   26.8908  -23.9380  -17.1914 C   0  0  0  0  0  0  0  0  0  0  0  0
   28.3032  -24.1845  -17.6537 C   0  0  2  0  0  0  0  0  0  0  0  0
   28.5967  -23.6272  -18.9414 N   0  0  0  0  0  0  0  0  0  0  0  0
   28.5535  -25.6407  -17.6328 C   0  0  0  0  0  0  0  0  0  0  0  0
   28.4781  -26.2566  -16.5269 O   0  0  0  0  0  0  0  0  0  0  0  0
   23.3438  -28.3390  -15.9465 O   0  0  0  0  0  0  0  0  0  0  0  0
   24.4270  -28.3407  -16.8221 C   0  0  0  0  0  0  0  0  0  0  0  0
   24.5505  -27.4226  -17.8430 C   0  0  0  0  0  0  0  0  0  0  0  0
   25.6406  -27.4497  -18.6983 C   0  0  0  0  0  0  0  0  0  0  0  0
   26.6491  -28.3815  -18.5796 C   0  0  0  0  0  0  0  0  0  0  0  0
   27.8229  -28.4150  -19.4892 C   0  0  0  0  0  0  0  0  0  0  0  0
   29.0203  -27.7221  -18.8507 C   0  0  2  0  0  0  0  0  0  0  0  0
   28.8701  -26.2968  -18.8555 N   0  0  0  0  0  0  0  0  0  0  0  0
   30.2628  -28.0444  -19.6432 C   0  0  0  0  0  0  0  0  0  0  0  0
   30.7767  -27.2231  -20.4406 O   0  0  0  0  0  0  0  0  0  0  0  0
   26.5270  -29.3062  -17.5536 C   0  0  0  0  0  0  0  0  0  0  0  0
   25.4322  -29.2774  -16.6964 C   0  0  0  0  0  0  0  0  0  0  0  0
   30.8857  -29.3133  -19.4953 N   0  0  0  0  0  0  0  0  0  0  0  0
   32.0686  -29.6260  -20.2572 C   0  0  1  0  0  0  0  0  0  0  0  0
   32.7746  -30.7929  -19.5887 C   0  0  0  0  0  0  0  0  0  0  0  0
   33.6291  -30.2536  -18.4742 C   0  0  0  0  0  0  0  0  0  0  0  0
   34.3440  -31.3720  -17.7219 C   0  0  0  0  0  0  0  0  0  0  0  0
   35.3254  -30.8043  -16.7302 C   0  0  0  0  0  0  0  0  0  0  0  0
   35.7813  -31.8587  -15.8638 N   0  0  0  0  0  0  0  0  0  0  0  0
   31.7278  -29.9377  -21.6645 C   0  0  0  0  0  0  0  0  0  0  0  0
   30.5587  -30.1935  -22.0207 O   0  0  0  0  0  0  0  0  0  0  0  0
   32.7332  -29.9459  -22.6112 O   0  0  0  0  0  0  0  0  0  0  0  0
  2  1  1  1
  2  3  1  0
  4  2  1  0
  5  4  1  0
  5  6  1  6
  7  5  1  0
  7  8  2  0
  9 10  1  0
 10 20  2  0
 11 10  1  0
 11 12  2  0
 12 13  1  0
 13 19  2  0
 13 14  1  0
 15 14  1  6
 15 16  1  0
 16  7  1  0
 17 15  1  0
 18 17  2  0
 20 19  1  0
 21 17  1  0
 22 23  1  1
 22 21  1  0
 23 24  1  0
 24 25  1  0
 25 26  1  0
 26 27  1  0
 28 30  1  0
 28 22  1  0
 29 28  2  0
M  END
$$$$
