LYK.pdb
     RDKit          3D

 30 30  0  0  1  0  0  0  0  0999 V2000
   25.3775  -22.5610  -20.9820 C   0  0  0  0  0  0  0  0  0  0  0  0
   26.1359  -21.6724  -20.0523 C   0  0  1  0  0  0  0  0  0  0  0  0
   25.3457  -20.3932  -19.8553 C   0  0  0  0  0  0  0  0  0  0  0  0
   26.4685  -22.2822  -18.7242 C   0  0  0  0  0  0  0  0  0  0  0  0
   27.1141  -21.2798  -17.8036 C   0  0  2  0  0  0  0  0  0  0  0  0
   28.5430  -21.2330  -17.9089 N   0  0  0  0  0  0  0  0  0  0  0  0
   26.6905  -21.5771  -16.4195 C   0  0  0  0  0  0  0  0  0  0  0  0
   26.4255  -22.7773  -16.1073 O   0  0  0  0  0  0  0  0  0  0  0  0
   25.1967  -20.8115   -7.8058 O   0  0  0  0  0  0  0  0  0  0  0  0
   25.6127  -20.5656   -9.1122 C   0  0  0  0  0  0  0  0  0  0  0  0
   25.0979  -19.5334   -9.8672 C   0  0  0  0  0  0  0  0  0  0  0  0
   25.5324  -19.3136  -11.1648 C   0  0  0  0  0  0  0  0  0  0  0  0
   26.4896  -20.1019  -11.7662 C   0  0  0  0  0  0  0  0  0  0  0  0
   26.9639  -19.8709  -13.1548 C   0  0  0  0  0  0  0  0  0  0  0  0
   26.2551  -20.8033  -14.1293 C   0  0  2  0  0  0  0  0  0  0  0  0
   26.5957  -20.5044  -15.4889 N   0  0  0  0  0  0  0  0  0  0  0  0
   24.7632  -20.6262  -13.9919 C   0  0  0  0  0  0  0  0  0  0  0  0
   24.2103  -19.5069  -14.1178 O   0  0  0  0  0  0  0  0  0  0  0  0
   27.0086  -21.1409  -11.0089 C   0  0  0  0  0  0  0  0  0  0  0  0
   26.5712  -21.3599   -9.7069 C   0  0  0  0  0  0  0  0  0  0  0  0
   23.9411  -21.7511  -13.7114 N   0  0  0  0  0  0  0  0  0  0  0  0
   22.5728  -21.5566  -13.3021 C   0  0  1  0  0  0  0  0  0  0  0  0
   22.5028  -21.6806  -11.7899 C   0  0  0  0  0  0  0  0  0  0  0  0
   21.1337  -22.1817  -11.4189 C   0  0  0  0  0  0  0  0  0  0  0  0
   20.9966  -22.3800   -9.9123 C   0  0  0  0  0  0  0  0  0  0  0  0
   19.6332  -22.9200   -9.5681 C   0  0  0  0  0  0  0  0  0  0  0  0
   19.5664  -23.1591   -8.1508 N   0  0  0  0  0  0  0  0  0  0  0  0
   22.0626  -20.2433  -13.7588 C   0  0  0  0  0  0  0  0  0  0  0  0
   22.2369  -19.1994  -13.0960 O   0  0  0  0  0  0  0  0  0  0  0  0
   21.3733  -20.1709  -14.9532 O   0  0  0  0  0  0  0  0  0  0  0  0
  2  1  1  6
  2  3  1  0
  4  2  1  0
  5  4  1  0
  5  6  1  1
  7  5  1  0
  7  8  2  0
  9 10  1  0
 10 20  2  0
 11 10  1  0
 11 12  2  0
 12 13  1  0
 13 19  2  0
 13 14  1  0
 15 14  1  1
 15 16  1  0
 16  7  1  0
 17 15  1  0
 18 17  2  0
 20 19  1  0
 21 17  1  0
 22 23  1  1
 22 21  1  0
 23 24  1  0
 24 25  1  0
 25 26  1  0
 26 27  1  0
 28 30  1  0
 28 22  1  0
 29 28  2  0
M  END
$$$$
