LYK.pdb
     RDKit          3D

 30 30  0  0  1  0  0  0  0  0999 V2000
   20.0791  -14.1627  -22.0644 C   0  0  0  0  0  0  0  0  0  0  0  0
   20.5768  -12.7551  -22.0769 C   0  0  1  0  0  0  0  0  0  0  0  0
   19.8322  -11.9896  -23.1536 C   0  0  0  0  0  0  0  0  0  0  0  0
   20.4719  -12.0350  -20.7667 C   0  0  0  0  0  0  0  0  0  0  0  0
   20.8671  -10.5875  -20.9001 C   0  0  2  0  0  0  0  0  0  0  0  0
   22.2251  -10.3938  -21.3162 N   0  0  0  0  0  0  0  0  0  0  0  0
   20.6016   -9.9110  -19.6135 C   0  0  0  0  0  0  0  0  0  0  0  0
   19.4261   -9.9432  -19.1387 O   0  0  0  0  0  0  0  0  0  0  0  0
   20.9198   -7.1650  -11.4827 O   0  0  0  0  0  0  0  0  0  0  0  0
   21.3080   -7.6007  -12.7475 C   0  0  0  0  0  0  0  0  0  0  0  0
   21.2769   -8.9303  -13.1103 C   0  0  0  0  0  0  0  0  0  0  0  0
   21.6693   -9.3330  -14.3770 C   0  0  0  0  0  0  0  0  0  0  0  0
   22.1064   -8.4414  -15.3327 C   0  0  0  0  0  0  0  0  0  0  0  0
   22.5248   -8.8639  -16.6939 C   0  0  0  0  0  0  0  0  0  0  0  0
   21.4178   -8.5961  -17.7061 C   0  0  2  0  0  0  0  0  0  0  0  0
   21.6759   -9.2482  -18.9559 N   0  0  0  0  0  0  0  0  0  0  0  0
   21.3424   -7.1146  -17.9809 C   0  0  0  0  0  0  0  0  0  0  0  0
   22.2124   -6.5173  -18.6595 O   0  0  0  0  0  0  0  0  0  0  0  0
   22.1388   -7.1035  -14.9700 C   0  0  0  0  0  0  0  0  0  0  0  0
   21.7447   -6.7014  -13.6983 C   0  0  0  0  0  0  0  0  0  0  0  0
   20.2588   -6.3545  -17.4633 N   0  0  0  0  0  0  0  0  0  0  0  0
   20.2206   -4.9280  -17.6661 C   0  0  1  0  0  0  0  0  0  0  0  0
   18.7966   -4.5317  -18.0157 C   0  0  0  0  0  0  0  0  0  0  0  0
   18.7714   -3.0535  -18.2942 C   0  0  0  0  0  0  0  0  0  0  0  0
   17.3695   -2.5734  -18.6576 C   0  0  0  0  0  0  0  0  0  0  0  0
   17.3634   -1.0881  -18.9083 C   0  0  0  0  0  0  0  0  0  0  0  0
   16.0150   -0.6617  -19.1733 N   0  0  0  0  0  0  0  0  0  0  0  0
   20.7004   -4.2069  -16.4646 C   0  0  0  0  0  0  0  0  0  0  0  0
   20.4522   -4.6092  -15.3088 O   0  0  0  0  0  0  0  0  0  0  0  0
   21.4444   -3.0549  -16.6272 O   0  0  0  0  0  0  0  0  0  0  0  0
  2  1  1  1
  2  3  1  0
  4  2  1  0
  5  4  1  0
  5  6  1  1
  7  5  1  0
  7  8  2  0
  9 10  1  0
 10 20  2  0
 11 10  1  0
 11 12  2  0
 12 13  1  0
 13 19  2  0
 13 14  1  0
 15 14  1  1
 15 16  1  0
 16  7  1  0
 17 15  1  0
 18 17  2  0
 20 19  1  0
 21 17  1  0
 22 23  1  1
 22 21  1  0
 23 24  1  0
 24 25  1  0
 25 26  1  0
 26 27  1  0
 28 30  1  0
 28 22  1  0
 29 28  2  0
M  END
$$$$
