LYK.pdb
     RDKit          3D

 30 30  0  0  1  0  0  0  0  0999 V2000
   27.9517  -19.5639  -20.0353 C   0  0  0  0  0  0  0  0  0  0  0  0
   28.4490  -20.4315  -18.9266 C   0  0  1  0  0  0  0  0  0  0  0  0
   29.5662  -19.7014  -18.2066 C   0  0  0  0  0  0  0  0  0  0  0  0
   27.4027  -20.8675  -17.9461 C   0  0  0  0  0  0  0  0  0  0  0  0
   28.0079  -21.6320  -16.7978 C   0  0  2  0  0  0  0  0  0  0  0  0
   28.4814  -22.9367  -17.1561 N   0  0  0  0  0  0  0  0  0  0  0  0
   27.0106  -21.7065  -15.7099 C   0  0  0  0  0  0  0  0  0  0  0  0
   26.1461  -22.6339  -15.7374 O   0  0  0  0  0  0  0  0  0  0  0  0
   22.8262  -20.5938   -8.0925 O   0  0  0  0  0  0  0  0  0  0  0  0
   23.7356  -20.4652   -9.1396 C   0  0  0  0  0  0  0  0  0  0  0  0
   23.5429  -19.5791  -10.1780 C   0  0  0  0  0  0  0  0  0  0  0  0
   24.4663  -19.4736  -11.2060 C   0  0  0  0  0  0  0  0  0  0  0  0
   25.6133  -20.2365  -11.2491 C   0  0  0  0  0  0  0  0  0  0  0  0
   26.6102  -20.1269  -12.3448 C   0  0  0  0  0  0  0  0  0  0  0  0
   26.1074  -20.8231  -13.6034 C   0  0  2  0  0  0  0  0  0  0  0  0
   27.0580  -20.7336  -14.6721 N   0  0  0  0  0  0  0  0  0  0  0  0
   24.8412  -20.1501  -14.0725 C   0  0  0  0  0  0  0  0  0  0  0  0
   24.8547  -19.0475  -14.6711 O   0  0  0  0  0  0  0  0  0  0  0  0
   25.8092  -21.1287  -10.2060 C   0  0  0  0  0  0  0  0  0  0  0  0
   24.8813  -21.2331   -9.1753 C   0  0  0  0  0  0  0  0  0  0  0  0
   23.5836  -20.7695  -13.8384 N   0  0  0  0  0  0  0  0  0  0  0  0
   22.3696  -20.1045  -14.2402 C   0  0  1  0  0  0  0  0  0  0  0  0
   21.9415  -20.6612  -15.5870 C   0  0  0  0  0  0  0  0  0  0  0  0
   20.6549  -19.9927  -15.9882 C   0  0  0  0  0  0  0  0  0  0  0  0
   20.1531  -20.5018  -17.3361 C   0  0  0  0  0  0  0  0  0  0  0  0
   18.9147  -19.7561  -17.7596 C   0  0  0  0  0  0  0  0  0  0  0  0
   18.4092  -20.3366  -18.9752 N   0  0  0  0  0  0  0  0  0  0  0  0
   21.3066  -20.2780  -13.2235 C   0  0  0  0  0  0  0  0  0  0  0  0
   20.5231  -19.3538  -12.9217 O   0  0  0  0  0  0  0  0  0  0  0  0
   21.1783  -21.4984  -12.5900 O   0  0  0  0  0  0  0  0  0  0  0  0
  2  1  1  6
  2  3  1  0
  4  2  1  0
  5  4  1  0
  5  6  1  6
  7  5  1  0
  7  8  2  0
  9 10  1  0
 10 20  2  0
 11 10  1  0
 11 12  2  0
 12 13  1  0
 13 19  2  0
 13 14  1  0
 15 14  1  1
 15 16  1  0
 16  7  1  0
 17 15  1  0
 18 17  2  0
 20 19  1  0
 21 17  1  0
 22 23  1  6
 22 21  1  0
 23 24  1  0
 24 25  1  0
 25 26  1  0
 26 27  1  0
 28 30  1  0
 28 22  1  0
 29 28  2  0
M  END
$$$$
