LYK.pdb
     RDKit          3D

 30 30  0  0  1  0  0  0  0  0999 V2000
   29.4661  -17.7972  -17.7161 C   0  0  0  0  0  0  0  0  0  0  0  0
   28.5107  -17.6561  -16.5775 C   0  0  1  0  0  0  0  0  0  0  0  0
   27.5993  -16.4764  -16.8557 C   0  0  0  0  0  0  0  0  0  0  0  0
   27.6954  -18.8780  -16.2801 C   0  0  0  0  0  0  0  0  0  0  0  0
   26.7299  -18.6348  -15.1497 C   0  0  2  0  0  0  0  0  0  0  0  0
   27.3605  -18.2427  -13.9236 N   0  0  0  0  0  0  0  0  0  0  0  0
   25.9129  -19.8520  -14.9641 C   0  0  0  0  0  0  0  0  0  0  0  0
   25.5075  -20.4769  -15.9905 O   0  0  0  0  0  0  0  0  0  0  0  0
   27.1328  -19.2242   -7.9313 O   0  0  0  0  0  0  0  0  0  0  0  0
   26.6294  -19.9718   -8.9934 C   0  0  0  0  0  0  0  0  0  0  0  0
   25.2984  -20.3194   -9.0840 C   0  0  0  0  0  0  0  0  0  0  0  0
   24.8273  -21.0641  -10.1536 C   0  0  0  0  0  0  0  0  0  0  0  0
   25.6493  -21.4936  -11.1731 C   0  0  0  0  0  0  0  0  0  0  0  0
   25.1519  -22.2884  -12.3252 C   0  0  0  0  0  0  0  0  0  0  0  0
   24.7068  -21.3738  -13.4597 C   0  0  2  0  0  0  0  0  0  0  0  0
   25.6114  -20.2768  -13.6395 N   0  0  0  0  0  0  0  0  0  0  0  0
   23.3556  -20.7905  -13.1280 C   0  0  0  0  0  0  0  0  0  0  0  0
   23.2021  -19.9383  -12.2200 O   0  0  0  0  0  0  0  0  0  0  0  0
   26.9884  -21.1454  -11.0841 C   0  0  0  0  0  0  0  0  0  0  0  0
   27.4593  -20.3980  -10.0097 C   0  0  0  0  0  0  0  0  0  0  0  0
   22.2084  -21.2069  -13.8563 N   0  0  0  0  0  0  0  0  0  0  0  0
   20.9309  -20.5919  -13.5972 C   0  0  1  0  0  0  0  0  0  0  0  0
   20.3632  -20.0932  -14.9148 C   0  0  0  0  0  0  0  0  0  0  0  0
   20.6477  -18.6201  -15.0254 C   0  0  0  0  0  0  0  0  0  0  0  0
   21.0405  -18.2283  -16.4467 C   0  0  0  0  0  0  0  0  0  0  0  0
   21.3900  -16.7648  -16.5186 C   0  0  0  0  0  0  0  0  0  0  0  0
   21.7488  -16.4331  -17.8719 N   0  0  0  0  0  0  0  0  0  0  0  0
   20.0064  -21.5433  -12.9385 C   0  0  0  0  0  0  0  0  0  0  0  0
   18.9137  -21.1778  -12.4572 O   0  0  0  0  0  0  0  0  0  0  0  0
   20.3635  -22.8746  -12.8538 O   0  0  0  0  0  0  0  0  0  0  0  0
  2  1  1  6
  2  3  1  0
  4  2  1  0
  5  4  1  0
  5  6  1  1
  7  5  1  0
  7  8  2  0
  9 10  1  0
 10 20  2  0
 11 10  1  0
 11 12  2  0
 12 13  1  0
 13 19  2  0
 13 14  1  0
 15 14  1  1
 15 16  1  0
 16  7  1  0
 17 15  1  0
 18 17  2  0
 20 19  1  0
 21 17  1  0
 22 23  1  6
 22 21  1  0
 23 24  1  0
 24 25  1  0
 25 26  1  0
 26 27  1  0
 28 30  1  0
 28 22  1  0
 29 28  2  0
M  END
$$$$
