LYK.pdb
     RDKit          3D

 30 30  0  0  1  0  0  0  0  0999 V2000
   25.2434  -12.7683  -15.7687 C   0  0  0  0  0  0  0  0  0  0  0  0
   23.8270  -12.3273  -15.9368 C   0  0  1  0  0  0  0  0  0  0  0  0
   22.9148  -13.4687  -15.5310 C   0  0  0  0  0  0  0  0  0  0  0  0
   23.4586  -11.0822  -15.1882 C   0  0  0  0  0  0  0  0  0  0  0  0
   22.0414  -10.6627  -15.4798 C   0  0  2  0  0  0  0  0  0  0  0  0
   21.7069  -10.6817  -16.8736 N   0  0  0  0  0  0  0  0  0  0  0  0
   21.8223   -9.3227  -14.8967 C   0  0  0  0  0  0  0  0  0  0  0  0
   22.0998   -9.1371  -13.6732 O   0  0  0  0  0  0  0  0  0  0  0  0
   22.0531   -0.6662  -14.2404 O   0  0  0  0  0  0  0  0  0  0  0  0
   22.1831   -2.0301  -14.4918 C   0  0  0  0  0  0  0  0  0  0  0  0
   22.1271   -2.9729  -13.4876 C   0  0  0  0  0  0  0  0  0  0  0  0
   22.2595   -4.3233  -13.7694 C   0  0  0  0  0  0  0  0  0  0  0  0
   22.4516   -4.7949  -15.0501 C   0  0  0  0  0  0  0  0  0  0  0  0
   22.5903   -6.2406  -15.3613 C   0  0  0  0  0  0  0  0  0  0  0  0
   21.2523   -6.9548  -15.2150 C   0  0  2  0  0  0  0  0  0  0  0  0
   21.3075   -8.2908  -15.7308 N   0  0  0  0  0  0  0  0  0  0  0  0
   20.2029   -6.2126  -16.0049 C   0  0  0  0  0  0  0  0  0  0  0  0
   20.1936   -6.2059  -17.2595 O   0  0  0  0  0  0  0  0  0  0  0  0
   22.5085   -3.8485  -16.0618 C   0  0  0  0  0  0  0  0  0  0  0  0
   22.3755   -2.4936  -15.7769 C   0  0  0  0  0  0  0  0  0  0  0  0
   19.1842   -5.4925  -15.3240 N   0  0  0  0  0  0  0  0  0  0  0  0
   18.1510   -4.8255  -16.0758 C   0  0  1  0  0  0  0  0  0  0  0  0
   16.8418   -5.5609  -15.8476 C   0  0  0  0  0  0  0  0  0  0  0  0
   15.7867   -4.9292  -16.7142 C   0  0  0  0  0  0  0  0  0  0  0  0
   14.4392   -5.6278  -16.5592 C   0  0  0  0  0  0  0  0  0  0  0  0
   13.4387   -5.0795  -17.5428 C   0  0  0  0  0  0  0  0  0  0  0  0
   12.1549   -5.6782  -17.2905 N   0  0  0  0  0  0  0  0  0  0  0  0
   18.0437   -3.4011  -15.6844 C   0  0  0  0  0  0  0  0  0  0  0  0
   17.3286   -2.5943  -16.3145 O   0  0  0  0  0  0  0  0  0  0  0  0
   18.7558   -2.9516  -14.5900 O   0  0  0  0  0  0  0  0  0  0  0  0
  2  1  1  1
  2  3  1  0
  4  2  1  0
  5  4  1  0
  5  6  1  6
  7  5  1  0
  7  8  2  0
  9 10  1  0
 10 20  2  0
 11 10  1  0
 11 12  2  0
 12 13  1  0
 13 19  2  0
 13 14  1  0
 15 14  1  6
 15 16  1  0
 16  7  1  0
 17 15  1  0
 18 17  2  0
 20 19  1  0
 21 17  1  0
 22 23  1  1
 22 21  1  0
 23 24  1  0
 24 25  1  0
 25 26  1  0
 26 27  1  0
 28 30  1  0
 28 22  1  0
 29 28  2  0
M  END
$$$$
