AID.pdb
     RDKit          3D

 22 21  0  0  1  0  0  0  0  0999 V2000
   20.2827  -11.8748  -18.6483 C   0  0  0  0  0  0  0  0  0  0  0  0
   21.5416  -12.5548  -18.1403 C   0  0  2  0  0  0  0  0  0  0  0  0
   21.1738  -13.8375  -17.5886 N   0  0  0  0  0  0  0  0  0  0  0  0
   22.0438  -11.7070  -17.0001 C   0  0  0  0  0  0  0  0  0  0  0  0
   21.4098  -11.7504  -15.9428 O   0  0  0  0  0  0  0  0  0  0  0  0
   27.0720  -11.8132  -15.4031 C   0  0  0  0  0  0  0  0  0  0  0  0
   25.5801  -11.5932  -15.4905 C   0  0  0  0  0  0  0  0  0  0  0  0
   25.2134  -10.1884  -15.9461 C   0  0  2  0  0  0  0  0  0  0  0  0
   25.6285   -9.3223  -14.7608 C   0  0  0  0  0  0  0  0  0  0  0  0
   23.7154  -10.1307  -16.0189 C   0  0  2  0  0  0  0  0  0  0  0  0
   23.1623  -10.9036  -17.0974 N   0  0  0  0  0  0  0  0  0  0  0  0
   23.1894   -8.7765  -16.1794 C   0  0  0  0  0  0  0  0  0  0  0  0
   23.5077   -8.1207  -17.2532 O   0  0  0  0  0  0  0  0  0  0  0  0
   22.3599   -8.0551  -15.3188 N   0  0  0  0  0  0  0  0  0  0  0  0
   22.0138   -6.6434  -15.5342 C   0  0  1  0  0  0  0  0  0  0  0  0
   20.5195   -6.5886  -15.5680 C   0  0  0  0  0  0  0  0  0  0  0  0
   19.9295   -5.2543  -15.5988 C   0  0  0  0  0  0  0  0  0  0  0  0
   20.4869   -4.3927  -16.3363 O   0  0  0  0  0  0  0  0  0  0  0  0
   22.6118   -5.9032  -14.4007 C   0  0  0  0  0  0  0  0  0  0  0  0
   22.7646   -4.6604  -14.4483 O   0  0  0  0  0  0  0  0  0  0  0  0
   18.8164   -4.8281  -14.9007 O   0  0  0  0  0  0  0  0  0  0  0  0
   23.0280   -6.5387  -13.2434 O   0  0  0  0  0  0  0  0  0  0  0  0
  2  1  1  1
  2  3  1  0
  4  5  2  0
  4  2  1  0
  7  6  1  0
  7  8  1  0
  8 10  1  0
  8  9  1  1
 10 12  1  0
 10 11  1  6
 11  4  1  0
 12 13  2  0
 14 15  1  0
 14 12  1  0
 15 16  1  1
 16 17  1  0
 17 21  1  0
 18 17  2  0
 19 15  1  0
 20 19  2  0
 22 19  1  0
M  END
$$$$
