AID.pdb
     RDKit          3D

 22 21  0  0  1  0  0  0  0  0999 V2000
   22.5810  -11.9402  -20.9012 C   0  0  0  0  0  0  0  0  0  0  0  0
   23.2692  -12.8675  -19.9155 C   0  0  2  0  0  0  0  0  0  0  0  0
   22.5428  -14.1151  -19.8826 N   0  0  0  0  0  0  0  0  0  0  0  0
   23.1148  -12.2265  -18.5604 C   0  0  0  0  0  0  0  0  0  0  0  0
   22.0124  -12.3191  -18.0147 O   0  0  0  0  0  0  0  0  0  0  0  0
   27.1751  -12.3028  -14.9805 C   0  0  0  0  0  0  0  0  0  0  0  0
   25.7764  -12.2354  -15.5469 C   0  0  0  0  0  0  0  0  0  0  0  0
   25.3540  -10.8212  -15.9172 C   0  0  2  0  0  0  0  0  0  0  0  0
   25.0619  -10.1828  -14.5629 C   0  0  0  0  0  0  0  0  0  0  0  0
   24.0402  -10.9322  -16.6342 C   0  0  2  0  0  0  0  0  0  0  0  0
   24.1410  -11.5558  -17.9255 N   0  0  0  0  0  0  0  0  0  0  0  0
   23.3843   -9.6449  -16.8560 C   0  0  0  0  0  0  0  0  0  0  0  0
   23.9297   -8.8178  -17.6943 O   0  0  0  0  0  0  0  0  0  0  0  0
   22.2106   -9.1534  -16.2817 N   0  0  0  0  0  0  0  0  0  0  0  0
   21.6771   -7.8144  -16.5677 C   0  0  1  0  0  0  0  0  0  0  0  0
   20.3046   -8.0302  -17.1217 C   0  0  0  0  0  0  0  0  0  0  0  0
   19.4894   -6.8322  -17.2941 C   0  0  0  0  0  0  0  0  0  0  0  0
   20.0295   -5.8428  -17.8653 O   0  0  0  0  0  0  0  0  0  0  0  0
   21.6917   -7.0895  -15.2776 C   0  0  0  0  0  0  0  0  0  0  0  0
   21.5752   -7.7014  -14.1903 O   0  0  0  0  0  0  0  0  0  0  0  0
   18.1779   -6.6623  -16.8950 O   0  0  0  0  0  0  0  0  0  0  0  0
   21.8333   -5.7142  -15.2069 O   0  0  0  0  0  0  0  0  0  0  0  0
  2  1  1  6
  2  3  1  0
  4  5  2  0
  4  2  1  0
  7  6  1  0
  7  8  1  0
  8 10  1  0
  8  9  1  1
 10 12  1  0
 10 11  1  6
 11  4  1  0
 12 13  2  0
 14 15  1  0
 14 12  1  0
 15 16  1  1
 16 17  1  0
 17 21  1  0
 18 17  2  0
 19 15  1  0
 20 19  2  0
 22 19  1  0
M  END
$$$$
