AID.pdb
     RDKit          3D

 22 21  0  0  1  0  0  0  0  0999 V2000
   21.6611  -22.9690   -8.2634 C   0  0  0  0  0  0  0  0  0  0  0  0
   21.9354  -21.6498   -7.5635 C   0  0  2  0  0  0  0  0  0  0  0  0
   20.7465  -20.8348   -7.6486 N   0  0  0  0  0  0  0  0  0  0  0  0
   23.0056  -20.9622   -8.3717 C   0  0  0  0  0  0  0  0  0  0  0  0
   22.6350  -20.1550   -9.2276 O   0  0  0  0  0  0  0  0  0  0  0  0
   27.8665  -19.5411   -6.2188 C   0  0  0  0  0  0  0  0  0  0  0  0
   26.6419  -19.5533   -7.1032 C   0  0  0  0  0  0  0  0  0  0  0  0
   26.7312  -20.5768   -8.2258 C   0  0  2  0  0  0  0  0  0  0  0  0
   27.7441  -19.9532   -9.1809 C   0  0  0  0  0  0  0  0  0  0  0  0
   25.4074  -20.5650   -8.9328 C   0  0  2  0  0  0  0  0  0  0  0  0
   24.3533  -21.2000   -8.1898 N   0  0  0  0  0  0  0  0  0  0  0  0
   25.4357  -21.2221  -10.2382 C   0  0  0  0  0  0  0  0  0  0  0  0
   25.4810  -22.5188  -10.2686 O   0  0  0  0  0  0  0  0  0  0  0  0
   25.4166  -20.6416  -11.5077 N   0  0  0  0  0  0  0  0  0  0  0  0
   25.3842  -21.4274  -12.7489 C   0  0  1  0  0  0  0  0  0  0  0  0
   24.0744  -21.1128  -13.3987 C   0  0  0  0  0  0  0  0  0  0  0  0
   23.8668  -21.6813  -14.7266 C   0  0  0  0  0  0  0  0  0  0  0  0
   24.5939  -22.6609  -15.0560 O   0  0  0  0  0  0  0  0  0  0  0  0
   26.5595  -20.9903  -13.5349 C   0  0  0  0  0  0  0  0  0  0  0  0
   27.0199  -19.8305  -13.4195 O   0  0  0  0  0  0  0  0  0  0  0  0
   22.9521  -21.2584  -15.6713 O   0  0  0  0  0  0  0  0  0  0  0  0
   27.2029  -21.8305  -14.4274 O   0  0  0  0  0  0  0  0  0  0  0  0
  2  1  1  6
  2  3  1  0
  4  5  2  0
  4  2  1  0
  7  6  1  0
  7  8  1  0
  8 10  1  0
  8  9  1  6
 10 12  1  0
 10 11  1  1
 11  4  1  0
 12 13  2  0
 14 15  1  0
 14 12  1  0
 15 16  1  6
 16 17  1  0
 17 21  1  0
 18 17  2  0
 19 15  1  0
 20 19  2  0
 22 19  1  0
M  END
$$$$
