AID.pdb
     RDKit          3D

 22 21  0  0  1  0  0  0  0  0999 V2000
   27.6997  -36.1908  -11.3220 C   0  0  0  0  0  0  0  0  0  0  0  0
   26.6955  -35.0652  -11.4949 C   0  0  2  0  0  0  0  0  0  0  0  0
   27.1227  -34.2416  -12.6014 N   0  0  0  0  0  0  0  0  0  0  0  0
   26.7927  -34.2228  -10.2491 C   0  0  0  0  0  0  0  0  0  0  0  0
   27.7317  -33.4260  -10.1787 O   0  0  0  0  0  0  0  0  0  0  0  0
   22.8455  -31.2684   -8.7255 C   0  0  0  0  0  0  0  0  0  0  0  0
   24.2103  -31.8998   -8.8687 C   0  0  0  0  0  0  0  0  0  0  0  0
   24.5339  -32.8741   -7.7455 C   0  0  2  0  0  0  0  0  0  0  0  0
   24.7175  -31.9598   -6.5383 C   0  0  0  0  0  0  0  0  0  0  0  0
   25.8811  -33.4605   -8.0516 C   0  0  2  0  0  0  0  0  0  0  0  0
   25.8878  -34.3113   -9.2102 N   0  0  0  0  0  0  0  0  0  0  0  0
   26.4331  -34.2593   -6.9590 C   0  0  0  0  0  0  0  0  0  0  0  0
   25.8872  -35.4094   -6.7068 O   0  0  0  0  0  0  0  0  0  0  0  0
   27.5044  -33.9610   -6.1150 N   0  0  0  0  0  0  0  0  0  0  0  0
   27.9066  -34.8218   -4.9941 C   0  0  1  0  0  0  0  0  0  0  0  0
   29.3156  -34.4393   -4.6691 C   0  0  0  0  0  0  0  0  0  0  0  0
   29.9143  -35.1182   -3.5245 C   0  0  0  0  0  0  0  0  0  0  0  0
   31.1060  -34.8166   -3.2320 O   0  0  0  0  0  0  0  0  0  0  0  0
   26.9462  -34.5406   -3.9038 C   0  0  0  0  0  0  0  0  0  0  0  0
   26.5393  -33.3759   -3.6845 O   0  0  0  0  0  0  0  0  0  0  0  0
   29.3118  -36.0652   -2.7192 O   0  0  0  0  0  0  0  0  0  0  0  0
   26.4542  -35.5384   -3.0799 O   0  0  0  0  0  0  0  0  0  0  0  0
  2  1  1  1
  2  3  1  0
  4  5  2  0
  4  2  1  0
  7  6  1  0
  7  8  1  0
  8 10  1  0
  8  9  1  1
 10 12  1  0
 10 11  1  6
 11  4  1  0
 12 13  2  0
 14 15  1  0
 14 12  1  0
 15 16  1  1
 16 17  1  0
 17 21  1  0
 18 17  2  0
 19 15  1  0
 20 19  2  0
 22 19  1  0
M  END
$$$$
