AID.pdb
     RDKit          3D

 22 21  0  0  1  0  0  0  0  0999 V2000
   27.2973  -19.0183  -15.8724 C   0  0  0  0  0  0  0  0  0  0  0  0
   27.8891  -20.0442  -14.9224 C   0  0  2  0  0  0  0  0  0  0  0  0
   28.4696  -21.1082  -15.7074 N   0  0  0  0  0  0  0  0  0  0  0  0
   26.7265  -20.6327  -14.1653 C   0  0  0  0  0  0  0  0  0  0  0  0
   26.1541  -21.6001  -14.6731 O   0  0  0  0  0  0  0  0  0  0  0  0
   26.8060  -20.6024   -8.7639 C   0  0  0  0  0  0  0  0  0  0  0  0
   26.4444  -21.0659  -10.1554 C   0  0  0  0  0  0  0  0  0  0  0  0
   25.2475  -20.3260  -10.7347 C   0  0  2  0  0  0  0  0  0  0  0  0
   24.0604  -21.0215  -10.0758 C   0  0  0  0  0  0  0  0  0  0  0  0
   25.1902  -20.6658  -12.1955 C   0  0  2  0  0  0  0  0  0  0  0  0
   26.2922  -20.1371  -12.9521 N   0  0  0  0  0  0  0  0  0  0  0  0
   23.9778  -20.1906  -12.8593 C   0  0  0  0  0  0  0  0  0  0  0  0
   23.7420  -18.9144  -12.8605 O   0  0  0  0  0  0  0  0  0  0  0  0
   22.9982  -20.9324  -13.5220 N   0  0  0  0  0  0  0  0  0  0  0  0
   21.7850  -20.3307  -14.0925 C   0  0  1  0  0  0  0  0  0  0  0  0
   21.5290  -21.0606  -15.3726 C   0  0  0  0  0  0  0  0  0  0  0  0
   20.2814  -20.7346  -16.0557 C   0  0  0  0  0  0  0  0  0  0  0  0
   19.8992  -19.5307  -16.0179 O   0  0  0  0  0  0  0  0  0  0  0  0
   20.7248  -20.5185  -13.0772 C   0  0  0  0  0  0  0  0  0  0  0  0
   20.7072  -21.5318  -12.3401 O   0  0  0  0  0  0  0  0  0  0  0  0
   19.4651  -21.6101  -16.7451 O   0  0  0  0  0  0  0  0  0  0  0  0
   19.7102  -19.5951  -12.8920 O   0  0  0  0  0  0  0  0  0  0  0  0
  2  1  1  6
  2  3  1  0
  4  5  2  0
  4  2  1  0
  7  6  1  0
  7  8  1  0
  8 10  1  0
  8  9  1  1
 10 12  1  0
 10 11  1  6
 11  4  1  0
 12 13  2  0
 14 15  1  0
 14 12  1  0
 15 16  1  6
 16 17  1  0
 17 21  1  0
 18 17  2  0
 19 15  1  0
 20 19  2  0
 22 19  1  0
M  END
$$$$
