AID.pdb
     RDKit          3D

 22 21  0  0  1  0  0  0  0  0999 V2000
   17.5748   -9.2707  -18.2340 C   0  0  0  0  0  0  0  0  0  0  0  0
   18.2003  -10.4292  -17.4778 C   0  0  2  0  0  0  0  0  0  0  0  0
   17.1390  -11.2218  -16.9027 N   0  0  0  0  0  0  0  0  0  0  0  0
   18.9681   -9.8167  -16.3348 C   0  0  0  0  0  0  0  0  0  0  0  0
   18.3592   -9.6393  -15.2769 O   0  0  0  0  0  0  0  0  0  0  0  0
   23.5624  -11.8160  -14.7505 C   0  0  0  0  0  0  0  0  0  0  0  0
   22.2640  -11.0515  -14.8576 C   0  0  0  0  0  0  0  0  0  0  0  0
   22.4623   -9.6014  -15.2744 C   0  0  2  0  0  0  0  0  0  0  0  0
   23.1690   -8.9898  -14.0687 C   0  0  0  0  0  0  0  0  0  0  0  0
   21.0995   -8.9761  -15.3387 C   0  0  2  0  0  0  0  0  0  0  0  0
   20.2975   -9.4567  -16.4306 N   0  0  0  0  0  0  0  0  0  0  0  0
   21.1294   -7.5204  -15.4681 C   0  0  0  0  0  0  0  0  0  0  0  0
   21.6742   -7.0126  -16.5310 O   0  0  0  0  0  0  0  0  0  0  0  0
   20.6371   -6.5559  -14.5869 N   0  0  0  0  0  0  0  0  0  0  0  0
   20.8032   -5.1121  -14.8033 C   0  0  1  0  0  0  0  0  0  0  0  0
   19.4535   -4.5069  -14.5818 C   0  0  0  0  0  0  0  0  0  0  0  0
   19.3984   -3.0486  -14.5869 C   0  0  0  0  0  0  0  0  0  0  0  0
   20.1712   -2.4437  -15.3830 O   0  0  0  0  0  0  0  0  0  0  0  0
   21.8219   -4.6713  -13.8244 C   0  0  0  0  0  0  0  0  0  0  0  0
   22.2703   -3.5012  -13.8399 O   0  0  0  0  0  0  0  0  0  0  0  0
   18.5845   -2.2510  -13.8062 O   0  0  0  0  0  0  0  0  0  0  0  0
   22.3256   -5.5191  -12.8529 O   0  0  0  0  0  0  0  0  0  0  0  0
  2  1  1  6
  2  3  1  0
  4  5  2  0
  4  2  1  0
  7  6  1  0
  7  8  1  0
  8 10  1  0
  8  9  1  1
 10 12  1  0
 10 11  1  6
 11  4  1  0
 12 13  2  0
 14 15  1  0
 14 12  1  0
 15 16  1  1
 16 17  1  0
 17 21  1  0
 18 17  2  0
 19 15  1  0
 20 19  2  0
 22 19  1  0
M  END
$$$$
