AID.pdb
     RDKit          3D

 22 21  0  0  1  0  0  0  0  0999 V2000
   27.3482  -19.6273  -16.0109 C   0  0  0  0  0  0  0  0  0  0  0  0
   28.0164  -20.4875  -14.9531 C   0  0  2  0  0  0  0  0  0  0  0  0
   28.6116  -21.6296  -15.6062 N   0  0  0  0  0  0  0  0  0  0  0  0
   26.9076  -21.0053  -14.0734 C   0  0  0  0  0  0  0  0  0  0  0  0
   26.3096  -22.0145  -14.4546 O   0  0  0  0  0  0  0  0  0  0  0  0
   27.4378  -20.5044   -8.7314 C   0  0  0  0  0  0  0  0  0  0  0  0
   26.9054  -21.1481   -9.9900 C   0  0  0  0  0  0  0  0  0  0  0  0
   25.7096  -20.4097  -10.5736 C   0  0  2  0  0  0  0  0  0  0  0  0
   24.5360  -20.9686   -9.7753 C   0  0  0  0  0  0  0  0  0  0  0  0
   25.5429  -20.8958  -11.9837 C   0  0  2  0  0  0  0  0  0  0  0  0
   26.5485  -20.4023  -12.8846 N   0  0  0  0  0  0  0  0  0  0  0  0
   24.2561  -20.5379  -12.5774 C   0  0  0  0  0  0  0  0  0  0  0  0
   24.0233  -19.2847  -12.8215 O   0  0  0  0  0  0  0  0  0  0  0  0
   23.1992  -21.3752  -12.9394 N   0  0  0  0  0  0  0  0  0  0  0  0
   21.9527  -20.8802  -13.5397 C   0  0  1  0  0  0  0  0  0  0  0  0
   21.5398  -21.9148  -14.5377 C   0  0  0  0  0  0  0  0  0  0  0  0
   20.3064  -21.6415  -15.2684 C   0  0  0  0  0  0  0  0  0  0  0  0
   19.7733  -20.5084  -15.0992 O   0  0  0  0  0  0  0  0  0  0  0  0
   21.0000  -20.7199  -12.4186 C   0  0  0  0  0  0  0  0  0  0  0  0
   21.0075  -21.5092  -11.4454 O   0  0  0  0  0  0  0  0  0  0  0  0
   19.6527  -22.4978  -16.1329 O   0  0  0  0  0  0  0  0  0  0  0  0
   20.0626  -19.7016  -12.3883 O   0  0  0  0  0  0  0  0  0  0  0  0
  2  1  1  6
  2  3  1  0
  4  5  2  0
  4  2  1  0
  7  6  1  0
  7  8  1  0
  8 10  1  0
  8  9  1  1
 10 12  1  0
 10 11  1  6
 11  4  1  0
 12 13  2  0
 14 15  1  0
 14 12  1  0
 15 16  1  6
 16 17  1  0
 17 21  1  0
 18 17  2  0
 19 15  1  0
 20 19  2  0
 22 19  1  0
M  END
$$$$
