AID.pdb
     RDKit          3D

 22 21  0  0  1  0  0  0  0  0999 V2000
   22.0910  -10.4899  -21.0585 C   0  0  0  0  0  0  0  0  0  0  0  0
   23.0746  -11.4284  -20.3826 C   0  0  2  0  0  0  0  0  0  0  0  0
   22.5025  -12.7542  -20.3711 N   0  0  0  0  0  0  0  0  0  0  0  0
   23.1708  -10.9723  -18.9495 C   0  0  0  0  0  0  0  0  0  0  0  0
   22.2161  -11.2271  -18.2111 O   0  0  0  0  0  0  0  0  0  0  0  0
   27.5783  -11.7332  -16.0750 C   0  0  0  0  0  0  0  0  0  0  0  0
   26.1480  -11.4670  -16.4818 C   0  0  0  0  0  0  0  0  0  0  0  0
   25.8238   -9.9830  -16.5733 C   0  0  2  0  0  0  0  0  0  0  0  0
   25.7967   -9.5454  -15.1122 C   0  0  0  0  0  0  0  0  0  0  0  0
   24.4161   -9.8749  -17.0823 C   0  0  2  0  0  0  0  0  0  0  0  0
   24.2650  -10.2958  -18.4485 N   0  0  0  0  0  0  0  0  0  0  0  0
   23.8715   -8.5203  -17.0131 C   0  0  0  0  0  0  0  0  0  0  0  0
   24.2977   -7.6458  -17.8722 O   0  0  0  0  0  0  0  0  0  0  0  0
   22.9212   -8.0061  -16.1289 N   0  0  0  0  0  0  0  0  0  0  0  0
   22.4561   -6.6130  -16.1721 C   0  0  1  0  0  0  0  0  0  0  0  0
   21.0859   -6.6571  -16.7700 C   0  0  0  0  0  0  0  0  0  0  0  0
   20.3576   -5.3927  -16.7930 C   0  0  0  0  0  0  0  0  0  0  0  0
   20.9781   -4.3612  -16.4084 O   0  0  0  0  0  0  0  0  0  0  0  0
   22.4800   -6.1353  -14.7716 C   0  0  0  0  0  0  0  0  0  0  0  0
   22.2769   -6.9208  -13.8166 O   0  0  0  0  0  0  0  0  0  0  0  0
   19.0495   -5.2011  -17.1935 O   0  0  0  0  0  0  0  0  0  0  0  0
   22.7251   -4.8116  -14.4487 O   0  0  0  0  0  0  0  0  0  0  0  0
  2  1  1  6
  2  3  1  0
  4  5  2  0
  4  2  1  0
  7  6  1  0
  7  8  1  0
  8 10  1  0
  8  9  1  1
 10 12  1  0
 10 11  1  6
 11  4  1  0
 12 13  2  0
 14 15  1  0
 14 12  1  0
 15 16  1  1
 16 17  1  0
 17 21  1  0
 18 17  2  0
 19 15  1  0
 20 19  2  0
 22 19  1  0
M  END
$$$$
