AID.pdb
     RDKit          3D

 22 21  0  0  1  0  0  0  0  0999 V2000
   26.8384  -20.0793  -16.0922 C   0  0  0  0  0  0  0  0  0  0  0  0
   27.4699  -20.8261  -14.9308 C   0  0  2  0  0  0  0  0  0  0  0  0
   28.0971  -22.0203  -15.4462 N   0  0  0  0  0  0  0  0  0  0  0  0
   26.3308  -21.2668  -14.0481 C   0  0  0  0  0  0  0  0  0  0  0  0
   25.7588  -22.3178  -14.3476 O   0  0  0  0  0  0  0  0  0  0  0  0
   26.7102  -20.4758   -8.7535 C   0  0  0  0  0  0  0  0  0  0  0  0
   26.2457  -21.1177  -10.0397 C   0  0  0  0  0  0  0  0  0  0  0  0
   25.0397  -20.4184  -10.6498 C   0  0  2  0  0  0  0  0  0  0  0  0
   23.8746  -20.9603   -9.8276 C   0  0  0  0  0  0  0  0  0  0  0  0
   24.8772  -20.9621  -12.0391 C   0  0  2  0  0  0  0  0  0  0  0  0
   25.9168  -20.5508  -12.9426 N   0  0  0  0  0  0  0  0  0  0  0  0
   23.6160  -20.5813  -12.6724 C   0  0  0  0  0  0  0  0  0  0  0  0
   23.3723  -19.3173  -12.8371 O   0  0  0  0  0  0  0  0  0  0  0  0
   22.5953  -21.4059  -13.1491 N   0  0  0  0  0  0  0  0  0  0  0  0
   21.3553  -20.8865  -13.7423 C   0  0  1  0  0  0  0  0  0  0  0  0
   20.8213  -21.9865  -14.6036 C   0  0  0  0  0  0  0  0  0  0  0  0
   19.5522  -21.7165  -15.2714 C   0  0  0  0  0  0  0  0  0  0  0  0
   19.0712  -20.5542  -15.1504 O   0  0  0  0  0  0  0  0  0  0  0  0
   20.4759  -20.5413  -12.6032 C   0  0  0  0  0  0  0  0  0  0  0  0
   20.3492  -21.3155  -11.6260 O   0  0  0  0  0  0  0  0  0  0  0  0
   18.8130  -22.6044  -16.0285 O   0  0  0  0  0  0  0  0  0  0  0  0
   19.7568  -19.3592  -12.5595 O   0  0  0  0  0  0  0  0  0  0  0  0
  2  1  1  6
  2  3  1  0
  4  5  2  0
  4  2  1  0
  7  6  1  0
  7  8  1  0
  8 10  1  0
  8  9  1  1
 10 12  1  0
 10 11  1  6
 11  4  1  0
 12 13  2  0
 14 15  1  0
 14 12  1  0
 15 16  1  6
 16 17  1  0
 17 21  1  0
 18 17  2  0
 19 15  1  0
 20 19  2  0
 22 19  1  0
M  END
$$$$
