AID.pdb
     RDKit          3D

 22 21  0  0  1  0  0  0  0  0999 V2000
   21.6878  -10.9319  -20.7054 C   0  0  0  0  0  0  0  0  0  0  0  0
   22.9997  -11.4496  -20.1432 C   0  0  2  0  0  0  0  0  0  0  0  0
   22.9289  -12.8904  -20.0784 N   0  0  0  0  0  0  0  0  0  0  0  0
   23.0762  -10.9433  -18.7259 C   0  0  0  0  0  0  0  0  0  0  0  0
   22.1248  -11.1986  -17.9834 O   0  0  0  0  0  0  0  0  0  0  0  0
   27.3361  -11.8231  -15.7375 C   0  0  0  0  0  0  0  0  0  0  0  0
   25.9261  -11.4802  -16.1572 C   0  0  0  0  0  0  0  0  0  0  0  0
   25.7148   -9.9872  -16.3620 C   0  0  2  0  0  0  0  0  0  0  0  0
   25.7320   -9.4382  -14.9388 C   0  0  0  0  0  0  0  0  0  0  0  0
   24.3155   -9.8113  -16.8754 C   0  0  2  0  0  0  0  0  0  0  0  0
   24.1493  -10.2213  -18.2431 N   0  0  0  0  0  0  0  0  0  0  0  0
   23.8355   -8.4325  -16.8044 C   0  0  0  0  0  0  0  0  0  0  0  0
   24.4220   -7.5426  -17.5449 O   0  0  0  0  0  0  0  0  0  0  0  0
   22.7971   -7.9089  -16.0320 N   0  0  0  0  0  0  0  0  0  0  0  0
   22.4545   -6.4802  -16.0110 C   0  0  1  0  0  0  0  0  0  0  0  0
   21.0032   -6.4019  -16.3643 C   0  0  0  0  0  0  0  0  0  0  0  0
   20.4045   -5.0720  -16.3158 C   0  0  0  0  0  0  0  0  0  0  0  0
   21.1872   -4.0907  -16.1700 O   0  0  0  0  0  0  0  0  0  0  0  0
   22.7604   -6.0112  -14.6411 C   0  0  0  0  0  0  0  0  0  0  0  0
   22.4993   -6.7201  -13.6413 O   0  0  0  0  0  0  0  0  0  0  0  0
   19.0605   -4.7682  -16.4124 O   0  0  0  0  0  0  0  0  0  0  0  0
   23.3438   -4.7797  -14.3971 O   0  0  0  0  0  0  0  0  0  0  0  0
  2  1  1  1
  2  3  1  0
  4  5  2  0
  4  2  1  0
  7  6  1  0
  7  8  1  0
  8 10  1  0
  8  9  1  1
 10 12  1  0
 10 11  1  6
 11  4  1  0
 12 13  2  0
 14 15  1  0
 14 12  1  0
 15 16  1  1
 16 17  1  0
 17 21  1  0
 18 17  2  0
 19 15  1  0
 20 19  2  0
 22 19  1  0
M  END
$$$$
