AID.pdb
     RDKit          3D

 22 21  0  0  1  0  0  0  0  0999 V2000
   19.7428  -21.7059  -13.4346 C   0  0  0  0  0  0  0  0  0  0  0  0
   20.3021  -21.2221  -12.1086 C   0  0  2  0  0  0  0  0  0  0  0  0
   19.4111  -20.2162  -11.5799 N   0  0  0  0  0  0  0  0  0  0  0  0
   21.6060  -20.5380  -12.4293 C   0  0  0  0  0  0  0  0  0  0  0  0
   21.5570  -19.3428  -12.7302 O   0  0  0  0  0  0  0  0  0  0  0  0
   25.8518  -20.9913   -9.2581 C   0  0  0  0  0  0  0  0  0  0  0  0
   24.8705  -20.5191  -10.3050 C   0  0  0  0  0  0  0  0  0  0  0  0
   25.1750  -21.0651  -11.6924 C   0  0  2  0  0  0  0  0  0  0  0  0
   26.4571  -20.3334  -12.0770 C   0  0  0  0  0  0  0  0  0  0  0  0
   24.0980  -20.5581  -12.6064 C   0  0  2  0  0  0  0  0  0  0  0  0
   22.8232  -21.1889  -12.3979 N   0  0  0  0  0  0  0  0  0  0  0  0
   24.4069  -20.7280  -14.0249 C   0  0  0  0  0  0  0  0  0  0  0  0
   24.4174  -21.9326  -14.5079 O   0  0  0  0  0  0  0  0  0  0  0  0
   24.7002  -19.7501  -14.9771 N   0  0  0  0  0  0  0  0  0  0  0  0
   24.8121  -20.0372  -16.4139 C   0  0  1  0  0  0  0  0  0  0  0  0
   23.4337  -19.8772  -16.9720 C   0  0  0  0  0  0  0  0  0  0  0  0
   23.3139  -19.9930  -18.4217 C   0  0  0  0  0  0  0  0  0  0  0  0
   24.1467  -20.7371  -19.0130 O   0  0  0  0  0  0  0  0  0  0  0  0
   25.7878  -19.0601  -16.9465 C   0  0  0  0  0  0  0  0  0  0  0  0
   26.1383  -19.0861  -18.1493 O   0  0  0  0  0  0  0  0  0  0  0  0
   22.3787  -19.3696  -19.2247 O   0  0  0  0  0  0  0  0  0  0  0  0
   26.3565  -18.0791  -16.1523 O   0  0  0  0  0  0  0  0  0  0  0  0
  2  1  1  6
  2  3  1  0
  4  5  2  0
  4  2  1  0
  7  6  1  0
  7  8  1  0
  8 10  1  0
  8  9  1  6
 10 12  1  0
 10 11  1  1
 11  4  1  0
 12 13  2  0
 14 15  1  0
 14 12  1  0
 15 16  1  6
 16 17  1  0
 17 21  1  0
 18 17  2  0
 19 15  1  0
 20 19  2  0
 22 19  1  0
M  END
$$$$
