AID.pdb
     RDKit          3D

 22 21  0  0  1  0  0  0  0  0999 V2000
   18.0462  -11.6202  -18.4936 C   0  0  0  0  0  0  0  0  0  0  0  0
   19.0501  -12.1487  -17.4846 C   0  0  2  0  0  0  0  0  0  0  0  0
   18.3747  -13.0897  -16.6222 N   0  0  0  0  0  0  0  0  0  0  0  0
   19.4473  -10.9703  -16.6333 C   0  0  0  0  0  0  0  0  0  0  0  0
   18.5785  -10.4799  -15.9079 O   0  0  0  0  0  0  0  0  0  0  0  0
   24.2504  -10.8922  -14.2030 C   0  0  0  0  0  0  0  0  0  0  0  0
   22.8041  -10.6362  -14.5559 C   0  0  0  0  0  0  0  0  0  0  0  0
   22.6184   -9.4199  -15.4513 C   0  0  2  0  0  0  0  0  0  0  0  0
   22.8977   -8.2527  -14.5096 C   0  0  0  0  0  0  0  0  0  0  0  0
   21.1601   -9.3537  -15.7999 C   0  0  2  0  0  0  0  0  0  0  0  0
   20.7200  -10.4351  -16.6385 N   0  0  0  0  0  0  0  0  0  0  0  0
   20.7794   -8.1237  -16.4917 C   0  0  0  0  0  0  0  0  0  0  0  0
   21.2587   -7.9176  -17.6800 O   0  0  0  0  0  0  0  0  0  0  0  0
   19.9412   -7.0981  -16.0502 N   0  0  0  0  0  0  0  0  0  0  0  0
   19.7048   -5.8683  -16.8189 C   0  0  1  0  0  0  0  0  0  0  0  0
   18.3037   -5.9694  -17.3324 C   0  0  0  0  0  0  0  0  0  0  0  0
   17.7458   -4.7515  -17.9112 C   0  0  0  0  0  0  0  0  0  0  0  0
   18.2999   -4.3003  -18.9535 O   0  0  0  0  0  0  0  0  0  0  0  0
   19.9124   -4.7521  -15.8695 C   0  0  0  0  0  0  0  0  0  0  0  0
   19.8504   -3.5596  -16.2495 O   0  0  0  0  0  0  0  0  0  0  0  0
   16.6667   -4.0316  -17.4364 O   0  0  0  0  0  0  0  0  0  0  0  0
   20.1826   -4.9659  -14.5287 O   0  0  0  0  0  0  0  0  0  0  0  0
  2  1  1  6
  2  3  1  0
  4  5  2  0
  4  2  1  0
  7  6  1  0
  7  8  1  0
  8 10  1  0
  8  9  1  1
 10 12  1  0
 10 11  1  6
 11  4  1  0
 12 13  2  0
 14 15  1  0
 14 12  1  0
 15 16  1  1
 16 17  1  0
 17 21  1  0
 18 17  2  0
 19 15  1  0
 20 19  2  0
 22 19  1  0
M  END
$$$$
