AID.pdb
     RDKit          3D

 22 21  0  0  1  0  0  0  0  0999 V2000
   17.7715  -10.7956  -19.0606 C   0  0  0  0  0  0  0  0  0  0  0  0
   19.0710  -11.5540  -18.8571 C   0  0  2  0  0  0  0  0  0  0  0  0
   18.7560  -12.9489  -18.6566 N   0  0  0  0  0  0  0  0  0  0  0  0
   19.6576  -11.0400  -17.5676 C   0  0  0  0  0  0  0  0  0  0  0  0
   18.9668  -11.1470  -16.5513 O   0  0  0  0  0  0  0  0  0  0  0  0
   24.8249  -10.8471  -14.4389 C   0  0  0  0  0  0  0  0  0  0  0  0
   23.5012  -10.2123  -14.7945 C   0  0  0  0  0  0  0  0  0  0  0  0
   22.9162  -10.7484  -16.0930 C   0  0  2  0  0  0  0  0  0  0  0  0
   23.8306  -10.1486  -17.1566 C   0  0  0  0  0  0  0  0  0  0  0  0
   21.5724  -10.1025  -16.2652 C   0  0  2  0  0  0  0  0  0  0  0  0
   20.9116  -10.4679  -17.4884 N   0  0  0  0  0  0  0  0  0  0  0  0
   21.6195   -8.6417  -16.2509 C   0  0  0  0  0  0  0  0  0  0  0  0
   22.0507   -8.0339  -17.3134 O   0  0  0  0  0  0  0  0  0  0  0  0
   21.2522   -7.7670  -15.2267 N   0  0  0  0  0  0  0  0  0  0  0  0
   21.3659   -6.3063  -15.3397 C   0  0  1  0  0  0  0  0  0  0  0  0
   19.9908   -5.8120  -15.6589 C   0  0  0  0  0  0  0  0  0  0  0  0
   19.8243   -4.3626  -15.6912 C   0  0  0  0  0  0  0  0  0  0  0  0
   20.7393   -3.6878  -16.2428 O   0  0  0  0  0  0  0  0  0  0  0  0
   21.8788   -5.8385  -14.0327 C   0  0  0  0  0  0  0  0  0  0  0  0
   21.9545   -6.6150  -13.0520 O   0  0  0  0  0  0  0  0  0  0  0  0
   18.7634   -3.6424  -15.1775 O   0  0  0  0  0  0  0  0  0  0  0  0
   22.2964   -4.5345  -13.8291 O   0  0  0  0  0  0  0  0  0  0  0  0
  2  1  1  1
  2  3  1  0
  4  5  2  0
  4  2  1  0
  7  6  1  0
  7  8  1  0
  8 10  1  0
  8  9  1  6
 10 12  1  0
 10 11  1  6
 11  4  1  0
 12 13  2  0
 14 15  1  0
 14 12  1  0
 15 16  1  1
 16 17  1  0
 17 21  1  0
 18 17  2  0
 19 15  1  0
 20 19  2  0
 22 19  1  0
M  END
$$$$
