EHN.pdb
     RDKit          3D

 28 28  0  0  1  0  0  0  0  0999 V2000
    8.9491  -18.6452   17.6090 N   0  0  0  0  0  0  0  0  0  0  0  0
   10.1188  -17.8781   17.3175 C   0  0  1  0  0  0  0  0  0  0  0  0
   10.0156  -17.0579   16.0689 C   0  0  0  0  0  0  0  0  0  0  0  0
    9.1154  -17.5833   15.0252 C   0  0  0  0  0  0  0  0  0  0  0  0
    9.7335  -17.9074   13.7400 C   0  0  0  0  0  0  0  0  0  0  0  0
   10.9221  -17.7633   13.4647 O   0  0  0  0  0  0  0  0  0  0  0  0
   10.3708  -16.9215   18.4482 C   0  0  0  0  0  0  0  0  0  0  0  0
   11.2874  -16.0871   18.3318 O   0  0  0  0  0  0  0  0  0  0  0  0
    8.9191  -18.4272   12.7234 O   0  0  0  0  0  0  0  0  0  0  0  0
    9.5463  -17.0157   19.6016 N   0  0  0  0  0  0  0  0  0  0  0  0
    9.7741  -16.1950   20.7491 C   0  0  1  0  0  0  0  0  0  0  0  0
    8.5113  -15.5417   21.2806 C   0  0  0  0  0  0  0  0  0  0  0  0
    7.9928  -14.5196   20.3370 C   0  0  0  0  0  0  0  0  0  0  0  0
    8.2083  -13.1611   20.3951 C   0  0  0  0  0  0  0  0  0  0  0  0
    7.5602  -12.5788   19.3494 N   0  0  0  0  0  0  0  0  0  0  0  0
    6.9475  -13.5280   18.6404 C   0  0  0  0  0  0  0  0  0  0  0  0
    7.2117  -14.7197   19.2447 N   0  0  0  0  0  0  0  0  0  0  0  0
   10.4264  -16.9646   21.8694 C   0  0  0  0  0  0  0  0  0  0  0  0
   10.0790  -18.1363   22.1612 O   0  0  0  0  0  0  0  0  0  0  0  0
   14.2426  -18.2851   25.2954 N   0  0  0  0  0  0  0  0  0  0  0  0
   14.5641  -17.1142   24.5429 C   0  0  0  0  0  0  0  0  0  0  0  0
   15.7138  -16.6313   24.6929 O   0  0  0  0  0  0  0  0  0  0  0  0
   13.6091  -16.4887   23.6310 C   0  0  0  0  0  0  0  0  0  0  0  0
   12.2435  -17.1468   23.5996 C   0  0  2  0  0  0  0  0  0  0  0  0
   11.4664  -16.3841   22.6395 N   0  0  0  0  0  0  0  0  0  0  0  0
   11.5920  -17.1825   24.9281 C   0  0  0  0  0  0  0  0  0  0  0  0
   11.9160  -18.1313   25.8843 O   0  0  0  0  0  0  0  0  0  0  0  0
   10.7066  -16.3343   25.2321 O   0  0  0  0  0  0  0  0  0  0  0  0
  2  1  1  1
  2  3  1  0
  2  7  1  0
  3  4  1  0
  5  4  1  0
  5  6  2  0
  7 10  1  0
  8  7  2  0
  9  5  1  0
 10 11  1  0
 11 12  1  1
 12 13  1  0
 13 17  1  0
 14 13  2  0
 14 15  1  0
 15 16  1  0
 17 16  2  0
 18 19  2  0
 18 11  1  0
 20 21  1  0
 21 22  2  0
 23 21  1  0
 24 23  1  1
 24 25  1  0
 25 18  1  0
 26 24  1  0
 26 27  1  0
 28 26  2  0
M  END
$$$$
