EHN.pdb
     RDKit          3D

 28 28  0  0  1  0  0  0  0  0999 V2000
    9.1180  -18.9025   19.1526 N   0  0  0  0  0  0  0  0  0  0  0  0
   10.2840  -18.0793   19.0854 C   0  0  1  0  0  0  0  0  0  0  0  0
   10.4521  -17.3641   17.7806 C   0  0  0  0  0  0  0  0  0  0  0  0
    9.3324  -17.4884   16.8284 C   0  0  0  0  0  0  0  0  0  0  0  0
    9.4619  -16.7448   15.5758 C   0  0  0  0  0  0  0  0  0  0  0  0
    8.7732  -15.7831   15.2438 O   0  0  0  0  0  0  0  0  0  0  0  0
   10.2011  -17.0255   20.1529 C   0  0  0  0  0  0  0  0  0  0  0  0
   11.1462  -16.2247   20.2767 O   0  0  0  0  0  0  0  0  0  0  0  0
   10.4484  -17.1467   14.6636 O   0  0  0  0  0  0  0  0  0  0  0  0
    9.0416  -16.9935   20.9738 N   0  0  0  0  0  0  0  0  0  0  0  0
    8.8994  -16.0357   22.0249 C   0  0  1  0  0  0  0  0  0  0  0  0
    7.7174  -15.1032   21.8318 C   0  0  0  0  0  0  0  0  0  0  0  0
    7.8614  -14.2966   20.5938 C   0  0  0  0  0  0  0  0  0  0  0  0
    7.1454  -14.4444   19.4273 C   0  0  0  0  0  0  0  0  0  0  0  0
    7.5810  -13.5127   18.5357 N   0  0  0  0  0  0  0  0  0  0  0  0
    8.5447  -12.7884   19.1064 C   0  0  0  0  0  0  0  0  0  0  0  0
    8.7183  -13.2678   20.3693 N   0  0  0  0  0  0  0  0  0  0  0  0
    8.7759  -16.6970   23.3741 C   0  0  0  0  0  0  0  0  0  0  0  0
    7.9265  -17.5951   23.5989 O   0  0  0  0  0  0  0  0  0  0  0  0
   10.7960  -19.9249   26.6312 N   0  0  0  0  0  0  0  0  0  0  0  0
   11.4997  -19.3287   25.5402 C   0  0  0  0  0  0  0  0  0  0  0  0
   12.6711  -19.7272   25.3246 O   0  0  0  0  0  0  0  0  0  0  0  0
   10.8995  -18.2966   24.6980 C   0  0  0  0  0  0  0  0  0  0  0  0
   10.0764  -17.2691   25.4501 C   0  0  2  0  0  0  0  0  0  0  0  0
    9.6251  -16.3223   24.4464 N   0  0  0  0  0  0  0  0  0  0  0  0
   10.8371  -16.6024   26.5306 C   0  0  0  0  0  0  0  0  0  0  0  0
   10.5905  -16.8533   27.8707 O   0  0  0  0  0  0  0  0  0  0  0  0
   11.7479  -15.7713   26.2561 O   0  0  0  0  0  0  0  0  0  0  0  0
  2  1  1  6
  2  3  1  0
  2  7  1  0
  3  4  1  0
  5  4  1  0
  5  6  2  0
  7 10  1  0
  8  7  2  0
  9  5  1  0
 10 11  1  0
 11 12  1  6
 12 13  1  0
 13 17  1  0
 14 13  2  0
 14 15  1  0
 15 16  1  0
 17 16  2  0
 18 19  2  0
 18 11  1  0
 20 21  1  0
 21 22  2  0
 23 21  1  0
 24 23  1  6
 24 25  1  0
 25 18  1  0
 26 24  1  0
 26 27  1  0
 28 26  2  0
M  END
$$$$
