EHN.pdb
     RDKit          3D

 28 28  0  0  1  0  0  0  0  0999 V2000
    9.5284  -18.5115   16.5973 N   0  0  0  0  0  0  0  0  0  0  0  0
   10.7602  -17.7959   16.4860 C   0  0  1  0  0  0  0  0  0  0  0  0
   10.7593  -16.7407   15.4234 C   0  0  0  0  0  0  0  0  0  0  0  0
   10.8305  -17.2264   14.0325 C   0  0  0  0  0  0  0  0  0  0  0  0
    9.5520  -17.4469   13.3574 C   0  0  0  0  0  0  0  0  0  0  0  0
    8.8245  -16.5666   12.9043 O   0  0  0  0  0  0  0  0  0  0  0  0
   11.0429  -17.1030   17.7886 C   0  0  0  0  0  0  0  0  0  0  0  0
   12.1334  -16.5196   17.9306 O   0  0  0  0  0  0  0  0  0  0  0  0
    9.1005  -18.7658   13.2039 O   0  0  0  0  0  0  0  0  0  0  0  0
   10.0466  -17.1471   18.8008 N   0  0  0  0  0  0  0  0  0  0  0  0
   10.2391  -16.5070   20.0639 C   0  0  1  0  0  0  0  0  0  0  0  0
    8.9519  -15.9827   20.6740 C   0  0  0  0  0  0  0  0  0  0  0  0
    8.4239  -14.8243   19.9102 C   0  0  0  0  0  0  0  0  0  0  0  0
    9.0229  -14.2040   18.8370 C   0  0  0  0  0  0  0  0  0  0  0  0
    8.2181  -13.1862   18.4260 N   0  0  0  0  0  0  0  0  0  0  0  0
    7.1370  -13.1502   19.2063 C   0  0  0  0  0  0  0  0  0  0  0  0
    7.2613  -14.1546   20.1178 N   0  0  0  0  0  0  0  0  0  0  0  0
   10.9074  -17.4202   21.0601 C   0  0  0  0  0  0  0  0  0  0  0  0
   10.9265  -18.6674   20.9098 O   0  0  0  0  0  0  0  0  0  0  0  0
   14.6557  -19.8465   23.3272 N   0  0  0  0  0  0  0  0  0  0  0  0
   14.8004  -18.6238   22.6026 C   0  0  0  0  0  0  0  0  0  0  0  0
   15.9605  -18.1562   22.4888 O   0  0  0  0  0  0  0  0  0  0  0  0
   13.6588  -17.9302   22.0107 C   0  0  0  0  0  0  0  0  0  0  0  0
   12.5228  -17.6491   22.9748 C   0  0  2  0  0  0  0  0  0  0  0  0
   11.5442  -16.8944   22.2132 N   0  0  0  0  0  0  0  0  0  0  0  0
   12.9624  -16.9154   24.1827 C   0  0  0  0  0  0  0  0  0  0  0  0
   13.5040  -17.5607   25.2826 O   0  0  0  0  0  0  0  0  0  0  0  0
   12.8536  -15.6584   24.2455 O   0  0  0  0  0  0  0  0  0  0  0  0
  2  1  1  1
  2  3  1  0
  2  7  1  0
  3  4  1  0
  5  4  1  0
  5  6  2  0
  7 10  1  0
  8  7  2  0
  9  5  1  0
 10 11  1  0
 11 12  1  1
 12 13  1  0
 13 17  1  0
 14 13  2  0
 14 15  1  0
 15 16  1  0
 17 16  2  0
 18 19  2  0
 18 11  1  0
 20 21  1  0
 21 22  2  0
 23 21  1  0
 24 23  1  6
 24 25  1  0
 25 18  1  0
 26 24  1  0
 26 27  1  0
 28 26  2  0
M  END
$$$$
