EHN.pdb
     RDKit          3D

 28 28  0  0  1  0  0  0  0  0999 V2000
    9.1614  -18.1578   16.2646 N   0  0  0  0  0  0  0  0  0  0  0  0
   10.4950  -17.6475   16.2114 C   0  0  1  0  0  0  0  0  0  0  0  0
   10.7607  -16.7545   15.0391 C   0  0  0  0  0  0  0  0  0  0  0  0
    9.5928  -16.4291   14.1988 C   0  0  0  0  0  0  0  0  0  0  0  0
    9.8415  -15.5503   13.0567 C   0  0  0  0  0  0  0  0  0  0  0  0
    8.9997  -15.1928   12.2363 O   0  0  0  0  0  0  0  0  0  0  0  0
   10.7575  -16.8346   17.4472 C   0  0  0  0  0  0  0  0  0  0  0  0
   11.8547  -16.2575   17.5609 O   0  0  0  0  0  0  0  0  0  0  0  0
   11.1427  -15.0641   12.8634 O   0  0  0  0  0  0  0  0  0  0  0  0
    9.7351  -16.7631   18.4315 N   0  0  0  0  0  0  0  0  0  0  0  0
    9.9743  -16.1767   19.7126 C   0  0  1  0  0  0  0  0  0  0  0  0
    8.7192  -15.6265   20.3652 C   0  0  0  0  0  0  0  0  0  0  0  0
    8.0567  -14.6187   19.4994 C   0  0  0  0  0  0  0  0  0  0  0  0
    8.0775  -13.2520   19.6631 C   0  0  0  0  0  0  0  0  0  0  0  0
    7.3487  -12.6889   18.6609 N   0  0  0  0  0  0  0  0  0  0  0  0
    6.8738  -13.6580   17.8771 C   0  0  0  0  0  0  0  0  0  0  0  0
    7.3070  -14.8431   18.3899 N   0  0  0  0  0  0  0  0  0  0  0  0
   10.6244  -17.1498   20.6631 C   0  0  0  0  0  0  0  0  0  0  0  0
   10.8846  -18.3326   20.3284 O   0  0  0  0  0  0  0  0  0  0  0  0
   15.1113  -18.6264   22.2430 N   0  0  0  0  0  0  0  0  0  0  0  0
   14.5993  -17.3148   22.4844 C   0  0  0  0  0  0  0  0  0  0  0  0
   15.2888  -16.5514   23.2051 O   0  0  0  0  0  0  0  0  0  0  0  0
   13.3281  -16.8605   21.9253 C   0  0  0  0  0  0  0  0  0  0  0  0
   12.1027  -17.3189   22.6915 C   0  0  2  0  0  0  0  0  0  0  0  0
   10.9678  -16.7569   21.9818 N   0  0  0  0  0  0  0  0  0  0  0  0
   12.1232  -16.9016   24.1114 C   0  0  0  0  0  0  0  0  0  0  0  0
   12.6456  -17.7071   25.1104 O   0  0  0  0  0  0  0  0  0  0  0  0
   11.6565  -15.7801   24.4579 O   0  0  0  0  0  0  0  0  0  0  0  0
  2  1  1  1
  2  3  1  0
  2  7  1  0
  3  4  1  0
  5  4  1  0
  5  6  2  0
  7 10  1  0
  8  7  2  0
  9  5  1  0
 10 11  1  0
 11 12  1  1
 12 13  1  0
 13 17  1  0
 14 13  2  0
 14 15  1  0
 15 16  1  0
 17 16  2  0
 18 19  2  0
 18 11  1  0
 20 21  1  0
 21 22  2  0
 23 21  1  0
 24 23  1  6
 24 25  1  0
 25 18  1  0
 26 24  1  0
 26 27  1  0
 28 26  2  0
M  END
$$$$
