EHN.pdb
     RDKit          3D

 28 28  0  0  1  0  0  0  0  0999 V2000
   11.9390  -15.1445   15.8289 N   0  0  0  0  0  0  0  0  0  0  0  0
   12.4778  -16.0871   16.7578 C   0  0  1  0  0  0  0  0  0  0  0  0
   13.9282  -16.3930   16.5453 C   0  0  0  0  0  0  0  0  0  0  0  0
   14.6287  -15.5446   15.5630 C   0  0  0  0  0  0  0  0  0  0  0  0
   16.0326  -15.8684   15.3121 C   0  0  0  0  0  0  0  0  0  0  0  0
   16.8658  -16.1407   16.1730 O   0  0  0  0  0  0  0  0  0  0  0  0
   12.3480  -15.5329   18.1480 C   0  0  0  0  0  0  0  0  0  0  0  0
   13.2158  -14.7404   18.5588 O   0  0  0  0  0  0  0  0  0  0  0  0
   16.4863  -15.8741   13.9850 O   0  0  0  0  0  0  0  0  0  0  0  0
   11.2350  -15.9420   18.9310 N   0  0  0  0  0  0  0  0  0  0  0  0
   11.0162  -15.4214   20.2438 C   0  0  1  0  0  0  0  0  0  0  0  0
    9.5488  -15.3530   20.6260 C   0  0  0  0  0  0  0  0  0  0  0  0
    8.8341  -14.3130   19.8439 C   0  0  0  0  0  0  0  0  0  0  0  0
    9.3849  -13.4561   18.9177 C   0  0  0  0  0  0  0  0  0  0  0  0
    8.3956  -12.6586   18.4298 N   0  0  0  0  0  0  0  0  0  0  0  0
    7.2461  -12.9888   19.0201 C   0  0  0  0  0  0  0  0  0  0  0  0
    7.5129  -14.0038   19.8882 N   0  0  0  0  0  0  0  0  0  0  0  0
   11.7506  -16.2171   21.2929 C   0  0  0  0  0  0  0  0  0  0  0  0
   11.7604  -17.4735   21.2882 O   0  0  0  0  0  0  0  0  0  0  0  0
   15.6871  -14.1290   21.7186 N   0  0  0  0  0  0  0  0  0  0  0  0
   15.3464  -15.3876   22.3024 C   0  0  0  0  0  0  0  0  0  0  0  0
   15.7914  -16.4205   21.7433 O   0  0  0  0  0  0  0  0  0  0  0  0
   14.5160  -15.4906   23.5001 C   0  0  0  0  0  0  0  0  0  0  0  0
   13.2423  -16.2926   23.3171 C   0  0  2  0  0  0  0  0  0  0  0  0
   12.4631  -15.5653   22.3315 N   0  0  0  0  0  0  0  0  0  0  0  0
   12.4935  -16.4783   24.5802 C   0  0  0  0  0  0  0  0  0  0  0  0
   11.2201  -15.9650   24.7662 O   0  0  0  0  0  0  0  0  0  0  0  0
   13.0038  -17.1208   25.5407 O   0  0  0  0  0  0  0  0  0  0  0  0
  2  1  1  6
  2  3  1  0
  2  7  1  0
  3  4  1  0
  5  4  1  0
  5  6  2  0
  7 10  1  0
  8  7  2  0
  9  5  1  0
 10 11  1  0
 11 12  1  1
 12 13  1  0
 13 17  1  0
 14 13  2  0
 14 15  1  0
 15 16  1  0
 17 16  2  0
 18 19  2  0
 18 11  1  0
 20 21  1  0
 21 22  2  0
 23 21  1  0
 24 23  1  1
 24 25  1  0
 25 18  1  0
 26 24  1  0
 26 27  1  0
 28 26  2  0
M  END
$$$$
