EHN.pdb
     RDKit          3D

 28 28  0  0  1  0  0  0  0  0999 V2000
    8.7170  -18.4768   17.5951 N   0  0  0  0  0  0  0  0  0  0  0  0
   10.1089  -18.2123   17.4100 C   0  0  1  0  0  0  0  0  0  0  0  0
   10.4366  -17.5500   16.1075 C   0  0  0  0  0  0  0  0  0  0  0  0
    9.2859  -17.0546   15.3288 C   0  0  0  0  0  0  0  0  0  0  0  0
    9.5869  -16.5036   14.0080 C   0  0  0  0  0  0  0  0  0  0  0  0
   10.7060  -16.4249   13.5070 O   0  0  0  0  0  0  0  0  0  0  0  0
   10.5808  -17.2909   18.4987 C   0  0  0  0  0  0  0  0  0  0  0  0
   11.7790  -16.9534   18.5181 O   0  0  0  0  0  0  0  0  0  0  0  0
    8.5237  -16.0192   13.2322 O   0  0  0  0  0  0  0  0  0  0  0  0
    9.6317  -16.8466   19.4584 N   0  0  0  0  0  0  0  0  0  0  0  0
    9.9846  -15.9062   20.4749 C   0  0  1  0  0  0  0  0  0  0  0  0
    8.8193  -15.0454   20.9275 C   0  0  0  0  0  0  0  0  0  0  0  0
    8.3253  -14.1812   19.8259 C   0  0  0  0  0  0  0  0  0  0  0  0
    8.7972  -12.9341   19.4835 C   0  0  0  0  0  0  0  0  0  0  0  0
    8.0766  -12.4795   18.4220 N   0  0  0  0  0  0  0  0  0  0  0  0
    7.1709  -13.4008   18.0904 C   0  0  0  0  0  0  0  0  0  0  0  0
    7.3219  -14.4459   18.9506 N   0  0  0  0  0  0  0  0  0  0  0  0
   10.5814  -16.5827   21.6829 C   0  0  0  0  0  0  0  0  0  0  0  0
    9.9798  -17.4996   22.2962 O   0  0  0  0  0  0  0  0  0  0  0  0
   15.1627  -18.3516   24.3658 N   0  0  0  0  0  0  0  0  0  0  0  0
   14.7947  -16.9729   24.2978 C   0  0  0  0  0  0  0  0  0  0  0  0
   15.2186  -16.2186   25.2082 O   0  0  0  0  0  0  0  0  0  0  0  0
   13.9605  -16.4423   23.2221 C   0  0  0  0  0  0  0  0  0  0  0  0
   12.5168  -16.9044   23.2574 C   0  0  2  0  0  0  0  0  0  0  0  0
   11.8570  -16.2016   22.1720 N   0  0  0  0  0  0  0  0  0  0  0  0
   11.8614  -16.6433   24.5585 C   0  0  0  0  0  0  0  0  0  0  0  0
   11.9743  -17.5140   25.6303 O   0  0  0  0  0  0  0  0  0  0  0  0
   11.1684  -15.6012   24.7308 O   0  0  0  0  0  0  0  0  0  0  0  0
  2  1  1  1
  2  3  1  0
  2  7  1  0
  3  4  1  0
  5  4  1  0
  5  6  2  0
  7 10  1  0
  8  7  2  0
  9  5  1  0
 10 11  1  0
 11 12  1  1
 12 13  1  0
 13 17  1  0
 14 13  2  0
 14 15  1  0
 15 16  1  0
 17 16  2  0
 18 19  2  0
 18 11  1  0
 20 21  1  0
 21 22  2  0
 23 21  1  0
 24 23  1  1
 24 25  1  0
 25 18  1  0
 26 24  1  0
 26 27  1  0
 28 26  2  0
M  END
$$$$
