EHN.pdb
     RDKit          3D

 28 28  0  0  1  0  0  0  0  0999 V2000
   12.7607  -16.1032   16.9598 N   0  0  0  0  0  0  0  0  0  0  0  0
   12.0538  -16.8220   17.9724 C   0  0  1  0  0  0  0  0  0  0  0  0
   12.7663  -18.0440   18.4638 C   0  0  0  0  0  0  0  0  0  0  0  0
   13.7365  -17.8298   19.5540 C   0  0  0  0  0  0  0  0  0  0  0  0
   14.4700  -19.0102   20.0093 C   0  0  0  0  0  0  0  0  0  0  0  0
   14.5801  -20.0642   19.3876 O   0  0  0  0  0  0  0  0  0  0  0  0
   11.8554  -15.9251   19.1611 C   0  0  0  0  0  0  0  0  0  0  0  0
   12.7780  -15.1570   19.4907 O   0  0  0  0  0  0  0  0  0  0  0  0
   15.1082  -18.9555   21.2570 O   0  0  0  0  0  0  0  0  0  0  0  0
   10.6176  -15.9970   19.8552 N   0  0  0  0  0  0  0  0  0  0  0  0
   10.3396  -15.1498   20.9720 C   0  0  1  0  0  0  0  0  0  0  0  0
    8.8728  -14.7786   21.0939 C   0  0  0  0  0  0  0  0  0  0  0  0
    8.4197  -13.9754   19.9304 C   0  0  0  0  0  0  0  0  0  0  0  0
    9.1846  -13.5771   18.8573 C   0  0  0  0  0  0  0  0  0  0  0  0
    8.3963  -12.8583   18.0120 N   0  0  0  0  0  0  0  0  0  0  0  0
    7.1651  -12.7947   18.5212 C   0  0  0  0  0  0  0  0  0  0  0  0
    7.1773  -13.4795   19.6984 N   0  0  0  0  0  0  0  0  0  0  0  0
   10.7895  -15.7679   22.2714 C   0  0  0  0  0  0  0  0  0  0  0  0
   10.5445  -15.2334   23.3818 O   0  0  0  0  0  0  0  0  0  0  0  0
    9.4957  -19.0086   23.1422 N   0  0  0  0  0  0  0  0  0  0  0  0
   10.7196  -19.7386   23.0413 C   0  0  0  0  0  0  0  0  0  0  0  0
   10.6379  -20.9678   22.7968 O   0  0  0  0  0  0  0  0  0  0  0  0
   12.0227  -19.1003   23.2120 C   0  0  0  0  0  0  0  0  0  0  0  0
   11.9628  -17.6152   23.5120 C   0  0  2  0  0  0  0  0  0  0  0  0
   11.5125  -16.9880   22.2827 N   0  0  0  0  0  0  0  0  0  0  0  0
   13.2614  -17.0673   23.9638 C   0  0  0  0  0  0  0  0  0  0  0  0
   13.8571  -17.4626   25.1506 O   0  0  0  0  0  0  0  0  0  0  0  0
   13.8731  -16.2087   23.2678 O   0  0  0  0  0  0  0  0  0  0  0  0
  2  1  1  6
  2  3  1  0
  2  7  1  0
  3  4  1  0
  5  4  1  0
  5  6  2  0
  7 10  1  0
  8  7  2  0
  9  5  1  0
 10 11  1  0
 11 12  1  1
 12 13  1  0
 13 17  1  0
 14 13  2  0
 14 15  1  0
 15 16  1  0
 17 16  2  0
 18 19  2  0
 18 11  1  0
 20 21  1  0
 21 22  2  0
 23 21  1  0
 24 23  1  6
 24 25  1  0
 25 18  1  0
 26 24  1  0
 26 27  1  0
 28 26  2  0
M  END
$$$$
