EHN.pdb
     RDKit          3D

 28 28  0  0  1  0  0  0  0  0999 V2000
    8.1197  -19.2962   18.8896 N   0  0  0  0  0  0  0  0  0  0  0  0
    8.3192  -20.1390   20.0260 C   0  0  1  0  0  0  0  0  0  0  0  0
    9.6824  -20.7546   20.0978 C   0  0  0  0  0  0  0  0  0  0  0  0
   10.7922  -19.9236   19.5944 C   0  0  0  0  0  0  0  0  0  0  0  0
   12.1170  -20.5431   19.5952 C   0  0  0  0  0  0  0  0  0  0  0  0
   13.1592  -19.9965   19.2421 O   0  0  0  0  0  0  0  0  0  0  0  0
    8.1418  -19.3250   21.2761 C   0  0  0  0  0  0  0  0  0  0  0  0
    8.9354  -18.3922   21.4993 O   0  0  0  0  0  0  0  0  0  0  0  0
   12.2292  -21.8711   20.0317 O   0  0  0  0  0  0  0  0  0  0  0  0
    7.0709  -19.6607   22.1477 N   0  0  0  0  0  0  0  0  0  0  0  0
    6.9169  -19.0244   23.4180 C   0  0  1  0  0  0  0  0  0  0  0  0
    5.4683  -18.7577   23.7845 C   0  0  0  0  0  0  0  0  0  0  0  0
    4.6198  -18.6240   22.5736 C   0  0  0  0  0  0  0  0  0  0  0  0
    5.0520  -18.5694   21.2677 C   0  0  0  0  0  0  0  0  0  0  0  0
    3.9633  -18.4435   20.4605 N   0  0  0  0  0  0  0  0  0  0  0  0
    2.8661  -18.4179   21.2185 C   0  0  0  0  0  0  0  0  0  0  0  0
    3.2667  -18.5285   22.5156 N   0  0  0  0  0  0  0  0  0  0  0  0
    7.5552  -19.8221   24.5266 C   0  0  0  0  0  0  0  0  0  0  0  0
    7.8373  -21.0391   24.3924 O   0  0  0  0  0  0  0  0  0  0  0  0
   10.8699  -21.1067   28.1707 N   0  0  0  0  0  0  0  0  0  0  0  0
   11.1148  -20.6400   26.8429 C   0  0  0  0  0  0  0  0  0  0  0  0
   12.2699  -20.8058   26.3785 O   0  0  0  0  0  0  0  0  0  0  0  0
   10.0779  -19.9938   26.0416 C   0  0  0  0  0  0  0  0  0  0  0  0
    8.7432  -19.8390   26.7440 C   0  0  2  0  0  0  0  0  0  0  0  0
    7.8622  -19.2171   25.7722 N   0  0  0  0  0  0  0  0  0  0  0  0
    8.8372  -19.0425   27.9879 C   0  0  0  0  0  0  0  0  0  0  0  0
    9.3020  -19.5814   29.1767 O   0  0  0  0  0  0  0  0  0  0  0  0
    8.4899  -17.8280   28.0006 O   0  0  0  0  0  0  0  0  0  0  0  0
  2  1  1  6
  2  3  1  0
  2  7  1  0
  3  4  1  0
  5  4  1  0
  5  6  2  0
  7 10  1  0
  8  7  2  0
  9  5  1  0
 10 11  1  0
 11 12  1  1
 12 13  1  0
 13 17  1  0
 14 13  2  0
 14 15  1  0
 15 16  1  0
 17 16  2  0
 18 19  2  0
 18 11  1  0
 20 21  1  0
 21 22  2  0
 23 21  1  0
 24 23  1  6
 24 25  1  0
 25 18  1  0
 26 24  1  0
 26 27  1  0
 28 26  2  0
M  END
$$$$
