EHN.pdb
     RDKit          3D

 28 28  0  0  1  0  0  0  0  0999 V2000
   10.2936  -18.4208   17.6587 N   0  0  0  0  0  0  0  0  0  0  0  0
   11.4133  -17.5776   17.3812 C   0  0  1  0  0  0  0  0  0  0  0  0
   11.3705  -16.9305   16.0315 C   0  0  0  0  0  0  0  0  0  0  0  0
   10.3496  -17.4474   15.1008 C   0  0  0  0  0  0  0  0  0  0  0  0
   10.3215  -16.8428   13.7695 C   0  0  0  0  0  0  0  0  0  0  0  0
   11.3005  -16.4241   13.1563 O   0  0  0  0  0  0  0  0  0  0  0  0
   11.4546  -16.4697   18.3950 C   0  0  0  0  0  0  0  0  0  0  0  0
   12.4189  -15.6824   18.3807 O   0  0  0  0  0  0  0  0  0  0  0  0
    9.0839  -16.7213   13.1210 O   0  0  0  0  0  0  0  0  0  0  0  0
   10.3854  -16.3734   19.3259 N   0  0  0  0  0  0  0  0  0  0  0  0
   10.3590  -15.3541   20.3272 C   0  0  1  0  0  0  0  0  0  0  0  0
    8.9546  -14.9191   20.7046 C   0  0  0  0  0  0  0  0  0  0  0  0
    8.3526  -14.0621   19.6524 C   0  0  0  0  0  0  0  0  0  0  0  0
    8.9376  -13.6832   18.4651 C   0  0  0  0  0  0  0  0  0  0  0  0
    8.0578  -12.8984   17.7848 N   0  0  0  0  0  0  0  0  0  0  0  0
    6.9435  -12.7749   18.5073 C   0  0  0  0  0  0  0  0  0  0  0  0
    7.1223  -13.4882   19.6537 N   0  0  0  0  0  0  0  0  0  0  0  0
   11.0848  -15.7777   21.5788 C   0  0  0  0  0  0  0  0  0  0  0  0
   11.4819  -14.9443   22.4312 O   0  0  0  0  0  0  0  0  0  0  0  0
   15.3305  -17.6611   24.0266 N   0  0  0  0  0  0  0  0  0  0  0  0
   14.2385  -16.7450   24.1218 C   0  0  0  0  0  0  0  0  0  0  0  0
   14.1107  -16.1119   25.1990 O   0  0  0  0  0  0  0  0  0  0  0  0
   13.2979  -16.5384   23.0230 C   0  0  0  0  0  0  0  0  0  0  0  0
   12.2051  -17.5847   22.9234 C   0  0  2  0  0  0  0  0  0  0  0  0
   11.3458  -17.1474   21.8381 N   0  0  0  0  0  0  0  0  0  0  0  0
   11.4519  -17.7511   24.1866 C   0  0  0  0  0  0  0  0  0  0  0  0
   12.0231  -18.3081   25.3193 O   0  0  0  0  0  0  0  0  0  0  0  0
   10.2459  -17.3838   24.2683 O   0  0  0  0  0  0  0  0  0  0  0  0
  2  1  1  1
  2  3  1  0
  2  7  1  0
  3  4  1  0
  5  4  1  0
  5  6  2  0
  7 10  1  0
  8  7  2  0
  9  5  1  0
 10 11  1  0
 11 12  1  1
 12 13  1  0
 13 17  1  0
 14 13  2  0
 14 15  1  0
 15 16  1  0
 17 16  2  0
 18 19  2  0
 18 11  1  0
 20 21  1  0
 21 22  2  0
 23 21  1  0
 24 23  1  1
 24 25  1  0
 25 18  1  0
 26 24  1  0
 26 27  1  0
 28 26  2  0
M  END
$$$$
