EHN.pdb
     RDKit          3D

 28 28  0  0  1  0  0  0  0  0999 V2000
   11.9946  -16.7349   17.9620 N   0  0  0  0  0  0  0  0  0  0  0  0
   12.9539  -16.3222   18.9373 C   0  0  1  0  0  0  0  0  0  0  0  0
   13.8547  -15.2175   18.4785 C   0  0  0  0  0  0  0  0  0  0  0  0
   13.9540  -15.0311   17.0187 C   0  0  0  0  0  0  0  0  0  0  0  0
   14.9095  -14.0244   16.5579 C   0  0  0  0  0  0  0  0  0  0  0  0
   15.4790  -14.0283   15.4693 O   0  0  0  0  0  0  0  0  0  0  0  0
   12.2296  -15.8179   20.1531 C   0  0  0  0  0  0  0  0  0  0  0  0
   12.8482  -15.1037   20.9636 O   0  0  0  0  0  0  0  0  0  0  0  0
   15.2151  -12.9571   17.4149 O   0  0  0  0  0  0  0  0  0  0  0  0
   10.8663  -16.1823   20.3197 N   0  0  0  0  0  0  0  0  0  0  0  0
   10.1315  -15.8046   21.4858 C   0  0  1  0  0  0  0  0  0  0  0  0
    8.6983  -15.4026   21.1886 C   0  0  0  0  0  0  0  0  0  0  0  0
    8.6429  -14.2072   20.3100 C   0  0  0  0  0  0  0  0  0  0  0  0
    8.4187  -14.1937   18.9518 C   0  0  0  0  0  0  0  0  0  0  0  0
    8.4476  -12.9015   18.5252 N   0  0  0  0  0  0  0  0  0  0  0  0
    8.6820  -12.1080   19.5713 C   0  0  0  0  0  0  0  0  0  0  0  0
    8.8022  -12.9072   20.6676 N   0  0  0  0  0  0  0  0  0  0  0  0
   10.1196  -16.9003   22.5213 C   0  0  0  0  0  0  0  0  0  0  0  0
    9.8200  -18.0855   22.2314 O   0  0  0  0  0  0  0  0  0  0  0  0
   11.3894  -19.5398   26.8712 N   0  0  0  0  0  0  0  0  0  0  0  0
   12.3875  -18.8491   26.1179 C   0  0  0  0  0  0  0  0  0  0  0  0
   13.5882  -19.0835   26.4025 O   0  0  0  0  0  0  0  0  0  0  0  0
   12.0467  -17.9051   25.0561 C   0  0  0  0  0  0  0  0  0  0  0  0
   10.5598  -17.6691   24.8757 C   0  0  2  0  0  0  0  0  0  0  0  0
   10.4507  -16.6253   23.8727 N   0  0  0  0  0  0  0  0  0  0  0  0
    9.8807  -17.2923   26.1357 C   0  0  0  0  0  0  0  0  0  0  0  0
    9.6233  -18.2118   27.1395 O   0  0  0  0  0  0  0  0  0  0  0  0
    9.5099  -16.1010   26.3339 O   0  0  0  0  0  0  0  0  0  0  0  0
  2  1  1  6
  2  3  1  0
  2  7  1  0
  3  4  1  0
  5  4  1  0
  5  6  2  0
  7 10  1  0
  8  7  2  0
  9  5  1  0
 10 11  1  0
 11 12  1  6
 12 13  1  0
 13 17  1  0
 14 13  2  0
 14 15  1  0
 15 16  1  0
 17 16  2  0
 18 19  2  0
 18 11  1  0
 20 21  1  0
 21 22  2  0
 23 21  1  0
 24 23  1  1
 24 25  1  0
 25 18  1  0
 26 24  1  0
 26 27  1  0
 28 26  2  0
M  END
$$$$
