EHN.pdb
     RDKit          3D

 28 28  0  0  1  0  0  0  0  0999 V2000
    9.6296  -16.2814   19.0717 N   0  0  0  0  0  0  0  0  0  0  0  0
    8.4178  -16.3402   19.8265 C   0  0  1  0  0  0  0  0  0  0  0  0
    7.8420  -17.7170   19.9505 C   0  0  0  0  0  0  0  0  0  0  0  0
    8.2530  -18.6833   18.9147 C   0  0  0  0  0  0  0  0  0  0  0  0
    7.6422  -20.0101   18.9879 C   0  0  0  0  0  0  0  0  0  0  0  0
    8.0404  -20.9401   19.6851 O   0  0  0  0  0  0  0  0  0  0  0  0
    8.6862  -15.8523   21.2217 C   0  0  0  0  0  0  0  0  0  0  0  0
    9.8167  -16.0332   21.7108 O   0  0  0  0  0  0  0  0  0  0  0  0
    6.5064  -20.2628   18.2050 O   0  0  0  0  0  0  0  0  0  0  0  0
    7.6313  -15.2044   21.9193 N   0  0  0  0  0  0  0  0  0  0  0  0
    7.8012  -14.7366   23.2589 C   0  0  1  0  0  0  0  0  0  0  0  0
    6.5681  -14.0484   23.8157 C   0  0  0  0  0  0  0  0  0  0  0  0
    6.8281  -13.4784   25.1616 C   0  0  0  0  0  0  0  0  0  0  0  0
    8.0299  -13.4686   25.8331 C   0  0  0  0  0  0  0  0  0  0  0  0
    7.8451  -12.8554   27.0342 N   0  0  0  0  0  0  0  0  0  0  0  0
    6.5686  -12.4822   27.1349 C   0  0  0  0  0  0  0  0  0  0  0  0
    5.9428  -12.8635   25.9869 N   0  0  0  0  0  0  0  0  0  0  0  0
    8.1963  -15.8493   24.1963 C   0  0  0  0  0  0  0  0  0  0  0  0
    7.3704  -16.7090   24.5931 O   0  0  0  0  0  0  0  0  0  0  0  0
   12.6348  -16.3964   23.2108 N   0  0  0  0  0  0  0  0  0  0  0  0
   11.8225  -17.3515   23.8954 C   0  0  0  0  0  0  0  0  0  0  0  0
   11.4343  -18.3509   23.2412 O   0  0  0  0  0  0  0  0  0  0  0  0
   11.4476  -17.1910   25.2984 C   0  0  0  0  0  0  0  0  0  0  0  0
    9.9582  -17.0407   25.5397 C   0  0  2  0  0  0  0  0  0  0  0  0
    9.5296  -15.9633   24.6662 N   0  0  0  0  0  0  0  0  0  0  0  0
    9.6307  -16.7619   26.9559 C   0  0  0  0  0  0  0  0  0  0  0  0
    9.3588  -15.4827   27.4132 O   0  0  0  0  0  0  0  0  0  0  0  0
    9.5897  -17.6991   27.8020 O   0  0  0  0  0  0  0  0  0  0  0  0
  2  1  1  6
  2  3  1  0
  2  7  1  0
  3  4  1  0
  5  4  1  0
  5  6  2  0
  7 10  1  0
  8  7  2  0
  9  5  1  0
 10 11  1  0
 11 12  1  1
 12 13  1  0
 13 17  1  0
 14 13  2  0
 14 15  1  0
 15 16  1  0
 17 16  2  0
 18 19  2  0
 18 11  1  0
 20 21  1  0
 21 22  2  0
 23 21  1  0
 24 23  1  1
 24 25  1  0
 25 18  1  0
 26 24  1  0
 26 27  1  0
 28 26  2  0
M  END
$$$$
