EHN.pdb
     RDKit          3D

 28 28  0  0  1  0  0  0  0  0999 V2000
   10.6178  -18.8111   22.4217 N   0  0  0  0  0  0  0  0  0  0  0  0
   11.3669  -17.6023   22.2826 C   0  0  1  0  0  0  0  0  0  0  0  0
   11.6387  -17.2125   20.8625 C   0  0  0  0  0  0  0  0  0  0  0  0
   10.6918  -17.7332   19.8586 C   0  0  0  0  0  0  0  0  0  0  0  0
   10.9574  -17.3684   18.4675 C   0  0  0  0  0  0  0  0  0  0  0  0
   11.2502  -18.1532   17.5687 O   0  0  0  0  0  0  0  0  0  0  0  0
   10.5946  -16.4737   22.9045 C   0  0  0  0  0  0  0  0  0  0  0  0
   11.1656  -15.3804   23.0730 O   0  0  0  0  0  0  0  0  0  0  0  0
   10.8765  -16.0151   18.1084 O   0  0  0  0  0  0  0  0  0  0  0  0
    9.2424  -16.7100   23.2719 N   0  0  0  0  0  0  0  0  0  0  0  0
    8.4878  -15.7389   23.9998 C   0  0  1  0  0  0  0  0  0  0  0  0
    7.1831  -15.3609   23.3223 C   0  0  0  0  0  0  0  0  0  0  0  0
    7.4242  -14.6993   22.0153 C   0  0  0  0  0  0  0  0  0  0  0  0
    8.6454  -14.4629   21.4254 C   0  0  0  0  0  0  0  0  0  0  0  0
    8.4331  -13.8347   20.2367 N   0  0  0  0  0  0  0  0  0  0  0  0
    7.1206  -13.6711   20.0648 C   0  0  0  0  0  0  0  0  0  0  0  0
    6.4996  -14.2009   21.1551 N   0  0  0  0  0  0  0  0  0  0  0  0
    8.1860  -16.1991   25.4034 C   0  0  0  0  0  0  0  0  0  0  0  0
    7.4493  -15.5367   26.1761 O   0  0  0  0  0  0  0  0  0  0  0  0
    6.0551  -18.4359   26.0884 N   0  0  0  0  0  0  0  0  0  0  0  0
    6.8625  -19.5066   26.5808 C   0  0  0  0  0  0  0  0  0  0  0  0
    6.4233  -20.6739   26.4321 O   0  0  0  0  0  0  0  0  0  0  0  0
    8.1490  -19.2747   27.2333 C   0  0  0  0  0  0  0  0  0  0  0  0
    8.5757  -17.8207   27.2867 C   0  0  2  0  0  0  0  0  0  0  0  0
    8.7302  -17.4098   25.9030 N   0  0  0  0  0  0  0  0  0  0  0  0
    9.8194  -17.6149   28.0623 C   0  0  0  0  0  0  0  0  0  0  0  0
    9.8403  -17.6484   29.4472 O   0  0  0  0  0  0  0  0  0  0  0  0
   10.9155  -17.3986   27.4727 O   0  0  0  0  0  0  0  0  0  0  0  0
  2  1  1  6
  2  3  1  0
  2  7  1  0
  3  4  1  0
  5  4  1  0
  5  6  2  0
  7 10  1  0
  8  7  2  0
  9  5  1  0
 10 11  1  0
 11 12  1  6
 12 13  1  0
 13 17  1  0
 14 13  2  0
 14 15  1  0
 15 16  1  0
 17 16  2  0
 18 19  2  0
 18 11  1  0
 20 21  1  0
 21 22  2  0
 23 21  1  0
 24 23  1  6
 24 25  1  0
 25 18  1  0
 26 24  1  0
 26 27  1  0
 28 26  2  0
M  END
$$$$
