EHN.pdb
     RDKit          3D

 28 28  0  0  1  0  0  0  0  0999 V2000
    9.7414  -17.4731   17.2940 N   0  0  0  0  0  0  0  0  0  0  0  0
    9.2926  -18.1541   18.4672 C   0  0  1  0  0  0  0  0  0  0  0  0
    9.8786  -19.5211   18.6416 C   0  0  0  0  0  0  0  0  0  0  0  0
   10.4825  -20.1219   17.4374 C   0  0  0  0  0  0  0  0  0  0  0  0
   10.9316  -21.5082   17.5611 C   0  0  0  0  0  0  0  0  0  0  0  0
   10.8845  -22.1835   18.5863 O   0  0  0  0  0  0  0  0  0  0  0  0
    9.6840  -17.3542   19.6771 C   0  0  0  0  0  0  0  0  0  0  0  0
   10.8928  -17.1476   19.8913 O   0  0  0  0  0  0  0  0  0  0  0  0
   11.4638  -22.1379   16.4265 O   0  0  0  0  0  0  0  0  0  0  0  0
    8.6500  -16.8694   20.5228 N   0  0  0  0  0  0  0  0  0  0  0  0
    8.9412  -16.0801   21.6780 C   0  0  1  0  0  0  0  0  0  0  0  0
    8.0173  -14.8866   21.8384 C   0  0  0  0  0  0  0  0  0  0  0  0
    8.0634  -14.0028   20.6464 C   0  0  0  0  0  0  0  0  0  0  0  0
    7.1629  -13.9775   19.6054 C   0  0  0  0  0  0  0  0  0  0  0  0
    7.5635  -13.0294   18.7147 N   0  0  0  0  0  0  0  0  0  0  0  0
    8.6837  -12.4621   19.1647 C   0  0  0  0  0  0  0  0  0  0  0  0
    8.9921  -13.0580   20.3499 N   0  0  0  0  0  0  0  0  0  0  0  0
    8.8951  -16.8985   22.9433 C   0  0  0  0  0  0  0  0  0  0  0  0
    8.1321  -17.8890   23.0668 O   0  0  0  0  0  0  0  0  0  0  0  0
   13.3905  -19.5871   24.5567 N   0  0  0  0  0  0  0  0  0  0  0  0
   11.9692  -19.4645   24.6323 C   0  0  0  0  0  0  0  0  0  0  0  0
   11.3508  -20.3358   25.2925 O   0  0  0  0  0  0  0  0  0  0  0  0
   11.2458  -18.3779   23.9759 C   0  0  0  0  0  0  0  0  0  0  0  0
   10.3315  -17.5865   24.8906 C   0  0  2  0  0  0  0  0  0  0  0  0
    9.7219  -16.5730   24.0487 N   0  0  0  0  0  0  0  0  0  0  0  0
   11.0464  -16.9876   26.0399 C   0  0  0  0  0  0  0  0  0  0  0  0
   10.8840  -17.4531   27.3347 O   0  0  0  0  0  0  0  0  0  0  0  0
   11.8382  -16.0181   25.8692 O   0  0  0  0  0  0  0  0  0  0  0  0
  2  1  1  6
  2  3  1  0
  2  7  1  0
  3  4  1  0
  5  4  1  0
  5  6  2  0
  7 10  1  0
  8  7  2  0
  9  5  1  0
 10 11  1  0
 11 12  1  1
 12 13  1  0
 13 17  1  0
 14 13  2  0
 14 15  1  0
 15 16  1  0
 17 16  2  0
 18 19  2  0
 18 11  1  0
 20 21  1  0
 21 22  2  0
 23 21  1  0
 24 23  1  6
 24 25  1  0
 25 18  1  0
 26 24  1  0
 26 27  1  0
 28 26  2  0
M  END
$$$$
