EHN.pdb
     RDKit          3D

 28 28  0  0  1  0  0  0  0  0999 V2000
   10.7519  -17.7792   17.6368 N   0  0  0  0  0  0  0  0  0  0  0  0
    9.7502  -18.0334   18.6235 C   0  0  1  0  0  0  0  0  0  0  0  0
    9.7090  -19.4523   19.1003 C   0  0  0  0  0  0  0  0  0  0  0  0
   11.0167  -20.1125   19.2729 C   0  0  0  0  0  0  0  0  0  0  0  0
   10.9849  -21.5093   19.7050 C   0  0  0  0  0  0  0  0  0  0  0  0
   10.5996  -22.4569   19.0245 O   0  0  0  0  0  0  0  0  0  0  0  0
   10.0205  -17.1763   19.8273 C   0  0  0  0  0  0  0  0  0  0  0  0
   11.1998  -16.8870   20.1021 O   0  0  0  0  0  0  0  0  0  0  0  0
   11.4269  -21.8142   21.0006 O   0  0  0  0  0  0  0  0  0  0  0  0
    8.9113  -16.7348   20.5979 N   0  0  0  0  0  0  0  0  0  0  0  0
    9.0875  -15.9149   21.7551 C   0  0  1  0  0  0  0  0  0  0  0  0
    7.9768  -14.8980   21.9454 C   0  0  0  0  0  0  0  0  0  0  0  0
    7.8843  -13.9748   20.7864 C   0  0  0  0  0  0  0  0  0  0  0  0
    6.8969  -13.9544   19.8273 C   0  0  0  0  0  0  0  0  0  0  0  0
    7.1809  -12.9616   18.9405 N   0  0  0  0  0  0  0  0  0  0  0  0
    8.3121  -12.3616   19.3138 C   0  0  0  0  0  0  0  0  0  0  0  0
    8.7454  -12.9819   20.4463 N   0  0  0  0  0  0  0  0  0  0  0  0
    9.2082  -16.7374   23.0129 C   0  0  0  0  0  0  0  0  0  0  0  0
    8.3276  -17.5671   23.3516 O   0  0  0  0  0  0  0  0  0  0  0  0
   13.1588  -19.8598   24.2667 N   0  0  0  0  0  0  0  0  0  0  0  0
   12.1484  -19.0364   23.6820 C   0  0  0  0  0  0  0  0  0  0  0  0
   12.4339  -18.4496   22.6089 O   0  0  0  0  0  0  0  0  0  0  0  0
   10.8308  -18.8705   24.2913 C   0  0  0  0  0  0  0  0  0  0  0  0
   10.6062  -17.5237   24.9508 C   0  0  2  0  0  0  0  0  0  0  0  0
   10.3337  -16.5997   23.8648 N   0  0  0  0  0  0  0  0  0  0  0  0
   11.7593  -17.0847   25.7684 C   0  0  0  0  0  0  0  0  0  0  0  0
   12.5018  -15.9583   25.4533 O   0  0  0  0  0  0  0  0  0  0  0  0
   12.1046  -17.7366   26.7939 O   0  0  0  0  0  0  0  0  0  0  0  0
  2  1  1  6
  2  3  1  0
  2  7  1  0
  3  4  1  0
  5  4  1  0
  5  6  2  0
  7 10  1  0
  8  7  2  0
  9  5  1  0
 10 11  1  0
 11 12  1  1
 12 13  1  0
 13 17  1  0
 14 13  2  0
 14 15  1  0
 15 16  1  0
 17 16  2  0
 18 19  2  0
 18 11  1  0
 20 21  1  0
 21 22  2  0
 23 21  1  0
 24 23  1  6
 24 25  1  0
 25 18  1  0
 26 24  1  0
 26 27  1  0
 28 26  2  0
M  END
$$$$
