KFC.pdb
     RDKit          3D

 27 27  0  0  1  0  0  0  0  0999 V2000
    8.9469  -18.5259   22.3473 N   0  0  0  0  0  0  0  0  0  0  0  0
    9.9105  -17.7114   21.6575 C   0  0  1  0  0  0  0  0  0  0  0  0
    9.7838  -17.7405   20.1804 C   0  0  0  0  0  0  0  0  0  0  0  0
   10.7155  -18.6313   19.4410 C   0  0  0  0  0  0  0  0  0  0  0  0
   10.4224  -20.0903   19.5432 C   0  0  0  0  0  0  0  0  0  0  0  0
   11.3957  -20.9027   18.6682 C   0  0  0  0  0  0  0  0  0  0  0  0
   11.2768  -22.3084   18.9238 N   0  0  0  0  0  0  0  0  0  0  0  0
    9.8087  -16.3377   22.2217 C   0  0  0  0  0  0  0  0  0  0  0  0
   10.5220  -15.3798   21.8567 O   0  0  0  0  0  0  0  0  0  0  0  0
    8.8455  -16.1128   23.2294 N   0  0  0  0  0  0  0  0  0  0  0  0
    8.6185  -14.8370   23.8668 C   0  0  1  0  0  0  0  0  0  0  0  0
    7.1566  -14.7221   24.1788 C   0  0  0  0  0  0  0  0  0  0  0  0
    6.8145  -13.5562   24.9960 C   0  0  0  0  0  0  0  0  0  0  0  0
    7.2027  -12.3063   24.5571 C   0  0  0  0  0  0  0  0  0  0  0  0
    6.9148  -11.1531   25.2776 C   0  0  0  0  0  0  0  0  0  0  0  0
    6.2243  -11.2379   26.4640 C   0  0  0  0  0  0  0  0  0  0  0  0
    5.8322  -12.4659   26.9138 C   0  0  0  0  0  0  0  0  0  0  0  0
    6.1234  -13.6052   26.1903 C   0  0  0  0  0  0  0  0  0  0  0  0
    9.3767  -14.6656   25.1087 C   0  0  0  0  0  0  0  0  0  0  0  0
    9.6232  -13.5738   25.6744 O   0  0  0  0  0  0  0  0  0  0  0  0
    9.8884  -15.8281   25.7469 N   0  0  0  0  0  0  0  0  0  0  0  0
   10.5843  -15.7683   27.0048 C   0  0  1  0  0  0  0  0  0  0  0  0
    9.6263  -15.1369   28.0138 C   0  0  0  0  0  0  0  0  0  0  0  0
   10.3695  -14.9827   29.6361 S   0  0  0  0  0  0  0  0  0  0  0  0
   11.1021  -17.0482   27.4607 C   0  0  0  0  0  0  0  0  0  0  0  0
   11.8626  -17.1106   28.4493 O   0  0  0  0  0  0  0  0  0  0  0  0
   10.7576  -18.2105   26.8039 O   0  0  0  0  0  0  0  0  0  0  0  0
  2  1  1  1
  2  3  1  0
  3  4  1  0
  4  5  1  0
  5  6  1  0
  6  7  1  0
  8  2  1  0
  9  8  2  0
 10  8  1  0
 11 10  1  0
 11 12  1  1
 12 13  1  0
 13 14  2  0
 14 15  1  0
 16 15  2  0
 17 16  1  0
 18 13  1  0
 18 17  2  0
 19 20  2  0
 19 11  1  0
 21 19  1  0
 22 21  1  0
 22 23  1  1
 24 23  1  0
 25 27  1  0
 25 22  1  0
 26 25  2  0
M  END
$$$$
