KFC.pdb
     RDKit          3D

 27 27  0  0  1  0  0  0  0  0999 V2000
   10.5300  -16.8787   19.8026 N   0  0  0  0  0  0  0  0  0  0  0  0
    9.2751  -16.8577   20.5045 C   0  0  1  0  0  0  0  0  0  0  0  0
    8.6248  -18.1848   20.6255 C   0  0  0  0  0  0  0  0  0  0  0  0
    9.4738  -19.3119   21.0915 C   0  0  0  0  0  0  0  0  0  0  0  0
    9.4169  -20.5449   20.2539 C   0  0  0  0  0  0  0  0  0  0  0  0
   10.3241  -21.6428   20.8407 C   0  0  0  0  0  0  0  0  0  0  0  0
    9.6624  -22.3589   21.8918 N   0  0  0  0  0  0  0  0  0  0  0  0
    9.5194  -16.2089   21.8217 C   0  0  0  0  0  0  0  0  0  0  0  0
   10.6177  -16.2300   22.4158 O   0  0  0  0  0  0  0  0  0  0  0  0
    8.4397  -15.5314   22.4289 N   0  0  0  0  0  0  0  0  0  0  0  0
    8.5125  -14.8695   23.7104 C   0  0  1  0  0  0  0  0  0  0  0  0
    7.2742  -14.0420   23.8820 C   0  0  0  0  0  0  0  0  0  0  0  0
    7.2451  -13.2690   25.1252 C   0  0  0  0  0  0  0  0  0  0  0  0
    6.2761  -13.5644   26.0630 C   0  0  0  0  0  0  0  0  0  0  0  0
    6.1845  -12.8748   27.2663 C   0  0  0  0  0  0  0  0  0  0  0  0
    7.0751  -11.8658   27.5501 C   0  0  0  0  0  0  0  0  0  0  0  0
    8.0403  -11.5597   26.6343 C   0  0  0  0  0  0  0  0  0  0  0  0
    8.1224  -12.2510   25.4420 C   0  0  0  0  0  0  0  0  0  0  0  0
    8.6143  -15.7987   24.8386 C   0  0  0  0  0  0  0  0  0  0  0  0
    7.8562  -16.7733   25.0585 O   0  0  0  0  0  0  0  0  0  0  0  0
    9.6588  -15.5961   25.7811 N   0  0  0  0  0  0  0  0  0  0  0  0
    9.9089  -16.5171   26.8577 C   0  0  1  0  0  0  0  0  0  0  0  0
   11.0411  -17.4367   26.4028 C   0  0  0  0  0  0  0  0  0  0  0  0
   12.5986  -16.5630   26.2654 S   0  0  0  0  0  0  0  0  0  0  0  0
   10.1936  -15.8797   28.1332 C   0  0  0  0  0  0  0  0  0  0  0  0
   10.2642  -14.6360   28.2206 O   0  0  0  0  0  0  0  0  0  0  0  0
   10.3894  -16.6447   29.2635 O   0  0  0  0  0  0  0  0  0  0  0  0
  2  1  1  1
  2  3  1  0
  3  4  1  0
  4  5  1  0
  5  6  1  0
  6  7  1  0
  8  2  1  0
  9  8  2  0
 10  8  1  0
 11 10  1  0
 11 12  1  1
 12 13  1  0
 13 14  2  0
 14 15  1  0
 16 15  2  0
 17 16  1  0
 18 13  1  0
 18 17  2  0
 19 20  2  0
 19 11  1  0
 21 19  1  0
 22 21  1  0
 22 23  1  6
 24 23  1  0
 25 27  1  0
 25 22  1  0
 26 25  2  0
M  END
$$$$
