KFC.pdb
     RDKit          3D

 27 27  0  0  1  0  0  0  0  0999 V2000
   10.7356  -16.3729   19.5863 N   0  0  0  0  0  0  0  0  0  0  0  0
    9.7538  -16.8381   20.5283 C   0  0  1  0  0  0  0  0  0  0  0  0
    9.8058  -18.2969   20.7890 C   0  0  0  0  0  0  0  0  0  0  0  0
   11.1090  -18.9757   20.5665 C   0  0  0  0  0  0  0  0  0  0  0  0
   11.9386  -19.1844   21.7885 C   0  0  0  0  0  0  0  0  0  0  0  0
   13.2098  -19.9866   21.4517 C   0  0  0  0  0  0  0  0  0  0  0  0
   13.2385  -21.2364   22.1534 N   0  0  0  0  0  0  0  0  0  0  0  0
    9.9090  -16.0220   21.7635 C   0  0  0  0  0  0  0  0  0  0  0  0
   11.0008  -15.5696   22.1671 O   0  0  0  0  0  0  0  0  0  0  0  0
    8.7475  -15.7477   22.5180 N   0  0  0  0  0  0  0  0  0  0  0  0
    8.7403  -15.0123   23.7608 C   0  0  1  0  0  0  0  0  0  0  0  0
    7.3886  -14.3854   23.9271 C   0  0  0  0  0  0  0  0  0  0  0  0
    7.2515  -13.5859   25.1461 C   0  0  0  0  0  0  0  0  0  0  0  0
    7.9576  -12.4035   25.2422 C   0  0  0  0  0  0  0  0  0  0  0  0
    7.8790  -11.5909   26.3670 C   0  0  0  0  0  0  0  0  0  0  0  0
    7.0808  -11.9571   27.4255 C   0  0  0  0  0  0  0  0  0  0  0  0
    6.3751  -13.1233   27.3482 C   0  0  0  0  0  0  0  0  0  0  0  0
    6.4603  -13.9232   26.2261 C   0  0  0  0  0  0  0  0  0  0  0  0
    9.0152  -15.8487   24.9318 C   0  0  0  0  0  0  0  0  0  0  0  0
    8.3526  -16.8513   25.2906 O   0  0  0  0  0  0  0  0  0  0  0  0
   10.1283  -15.5119   25.7491 N   0  0  0  0  0  0  0  0  0  0  0  0
   10.5728  -16.3573   26.8251 C   0  0  1  0  0  0  0  0  0  0  0  0
   12.0993  -16.3880   26.7657 C   0  0  0  0  0  0  0  0  0  0  0  0
   12.6966  -16.8477   25.1410 S   0  0  0  0  0  0  0  0  0  0  0  0
   10.0787  -15.9641   28.1349 C   0  0  0  0  0  0  0  0  0  0  0  0
   10.2323  -14.7957   28.5479 O   0  0  0  0  0  0  0  0  0  0  0  0
    9.4330  -16.8807   28.9374 O   0  0  0  0  0  0  0  0  0  0  0  0
  2  1  1  6
  2  3  1  0
  3  4  1  0
  4  5  1  0
  5  6  1  0
  6  7  1  0
  8  2  1  0
  9  8  2  0
 10  8  1  0
 11 10  1  0
 11 12  1  1
 12 13  1  0
 13 14  2  0
 14 15  1  0
 16 15  2  0
 17 16  1  0
 18 13  1  0
 18 17  2  0
 19 20  2  0
 19 11  1  0
 21 19  1  0
 22 21  1  0
 22 23  1  1
 24 23  1  0
 25 27  1  0
 25 22  1  0
 26 25  2  0
M  END
$$$$
