KFC.pdb
     RDKit          3D

 27 27  0  0  1  0  0  0  0  0999 V2000
    9.7096  -18.1281   20.9166 N   0  0  0  0  0  0  0  0  0  0  0  0
   10.9086  -17.3345   20.9354 C   0  0  1  0  0  0  0  0  0  0  0  0
   11.2872  -16.7752   19.6153 C   0  0  0  0  0  0  0  0  0  0  0  0
   11.7613  -17.7368   18.5862 C   0  0  0  0  0  0  0  0  0  0  0  0
   10.7721  -18.0745   17.5220 C   0  0  0  0  0  0  0  0  0  0  0  0
   11.3522  -19.1228   16.5538 C   0  0  0  0  0  0  0  0  0  0  0  0
   10.4092  -19.4640   15.5293 N   0  0  0  0  0  0  0  0  0  0  0  0
   10.7265  -16.2882   21.9784 C   0  0  0  0  0  0  0  0  0  0  0  0
   11.5911  -15.4347   22.2676 O   0  0  0  0  0  0  0  0  0  0  0  0
    9.5002  -16.2666   22.6778 N   0  0  0  0  0  0  0  0  0  0  0  0
    9.2109  -15.3847   23.7843 C   0  0  1  0  0  0  0  0  0  0  0  0
    7.7459  -15.0666   23.7599 C   0  0  0  0  0  0  0  0  0  0  0  0
    7.3367  -14.0793   24.7607 C   0  0  0  0  0  0  0  0  0  0  0  0
    7.6974  -12.7602   24.5720 C   0  0  0  0  0  0  0  0  0  0  0  0
    7.3461  -11.7662   25.4777 C   0  0  0  0  0  0  0  0  0  0  0  0
    6.6183  -12.0849   26.6004 C   0  0  0  0  0  0  0  0  0  0  0  0
    6.2526  -13.3845   26.8037 C   0  0  0  0  0  0  0  0  0  0  0  0
    6.6068  -14.3642   25.8976 C   0  0  0  0  0  0  0  0  0  0  0  0
    9.5423  -15.9626   25.0891 C   0  0  0  0  0  0  0  0  0  0  0  0
    9.4163  -17.1678   25.4124 O   0  0  0  0  0  0  0  0  0  0  0  0
   10.0544  -15.0977   26.0942 N   0  0  0  0  0  0  0  0  0  0  0  0
   10.7396  -15.5953   27.2573 C   0  0  1  0  0  0  0  0  0  0  0  0
   11.0764  -14.3853   28.1272 C   0  0  0  0  0  0  0  0  0  0  0  0
    9.6034  -13.5591   28.7237 S   0  0  0  0  0  0  0  0  0  0  0  0
   10.0066  -16.6154   27.9897 C   0  0  0  0  0  0  0  0  0  0  0  0
   10.5696  -17.2877   28.8788 O   0  0  0  0  0  0  0  0  0  0  0  0
    8.6776  -16.8519   27.7091 O   0  0  0  0  0  0  0  0  0  0  0  0
  2  1  1  6
  2  3  1  0
  3  4  1  0
  4  5  1  0
  5  6  1  0
  6  7  1  0
  8  2  1  0
  9  8  2  0
 10  8  1  0
 11 10  1  0
 11 12  1  1
 12 13  1  0
 13 14  2  0
 14 15  1  0
 16 15  2  0
 17 16  1  0
 18 13  1  0
 18 17  2  0
 19 20  2  0
 19 11  1  0
 21 19  1  0
 22 21  1  0
 22 23  1  1
 24 23  1  0
 25 27  1  0
 25 22  1  0
 26 25  2  0
M  END
$$$$
