KFC.pdb
     RDKit          3D

 27 27  0  0  1  0  0  0  0  0999 V2000
   11.3753  -16.6317   20.1437 N   0  0  0  0  0  0  0  0  0  0  0  0
   10.4455  -17.1880   21.0891 C   0  0  1  0  0  0  0  0  0  0  0  0
   10.7601  -18.5760   21.5054 C   0  0  0  0  0  0  0  0  0  0  0  0
   11.3131  -19.4829   20.4660 C   0  0  0  0  0  0  0  0  0  0  0  0
   11.6180  -20.8696   20.9234 C   0  0  0  0  0  0  0  0  0  0  0  0
   12.0908  -21.7393   19.7431 C   0  0  0  0  0  0  0  0  0  0  0  0
   13.2856  -22.4599   20.0727 N   0  0  0  0  0  0  0  0  0  0  0  0
   10.3663  -16.2421   22.2357 C   0  0  0  0  0  0  0  0  0  0  0  0
   11.3503  -15.6349   22.7074 O   0  0  0  0  0  0  0  0  0  0  0  0
    9.0991  -16.0240   22.8190 N   0  0  0  0  0  0  0  0  0  0  0  0
    8.8703  -15.1969   23.9805 C   0  0  1  0  0  0  0  0  0  0  0  0
    7.4585  -14.6950   23.9282 C   0  0  0  0  0  0  0  0  0  0  0  0
    7.1388  -13.7145   24.9676 C   0  0  0  0  0  0  0  0  0  0  0  0
    6.3008  -14.0939   25.9969 C   0  0  0  0  0  0  0  0  0  0  0  0
    5.9514  -13.2196   27.0194 C   0  0  0  0  0  0  0  0  0  0  0  0
    6.4438  -11.9354   27.0243 C   0  0  0  0  0  0  0  0  0  0  0  0
    7.2740  -11.5424   26.0142 C   0  0  0  0  0  0  0  0  0  0  0  0
    7.6148  -12.4189   25.0034 C   0  0  0  0  0  0  0  0  0  0  0  0
    9.0676  -15.9070   25.2467 C   0  0  0  0  0  0  0  0  0  0  0  0
    8.7796  -17.1073   25.4687 O   0  0  0  0  0  0  0  0  0  0  0  0
    9.6353  -15.1904   26.3351 N   0  0  0  0  0  0  0  0  0  0  0  0
   10.2231  -15.8556   27.4673 C   0  0  1  0  0  0  0  0  0  0  0  0
   10.4201  -14.7978   28.5522 C   0  0  0  0  0  0  0  0  0  0  0  0
   11.0930  -13.2763   27.8889 S   0  0  0  0  0  0  0  0  0  0  0  0
    9.4661  -17.0018   27.9443 C   0  0  0  0  0  0  0  0  0  0  0  0
    8.3591  -17.2864   27.4413 O   0  0  0  0  0  0  0  0  0  0  0  0
    9.9644  -17.7890   28.9606 O   0  0  0  0  0  0  0  0  0  0  0  0
  2  1  1  6
  2  3  1  0
  3  4  1  0
  4  5  1  0
  5  6  1  0
  6  7  1  0
  8  2  1  0
  9  8  2  0
 10  8  1  0
 11 10  1  0
 11 12  1  1
 12 13  1  0
 13 14  2  0
 14 15  1  0
 16 15  2  0
 17 16  1  0
 18 13  1  0
 18 17  2  0
 19 20  2  0
 19 11  1  0
 21 19  1  0
 22 21  1  0
 22 23  1  1
 24 23  1  0
 25 27  1  0
 25 22  1  0
 26 25  2  0
M  END
$$$$
