KFC.pdb
     RDKit          3D

 27 27  0  0  1  0  0  0  0  0999 V2000
    8.5389  -15.7194   18.8931 N   0  0  0  0  0  0  0  0  0  0  0  0
    8.1796  -16.6609   19.9189 C   0  0  1  0  0  0  0  0  0  0  0  0
    8.6287  -18.0489   19.6534 C   0  0  0  0  0  0  0  0  0  0  0  0
    7.6974  -18.9262   18.8974 C   0  0  0  0  0  0  0  0  0  0  0  0
    7.3817  -18.4790   17.5098 C   0  0  0  0  0  0  0  0  0  0  0  0
    6.5125  -19.5251   16.7864 C   0  0  0  0  0  0  0  0  0  0  0  0
    6.1638  -19.0894   15.4658 N   0  0  0  0  0  0  0  0  0  0  0  0
    8.6916  -16.1219   21.2085 C   0  0  0  0  0  0  0  0  0  0  0  0
    9.8828  -15.8034   21.4068 O   0  0  0  0  0  0  0  0  0  0  0  0
    7.7688  -15.9646   22.2656 N   0  0  0  0  0  0  0  0  0  0  0  0
    8.1067  -15.4411   23.5684 C   0  0  1  0  0  0  0  0  0  0  0  0
    6.8408  -14.9979   24.2385 C   0  0  0  0  0  0  0  0  0  0  0  0
    7.0273  -13.9044   25.1943 C   0  0  0  0  0  0  0  0  0  0  0  0
    8.3050  -13.4295   25.4122 C   0  0  0  0  0  0  0  0  0  0  0  0
    8.5615  -12.3945   26.3037 C   0  0  0  0  0  0  0  0  0  0  0  0
    7.5266  -11.8133   26.9987 C   0  0  0  0  0  0  0  0  0  0  0  0
    6.2561  -12.2700   26.7961 C   0  0  0  0  0  0  0  0  0  0  0  0
    6.0123  -13.2988   25.9081 C   0  0  0  0  0  0  0  0  0  0  0  0
    8.7750  -16.4186   24.4312 C   0  0  0  0  0  0  0  0  0  0  0  0
    8.3114  -17.5312   24.7776 O   0  0  0  0  0  0  0  0  0  0  0  0
   10.0660  -16.0978   24.9320 N   0  0  0  0  0  0  0  0  0  0  0  0
   10.8021  -16.9938   25.7836 C   0  0  1  0  0  0  0  0  0  0  0  0
   12.2853  -16.7043   25.5582 C   0  0  0  0  0  0  0  0  0  0  0  0
   13.3306  -17.7100   26.6088 S   0  0  0  0  0  0  0  0  0  0  0  0
   10.4320  -16.9200   27.1879 C   0  0  0  0  0  0  0  0  0  0  0  0
    9.9190  -15.8824   27.6565 O   0  0  0  0  0  0  0  0  0  0  0  0
   10.6445  -17.9989   28.0197 O   0  0  0  0  0  0  0  0  0  0  0  0
  2  1  1  6
  2  3  1  0
  3  4  1  0
  4  5  1  0
  5  6  1  0
  6  7  1  0
  8  2  1  0
  9  8  2  0
 10  8  1  0
 11 10  1  0
 11 12  1  1
 12 13  1  0
 13 14  2  0
 14 15  1  0
 16 15  2  0
 17 16  1  0
 18 13  1  0
 18 17  2  0
 19 20  2  0
 19 11  1  0
 21 19  1  0
 22 21  1  0
 22 23  1  1
 24 23  1  0
 25 27  1  0
 25 22  1  0
 26 25  2  0
M  END
$$$$
