KFC.pdb
     RDKit          3D

 27 27  0  0  1  0  0  0  0  0999 V2000
    9.9128  -16.4905   19.2317 N   0  0  0  0  0  0  0  0  0  0  0  0
    9.6989  -17.2086   20.4591 C   0  0  1  0  0  0  0  0  0  0  0  0
   10.6192  -18.3536   20.6609 C   0  0  0  0  0  0  0  0  0  0  0  0
   11.9598  -18.2614   20.0262 C   0  0  0  0  0  0  0  0  0  0  0  0
   12.7948  -19.4944   20.1127 C   0  0  0  0  0  0  0  0  0  0  0  0
   14.1393  -19.2920   19.3886 C   0  0  0  0  0  0  0  0  0  0  0  0
   14.9663  -20.4587   19.4896 N   0  0  0  0  0  0  0  0  0  0  0  0
    9.7581  -16.2144   21.5654 C   0  0  0  0  0  0  0  0  0  0  0  0
   10.6782  -15.3817   21.7055 O   0  0  0  0  0  0  0  0  0  0  0  0
    8.7073  -16.2201   22.5085 N   0  0  0  0  0  0  0  0  0  0  0  0
    8.6544  -15.3659   23.6717 C   0  0  1  0  0  0  0  0  0  0  0  0
    7.2313  -14.9410   23.8773 C   0  0  0  0  0  0  0  0  0  0  0  0
    7.0577  -13.9395   24.9313 C   0  0  0  0  0  0  0  0  0  0  0  0
    6.5291  -14.3408   26.1417 C   0  0  0  0  0  0  0  0  0  0  0  0
    6.3344  -13.4488   27.1897 C   0  0  0  0  0  0  0  0  0  0  0  0
    6.6716  -12.1242   27.0368 C   0  0  0  0  0  0  0  0  0  0  0  0
    7.1958  -11.7091   25.8465 C   0  0  0  0  0  0  0  0  0  0  0  0
    7.3851  -12.6035   24.8119 C   0  0  0  0  0  0  0  0  0  0  0  0
    9.1284  -16.0198   24.8941 C   0  0  0  0  0  0  0  0  0  0  0  0
    8.8952  -17.2051   25.2312 O   0  0  0  0  0  0  0  0  0  0  0  0
    9.9261  -15.2612   25.7934 N   0  0  0  0  0  0  0  0  0  0  0  0
   10.6715  -15.8741   26.8605 C   0  0  1  0  0  0  0  0  0  0  0  0
   11.2713  -14.7413   27.6922 C   0  0  0  0  0  0  0  0  0  0  0  0
   10.0109  -13.7991   28.5473 S   0  0  0  0  0  0  0  0  0  0  0  0
    9.8997  -16.8041   27.6690 C   0  0  0  0  0  0  0  0  0  0  0  0
   10.4627  -17.5298   28.5150 O   0  0  0  0  0  0  0  0  0  0  0  0
    8.5332  -16.8946   27.5093 O   0  0  0  0  0  0  0  0  0  0  0  0
  2  1  1  6
  2  3  1  0
  3  4  1  0
  4  5  1  0
  5  6  1  0
  6  7  1  0
  8  2  1  0
  9  8  2  0
 10  8  1  0
 11 10  1  0
 11 12  1  1
 12 13  1  0
 13 14  2  0
 14 15  1  0
 16 15  2  0
 17 16  1  0
 18 13  1  0
 18 17  2  0
 19 20  2  0
 19 11  1  0
 21 19  1  0
 22 21  1  0
 22 23  1  1
 24 23  1  0
 25 27  1  0
 25 22  1  0
 26 25  2  0
M  END
$$$$
