KFC.pdb
     RDKit          3D

 27 27  0  0  1  0  0  0  0  0999 V2000
    8.6059  -18.3550   21.8599 N   0  0  0  0  0  0  0  0  0  0  0  0
    9.8113  -17.6819   21.4576 C   0  0  1  0  0  0  0  0  0  0  0  0
    9.9432  -17.4966   19.9923 C   0  0  0  0  0  0  0  0  0  0  0  0
   10.2065  -18.7128   19.1798 C   0  0  0  0  0  0  0  0  0  0  0  0
    9.0990  -19.1270   18.2706 C   0  0  0  0  0  0  0  0  0  0  0  0
    9.4820  -20.4005   17.4929 C   0  0  0  0  0  0  0  0  0  0  0  0
    8.4038  -20.8462   16.6598 N   0  0  0  0  0  0  0  0  0  0  0  0
    9.8714  -16.4003   22.2123 C   0  0  0  0  0  0  0  0  0  0  0  0
   10.7416  -15.5236   22.0286 O   0  0  0  0  0  0  0  0  0  0  0  0
    8.8817  -16.1700   23.1927 N   0  0  0  0  0  0  0  0  0  0  0  0
    8.7784  -14.9605   23.9751 C   0  0  1  0  0  0  0  0  0  0  0  0
    7.3550  -14.8109   24.4216 C   0  0  0  0  0  0  0  0  0  0  0  0
    7.1315  -13.6769   25.3205 C   0  0  0  0  0  0  0  0  0  0  0  0
    6.3972  -13.8823   26.4713 C   0  0  0  0  0  0  0  0  0  0  0  0
    6.1430  -12.8555   27.3730 C   0  0  0  0  0  0  0  0  0  0  0  0
    6.6279  -11.5916   27.1304 C   0  0  0  0  0  0  0  0  0  0  0  0
    7.3563  -11.3697   25.9972 C   0  0  0  0  0  0  0  0  0  0  0  0
    7.6031  -12.3968   25.1080 C   0  0  0  0  0  0  0  0  0  0  0  0
    9.6423  -14.9591   25.1583 C   0  0  0  0  0  0  0  0  0  0  0  0
   10.0241  -13.9440   25.7882 O   0  0  0  0  0  0  0  0  0  0  0  0
   10.1009  -16.2097   25.6544 N   0  0  0  0  0  0  0  0  0  0  0  0
   10.9023  -16.3149   26.8446 C   0  0  1  0  0  0  0  0  0  0  0  0
   10.0433  -15.8153   28.0052 C   0  0  0  0  0  0  0  0  0  0  0  0
   10.5435  -14.1857   28.5549 S   0  0  0  0  0  0  0  0  0  0  0  0
   11.4384  -17.6446   27.0865 C   0  0  0  0  0  0  0  0  0  0  0  0
   12.0793  -17.8917   28.1294 O   0  0  0  0  0  0  0  0  0  0  0  0
   11.2441  -18.6503   26.1635 O   0  0  0  0  0  0  0  0  0  0  0  0
  2  1  1  6
  2  3  1  0
  3  4  1  0
  4  5  1  0
  5  6  1  0
  6  7  1  0
  8  2  1  0
  9  8  2  0
 10  8  1  0
 11 10  1  0
 11 12  1  1
 12 13  1  0
 13 14  2  0
 14 15  1  0
 16 15  2  0
 17 16  1  0
 18 13  1  0
 18 17  2  0
 19 20  2  0
 19 11  1  0
 21 19  1  0
 22 21  1  0
 22 23  1  1
 24 23  1  0
 25 27  1  0
 25 22  1  0
 26 25  2  0
M  END
$$$$
