KFC.pdb
     RDKit          3D

 27 27  0  0  1  0  0  0  0  0999 V2000
   10.4469  -16.4033   19.3778 N   0  0  0  0  0  0  0  0  0  0  0  0
    9.3887  -16.7829   20.2744 C   0  0  1  0  0  0  0  0  0  0  0  0
    9.2596  -18.2462   20.4765 C   0  0  0  0  0  0  0  0  0  0  0  0
    8.8849  -19.0602   19.2910 C   0  0  0  0  0  0  0  0  0  0  0  0
    7.7938  -20.0524   19.5151 C   0  0  0  0  0  0  0  0  0  0  0  0
    7.5136  -20.8518   18.2285 C   0  0  0  0  0  0  0  0  0  0  0  0
    6.4516  -21.7952   18.4220 N   0  0  0  0  0  0  0  0  0  0  0  0
    9.6017  -16.0381   21.5455 C   0  0  0  0  0  0  0  0  0  0  0  0
   10.7205  -15.8659   22.0731 O   0  0  0  0  0  0  0  0  0  0  0  0
    8.4658  -15.4972   22.1864 N   0  0  0  0  0  0  0  0  0  0  0  0
    8.4878  -14.8706   23.4874 C   0  0  1  0  0  0  0  0  0  0  0  0
    7.2366  -14.0585   23.6380 C   0  0  0  0  0  0  0  0  0  0  0  0
    7.1123  -13.3963   24.9381 C   0  0  0  0  0  0  0  0  0  0  0  0
    7.9217  -12.3104   25.2052 C   0  0  0  0  0  0  0  0  0  0  0  0
    7.8618  -11.6303   26.4158 C   0  0  0  0  0  0  0  0  0  0  0  0
    6.9777  -12.0347   27.3887 C   0  0  0  0  0  0  0  0  0  0  0  0
    6.1691  -13.1068   27.1422 C   0  0  0  0  0  0  0  0  0  0  0  0
    6.2367  -13.7753   25.9361 C   0  0  0  0  0  0  0  0  0  0  0  0
    8.5586  -15.8299   24.5925 C   0  0  0  0  0  0  0  0  0  0  0  0
    7.7482  -16.7621   24.8094 O   0  0  0  0  0  0  0  0  0  0  0  0
    9.6346  -15.7121   25.5138 N   0  0  0  0  0  0  0  0  0  0  0  0
    9.8332  -16.6524   26.5845 C   0  0  1  0  0  0  0  0  0  0  0  0
   11.1505  -17.3742   26.3043 C   0  0  0  0  0  0  0  0  0  0  0  0
   11.1840  -18.0929   24.6641 S   0  0  0  0  0  0  0  0  0  0  0  0
    9.7995  -16.0598   27.9119 C   0  0  0  0  0  0  0  0  0  0  0  0
    9.6050  -14.8348   28.0564 O   0  0  0  0  0  0  0  0  0  0  0  0
    9.9825  -16.8472   29.0288 O   0  0  0  0  0  0  0  0  0  0  0  0
  2  1  1  6
  2  3  1  0
  3  4  1  0
  4  5  1  0
  5  6  1  0
  6  7  1  0
  8  2  1  0
  9  8  2  0
 10  8  1  0
 11 10  1  0
 11 12  1  1
 12 13  1  0
 13 14  2  0
 14 15  1  0
 16 15  2  0
 17 16  1  0
 18 13  1  0
 18 17  2  0
 19 20  2  0
 19 11  1  0
 21 19  1  0
 22 21  1  0
 22 23  1  6
 24 23  1  0
 25 27  1  0
 25 22  1  0
 26 25  2  0
M  END
$$$$
