KFC.pdb
     RDKit          3D

 27 27  0  0  1  0  0  0  0  0999 V2000
    8.2752  -17.7335   21.0332 N   0  0  0  0  0  0  0  0  0  0  0  0
    9.6371  -17.2721   21.0439 C   0  0  1  0  0  0  0  0  0  0  0  0
   10.1630  -16.9009   19.7081 C   0  0  0  0  0  0  0  0  0  0  0  0
    9.6122  -17.6344   18.5388 C   0  0  0  0  0  0  0  0  0  0  0  0
   10.4765  -18.7258   18.0031 C   0  0  0  0  0  0  0  0  0  0  0  0
    9.8998  -19.2786   16.6861 C   0  0  0  0  0  0  0  0  0  0  0  0
   10.6899  -20.3659   16.1870 N   0  0  0  0  0  0  0  0  0  0  0  0
    9.7157  -16.1586   22.0285 C   0  0  0  0  0  0  0  0  0  0  0  0
   10.7281  -15.4467   22.1960 O   0  0  0  0  0  0  0  0  0  0  0  0
    8.5732  -15.8983   22.8162 N   0  0  0  0  0  0  0  0  0  0  0  0
    8.5397  -14.9624   23.9156 C   0  0  1  0  0  0  0  0  0  0  0  0
    7.1664  -14.3645   23.9809 C   0  0  0  0  0  0  0  0  0  0  0  0
    6.9840  -13.4164   25.0817 C   0  0  0  0  0  0  0  0  0  0  0  0
    7.6771  -12.2230   25.0460 C   0  0  0  0  0  0  0  0  0  0  0  0
    7.5561  -11.2734   26.0536 C   0  0  0  0  0  0  0  0  0  0  0  0
    6.7276  -11.5100   27.1257 C   0  0  0  0  0  0  0  0  0  0  0  0
    6.0342  -12.6849   27.1780 C   0  0  0  0  0  0  0  0  0  0  0  0
    6.1616  -13.6215   26.1716 C   0  0  0  0  0  0  0  0  0  0  0  0
    8.8444  -15.5768   25.2103 C   0  0  0  0  0  0  0  0  0  0  0  0
    8.8791  -14.9839   26.3149 O   0  0  0  0  0  0  0  0  0  0  0  0
    9.1293  -16.9690   25.2406 N   0  0  0  0  0  0  0  0  0  0  0  0
    9.3926  -17.6709   26.4686 C   0  0  1  0  0  0  0  0  0  0  0  0
    8.4764  -18.8935   26.4878 C   0  0  0  0  0  0  0  0  0  0  0  0
    6.7655  -18.4432   26.7670 S   0  0  0  0  0  0  0  0  0  0  0  0
   10.7893  -18.0240   26.6655 C   0  0  0  0  0  0  0  0  0  0  0  0
   11.1381  -18.7163   27.6446 O   0  0  0  0  0  0  0  0  0  0  0  0
   11.7466  -17.5966   25.7700 O   0  0  0  0  0  0  0  0  0  0  0  0
  2  1  1  6
  2  3  1  0
  3  4  1  0
  4  5  1  0
  5  6  1  0
  6  7  1  0
  8  2  1  0
  9  8  2  0
 10  8  1  0
 11 10  1  0
 11 12  1  1
 12 13  1  0
 13 14  2  0
 14 15  1  0
 16 15  2  0
 17 16  1  0
 18 13  1  0
 18 17  2  0
 19 20  2  0
 19 11  1  0
 21 19  1  0
 22 21  1  0
 22 23  1  6
 24 23  1  0
 25 27  1  0
 25 22  1  0
 26 25  2  0
M  END
$$$$
