KFC.pdb
     RDKit          3D

 27 27  0  0  1  0  0  0  0  0999 V2000
    7.8882  -18.1675   21.0125 N   0  0  0  0  0  0  0  0  0  0  0  0
    9.1883  -17.5857   20.8147 C   0  0  1  0  0  0  0  0  0  0  0  0
    9.4845  -17.2253   19.4072 C   0  0  0  0  0  0  0  0  0  0  0  0
    9.2357  -18.2676   18.3775 C   0  0  0  0  0  0  0  0  0  0  0  0
    8.3793  -17.8438   17.2321 C   0  0  0  0  0  0  0  0  0  0  0  0
    8.2723  -18.9710   16.1875 C   0  0  0  0  0  0  0  0  0  0  0  0
    7.3893  -18.6080   15.1179 N   0  0  0  0  0  0  0  0  0  0  0  0
    9.2981  -16.4292   21.7454 C   0  0  0  0  0  0  0  0  0  0  0  0
   10.2183  -15.5859   21.7034 O   0  0  0  0  0  0  0  0  0  0  0  0
    8.2980  -16.2844   22.7315 N   0  0  0  0  0  0  0  0  0  0  0  0
    8.4265  -15.4497   23.9031 C   0  0  1  0  0  0  0  0  0  0  0  0
    7.0784  -14.8751   24.2197 C   0  0  0  0  0  0  0  0  0  0  0  0
    7.0977  -13.8678   25.2822 C   0  0  0  0  0  0  0  0  0  0  0  0
    7.0764  -14.2936   26.5952 C   0  0  0  0  0  0  0  0  0  0  0  0
    7.0926  -13.3979   27.6578 C   0  0  0  0  0  0  0  0  0  0  0  0
    7.1310  -12.0445   27.4158 C   0  0  0  0  0  0  0  0  0  0  0  0
    7.1525  -11.6049   26.1234 C   0  0  0  0  0  0  0  0  0  0  0  0
    7.1361  -12.5033   25.0751 C   0  0  0  0  0  0  0  0  0  0  0  0
    8.9149  -16.1727   25.0800 C   0  0  0  0  0  0  0  0  0  0  0  0
    8.4658  -17.2607   25.5128 O   0  0  0  0  0  0  0  0  0  0  0  0
    9.9944  -15.6083   25.8125 N   0  0  0  0  0  0  0  0  0  0  0  0
   10.7055  -16.3475   26.8214 C   0  0  1  0  0  0  0  0  0  0  0  0
   12.0857  -16.6672   26.2492 C   0  0  0  0  0  0  0  0  0  0  0  0
   13.0480  -15.1853   25.9559 S   0  0  0  0  0  0  0  0  0  0  0  0
   10.7831  -15.6758   28.1087 C   0  0  0  0  0  0  0  0  0  0  0  0
   10.4197  -14.4871   28.2284 O   0  0  0  0  0  0  0  0  0  0  0  0
   11.2606  -16.3468   29.2145 O   0  0  0  0  0  0  0  0  0  0  0  0
  2  1  1  6
  2  3  1  0
  3  4  1  0
  4  5  1  0
  5  6  1  0
  6  7  1  0
  8  2  1  0
  9  8  2  0
 10  8  1  0
 11 10  1  0
 11 12  1  1
 12 13  1  0
 13 14  2  0
 14 15  1  0
 16 15  2  0
 17 16  1  0
 18 13  1  0
 18 17  2  0
 19 20  2  0
 19 11  1  0
 21 19  1  0
 22 21  1  0
 22 23  1  6
 24 23  1  0
 25 27  1  0
 25 22  1  0
 26 25  2  0
M  END
$$$$
