KFC.pdb
     RDKit          3D

 27 27  0  0  1  0  0  0  0  0999 V2000
    7.7327  -16.5935   21.0177 N   0  0  0  0  0  0  0  0  0  0  0  0
    8.6069  -15.4993   20.6915 C   0  0  1  0  0  0  0  0  0  0  0  0
    7.9703  -14.4352   19.8783 C   0  0  0  0  0  0  0  0  0  0  0  0
    8.5706  -14.1524   18.5486 C   0  0  0  0  0  0  0  0  0  0  0  0
    7.6818  -14.4073   17.3781 C   0  0  0  0  0  0  0  0  0  0  0  0
    7.7822  -13.2566   16.3589 C   0  0  0  0  0  0  0  0  0  0  0  0
    8.3128  -13.7134   15.1079 N   0  0  0  0  0  0  0  0  0  0  0  0
    9.1718  -14.9918   21.9717 C   0  0  0  0  0  0  0  0  0  0  0  0
   10.1116  -14.1723   22.0424 O   0  0  0  0  0  0  0  0  0  0  0  0
    8.6056  -15.4706   23.1733 N   0  0  0  0  0  0  0  0  0  0  0  0
    9.0402  -15.0727   24.4918 C   0  0  1  0  0  0  0  0  0  0  0  0
    7.8796  -15.2132   25.4304 C   0  0  0  0  0  0  0  0  0  0  0  0
    7.3416  -13.9363   25.9038 C   0  0  0  0  0  0  0  0  0  0  0  0
    8.1895  -12.8493   25.9753 C   0  0  0  0  0  0  0  0  0  0  0  0
    7.7526  -11.6050   26.4144 C   0  0  0  0  0  0  0  0  0  0  0  0
    6.4419  -11.4308   26.7931 C   0  0  0  0  0  0  0  0  0  0  0  0
    5.5887  -12.4947   26.7290 C   0  0  0  0  0  0  0  0  0  0  0  0
    6.0331  -13.7265   26.2913 C   0  0  0  0  0  0  0  0  0  0  0  0
   10.1545  -15.8751   25.0024 C   0  0  0  0  0  0  0  0  0  0  0  0
   11.3375  -15.8379   24.5876 O   0  0  0  0  0  0  0  0  0  0  0  0
    9.8942  -16.7844   26.0635 N   0  0  0  0  0  0  0  0  0  0  0  0
   10.6645  -16.7849   27.2787 C   0  0  1  0  0  0  0  0  0  0  0  0
   10.4491  -15.4258   27.9429 C   0  0  0  0  0  0  0  0  0  0  0  0
   11.5194  -15.1966   29.3605 S   0  0  0  0  0  0  0  0  0  0  0  0
   10.3647  -17.8909   28.1738 C   0  0  0  0  0  0  0  0  0  0  0  0
    9.1825  -18.2257   28.3970 O   0  0  0  0  0  0  0  0  0  0  0  0
   11.3864  -18.5839   28.7877 O   0  0  0  0  0  0  0  0  0  0  0  0
  2  1  1  1
  2  3  1  0
  3  4  1  0
  4  5  1  0
  5  6  1  0
  6  7  1  0
  8  2  1  0
  9  8  2  0
 10  8  1  0
 11 10  1  0
 11 12  1  1
 12 13  1  0
 13 14  2  0
 14 15  1  0
 16 15  2  0
 17 16  1  0
 18 13  1  0
 18 17  2  0
 19 20  2  0
 19 11  1  0
 21 19  1  0
 22 21  1  0
 22 23  1  1
 24 23  1  0
 25 27  1  0
 25 22  1  0
 26 25  2  0
M  END
$$$$
