KFC.pdb
     RDKit          3D

 27 27  0  0  1  0  0  0  0  0999 V2000
    8.7866  -17.5159   20.4627 N   0  0  0  0  0  0  0  0  0  0  0  0
    9.8845  -16.6040   20.2869 C   0  0  1  0  0  0  0  0  0  0  0  0
    9.8311  -15.8252   19.0261 C   0  0  0  0  0  0  0  0  0  0  0  0
    9.7702  -16.5980   17.7582 C   0  0  0  0  0  0  0  0  0  0  0  0
    8.5673  -16.3464   16.9127 C   0  0  0  0  0  0  0  0  0  0  0  0
    8.6747  -17.1044   15.5759 C   0  0  0  0  0  0  0  0  0  0  0  0
    9.9138  -16.8197   14.9136 N   0  0  0  0  0  0  0  0  0  0  0  0
    9.9381  -15.7423   21.4994 C   0  0  0  0  0  0  0  0  0  0  0  0
   10.8145  -14.8755   21.7001 O   0  0  0  0  0  0  0  0  0  0  0  0
    8.9345  -15.9222   22.4762 N   0  0  0  0  0  0  0  0  0  0  0  0
    8.7963  -15.1061   23.6596 C   0  0  1  0  0  0  0  0  0  0  0  0
    7.3347  -14.8830   23.9075 C   0  0  0  0  0  0  0  0  0  0  0  0
    7.0539  -13.8731   24.9299 C   0  0  0  0  0  0  0  0  0  0  0  0
    7.4428  -12.5698   24.6938 C   0  0  0  0  0  0  0  0  0  0  0  0
    7.2112  -11.5561   25.6161 C   0  0  0  0  0  0  0  0  0  0  0  0
    6.5779  -11.8386   26.8039 C   0  0  0  0  0  0  0  0  0  0  0  0
    6.1861  -13.1222   27.0547 C   0  0  0  0  0  0  0  0  0  0  0  0
    6.4211  -14.1217   26.1316 C   0  0  0  0  0  0  0  0  0  0  0  0
    9.3862  -15.7133   24.8554 C   0  0  0  0  0  0  0  0  0  0  0  0
    9.5085  -16.9427   25.0711 O   0  0  0  0  0  0  0  0  0  0  0  0
    9.8699  -14.8501   25.8758 N   0  0  0  0  0  0  0  0  0  0  0  0
   10.4861  -15.3514   27.0754 C   0  0  1  0  0  0  0  0  0  0  0  0
   10.6277  -14.1678   28.0312 C   0  0  0  0  0  0  0  0  0  0  0  0
   11.3535  -14.6535   29.5949 S   0  0  0  0  0  0  0  0  0  0  0  0
    9.7846  -16.4710   27.6826 C   0  0  0  0  0  0  0  0  0  0  0  0
    8.5426  -16.4490   27.8106 O   0  0  0  0  0  0  0  0  0  0  0  0
   10.4861  -17.5725   28.1250 O   0  0  0  0  0  0  0  0  0  0  0  0
  2  1  1  1
  2  3  1  0
  3  4  1  0
  4  5  1  0
  5  6  1  0
  6  7  1  0
  8  2  1  0
  9  8  2  0
 10  8  1  0
 11 10  1  0
 11 12  1  1
 12 13  1  0
 13 14  2  0
 14 15  1  0
 16 15  2  0
 17 16  1  0
 18 13  1  0
 18 17  2  0
 19 20  2  0
 19 11  1  0
 21 19  1  0
 22 21  1  0
 22 23  1  1
 24 23  1  0
 25 27  1  0
 25 22  1  0
 26 25  2  0
M  END
$$$$
