NEI.pdb
     RDKit          3D

 26 25  0  0  1  0  0  0  0  0999 V2000
    8.6988  -12.9206   17.0777 N   0  0  0  0  0  0  0  0  0  0  0  0
    7.6287  -13.8700   17.2047 C   0  0  0  0  0  0  0  0  0  0  0  0
    6.9781  -14.1744   16.1739 O   0  0  0  0  0  0  0  0  0  0  0  0
    7.3438  -14.4413   18.5382 C   0  0  0  0  0  0  0  0  0  0  0  0
    8.2043  -13.7438   19.5796 C   0  0  2  0  0  0  0  0  0  0  0  0
    9.5637  -13.6478   19.1181 N   0  0  0  0  0  0  0  0  0  0  0  0
    8.1238  -14.6090   20.8065 C   0  0  0  0  0  0  0  0  0  0  0  0
    6.9679  -14.7955   21.3205 O   0  0  0  0  0  0  0  0  0  0  0  0
    9.2851  -15.1727   21.3414 N   0  0  0  0  0  0  0  0  0  0  0  0
    9.2110  -16.0365   22.5239 C   0  0  1  0  0  0  0  0  0  0  0  0
   10.1993  -17.1298   22.2563 C   0  0  0  0  0  0  0  0  0  0  0  0
   10.4354  -18.1116   23.3426 C   0  0  0  0  0  0  0  0  0  0  0  0
   11.4425  -19.1013   22.8193 C   0  0  0  0  0  0  0  0  0  0  0  0
   11.9692  -19.8725   23.6494 O   0  0  0  0  0  0  0  0  0  0  0  0
    9.4184  -15.2661   23.7482 C   0  0  0  0  0  0  0  0  0  0  0  0
   10.3835  -14.4576   23.7809 O   0  0  0  0  0  0  0  0  0  0  0  0
   11.8014  -19.1936   21.4878 O   0  0  0  0  0  0  0  0  0  0  0  0
    5.8418  -12.1877   25.7311 C   0  0  0  0  0  0  0  0  0  0  0  0
    7.1362  -12.8888   25.3999 C   0  0  0  0  0  0  0  0  0  0  0  0
    7.5521  -13.8648   26.4785 C   0  0  2  0  0  0  0  0  0  0  0  0
    7.7248  -13.1119   27.7522 C   0  0  0  0  0  0  0  0  0  0  0  0
    8.7915  -14.6546   26.0923 C   0  0  2  0  0  0  0  0  0  0  0  0
    8.5634  -15.4105   24.8695 N   0  0  0  0  0  0  0  0  0  0  0  0
    9.0939  -15.5817   27.1949 C   0  0  0  0  0  0  0  0  0  0  0  0
    8.7058  -16.7901   27.2035 O   0  0  0  0  0  0  0  0  0  0  0  0
    9.8272  -15.2009   28.3075 O   0  0  0  0  0  0  0  0  0  0  0  0
  2  1  1  0
  2  4  1  0
  3  2  2  0
  5  6  1  6
  5  4  1  0
  7  5  1  0
  8  7  2  0
  9  7  1  0
 10  9  1  0
 11 12  1  0
 10 11  1  6
 13 12  1  0
 13 17  1  0
 14 13  2  0
 15 23  1  0
 15 10  1  0
 16 15  2  0
 19 18  1  0
 20 22  1  0
 20 19  1  0
 20 21  1  1
 22 23  1  6
 24 22  1  0
 25 24  2  0
 26 24  1  0
M  END
$$$$
