NEI.pdb
     RDKit          3D

 26 25  0  0  1  0  0  0  0  0999 V2000
    8.1192  -12.6930   16.1698 N   0  0  0  0  0  0  0  0  0  0  0  0
    7.7708  -13.9207   16.8285 C   0  0  0  0  0  0  0  0  0  0  0  0
    7.8143  -14.9857   16.1632 O   0  0  0  0  0  0  0  0  0  0  0  0
    7.3779  -13.8732   18.2529 C   0  0  0  0  0  0  0  0  0  0  0  0
    8.6262  -13.8846   19.1206 C   0  0  2  0  0  0  0  0  0  0  0  0
    9.6656  -14.6516   18.4869 N   0  0  0  0  0  0  0  0  0  0  0  0
    8.2073  -14.5303   20.4121 C   0  0  0  0  0  0  0  0  0  0  0  0
    7.2869  -13.9538   21.0871 O   0  0  0  0  0  0  0  0  0  0  0  0
    8.8193  -15.7142   20.8322 N   0  0  0  0  0  0  0  0  0  0  0  0
    8.4357  -16.3339   22.1045 C   0  0  1  0  0  0  0  0  0  0  0  0
    9.0113  -17.7153   22.0411 C   0  0  0  0  0  0  0  0  0  0  0  0
    9.0060  -18.5104   23.2931 C   0  0  0  0  0  0  0  0  0  0  0  0
    9.6566  -19.8295   22.9701 C   0  0  0  0  0  0  0  0  0  0  0  0
   10.7665  -19.7932   22.3974 O   0  0  0  0  0  0  0  0  0  0  0  0
    8.8589  -15.5110   23.2356 C   0  0  0  0  0  0  0  0  0  0  0  0
   10.0794  -15.2136   23.3257 O   0  0  0  0  0  0  0  0  0  0  0  0
    9.0924  -21.0539   23.2746 O   0  0  0  0  0  0  0  0  0  0  0  0
    6.7714  -11.1838   27.0806 C   0  0  0  0  0  0  0  0  0  0  0  0
    7.7576  -12.2940   26.8134 C   0  0  0  0  0  0  0  0  0  0  0  0
    7.3216  -13.1860   25.6719 C   0  0  2  0  0  0  0  0  0  0  0  0
    6.0008  -13.7811   26.0187 C   0  0  0  0  0  0  0  0  0  0  0  0
    8.3659  -14.2362   25.3316 C   0  0  2  0  0  0  0  0  0  0  0  0
    7.9333  -15.0503   24.2052 N   0  0  0  0  0  0  0  0  0  0  0  0
    8.5450  -15.0907   26.5166 C   0  0  0  0  0  0  0  0  0  0  0  0
    8.0192  -16.2412   26.6207 O   0  0  0  0  0  0  0  0  0  0  0  0
    9.3039  -14.6998   27.6083 O   0  0  0  0  0  0  0  0  0  0  0  0
  2  1  1  0
  2  4  1  0
  3  2  2  0
  5  6  1  6
  5  4  1  0
  7  5  1  0
  8  7  2  0
  9  7  1  0
 10  9  1  0
 11 12  1  0
 10 11  1  1
 13 12  1  0
 13 17  1  0
 14 13  2  0
 15 23  1  0
 15 10  1  0
 16 15  2  0
 19 18  1  0
 20 22  1  0
 20 19  1  0
 20 21  1  1
 22 23  1  6
 24 22  1  0
 25 24  2  0
 26 24  1  0
M  END
$$$$
