NEI.pdb
     RDKit          3D

 26 25  0  0  1  0  0  0  0  0999 V2000
    8.0475  -12.9030   16.3904 N   0  0  0  0  0  0  0  0  0  0  0  0
    7.8397  -14.0368   17.2471 C   0  0  0  0  0  0  0  0  0  0  0  0
    8.2112  -15.1659   16.8401 O   0  0  0  0  0  0  0  0  0  0  0  0
    7.1996  -13.8223   18.5625 C   0  0  0  0  0  0  0  0  0  0  0  0
    8.2581  -13.4257   19.5792 C   0  0  2  0  0  0  0  0  0  0  0  0
    9.5728  -13.5858   19.0169 N   0  0  0  0  0  0  0  0  0  0  0  0
    8.0641  -14.3602   20.7409 C   0  0  0  0  0  0  0  0  0  0  0  0
    6.9362  -14.3254   21.3424 O   0  0  0  0  0  0  0  0  0  0  0  0
    9.0954  -15.2213   21.1247 N   0  0  0  0  0  0  0  0  0  0  0  0
    8.9405  -16.0823   22.3015 C   0  0  1  0  0  0  0  0  0  0  0  0
    9.7819  -17.2852   22.0034 C   0  0  0  0  0  0  0  0  0  0  0  0
    9.9047  -18.3082   23.0701 C   0  0  0  0  0  0  0  0  0  0  0  0
   10.7825  -19.4017   22.5212 C   0  0  0  0  0  0  0  0  0  0  0  0
   11.7144  -19.8049   23.2493 O   0  0  0  0  0  0  0  0  0  0  0  0
    9.2658  -15.3563   23.5272 C   0  0  0  0  0  0  0  0  0  0  0  0
   10.3689  -14.7507   23.5799 O   0  0  0  0  0  0  0  0  0  0  0  0
   10.6052  -19.9690   21.2734 O   0  0  0  0  0  0  0  0  0  0  0  0
    6.1564  -11.7850   25.5596 C   0  0  0  0  0  0  0  0  0  0  0  0
    7.3370  -12.6559   25.2071 C   0  0  0  0  0  0  0  0  0  0  0  0
    7.6419  -13.6726   26.2851 C   0  0  2  0  0  0  0  0  0  0  0  0
    7.9758  -12.9418   27.5394 C   0  0  0  0  0  0  0  0  0  0  0  0
    8.7316  -14.6455   25.8662 C   0  0  2  0  0  0  0  0  0  0  0  0
    8.3736  -15.3218   24.6281 N   0  0  0  0  0  0  0  0  0  0  0  0
    8.8848  -15.6376   26.9427 C   0  0  0  0  0  0  0  0  0  0  0  0
    8.1914  -16.6989   27.0036 O   0  0  0  0  0  0  0  0  0  0  0  0
    9.8008  -15.4844   27.9712 O   0  0  0  0  0  0  0  0  0  0  0  0
  2  1  1  0
  2  4  1  0
  3  2  2  0
  5  6  1  6
  5  4  1  0
  7  5  1  0
  8  7  2  0
  9  7  1  0
 10  9  1  0
 11 12  1  0
 10 11  1  6
 13 12  1  0
 13 17  1  0
 14 13  2  0
 15 23  1  0
 15 10  1  0
 16 15  2  0
 19 18  1  0
 20 22  1  0
 20 19  1  0
 20 21  1  1
 22 23  1  6
 24 22  1  0
 25 24  2  0
 26 24  1  0
M  END
$$$$
