NEI.pdb
     RDKit          3D

 26 25  0  0  1  0  0  0  0  0999 V2000
    9.0329  -13.5627   17.0461 N   0  0  0  0  0  0  0  0  0  0  0  0
    7.6540  -13.8416   17.3350 C   0  0  0  0  0  0  0  0  0  0  0  0
    6.8676  -14.0151   16.3707 O   0  0  0  0  0  0  0  0  0  0  0  0
    7.2267  -13.9098   18.7487 C   0  0  0  0  0  0  0  0  0  0  0  0
    8.3875  -13.5109   19.6458 C   0  0  2  0  0  0  0  0  0  0  0  0
    9.6384  -13.7484   18.9758 N   0  0  0  0  0  0  0  0  0  0  0  0
    8.2676  -14.3842   20.8637 C   0  0  0  0  0  0  0  0  0  0  0  0
    7.1707  -14.3333   21.5189 O   0  0  0  0  0  0  0  0  0  0  0  0
    9.3314  -15.2084   21.2400 N   0  0  0  0  0  0  0  0  0  0  0  0
    9.2261  -16.0530   22.4340 C   0  0  1  0  0  0  0  0  0  0  0  0
   10.2099  -17.1587   22.2032 C   0  0  0  0  0  0  0  0  0  0  0  0
   10.3866  -18.1480   23.2940 C   0  0  0  0  0  0  0  0  0  0  0  0
   11.4984  -19.0690   22.8661 C   0  0  0  0  0  0  0  0  0  0  0  0
   11.1706  -20.1466   22.3253 O   0  0  0  0  0  0  0  0  0  0  0  0
    9.4158  -15.2654   23.6502 C   0  0  0  0  0  0  0  0  0  0  0  0
   10.3881  -14.4659   23.6904 O   0  0  0  0  0  0  0  0  0  0  0  0
   12.8388  -18.7800   23.0401 O   0  0  0  0  0  0  0  0  0  0  0  0
    6.0157  -11.9809   25.4881 C   0  0  0  0  0  0  0  0  0  0  0  0
    7.2860  -12.7529   25.2295 C   0  0  0  0  0  0  0  0  0  0  0  0
    7.5765  -13.7609   26.3196 C   0  0  2  0  0  0  0  0  0  0  0  0
    7.7465  -13.0273   27.6048 C   0  0  0  0  0  0  0  0  0  0  0  0
    8.7693  -14.6413   25.9856 C   0  0  2  0  0  0  0  0  0  0  0  0
    8.5362  -15.3836   24.7554 N   0  0  0  0  0  0  0  0  0  0  0  0
    8.9574  -15.5833   27.1009 C   0  0  0  0  0  0  0  0  0  0  0  0
    8.5090  -16.7704   27.0815 O   0  0  0  0  0  0  0  0  0  0  0  0
    9.6407  -15.2410   28.2570 O   0  0  0  0  0  0  0  0  0  0  0  0
  2  1  1  0
  2  4  1  0
  3  2  2  0
  5  6  1  6
  5  4  1  0
  7  5  1  0
  8  7  2  0
  9  7  1  0
 10  9  1  0
 11 12  1  0
 10 11  1  6
 13 12  1  0
 13 17  1  0
 14 13  2  0
 15 23  1  0
 15 10  1  0
 16 15  2  0
 19 18  1  0
 20 22  1  0
 20 19  1  0
 20 21  1  1
 22 23  1  6
 24 22  1  0
 25 24  2  0
 26 24  1  0
M  END
$$$$
