NEI.pdb
     RDKit          3D

 26 25  0  0  1  0  0  0  0  0999 V2000
    9.3815  -15.0328   17.7657 N   0  0  0  0  0  0  0  0  0  0  0  0
    8.0585  -14.6960   17.3198 C   0  0  0  0  0  0  0  0  0  0  0  0
    7.5724  -15.3422   16.3582 O   0  0  0  0  0  0  0  0  0  0  0  0
    7.3343  -13.6078   18.0105 C   0  0  0  0  0  0  0  0  0  0  0  0
    8.1872  -13.0813   19.1537 C   0  0  2  0  0  0  0  0  0  0  0  0
    9.5786  -13.1047   18.7881 N   0  0  0  0  0  0  0  0  0  0  0  0
    7.9287  -14.0131   20.3050 C   0  0  0  0  0  0  0  0  0  0  0  0
    6.7372  -14.0624   20.7664 O   0  0  0  0  0  0  0  0  0  0  0  0
    8.9711  -14.7821   20.8291 N   0  0  0  0  0  0  0  0  0  0  0  0
    8.7438  -15.6370   21.9985 C   0  0  1  0  0  0  0  0  0  0  0  0
    9.6266  -16.8263   21.7749 C   0  0  0  0  0  0  0  0  0  0  0  0
   11.0911  -16.6106   21.8666 C   0  0  0  0  0  0  0  0  0  0  0  0
   11.7430  -17.9302   21.5484 C   0  0  0  0  0  0  0  0  0  0  0  0
   12.3471  -18.0201   20.4584 O   0  0  0  0  0  0  0  0  0  0  0  0
    8.9631  -14.8959   23.2387 C   0  0  0  0  0  0  0  0  0  0  0  0
    9.5999  -13.8112   23.1738 O   0  0  0  0  0  0  0  0  0  0  0  0
   11.7048  -19.0239   22.3926 O   0  0  0  0  0  0  0  0  0  0  0  0
    7.1297  -11.3845   27.0958 C   0  0  0  0  0  0  0  0  0  0  0  0
    7.9825  -12.6288   27.0653 C   0  0  0  0  0  0  0  0  0  0  0  0
    7.7191  -13.4747   25.8390 C   0  0  2  0  0  0  0  0  0  0  0  0
    6.3020  -13.9320   25.8791 C   0  0  0  0  0  0  0  0  0  0  0  0
    8.7028  -14.6262   25.7127 C   0  0  2  0  0  0  0  0  0  0  0  0
    8.4745  -15.3693   24.4821 N   0  0  0  0  0  0  0  0  0  0  0  0
    8.5032  -15.5151   26.8689 C   0  0  0  0  0  0  0  0  0  0  0  0
    8.7454  -15.1564   28.0620 O   0  0  0  0  0  0  0  0  0  0  0  0
    8.0343  -16.8126   26.7380 O   0  0  0  0  0  0  0  0  0  0  0  0
  2  1  1  0
  2  4  1  0
  3  2  2  0
  5  6  1  6
  5  4  1  0
  7  5  1  0
  8  7  2  0
  9  7  1  0
 10  9  1  0
 11 12  1  0
 10 11  1  6
 13 12  1  0
 13 17  1  0
 14 13  2  0
 15 23  1  0
 15 10  1  0
 16 15  2  0
 19 18  1  0
 20 22  1  0
 20 19  1  0
 20 21  1  1
 22 23  1  6
 24 22  1  0
 25 24  2  0
 26 24  1  0
M  END
$$$$
