NEI.pdb
     RDKit          3D

 26 25  0  0  1  0  0  0  0  0999 V2000
    9.1213  -14.3391   16.5727 N   0  0  0  0  0  0  0  0  0  0  0  0
    7.9134  -13.7722   17.1038 C   0  0  0  0  0  0  0  0  0  0  0  0
    7.3089  -12.9105   16.4177 O   0  0  0  0  0  0  0  0  0  0  0  0
    7.4407  -14.2271   18.4287 C   0  0  0  0  0  0  0  0  0  0  0  0
    8.3433  -13.6540   19.5097 C   0  0  2  0  0  0  0  0  0  0  0  0
    9.7116  -13.6506   19.0651 N   0  0  0  0  0  0  0  0  0  0  0  0
    8.1756  -14.5663   20.6930 C   0  0  0  0  0  0  0  0  0  0  0  0
    7.0061  -14.6626   21.2010 O   0  0  0  0  0  0  0  0  0  0  0  0
    9.2746  -15.2678   21.1957 N   0  0  0  0  0  0  0  0  0  0  0  0
    9.1300  -16.1172   22.3822 C   0  0  1  0  0  0  0  0  0  0  0  0
   10.0356  -17.2824   22.1258 C   0  0  0  0  0  0  0  0  0  0  0  0
   10.2763  -18.2152   23.2535 C   0  0  0  0  0  0  0  0  0  0  0  0
   11.2499  -19.2512   22.7571 C   0  0  0  0  0  0  0  0  0  0  0  0
   12.1184  -19.6501   23.5619 O   0  0  0  0  0  0  0  0  0  0  0  0
    9.3876  -15.3575   23.6036 C   0  0  0  0  0  0  0  0  0  0  0  0
   10.4308  -14.6535   23.6524 O   0  0  0  0  0  0  0  0  0  0  0  0
   11.2248  -19.7711   21.4767 O   0  0  0  0  0  0  0  0  0  0  0  0
    5.9272  -12.0494   25.5854 C   0  0  0  0  0  0  0  0  0  0  0  0
    7.1808  -12.8141   25.2388 C   0  0  0  0  0  0  0  0  0  0  0  0
    7.5643  -13.8052   26.3156 C   0  0  2  0  0  0  0  0  0  0  0  0
    7.7780  -13.0585   27.5867 C   0  0  0  0  0  0  0  0  0  0  0  0
    8.7669  -14.6462   25.9210 C   0  0  2  0  0  0  0  0  0  0  0  0
    8.4959  -15.3983   24.7046 N   0  0  0  0  0  0  0  0  0  0  0  0
    9.0432  -15.5792   27.0254 C   0  0  0  0  0  0  0  0  0  0  0  0
    8.4882  -16.7168   27.1198 O   0  0  0  0  0  0  0  0  0  0  0  0
    9.9328  -15.2823   28.0457 O   0  0  0  0  0  0  0  0  0  0  0  0
  2  1  1  0
  2  4  1  0
  3  2  2  0
  5  6  1  6
  5  4  1  0
  7  5  1  0
  8  7  2  0
  9  7  1  0
 10  9  1  0
 11 12  1  0
 10 11  1  6
 13 12  1  0
 13 17  1  0
 14 13  2  0
 15 23  1  0
 15 10  1  0
 16 15  2  0
 19 18  1  0
 20 22  1  0
 20 19  1  0
 20 21  1  1
 22 23  1  6
 24 22  1  0
 25 24  2  0
 26 24  1  0
M  END
$$$$
