NEI.pdb
     RDKit          3D

 26 25  0  0  1  0  0  0  0  0999 V2000
    7.0760  -13.5799   15.6320 N   0  0  0  0  0  0  0  0  0  0  0  0
    8.0648  -13.8213   16.6451 C   0  0  0  0  0  0  0  0  0  0  0  0
    9.1801  -14.2788   16.2908 O   0  0  0  0  0  0  0  0  0  0  0  0
    7.7243  -13.5220   18.0523 C   0  0  0  0  0  0  0  0  0  0  0  0
    8.9290  -13.8090   18.9343 C   0  0  2  0  0  0  0  0  0  0  0  0
    9.8346  -14.7036   18.2637 N   0  0  0  0  0  0  0  0  0  0  0  0
    8.3710  -14.4539   20.1725 C   0  0  0  0  0  0  0  0  0  0  0  0
    7.3864  -13.8736   20.7458 O   0  0  0  0  0  0  0  0  0  0  0  0
    8.9289  -15.6411   20.6540 N   0  0  0  0  0  0  0  0  0  0  0  0
    8.4473  -16.2294   21.9078 C   0  0  1  0  0  0  0  0  0  0  0  0
    8.9483  -17.6407   21.8804 C   0  0  0  0  0  0  0  0  0  0  0  0
    8.3532  -18.5522   20.8730 C   0  0  0  0  0  0  0  0  0  0  0  0
    9.0957  -19.8579   20.9796 C   0  0  0  0  0  0  0  0  0  0  0  0
    9.1201  -20.5851   19.9638 O   0  0  0  0  0  0  0  0  0  0  0  0
    8.8568  -15.4226   23.0553 C   0  0  0  0  0  0  0  0  0  0  0  0
   10.0345  -14.9764   23.0735 O   0  0  0  0  0  0  0  0  0  0  0  0
    9.7399  -20.2783   22.1279 O   0  0  0  0  0  0  0  0  0  0  0  0
    6.7742  -11.1500   26.8146 C   0  0  0  0  0  0  0  0  0  0  0  0
    7.7460  -12.2878   26.6204 C   0  0  0  0  0  0  0  0  0  0  0  0
    7.3718  -13.1679   25.4481 C   0  0  2  0  0  0  0  0  0  0  0  0
    5.9813  -13.6604   25.6554 C   0  0  0  0  0  0  0  0  0  0  0  0
    8.3673  -14.2962   25.2355 C   0  0  2  0  0  0  0  0  0  0  0  0
    7.9640  -15.1385   24.1190 N   0  0  0  0  0  0  0  0  0  0  0  0
    8.4055  -15.0986   26.4689 C   0  0  0  0  0  0  0  0  0  0  0  0
    7.8517  -16.2364   26.5665 O   0  0  0  0  0  0  0  0  0  0  0  0
    9.0517  -14.6685   27.6169 O   0  0  0  0  0  0  0  0  0  0  0  0
  2  1  1  0
  2  4  1  0
  3  2  2  0
  5  6  1  6
  5  4  1  0
  7  5  1  0
  8  7  2  0
  9  7  1  0
 10  9  1  0
 11 12  1  0
 10 11  1  1
 13 12  1  0
 13 17  1  0
 14 13  2  0
 15 23  1  0
 15 10  1  0
 16 15  2  0
 19 18  1  0
 20 22  1  0
 20 19  1  0
 20 21  1  1
 22 23  1  6
 24 22  1  0
 25 24  2  0
 26 24  1  0
M  END
$$$$
