NEI.pdb
     RDKit          3D

 26 25  0  0  1  0  0  0  0  0999 V2000
    7.2328  -12.4205   18.0291 N   0  0  0  0  0  0  0  0  0  0  0  0
    8.3222  -13.1375   18.6307 C   0  0  0  0  0  0  0  0  0  0  0  0
    9.4041  -13.2169   17.9969 O   0  0  0  0  0  0  0  0  0  0  0  0
    8.1190  -13.7469   19.9622 C   0  0  0  0  0  0  0  0  0  0  0  0
    8.3666  -15.2444   19.8741 C   0  0  2  0  0  0  0  0  0  0  0  0
    7.3244  -15.8768   19.1099 N   0  0  0  0  0  0  0  0  0  0  0  0
    8.3500  -15.7348   21.2953 C   0  0  0  0  0  0  0  0  0  0  0  0
    7.2212  -15.7623   21.8954 O   0  0  0  0  0  0  0  0  0  0  0  0
    9.5388  -16.1374   21.9094 N   0  0  0  0  0  0  0  0  0  0  0  0
    9.5151  -16.7256   23.2523 C   0  0  1  0  0  0  0  0  0  0  0  0
   10.5052  -17.8479   23.1913 C   0  0  0  0  0  0  0  0  0  0  0  0
   10.1358  -19.0351   22.3827 C   0  0  0  0  0  0  0  0  0  0  0  0
   11.2881  -19.9996   22.4796 C   0  0  0  0  0  0  0  0  0  0  0  0
   11.1239  -21.0156   23.1881 O   0  0  0  0  0  0  0  0  0  0  0  0
    9.7565  -15.7083   24.2732 C   0  0  0  0  0  0  0  0  0  0  0  0
   10.7431  -14.9405   24.1202 O   0  0  0  0  0  0  0  0  0  0  0  0
   12.4946  -19.8152   21.8310 O   0  0  0  0  0  0  0  0  0  0  0  0
    6.2752  -12.2128   25.8965 C   0  0  0  0  0  0  0  0  0  0  0  0
    7.5301  -12.9957   25.5983 C   0  0  0  0  0  0  0  0  0  0  0  0
    8.0220  -13.7706   26.8009 C   0  0  2  0  0  0  0  0  0  0  0  0
    8.2947  -12.8055   27.9023 C   0  0  0  0  0  0  0  0  0  0  0  0
    9.2248  -14.6394   26.4723 C   0  0  2  0  0  0  0  0  0  0  0  0
    8.9106  -15.5752   25.4027 N   0  0  0  0  0  0  0  0  0  0  0  0
    9.5847  -15.3854   27.6892 C   0  0  0  0  0  0  0  0  0  0  0  0
    9.2059  -16.5779   27.9021 O   0  0  0  0  0  0  0  0  0  0  0  0
   10.3664  -14.8378   28.6939 O   0  0  0  0  0  0  0  0  0  0  0  0
  2  1  1  0
  2  4  1  0
  3  2  2  0
  5  6  1  6
  5  4  1  0
  7  5  1  0
  8  7  2  0
  9  7  1  0
 10  9  1  0
 11 12  1  0
 10 11  1  6
 13 12  1  0
 13 17  1  0
 14 13  2  0
 15 23  1  0
 15 10  1  0
 16 15  2  0
 19 18  1  0
 20 22  1  0
 20 19  1  0
 20 21  1  1
 22 23  1  6
 24 22  1  0
 25 24  2  0
 26 24  1  0
M  END
$$$$
