NEI.pdb
     RDKit          3D

 26 25  0  0  1  0  0  0  0  0999 V2000
    9.2958  -14.9788   17.6975 N   0  0  0  0  0  0  0  0  0  0  0  0
    7.9828  -14.4236   17.5229 C   0  0  0  0  0  0  0  0  0  0  0  0
    7.2942  -14.8196   16.5494 O   0  0  0  0  0  0  0  0  0  0  0  0
    7.5059  -13.4152   18.4930 C   0  0  0  0  0  0  0  0  0  0  0  0
    8.5316  -13.2607   19.6046 C   0  0  2  0  0  0  0  0  0  0  0  0
    9.8116  -13.7561   19.1727 N   0  0  0  0  0  0  0  0  0  0  0  0
    8.0063  -14.0834   20.7480 C   0  0  0  0  0  0  0  0  0  0  0  0
    6.9020  -13.7169   21.2784 O   0  0  0  0  0  0  0  0  0  0  0  0
    8.7203  -15.1995   21.1918 N   0  0  0  0  0  0  0  0  0  0  0  0
    8.2651  -15.9495   22.3667 C   0  0  1  0  0  0  0  0  0  0  0  0
    8.6136  -17.3745   22.0641 C   0  0  0  0  0  0  0  0  0  0  0  0
    9.5595  -17.6192   20.9483 C   0  0  0  0  0  0  0  0  0  0  0  0
    9.4669  -19.0852   20.6168 C   0  0  0  0  0  0  0  0  0  0  0  0
    9.8442  -19.8931   21.4921 O   0  0  0  0  0  0  0  0  0  0  0  0
    8.8323  -15.3942   23.5936 C   0  0  0  0  0  0  0  0  0  0  0  0
   10.0731  -15.1808   23.6269 O   0  0  0  0  0  0  0  0  0  0  0  0
    8.9910  -19.5669   19.4119 O   0  0  0  0  0  0  0  0  0  0  0  0
    5.8751  -11.7109   25.9641 C   0  0  0  0  0  0  0  0  0  0  0  0
    7.0811  -12.4729   25.4728 C   0  0  0  0  0  0  0  0  0  0  0  0
    7.5870  -13.4669   26.4950 C   0  0  2  0  0  0  0  0  0  0  0  0
    8.1528  -12.7099   27.6464 C   0  0  0  0  0  0  0  0  0  0  0  0
    8.5783  -14.4517   25.8976 C   0  0  2  0  0  0  0  0  0  0  0  0
    8.0211  -15.0949   24.7168 N   0  0  0  0  0  0  0  0  0  0  0  0
    8.8711  -15.4690   26.9204 C   0  0  0  0  0  0  0  0  0  0  0  0
    9.5846  -15.2308   27.9427 O   0  0  0  0  0  0  0  0  0  0  0  0
    8.3868  -16.7650   26.8412 O   0  0  0  0  0  0  0  0  0  0  0  0
  2  1  1  0
  2  4  1  0
  3  2  2  0
  5  6  1  6
  5  4  1  0
  7  5  1  0
  8  7  2  0
  9  7  1  0
 10  9  1  0
 11 12  1  0
 10 11  1  6
 13 12  1  0
 13 17  1  0
 14 13  2  0
 15 23  1  0
 15 10  1  0
 16 15  2  0
 19 18  1  0
 20 22  1  0
 20 19  1  0
 20 21  1  1
 22 23  1  6
 24 22  1  0
 25 24  2  0
 26 24  1  0
M  END
$$$$
