NEI.pdb
     RDKit          3D

 26 25  0  0  1  0  0  0  0  0999 V2000
    9.2554  -13.3984   16.8067 N   0  0  0  0  0  0  0  0  0  0  0  0
    7.8608  -13.6609   17.0271 C   0  0  0  0  0  0  0  0  0  0  0  0
    7.1159  -13.7991   16.0248 O   0  0  0  0  0  0  0  0  0  0  0  0
    7.3694  -13.7549   18.4183 C   0  0  0  0  0  0  0  0  0  0  0  0
    8.5384  -13.5967   19.3773 C   0  0  2  0  0  0  0  0  0  0  0  0
    9.7497  -14.0794   18.7691 N   0  0  0  0  0  0  0  0  0  0  0  0
    8.1834  -14.4289   20.5781 C   0  0  0  0  0  0  0  0  0  0  0  0
    7.0906  -14.1541   21.1826 O   0  0  0  0  0  0  0  0  0  0  0  0
    9.0355  -15.4555   20.9935 N   0  0  0  0  0  0  0  0  0  0  0  0
    8.7779  -16.1681   22.2488 C   0  0  1  0  0  0  0  0  0  0  0  0
    9.5027  -17.4704   22.1001 C   0  0  0  0  0  0  0  0  0  0  0  0
    9.5331  -18.3683   23.2802 C   0  0  0  0  0  0  0  0  0  0  0  0
   10.3245  -19.5845   22.8775 C   0  0  0  0  0  0  0  0  0  0  0  0
    9.8730  -20.2739   21.9383 O   0  0  0  0  0  0  0  0  0  0  0  0
    9.1522  -15.3504   23.4006 C   0  0  0  0  0  0  0  0  0  0  0  0
   10.2301  -14.7019   23.3393 O   0  0  0  0  0  0  0  0  0  0  0  0
   11.5053  -19.9635   23.4877 O   0  0  0  0  0  0  0  0  0  0  0  0
    5.8053  -11.9096   25.3567 C   0  0  0  0  0  0  0  0  0  0  0  0
    7.0691  -12.6513   24.9973 C   0  0  0  0  0  0  0  0  0  0  0  0
    7.5373  -13.5604   26.1122 C   0  0  2  0  0  0  0  0  0  0  0  0
    7.8552  -12.7208   27.3009 C   0  0  0  0  0  0  0  0  0  0  0  0
    8.7024  -14.4386   25.6871 C   0  0  2  0  0  0  0  0  0  0  0  0
    8.3333  -15.2759   24.5551 N   0  0  0  0  0  0  0  0  0  0  0  0
    9.0632  -15.2900   26.8323 C   0  0  0  0  0  0  0  0  0  0  0  0
    9.6044  -14.8330   27.8855 O   0  0  0  0  0  0  0  0  0  0  0  0
    8.8370  -16.6572   26.8438 O   0  0  0  0  0  0  0  0  0  0  0  0
  2  1  1  0
  2  4  1  0
  3  2  2  0
  5  6  1  6
  5  4  1  0
  7  5  1  0
  8  7  2  0
  9  7  1  0
 10  9  1  0
 11 12  1  0
 10 11  1  6
 13 12  1  0
 13 17  1  0
 14 13  2  0
 15 23  1  0
 15 10  1  0
 16 15  2  0
 19 18  1  0
 20 22  1  0
 20 19  1  0
 20 21  1  1
 22 23  1  6
 24 22  1  0
 25 24  2  0
 26 24  1  0
M  END
$$$$
