NEI.pdb
     RDKit          3D

 26 25  0  0  1  0  0  0  0  0999 V2000
    7.5424  -12.5673   17.1684 N   0  0  0  0  0  0  0  0  0  0  0  0
    8.5319  -13.1798   18.0101 C   0  0  0  0  0  0  0  0  0  0  0  0
    9.7211  -13.2089   17.6059 O   0  0  0  0  0  0  0  0  0  0  0  0
    8.1052  -13.7460   19.3075 C   0  0  0  0  0  0  0  0  0  0  0  0
    8.2551  -15.2585   19.2708 C   0  0  2  0  0  0  0  0  0  0  0  0
    7.2490  -15.8376   18.4208 N   0  0  0  0  0  0  0  0  0  0  0  0
    8.0688  -15.7114   20.6923 C   0  0  0  0  0  0  0  0  0  0  0  0
    6.9279  -15.5047   21.2313 O   0  0  0  0  0  0  0  0  0  0  0  0
    9.1211  -16.3306   21.3719 N   0  0  0  0  0  0  0  0  0  0  0  0
    8.9479  -16.7704   22.7600 C   0  0  1  0  0  0  0  0  0  0  0  0
    9.8269  -17.9765   22.8871 C   0  0  0  0  0  0  0  0  0  0  0  0
   10.0395  -18.5201   24.2505 C   0  0  0  0  0  0  0  0  0  0  0  0
   11.0659  -19.6147   24.1241 C   0  0  0  0  0  0  0  0  0  0  0  0
   11.6832  -19.6959   23.0408 O   0  0  0  0  0  0  0  0  0  0  0  0
    9.2153  -15.6772   23.6921 C   0  0  0  0  0  0  0  0  0  0  0  0
   10.2337  -14.9643   23.4899 O   0  0  0  0  0  0  0  0  0  0  0  0
   11.3509  -20.5145   25.1339 O   0  0  0  0  0  0  0  0  0  0  0  0
    6.3707  -11.3939   26.9076 C   0  0  0  0  0  0  0  0  0  0  0  0
    7.6053  -12.2465   26.7494 C   0  0  0  0  0  0  0  0  0  0  0  0
    7.3682  -13.4374   25.8469 C   0  0  2  0  0  0  0  0  0  0  0  0
    6.2045  -14.2028   26.3749 C   0  0  0  0  0  0  0  0  0  0  0  0
    8.6119  -14.2965   25.6899 C   0  0  2  0  0  0  0  0  0  0  0  0
    8.3595  -15.4129   24.7907 N   0  0  0  0  0  0  0  0  0  0  0  0
    8.9737  -14.8089   27.0215 C   0  0  0  0  0  0  0  0  0  0  0  0
    8.7723  -16.0115   27.3737 O   0  0  0  0  0  0  0  0  0  0  0  0
    9.5630  -14.0125   27.9905 O   0  0  0  0  0  0  0  0  0  0  0  0
  2  1  1  0
  2  4  1  0
  3  2  2  0
  5  6  1  6
  5  4  1  0
  7  5  1  0
  8  7  2  0
  9  7  1  0
 10  9  1  0
 11 12  1  0
 10 11  1  1
 13 12  1  0
 13 17  1  0
 14 13  2  0
 15 23  1  0
 15 10  1  0
 16 15  2  0
 19 18  1  0
 20 22  1  0
 20 19  1  0
 20 21  1  1
 22 23  1  6
 24 22  1  0
 25 24  2  0
 26 24  1  0
M  END
$$$$
