KHA.pdb
     RDKit          3D

 25 25  0  0  1  0  0  0  0  0999 V2000
   20.4608  -13.6739  -20.9086 N   0  0  0  0  0  0  0  0  0  0  0  0
   20.9258  -12.3128  -21.0179 C   0  0  1  0  0  0  0  0  0  0  0  0
   19.9132  -11.3454  -21.5096 C   0  0  0  0  0  0  0  0  0  0  0  0
   18.5037  -11.5691  -21.0589 C   0  0  0  0  0  0  0  0  0  0  0  0
   17.4520  -11.3930  -22.1023 C   0  0  0  0  0  0  0  0  0  0  0  0
   16.0990  -11.6550  -21.4105 C   0  0  0  0  0  0  0  0  0  0  0  0
   15.0704  -11.5951  -22.4275 N   0  0  0  0  0  0  0  0  0  0  0  0
   21.5277  -11.9188  -19.7226 C   0  0  0  0  0  0  0  0  0  0  0  0
   21.0626  -12.2826  -18.6113 O   0  0  0  0  0  0  0  0  0  0  0  0
   22.6776  -11.0970  -19.6934 N   0  0  0  0  0  0  0  0  0  0  0  0
   23.3519  -10.7489  -18.4218 C   0  0  1  0  0  0  0  0  0  0  0  0
   24.8208  -10.8455  -18.5935 C   0  0  0  0  0  0  0  0  0  0  0  0
   25.6076  -10.6005  -17.3848 C   0  0  0  0  0  0  0  0  0  0  0  0
   26.0157  -11.5740  -16.4628 C   0  0  0  0  0  0  0  0  0  0  0  0
   26.7126  -11.0101  -15.4835 N   0  0  0  0  0  0  0  0  0  0  0  0
   26.7809   -9.6890  -15.7257 C   0  0  0  0  0  0  0  0  0  0  0  0
   26.1180   -9.4603  -16.8618 N   0  0  0  0  0  0  0  0  0  0  0  0
   22.8004   -9.5023  -17.8860 C   0  0  0  0  0  0  0  0  0  0  0  0
   22.5030   -8.5868  -18.7358 O   0  0  0  0  0  0  0  0  0  0  0  0
   21.2199   -8.0279  -14.8298 C   0  0  0  0  0  0  0  0  0  0  0  0
   21.9878   -7.9043  -16.1233 C   0  0  2  0  0  0  0  0  0  0  0  0
   22.5474   -9.1854  -16.5329 N   0  0  0  0  0  0  0  0  0  0  0  0
   22.9549   -6.8083  -16.0487 C   0  0  0  0  0  0  0  0  0  0  0  0
   22.5446   -5.5030  -15.9497 O   0  0  0  0  0  0  0  0  0  0  0  0
   24.1761   -7.0732  -16.0762 O   0  0  0  0  0  0  0  0  0  0  0  0
  2  1  1  1
  3  2  1  0
  4  3  1  0
  5  4  1  0
  6  5  1  0
  6  7  1  0
  8  2  1  0
  9  8  2  0
 10  8  1  0
 11 10  1  0
 11 12  1  6
 12 13  1  0
 13 17  1  0
 14 13  2  0
 14 15  1  0
 15 16  1  0
 17 16  2  0
 18 19  2  0
 18 11  1  0
 21 20  1  1
 21 22  1  0
 22 18  1  0
 23 21  1  0
 24 23  1  0
 25 23  2  0
M  END
$$$$
