KHA.pdb
     RDKit          3D

 25 25  0  0  1  0  0  0  0  0999 V2000
   24.8624  -20.3233  -19.9060 N   0  0  0  0  0  0  0  0  0  0  0  0
   23.5488  -20.7668  -19.5078 C   0  0  1  0  0  0  0  0  0  0  0  0
   23.2866  -22.2119  -19.7228 C   0  0  0  0  0  0  0  0  0  0  0  0
   23.3572  -22.6989  -21.1362 C   0  0  0  0  0  0  0  0  0  0  0  0
   24.6268  -23.3783  -21.5267 C   0  0  0  0  0  0  0  0  0  0  0  0
   24.5040  -23.7088  -23.0279 C   0  0  0  0  0  0  0  0  0  0  0  0
   25.7798  -24.2359  -23.4642 N   0  0  0  0  0  0  0  0  0  0  0  0
   23.3123  -20.3330  -18.1110 C   0  0  0  0  0  0  0  0  0  0  0  0
   23.6563  -21.0176  -17.1126 O   0  0  0  0  0  0  0  0  0  0  0  0
   22.6735  -19.0996  -17.8477 N   0  0  0  0  0  0  0  0  0  0  0  0
   22.4271  -18.6317  -16.4646 C   0  0  1  0  0  0  0  0  0  0  0  0
   22.9982  -17.2756  -16.2877 C   0  0  0  0  0  0  0  0  0  0  0  0
   24.4578  -17.2190  -16.2077 C   0  0  0  0  0  0  0  0  0  0  0  0
   25.3245  -18.3181  -16.2799 C   0  0  0  0  0  0  0  0  0  0  0  0
   26.5841  -17.9127  -16.1724 N   0  0  0  0  0  0  0  0  0  0  0  0
   26.5825  -16.5754  -16.0305 C   0  0  0  0  0  0  0  0  0  0  0  0
   25.3086  -16.1767  -16.0534 N   0  0  0  0  0  0  0  0  0  0  0  0
   21.0222  -18.8407  -16.1067 C   0  0  0  0  0  0  0  0  0  0  0  0
   20.1425  -18.4492  -16.9562 O   0  0  0  0  0  0  0  0  0  0  0  0
   18.7159  -19.3260  -13.2689 C   0  0  0  0  0  0  0  0  0  0  0  0
   19.0865  -19.6171  -14.7028 C   0  0  2  0  0  0  0  0  0  0  0  0
   20.5137  -19.4337  -14.9298 N   0  0  0  0  0  0  0  0  0  0  0  0
   18.2193  -18.8788  -15.6220 C   0  0  0  0  0  0  0  0  0  0  0  0
   18.4175  -17.5441  -15.8696 O   0  0  0  0  0  0  0  0  0  0  0  0
   17.2824  -19.4814  -16.1887 O   0  0  0  0  0  0  0  0  0  0  0  0
  2  1  1  1
  3  2  1  0
  4  3  1  0
  5  4  1  0
  6  5  1  0
  6  7  1  0
  8  2  1  0
  9  8  2  0
 10  8  1  0
 11 10  1  0
 11 12  1  6
 12 13  1  0
 13 17  1  0
 14 13  2  0
 14 15  1  0
 15 16  1  0
 17 16  2  0
 18 19  2  0
 18 11  1  0
 21 20  1  1
 21 22  1  0
 22 18  1  0
 23 21  1  0
 24 23  1  0
 25 23  2  0
M  END
$$$$
