KHA.pdb
     RDKit          3D

 25 25  0  0  1  0  0  0  0  0999 V2000
   14.6252  -12.8599  -13.1800 N   0  0  0  0  0  0  0  0  0  0  0  0
   13.9773  -11.7149  -12.5883 C   0  0  1  0  0  0  0  0  0  0  0  0
   12.9159  -12.0392  -11.6027 C   0  0  0  0  0  0  0  0  0  0  0  0
   11.8971  -13.0494  -12.0285 C   0  0  0  0  0  0  0  0  0  0  0  0
   10.8436  -13.3735  -11.0230 C   0  0  0  0  0  0  0  0  0  0  0  0
    9.9051  -14.4016  -11.6863 C   0  0  0  0  0  0  0  0  0  0  0  0
    8.8722  -14.7316  -10.7272 N   0  0  0  0  0  0  0  0  0  0  0  0
   15.0219  -10.8153  -12.0453 C   0  0  0  0  0  0  0  0  0  0  0  0
   15.9613  -11.2194  -11.3117 O   0  0  0  0  0  0  0  0  0  0  0  0
   14.9955   -9.4335  -12.3428 N   0  0  0  0  0  0  0  0  0  0  0  0
   16.0695   -8.5204  -11.8897 C   0  0  1  0  0  0  0  0  0  0  0  0
   16.8195   -8.0119  -13.0625 C   0  0  0  0  0  0  0  0  0  0  0  0
   17.5681   -9.0222  -13.8101 C   0  0  0  0  0  0  0  0  0  0  0  0
   18.9105   -9.3668  -13.6012 C   0  0  0  0  0  0  0  0  0  0  0  0
   19.2741  -10.3185  -14.4525 N   0  0  0  0  0  0  0  0  0  0  0  0
   18.2134  -10.6184  -15.2228 C   0  0  0  0  0  0  0  0  0  0  0  0
   17.2047   -9.8379  -14.8282 N   0  0  0  0  0  0  0  0  0  0  0  0
   15.5311   -7.5447  -10.9391 C   0  0  0  0  0  0  0  0  0  0  0  0
   14.5420   -6.8300  -11.3387 O   0  0  0  0  0  0  0  0  0  0  0  0
   15.7327   -6.4654   -7.3272 C   0  0  0  0  0  0  0  0  0  0  0  0
   15.3747   -6.2664   -8.7799 C   0  0  2  0  0  0  0  0  0  0  0  0
   15.9696   -7.2977   -9.6193 N   0  0  0  0  0  0  0  0  0  0  0  0
   15.6596   -4.8937   -9.2001 C   0  0  0  0  0  0  0  0  0  0  0  0
   14.9559   -3.8327   -8.6891 O   0  0  0  0  0  0  0  0  0  0  0  0
   16.5622   -4.6910  -10.0406 O   0  0  0  0  0  0  0  0  0  0  0  0
  2  1  1  1
  3  2  1  0
  4  3  1  0
  5  4  1  0
  6  5  1  0
  6  7  1  0
  8  2  1  0
  9  8  2  0
 10  8  1  0
 11 10  1  0
 11 12  1  6
 12 13  1  0
 13 17  1  0
 14 13  2  0
 14 15  1  0
 15 16  1  0
 17 16  2  0
 18 19  2  0
 18 11  1  0
 21 20  1  1
 21 22  1  0
 22 18  1  0
 23 21  1  0
 24 23  1  0
 25 23  2  0
M  END
$$$$
