KHA.pdb
     RDKit          3D

 25 25  0  0  1  0  0  0  0  0999 V2000
   28.7544  -23.8210  -16.3747 N   0  0  0  0  0  0  0  0  0  0  0  0
   28.1498  -22.5147  -16.4683 C   0  0  1  0  0  0  0  0  0  0  0  0
   27.7871  -22.0925  -17.8442 C   0  0  0  0  0  0  0  0  0  0  0  0
   28.4795  -20.8752  -18.3722 C   0  0  0  0  0  0  0  0  0  0  0  0
   27.5904  -19.7576  -18.8037 C   0  0  0  0  0  0  0  0  0  0  0  0
   28.5157  -18.6129  -19.2632 C   0  0  0  0  0  0  0  0  0  0  0  0
   27.6789  -17.4719  -19.5695 N   0  0  0  0  0  0  0  0  0  0  0  0
   27.0113  -22.4573  -15.5218 C   0  0  0  0  0  0  0  0  0  0  0  0
   26.0690  -23.2915  -15.5310 O   0  0  0  0  0  0  0  0  0  0  0  0
   26.9456  -21.4332  -14.5495 N   0  0  0  0  0  0  0  0  0  0  0  0
   25.8327  -21.3563  -13.5758 C   0  0  1  0  0  0  0  0  0  0  0  0
   26.3084  -20.7217  -12.3237 C   0  0  0  0  0  0  0  0  0  0  0  0
   25.2904  -20.5451  -11.2881 C   0  0  0  0  0  0  0  0  0  0  0  0
   25.2774  -21.1770  -10.0371 C   0  0  0  0  0  0  0  0  0  0  0  0
   24.2122  -20.7931   -9.3440 N   0  0  0  0  0  0  0  0  0  0  0  0
   23.5146  -19.9237  -10.0963 C   0  0  0  0  0  0  0  0  0  0  0  0
   24.1693  -19.7861  -11.2516 N   0  0  0  0  0  0  0  0  0  0  0  0
   24.6395  -20.8024  -14.2198 C   0  0  0  0  0  0  0  0  0  0  0  0
   24.7905  -19.7127  -14.8821 O   0  0  0  0  0  0  0  0  0  0  0  0
   21.5642  -21.3626  -15.9033 C   0  0  0  0  0  0  0  0  0  0  0  0
   22.1904  -20.6100  -14.7547 C   0  0  2  0  0  0  0  0  0  0  0  0
   23.3301  -21.3322  -14.2054 N   0  0  0  0  0  0  0  0  0  0  0  0
   21.1757  -20.2268  -13.7720 C   0  0  0  0  0  0  0  0  0  0  0  0
   21.2364  -20.6725  -12.4760 O   0  0  0  0  0  0  0  0  0  0  0  0
   20.2388  -19.4795  -14.1267 O   0  0  0  0  0  0  0  0  0  0  0  0
  2  1  1  6
  3  2  1  0
  4  3  1  0
  5  4  1  0
  6  5  1  0
  6  7  1  0
  8  2  1  0
  9  8  2  0
 10  8  1  0
 11 10  1  0
 11 12  1  1
 12 13  1  0
 13 17  1  0
 14 13  2  0
 14 15  1  0
 15 16  1  0
 17 16  2  0
 18 19  2  0
 18 11  1  0
 21 20  1  6
 21 22  1  0
 22 18  1  0
 23 21  1  0
 24 23  1  0
 25 23  2  0
M  END
$$$$
