KHA.pdb
     RDKit          3D

 25 25  0  0  1  0  0  0  0  0999 V2000
   19.2192  -17.7338  -16.4559 N   0  0  0  0  0  0  0  0  0  0  0  0
   20.2043  -16.8264  -15.9204 C   0  0  1  0  0  0  0  0  0  0  0  0
   19.6577  -15.7549  -15.0506 C   0  0  0  0  0  0  0  0  0  0  0  0
   18.2711  -15.2860  -15.3624 C   0  0  0  0  0  0  0  0  0  0  0  0
   17.4482  -14.8664  -14.1907 C   0  0  0  0  0  0  0  0  0  0  0  0
   16.0678  -14.4618  -14.7462 C   0  0  0  0  0  0  0  0  0  0  0  0
   15.1927  -14.2334  -13.6157 N   0  0  0  0  0  0  0  0  0  0  0  0
   21.2673  -17.6237  -15.2649 C   0  0  0  0  0  0  0  0  0  0  0  0
   21.1429  -18.1182  -14.1143 O   0  0  0  0  0  0  0  0  0  0  0  0
   22.4914  -17.8612  -15.9311 N   0  0  0  0  0  0  0  0  0  0  0  0
   23.4343  -18.9076  -15.4745 C   0  0  1  0  0  0  0  0  0  0  0  0
   22.7435  -20.2183  -15.4345 C   0  0  0  0  0  0  0  0  0  0  0  0
   22.0398  -20.5147  -14.1868 C   0  0  0  0  0  0  0  0  0  0  0  0
   22.0259  -19.7050  -13.0429 C   0  0  0  0  0  0  0  0  0  0  0  0
   21.2920  -20.2716  -12.0927 N   0  0  0  0  0  0  0  0  0  0  0  0
   20.8163  -21.4355  -12.5696 C   0  0  0  0  0  0  0  0  0  0  0  0
   21.2704  -21.5665  -13.8182 N   0  0  0  0  0  0  0  0  0  0  0  0
   24.6904  -18.8122  -16.2218 C   0  0  0  0  0  0  0  0  0  0  0  0
   24.6436  -19.0938  -17.4737 O   0  0  0  0  0  0  0  0  0  0  0  0
   28.2715  -17.6382  -15.8573 C   0  0  0  0  0  0  0  0  0  0  0  0
   27.1175  -18.2726  -16.5948 C   0  0  2  0  0  0  0  0  0  0  0  0
   25.9591  -18.4373  -15.7268 N   0  0  0  0  0  0  0  0  0  0  0  0
   27.5485  -19.4918  -17.2803 C   0  0  0  0  0  0  0  0  0  0  0  0
   28.4432  -19.4454  -18.3192 O   0  0  0  0  0  0  0  0  0  0  0  0
   27.0889  -20.5927  -16.9074 O   0  0  0  0  0  0  0  0  0  0  0  0
  2  1  1  1
  3  2  1  0
  4  3  1  0
  5  4  1  0
  6  5  1  0
  6  7  1  0
  8  2  1  0
  9  8  2  0
 10  8  1  0
 11 10  1  0
 11 12  1  6
 12 13  1  0
 13 17  1  0
 14 13  2  0
 14 15  1  0
 15 16  1  0
 17 16  2  0
 18 19  2  0
 18 11  1  0
 21 20  1  1
 21 22  1  0
 22 18  1  0
 23 21  1  0
 24 23  1  0
 25 23  2  0
M  END
$$$$
