KHA.pdb
     RDKit          3D

 25 25  0  0  1  0  0  0  0  0999 V2000
   20.4205  -12.1081  -18.5286 N   0  0  0  0  0  0  0  0  0  0  0  0
   20.5794  -10.8149  -19.1477 C   0  0  1  0  0  0  0  0  0  0  0  0
   19.9182  -10.6704  -20.4688 C   0  0  0  0  0  0  0  0  0  0  0  0
   20.3042  -11.6639  -21.5194 C   0  0  0  0  0  0  0  0  0  0  0  0
   19.7118  -11.4438  -22.8708 C   0  0  0  0  0  0  0  0  0  0  0  0
   20.2299  -12.5855  -23.7685 C   0  0  0  0  0  0  0  0  0  0  0  0
   19.7202  -12.3559  -25.1040 N   0  0  0  0  0  0  0  0  0  0  0  0
   20.1689   -9.7765  -18.1738 C   0  0  0  0  0  0  0  0  0  0  0  0
   19.1254   -9.8651  -17.4757 O   0  0  0  0  0  0  0  0  0  0  0  0
   20.9599   -8.6189  -17.9925 N   0  0  0  0  0  0  0  0  0  0  0  0
   20.6693   -7.6391  -16.9211 C   0  0  1  0  0  0  0  0  0  0  0  0
   21.8254   -7.5521  -15.9978 C   0  0  0  0  0  0  0  0  0  0  0  0
   21.9602   -8.6670  -15.0603 C   0  0  0  0  0  0  0  0  0  0  0  0
   21.1121   -9.7803  -14.9854 C   0  0  0  0  0  0  0  0  0  0  0  0
   21.5203  -10.5999  -14.0240 N   0  0  0  0  0  0  0  0  0  0  0  0
   22.6157  -10.0656  -13.4558 C   0  0  0  0  0  0  0  0  0  0  0  0
   22.8655   -8.9142  -14.0838 N   0  0  0  0  0  0  0  0  0  0  0  0
   20.1558   -6.3967  -17.5026 C   0  0  0  0  0  0  0  0  0  0  0  0
   20.6770   -6.0169  -18.6130 O   0  0  0  0  0  0  0  0  0  0  0  0
   17.4119   -3.8321  -17.1456 C   0  0  0  0  0  0  0  0  0  0  0  0
   18.7605   -4.3090  -17.6273 C   0  0  2  0  0  0  0  0  0  0  0  0
   19.1407   -5.5608  -16.9866 N   0  0  0  0  0  0  0  0  0  0  0  0
   19.7551   -3.2402  -17.5237 C   0  0  0  0  0  0  0  0  0  0  0  0
   19.7226   -2.1545  -18.3618 O   0  0  0  0  0  0  0  0  0  0  0  0
   20.6481   -3.3241  -16.6533 O   0  0  0  0  0  0  0  0  0  0  0  0
  2  1  1  1
  3  2  1  0
  4  3  1  0
  5  4  1  0
  6  5  1  0
  6  7  1  0
  8  2  1  0
  9  8  2  0
 10  8  1  0
 11 10  1  0
 11 12  1  6
 12 13  1  0
 13 17  1  0
 14 13  2  0
 14 15  1  0
 15 16  1  0
 17 16  2  0
 18 19  2  0
 18 11  1  0
 21 20  1  1
 21 22  1  0
 22 18  1  0
 23 21  1  0
 24 23  1  0
 25 23  2  0
M  END
$$$$
