KHA.pdb
     RDKit          3D

 25 25  0  0  1  0  0  0  0  0999 V2000
   28.6928  -24.2196  -16.3617 N   0  0  0  0  0  0  0  0  0  0  0  0
   27.2903  -24.0983  -16.6765 C   0  0  1  0  0  0  0  0  0  0  0  0
   26.4887  -25.3240  -16.4352 C   0  0  0  0  0  0  0  0  0  0  0  0
   26.8259  -26.5167  -17.2741 C   0  0  0  0  0  0  0  0  0  0  0  0
   27.6021  -27.5927  -16.5917 C   0  0  0  0  0  0  0  0  0  0  0  0
   27.8293  -28.7016  -17.6389 C   0  0  0  0  0  0  0  0  0  0  0  0
   28.6999  -29.6927  -17.0426 N   0  0  0  0  0  0  0  0  0  0  0  0
   26.7558  -22.9056  -15.9787 C   0  0  0  0  0  0  0  0  0  0  0  0
   27.3167  -22.3876  -14.9781 O   0  0  0  0  0  0  0  0  0  0  0  0
   25.5634  -22.2934  -16.4281 N   0  0  0  0  0  0  0  0  0  0  0  0
   25.1285  -20.9726  -15.9195 C   0  0  1  0  0  0  0  0  0  0  0  0
   25.3365  -19.9426  -16.9647 C   0  0  0  0  0  0  0  0  0  0  0  0
   26.7230  -19.5159  -17.1528 C   0  0  0  0  0  0  0  0  0  0  0  0
   27.6069  -19.1334  -16.1345 C   0  0  0  0  0  0  0  0  0  0  0  0
   28.7842  -18.8050  -16.6528 N   0  0  0  0  0  0  0  0  0  0  0  0
   28.7111  -18.9573  -17.9869 C   0  0  0  0  0  0  0  0  0  0  0  0
   27.4771  -19.3812  -18.2697 N   0  0  0  0  0  0  0  0  0  0  0  0
   23.8000  -21.0809  -15.3124 C   0  0  0  0  0  0  0  0  0  0  0  0
   22.9045  -21.7100  -15.9841 O   0  0  0  0  0  0  0  0  0  0  0  0
   21.8767  -20.1899  -12.1673 C   0  0  0  0  0  0  0  0  0  0  0  0
   22.0372  -20.7877  -13.5439 C   0  0  2  0  0  0  0  0  0  0  0  0
   23.3829  -20.5770  -14.0604 N   0  0  0  0  0  0  0  0  0  0  0  0
   20.9627  -20.3403  -14.4313 C   0  0  0  0  0  0  0  0  0  0  0  0
   19.7193  -20.9185  -14.3905 O   0  0  0  0  0  0  0  0  0  0  0  0
   21.1886  -19.4137  -15.2390 O   0  0  0  0  0  0  0  0  0  0  0  0
  2  1  1  1
  3  2  1  0
  4  3  1  0
  5  4  1  0
  6  5  1  0
  6  7  1  0
  8  2  1  0
  9  8  2  0
 10  8  1  0
 11 10  1  0
 11 12  1  6
 12 13  1  0
 13 17  1  0
 14 13  2  0
 14 15  1  0
 15 16  1  0
 17 16  2  0
 18 19  2  0
 18 11  1  0
 21 20  1  1
 21 22  1  0
 22 18  1  0
 23 21  1  0
 24 23  1  0
 25 23  2  0
M  END
$$$$
