KHA.pdb
     RDKit          3D

 25 25  0  0  1  0  0  0  0  0999 V2000
   26.1634  -19.9771   -9.7726 N   0  0  0  0  0  0  0  0  0  0  0  0
   25.5546  -21.0905  -10.4587 C   0  0  1  0  0  0  0  0  0  0  0  0
   24.4940  -21.7910   -9.6921 C   0  0  0  0  0  0  0  0  0  0  0  0
   23.8481  -21.0157   -8.5869 C   0  0  0  0  0  0  0  0  0  0  0  0
   22.7849  -21.7333   -7.8249 C   0  0  0  0  0  0  0  0  0  0  0  0
   22.1890  -20.7120   -6.8350 C   0  0  0  0  0  0  0  0  0  0  0  0
   21.2526  -21.4206   -5.9883 N   0  0  0  0  0  0  0  0  0  0  0  0
   25.1015  -20.6275  -11.7912 C   0  0  0  0  0  0  0  0  0  0  0  0
   24.7080  -19.4526  -12.0118 O   0  0  0  0  0  0  0  0  0  0  0  0
   25.0966  -21.5175  -12.8896 N   0  0  0  0  0  0  0  0  0  0  0  0
   24.6441  -21.0909  -14.2334 C   0  0  1  0  0  0  0  0  0  0  0  0
   25.3762  -21.8542  -15.2718 C   0  0  0  0  0  0  0  0  0  0  0  0
   25.0312  -21.5175  -16.6529 C   0  0  0  0  0  0  0  0  0  0  0  0
   23.9844  -20.6756  -17.0529 C   0  0  0  0  0  0  0  0  0  0  0  0
   23.9513  -20.5878  -18.3772 N   0  0  0  0  0  0  0  0  0  0  0  0
   24.9454  -21.3465  -18.8718 C   0  0  0  0  0  0  0  0  0  0  0  0
   25.5798  -21.8940  -17.8325 N   0  0  0  0  0  0  0  0  0  0  0  0
   23.1806  -21.0781  -14.2898 C   0  0  0  0  0  0  0  0  0  0  0  0
   22.5669  -22.0034  -13.6448 O   0  0  0  0  0  0  0  0  0  0  0  0
   20.2802  -18.9052  -15.3381 C   0  0  0  0  0  0  0  0  0  0  0  0
   20.9004  -20.2069  -14.8921 C   0  0  2  0  0  0  0  0  0  0  0  0
   22.3542  -20.1564  -14.9702 N   0  0  0  0  0  0  0  0  0  0  0  0
   20.2876  -21.3383  -15.5895 C   0  0  0  0  0  0  0  0  0  0  0  0
   19.2618  -22.0519  -15.0234 O   0  0  0  0  0  0  0  0  0  0  0  0
   20.7115  -21.6553  -16.7218 O   0  0  0  0  0  0  0  0  0  0  0  0
  2  1  1  1
  3  2  1  0
  4  3  1  0
  5  4  1  0
  6  5  1  0
  6  7  1  0
  8  2  1  0
  9  8  2  0
 10  8  1  0
 11 10  1  0
 11 12  1  6
 12 13  1  0
 13 17  1  0
 14 13  2  0
 14 15  1  0
 15 16  1  0
 17 16  2  0
 18 19  2  0
 18 11  1  0
 21 20  1  6
 21 22  1  0
 22 18  1  0
 23 21  1  0
 24 23  1  0
 25 23  2  0
M  END
$$$$
