KHA.pdb
     RDKit          3D

 25 25  0  0  1  0  0  0  0  0999 V2000
   28.9274  -19.6880  -18.4530 N   0  0  0  0  0  0  0  0  0  0  0  0
   28.0203  -18.8099  -17.7553 C   0  0  1  0  0  0  0  0  0  0  0  0
   27.0713  -18.0731  -18.6270 C   0  0  0  0  0  0  0  0  0  0  0  0
   26.3345  -18.8849  -19.6458 C   0  0  0  0  0  0  0  0  0  0  0  0
   25.0364  -19.4677  -19.1973 C   0  0  0  0  0  0  0  0  0  0  0  0
   24.4653  -20.2452  -20.4002 C   0  0  0  0  0  0  0  0  0  0  0  0
   23.8015  -21.4232  -19.8828 N   0  0  0  0  0  0  0  0  0  0  0  0
   27.3482  -19.5851  -16.6864 C   0  0  0  0  0  0  0  0  0  0  0  0
   27.1496  -20.8257  -16.7604 O   0  0  0  0  0  0  0  0  0  0  0  0
   26.8953  -18.9365  -15.5148 N   0  0  0  0  0  0  0  0  0  0  0  0
   26.2718  -19.6884  -14.4019 C   0  0  1  0  0  0  0  0  0  0  0  0
   26.8508  -19.2422  -13.1126 C   0  0  0  0  0  0  0  0  0  0  0  0
   26.2392  -19.8261  -11.9188 C   0  0  0  0  0  0  0  0  0  0  0  0
   26.5911  -21.0505  -11.3345 C   0  0  0  0  0  0  0  0  0  0  0  0
   25.8374  -21.2783  -10.2656 N   0  0  0  0  0  0  0  0  0  0  0  0
   24.9934  -20.2415  -10.1201 C   0  0  0  0  0  0  0  0  0  0  0  0
   25.2447  -19.3846  -11.1125 N   0  0  0  0  0  0  0  0  0  0  0  0
   24.8140  -19.6783  -14.5438 C   0  0  0  0  0  0  0  0  0  0  0  0
   24.2707  -18.5623  -14.8725 O   0  0  0  0  0  0  0  0  0  0  0  0
   21.7932  -21.7422  -15.0712 C   0  0  0  0  0  0  0  0  0  0  0  0
   22.4784  -20.5929  -14.3728 C   0  0  2  0  0  0  0  0  0  0  0  0
   23.9253  -20.7619  -14.3671 N   0  0  0  0  0  0  0  0  0  0  0  0
   21.8832  -20.3578  -13.0565 C   0  0  0  0  0  0  0  0  0  0  0  0
   20.5856  -19.9311  -12.9285 O   0  0  0  0  0  0  0  0  0  0  0  0
   22.5753  -20.5511  -12.0340 O   0  0  0  0  0  0  0  0  0  0  0  0
  2  1  1  6
  3  2  1  0
  4  3  1  0
  5  4  1  0
  6  5  1  0
  6  7  1  0
  8  2  1  0
  9  8  2  0
 10  8  1  0
 11 10  1  0
 11 12  1  1
 12 13  1  0
 13 17  1  0
 14 13  2  0
 14 15  1  0
 15 16  1  0
 17 16  2  0
 18 19  2  0
 18 11  1  0
 21 20  1  1
 21 22  1  0
 22 18  1  0
 23 21  1  0
 24 23  1  0
 25 23  2  0
M  END
$$$$
