KHA.pdb
     RDKit          3D

 25 25  0  0  1  0  0  0  0  0999 V2000
   29.0817  -27.4901  -16.4490 N   0  0  0  0  0  0  0  0  0  0  0  0
   27.7260  -27.5196  -16.9409 C   0  0  1  0  0  0  0  0  0  0  0  0
   26.9993  -28.7895  -16.6907 C   0  0  0  0  0  0  0  0  0  0  0  0
   27.6453  -30.0389  -17.2020 C   0  0  0  0  0  0  0  0  0  0  0  0
   28.2470  -30.9296  -16.1674 C   0  0  0  0  0  0  0  0  0  0  0  0
   28.7625  -32.1790  -16.9098 C   0  0  0  0  0  0  0  0  0  0  0  0
   29.4280  -33.0204  -15.9377 N   0  0  0  0  0  0  0  0  0  0  0  0
   27.0140  -26.3286  -16.4215 C   0  0  0  0  0  0  0  0  0  0  0  0
   27.3660  -25.7202  -15.3775 O   0  0  0  0  0  0  0  0  0  0  0  0
   25.8831  -25.8228  -17.1025 N   0  0  0  0  0  0  0  0  0  0  0  0
   25.2278  -24.5606  -16.6902 C   0  0  1  0  0  0  0  0  0  0  0  0
   25.4653  -23.5172  -17.7156 C   0  0  0  0  0  0  0  0  0  0  0  0
   26.7701  -22.8595  -17.6457 C   0  0  0  0  0  0  0  0  0  0  0  0
   27.7673  -23.1185  -16.6954 C   0  0  0  0  0  0  0  0  0  0  0  0
   28.8230  -22.3457  -16.9208 N   0  0  0  0  0  0  0  0  0  0  0  0
   28.5588  -21.5790  -17.9935 C   0  0  0  0  0  0  0  0  0  0  0  0
   27.3322  -21.8964  -18.4143 N   0  0  0  0  0  0  0  0  0  0  0  0
   23.8464  -24.8229  -16.2798 C   0  0  0  0  0  0  0  0  0  0  0  0
   23.1320  -25.5389  -17.0708 O   0  0  0  0  0  0  0  0  0  0  0  0
   21.3831  -24.1753  -13.4734 C   0  0  0  0  0  0  0  0  0  0  0  0
   21.7781  -24.5915  -14.8694 C   0  0  2  0  0  0  0  0  0  0  0  0
   23.2010  -24.3837  -15.1026 N   0  0  0  0  0  0  0  0  0  0  0  0
   20.8973  -23.9749  -15.8624 C   0  0  0  0  0  0  0  0  0  0  0  0
   19.6746  -24.5190  -16.1642 O   0  0  0  0  0  0  0  0  0  0  0  0
   21.2719  -22.9333  -16.4427 O   0  0  0  0  0  0  0  0  0  0  0  0
  2  1  1  1
  3  2  1  0
  4  3  1  0
  5  4  1  0
  6  5  1  0
  6  7  1  0
  8  2  1  0
  9  8  2  0
 10  8  1  0
 11 10  1  0
 11 12  1  6
 12 13  1  0
 13 17  1  0
 14 13  2  0
 14 15  1  0
 15 16  1  0
 17 16  2  0
 18 19  2  0
 18 11  1  0
 21 20  1  1
 21 22  1  0
 22 18  1  0
 23 21  1  0
 24 23  1  0
 25 23  2  0
M  END
$$$$
