WTL.pdb
     RDKit          3D

 30 31  0  0  1  0  0  0  0  0999 V2000
   28.0817  -22.0668  -10.8162 N   0  0  0  0  0  0  0  0  0  0  0  0
   26.8749  -21.4268  -10.3522 C   0  0  1  0  0  0  0  0  0  0  0  0
   27.2060  -20.1922   -9.6014 C   0  0  0  0  0  0  0  0  0  0  0  0
   28.1330  -20.4210   -8.4763 C   0  0  0  0  0  0  0  0  0  0  0  0
   29.3743  -21.0559   -8.5398 C   0  0  0  0  0  0  0  0  0  0  0  0
   29.9297  -21.0389   -7.3193 N   0  0  0  0  0  0  0  0  0  0  0  0
   29.1170  -20.4174   -6.4217 C   0  0  0  0  0  0  0  0  0  0  0  0
   29.2402  -20.1633   -5.0763 C   0  0  0  0  0  0  0  0  0  0  0  0
   28.2411  -19.5126   -4.3993 C   0  0  0  0  0  0  0  0  0  0  0  0
   27.1187  -19.1220   -5.0908 C   0  0  0  0  0  0  0  0  0  0  0  0
   27.0156  -19.3866   -6.4393 C   0  0  0  0  0  0  0  0  0  0  0  0
   27.9936  -20.0367   -7.1647 C   0  0  0  0  0  0  0  0  0  0  0  0
   26.0867  -20.9847  -11.5624 C   0  0  0  0  0  0  0  0  0  0  0  0
   26.6472  -20.3834  -12.5127 O   0  0  0  0  0  0  0  0  0  0  0  0
   25.3320  -22.7268  -14.0290 C   0  0  0  0  0  0  0  0  0  0  0  0
   23.9337  -22.2009  -13.7802 C   0  0  1  0  0  0  0  0  0  0  0  0
   23.3512  -23.1909  -12.9385 O   0  0  0  0  0  0  0  0  0  0  0  0
   24.0239  -20.9491  -12.9496 C   0  0  2  0  0  0  0  0  0  0  0  0
   24.6991  -21.2216  -11.6867 N   0  0  0  0  0  0  0  0  0  0  0  0
   22.7043  -20.3577  -12.6082 C   0  0  0  0  0  0  0  0  0  0  0  0
   22.2875  -20.3725  -11.3882 O   0  0  0  0  0  0  0  0  0  0  0  0
   18.3785  -16.3994  -14.4566 C   0  0  0  0  0  0  0  0  0  0  0  0
   18.9321  -17.3292  -13.3626 C   0  0  2  0  0  0  0  0  0  0  0  0
   18.9953  -16.5315  -12.0921 C   0  0  0  0  0  0  0  0  0  0  0  0
   20.2617  -17.8786  -13.7731 C   0  0  0  0  0  0  0  0  0  0  0  0
   20.5468  -19.1636  -13.0659 C   0  0  2  0  0  0  0  0  0  0  0  0
   21.8114  -19.7491  -13.5147 N   0  0  0  0  0  0  0  0  0  0  0  0
   19.4621  -20.1450  -13.0622 C   0  0  0  0  0  0  0  0  0  0  0  0
   19.2486  -21.1627  -13.9491 O   0  0  0  0  0  0  0  0  0  0  0  0
   18.5930  -20.0572  -12.1209 O   0  0  0  0  0  0  0  0  0  0  0  0
  2  1  1  6
  2 13  1  0
  3  2  1  0
  3  4  1  0
  4 12  1  0
  4  5  2  0
  5  6  1  0
  7  6  1  0
  7  8  2  0
  9  8  1  0
 10  9  2  0
 11 12  2  0
 11 10  1  0
 12  7  1  0
 13 14  2  0
 16 15  1  1
 17 16  1  0
 18 16  1  0
 19 13  1  0
 18 19  1  1
 20 18  1  0
 20 21  2  0
 23 22  1  6
 23 25  1  0
 24 23  1  0
 26 28  1  0
 26 25  1  6
 26 27  1  0
 27 20  1  0
 28 29  1  0
 30 28  2  0
M  END
$$$$
