WTL.pdb
     RDKit          3D

 30 31  0  0  1  0  0  0  0  0999 V2000
   11.5383  -22.4832   -2.2778 N   0  0  0  0  0  0  0  0  0  0  0  0
   12.9432  -22.4663   -1.9502 C   0  0  1  0  0  0  0  0  0  0  0  0
   13.6059  -21.3082   -2.5960 C   0  0  0  0  0  0  0  0  0  0  0  0
   13.4835  -21.3077   -4.0665 C   0  0  0  0  0  0  0  0  0  0  0  0
   14.0970  -22.1966   -4.9505 C   0  0  0  0  0  0  0  0  0  0  0  0
   13.7151  -21.8938   -6.1999 N   0  0  0  0  0  0  0  0  0  0  0  0
   12.8641  -20.8317   -6.2064 C   0  0  0  0  0  0  0  0  0  0  0  0
   12.2229  -20.1603   -7.2204 C   0  0  0  0  0  0  0  0  0  0  0  0
   11.4108  -19.0919   -6.9393 C   0  0  0  0  0  0  0  0  0  0  0  0
   11.2526  -18.7077   -5.6286 C   0  0  0  0  0  0  0  0  0  0  0  0
   11.9044  -19.3947   -4.6276 C   0  0  0  0  0  0  0  0  0  0  0  0
   12.7304  -20.4761   -4.8593 C   0  0  0  0  0  0  0  0  0  0  0  0
   13.0721  -22.2484   -0.4611 C   0  0  0  0  0  0  0  0  0  0  0  0
   12.2622  -21.5116    0.1553 O   0  0  0  0  0  0  0  0  0  0  0  0
   12.9206  -24.9649    1.9003 C   0  0  0  0  0  0  0  0  0  0  0  0
   14.1273  -24.1691    2.3523 C   0  0  1  0  0  0  0  0  0  0  0  0
   15.2155  -24.8171    1.7012 O   0  0  0  0  0  0  0  0  0  0  0  0
   14.0506  -22.7878    1.7598 C   0  0  2  0  0  0  0  0  0  0  0  0
   14.0946  -22.8533    0.3042 N   0  0  0  0  0  0  0  0  0  0  0  0
   15.1584  -21.8912    2.1795 C   0  0  0  0  0  0  0  0  0  0  0  0
   16.2277  -21.8090    1.4638 O   0  0  0  0  0  0  0  0  0  0  0  0
   17.6481  -18.5275    1.8023 C   0  0  0  0  0  0  0  0  0  0  0  0
   16.2431  -18.3374    2.4003 C   0  0  2  0  0  0  0  0  0  0  0  0
   15.9361  -16.8684    2.3546 C   0  0  0  0  0  0  0  0  0  0  0  0
   16.1881  -18.9020    3.7846 C   0  0  0  0  0  0  0  0  0  0  0  0
   16.3867  -20.3828    3.7627 C   0  0  2  0  0  0  0  0  0  0  0  0
   15.1719  -21.0766    3.3309 N   0  0  0  0  0  0  0  0  0  0  0  0
   16.9473  -20.9702    4.9794 C   0  0  0  0  0  0  0  0  0  0  0  0
   18.1115  -20.6362    5.6127 O   0  0  0  0  0  0  0  0  0  0  0  0
   16.2818  -21.9171    5.5357 O   0  0  0  0  0  0  0  0  0  0  0  0
  2  1  1  1
  2 13  1  0
  3  2  1  0
  3  4  1  0
  4 12  1  0
  4  5  2  0
  5  6  1  0
  7  6  1  0
  7  8  2  0
  9  8  1  0
 10  9  2  0
 11 12  2  0
 11 10  1  0
 12  7  1  0
 13 14  2  0
 16 15  1  6
 17 16  1  0
 18 16  1  0
 19 13  1  0
 18 19  1  6
 20 18  1  0
 20 21  2  0
 23 22  1  1
 23 25  1  0
 24 23  1  0
 26 28  1  0
 26 25  1  1
 26 27  1  0
 27 20  1  0
 28 29  1  0
 30 28  2  0
M  END
$$$$
