WTL.pdb
     RDKit          3D

 30 31  0  0  1  0  0  0  0  0999 V2000
   34.4383  -31.3731  -22.2523 N   0  0  0  0  0  0  0  0  0  0  0  0
   33.0355  -31.6339  -22.0391 C   0  0  1  0  0  0  0  0  0  0  0  0
   32.7358  -33.0632  -22.2933 C   0  0  0  0  0  0  0  0  0  0  0  0
   32.7037  -33.4095  -23.7274 C   0  0  0  0  0  0  0  0  0  0  0  0
   31.8028  -32.9264  -24.6776 C   0  0  0  0  0  0  0  0  0  0  0  0
   32.1180  -33.4461  -25.8731 N   0  0  0  0  0  0  0  0  0  0  0  0
   33.1995  -34.2669  -25.7788 C   0  0  0  0  0  0  0  0  0  0  0  0
   33.8796  -35.0191  -26.7071 C   0  0  0  0  0  0  0  0  0  0  0  0
   34.9546  -35.7815  -26.3286 C   0  0  0  0  0  0  0  0  0  0  0  0
   35.3357  -35.7783  -25.0075 C   0  0  0  0  0  0  0  0  0  0  0  0
   34.6402  -35.0169  -24.0934 C   0  0  0  0  0  0  0  0  0  0  0  0
   33.5537  -34.2328  -24.4252 C   0  0  0  0  0  0  0  0  0  0  0  0
   32.7334  -31.3939  -20.5787 C   0  0  0  0  0  0  0  0  0  0  0  0
   33.6584  -31.1809  -19.7554 O   0  0  0  0  0  0  0  0  0  0  0  0
   33.2185  -29.6138  -18.7274 C   0  0  0  0  0  0  0  0  0  0  0  0
   31.7244  -29.5770  -18.4825 C   0  0  1  0  0  0  0  0  0  0  0  0
   31.2326  -28.7720  -19.5493 O   0  0  0  0  0  0  0  0  0  0  0  0
   31.1593  -30.9539  -18.7054 C   0  0  2  0  0  0  0  0  0  0  0  0
   31.4147  -31.3959  -20.0708 N   0  0  0  0  0  0  0  0  0  0  0  0
   29.6910  -31.0423  -18.4967 C   0  0  0  0  0  0  0  0  0  0  0  0
   28.8836  -30.6044  -19.4015 O   0  0  0  0  0  0  0  0  0  0  0  0
   25.1523  -31.4412  -15.3987 C   0  0  0  0  0  0  0  0  0  0  0  0
   25.6235  -32.6523  -16.2226 C   0  0  2  0  0  0  0  0  0  0  0  0
   25.0780  -33.8821  -15.5559 C   0  0  0  0  0  0  0  0  0  0  0  0
   27.1158  -32.6591  -16.3276 C   0  0  0  0  0  0  0  0  0  0  0  0
   27.5896  -31.5688  -17.2328 C   0  0  2  0  0  0  0  0  0  0  0  0
   29.0479  -31.5806  -17.3626 N   0  0  0  0  0  0  0  0  0  0  0  0
   27.0787  -30.2295  -16.9415 C   0  0  0  0  0  0  0  0  0  0  0  0
   26.0322  -29.5829  -17.5373 O   0  0  0  0  0  0  0  0  0  0  0  0
   27.6714  -29.5620  -16.0184 O   0  0  0  0  0  0  0  0  0  0  0  0
  2  1  1  1
  2 13  1  0
  3  2  1  0
  3  4  1  0
  4 12  1  0
  4  5  2  0
  5  6  1  0
  7  6  1  0
  7  8  2  0
  9  8  1  0
 10  9  2  0
 11 12  2  0
 11 10  1  0
 12  7  1  0
 13 14  2  0
 16 15  1  6
 17 16  1  0
 18 16  1  0
 19 13  1  0
 18 19  1  6
 20 18  1  0
 20 21  2  0
 23 22  1  1
 23 25  1  0
 24 23  1  0
 26 28  1  0
 26 25  1  1
 26 27  1  0
 27 20  1  0
 28 29  1  0
 30 28  2  0
M  END
$$$$
