WTL.pdb
     RDKit          3D

 30 31  0  0  1  0  0  0  0  0999 V2000
   22.5548  -35.5794   -8.8413 N   0  0  0  0  0  0  0  0  0  0  0  0
   22.0446  -35.4606   -7.4971 C   0  0  1  0  0  0  0  0  0  0  0  0
   21.0693  -36.5424   -7.2219 C   0  0  0  0  0  0  0  0  0  0  0  0
   19.8122  -36.4060   -7.9825 C   0  0  0  0  0  0  0  0  0  0  0  0
   19.5672  -36.8796   -9.2724 C   0  0  0  0  0  0  0  0  0  0  0  0
   18.3000  -36.5916   -9.6034 N   0  0  0  0  0  0  0  0  0  0  0  0
   17.6671  -35.9386   -8.5907 C   0  0  0  0  0  0  0  0  0  0  0  0
   16.3928  -35.4398   -8.4591 C   0  0  0  0  0  0  0  0  0  0  0  0
   16.0137  -34.8019   -7.3061 C   0  0  0  0  0  0  0  0  0  0  0  0
   16.9305  -34.6719   -6.2896 C   0  0  0  0  0  0  0  0  0  0  0  0
   18.2025  -35.1794   -6.4423 C   0  0  0  0  0  0  0  0  0  0  0  0
   18.6311  -35.8300   -7.5817 C   0  0  0  0  0  0  0  0  0  0  0  0
   23.1940  -35.6770   -6.5414 C   0  0  0  0  0  0  0  0  0  0  0  0
   24.1708  -36.4000   -6.8607 O   0  0  0  0  0  0  0  0  0  0  0  0
   25.6463  -33.7797   -5.9229 C   0  0  0  0  0  0  0  0  0  0  0  0
   25.2873  -34.0458   -4.4759 C   0  0  1  0  0  0  0  0  0  0  0  0
   24.4634  -32.9374   -4.1287 O   0  0  0  0  0  0  0  0  0  0  0  0
   24.4013  -35.2604   -4.4084 C   0  0  2  0  0  0  0  0  0  0  0  0
   23.2299  -35.0859   -5.2583 N   0  0  0  0  0  0  0  0  0  0  0  0
   23.8964  -35.5613   -3.0438 C   0  0  0  0  0  0  0  0  0  0  0  0
   22.7533  -35.1019   -2.6635 O   0  0  0  0  0  0  0  0  0  0  0  0
   21.8806  -38.6050   -0.9451 C   0  0  0  0  0  0  0  0  0  0  0  0
   23.3886  -38.8662   -1.1046 C   0  0  2  0  0  0  0  0  0  0  0  0
   23.6293  -40.3063   -0.7545 C   0  0  0  0  0  0  0  0  0  0  0  0
   24.1718  -37.9197   -0.2510 C   0  0  0  0  0  0  0  0  0  0  0  0
   24.0040  -36.5128   -0.7258 C   0  0  2  0  0  0  0  0  0  0  0  0
   24.5601  -36.3341   -2.0682 N   0  0  0  0  0  0  0  0  0  0  0  0
   24.4552  -35.4697    0.1951 C   0  0  0  0  0  0  0  0  0  0  0  0
   23.9346  -35.1468    1.4169 O   0  0  0  0  0  0  0  0  0  0  0  0
   25.4601  -34.7582   -0.1694 O   0  0  0  0  0  0  0  0  0  0  0  0
  2  1  1  6
  2 13  1  0
  3  2  1  0
  3  4  1  0
  4 12  1  0
  4  5  2  0
  5  6  1  0
  7  6  1  0
  7  8  2  0
  9  8  1  0
 10  9  2  0
 11 12  2  0
 11 10  1  0
 12  7  1  0
 13 14  2  0
 16 15  1  6
 17 16  1  0
 18 16  1  0
 19 13  1  0
 18 19  1  6
 20 18  1  0
 20 21  2  0
 23 22  1  1
 23 25  1  0
 24 23  1  0
 26 28  1  0
 26 25  1  1
 26 27  1  0
 27 20  1  0
 28 29  1  0
 30 28  2  0
M  END
$$$$
