WTL.pdb
     RDKit          3D

 30 31  0  0  1  0  0  0  0  0999 V2000
   25.4560  -21.3781   -9.3859 N   0  0  0  0  0  0  0  0  0  0  0  0
   26.2811  -20.2571   -9.7650 C   0  0  1  0  0  0  0  0  0  0  0  0
   27.5824  -20.3164   -9.0577 C   0  0  0  0  0  0  0  0  0  0  0  0
   27.4814  -20.0114   -7.6174 C   0  0  0  0  0  0  0  0  0  0  0  0
   26.4104  -19.3891   -6.9742 C   0  0  0  0  0  0  0  0  0  0  0  0
   26.6773  -19.3205   -5.6618 N   0  0  0  0  0  0  0  0  0  0  0  0
   27.8898  -19.8712   -5.3807 C   0  0  0  0  0  0  0  0  0  0  0  0
   28.5905  -20.0279   -4.2083 C   0  0  0  0  0  0  0  0  0  0  0  0
   29.8259  -20.6228   -4.2132 C   0  0  0  0  0  0  0  0  0  0  0  0
   30.3467  -21.0567   -5.4095 C   0  0  0  0  0  0  0  0  0  0  0  0
   29.6273  -20.8899   -6.5730 C   0  0  0  0  0  0  0  0  0  0  0  0
   28.3808  -20.2991   -6.6196 C   0  0  0  0  0  0  0  0  0  0  0  0
   26.5957  -20.3864  -11.2366 C   0  0  0  0  0  0  0  0  0  0  0  0
   27.5922  -21.0443  -11.6277 O   0  0  0  0  0  0  0  0  0  0  0  0
   27.5238  -21.9492  -13.2205 C   0  0  0  0  0  0  0  0  0  0  0  0
   26.2980  -21.4385  -13.9486 C   0  0  1  0  0  0  0  0  0  0  0  0
   25.2224  -22.1083  -13.2988 O   0  0  0  0  0  0  0  0  0  0  0  0
   26.1229  -19.9754  -13.6426 C   0  0  2  0  0  0  0  0  0  0  0  0
   25.7972  -19.7835  -12.2347 N   0  0  0  0  0  0  0  0  0  0  0  0
   25.0398  -19.3233  -14.4230 C   0  0  0  0  0  0  0  0  0  0  0  0
   24.9363  -18.0381  -14.4330 O   0  0  0  0  0  0  0  0  0  0  0  0
   21.4642  -15.9610  -15.3672 C   0  0  0  0  0  0  0  0  0  0  0  0
   21.2536  -17.4805  -15.2459 C   0  0  2  0  0  0  0  0  0  0  0  0
   20.1009  -17.6954  -14.3081 C   0  0  0  0  0  0  0  0  0  0  0  0
   22.5127  -18.1432  -14.7840 C   0  0  0  0  0  0  0  0  0  0  0  0
   22.8652  -19.2920  -15.6722 C   0  0  2  0  0  0  0  0  0  0  0  0
   24.0629  -19.9858  -15.1952 N   0  0  0  0  0  0  0  0  0  0  0  0
   22.9404  -18.9940  -17.1023 C   0  0  0  0  0  0  0  0  0  0  0  0
   23.8717  -18.2343  -17.7531 O   0  0  0  0  0  0  0  0  0  0  0  0
   22.0299  -19.4960  -17.8561 O   0  0  0  0  0  0  0  0  0  0  0  0
  2  1  1  1
  2 13  1  0
  3  2  1  0
  3  4  1  0
  4 12  1  0
  4  5  2  0
  5  6  1  0
  7  6  1  0
  7  8  2  0
  9  8  1  0
 10  9  2  0
 11 12  2  0
 11 10  1  0
 12  7  1  0
 13 14  2  0
 16 15  1  1
 17 16  1  0
 18 16  1  0
 19 13  1  0
 18 19  1  1
 20 18  1  0
 20 21  2  0
 23 22  1  1
 23 25  1  0
 24 23  1  0
 26 28  1  0
 26 25  1  1
 26 27  1  0
 27 20  1  0
 28 29  1  0
 30 28  2  0
M  END
$$$$
