WTL.pdb
     RDKit          3D

 30 31  0  0  1  0  0  0  0  0999 V2000
   25.5884  -22.2135  -12.4401 N   0  0  0  0  0  0  0  0  0  0  0  0
   25.5478  -20.8076  -12.1191 C   0  0  1  0  0  0  0  0  0  0  0  0
   26.6711  -20.4552  -11.2183 C   0  0  0  0  0  0  0  0  0  0  0  0
   26.3519  -20.6275   -9.7880 C   0  0  0  0  0  0  0  0  0  0  0  0
   25.7093  -21.7219   -9.2072 C   0  0  0  0  0  0  0  0  0  0  0  0
   25.6326  -21.5234   -7.8831 N   0  0  0  0  0  0  0  0  0  0  0  0
   26.1973  -20.3353   -7.5340 C   0  0  0  0  0  0  0  0  0  0  0  0
   26.3530  -19.6994   -6.3251 C   0  0  0  0  0  0  0  0  0  0  0  0
   26.9648  -18.4741   -6.2600 C   0  0  0  0  0  0  0  0  0  0  0  0
   27.4165  -17.8973   -7.4236 C   0  0  0  0  0  0  0  0  0  0  0  0
   27.2503  -18.5520   -8.6247 C   0  0  0  0  0  0  0  0  0  0  0  0
   26.6429  -19.7860   -8.7418 C   0  0  0  0  0  0  0  0  0  0  0  0
   25.7723  -20.0314  -13.3952 C   0  0  0  0  0  0  0  0  0  0  0  0
   26.7167  -20.3242  -14.1706 O   0  0  0  0  0  0  0  0  0  0  0  0
   25.7388  -20.5952  -16.0354 C   0  0  0  0  0  0  0  0  0  0  0  0
   24.6905  -19.5067  -16.1346 C   0  0  1  0  0  0  0  0  0  0  0  0
   23.5067  -20.1415  -15.6616 O   0  0  0  0  0  0  0  0  0  0  0  0
   25.0115  -18.4276  -15.1359 C   0  0  2  0  0  0  0  0  0  0  0  0
   24.9438  -18.9522  -13.7775 N   0  0  0  0  0  0  0  0  0  0  0  0
   24.0885  -17.2646  -15.1898 C   0  0  0  0  0  0  0  0  0  0  0  0
   23.0618  -17.2197  -14.4113 O   0  0  0  0  0  0  0  0  0  0  0  0
   23.3332  -11.5256  -17.3944 C   0  0  0  0  0  0  0  0  0  0  0  0
   22.9486  -12.6173  -16.3805 C   0  0  2  0  0  0  0  0  0  0  0  0
   22.9103  -11.9712  -15.0256 C   0  0  0  0  0  0  0  0  0  0  0  0
   23.9136  -13.7579  -16.4557 C   0  0  0  0  0  0  0  0  0  0  0  0
   23.2815  -15.0215  -15.9694 C   0  0  2  0  0  0  0  0  0  0  0  0
   24.2167  -16.1458  -16.0392 N   0  0  0  0  0  0  0  0  0  0  0  0
   21.9839  -15.3540  -16.5571 C   0  0  0  0  0  0  0  0  0  0  0  0
   20.7418  -15.0493  -16.0749 O   0  0  0  0  0  0  0  0  0  0  0  0
   21.9891  -16.0130  -17.6592 O   0  0  0  0  0  0  0  0  0  0  0  0
  2  1  1  6
  2 13  1  0
  3  2  1  0
  3  4  1  0
  4 12  1  0
  4  5  2  0
  5  6  1  0
  7  6  1  0
  7  8  2  0
  9  8  1  0
 10  9  2  0
 11 12  2  0
 11 10  1  0
 12  7  1  0
 13 14  2  0
 16 15  1  1
 17 16  1  0
 18 16  1  0
 19 13  1  0
 18 19  1  1
 20 18  1  0
 20 21  2  0
 23 22  1  6
 23 25  1  0
 24 23  1  0
 26 28  1  0
 26 25  1  6
 26 27  1  0
 27 20  1  0
 28 29  1  0
 30 28  2  0
M  END
$$$$
