WTL.pdb
     RDKit          3D

 30 31  0  0  1  0  0  0  0  0999 V2000
   27.6746  -21.8296   -9.7825 N   0  0  0  0  0  0  0  0  0  0  0  0
   26.4576  -21.0561   -9.7405 C   0  0  1  0  0  0  0  0  0  0  0  0
   26.6775  -19.7952   -8.9928 C   0  0  0  0  0  0  0  0  0  0  0  0
   26.7397  -19.9838   -7.5306 C   0  0  0  0  0  0  0  0  0  0  0  0
   25.7403  -20.5252   -6.7206 C   0  0  0  0  0  0  0  0  0  0  0  0
   26.1840  -20.5619   -5.4556 N   0  0  0  0  0  0  0  0  0  0  0  0
   27.4485  -20.0663   -5.3672 C   0  0  0  0  0  0  0  0  0  0  0  0
   28.3070  -19.8924   -4.3076 C   0  0  0  0  0  0  0  0  0  0  0  0
   29.5495  -19.3470   -4.5044 C   0  0  0  0  0  0  0  0  0  0  0  0
   29.9167  -18.9789   -5.7773 C   0  0  0  0  0  0  0  0  0  0  0  0
   29.0408  -19.1622   -6.8252 C   0  0  0  0  0  0  0  0  0  0  0  0
   27.7813  -19.7076   -6.6786 C   0  0  0  0  0  0  0  0  0  0  0  0
   26.1130  -20.6522  -11.1546 C   0  0  0  0  0  0  0  0  0  0  0  0
   27.0154  -20.3847  -11.9870 O   0  0  0  0  0  0  0  0  0  0  0  0
   26.5104  -21.6541  -13.6387 C   0  0  0  0  0  0  0  0  0  0  0  0
   25.0095  -21.5554  -13.8158 C   0  0  1  0  0  0  0  0  0  0  0  0
   24.5195  -22.7153  -13.1506 O   0  0  0  0  0  0  0  0  0  0  0  0
   24.5017  -20.3780  -13.0279 C   0  0  2  0  0  0  0  0  0  0  0  0
   24.7779  -20.5563  -11.6077 N   0  0  0  0  0  0  0  0  0  0  0  0
   23.0377  -20.1574  -13.1526 C   0  0  0  0  0  0  0  0  0  0  0  0
   22.2520  -20.4812  -12.1830 O   0  0  0  0  0  0  0  0  0  0  0  0
   20.2108  -16.7785  -13.0208 C   0  0  0  0  0  0  0  0  0  0  0  0
   20.9975  -16.9574  -14.3310 C   0  0  2  0  0  0  0  0  0  0  0  0
   20.8035  -15.7072  -15.1396 C   0  0  0  0  0  0  0  0  0  0  0  0
   20.5418  -18.1904  -15.0452 C   0  0  0  0  0  0  0  0  0  0  0  0
   20.9249  -19.4176  -14.2836 C   0  0  2  0  0  0  0  0  0  0  0  0
   22.3770  -19.6035  -14.2690 N   0  0  0  0  0  0  0  0  0  0  0  0
   20.2214  -20.6452  -14.6546 C   0  0  0  0  0  0  0  0  0  0  0  0
   20.7441  -21.7720  -15.2249 O   0  0  0  0  0  0  0  0  0  0  0  0
   18.9584  -20.6908  -14.4269 O   0  0  0  0  0  0  0  0  0  0  0  0
  2  1  1  6
  2 13  1  0
  3  2  1  0
  3  4  1  0
  4 12  1  0
  4  5  2  0
  5  6  1  0
  7  6  1  0
  7  8  2  0
  9  8  1  0
 10  9  2  0
 11 12  2  0
 11 10  1  0
 12  7  1  0
 13 14  2  0
 16 15  1  1
 17 16  1  0
 18 16  1  0
 19 13  1  0
 18 19  1  1
 20 18  1  0
 20 21  2  0
 23 22  1  1
 23 25  1  0
 24 23  1  0
 26 28  1  0
 26 25  1  6
 26 27  1  0
 27 20  1  0
 28 29  1  0
 30 28  2  0
M  END
$$$$
