WTL.pdb
     RDKit          3D

 30 31  0  0  1  0  0  0  0  0999 V2000
   24.0070  -22.6302  -13.2866 N   0  0  0  0  0  0  0  0  0  0  0  0
   24.5366  -21.3787  -12.8021 C   0  0  1  0  0  0  0  0  0  0  0  0
   23.4900  -20.6302  -12.0661 C   0  0  0  0  0  0  0  0  0  0  0  0
   22.4619  -20.0416  -12.9458 C   0  0  0  0  0  0  0  0  0  0  0  0
   21.0995  -20.3450  -12.9485 C   0  0  0  0  0  0  0  0  0  0  0  0
   20.4896  -19.5795  -13.8653 N   0  0  0  0  0  0  0  0  0  0  0  0
   21.3812  -18.7637  -14.4914 C   0  0  0  0  0  0  0  0  0  0  0  0
   21.2431  -17.8256  -15.4869 C   0  0  0  0  0  0  0  0  0  0  0  0
   22.3363  -17.1391  -15.9490 C   0  0  0  0  0  0  0  0  0  0  0  0
   23.5675  -17.4077  -15.3989 C   0  0  0  0  0  0  0  0  0  0  0  0
   23.6836  -18.3518  -14.4018 C   0  0  0  0  0  0  0  0  0  0  0  0
   22.6141  -19.0675  -13.9025 C   0  0  0  0  0  0  0  0  0  0  0  0
   25.6188  -21.6891  -11.7952 C   0  0  0  0  0  0  0  0  0  0  0  0
   25.6516  -22.7978  -11.2048 O   0  0  0  0  0  0  0  0  0  0  0  0
   30.1019  -21.1501  -10.0791 C   0  0  0  0  0  0  0  0  0  0  0  0
   29.0273  -20.6624  -11.0283 C   0  0  1  0  0  0  0  0  0  0  0  0
   29.2841  -21.3920  -12.2240 O   0  0  0  0  0  0  0  0  0  0  0  0
   27.6872  -21.1346  -10.5322 C   0  0  2  0  0  0  0  0  0  0  0  0
   26.6353  -20.7627  -11.4704 N   0  0  0  0  0  0  0  0  0  0  0  0
   27.3011  -20.5697   -9.2134 C   0  0  0  0  0  0  0  0  0  0  0  0
   26.1675  -19.9711   -9.0754 O   0  0  0  0  0  0  0  0  0  0  0  0
   27.5334  -21.6121   -4.3900 C   0  0  0  0  0  0  0  0  0  0  0  0
   28.7725  -21.3579   -5.2664 C   0  0  2  0  0  0  0  0  0  0  0  0
   29.9798  -21.6613   -4.4270 C   0  0  0  0  0  0  0  0  0  0  0  0
   28.7609  -19.9552   -5.7862 C   0  0  0  0  0  0  0  0  0  0  0  0
   27.7426  -19.7979   -6.8683 C   0  0  2  0  0  0  0  0  0  0  0  0
   28.0739  -20.6187   -8.0345 N   0  0  0  0  0  0  0  0  0  0  0  0
   27.4169  -18.4223   -7.2440 C   0  0  0  0  0  0  0  0  0  0  0  0
   28.0154  -17.6495   -8.1993 O   0  0  0  0  0  0  0  0  0  0  0  0
   26.4562  -17.8517   -6.6111 O   0  0  0  0  0  0  0  0  0  0  0  0
  2  1  1  1
  2 13  1  0
  3  2  1  0
  3  4  1  0
  4 12  1  0
  4  5  2  0
  5  6  1  0
  7  6  1  0
  7  8  2  0
  9  8  1  0
 10  9  2  0
 11 12  2  0
 11 10  1  0
 12  7  1  0
 13 14  2  0
 16 15  1  1
 17 16  1  0
 18 16  1  0
 19 13  1  0
 18 19  1  6
 20 18  1  0
 20 21  2  0
 23 22  1  1
 23 25  1  0
 24 23  1  0
 26 28  1  0
 26 25  1  1
 26 27  1  0
 27 20  1  0
 28 29  1  0
 30 28  2  0
M  END
$$$$
