WTL.pdb
     RDKit          3D

 30 31  0  0  1  0  0  0  0  0999 V2000
   28.6531  -21.5641  -15.3616 N   0  0  0  0  0  0  0  0  0  0  0  0
   28.9059  -21.6212  -13.9424 C   0  0  1  0  0  0  0  0  0  0  0  0
   30.2127  -20.9956  -13.6292 C   0  0  0  0  0  0  0  0  0  0  0  0
   31.0827  -21.8430  -12.7911 C   0  0  0  0  0  0  0  0  0  0  0  0
   31.8334  -22.9395  -13.2180 C   0  0  0  0  0  0  0  0  0  0  0  0
   32.5180  -23.4260  -12.1725 N   0  0  0  0  0  0  0  0  0  0  0  0
   32.2652  -22.7059  -11.0456 C   0  0  0  0  0  0  0  0  0  0  0  0
   32.7130  -22.8180   -9.7506 C   0  0  0  0  0  0  0  0  0  0  0  0
   32.2781  -21.9432   -8.7886 C   0  0  0  0  0  0  0  0  0  0  0  0
   31.3887  -20.9568   -9.1444 C   0  0  0  0  0  0  0  0  0  0  0  0
   30.9527  -20.8622  -10.4482 C   0  0  0  0  0  0  0  0  0  0  0  0
   31.3619  -21.7169  -11.4519 C   0  0  0  0  0  0  0  0  0  0  0  0
   27.8600  -20.7811  -13.2485 C   0  0  0  0  0  0  0  0  0  0  0  0
   27.3637  -19.7738  -13.8123 O   0  0  0  0  0  0  0  0  0  0  0  0
   23.9268  -19.7411  -11.4391 C   0  0  0  0  0  0  0  0  0  0  0  0
   25.0714  -20.3864  -12.1921 C   0  0  1  0  0  0  0  0  0  0  0  0
   25.2686  -19.5189  -13.3041 O   0  0  0  0  0  0  0  0  0  0  0  0
   26.3211  -20.2866  -11.3595 C   0  0  2  0  0  0  0  0  0  0  0  0
   27.3923  -21.0803  -11.9489 N   0  0  0  0  0  0  0  0  0  0  0  0
   26.1535  -20.7670   -9.9636 C   0  0  0  0  0  0  0  0  0  0  0  0
   25.9908  -22.0245   -9.7297 O   0  0  0  0  0  0  0  0  0  0  0  0
   28.4880  -20.9242   -6.0948 C   0  0  0  0  0  0  0  0  0  0  0  0
   27.8407  -19.5885   -6.5006 C   0  0  2  0  0  0  0  0  0  0  0  0
   28.4312  -18.5239   -5.6217 C   0  0  0  0  0  0  0  0  0  0  0  0
   26.3517  -19.6785   -6.3876 C   0  0  0  0  0  0  0  0  0  0  0  0
   25.7836  -20.5025   -7.4971 C   0  0  2  0  0  0  0  0  0  0  0  0
   26.1543  -19.9612   -8.8060 N   0  0  0  0  0  0  0  0  0  0  0  0
   24.3519  -20.7896   -7.4111 C   0  0  0  0  0  0  0  0  0  0  0  0
   23.7240  -21.6876   -6.5941 O   0  0  0  0  0  0  0  0  0  0  0  0
   23.5721  -20.1301   -8.1896 O   0  0  0  0  0  0  0  0  0  0  0  0
  2  1  1  6
  2 13  1  0
  3  2  1  0
  3  4  1  0
  4 12  1  0
  4  5  2  0
  5  6  1  0
  7  6  1  0
  7  8  2  0
  9  8  1  0
 10  9  2  0
 11 12  2  0
 11 10  1  0
 12  7  1  0
 13 14  2  0
 16 15  1  1
 17 16  1  0
 18 16  1  0
 19 13  1  0
 18 19  1  6
 20 18  1  0
 20 21  2  0
 23 22  1  1
 23 25  1  0
 24 23  1  0
 26 28  1  0
 26 25  1  1
 26 27  1  0
 27 20  1  0
 28 29  1  0
 30 28  2  0
M  END
$$$$
