WTL.pdb
     RDKit          3D

 30 31  0  0  1  0  0  0  0  0999 V2000
   27.8453  -22.4247  -13.2270 N   0  0  0  0  0  0  0  0  0  0  0  0
   26.9692  -21.5580  -12.4769 C   0  0  1  0  0  0  0  0  0  0  0  0
   27.7080  -20.3592  -12.0138 C   0  0  0  0  0  0  0  0  0  0  0  0
   28.4982  -20.5940  -10.7899 C   0  0  0  0  0  0  0  0  0  0  0  0
   29.8262  -21.0189  -10.7283 C   0  0  0  0  0  0  0  0  0  0  0  0
   30.1989  -21.0821   -9.4416 N   0  0  0  0  0  0  0  0  0  0  0  0
   29.1777  -20.7175   -8.6190 C   0  0  0  0  0  0  0  0  0  0  0  0
   29.0714  -20.6309   -7.2511 C   0  0  0  0  0  0  0  0  0  0  0  0
   27.8934  -20.2363   -6.6709 C   0  0  0  0  0  0  0  0  0  0  0  0
   26.8259  -19.9311   -7.4820 C   0  0  0  0  0  0  0  0  0  0  0  0
   26.9541  -20.0245   -8.8509 C   0  0  0  0  0  0  0  0  0  0  0  0
   28.1180  -20.4151   -9.4819 C   0  0  0  0  0  0  0  0  0  0  0  0
   25.8965  -21.0554  -13.4139 C   0  0  0  0  0  0  0  0  0  0  0  0
   26.1977  -20.4656  -14.4818 O   0  0  0  0  0  0  0  0  0  0  0  0
   25.1246  -21.2759  -16.0203 C   0  0  0  0  0  0  0  0  0  0  0  0
   23.8204  -21.7495  -15.4135 C   0  0  1  0  0  0  0  0  0  0  0  0
   24.1235  -23.0648  -14.9594 O   0  0  0  0  0  0  0  0  0  0  0  0
   23.5338  -20.9386  -14.1785 C   0  0  2  0  0  0  0  0  0  0  0  0
   24.5196  -21.2204  -13.1423 N   0  0  0  0  0  0  0  0  0  0  0  0
   22.1998  -21.2042  -13.5809 C   0  0  0  0  0  0  0  0  0  0  0  0
   22.0834  -22.0479  -12.6129 O   0  0  0  0  0  0  0  0  0  0  0  0
   19.8512  -19.1281  -10.7818 C   0  0  0  0  0  0  0  0  0  0  0  0
   19.7036  -18.5660  -12.2066 C   0  0  2  0  0  0  0  0  0  0  0  0
   18.9990  -17.2451  -12.0920 C   0  0  0  0  0  0  0  0  0  0  0  0
   18.9758  -19.5417  -13.0762 C   0  0  0  0  0  0  0  0  0  0  0  0
   19.7501  -20.8125  -13.2123 C   0  0  2  0  0  0  0  0  0  0  0  0
   20.9842  -20.6052  -13.9722 N   0  0  0  0  0  0  0  0  0  0  0  0
   18.9984  -21.9697  -13.6975 C   0  0  0  0  0  0  0  0  0  0  0  0
   18.0263  -22.6731  -13.0430 O   0  0  0  0  0  0  0  0  0  0  0  0
   19.2696  -22.3936  -14.8790 O   0  0  0  0  0  0  0  0  0  0  0  0
  2  1  1  6
  2 13  1  0
  3  2  1  0
  3  4  1  0
  4 12  1  0
  4  5  2  0
  5  6  1  0
  7  6  1  0
  7  8  2  0
  9  8  1  0
 10  9  2  0
 11 12  2  0
 11 10  1  0
 12  7  1  0
 13 14  2  0
 16 15  1  1
 17 16  1  0
 18 16  1  0
 19 13  1  0
 18 19  1  1
 20 18  1  0
 20 21  2  0
 23 22  1  1
 23 25  1  0
 24 23  1  0
 26 28  1  0
 26 25  1  6
 26 27  1  0
 27 20  1  0
 28 29  1  0
 30 28  2  0
M  END
$$$$
