WTL.pdb
     RDKit          3D

 30 31  0  0  1  0  0  0  0  0999 V2000
   25.2114  -23.0919  -16.7064 N   0  0  0  0  0  0  0  0  0  0  0  0
   25.2311  -23.5301  -15.3320 C   0  0  1  0  0  0  0  0  0  0  0  0
   25.6631  -24.9459  -15.2519 C   0  0  0  0  0  0  0  0  0  0  0  0
   24.6886  -25.8899  -15.8321 C   0  0  0  0  0  0  0  0  0  0  0  0
   24.6532  -26.3384  -17.1533 C   0  0  0  0  0  0  0  0  0  0  0  0
   23.6442  -27.2120  -17.2847 N   0  0  0  0  0  0  0  0  0  0  0  0
   22.9865  -27.3793  -16.1049 C   0  0  0  0  0  0  0  0  0  0  0  0
   21.9045  -28.1469  -15.7443 C   0  0  0  0  0  0  0  0  0  0  0  0
   21.4307  -28.1164  -14.4580 C   0  0  0  0  0  0  0  0  0  0  0  0
   22.0570  -27.3055  -13.5411 C   0  0  0  0  0  0  0  0  0  0  0  0
   23.1402  -26.5443  -13.9237 C   0  0  0  0  0  0  0  0  0  0  0  0
   23.6548  -26.5416  -15.2045 C   0  0  0  0  0  0  0  0  0  0  0  0
   26.2819  -22.7276  -14.6018 C   0  0  0  0  0  0  0  0  0  0  0  0
   27.2632  -22.2394  -15.2164 O   0  0  0  0  0  0  0  0  0  0  0  0
   25.9469  -18.8079  -12.5498 C   0  0  0  0  0  0  0  0  0  0  0  0
   25.7275  -20.1042  -13.3016 C   0  0  1  0  0  0  0  0  0  0  0  0
   26.2943  -19.8455  -14.5822 O   0  0  0  0  0  0  0  0  0  0  0  0
   26.5778  -21.1789  -12.6796 C   0  0  2  0  0  0  0  0  0  0  0  0
   26.2164  -22.4875  -13.2107 N   0  0  0  0  0  0  0  0  0  0  0  0
   26.4481  -21.2684  -11.2022 C   0  0  0  0  0  0  0  0  0  0  0  0
   25.4263  -21.8554  -10.6790 O   0  0  0  0  0  0  0  0  0  0  0  0
   26.8245  -19.2725   -6.2933 C   0  0  0  0  0  0  0  0  0  0  0  0
   27.9393  -20.2969   -6.5683 C   0  0  2  0  0  0  0  0  0  0  0  0
   29.1147  -19.9133   -5.7164 C   0  0  0  0  0  0  0  0  0  0  0  0
   28.2636  -20.3309   -8.0283 C   0  0  0  0  0  0  0  0  0  0  0  0
   27.0912  -20.8091   -8.8219 C   0  0  2  0  0  0  0  0  0  0  0  0
   27.3650  -20.7588  -10.2592 N   0  0  0  0  0  0  0  0  0  0  0  0
   25.8037  -20.1992   -8.4900 C   0  0  0  0  0  0  0  0  0  0  0  0
   24.8077  -20.7148   -7.7089 O   0  0  0  0  0  0  0  0  0  0  0  0
   25.5582  -19.0392   -8.9831 O   0  0  0  0  0  0  0  0  0  0  0  0
  2  1  1  6
  2 13  1  0
  3  2  1  0
  3  4  1  0
  4 12  1  0
  4  5  2  0
  5  6  1  0
  7  6  1  0
  7  8  2  0
  9  8  1  0
 10  9  2  0
 11 12  2  0
 11 10  1  0
 12  7  1  0
 13 14  2  0
 16 15  1  1
 17 16  1  0
 18 16  1  0
 19 13  1  0
 18 19  1  6
 20 18  1  0
 20 21  2  0
 23 22  1  6
 23 25  1  0
 24 23  1  0
 26 28  1  0
 26 25  1  1
 26 27  1  0
 27 20  1  0
 28 29  1  0
 30 28  2  0
M  END
$$$$
