WTL.pdb
     RDKit          3D

 30 31  0  0  1  0  0  0  0  0999 V2000
   29.8742  -22.4131  -12.8596 N   0  0  0  0  0  0  0  0  0  0  0  0
   28.9021  -21.7939  -11.9918 C   0  0  1  0  0  0  0  0  0  0  0  0
   29.5311  -20.6968  -11.2185 C   0  0  0  0  0  0  0  0  0  0  0  0
   30.3619  -21.1724  -10.0956 C   0  0  0  0  0  0  0  0  0  0  0  0
   31.5861  -21.8358  -10.1919 C   0  0  0  0  0  0  0  0  0  0  0  0
   32.0462  -22.0725   -8.9547 N   0  0  0  0  0  0  0  0  0  0  0  0
   31.1846  -21.5975   -8.0142 C   0  0  0  0  0  0  0  0  0  0  0  0
   31.2111  -21.6068   -6.6397 C   0  0  0  0  0  0  0  0  0  0  0  0
   30.1816  -21.0536   -5.9228 C   0  0  0  0  0  0  0  0  0  0  0  0
   29.1272  -20.4927   -6.6040 C   0  0  0  0  0  0  0  0  0  0  0  0
   29.1207  -20.4939   -7.9821 C   0  0  0  0  0  0  0  0  0  0  0  0
   30.1329  -21.0364   -8.7478 C   0  0  0  0  0  0  0  0  0  0  0  0
   27.8481  -21.1471  -12.8590 C   0  0  0  0  0  0  0  0  0  0  0  0
   28.1703  -20.4039  -13.8196 O   0  0  0  0  0  0  0  0  0  0  0  0
   27.1717  -21.0583  -15.3800 C   0  0  0  0  0  0  0  0  0  0  0  0
   25.7554  -21.3997  -14.9663 C   0  0  1  0  0  0  0  0  0  0  0  0
   25.7887  -22.8140  -14.8034 O   0  0  0  0  0  0  0  0  0  0  0  0
   25.4958  -20.8292  -13.5980 C   0  0  2  0  0  0  0  0  0  0  0  0
   26.4659  -21.3418  -12.6384 N   0  0  0  0  0  0  0  0  0  0  0  0
   24.1502  -21.1523  -13.0573 C   0  0  0  0  0  0  0  0  0  0  0  0
   24.0396  -21.8087  -11.9531 O   0  0  0  0  0  0  0  0  0  0  0  0
   19.3410  -19.3659  -11.6725 C   0  0  0  0  0  0  0  0  0  0  0  0
   20.4478  -20.0961  -10.8918 C   0  0  2  0  0  0  0  0  0  0  0  0
   20.5326  -19.4547   -9.5369 C   0  0  0  0  0  0  0  0  0  0  0  0
   21.7385  -20.0387  -11.6461 C   0  0  0  0  0  0  0  0  0  0  0  0
   21.6644  -20.8642  -12.8894 C   0  0  2  0  0  0  0  0  0  0  0  0
   22.9168  -20.8021  -13.6452 N   0  0  0  0  0  0  0  0  0  0  0  0
   20.4998  -20.6303  -13.7430 C   0  0  0  0  0  0  0  0  0  0  0  0
   20.4790  -20.1322  -15.0156 O   0  0  0  0  0  0  0  0  0  0  0  0
   19.3470  -20.9199  -13.2571 O   0  0  0  0  0  0  0  0  0  0  0  0
  2  1  1  6
  2 13  1  0
  3  2  1  0
  3  4  1  0
  4 12  1  0
  4  5  2  0
  5  6  1  0
  7  6  1  0
  7  8  2  0
  9  8  1  0
 10  9  2  0
 11 12  2  0
 11 10  1  0
 12  7  1  0
 13 14  2  0
 16 15  1  1
 17 16  1  0
 18 16  1  0
 19 13  1  0
 18 19  1  1
 20 18  1  0
 20 21  2  0
 23 22  1  6
 23 25  1  0
 24 23  1  0
 26 28  1  0
 26 25  1  1
 26 27  1  0
 27 20  1  0
 28 29  1  0
 30 28  2  0
M  END
$$$$
