WTL.pdb
     RDKit          3D

 30 31  0  0  1  0  0  0  0  0999 V2000
   24.2360  -18.5996  -16.6571 N   0  0  0  0  0  0  0  0  0  0  0  0
   24.3062  -18.8833  -15.2444 C   0  0  1  0  0  0  0  0  0  0  0  0
   23.0847  -19.5984  -14.8041 C   0  0  0  0  0  0  0  0  0  0  0  0
   21.8779  -18.7492  -14.7992 C   0  0  0  0  0  0  0  0  0  0  0  0
   21.2933  -18.1317  -15.9060 C   0  0  0  0  0  0  0  0  0  0  0  0
   20.1949  -17.4762  -15.5031 N   0  0  0  0  0  0  0  0  0  0  0  0
   20.0043  -17.6201  -14.1632 C   0  0  0  0  0  0  0  0  0  0  0  0
   19.0442  -17.1409  -13.3039 C   0  0  0  0  0  0  0  0  0  0  0  0
   19.1000  -17.4383  -11.9666 C   0  0  0  0  0  0  0  0  0  0  0  0
   20.1316  -18.2216  -11.5053 C   0  0  0  0  0  0  0  0  0  0  0  0
   21.0835  -18.6917  -12.3840 C   0  0  0  0  0  0  0  0  0  0  0  0
   21.0701  -18.4213  -13.7375 C   0  0  0  0  0  0  0  0  0  0  0  0
   25.4564  -19.8355  -15.0167 C   0  0  0  0  0  0  0  0  0  0  0  0
   26.0323  -20.3940  -15.9838 O   0  0  0  0  0  0  0  0  0  0  0  0
   27.8358  -19.3662  -15.5127 C   0  0  0  0  0  0  0  0  0  0  0  0
   28.3147  -19.8556  -14.1619 C   0  0  1  0  0  0  0  0  0  0  0  0
   28.3370  -18.6730  -13.3689 O   0  0  0  0  0  0  0  0  0  0  0  0
   27.2565  -20.7405  -13.5602 C   0  0  2  0  0  0  0  0  0  0  0  0
   25.9371  -20.1425  -13.7238 N   0  0  0  0  0  0  0  0  0  0  0  0
   27.4348  -20.9874  -12.1060 C   0  0  0  0  0  0  0  0  0  0  0  0
   28.4089  -21.7236  -11.6918 O   0  0  0  0  0  0  0  0  0  0  0  0
   28.0174  -18.4023   -8.1032 C   0  0  0  0  0  0  0  0  0  0  0  0
   26.8619  -19.4145   -8.1925 C   0  0  2  0  0  0  0  0  0  0  0  0
   26.2876  -19.5555   -6.8124 C   0  0  0  0  0  0  0  0  0  0  0  0
   27.3508  -20.7112   -8.7560 C   0  0  0  0  0  0  0  0  0  0  0  0
   26.4276  -21.2098   -9.8199 C   0  0  2  0  0  0  0  0  0  0  0  0
   26.6175  -20.4798  -11.0747 N   0  0  0  0  0  0  0  0  0  0  0  0
   25.0155  -21.2999   -9.4493 C   0  0  0  0  0  0  0  0  0  0  0  0
   23.9398  -20.7757  -10.1098 O   0  0  0  0  0  0  0  0  0  0  0  0
   24.7292  -21.9441   -8.3760 O   0  0  0  0  0  0  0  0  0  0  0  0
  2  1  1  6
  2 13  1  0
  3  2  1  0
  3  4  1  0
  4 12  1  0
  4  5  2  0
  5  6  1  0
  7  6  1  0
  7  8  2  0
  9  8  1  0
 10  9  2  0
 11 12  2  0
 11 10  1  0
 12  7  1  0
 13 14  2  0
 16 15  1  6
 17 16  1  0
 18 16  1  0
 19 13  1  0
 18 19  1  1
 20 18  1  0
 20 21  2  0
 23 22  1  1
 23 25  1  0
 24 23  1  0
 26 28  1  0
 26 25  1  1
 26 27  1  0
 27 20  1  0
 28 29  1  0
 30 28  2  0
M  END
$$$$
