WTL.pdb
     RDKit          3D

 30 31  0  0  1  0  0  0  0  0999 V2000
   19.4396  -12.7864  -19.6004 N   0  0  0  0  0  0  0  0  0  0  0  0
   18.8070  -11.7572  -18.8118 C   0  0  1  0  0  0  0  0  0  0  0  0
   18.6539  -12.2087  -17.4082 C   0  0  0  0  0  0  0  0  0  0  0  0
   17.7596  -13.3732  -17.2611 C   0  0  0  0  0  0  0  0  0  0  0  0
   18.1494  -14.7033  -17.0965 C   0  0  0  0  0  0  0  0  0  0  0  0
   17.0508  -15.4608  -16.9643 N   0  0  0  0  0  0  0  0  0  0  0  0
   15.9231  -14.7017  -17.0324 C   0  0  0  0  0  0  0  0  0  0  0  0
   14.5863  -15.0140  -16.9598 C   0  0  0  0  0  0  0  0  0  0  0  0
   13.6375  -14.0305  -17.0720 C   0  0  0  0  0  0  0  0  0  0  0  0
   14.0493  -12.7319  -17.2584 C   0  0  0  0  0  0  0  0  0  0  0  0
   15.3945  -12.4408  -17.3281 C   0  0  0  0  0  0  0  0  0  0  0  0
   16.3866  -13.3943  -17.2195 C   0  0  0  0  0  0  0  0  0  0  0  0
   19.7335  -10.5650  -18.7717 C   0  0  0  0  0  0  0  0  0  0  0  0
   20.4759  -10.2921  -19.7479 O   0  0  0  0  0  0  0  0  0  0  0  0
   19.9670   -8.3262  -20.1244 C   0  0  0  0  0  0  0  0  0  0  0  0
   19.9680   -7.5725  -18.8107 C   0  0  1  0  0  0  0  0  0  0  0  0
   18.5841   -7.4433  -18.5008 O   0  0  0  0  0  0  0  0  0  0  0  0
   20.5532   -8.4558  -17.7420 C   0  0  2  0  0  0  0  0  0  0  0  0
   19.8115   -9.7075  -17.6511 N   0  0  0  0  0  0  0  0  0  0  0  0
   20.5351   -7.8506  -16.3852 C   0  0  0  0  0  0  0  0  0  0  0  0
   19.4545   -7.8758  -15.6823 O   0  0  0  0  0  0  0  0  0  0  0  0
   23.3734   -9.1651  -11.5811 C   0  0  0  0  0  0  0  0  0  0  0  0
   22.3867   -8.1458  -12.1771 C   0  0  2  0  0  0  0  0  0  0  0  0
   21.0579   -8.3758  -11.5169 C   0  0  0  0  0  0  0  0  0  0  0  0
   22.3308   -8.2875  -13.6654 C   0  0  0  0  0  0  0  0  0  0  0  0
   21.6847   -7.0930  -14.2889 C   0  0  2  0  0  0  0  0  0  0  0  0
   21.6234   -7.2208  -15.7460 N   0  0  0  0  0  0  0  0  0  0  0  0
   22.2135   -5.7929  -13.8770 C   0  0  0  0  0  0  0  0  0  0  0  0
   21.8875   -5.0689  -12.7644 O   0  0  0  0  0  0  0  0  0  0  0  0
   23.0908   -5.2467  -14.6393 O   0  0  0  0  0  0  0  0  0  0  0  0
  2  1  1  6
  2 13  1  0
  3  2  1  0
  3  4  1  0
  4 12  1  0
  4  5  2  0
  5  6  1  0
  7  6  1  0
  7  8  2  0
  9  8  1  0
 10  9  2  0
 11 12  2  0
 11 10  1  0
 12  7  1  0
 13 14  2  0
 16 15  1  6
 17 16  1  0
 18 16  1  0
 19 13  1  0
 18 19  1  1
 20 18  1  0
 20 21  2  0
 23 22  1  1
 23 25  1  0
 24 23  1  0
 26 28  1  0
 26 25  1  6
 26 27  1  0
 27 20  1  0
 28 29  1  0
 30 28  2  0
M  END
$$$$
