WTL.pdb
     RDKit          3D

 30 31  0  0  1  0  0  0  0  0999 V2000
   26.8697  -22.1788  -16.7162 N   0  0  0  0  0  0  0  0  0  0  0  0
   27.7615  -21.9377  -15.6081 C   0  0  1  0  0  0  0  0  0  0  0  0
   28.9606  -21.1970  -16.0674 C   0  0  0  0  0  0  0  0  0  0  0  0
   29.8929  -22.0233  -16.8583 C   0  0  0  0  0  0  0  0  0  0  0  0
   30.1917  -21.8711  -18.2132 C   0  0  0  0  0  0  0  0  0  0  0  0
   31.1066  -22.7889  -18.5581 N   0  0  0  0  0  0  0  0  0  0  0  0
   31.4461  -23.5644  -17.4924 C   0  0  0  0  0  0  0  0  0  0  0  0
   32.3157  -24.6197  -17.3499 C   0  0  0  0  0  0  0  0  0  0  0  0
   32.4594  -25.2404  -16.1358 C   0  0  0  0  0  0  0  0  0  0  0  0
   31.7187  -24.7879  -15.0694 C   0  0  0  0  0  0  0  0  0  0  0  0
   30.8530  -23.7285  -15.2341 C   0  0  0  0  0  0  0  0  0  0  0  0
   30.6744  -23.0705  -16.4343 C   0  0  0  0  0  0  0  0  0  0  0  0
   27.0548  -21.0293  -14.6300 C   0  0  0  0  0  0  0  0  0  0  0  0
   26.4298  -20.0146  -15.0281 O   0  0  0  0  0  0  0  0  0  0  0  0
   24.4560  -20.4518  -14.0684 C   0  0  0  0  0  0  0  0  0  0  0  0
   24.7633  -20.7523  -12.6162 C   0  0  1  0  0  0  0  0  0  0  0  0
   24.6156  -22.1661  -12.5310 O   0  0  0  0  0  0  0  0  0  0  0  0
   26.2185  -20.4695  -12.3567 C   0  0  2  0  0  0  0  0  0  0  0  0
   27.0595  -21.2705  -13.2376 N   0  0  0  0  0  0  0  0  0  0  0  0
   26.6506  -20.7688  -10.9670 C   0  0  0  0  0  0  0  0  0  0  0  0
   27.4676  -21.7403  -10.7410 O   0  0  0  0  0  0  0  0  0  0  0  0
   27.9459  -18.5917   -5.5263 C   0  0  0  0  0  0  0  0  0  0  0  0
   27.9616  -19.8102   -6.4659 C   0  0  2  0  0  0  0  0  0  0  0  0
   29.3474  -20.3863   -6.4229 C   0  0  0  0  0  0  0  0  0  0  0  0
   27.5396  -19.4080   -7.8436 C   0  0  0  0  0  0  0  0  0  0  0  0
   26.7069  -20.4750   -8.4769 C   0  0  2  0  0  0  0  0  0  0  0  0
   26.2485  -20.0728   -9.8079 N   0  0  0  0  0  0  0  0  0  0  0  0
   25.6141  -21.0018   -7.6596 C   0  0  0  0  0  0  0  0  0  0  0  0
   24.2858  -21.0656   -7.9754 O   0  0  0  0  0  0  0  0  0  0  0  0
   25.9169  -21.4643   -6.5006 O   0  0  0  0  0  0  0  0  0  0  0  0
  2  1  1  6
  2 13  1  0
  3  2  1  0
  3  4  1  0
  4 12  1  0
  4  5  2  0
  5  6  1  0
  7  6  1  0
  7  8  2  0
  9  8  1  0
 10  9  2  0
 11 12  2  0
 11 10  1  0
 12  7  1  0
 13 14  2  0
 16 15  1  6
 17 16  1  0
 18 16  1  0
 19 13  1  0
 18 19  1  6
 20 18  1  0
 20 21  2  0
 23 22  1  1
 23 25  1  0
 24 23  1  0
 26 28  1  0
 26 25  1  1
 26 27  1  0
 27 20  1  0
 28 29  1  0
 30 28  2  0
M  END
$$$$
