SSP.pdb
     RDKit          3D

 20 20  0  0  1  0  0  0  0  0999 V2000
   20.4938  -14.5151  -15.3719 O   0  0  0  0  0  0  0  0  0  0  0  0
   20.7422  -13.1393  -15.5219 C   0  0  0  0  0  0  0  0  0  0  0  0
   19.4956  -12.5435  -16.1281 C   0  0  2  0  0  0  0  0  0  0  0  0
   19.2937  -12.9933  -17.4660 N   0  0  0  0  0  0  0  0  0  0  0  0
   19.4983  -11.0649  -16.0925 C   0  0  0  0  0  0  0  0  0  0  0  0
   19.9752  -10.4609  -17.0839 O   0  0  0  0  0  0  0  0  0  0  0  0
   17.9997   -8.8161  -12.9349 O   0  0  0  0  0  0  0  0  0  0  0  0
   17.7866   -8.4380  -14.2581 C   0  0  0  0  0  0  0  0  0  0  0  0
   18.9909   -8.8193  -15.1253 C   0  0  2  0  0  0  0  0  0  0  0  0
   19.0058  -10.2967  -15.0293 N   0  0  0  0  0  0  0  0  0  0  0  0
   20.2529   -8.2604  -14.6452 C   0  0  0  0  0  0  0  0  0  0  0  0
   20.7642   -8.8474  -13.6205 O   0  0  0  0  0  0  0  0  0  0  0  0
   20.9181   -7.1521  -15.2256 N   0  0  0  0  0  0  0  0  0  0  0  0
   20.3651   -6.5362  -16.4548 C   0  0  0  0  0  0  0  0  0  0  0  0
   20.9396   -5.1418  -16.3707 C   0  0  0  0  0  0  0  0  0  0  0  0
   22.3721   -5.4748  -15.9708 C   0  0  0  0  0  0  0  0  0  0  0  0
   22.0940   -6.4434  -14.8214 C   0  0  1  0  0  0  0  0  0  0  0  0
   21.8938   -5.6430  -13.5944 C   0  0  0  0  0  0  0  0  0  0  0  0
   22.8880   -5.1857  -12.9952 O   0  0  0  0  0  0  0  0  0  0  0  0
   20.6354   -5.3872  -13.0924 O   0  0  0  0  0  0  0  0  0  0  0  0
  2  1  1  0
  3  5  1  0
  3  2  1  0
  3  4  1  6
  5  6  2  0
  7  8  1  0
  9  8  1  1
 10  9  1  0
 10  5  1  0
 11 12  2  0
 11  9  1  0
 13 11  1  0
 14 13  1  0
 14 15  1  0
 16 17  1  0
 16 15  1  0
 17 13  1  0
 17 18  1  1
 18 20  1  0
 19 18  2  0
M  END
$$$$
