SSP.pdb
     RDKit          3D

 20 20  0  0  1  0  0  0  0  0999 V2000
   17.9918  -12.7731  -14.5150 O   0  0  0  0  0  0  0  0  0  0  0  0
   17.9317  -11.4907  -15.0885 C   0  0  0  0  0  0  0  0  0  0  0  0
   18.2915  -11.6564  -16.5444 C   0  0  2  0  0  0  0  0  0  0  0  0
   17.5979  -12.7522  -17.1369 N   0  0  0  0  0  0  0  0  0  0  0  0
   19.7471  -11.8128  -16.7547 C   0  0  0  0  0  0  0  0  0  0  0  0
   20.1579  -12.9242  -17.1686 O   0  0  0  0  0  0  0  0  0  0  0  0
   21.7522   -9.9191  -19.0341 O   0  0  0  0  0  0  0  0  0  0  0  0
   22.0091  -11.1537  -18.4435 C   0  0  0  0  0  0  0  0  0  0  0  0
   22.1058  -11.0100  -16.9211 C   0  0  2  0  0  0  0  0  0  0  0  0
   20.6942  -10.8066  -16.5235 N   0  0  0  0  0  0  0  0  0  0  0  0
   22.9277   -9.8794  -16.4952 C   0  0  0  0  0  0  0  0  0  0  0  0
   22.3417   -8.7337  -16.5057 O   0  0  0  0  0  0  0  0  0  0  0  0
   24.2810   -9.9735  -16.0856 N   0  0  0  0  0  0  0  0  0  0  0  0
   24.9576  -11.2916  -16.1138 C   0  0  0  0  0  0  0  0  0  0  0  0
   26.4064  -10.8777  -16.2186 C   0  0  0  0  0  0  0  0  0  0  0  0
   26.4318   -9.7573  -15.1857 C   0  0  0  0  0  0  0  0  0  0  0  0
   25.1993   -8.9725  -15.6351 C   0  0  1  0  0  0  0  0  0  0  0  0
   25.6196   -8.0476  -16.7096 C   0  0  0  0  0  0  0  0  0  0  0  0
   25.4684   -8.3871  -17.9006 O   0  0  0  0  0  0  0  0  0  0  0  0
   26.1755   -6.8170  -16.4311 O   0  0  0  0  0  0  0  0  0  0  0  0
  2  1  1  0
  3  5  1  0
  3  2  1  0
  3  4  1  1
  5  6  2  0
  7  8  1  0
  9  8  1  6
 10  9  1  0
 10  5  1  0
 11 12  2  0
 11  9  1  0
 13 11  1  0
 14 13  1  0
 14 15  1  0
 16 17  1  0
 16 15  1  0
 17 13  1  0
 17 18  1  6
 18 20  1  0
 19 18  2  0
M  END
$$$$
