SSP.pdb
     RDKit          3D

 20 20  0  0  1  0  0  0  0  0999 V2000
   14.6925  -10.8111  -16.8721 O   0  0  0  0  0  0  0  0  0  0  0  0
   15.0643  -10.3804  -15.5862 C   0  0  0  0  0  0  0  0  0  0  0  0
   16.5164   -9.9797  -15.6730 C   0  0  2  0  0  0  0  0  0  0  0  0
   17.3515  -11.0913  -15.9890 N   0  0  0  0  0  0  0  0  0  0  0  0
   16.9994   -9.3263  -14.4372 C   0  0  0  0  0  0  0  0  0  0  0  0
   17.7018  -10.0113  -13.6546 O   0  0  0  0  0  0  0  0  0  0  0  0
   19.6983   -6.6794  -12.5128 O   0  0  0  0  0  0  0  0  0  0  0  0
   18.8888   -7.3373  -13.4354 C   0  0  0  0  0  0  0  0  0  0  0  0
   17.4370   -7.3713  -12.9465 C   0  0  2  0  0  0  0  0  0  0  0  0
   16.7258   -7.9985  -14.0836 N   0  0  0  0  0  0  0  0  0  0  0  0
   16.8877   -6.0470  -12.6642 C   0  0  0  0  0  0  0  0  0  0  0  0
   16.8770   -5.2287  -13.6574 O   0  0  0  0  0  0  0  0  0  0  0  0
   16.3844   -5.6327  -11.4061 N   0  0  0  0  0  0  0  0  0  0  0  0
   16.4373   -6.5696  -10.2592 C   0  0  0  0  0  0  0  0  0  0  0  0
   16.4099   -5.6105   -9.0927 C   0  0  0  0  0  0  0  0  0  0  0  0
   15.3156   -4.6599   -9.5638 C   0  0  0  0  0  0  0  0  0  0  0  0
   15.8102   -4.3912  -10.9851 C   0  0  1  0  0  0  0  0  0  0  0  0
   16.7956   -3.2907  -10.9201 C   0  0  0  0  0  0  0  0  0  0  0  0
   18.0127   -3.5569  -10.9871 O   0  0  0  0  0  0  0  0  0  0  0  0
   16.4058   -1.9749  -10.7873 O   0  0  0  0  0  0  0  0  0  0  0  0
  2  1  1  0
  3  5  1  0
  3  2  1  0
  3  4  1  1
  5  6  2  0
  7  8  1  0
  9  8  1  6
 10  9  1  0
 10  5  1  0
 11 12  2  0
 11  9  1  0
 13 11  1  0
 14 13  1  0
 14 15  1  0
 16 17  1  0
 16 15  1  0
 17 13  1  0
 17 18  1  1
 18 20  1  0
 19 18  2  0
M  END
$$$$
