SSP.pdb
     RDKit          3D

 20 20  0  0  1  0  0  0  0  0999 V2000
   18.6037  -17.2453  -14.5860 O   0  0  0  0  0  0  0  0  0  0  0  0
   19.6314  -16.3790  -14.9986 C   0  0  0  0  0  0  0  0  0  0  0  0
   19.1436  -15.7066  -16.2582 C   0  0  2  0  0  0  0  0  0  0  0  0
   19.2596  -16.5638  -17.3916 N   0  0  0  0  0  0  0  0  0  0  0  0
   19.8383  -14.4284  -16.5244 C   0  0  0  0  0  0  0  0  0  0  0  0
   20.7275  -14.4241  -17.4102 O   0  0  0  0  0  0  0  0  0  0  0  0
   20.1712  -10.6009  -18.2602 O   0  0  0  0  0  0  0  0  0  0  0  0
   19.7442  -11.8164  -17.7315 C   0  0  0  0  0  0  0  0  0  0  0  0
   20.2317  -11.9738  -16.2874 C   0  0  2  0  0  0  0  0  0  0  0  0
   19.5706  -13.2264  -15.8560 N   0  0  0  0  0  0  0  0  0  0  0  0
   19.8453  -10.8636  -15.4194 C   0  0  0  0  0  0  0  0  0  0  0  0
   18.5860  -10.7647  -15.1741 O   0  0  0  0  0  0  0  0  0  0  0  0
   20.7475   -9.9283  -14.8544 N   0  0  0  0  0  0  0  0  0  0  0  0
   22.1963  -10.0540  -15.1398 C   0  0  0  0  0  0  0  0  0  0  0  0
   22.6664   -8.6370  -14.9108 C   0  0  0  0  0  0  0  0  0  0  0  0
   21.9205   -8.3213  -13.6198 C   0  0  0  0  0  0  0  0  0  0  0  0
   20.5208   -8.7904  -14.0165 C   0  0  1  0  0  0  0  0  0  0  0  0
   19.8539   -7.6757  -14.7230 C   0  0  0  0  0  0  0  0  0  0  0  0
   19.8026   -7.6872  -15.9696 O   0  0  0  0  0  0  0  0  0  0  0  0
   19.2856   -6.6210  -14.0407 O   0  0  0  0  0  0  0  0  0  0  0  0
  2  1  1  0
  3  5  1  0
  3  2  1  0
  3  4  1  6
  5  6  2  0
  7  8  1  0
  9  8  1  6
 10  9  1  0
 10  5  1  0
 11 12  2  0
 11  9  1  0
 13 11  1  0
 14 13  1  0
 14 15  1  0
 16 17  1  0
 16 15  1  0
 17 13  1  0
 17 18  1  6
 18 20  1  0
 19 18  2  0
M  END
$$$$
