SSP.pdb
     RDKit          3D

 20 20  0  0  1  0  0  0  0  0999 V2000
   13.2716   -9.4746  -14.4787 O   0  0  0  0  0  0  0  0  0  0  0  0
   14.5852   -9.6164  -13.9975 C   0  0  0  0  0  0  0  0  0  0  0  0
   15.2935  -10.5424  -14.9552 C   0  0  2  0  0  0  0  0  0  0  0  0
   15.1471  -11.9081  -14.5727 N   0  0  0  0  0  0  0  0  0  0  0  0
   16.7282  -10.2155  -15.1038 C   0  0  0  0  0  0  0  0  0  0  0  0
   17.5148  -10.6388  -14.2221 O   0  0  0  0  0  0  0  0  0  0  0  0
   20.3551   -8.7334  -17.8832 O   0  0  0  0  0  0  0  0  0  0  0  0
   19.0124   -9.0397  -17.6768 C   0  0  0  0  0  0  0  0  0  0  0  0
   18.7095   -9.1401  -16.1782 C   0  0  2  0  0  0  0  0  0  0  0  0
   17.2656   -9.4674  -16.1596 N   0  0  0  0  0  0  0  0  0  0  0  0
   18.9646   -7.8995  -15.4494 C   0  0  0  0  0  0  0  0  0  0  0  0
   18.0588   -6.9928  -15.5653 O   0  0  0  0  0  0  0  0  0  0  0  0
   20.1095   -7.6520  -14.6520 N   0  0  0  0  0  0  0  0  0  0  0  0
   21.1142   -8.7263  -14.4716 C   0  0  0  0  0  0  0  0  0  0  0  0
   22.3489   -7.9230  -14.1376 C   0  0  0  0  0  0  0  0  0  0  0  0
   21.7522   -6.9291  -13.1481 C   0  0  0  0  0  0  0  0  0  0  0  0
   20.5308   -6.4785  -13.9494 C   0  0  1  0  0  0  0  0  0  0  0  0
   20.9591   -5.3873  -14.8507 C   0  0  0  0  0  0  0  0  0  0  0  0
   21.1503   -5.6335  -16.0588 O   0  0  0  0  0  0  0  0  0  0  0  0
   21.1536   -4.1017  -14.3919 O   0  0  0  0  0  0  0  0  0  0  0  0
  2  1  1  0
  3  5  1  0
  3  2  1  0
  3  4  1  1
  5  6  2  0
  7  8  1  0
  9  8  1  6
 10  9  1  0
 10  5  1  0
 11 12  2  0
 11  9  1  0
 13 11  1  0
 14 13  1  0
 14 15  1  0
 16 17  1  0
 16 15  1  0
 17 13  1  0
 17 18  1  6
 18 20  1  0
 19 18  2  0
M  END
$$$$
