SSP.pdb
     RDKit          3D

 20 20  0  0  1  0  0  0  0  0999 V2000
   15.9089  -11.1083  -17.0943 O   0  0  0  0  0  0  0  0  0  0  0  0
   16.3213  -11.1172  -18.4386 C   0  0  0  0  0  0  0  0  0  0  0  0
   17.3275  -12.2339  -18.5695 C   0  0  2  0  0  0  0  0  0  0  0  0
   16.7890  -13.4814  -18.1374 N   0  0  0  0  0  0  0  0  0  0  0  0
   18.5845  -11.9529  -17.8427 C   0  0  0  0  0  0  0  0  0  0  0  0
   18.6453  -12.2905  -16.6354 O   0  0  0  0  0  0  0  0  0  0  0  0
   23.1895  -10.4596  -18.0089 O   0  0  0  0  0  0  0  0  0  0  0  0
   21.9740  -10.7429  -18.6266 C   0  0  0  0  0  0  0  0  0  0  0  0
   20.9009  -11.0580  -17.5793 C   0  0  2  0  0  0  0  0  0  0  0  0
   19.7077  -11.3370  -18.4104 N   0  0  0  0  0  0  0  0  0  0  0  0
   20.6409   -9.9504  -16.6623 C   0  0  0  0  0  0  0  0  0  0  0  0
   19.8255   -9.0534  -17.0944 O   0  0  0  0  0  0  0  0  0  0  0  0
   21.2141   -9.8174  -15.3733 N   0  0  0  0  0  0  0  0  0  0  0  0
   22.0779  -10.9009  -14.8480 C   0  0  0  0  0  0  0  0  0  0  0  0
   22.9149  -10.1490  -13.8403 C   0  0  0  0  0  0  0  0  0  0  0  0
   21.8286   -9.3161  -13.1701 C   0  0  0  0  0  0  0  0  0  0  0  0
   21.1357   -8.7587  -14.4135 C   0  0  1  0  0  0  0  0  0  0  0  0
   21.8671   -7.5435  -14.8318 C   0  0  0  0  0  0  0  0  0  0  0  0
   22.6023   -7.5903  -15.8387 O   0  0  0  0  0  0  0  0  0  0  0  0
   21.7589   -6.3569  -14.1381 O   0  0  0  0  0  0  0  0  0  0  0  0
  2  1  1  0
  3  5  1  0
  3  2  1  0
  3  4  1  1
  5  6  2  0
  7  8  1  0
  9  8  1  6
 10  9  1  0
 10  5  1  0
 11 12  2  0
 11  9  1  0
 13 11  1  0
 14 13  1  0
 14 15  1  0
 16 17  1  0
 16 15  1  0
 17 13  1  0
 17 18  1  6
 18 20  1  0
 19 18  2  0
M  END
$$$$
