SSP.pdb
     RDKit          3D

 20 20  0  0  1  0  0  0  0  0999 V2000
   19.7548  -14.6633  -16.4877 O   0  0  0  0  0  0  0  0  0  0  0  0
   19.2536  -13.4382  -16.9618 C   0  0  0  0  0  0  0  0  0  0  0  0
   18.5134  -12.8047  -15.8097 C   0  0  2  0  0  0  0  0  0  0  0  0
   17.1865  -13.3133  -15.6928 N   0  0  0  0  0  0  0  0  0  0  0  0
   18.4773  -11.3290  -15.9014 C   0  0  0  0  0  0  0  0  0  0  0  0
   17.5691  -10.8123  -16.5967 O   0  0  0  0  0  0  0  0  0  0  0  0
   17.6148   -7.4050  -14.5661 O   0  0  0  0  0  0  0  0  0  0  0  0
   17.8795   -8.7687  -14.6647 C   0  0  0  0  0  0  0  0  0  0  0  0
   19.2199   -9.0051  -15.3685 C   0  0  2  0  0  0  0  0  0  0  0  0
   19.3863  -10.4728  -15.2660 N   0  0  0  0  0  0  0  0  0  0  0  0
   20.3400   -8.3153  -14.7321 C   0  0  0  0  0  0  0  0  0  0  0  0
   20.6633   -8.7455  -13.5632 O   0  0  0  0  0  0  0  0  0  0  0  0
   21.0616   -7.2421  -15.3112 N   0  0  0  0  0  0  0  0  0  0  0  0
   20.6853   -6.7590  -16.6606 C   0  0  0  0  0  0  0  0  0  0  0  0
   21.2126   -5.3441  -16.6254 C   0  0  0  0  0  0  0  0  0  0  0  0
   22.5762   -5.5908  -15.9908 C   0  0  0  0  0  0  0  0  0  0  0  0
   22.1498   -6.4604  -14.8082 C   0  0  1  0  0  0  0  0  0  0  0  0
   21.7533   -5.5595  -13.7047 C   0  0  0  0  0  0  0  0  0  0  0  0
   20.5425   -5.3306  -13.5092 O   0  0  0  0  0  0  0  0  0  0  0  0
   22.6869   -4.9638  -12.8834 O   0  0  0  0  0  0  0  0  0  0  0  0
  2  1  1  0
  3  5  1  0
  3  2  1  0
  3  4  1  6
  5  6  2  0
  7  8  1  0
  9  8  1  1
 10  9  1  0
 10  5  1  0
 11 12  2  0
 11  9  1  0
 13 11  1  0
 14 13  1  0
 14 15  1  0
 16 17  1  0
 16 15  1  0
 17 13  1  0
 17 18  1  1
 18 20  1  0
 19 18  2  0
M  END
$$$$
