SSP.pdb
     RDKit          3D

 20 20  0  0  1  0  0  0  0  0999 V2000
   15.9454  -11.3538  -17.6306 O   0  0  0  0  0  0  0  0  0  0  0  0
   17.0372  -11.2283  -16.7535 C   0  0  0  0  0  0  0  0  0  0  0  0
   18.2809  -11.3485  -17.5993 C   0  0  2  0  0  0  0  0  0  0  0  0
   18.5782  -12.7083  -17.9085 N   0  0  0  0  0  0  0  0  0  0  0  0
   19.4577  -10.7092  -16.9718 C   0  0  0  0  0  0  0  0  0  0  0  0
   20.3141  -11.4599  -16.4443 O   0  0  0  0  0  0  0  0  0  0  0  0
   23.2757   -9.0166  -16.7811 O   0  0  0  0  0  0  0  0  0  0  0  0
   22.0138   -9.4314  -17.1989 C   0  0  0  0  0  0  0  0  0  0  0  0
   20.9247   -8.7927  -16.3307 C   0  0  2  0  0  0  0  0  0  0  0  0
   19.6790   -9.3264  -16.9272 N   0  0  0  0  0  0  0  0  0  0  0  0
   20.9300   -7.3321  -16.3730 C   0  0  0  0  0  0  0  0  0  0  0  0
   20.6897   -6.8106  -17.5247 O   0  0  0  0  0  0  0  0  0  0  0  0
   21.1738   -6.4926  -15.2578 N   0  0  0  0  0  0  0  0  0  0  0  0
   21.3454   -7.0993  -13.9167 C   0  0  0  0  0  0  0  0  0  0  0  0
   22.1485   -6.0327  -13.2106 C   0  0  0  0  0  0  0  0  0  0  0  0
   21.3867   -4.7923  -13.6622 C   0  0  0  0  0  0  0  0  0  0  0  0
   21.3177   -5.0718  -15.1634 C   0  0  1  0  0  0  0  0  0  0  0  0
   22.5698   -4.5755  -15.7735 C   0  0  0  0  0  0  0  0  0  0  0  0
   22.7081   -3.3516  -15.9725 O   0  0  0  0  0  0  0  0  0  0  0  0
   23.5916   -5.4299  -16.1297 O   0  0  0  0  0  0  0  0  0  0  0  0
  2  1  1  0
  3  5  1  0
  3  2  1  0
  3  4  1  1
  5  6  2  0
  7  8  1  0
  9  8  1  6
 10  9  1  0
 10  5  1  0
 11 12  2  0
 11  9  1  0
 13 11  1  0
 14 13  1  0
 14 15  1  0
 16 17  1  0
 16 15  1  0
 17 13  1  0
 17 18  1  6
 18 20  1  0
 19 18  2  0
M  END
$$$$
