SSP.pdb
     RDKit          3D

 20 20  0  0  1  0  0  0  0  0999 V2000
   21.6516  -12.0491  -19.3104 O   0  0  0  0  0  0  0  0  0  0  0  0
   21.1171  -10.8610  -18.7815 C   0  0  0  0  0  0  0  0  0  0  0  0
   20.2661  -11.2630  -17.6023 C   0  0  2  0  0  0  0  0  0  0  0  0
   19.0630  -11.9069  -18.0160 N   0  0  0  0  0  0  0  0  0  0  0  0
   19.9442  -10.1210  -16.7194 C   0  0  0  0  0  0  0  0  0  0  0  0
   18.9349   -9.4321  -17.0055 O   0  0  0  0  0  0  0  0  0  0  0  0
   20.3003   -7.9691  -12.4747 O   0  0  0  0  0  0  0  0  0  0  0  0
   20.5655   -9.0090  -13.3621 C   0  0  0  0  0  0  0  0  0  0  0  0
   20.3121   -8.5602  -14.8051 C   0  0  2  0  0  0  0  0  0  0  0  0
   20.6885   -9.7585  -15.5890 N   0  0  0  0  0  0  0  0  0  0  0  0
   21.1188   -7.4096  -15.2060 C   0  0  0  0  0  0  0  0  0  0  0  0
   22.3582   -7.6590  -15.4465 O   0  0  0  0  0  0  0  0  0  0  0  0
   20.6285   -6.0870  -15.3405 N   0  0  0  0  0  0  0  0  0  0  0  0
   19.1767   -5.8322  -15.1878 C   0  0  0  0  0  0  0  0  0  0  0  0
   19.1724   -4.3735  -14.7961 C   0  0  0  0  0  0  0  0  0  0  0  0
   20.1875   -3.8330  -15.7963 C   0  0  0  0  0  0  0  0  0  0  0  0
   21.3079   -4.8531  -15.5941 C   0  0  1  0  0  0  0  0  0  0  0  0
   22.1305   -4.4004  -14.4519 C   0  0  0  0  0  0  0  0  0  0  0  0
   21.9357   -4.8983  -13.3246 O   0  0  0  0  0  0  0  0  0  0  0  0
   23.1096   -3.4408  -14.5982 O   0  0  0  0  0  0  0  0  0  0  0  0
  2  1  1  0
  3  5  1  0
  3  2  1  0
  3  4  1  6
  5  6  2  0
  7  8  1  0
  9  8  1  1
 10  9  1  0
 10  5  1  0
 11 12  2  0
 11  9  1  0
 13 11  1  0
 14 13  1  0
 14 15  1  0
 16 17  1  0
 16 15  1  0
 17 13  1  0
 17 18  1  1
 18 20  1  0
 19 18  2  0
M  END
$$$$
