SSP.pdb
     RDKit          3D

 20 20  0  0  1  0  0  0  0  0999 V2000
   14.9697  -11.1041  -14.1371 O   0  0  0  0  0  0  0  0  0  0  0  0
   16.0251  -10.3317  -14.6534 C   0  0  0  0  0  0  0  0  0  0  0  0
   17.1468  -10.4140  -13.6476 C   0  0  2  0  0  0  0  0  0  0  0  0
   17.5517  -11.7620  -13.4195 N   0  0  0  0  0  0  0  0  0  0  0  0
   16.8035   -9.7702  -12.3611 C   0  0  0  0  0  0  0  0  0  0  0  0
   16.3642  -10.5046  -11.4431 O   0  0  0  0  0  0  0  0  0  0  0  0
   17.1697   -5.9423   -9.4631 O   0  0  0  0  0  0  0  0  0  0  0  0
   17.4531   -6.6275  -10.6419 C   0  0  0  0  0  0  0  0  0  0  0  0
   16.5456   -7.8544  -10.7803 C   0  0  2  0  0  0  0  0  0  0  0  0
   16.9357   -8.3999  -12.1003 N   0  0  0  0  0  0  0  0  0  0  0  0
   15.1212   -7.5289  -10.7594 C   0  0  0  0  0  0  0  0  0  0  0  0
   14.6630   -6.9793  -11.8290 O   0  0  0  0  0  0  0  0  0  0  0  0
   14.2517   -7.7778   -9.6686 N   0  0  0  0  0  0  0  0  0  0  0  0
   14.7562   -8.5298   -8.4955 C   0  0  0  0  0  0  0  0  0  0  0  0
   13.8171   -8.0530   -7.4129 C   0  0  0  0  0  0  0  0  0  0  0  0
   12.4932   -8.1327   -8.1638 C   0  0  0  0  0  0  0  0  0  0  0  0
   12.8879   -7.4039   -9.4482 C   0  0  1  0  0  0  0  0  0  0  0  0
   12.7162   -5.9537   -9.2159 C   0  0  0  0  0  0  0  0  0  0  0  0
   11.5647   -5.4843   -9.1146 O   0  0  0  0  0  0  0  0  0  0  0  0
   13.7962   -5.1035   -9.1077 O   0  0  0  0  0  0  0  0  0  0  0  0
  2  1  1  0
  3  5  1  0
  3  2  1  0
  3  4  1  1
  5  6  2  0
  7  8  1  0
  9  8  1  6
 10  9  1  0
 10  5  1  0
 11 12  2  0
 11  9  1  0
 13 11  1  0
 14 13  1  0
 14 15  1  0
 16 17  1  0
 16 15  1  0
 17 13  1  0
 17 18  1  1
 18 20  1  0
 19 18  2  0
M  END
$$$$
