KCP.pdb
     RDKit          3D

 23 23  0  0  1  0  0  0  0  0999 V2000
   26.7174  -24.9635  -15.7704 N   0  0  0  0  0  0  0  0  0  0  0  0
   27.0290  -23.6974  -15.1262 C   0  0  1  0  0  0  0  0  0  0  0  0
   27.4728  -22.6922  -16.1345 C   0  0  0  0  0  0  0  0  0  0  0  0
   28.8642  -22.6181  -16.5599 C   0  0  0  0  0  0  0  0  0  0  0  0
   29.7018  -23.8087  -16.7872 C   0  0  0  0  0  0  0  0  0  0  0  0
   29.7443  -24.4488  -18.1170 C   0  0  0  0  0  0  0  0  0  0  0  0
   31.0186  -24.0953  -18.7903 N   0  0  0  0  0  0  0  0  0  0  0  0
   25.7630  -23.1368  -14.5089 C   0  0  0  0  0  0  0  0  0  0  0  0
   24.6404  -23.5656  -14.8685 O   0  0  0  0  0  0  0  0  0  0  0  0
   25.7806  -22.1260  -13.5198 N   0  0  0  0  0  0  0  0  0  0  0  0
   24.5752  -21.5802  -12.9240 C   0  0  1  0  0  0  0  0  0  0  0  0
   24.9191  -20.6727  -11.7536 C   0  0  0  0  0  0  0  0  0  0  0  0
   25.1407  -21.6572  -10.2328 S   0  0  0  0  0  0  0  0  0  0  0  0
   23.8954  -20.7478  -13.9379 C   0  0  0  0  0  0  0  0  0  0  0  0
   24.6640  -20.0915  -14.7300 O   0  0  0  0  0  0  0  0  0  0  0  0
   22.4840  -20.6464  -14.0705 N   0  0  0  0  0  0  0  0  0  0  0  0
   21.4537  -21.1308  -13.2071 C   0  0  0  0  0  0  0  0  0  0  0  0
   20.3590  -21.5567  -14.1916 C   0  0  0  0  0  0  0  0  0  0  0  0
   20.7586  -20.9987  -15.5359 C   0  0  0  0  0  0  0  0  0  0  0  0
   21.8222  -19.9877  -15.1674 C   0  0  1  0  0  0  0  0  0  0  0  0
   21.1268  -18.7369  -14.7611 C   0  0  0  0  0  0  0  0  0  0  0  0
   21.0845  -18.2946  -13.5863 O   0  0  0  0  0  0  0  0  0  0  0  0
   20.4695  -17.9835  -15.7240 O   0  0  0  0  0  0  0  0  0  0  0  0
  2  1  1  6
  2  3  1  0
  4  3  1  0
  5  4  1  0
  6  7  1  0
  6  5  1  0
  8 10  1  0
  8  2  1  0
  9  8  2  0
 11 10  1  0
 12 13  1  0
 11 12  1  1
 14 11  1  0
 14 15  2  0
 16 14  1  0
 17 18  1  0
 17 16  1  0
 18 19  1  0
 20 16  1  0
 20 19  1  0
 20 21  1  1
 22 21  2  0
 23 21  1  0
M  END
$$$$
