KCP.pdb
     RDKit          3D

 23 23  0  0  1  0  0  0  0  0999 V2000
   18.9001  -11.2529  -18.2551 N   0  0  0  0  0  0  0  0  0  0  0  0
   17.9919  -10.3998  -17.5049 C   0  0  1  0  0  0  0  0  0  0  0  0
   16.9156  -11.2127  -16.8688 C   0  0  0  0  0  0  0  0  0  0  0  0
   16.5920  -12.5462  -17.3581 C   0  0  0  0  0  0  0  0  0  0  0  0
   17.0498  -13.7803  -16.6963 C   0  0  0  0  0  0  0  0  0  0  0  0
   16.5678  -15.0976  -17.1573 C   0  0  0  0  0  0  0  0  0  0  0  0
   17.3009  -16.1673  -16.4359 N   0  0  0  0  0  0  0  0  0  0  0  0
   18.7548   -9.7542  -16.3650 C   0  0  0  0  0  0  0  0  0  0  0  0
   18.1387   -9.1600  -15.4481 O   0  0  0  0  0  0  0  0  0  0  0  0
   20.1660   -9.7871  -16.2776 N   0  0  0  0  0  0  0  0  0  0  0  0
   20.9072   -9.1627  -15.1974 C   0  0  1  0  0  0  0  0  0  0  0  0
   22.2895   -9.7821  -15.0676 C   0  0  0  0  0  0  0  0  0  0  0  0
   23.2532   -8.9163  -13.7819 S   0  0  0  0  0  0  0  0  0  0  0  0
   21.0967   -7.7362  -15.5322 C   0  0  0  0  0  0  0  0  0  0  0  0
   21.4304   -7.4858  -16.7466 O   0  0  0  0  0  0  0  0  0  0  0  0
   20.9314   -6.6710  -14.6060 N   0  0  0  0  0  0  0  0  0  0  0  0
   20.5111   -6.7115  -13.2408 C   0  0  0  0  0  0  0  0  0  0  0  0
   19.6854   -5.4278  -13.1023 C   0  0  0  0  0  0  0  0  0  0  0  0
   19.9558   -4.6146  -14.3447 C   0  0  0  0  0  0  0  0  0  0  0  0
   21.1855   -5.2871  -14.9146 C   0  0  1  0  0  0  0  0  0  0  0  0
   22.3671   -4.7380  -14.1966 C   0  0  0  0  0  0  0  0  0  0  0  0
   22.9990   -5.3447  -13.2965 O   0  0  0  0  0  0  0  0  0  0  0  0
   22.8281   -3.4695  -14.5209 O   0  0  0  0  0  0  0  0  0  0  0  0
  2  1  1  1
  2  3  1  0
  4  3  1  0
  5  4  1  0
  6  7  1  0
  6  5  1  0
  8 10  1  0
  8  2  1  0
  9  8  2  0
 11 10  1  0
 12 13  1  0
 11 12  1  6
 14 11  1  0
 14 15  2  0
 16 14  1  0
 17 18  1  0
 17 16  1  0
 18 19  1  0
 20 16  1  0
 20 19  1  0
 20 21  1  1
 22 21  2  0
 23 21  1  0
M  END
$$$$
