KCP.pdb
     RDKit          3D

 23 23  0  0  1  0  0  0  0  0999 V2000
   28.0598  -17.0952  -16.6762 N   0  0  0  0  0  0  0  0  0  0  0  0
   26.7618  -17.2851  -16.0482 C   0  0  1  0  0  0  0  0  0  0  0  0
   25.6910  -17.3900  -17.0809 C   0  0  0  0  0  0  0  0  0  0  0  0
   25.8107  -16.7035  -18.3603 C   0  0  0  0  0  0  0  0  0  0  0  0
   26.7520  -15.5947  -18.5947 C   0  0  0  0  0  0  0  0  0  0  0  0
   26.7791  -14.9012  -19.8979 C   0  0  0  0  0  0  0  0  0  0  0  0
   27.0889  -15.8815  -20.9681 N   0  0  0  0  0  0  0  0  0  0  0  0
   26.7622  -18.6107  -15.3128 C   0  0  0  0  0  0  0  0  0  0  0  0
   26.7158  -19.6888  -15.9524 O   0  0  0  0  0  0  0  0  0  0  0  0
   26.8135  -18.6994  -13.9022 N   0  0  0  0  0  0  0  0  0  0  0  0
   26.5351  -19.9241  -13.1753 C   0  0  1  0  0  0  0  0  0  0  0  0
   26.7466  -19.7219  -11.6834 C   0  0  0  0  0  0  0  0  0  0  0  0
   25.2977  -18.8930  -10.9451 S   0  0  0  0  0  0  0  0  0  0  0  0
   25.1111  -20.2645  -13.3730 C   0  0  0  0  0  0  0  0  0  0  0  0
   24.3941  -19.3641  -13.9424 O   0  0  0  0  0  0  0  0  0  0  0  0
   24.5232  -21.4965  -12.9774 N   0  0  0  0  0  0  0  0  0  0  0  0
   25.0837  -22.5663  -12.2137 C   0  0  0  0  0  0  0  0  0  0  0  0
   24.4691  -23.8082  -12.8685 C   0  0  0  0  0  0  0  0  0  0  0  0
   23.3713  -23.3087  -13.7759 C   0  0  0  0  0  0  0  0  0  0  0  0
   23.1742  -21.8865  -13.2987 C   0  0  1  0  0  0  0  0  0  0  0  0
   22.2831  -21.9350  -12.1085 C   0  0  0  0  0  0  0  0  0  0  0  0
   21.0418  -22.1211  -12.1549 O   0  0  0  0  0  0  0  0  0  0  0  0
   22.8311  -21.7663  -10.8443 O   0  0  0  0  0  0  0  0  0  0  0  0
  2  1  1  6
  2  3  1  0
  4  3  1  0
  5  4  1  0
  6  7  1  0
  6  5  1  0
  8 10  1  0
  8  2  1  0
  9  8  2  0
 11 10  1  0
 12 13  1  0
 11 12  1  1
 14 11  1  0
 14 15  2  0
 16 14  1  0
 17 18  1  0
 17 16  1  0
 18 19  1  0
 20 16  1  0
 20 19  1  0
 20 21  1  1
 22 21  2  0
 23 21  1  0
M  END
$$$$
