KCP.pdb
     RDKit          3D

 23 23  0  0  1  0  0  0  0  0999 V2000
   20.8656  -20.2127  -13.7224 N   0  0  0  0  0  0  0  0  0  0  0  0
   21.2952  -19.5576  -14.9478 C   0  0  1  0  0  0  0  0  0  0  0  0
   20.3171  -18.5060  -15.3498 C   0  0  0  0  0  0  0  0  0  0  0  0
   19.4198  -18.7065  -16.4798 C   0  0  0  0  0  0  0  0  0  0  0  0
   18.2160  -19.5532  -16.4123 C   0  0  0  0  0  0  0  0  0  0  0  0
   17.3085  -19.6545  -17.5726 C   0  0  0  0  0  0  0  0  0  0  0  0
   16.2511  -20.6543  -17.2815 N   0  0  0  0  0  0  0  0  0  0  0  0
   22.6006  -18.8332  -14.6848 C   0  0  0  0  0  0  0  0  0  0  0  0
   22.7657  -18.1944  -13.6179 O   0  0  0  0  0  0  0  0  0  0  0  0
   23.6743  -18.8395  -15.6054 N   0  0  0  0  0  0  0  0  0  0  0  0
   24.9159  -18.1233  -15.3785 C   0  0  1  0  0  0  0  0  0  0  0  0
   26.1014  -19.0734  -15.4376 C   0  0  0  0  0  0  0  0  0  0  0  0
   27.5807  -18.2024  -16.0575 S   0  0  0  0  0  0  0  0  0  0  0  0
   25.0878  -17.1411  -16.4687 C   0  0  0  0  0  0  0  0  0  0  0  0
   24.5875  -17.4718  -17.6041 O   0  0  0  0  0  0  0  0  0  0  0  0
   25.7554  -15.8951  -16.3216 N   0  0  0  0  0  0  0  0  0  0  0  0
   26.5785  -15.4266  -15.2516 C   0  0  0  0  0  0  0  0  0  0  0  0
   26.2269  -13.9365  -15.1810 C   0  0  0  0  0  0  0  0  0  0  0  0
   25.4350  -13.6291  -16.4286 C   0  0  0  0  0  0  0  0  0  0  0  0
   25.7117  -14.8364  -17.2975 C   0  0  1  0  0  0  0  0  0  0  0  0
   27.0190  -14.6110  -17.9707 C   0  0  0  0  0  0  0  0  0  0  0  0
   28.0003  -15.3919  -17.9009 O   0  0  0  0  0  0  0  0  0  0  0  0
   27.1987  -13.4674  -18.7367 O   0  0  0  0  0  0  0  0  0  0  0  0
  2  1  1  1
  2  3  1  0
  4  3  1  0
  5  4  1  0
  6  7  1  0
  6  5  1  0
  8 10  1  0
  8  2  1  0
  9  8  2  0
 11 10  1  0
 12 13  1  0
 11 12  1  6
 14 11  1  0
 14 15  2  0
 16 14  1  0
 17 18  1  0
 17 16  1  0
 18 19  1  0
 20 16  1  0
 20 19  1  0
 20 21  1  1
 22 21  2  0
 23 21  1  0
M  END
$$$$
