KCP.pdb
     RDKit          3D

 23 23  0  0  1  0  0  0  0  0999 V2000
   21.2598  -20.2574  -10.7363 N   0  0  0  0  0  0  0  0  0  0  0  0
   21.7075  -20.6851  -12.0524 C   0  0  1  0  0  0  0  0  0  0  0  0
   20.8648  -20.0695  -13.1177 C   0  0  0  0  0  0  0  0  0  0  0  0
   19.6039  -20.6762  -13.5230 C   0  0  0  0  0  0  0  0  0  0  0  0
   19.2937  -22.1021  -13.3197 C   0  0  0  0  0  0  0  0  0  0  0  0
   18.0205  -22.6665  -13.8100 C   0  0  0  0  0  0  0  0  0  0  0  0
   17.9663  -24.1123  -13.4801 N   0  0  0  0  0  0  0  0  0  0  0  0
   23.1139  -20.1685  -12.2836 C   0  0  0  0  0  0  0  0  0  0  0  0
   23.3787  -18.9550  -12.1080 O   0  0  0  0  0  0  0  0  0  0  0  0
   24.1746  -21.0066  -12.6992 N   0  0  0  0  0  0  0  0  0  0  0  0
   25.4984  -20.5071  -13.0219 C   0  0  1  0  0  0  0  0  0  0  0  0
   26.5426  -21.5962  -12.8351 C   0  0  0  0  0  0  0  0  0  0  0  0
   26.6582  -22.0675  -11.0756 S   0  0  0  0  0  0  0  0  0  0  0  0
   25.5129  -20.1274  -14.4497 C   0  0  0  0  0  0  0  0  0  0  0  0
   24.4912  -20.4928  -15.1364 O   0  0  0  0  0  0  0  0  0  0  0  0
   26.5658  -19.4034  -15.0717 N   0  0  0  0  0  0  0  0  0  0  0  0
   27.8330  -19.0086  -14.5422 C   0  0  0  0  0  0  0  0  0  0  0  0
   28.0583  -17.6376  -15.1890 C   0  0  0  0  0  0  0  0  0  0  0  0
   27.0144  -17.5035  -16.2709 C   0  0  0  0  0  0  0  0  0  0  0  0
   26.5237  -18.9258  -16.4301 C   0  0  1  0  0  0  0  0  0  0  0  0
   27.4811  -19.6303  -17.3247 C   0  0  0  0  0  0  0  0  0  0  0  0
   28.2748  -20.5296  -16.9520 O   0  0  0  0  0  0  0  0  0  0  0  0
   27.5249  -19.2930  -18.6705 O   0  0  0  0  0  0  0  0  0  0  0  0
  2  1  1  1
  2  3  1  0
  4  3  1  0
  5  4  1  0
  6  7  1  0
  6  5  1  0
  8 10  1  0
  8  2  1  0
  9  8  2  0
 11 10  1  0
 12 13  1  0
 11 12  1  6
 14 11  1  0
 14 15  2  0
 16 14  1  0
 17 18  1  0
 17 16  1  0
 18 19  1  0
 20 16  1  0
 20 19  1  0
 20 21  1  6
 22 21  2  0
 23 21  1  0
M  END
$$$$
