KCP.pdb
     RDKit          3D

 23 23  0  0  1  0  0  0  0  0999 V2000
   20.0661  -20.1126  -12.9263 N   0  0  0  0  0  0  0  0  0  0  0  0
   21.0731  -21.1595  -12.9998 C   0  0  1  0  0  0  0  0  0  0  0  0
   20.9847  -21.8804  -14.3023 C   0  0  0  0  0  0  0  0  0  0  0  0
   19.9595  -22.8888  -14.5352 C   0  0  0  0  0  0  0  0  0  0  0  0
   19.5256  -23.8494  -13.5058 C   0  0  0  0  0  0  0  0  0  0  0  0
   18.5478  -24.9057  -13.8350 C   0  0  0  0  0  0  0  0  0  0  0  0
   18.2813  -25.7210  -12.6240 N   0  0  0  0  0  0  0  0  0  0  0  0
   22.4475  -20.5207  -12.9699 C   0  0  0  0  0  0  0  0  0  0  0  0
   22.6255  -19.3799  -13.4602 O   0  0  0  0  0  0  0  0  0  0  0  0
   23.5732  -21.1613  -12.4020 N   0  0  0  0  0  0  0  0  0  0  0  0
   24.9148  -20.6122  -12.4701 C   0  0  1  0  0  0  0  0  0  0  0  0
   25.8441  -21.3476  -11.5176 C   0  0  0  0  0  0  0  0  0  0  0  0
   25.4882  -20.8713   -9.7920 S   0  0  0  0  0  0  0  0  0  0  0  0
   25.4318  -20.8255  -13.8376 C   0  0  0  0  0  0  0  0  0  0  0  0
   24.7293  -21.5952  -14.5879 O   0  0  0  0  0  0  0  0  0  0  0  0
   26.6249  -20.2387  -14.3396 N   0  0  0  0  0  0  0  0  0  0  0  0
   27.6551  -19.5365  -13.6414 C   0  0  0  0  0  0  0  0  0  0  0  0
   28.0688  -18.4554  -14.6459 C   0  0  0  0  0  0  0  0  0  0  0  0
   27.4240  -18.8284  -15.9586 C   0  0  0  0  0  0  0  0  0  0  0  0
   27.0163  -20.2667  -15.7257 C   0  0  1  0  0  0  0  0  0  0  0  0
   28.2122  -21.1153  -15.9758 C   0  0  0  0  0  0  0  0  0  0  0  0
   28.8016  -21.7926  -15.0975 O   0  0  0  0  0  0  0  0  0  0  0  0
   28.7376  -21.1848  -17.2588 O   0  0  0  0  0  0  0  0  0  0  0  0
  2  1  1  6
  2  3  1  0
  4  3  1  0
  5  4  1  0
  6  7  1  0
  6  5  1  0
  8 10  1  0
  8  2  1  0
  9  8  2  0
 11 10  1  0
 12 13  1  0
 11 12  1  1
 14 11  1  0
 14 15  2  0
 16 14  1  0
 17 18  1  0
 17 16  1  0
 18 19  1  0
 20 16  1  0
 20 19  1  0
 20 21  1  1
 22 21  2  0
 23 21  1  0
M  END
$$$$
