KCP.pdb
     RDKit          3D

 23 23  0  0  1  0  0  0  0  0999 V2000
   20.1064  -19.7369  -12.9043 N   0  0  0  0  0  0  0  0  0  0  0  0
   21.0649  -20.7140  -13.3960 C   0  0  1  0  0  0  0  0  0  0  0  0
   20.8996  -20.9165  -14.8642 C   0  0  0  0  0  0  0  0  0  0  0  0
   19.6719  -20.5248  -15.5436 C   0  0  0  0  0  0  0  0  0  0  0  0
   19.4140  -19.1526  -16.0140 C   0  0  0  0  0  0  0  0  0  0  0  0
   18.1551  -18.8275  -16.7138 C   0  0  0  0  0  0  0  0  0  0  0  0
   17.0544  -18.7324  -15.7230 N   0  0  0  0  0  0  0  0  0  0  0  0
   22.4653  -20.1653  -13.2065 C   0  0  0  0  0  0  0  0  0  0  0  0
   22.7422  -18.9981  -13.5732 O   0  0  0  0  0  0  0  0  0  0  0  0
   23.5072  -20.9217  -12.6211 N   0  0  0  0  0  0  0  0  0  0  0  0
   24.8827  -20.4629  -12.5637 C   0  0  1  0  0  0  0  0  0  0  0  0
   25.6460  -21.1923  -11.4697 C   0  0  0  0  0  0  0  0  0  0  0  0
   24.8718  -20.8860   -9.8455 S   0  0  0  0  0  0  0  0  0  0  0  0
   25.5339  -20.7953  -13.8476 C   0  0  0  0  0  0  0  0  0  0  0  0
   24.9170  -21.6475  -14.5840 O   0  0  0  0  0  0  0  0  0  0  0  0
   26.7640  -20.2349  -14.2865 N   0  0  0  0  0  0  0  0  0  0  0  0
   27.7540  -19.5222  -13.5425 C   0  0  0  0  0  0  0  0  0  0  0  0
   28.2451  -18.4751  -14.5481 C   0  0  0  0  0  0  0  0  0  0  0  0
   27.6836  -18.8805  -15.8892 C   0  0  0  0  0  0  0  0  0  0  0  0
   27.2451  -20.3073  -15.6424 C   0  0  1  0  0  0  0  0  0  0  0  0
   28.4451  -21.1742  -15.7887 C   0  0  0  0  0  0  0  0  0  0  0  0
   29.0241  -21.4117  -16.8778 O   0  0  0  0  0  0  0  0  0  0  0  0
   28.9870  -21.7774  -14.6620 O   0  0  0  0  0  0  0  0  0  0  0  0
  2  1  1  6
  2  3  1  0
  4  3  1  0
  5  4  1  0
  6  7  1  0
  6  5  1  0
  8 10  1  0
  8  2  1  0
  9  8  2  0
 11 10  1  0
 12 13  1  0
 11 12  1  1
 14 11  1  0
 14 15  2  0
 16 14  1  0
 17 18  1  0
 17 16  1  0
 18 19  1  0
 20 16  1  0
 20 19  1  0
 20 21  1  1
 22 21  2  0
 23 21  1  0
M  END
$$$$
