KCP.pdb
     RDKit          3D

 23 23  0  0  1  0  0  0  0  0999 V2000
   20.5721  -21.0338  -11.4616 N   0  0  0  0  0  0  0  0  0  0  0  0
   21.1452  -21.2094  -12.7868 C   0  0  1  0  0  0  0  0  0  0  0  0
   20.3171  -20.5114  -13.8119 C   0  0  0  0  0  0  0  0  0  0  0  0
   19.3278  -21.2353  -14.5991 C   0  0  0  0  0  0  0  0  0  0  0  0
   18.1174  -21.8385  -14.0145 C   0  0  0  0  0  0  0  0  0  0  0  0
   17.2067  -22.6454  -14.8508 C   0  0  0  0  0  0  0  0  0  0  0  0
   16.1085  -23.1774  -14.0064 N   0  0  0  0  0  0  0  0  0  0  0  0
   22.5055  -20.5414  -12.8252 C   0  0  0  0  0  0  0  0  0  0  0  0
   22.5998  -19.3114  -13.0524 O   0  0  0  0  0  0  0  0  0  0  0  0
   23.7096  -21.2521  -12.6121 N   0  0  0  0  0  0  0  0  0  0  0  0
   25.0170  -20.6233  -12.6479 C   0  0  1  0  0  0  0  0  0  0  0  0
   26.0155  -21.4151  -11.8187 C   0  0  0  0  0  0  0  0  0  0  0  0
   25.6981  -21.1668  -10.0385 S   0  0  0  0  0  0  0  0  0  0  0  0
   25.4984  -20.6389  -14.0446 C   0  0  0  0  0  0  0  0  0  0  0  0
   24.8248  -21.3662  -14.8608 O   0  0  0  0  0  0  0  0  0  0  0  0
   26.6291  -19.9124  -14.5066 N   0  0  0  0  0  0  0  0  0  0  0  0
   27.6415  -19.2359  -13.7586 C   0  0  0  0  0  0  0  0  0  0  0  0
   27.9421  -18.0096  -14.6274 C   0  0  0  0  0  0  0  0  0  0  0  0
   27.2668  -18.2554  -15.9546 C   0  0  0  0  0  0  0  0  0  0  0  0
   26.9618  -19.7362  -15.8971 C   0  0  1  0  0  0  0  0  0  0  0  0
   28.1975  -20.4619  -16.2964 C   0  0  0  0  0  0  0  0  0  0  0  0
   28.9027  -21.1502  -15.5176 O   0  0  0  0  0  0  0  0  0  0  0  0
   28.6277  -20.3935  -17.6144 O   0  0  0  0  0  0  0  0  0  0  0  0
  2  1  1  1
  2  3  1  0
  4  3  1  0
  5  4  1  0
  6  7  1  0
  6  5  1  0
  8 10  1  0
  8  2  1  0
  9  8  2  0
 11 10  1  0
 12 13  1  0
 11 12  1  1
 14 11  1  0
 14 15  2  0
 16 14  1  0
 17 18  1  0
 17 16  1  0
 18 19  1  0
 20 16  1  0
 20 19  1  0
 20 21  1  1
 22 21  2  0
 23 21  1  0
M  END
$$$$
