KCP.pdb
     RDKit          3D

 23 23  0  0  1  0  0  0  0  0999 V2000
   20.4074  -21.2910  -12.8723 N   0  0  0  0  0  0  0  0  0  0  0  0
   21.2227  -20.8601  -13.9970 C   0  0  1  0  0  0  0  0  0  0  0  0
   20.4992  -19.8379  -14.8067 C   0  0  0  0  0  0  0  0  0  0  0  0
   19.1147  -20.0418  -15.2115 C   0  0  0  0  0  0  0  0  0  0  0  0
   18.6216  -21.3044  -15.7889 C   0  0  0  0  0  0  0  0  0  0  0  0
   17.2051  -21.4428  -16.1816 C   0  0  0  0  0  0  0  0  0  0  0  0
   16.9759  -22.8084  -16.7152 N   0  0  0  0  0  0  0  0  0  0  0  0
   22.4635  -20.1692  -13.4667 C   0  0  0  0  0  0  0  0  0  0  0  0
   22.6675  -18.9568  -13.7156 O   0  0  0  0  0  0  0  0  0  0  0  0
   23.4321  -20.8385  -12.6831 N   0  0  0  0  0  0  0  0  0  0  0  0
   24.8211  -20.4235  -12.6165 C   0  0  1  0  0  0  0  0  0  0  0  0
   25.5686  -21.2202  -11.5592 C   0  0  0  0  0  0  0  0  0  0  0  0
   24.6995  -21.1182   -9.9574 S   0  0  0  0  0  0  0  0  0  0  0  0
   25.4545  -20.7212  -13.9177 C   0  0  0  0  0  0  0  0  0  0  0  0
   24.7789  -21.4723  -14.7103 O   0  0  0  0  0  0  0  0  0  0  0  0
   26.7280  -20.2313  -14.3153 N   0  0  0  0  0  0  0  0  0  0  0  0
   27.7290  -19.5691  -13.5398 C   0  0  0  0  0  0  0  0  0  0  0  0
   28.3114  -18.5565  -14.5319 C   0  0  0  0  0  0  0  0  0  0  0  0
   27.7759  -18.9389  -15.8902 C   0  0  0  0  0  0  0  0  0  0  0  0
   27.2516  -20.3382  -15.6531 C   0  0  1  0  0  0  0  0  0  0  0  0
   28.4068  -21.2701  -15.7533 C   0  0  0  0  0  0  0  0  0  0  0  0
   28.9091  -21.8891  -14.7827 O   0  0  0  0  0  0  0  0  0  0  0  0
   28.9927  -21.4925  -16.9919 O   0  0  0  0  0  0  0  0  0  0  0  0
  2  1  1  1
  2  3  1  0
  4  3  1  0
  5  4  1  0
  6  7  1  0
  6  5  1  0
  8 10  1  0
  8  2  1  0
  9  8  2  0
 11 10  1  0
 12 13  1  0
 11 12  1  1
 14 11  1  0
 14 15  2  0
 16 14  1  0
 17 18  1  0
 17 16  1  0
 18 19  1  0
 20 16  1  0
 20 19  1  0
 20 21  1  1
 22 21  2  0
 23 21  1  0
M  END
$$$$
