KCP.pdb
     RDKit          3D

 23 23  0  0  1  0  0  0  0  0999 V2000
   20.1454  -12.7125  -17.8979 N   0  0  0  0  0  0  0  0  0  0  0  0
   21.1882  -11.7518  -17.5741 C   0  0  1  0  0  0  0  0  0  0  0  0
   21.9005  -11.3160  -18.8097 C   0  0  0  0  0  0  0  0  0  0  0  0
   22.6534  -12.2658  -19.6179 C   0  0  0  0  0  0  0  0  0  0  0  0
   23.7914  -13.0430  -19.0968 C   0  0  0  0  0  0  0  0  0  0  0  0
   24.4319  -14.0797  -19.9305 C   0  0  0  0  0  0  0  0  0  0  0  0
   25.5658  -14.6779  -19.1830 N   0  0  0  0  0  0  0  0  0  0  0  0
   20.5448  -10.5039  -17.0023 C   0  0  0  0  0  0  0  0  0  0  0  0
   20.0684   -9.6310  -17.7668 O   0  0  0  0  0  0  0  0  0  0  0  0
   20.4503  -10.2643  -15.6117 N   0  0  0  0  0  0  0  0  0  0  0  0
   19.8460   -9.0688  -15.0535 C   0  0  1  0  0  0  0  0  0  0  0  0
   19.0007   -9.4130  -13.8376 C   0  0  0  0  0  0  0  0  0  0  0  0
   18.6404   -7.9077  -12.8703 S   0  0  0  0  0  0  0  0  0  0  0  0
   20.9294   -8.1754  -14.5945 C   0  0  0  0  0  0  0  0  0  0  0  0
   21.9269   -8.7511  -14.0265 O   0  0  0  0  0  0  0  0  0  0  0  0
   20.9172   -6.7626  -14.7486 N   0  0  0  0  0  0  0  0  0  0  0  0
   19.8697   -5.9087  -15.2129 C   0  0  0  0  0  0  0  0  0  0  0  0
   20.6313   -4.8319  -15.9935 C   0  0  0  0  0  0  0  0  0  0  0  0
   22.0904   -5.0152  -15.6535 C   0  0  0  0  0  0  0  0  0  0  0  0
   22.0323   -5.9070  -14.4327 C   0  0  1  0  0  0  0  0  0  0  0  0
   21.7808   -5.0343  -13.2545 C   0  0  0  0  0  0  0  0  0  0  0  0
   20.6797   -4.9436  -12.6570 O   0  0  0  0  0  0  0  0  0  0  0  0
   22.8148   -4.2534  -12.7565 O   0  0  0  0  0  0  0  0  0  0  0  0
  2  1  1  6
  2  3  1  0
  4  3  1  0
  5  4  1  0
  6  7  1  0
  6  5  1  0
  8 10  1  0
  8  2  1  0
  9  8  2  0
 11 10  1  0
 12 13  1  0
 11 12  1  1
 14 11  1  0
 14 15  2  0
 16 14  1  0
 17 18  1  0
 17 16  1  0
 18 19  1  0
 20 16  1  0
 20 19  1  0
 20 21  1  1
 22 21  2  0
 23 21  1  0
M  END
$$$$
