KCP.pdb
     RDKit          3D

 23 23  0  0  1  0  0  0  0  0999 V2000
   21.0619  -14.4073  -17.8183 N   0  0  0  0  0  0  0  0  0  0  0  0
   20.6492  -13.0906  -18.2779 C   0  0  1  0  0  0  0  0  0  0  0  0
   19.2957  -13.1541  -18.9009 C   0  0  0  0  0  0  0  0  0  0  0  0
   18.5938  -14.4224  -19.0462 C   0  0  0  0  0  0  0  0  0  0  0  0
   17.3209  -14.5600  -19.7752 C   0  0  0  0  0  0  0  0  0  0  0  0
   16.6733  -15.8806  -19.9040 C   0  0  0  0  0  0  0  0  0  0  0  0
   15.3954  -15.7294  -20.6433 N   0  0  0  0  0  0  0  0  0  0  0  0
   20.5129  -12.1732  -17.0788 C   0  0  0  0  0  0  0  0  0  0  0  0
   19.5356  -12.2898  -16.3011 O   0  0  0  0  0  0  0  0  0  0  0  0
   21.4567  -11.1628  -16.7814 N   0  0  0  0  0  0  0  0  0  0  0  0
   21.3714  -10.3221  -15.6016 C   0  0  1  0  0  0  0  0  0  0  0  0
   22.7547  -10.0648  -15.0255 C   0  0  0  0  0  0  0  0  0  0  0  0
   22.6637   -8.8234  -13.6906 S   0  0  0  0  0  0  0  0  0  0  0  0
   20.8157   -9.0143  -16.0061 C   0  0  0  0  0  0  0  0  0  0  0  0
   21.2569   -8.5370  -17.1136 O   0  0  0  0  0  0  0  0  0  0  0  0
   19.8517   -8.2902  -15.2536 N   0  0  0  0  0  0  0  0  0  0  0  0
   19.2067   -8.6407  -14.0276 C   0  0  0  0  0  0  0  0  0  0  0  0
   17.7953   -8.0727  -14.2130 C   0  0  0  0  0  0  0  0  0  0  0  0
   17.8537   -7.1835  -15.4312 C   0  0  0  0  0  0  0  0  0  0  0  0
   19.3420   -6.9961  -15.6284 C   0  0  1  0  0  0  0  0  0  0  0  0
   19.7800   -5.9099  -14.7110 C   0  0  0  0  0  0  0  0  0  0  0  0
   20.5254   -6.0768  -13.7140 O   0  0  0  0  0  0  0  0  0  0  0  0
   19.3524   -4.6105  -14.9463 O   0  0  0  0  0  0  0  0  0  0  0  0
  2  1  1  1
  2  3  1  0
  4  3  1  0
  5  4  1  0
  6  7  1  0
  6  5  1  0
  8 10  1  0
  8  2  1  0
  9  8  2  0
 11 10  1  0
 12 13  1  0
 11 12  1  6
 14 11  1  0
 14 15  2  0
 16 14  1  0
 17 18  1  0
 17 16  1  0
 18 19  1  0
 20 16  1  0
 20 19  1  0
 20 21  1  1
 22 21  2  0
 23 21  1  0
M  END
$$$$
