KCP.pdb
     RDKit          3D

 23 23  0  0  1  0  0  0  0  0999 V2000
   20.7585  -21.2539  -12.6420 N   0  0  0  0  0  0  0  0  0  0  0  0
   21.1978  -20.4193  -13.7491 C   0  0  1  0  0  0  0  0  0  0  0  0
   20.3331  -19.2101  -13.8684 C   0  0  0  0  0  0  0  0  0  0  0  0
   19.0862  -19.2489  -14.6207 C   0  0  0  0  0  0  0  0  0  0  0  0
   18.3808  -20.5005  -14.9472 C   0  0  0  0  0  0  0  0  0  0  0  0
   17.2043  -20.4837  -15.8392 C   0  0  0  0  0  0  0  0  0  0  0  0
   16.7938  -21.8788  -16.1348 N   0  0  0  0  0  0  0  0  0  0  0  0
   22.5929  -19.9058  -13.4525 C   0  0  0  0  0  0  0  0  0  0  0  0
   22.9352  -18.7563  -13.8199 O   0  0  0  0  0  0  0  0  0  0  0  0
   23.5579  -20.6765  -12.7632 N   0  0  0  0  0  0  0  0  0  0  0  0
   24.9642  -20.3222  -12.7112 C   0  0  1  0  0  0  0  0  0  0  0  0
   25.6723  -21.0981  -11.6121 C   0  0  0  0  0  0  0  0  0  0  0  0
   24.7566  -20.9480  -10.0403 S   0  0  0  0  0  0  0  0  0  0  0  0
   25.5862  -20.7132  -13.9930 C   0  0  0  0  0  0  0  0  0  0  0  0
   24.9011  -21.5142  -14.7263 O   0  0  0  0  0  0  0  0  0  0  0  0
   26.8589  -20.2589  -14.4332 N   0  0  0  0  0  0  0  0  0  0  0  0
   27.8869  -19.5886  -13.7012 C   0  0  0  0  0  0  0  0  0  0  0  0
   28.4648  -18.6197  -14.7386 C   0  0  0  0  0  0  0  0  0  0  0  0
   27.8943  -19.0377  -16.0720 C   0  0  0  0  0  0  0  0  0  0  0  0
   27.3520  -20.4191  -15.7771 C   0  0  1  0  0  0  0  0  0  0  0  0
   28.4892  -21.3737  -15.8700 C   0  0  0  0  0  0  0  0  0  0  0  0
   29.0474  -21.9149  -14.8835 O   0  0  0  0  0  0  0  0  0  0  0  0
   28.9915  -21.7101  -17.1195 O   0  0  0  0  0  0  0  0  0  0  0  0
  2  1  1  1
  2  3  1  0
  4  3  1  0
  5  4  1  0
  6  7  1  0
  6  5  1  0
  8 10  1  0
  8  2  1  0
  9  8  2  0
 11 10  1  0
 12 13  1  0
 11 12  1  1
 14 11  1  0
 14 15  2  0
 16 14  1  0
 17 18  1  0
 17 16  1  0
 18 19  1  0
 20 16  1  0
 20 19  1  0
 20 21  1  1
 22 21  2  0
 23 21  1  0
M  END
$$$$
