KCP.pdb
     RDKit          3D

 23 23  0  0  1  0  0  0  0  0999 V2000
   26.6866  -19.9363  -12.5440 N   0  0  0  0  0  0  0  0  0  0  0  0
   26.0014  -20.2355  -11.2965 C   0  0  1  0  0  0  0  0  0  0  0  0
   25.6060  -21.6726  -11.2480 C   0  0  0  0  0  0  0  0  0  0  0  0
   24.2277  -22.0814  -11.4834 C   0  0  0  0  0  0  0  0  0  0  0  0
   23.2221  -21.2033  -12.1065 C   0  0  0  0  0  0  0  0  0  0  0  0
   22.7621  -21.4566  -13.4864 C   0  0  0  0  0  0  0  0  0  0  0  0
   21.3802  -21.9964  -13.4508 N   0  0  0  0  0  0  0  0  0  0  0  0
   26.9664  -20.0301  -10.1456 C   0  0  0  0  0  0  0  0  0  0  0  0
   28.1313  -20.4913  -10.2071 O   0  0  0  0  0  0  0  0  0  0  0  0
   26.6129  -19.3253   -8.9715 N   0  0  0  0  0  0  0  0  0  0  0  0
   27.5730  -18.9665   -7.9441 C   0  0  1  0  0  0  0  0  0  0  0  0
   27.0933  -17.7543   -7.1618 C   0  0  0  0  0  0  0  0  0  0  0  0
   28.1166  -17.5186   -5.6690 S   0  0  0  0  0  0  0  0  0  0  0  0
   27.6711  -20.0913   -6.9912 C   0  0  0  0  0  0  0  0  0  0  0  0
   26.7050  -20.9367   -7.0218 O   0  0  0  0  0  0  0  0  0  0  0  0
   28.7456  -20.2722   -6.0788 N   0  0  0  0  0  0  0  0  0  0  0  0
   29.8675  -19.4265   -5.8179 C   0  0  0  0  0  0  0  0  0  0  0  0
   30.9952  -20.4308   -5.5561 C   0  0  0  0  0  0  0  0  0  0  0  0
   30.3344  -21.7794   -5.4058 C   0  0  0  0  0  0  0  0  0  0  0  0
   28.8805  -21.4109   -5.2069 C   0  0  1  0  0  0  0  0  0  0  0  0
   28.6997  -21.0687   -3.7704 C   0  0  0  0  0  0  0  0  0  0  0  0
   28.7360  -21.9003   -2.8299 O   0  0  0  0  0  0  0  0  0  0  0  0
   28.4736  -19.7469   -3.4118 O   0  0  0  0  0  0  0  0  0  0  0  0
  2  1  1  6
  2  3  1  0
  4  3  1  0
  5  4  1  0
  6  7  1  0
  6  5  1  0
  8 10  1  0
  8  2  1  0
  9  8  2  0
 11 10  1  0
 12 13  1  0
 11 12  1  1
 14 11  1  0
 14 15  2  0
 16 14  1  0
 17 18  1  0
 17 16  1  0
 18 19  1  0
 20 16  1  0
 20 19  1  0
 20 21  1  1
 22 21  2  0
 23 21  1  0
M  END
$$$$
