GCS.pdb
     RDKit          3D

 17 16  0  0  1  0  0  0  0  0999 V2000
   14.0689  -11.7206  -11.2329 N   0  0  0  0  0  0  0  0  0  0  0  0
   14.8637  -11.1558  -10.1712 C   0  0  0  0  0  0  0  0  0  0  0  0
   15.0698   -9.7065  -10.4914 C   0  0  0  0  0  0  0  0  0  0  0  0
   14.7077   -9.2070  -11.5960 O   0  0  0  0  0  0  0  0  0  0  0  0
   15.6840   -8.8143   -9.5699 N   0  0  0  0  0  0  0  0  0  0  0  0
   15.8442   -7.4097   -9.8902 C   0  0  1  0  0  0  0  0  0  0  0  0
   15.8488   -6.6694   -8.5468 C   0  0  0  0  0  0  0  0  0  0  0  0
   14.1485   -6.7661   -7.9120 S   0  0  0  0  0  0  0  0  0  0  0  0
   17.1423   -7.1855  -10.5292 C   0  0  0  0  0  0  0  0  0  0  0  0
   18.2034   -7.3421   -9.8546 O   0  0  0  0  0  0  0  0  0  0  0  0
   17.6808   -7.4749  -14.4011 O   0  0  0  0  0  0  0  0  0  0  0  0
   18.8274   -7.4503  -13.6140 C   0  0  0  0  0  0  0  0  0  0  0  0
   18.6032   -6.4570  -12.4663 C   0  0  2  0  0  0  0  0  0  0  0  0
   17.3272   -6.7963  -11.8786 N   0  0  0  0  0  0  0  0  0  0  0  0
   18.6254   -5.0890  -13.0187 C   0  0  0  0  0  0  0  0  0  0  0  0
   19.7356   -4.6337  -13.3852 O   0  0  0  0  0  0  0  0  0  0  0  0
   17.5119   -4.2824  -13.1581 O   0  0  0  0  0  0  0  0  0  0  0  0
  1  2  1  0
  2  3  1  0
  3  4  2  0
  5  6  1  0
  5  3  1  0
  7  8  1  0
  6  7  1  1
  9 14  1  0
  9  6  1  0
 10  9  2  0
 12 11  1  0
 13 14  1  0
 13 12  1  6
 15 13  1  0
 16 15  2  0
 17 15  1  0
M  END
$$$$
