GCS.pdb
     RDKit          3D

 17 16  0  0  1  0  0  0  0  0999 V2000
   18.6782  -15.9288  -15.5635 N   0  0  0  0  0  0  0  0  0  0  0  0
   17.9565  -14.7695  -15.1017 C   0  0  0  0  0  0  0  0  0  0  0  0
   18.5092  -13.5815  -15.8290 C   0  0  0  0  0  0  0  0  0  0  0  0
   19.4540  -13.6879  -16.6637 O   0  0  0  0  0  0  0  0  0  0  0  0
   18.0007  -12.2701  -15.6194 N   0  0  0  0  0  0  0  0  0  0  0  0
   18.5064  -11.1465  -16.3831 C   0  0  1  0  0  0  0  0  0  0  0  0
   17.3049  -10.5880  -17.1560 C   0  0  0  0  0  0  0  0  0  0  0  0
   15.9499  -10.4523  -15.9524 S   0  0  0  0  0  0  0  0  0  0  0  0
   18.9830  -10.0986  -15.4784 C   0  0  0  0  0  0  0  0  0  0  0  0
   18.4997  -10.0180  -14.3100 O   0  0  0  0  0  0  0  0  0  0  0  0
   22.0647   -6.3850  -14.7906 O   0  0  0  0  0  0  0  0  0  0  0  0
   21.6618   -7.4704  -15.5617 C   0  0  0  0  0  0  0  0  0  0  0  0
   20.4272   -8.0988  -14.9020 C   0  0  2  0  0  0  0  0  0  0  0  0
   19.9686   -9.1335  -15.8006 N   0  0  0  0  0  0  0  0  0  0  0  0
   19.4180   -7.0428  -14.6936 C   0  0  0  0  0  0  0  0  0  0  0  0
   18.6685   -6.7635  -15.6603 O   0  0  0  0  0  0  0  0  0  0  0  0
   19.2453   -6.3464  -13.5125 O   0  0  0  0  0  0  0  0  0  0  0  0
  1  2  1  0
  2  3  1  0
  3  4  2  0
  5  6  1  0
  5  3  1  0
  7  8  1  0
  6  7  1  1
  9 14  1  0
  9  6  1  0
 10  9  2  0
 12 11  1  0
 13 14  1  0
 13 12  1  6
 15 13  1  0
 16 15  2  0
 17 15  1  0
M  END
$$$$
