GCS.pdb
     RDKit          3D

 17 16  0  0  1  0  0  0  0  0999 V2000
   21.2112  -12.1591  -18.8208 N   0  0  0  0  0  0  0  0  0  0  0  0
   21.7603  -10.8294  -18.9112 C   0  0  0  0  0  0  0  0  0  0  0  0
   21.5421  -10.1660  -17.5853 C   0  0  0  0  0  0  0  0  0  0  0  0
   20.3850  -10.0072  -17.0988 O   0  0  0  0  0  0  0  0  0  0  0  0
   22.6250   -9.6790  -16.8026 N   0  0  0  0  0  0  0  0  0  0  0  0
   22.3912   -9.0723  -15.5070 C   0  0  1  0  0  0  0  0  0  0  0  0
   23.6311   -9.3920  -14.6625 C   0  0  0  0  0  0  0  0  0  0  0  0
   23.3455  -11.0401  -13.9514 S   0  0  0  0  0  0  0  0  0  0  0  0
   22.3050   -7.6170  -15.6425 C   0  0  0  0  0  0  0  0  0  0  0  0
   23.1070   -7.0155  -16.4174 O   0  0  0  0  0  0  0  0  0  0  0  0
   19.6735   -3.6207  -14.7839 O   0  0  0  0  0  0  0  0  0  0  0  0
   19.8460   -4.9920  -14.6272 C   0  0  0  0  0  0  0  0  0  0  0  0
   21.2224   -5.3721  -15.1890 C   0  0  2  0  0  0  0  0  0  0  0  0
   21.3755   -6.7914  -14.9636 N   0  0  0  0  0  0  0  0  0  0  0  0
   22.2499   -4.5749  -14.4922 C   0  0  0  0  0  0  0  0  0  0  0  0
   22.6187   -4.9730  -13.3609 O   0  0  0  0  0  0  0  0  0  0  0  0
   22.8286   -3.4272  -14.9999 O   0  0  0  0  0  0  0  0  0  0  0  0
  1  2  1  0
  2  3  1  0
  3  4  2  0
  5  6  1  0
  5  3  1  0
  7  8  1  0
  6  7  1  1
  9 14  1  0
  9  6  1  0
 10  9  2  0
 12 11  1  0
 13 14  1  0
 13 12  1  1
 15 13  1  0
 16 15  2  0
 17 15  1  0
M  END
$$$$
