GCS.pdb
     RDKit          3D

 17 16  0  0  1  0  0  0  0  0999 V2000
   22.4691  -13.9025  -19.7803 N   0  0  0  0  0  0  0  0  0  0  0  0
   22.1438  -12.5174  -20.0116 C   0  0  0  0  0  0  0  0  0  0  0  0
   21.8737  -11.8939  -18.6760 C   0  0  0  0  0  0  0  0  0  0  0  0
   20.7178  -11.8882  -18.1616 O   0  0  0  0  0  0  0  0  0  0  0  0
   22.9031  -11.2748  -17.9149 N   0  0  0  0  0  0  0  0  0  0  0  0
   22.6134  -10.6625  -16.6333 C   0  0  1  0  0  0  0  0  0  0  0  0
   23.9235  -10.7127  -15.8370 C   0  0  0  0  0  0  0  0  0  0  0  0
   24.0346  -12.3936  -15.1546 S   0  0  0  0  0  0  0  0  0  0  0  0
   22.2561   -9.2548  -16.8190 C   0  0  0  0  0  0  0  0  0  0  0  0
   22.9583   -8.5304  -17.5855 O   0  0  0  0  0  0  0  0  0  0  0  0
   18.6932   -7.8144  -15.4879 O   0  0  0  0  0  0  0  0  0  0  0  0
   19.2725   -7.2022  -16.5944 C   0  0  0  0  0  0  0  0  0  0  0  0
   20.7963   -7.2243  -16.4151 C   0  0  2  0  0  0  0  0  0  0  0  0
   21.1600   -8.6062  -16.1990 N   0  0  0  0  0  0  0  0  0  0  0  0
   21.1464   -6.3619  -15.2704 C   0  0  0  0  0  0  0  0  0  0  0  0
   21.6204   -6.9207  -14.2518 O   0  0  0  0  0  0  0  0  0  0  0  0
   20.9878   -4.9892  -15.2464 O   0  0  0  0  0  0  0  0  0  0  0  0
  1  2  1  0
  2  3  1  0
  3  4  2  0
  5  6  1  0
  5  3  1  0
  7  8  1  0
  6  7  1  1
  9 14  1  0
  9  6  1  0
 10  9  2  0
 12 11  1  0
 13 14  1  0
 13 12  1  1
 15 13  1  0
 16 15  2  0
 17 15  1  0
M  END
$$$$
