GCS.pdb
     RDKit          3D

 17 16  0  0  1  0  0  0  0  0999 V2000
   18.8428  -11.4398  -18.7238 N   0  0  0  0  0  0  0  0  0  0  0  0
   18.1246  -10.3378  -18.1343 C   0  0  0  0  0  0  0  0  0  0  0  0
   18.9080   -9.8829  -16.9405 C   0  0  0  0  0  0  0  0  0  0  0  0
   18.3428   -9.5092  -15.8720 O   0  0  0  0  0  0  0  0  0  0  0  0
   20.3296   -9.8470  -16.9449 N   0  0  0  0  0  0  0  0  0  0  0  0
   21.0628   -9.3161  -15.8128 C   0  0  1  0  0  0  0  0  0  0  0  0
   22.4043  -10.0598  -15.7938 C   0  0  0  0  0  0  0  0  0  0  0  0
   23.2153   -9.5967  -14.2346 S   0  0  0  0  0  0  0  0  0  0  0  0
   21.3424   -7.8937  -16.0183 C   0  0  0  0  0  0  0  0  0  0  0  0
   21.8977   -7.5176  -17.0933 O   0  0  0  0  0  0  0  0  0  0  0  0
   19.2831   -5.0642  -14.1530 O   0  0  0  0  0  0  0  0  0  0  0  0
   19.9583   -4.7503  -15.3279 C   0  0  0  0  0  0  0  0  0  0  0  0
   21.3175   -5.4623  -15.3078 C   0  0  2  0  0  0  0  0  0  0  0  0
   21.0387   -6.8641  -15.0940 N   0  0  0  0  0  0  0  0  0  0  0  0
   22.1372   -4.8779  -14.2292 C   0  0  0  0  0  0  0  0  0  0  0  0
   22.3511   -5.5896  -13.2181 O   0  0  0  0  0  0  0  0  0  0  0  0
   22.6810   -3.6078  -14.2591 O   0  0  0  0  0  0  0  0  0  0  0  0
  1  2  1  0
  2  3  1  0
  3  4  2  0
  5  6  1  0
  5  3  1  0
  7  8  1  0
  6  7  1  6
  9 14  1  0
  9  6  1  0
 10  9  2  0
 12 11  1  0
 13 14  1  0
 13 12  1  1
 15 13  1  0
 16 15  2  0
 17 15  1  0
M  END
$$$$
