GCS.pdb
     RDKit          3D

 17 16  0  0  1  0  0  0  0  0999 V2000
   16.0365  -11.8272  -13.0620 N   0  0  0  0  0  0  0  0  0  0  0  0
   16.9167  -10.7067  -13.2800 C   0  0  0  0  0  0  0  0  0  0  0  0
   16.3270   -9.5306  -12.5625 C   0  0  0  0  0  0  0  0  0  0  0  0
   15.1821   -9.0760  -12.8508 O   0  0  0  0  0  0  0  0  0  0  0  0
   17.0237   -8.8621  -11.5183 N   0  0  0  0  0  0  0  0  0  0  0  0
   16.4320   -7.7266  -10.8389 C   0  0  1  0  0  0  0  0  0  0  0  0
   17.0565   -7.7018   -9.4381 C   0  0  0  0  0  0  0  0  0  0  0  0
   16.2585   -6.3286   -8.5545 S   0  0  0  0  0  0  0  0  0  0  0  0
   16.8064   -6.4846  -11.5179 C   0  0  0  0  0  0  0  0  0  0  0  0
   18.0307   -6.2343  -11.7270 O   0  0  0  0  0  0  0  0  0  0  0  0
   15.3848   -2.6545  -14.1249 O   0  0  0  0  0  0  0  0  0  0  0  0
   15.0627   -3.8394  -13.4714 C   0  0  0  0  0  0  0  0  0  0  0  0
   16.2752   -4.2755  -12.6383 C   0  0  2  0  0  0  0  0  0  0  0  0
   15.8942   -5.5034  -11.9782 N   0  0  0  0  0  0  0  0  0  0  0  0
   16.6007   -3.1982  -11.6842 C   0  0  0  0  0  0  0  0  0  0  0  0
   17.4606   -2.3557  -12.0381 O   0  0  0  0  0  0  0  0  0  0  0  0
   16.0252   -3.0571  -10.4358 O   0  0  0  0  0  0  0  0  0  0  0  0
  1  2  1  0
  2  3  1  0
  3  4  2  0
  5  6  1  0
  5  3  1  0
  7  8  1  0
  6  7  1  1
  9 14  1  0
  9  6  1  0
 10  9  2  0
 12 11  1  0
 13 14  1  0
 13 12  1  6
 15 13  1  0
 16 15  2  0
 17 15  1  0
M  END
$$$$
