GCS.pdb
     RDKit          3D

 17 16  0  0  1  0  0  0  0  0999 V2000
   20.6583  -13.1448  -18.3064 N   0  0  0  0  0  0  0  0  0  0  0  0
   21.5622  -12.1273  -18.7814 C   0  0  0  0  0  0  0  0  0  0  0  0
   22.1326  -11.4406  -17.5778 C   0  0  0  0  0  0  0  0  0  0  0  0
   21.5905  -11.5278  -16.4380 O   0  0  0  0  0  0  0  0  0  0  0  0
   23.3147  -10.6536  -17.6527 N   0  0  0  0  0  0  0  0  0  0  0  0
   23.7888   -9.9138  -16.4999 C   0  0  1  0  0  0  0  0  0  0  0  0
   25.3179   -9.8849  -16.6180 C   0  0  0  0  0  0  0  0  0  0  0  0
   25.9234   -9.0496  -15.1217 S   0  0  0  0  0  0  0  0  0  0  0  0
   23.3092   -8.5317  -16.5583 C   0  0  0  0  0  0  0  0  0  0  0  0
   23.4317   -7.8755  -17.6352 O   0  0  0  0  0  0  0  0  0  0  0  0
   20.2889   -5.2563  -14.7735 O   0  0  0  0  0  0  0  0  0  0  0  0
   20.9088   -6.4960  -14.6576 C   0  0  0  0  0  0  0  0  0  0  0  0
   22.1329   -6.5114  -15.5827 C   0  0  2  0  0  0  0  0  0  0  0  0
   22.6998   -7.8371  -15.4846 N   0  0  0  0  0  0  0  0  0  0  0  0
   23.0697   -5.4616  -15.1386 C   0  0  0  0  0  0  0  0  0  0  0  0
   23.8822   -5.7611  -14.2306 O   0  0  0  0  0  0  0  0  0  0  0  0
   23.1107   -4.1796  -15.6531 O   0  0  0  0  0  0  0  0  0  0  0  0
  1  2  1  0
  2  3  1  0
  3  4  2  0
  5  6  1  0
  5  3  1  0
  7  8  1  0
  6  7  1  6
  9 14  1  0
  9  6  1  0
 10  9  2  0
 12 11  1  0
 13 14  1  0
 13 12  1  1
 15 13  1  0
 16 15  2  0
 17 15  1  0
M  END
$$$$
