GCS.pdb
     RDKit          3D

 17 16  0  0  1  0  0  0  0  0999 V2000
   19.9580  -13.8896  -17.5549 N   0  0  0  0  0  0  0  0  0  0  0  0
   20.1262  -12.5354  -18.0194 C   0  0  0  0  0  0  0  0  0  0  0  0
   20.3452  -11.6742  -16.8128 C   0  0  0  0  0  0  0  0  0  0  0  0
   19.8496  -11.9636  -15.6852 O   0  0  0  0  0  0  0  0  0  0  0  0
   21.1225  -10.4847  -16.8707 N   0  0  0  0  0  0  0  0  0  0  0  0
   21.2916   -9.6500  -15.6978 C   0  0  1  0  0  0  0  0  0  0  0  0
   22.8044   -9.5564  -15.4622 C   0  0  0  0  0  0  0  0  0  0  0  0
   23.0194   -8.5662  -13.9534 S   0  0  0  0  0  0  0  0  0  0  0  0
   20.7962   -8.2989  -15.9676 C   0  0  0  0  0  0  0  0  0  0  0  0
   21.1456   -7.7092  -17.0332 O   0  0  0  0  0  0  0  0  0  0  0  0
   17.9970   -4.5910  -14.5000 O   0  0  0  0  0  0  0  0  0  0  0  0
   18.4924   -5.8684  -14.2595 C   0  0  0  0  0  0  0  0  0  0  0  0
   19.5228   -6.1986  -15.3474 C   0  0  2  0  0  0  0  0  0  0  0  0
   19.9325   -7.5653  -15.1175 N   0  0  0  0  0  0  0  0  0  0  0  0
   20.6439   -5.2460  -15.2364 C   0  0  0  0  0  0  0  0  0  0  0  0
   21.5616   -5.5280  -14.4285 O   0  0  0  0  0  0  0  0  0  0  0  0
   20.7490   -4.0723  -15.9583 O   0  0  0  0  0  0  0  0  0  0  0  0
  1  2  1  0
  2  3  1  0
  3  4  2  0
  5  6  1  0
  5  3  1  0
  7  8  1  0
  6  7  1  6
  9 14  1  0
  9  6  1  0
 10  9  2  0
 12 11  1  0
 13 14  1  0
 13 12  1  1
 15 13  1  0
 16 15  2  0
 17 15  1  0
M  END
$$$$
