GCS.pdb
     RDKit          3D

 17 16  0  0  1  0  0  0  0  0999 V2000
   19.9441  -12.5452  -17.8280 N   0  0  0  0  0  0  0  0  0  0  0  0
   19.5794  -11.2461  -18.3349 C   0  0  0  0  0  0  0  0  0  0  0  0
   19.3745  -10.3478  -17.1531 C   0  0  0  0  0  0  0  0  0  0  0  0
   18.3084  -10.3703  -16.4722 O   0  0  0  0  0  0  0  0  0  0  0  0
   20.3685   -9.4214  -16.7334 N   0  0  0  0  0  0  0  0  0  0  0  0
   20.1238   -8.5213  -15.6238 C   0  0  1  0  0  0  0  0  0  0  0  0
   21.4258   -8.4882  -14.8135 C   0  0  0  0  0  0  0  0  0  0  0  0
   21.0543   -7.5523  -13.3004 S   0  0  0  0  0  0  0  0  0  0  0  0
   19.8720   -7.1676  -16.1217 C   0  0  0  0  0  0  0  0  0  0  0  0
   20.6085   -6.6944  -17.0376 O   0  0  0  0  0  0  0  0  0  0  0  0
   16.7788   -3.4293  -16.3048 O   0  0  0  0  0  0  0  0  0  0  0  0
   17.1003   -4.6902  -15.8135 C   0  0  0  0  0  0  0  0  0  0  0  0
   18.5443   -5.0125  -16.2204 C   0  0  2  0  0  0  0  0  0  0  0  0
   18.8454   -6.3091  -15.6575 N   0  0  0  0  0  0  0  0  0  0  0  0
   19.4266   -3.9511  -15.6990 C   0  0  0  0  0  0  0  0  0  0  0  0
   19.9228   -4.1226  -14.5594 O   0  0  0  0  0  0  0  0  0  0  0  0
   19.7400   -2.7890  -16.3782 O   0  0  0  0  0  0  0  0  0  0  0  0
  1  2  1  0
  2  3  1  0
  3  4  2  0
  5  6  1  0
  5  3  1  0
  7  8  1  0
  6  7  1  1
  9 14  1  0
  9  6  1  0
 10  9  2  0
 12 11  1  0
 13 14  1  0
 13 12  1  1
 15 13  1  0
 16 15  2  0
 17 15  1  0
M  END
$$$$
