GCS.pdb
     RDKit          3D

 17 16  0  0  1  0  0  0  0  0999 V2000
   25.3542  -13.8805  -17.8411 N   0  0  0  0  0  0  0  0  0  0  0  0
   24.4947  -12.9107  -18.4725 C   0  0  0  0  0  0  0  0  0  0  0  0
   24.3705  -11.7481  -17.5352 C   0  0  0  0  0  0  0  0  0  0  0  0
   23.5204  -11.7317  -16.5983 O   0  0  0  0  0  0  0  0  0  0  0  0
   25.2022  -10.6002  -17.6490 N   0  0  0  0  0  0  0  0  0  0  0  0
   25.0615   -9.4870  -16.7313 C   0  0  1  0  0  0  0  0  0  0  0  0
   26.4849   -9.1205  -16.2926 C   0  0  0  0  0  0  0  0  0  0  0  0
   27.0189  -10.4388  -15.1611 S   0  0  0  0  0  0  0  0  0  0  0  0
   24.4961   -8.3302  -17.4283 C   0  0  0  0  0  0  0  0  0  0  0  0
   24.7413   -8.1652  -18.6604 O   0  0  0  0  0  0  0  0  0  0  0  0
   22.1791   -7.1028  -19.6681 O   0  0  0  0  0  0  0  0  0  0  0  0
   21.8323   -7.0555  -18.3219 C   0  0  0  0  0  0  0  0  0  0  0  0
   22.9494   -6.3284  -17.5616 C   0  0  2  0  0  0  0  0  0  0  0  0
   23.6720   -7.3448  -16.8313 N   0  0  0  0  0  0  0  0  0  0  0  0
   22.3350   -5.3232  -16.6734 C   0  0  0  0  0  0  0  0  0  0  0  0
   22.1086   -5.6640  -15.4873 O   0  0  0  0  0  0  0  0  0  0  0  0
   21.9951   -4.0404  -17.0592 O   0  0  0  0  0  0  0  0  0  0  0  0
  1  2  1  0
  2  3  1  0
  3  4  2  0
  5  6  1  0
  5  3  1  0
  7  8  1  0
  6  7  1  6
  9 14  1  0
  9  6  1  0
 10  9  2  0
 12 11  1  0
 13 14  1  0
 13 12  1  1
 15 13  1  0
 16 15  2  0
 17 15  1  0
M  END
$$$$
