KHE.pdb
     RDKit          3D

 29 29  0  0  1  0  0  0  0  0999 V2000
   28.8433  -34.0383   -5.2513 N   0  0  0  0  0  0  0  0  0  0  0  0
   29.3783  -34.5912   -4.0212 C   0  0  1  0  0  0  0  0  0  0  0  0
   30.8907  -34.6712   -4.0730 C   0  0  0  0  0  0  0  0  0  0  0  0
   31.2334  -35.5983   -5.2264 C   0  0  0  0  0  0  0  0  0  0  0  0
   32.1971  -36.6935   -4.7947 C   0  0  0  0  0  0  0  0  0  0  0  0
   32.4725  -37.6428   -5.9433 C   0  0  0  0  0  0  0  0  0  0  0  0
   33.4675  -38.6035   -5.4975 N   0  0  0  0  0  0  0  0  0  0  0  0
   28.9173  -33.8138   -2.8390 C   0  0  0  0  0  0  0  0  0  0  0  0
   29.3825  -32.6752   -2.6285 O   0  0  0  0  0  0  0  0  0  0  0  0
   27.9496  -34.3686   -1.9557 N   0  0  0  0  0  0  0  0  0  0  0  0
   27.5133  -33.6683   -0.7350 C   0  0  1  0  0  0  0  0  0  0  0  0
   26.0420  -33.7566   -0.5762 C   0  0  0  0  0  0  0  0  0  0  0  0
   25.4792  -33.1012    0.6192 C   0  0  0  0  0  0  0  0  0  0  0  0
   25.3239  -31.7390    0.8388 C   0  0  0  0  0  0  0  0  0  0  0  0
   24.7772  -31.6164    2.0562 N   0  0  0  0  0  0  0  0  0  0  0  0
   24.5818  -32.8295    2.6109 C   0  0  0  0  0  0  0  0  0  0  0  0
   25.0184  -33.7133    1.7125 N   0  0  0  0  0  0  0  0  0  0  0  0
   28.2851  -34.2357    0.4193 C   0  0  0  0  0  0  0  0  0  0  0  0
   28.5374  -35.4447    0.5410 O   0  0  0  0  0  0  0  0  0  0  0  0
   28.7723  -33.3819    1.4535 N   0  0  0  0  0  0  0  0  0  0  0  0
   29.5114  -33.8792    2.6109 C   0  0  1  0  0  0  0  0  0  0  0  0
   30.7121  -33.0374    2.8805 C   0  0  0  0  0  0  0  0  0  0  0  0
   31.5353  -33.5806    4.0034 C   0  0  0  0  0  0  0  0  0  0  0  0
   32.7219  -32.6823    4.2690 C   0  0  0  0  0  0  0  0  0  0  0  0
   33.1286  -31.9253    3.3670 O   0  0  0  0  0  0  0  0  0  0  0  0
   28.6370  -33.9444    3.7973 C   0  0  0  0  0  0  0  0  0  0  0  0
   27.5215  -33.1466    3.9586 O   0  0  0  0  0  0  0  0  0  0  0  0
   33.3725  -32.6748    5.4864 O   0  0  0  0  0  0  0  0  0  0  0  0
   28.9057  -34.7657    4.7338 O   0  0  0  0  0  0  0  0  0  0  0  0
  2  1  1  6
  3  2  1  0
  4  5  1  0
  4  3  1  0
  6  7  1  0
  6  5  1  0
  8  2  1  0
  9  8  2  0
 10  8  1  0
 11 10  1  0
 12 13  1  0
 11 12  1  1
 13 14  2  0
 14 15  1  0
 16 15  1  0
 17 13  1  0
 17 16  2  0
 18 11  1  0
 18 19  2  0
 20 18  1  0
 21 20  1  0
 21 22  1  1
 23 22  1  0
 24 23  1  0
 24 25  2  0
 26 21  1  0
 27 26  1  0
 28 24  1  0
 29 26  2  0
M  END
$$$$
