KHE.pdb
     RDKit          3D

 29 29  0  0  1  0  0  0  0  0999 V2000
   19.5534  -17.1040  -18.9056 N   0  0  0  0  0  0  0  0  0  0  0  0
   19.9302  -15.7033  -18.9420 C   0  0  1  0  0  0  0  0  0  0  0  0
   19.7790  -15.1352  -20.3387 C   0  0  0  0  0  0  0  0  0  0  0  0
   18.5958  -15.8499  -20.9683 C   0  0  0  0  0  0  0  0  0  0  0  0
   18.2686  -15.2840  -22.3421 C   0  0  0  0  0  0  0  0  0  0  0  0
   17.0440  -15.9646  -22.9198 C   0  0  0  0  0  0  0  0  0  0  0  0
   16.8019  -15.4008  -24.2371 N   0  0  0  0  0  0  0  0  0  0  0  0
   19.1531  -14.9131  -17.9489 C   0  0  0  0  0  0  0  0  0  0  0  0
   17.9100  -15.0168  -17.9133 O   0  0  0  0  0  0  0  0  0  0  0  0
   19.8274  -14.0458  -17.0448 N   0  0  0  0  0  0  0  0  0  0  0  0
   19.1114  -13.3047  -15.9917 C   0  0  1  0  0  0  0  0  0  0  0  0
   19.5240  -13.7729  -14.6470 C   0  0  0  0  0  0  0  0  0  0  0  0
   18.9484  -15.0564  -14.2034 C   0  0  0  0  0  0  0  0  0  0  0  0
   17.9677  -15.8050  -14.8404 C   0  0  0  0  0  0  0  0  0  0  0  0
   17.7633  -16.8842  -14.0726 N   0  0  0  0  0  0  0  0  0  0  0  0
   18.5639  -16.8514  -12.9884 C   0  0  0  0  0  0  0  0  0  0  0  0
   19.2737  -15.7274  -13.0961 N   0  0  0  0  0  0  0  0  0  0  0  0
   19.3424  -11.8409  -16.2239 C   0  0  0  0  0  0  0  0  0  0  0  0
   20.4326  -11.3729  -16.5879 O   0  0  0  0  0  0  0  0  0  0  0  0
   18.2861  -10.9018  -16.0279 N   0  0  0  0  0  0  0  0  0  0  0  0
   18.4472   -9.4677  -16.2530 C   0  0  1  0  0  0  0  0  0  0  0  0
   17.1231   -8.7958  -16.3883 C   0  0  0  0  0  0  0  0  0  0  0  0
   17.2635   -7.3422  -16.7062 C   0  0  0  0  0  0  0  0  0  0  0  0
   15.9044   -6.6833  -16.7697 C   0  0  0  0  0  0  0  0  0  0  0  0
   15.8055   -5.4636  -16.5357 O   0  0  0  0  0  0  0  0  0  0  0  0
   19.2391   -8.8569  -15.1684 C   0  0  0  0  0  0  0  0  0  0  0  0
   19.9195   -7.6636  -15.3094 O   0  0  0  0  0  0  0  0  0  0  0  0
   14.7631   -7.3949  -17.0804 O   0  0  0  0  0  0  0  0  0  0  0  0
   19.3176   -9.4419  -14.0392 O   0  0  0  0  0  0  0  0  0  0  0  0
  2  1  1  6
  3  2  1  0
  4  5  1  0
  4  3  1  0
  6  7  1  0
  6  5  1  0
  8  2  1  0
  9  8  2  0
 10  8  1  0
 11 10  1  0
 12 13  1  0
 11 12  1  1
 13 14  2  0
 14 15  1  0
 16 15  1  0
 17 13  1  0
 17 16  2  0
 18 11  1  0
 18 19  2  0
 20 18  1  0
 21 20  1  0
 21 22  1  1
 23 22  1  0
 24 23  1  0
 24 25  2  0
 26 21  1  0
 27 26  1  0
 28 24  1  0
 29 26  2  0
M  END
$$$$
