KHE.pdb
     RDKit          3D

 29 29  0  0  1  0  0  0  0  0999 V2000
   19.7439  -15.5736  -16.4677 N   0  0  0  0  0  0  0  0  0  0  0  0
   20.7996  -14.6126  -16.2092 C   0  0  1  0  0  0  0  0  0  0  0  0
   22.1165  -15.0797  -16.7959 C   0  0  0  0  0  0  0  0  0  0  0  0
   22.0055  -16.5859  -16.9575 C   0  0  0  0  0  0  0  0  0  0  0  0
   22.1502  -17.3025  -15.6233 C   0  0  0  0  0  0  0  0  0  0  0  0
   22.0232  -18.8012  -15.8079 C   0  0  0  0  0  0  0  0  0  0  0  0
   22.1358  -19.4217  -14.4987 N   0  0  0  0  0  0  0  0  0  0  0  0
   20.4306  -13.2621  -16.7139 C   0  0  0  0  0  0  0  0  0  0  0  0
   20.6120  -12.9809  -17.9160 O   0  0  0  0  0  0  0  0  0  0  0  0
   19.8725  -12.2991  -15.8276 N   0  0  0  0  0  0  0  0  0  0  0  0
   19.4196  -10.9771  -16.2946 C   0  0  1  0  0  0  0  0  0  0  0  0
   17.9786  -10.7833  -16.0056 C   0  0  0  0  0  0  0  0  0  0  0  0
   17.4381   -9.4388  -16.2806 C   0  0  0  0  0  0  0  0  0  0  0  0
   17.1067   -8.4584  -15.3549 C   0  0  0  0  0  0  0  0  0  0  0  0
   16.6555   -7.4134  -16.0623 N   0  0  0  0  0  0  0  0  0  0  0  0
   16.6866   -7.6872  -17.3820 C   0  0  0  0  0  0  0  0  0  0  0  0
   17.1679   -8.9269  -17.4836 N   0  0  0  0  0  0  0  0  0  0  0  0
   20.3096   -9.9420  -15.6728 C   0  0  0  0  0  0  0  0  0  0  0  0
   20.7707  -10.0413  -14.5250 O   0  0  0  0  0  0  0  0  0  0  0  0
   20.6699   -8.7675  -16.3984 N   0  0  0  0  0  0  0  0  0  0  0  0
   21.6129   -7.7764  -15.8866 C   0  0  1  0  0  0  0  0  0  0  0  0
   22.4336   -7.1997  -16.9898 C   0  0  0  0  0  0  0  0  0  0  0  0
   23.4591   -6.2391  -16.4807 C   0  0  0  0  0  0  0  0  0  0  0  0
   24.2900   -5.7012  -17.6233 C   0  0  0  0  0  0  0  0  0  0  0  0
   24.1393   -6.1771  -18.7647 O   0  0  0  0  0  0  0  0  0  0  0  0
   20.9021   -6.7148  -15.1490 C   0  0  0  0  0  0  0  0  0  0  0  0
   21.4546   -6.0376  -14.0799 O   0  0  0  0  0  0  0  0  0  0  0  0
   25.2158   -4.6938  -17.4403 O   0  0  0  0  0  0  0  0  0  0  0  0
   19.7185   -6.3921  -15.4936 O   0  0  0  0  0  0  0  0  0  0  0  0
  2  1  1  6
  3  2  1  0
  4  5  1  0
  4  3  1  0
  6  7  1  0
  6  5  1  0
  8  2  1  0
  9  8  2  0
 10  8  1  0
 11 10  1  0
 12 13  1  0
 11 12  1  1
 13 14  2  0
 14 15  1  0
 16 15  1  0
 17 13  1  0
 17 16  2  0
 18 11  1  0
 18 19  2  0
 20 18  1  0
 21 20  1  0
 21 22  1  6
 23 22  1  0
 24 23  1  0
 24 25  2  0
 26 21  1  0
 27 26  1  0
 28 24  1  0
 29 26  2  0
M  END
$$$$
