KHE.pdb
     RDKit          3D

 29 29  0  0  1  0  0  0  0  0999 V2000
   26.7993  -21.8926  -17.3668 N   0  0  0  0  0  0  0  0  0  0  0  0
   27.3635  -21.0081  -16.3647 C   0  0  1  0  0  0  0  0  0  0  0  0
   28.6684  -20.4048  -16.8438 C   0  0  0  0  0  0  0  0  0  0  0  0
   29.2603  -21.3915  -17.8355 C   0  0  0  0  0  0  0  0  0  0  0  0
   29.8433  -22.6078  -17.1320 C   0  0  0  0  0  0  0  0  0  0  0  0
   30.6211  -23.4657  -18.1096 C   0  0  0  0  0  0  0  0  0  0  0  0
   31.1372  -24.6127  -17.3817 N   0  0  0  0  0  0  0  0  0  0  0  0
   26.3906  -19.9525  -15.9724 C   0  0  0  0  0  0  0  0  0  0  0  0
   26.7234  -19.0838  -15.1407 O   0  0  0  0  0  0  0  0  0  0  0  0
   25.0886  -19.9361  -16.5458 N   0  0  0  0  0  0  0  0  0  0  0  0
   24.0472  -18.9971  -16.0934 C   0  0  1  0  0  0  0  0  0  0  0  0
   23.8851  -17.8862  -17.0616 C   0  0  0  0  0  0  0  0  0  0  0  0
   22.7760  -16.9512  -16.7947 C   0  0  0  0  0  0  0  0  0  0  0  0
   21.6361  -16.7551  -17.5627 C   0  0  0  0  0  0  0  0  0  0  0  0
   20.9197  -15.8124  -16.9348 N   0  0  0  0  0  0  0  0  0  0  0  0
   21.5505  -15.4075  -15.8142 C   0  0  0  0  0  0  0  0  0  0  0  0
   22.6772  -16.1189  -15.7556 N   0  0  0  0  0  0  0  0  0  0  0  0
   22.7928  -19.7844  -15.8548 C   0  0  0  0  0  0  0  0  0  0  0  0
   22.4180  -20.7082  -16.5937 O   0  0  0  0  0  0  0  0  0  0  0  0
   21.9567  -19.4916  -14.7364 N   0  0  0  0  0  0  0  0  0  0  0  0
   20.6813  -20.1636  -14.5015 C   0  0  1  0  0  0  0  0  0  0  0  0
   20.5249  -20.5262  -13.0637 C   0  0  0  0  0  0  0  0  0  0  0  0
   19.2026  -21.1664  -12.7890 C   0  0  0  0  0  0  0  0  0  0  0  0
   19.0839  -21.5222  -11.3246 C   0  0  0  0  0  0  0  0  0  0  0  0
   20.0293  -21.2649  -10.5551 O   0  0  0  0  0  0  0  0  0  0  0  0
   19.5585  -19.3221  -14.9574 C   0  0  0  0  0  0  0  0  0  0  0  0
   18.3562  -19.8397  -15.3968 O   0  0  0  0  0  0  0  0  0  0  0  0
   17.9545  -22.1268  -10.8105 O   0  0  0  0  0  0  0  0  0  0  0  0
   19.6816  -18.0539  -14.9587 O   0  0  0  0  0  0  0  0  0  0  0  0
  2  1  1  6
  3  2  1  0
  4  5  1  0
  4  3  1  0
  6  7  1  0
  6  5  1  0
  8  2  1  0
  9  8  2  0
 10  8  1  0
 11 10  1  0
 12 13  1  0
 11 12  1  6
 13 14  2  0
 14 15  1  0
 16 15  1  0
 17 13  1  0
 17 16  2  0
 18 11  1  0
 18 19  2  0
 20 18  1  0
 21 20  1  0
 21 22  1  1
 23 22  1  0
 24 23  1  0
 24 25  2  0
 26 21  1  0
 27 26  1  0
 28 24  1  0
 29 26  2  0
M  END
$$$$
