KHE.pdb
     RDKit          3D

 29 29  0  0  1  0  0  0  0  0999 V2000
   23.4357  -11.6612  -18.9923 N   0  0  0  0  0  0  0  0  0  0  0  0
   22.5271  -11.0547  -19.9471 C   0  0  1  0  0  0  0  0  0  0  0  0
   22.6509  -11.7097  -21.3080 C   0  0  0  0  0  0  0  0  0  0  0  0
   24.1375  -11.8118  -21.6029 C   0  0  0  0  0  0  0  0  0  0  0  0
   24.3991  -12.5699  -22.8957 C   0  0  0  0  0  0  0  0  0  0  0  0
   25.8879  -12.7453  -23.1175 C   0  0  0  0  0  0  0  0  0  0  0  0
   26.3350  -13.8479  -22.2832 N   0  0  0  0  0  0  0  0  0  0  0  0
   21.1242  -11.0948  -19.4523 C   0  0  0  0  0  0  0  0  0  0  0  0
   20.2004  -10.6764  -20.1794 O   0  0  0  0  0  0  0  0  0  0  0  0
   20.8410  -11.6099  -18.1566 N   0  0  0  0  0  0  0  0  0  0  0  0
   19.4623  -11.7550  -17.6576 C   0  0  1  0  0  0  0  0  0  0  0  0
   19.1864  -13.1613  -17.2780 C   0  0  0  0  0  0  0  0  0  0  0  0
   17.8780  -13.4169  -16.6469 C   0  0  0  0  0  0  0  0  0  0  0  0
   17.6085  -13.5526  -15.2917 C   0  0  0  0  0  0  0  0  0  0  0  0
   16.2909  -13.7771  -15.1932 N   0  0  0  0  0  0  0  0  0  0  0  0
   15.7208  -13.7893  -16.4148 C   0  0  0  0  0  0  0  0  0  0  0  0
   16.7119  -13.5669  -17.2792 N   0  0  0  0  0  0  0  0  0  0  0  0
   19.2748  -10.7745  -16.5380 C   0  0  0  0  0  0  0  0  0  0  0  0
   20.0626  -10.6706  -15.5848 O   0  0  0  0  0  0  0  0  0  0  0  0
   18.1488   -9.8982  -16.5248 N   0  0  0  0  0  0  0  0  0  0  0  0
   17.9038   -8.9369  -15.4527 C   0  0  1  0  0  0  0  0  0  0  0  0
   17.3158   -7.6762  -15.9892 C   0  0  0  0  0  0  0  0  0  0  0  0
   17.1052   -6.6566  -14.9169 C   0  0  0  0  0  0  0  0  0  0  0  0
   16.4976   -5.3999  -15.4971 C   0  0  0  0  0  0  0  0  0  0  0  0
   15.2957   -5.3978  -15.8248 O   0  0  0  0  0  0  0  0  0  0  0  0
   17.0334   -9.5245  -14.4165 C   0  0  0  0  0  0  0  0  0  0  0  0
   17.1620   -9.2400  -13.0714 O   0  0  0  0  0  0  0  0  0  0  0  0
   17.2372   -4.2482  -15.6762 O   0  0  0  0  0  0  0  0  0  0  0  0
   16.1140  -10.3397  -14.7538 O   0  0  0  0  0  0  0  0  0  0  0  0
  2  1  1  1
  3  2  1  0
  4  5  1  0
  4  3  1  0
  6  7  1  0
  6  5  1  0
  8  2  1  0
  9  8  2  0
 10  8  1  0
 11 10  1  0
 12 13  1  0
 11 12  1  1
 13 14  2  0
 14 15  1  0
 16 15  1  0
 17 13  1  0
 17 16  2  0
 18 11  1  0
 18 19  2  0
 20 18  1  0
 21 20  1  0
 21 22  1  6
 23 22  1  0
 24 23  1  0
 24 25  2  0
 26 21  1  0
 27 26  1  0
 28 24  1  0
 29 26  2  0
M  END
$$$$
