KHE.pdb
     RDKit          3D

 29 29  0  0  1  0  0  0  0  0999 V2000
   22.7946  -15.5753  -16.3746 N   0  0  0  0  0  0  0  0  0  0  0  0
   22.3378  -14.4044  -17.0994 C   0  0  1  0  0  0  0  0  0  0  0  0
   20.8566  -14.4973  -17.4054 C   0  0  0  0  0  0  0  0  0  0  0  0
   20.5297  -15.9773  -17.5053 C   0  0  0  0  0  0  0  0  0  0  0  0
   19.0716  -16.2029  -17.8763 C   0  0  0  0  0  0  0  0  0  0  0  0
   18.7654  -17.6851  -17.9525 C   0  0  0  0  0  0  0  0  0  0  0  0
   17.3356  -17.8334  -18.1650 N   0  0  0  0  0  0  0  0  0  0  0  0
   22.6604  -13.1551  -16.3578 C   0  0  0  0  0  0  0  0  0  0  0  0
   22.4541  -13.0956  -15.1286 O   0  0  0  0  0  0  0  0  0  0  0  0
   23.2027  -12.0365  -17.0498 N   0  0  0  0  0  0  0  0  0  0  0  0
   23.6571  -10.8259  -16.3436 C   0  0  1  0  0  0  0  0  0  0  0  0
   25.1126  -10.6209  -16.5357 C   0  0  0  0  0  0  0  0  0  0  0  0
   25.9930  -11.6614  -15.9720 C   0  0  0  0  0  0  0  0  0  0  0  0
   25.6123  -12.7996  -15.2738 C   0  0  0  0  0  0  0  0  0  0  0  0
   26.7458  -13.4412  -14.9581 N   0  0  0  0  0  0  0  0  0  0  0  0
   27.8163  -12.7653  -15.4214 C   0  0  0  0  0  0  0  0  0  0  0  0
   27.3263  -11.6869  -16.0343 N   0  0  0  0  0  0  0  0  0  0  0  0
   22.8136   -9.6778  -16.8133 C   0  0  0  0  0  0  0  0  0  0  0  0
   22.6480   -9.4000  -18.0114 O   0  0  0  0  0  0  0  0  0  0  0  0
   22.1504   -8.8348  -15.8723 N   0  0  0  0  0  0  0  0  0  0  0  0
   21.2397   -7.7643  -16.2697 C   0  0  1  0  0  0  0  0  0  0  0  0
   20.0430   -7.7232  -15.3814 C   0  0  0  0  0  0  0  0  0  0  0  0
   19.1128   -6.6120  -15.7471 C   0  0  0  0  0  0  0  0  0  0  0  0
   17.9675   -6.5385  -14.7632 C   0  0  0  0  0  0  0  0  0  0  0  0
   17.8708   -7.4046  -13.8729 O   0  0  0  0  0  0  0  0  0  0  0  0
   21.9366   -6.4640  -16.2747 C   0  0  0  0  0  0  0  0  0  0  0  0
   21.5721   -5.4145  -17.0947 O   0  0  0  0  0  0  0  0  0  0  0  0
   17.0201   -5.5362  -14.8208 O   0  0  0  0  0  0  0  0  0  0  0  0
   22.9282   -6.2775  -15.4965 O   0  0  0  0  0  0  0  0  0  0  0  0
  2  1  1  1
  3  2  1  0
  4  5  1  0
  4  3  1  0
  6  7  1  0
  6  5  1  0
  8  2  1  0
  9  8  2  0
 10  8  1  0
 11 10  1  0
 12 13  1  0
 11 12  1  6
 13 14  2  0
 14 15  1  0
 16 15  1  0
 17 13  1  0
 17 16  2  0
 18 11  1  0
 18 19  2  0
 20 18  1  0
 21 20  1  0
 21 22  1  1
 23 22  1  0
 24 23  1  0
 24 25  2  0
 26 21  1  0
 27 26  1  0
 28 24  1  0
 29 26  2  0
M  END
$$$$
