KHE.pdb
     RDKit          3D

 29 29  0  0  1  0  0  0  0  0999 V2000
   22.7755  -12.7330  -18.2767 N   0  0  0  0  0  0  0  0  0  0  0  0
   22.2869  -11.4634  -18.7811 C   0  0  1  0  0  0  0  0  0  0  0  0
   20.8987  -11.6101  -19.3708 C   0  0  0  0  0  0  0  0  0  0  0  0
   20.1054  -12.4642  -18.3970 C   0  0  0  0  0  0  0  0  0  0  0  0
   18.7272  -12.8021  -18.9456 C   0  0  0  0  0  0  0  0  0  0  0  0
   17.9214  -13.5746  -17.9207 C   0  0  0  0  0  0  0  0  0  0  0  0
   16.6423  -13.9111  -18.5225 N   0  0  0  0  0  0  0  0  0  0  0  0
   22.3179  -10.4181  -17.7223 C   0  0  0  0  0  0  0  0  0  0  0  0
   22.0032  -10.7149  -16.5518 O   0  0  0  0  0  0  0  0  0  0  0  0
   22.7063   -9.0883  -18.0462 N   0  0  0  0  0  0  0  0  0  0  0  0
   22.8718   -8.0493  -17.0147 C   0  0  1  0  0  0  0  0  0  0  0  0
   24.3078   -7.7632  -16.7831 C   0  0  0  0  0  0  0  0  0  0  0  0
   25.0869   -8.8383  -16.1408 C   0  0  0  0  0  0  0  0  0  0  0  0
   24.6033  -10.0241  -15.6044 C   0  0  0  0  0  0  0  0  0  0  0  0
   25.6701  -10.6831  -15.1314 N   0  0  0  0  0  0  0  0  0  0  0  0
   26.7963   -9.9729  -15.3430 C   0  0  0  0  0  0  0  0  0  0  0  0
   26.4094   -8.8553  -15.9594 N   0  0  0  0  0  0  0  0  0  0  0  0
   22.0733   -6.8521  -17.4382 C   0  0  0  0  0  0  0  0  0  0  0  0
   22.1343   -6.3608  -18.5761 O   0  0  0  0  0  0  0  0  0  0  0  0
   21.1873   -6.2121  -16.5209 N   0  0  0  0  0  0  0  0  0  0  0  0
   20.3352   -5.0863  -16.8948 C   0  0  1  0  0  0  0  0  0  0  0  0
   19.0765   -5.0801  -16.0958 C   0  0  0  0  0  0  0  0  0  0  0  0
   18.1567   -6.1894  -16.4924 C   0  0  0  0  0  0  0  0  0  0  0  0
   17.3687   -6.6731  -15.2965 C   0  0  0  0  0  0  0  0  0  0  0  0
   17.9517   -6.8409  -14.2084 O   0  0  0  0  0  0  0  0  0  0  0  0
   21.0617   -3.8114  -16.7426 C   0  0  0  0  0  0  0  0  0  0  0  0
   20.6149   -2.6187  -17.2760 O   0  0  0  0  0  0  0  0  0  0  0  0
   16.0158   -6.9364  -15.3730 O   0  0  0  0  0  0  0  0  0  0  0  0
   22.1590   -3.7848  -16.0953 O   0  0  0  0  0  0  0  0  0  0  0  0
  2  1  1  1
  3  2  1  0
  4  5  1  0
  4  3  1  0
  6  7  1  0
  6  5  1  0
  8  2  1  0
  9  8  2  0
 10  8  1  0
 11 10  1  0
 12 13  1  0
 11 12  1  6
 13 14  2  0
 14 15  1  0
 16 15  1  0
 17 13  1  0
 17 16  2  0
 18 11  1  0
 18 19  2  0
 20 18  1  0
 21 20  1  0
 21 22  1  1
 23 22  1  0
 24 23  1  0
 24 25  2  0
 26 21  1  0
 27 26  1  0
 28 24  1  0
 29 26  2  0
M  END
$$$$
