KHE.pdb
     RDKit          3D

 29 29  0  0  1  0  0  0  0  0999 V2000
   24.2202  -16.7320  -16.7591 N   0  0  0  0  0  0  0  0  0  0  0  0
   23.1876  -15.7314  -16.5659 C   0  0  1  0  0  0  0  0  0  0  0  0
   22.5718  -15.8442  -15.1858 C   0  0  0  0  0  0  0  0  0  0  0  0
   21.9043  -17.2071  -15.1225 C   0  0  0  0  0  0  0  0  0  0  0  0
   20.6762  -17.2692  -16.0181 C   0  0  0  0  0  0  0  0  0  0  0  0
   19.9638  -18.5965  -15.8528 C   0  0  0  0  0  0  0  0  0  0  0  0
   19.7191  -18.7962  -14.4344 N   0  0  0  0  0  0  0  0  0  0  0  0
   23.7149  -14.3620  -16.8134 C   0  0  0  0  0  0  0  0  0  0  0  0
   24.7669  -13.9942  -16.2519 O   0  0  0  0  0  0  0  0  0  0  0  0
   23.0214  -13.4795  -17.6877 N   0  0  0  0  0  0  0  0  0  0  0  0
   23.4349  -12.0774  -17.8723 C   0  0  1  0  0  0  0  0  0  0  0  0
   23.8931  -11.8436  -19.2626 C   0  0  0  0  0  0  0  0  0  0  0  0
   24.3235  -10.4690  -19.5801 C   0  0  0  0  0  0  0  0  0  0  0  0
   25.4633   -9.8175  -19.1283 C   0  0  0  0  0  0  0  0  0  0  0  0
   25.4345   -8.5930  -19.6722 N   0  0  0  0  0  0  0  0  0  0  0  0
   24.3371   -8.4429  -20.4407 C   0  0  0  0  0  0  0  0  0  0  0  0
   23.6807   -9.6015  -20.3653 N   0  0  0  0  0  0  0  0  0  0  0  0
   22.2900  -11.2032  -17.4537 C   0  0  0  0  0  0  0  0  0  0  0  0
   21.1018  -11.4865  -17.6722 O   0  0  0  0  0  0  0  0  0  0  0  0
   22.5305   -9.9748  -16.7688 N   0  0  0  0  0  0  0  0  0  0  0  0
   21.4558   -9.1027  -16.3023 C   0  0  1  0  0  0  0  0  0  0  0  0
   22.0006   -7.9476  -15.5328 C   0  0  0  0  0  0  0  0  0  0  0  0
   20.9149   -7.0948  -14.9603 C   0  0  0  0  0  0  0  0  0  0  0  0
   21.5056   -5.9661  -14.1466 C   0  0  0  0  0  0  0  0  0  0  0  0
   21.0853   -4.8057  -14.3168 O   0  0  0  0  0  0  0  0  0  0  0  0
   20.6332   -8.6391  -17.4358 C   0  0  0  0  0  0  0  0  0  0  0  0
   19.2580   -8.7587  -17.4702 O   0  0  0  0  0  0  0  0  0  0  0  0
   22.5017   -6.1821  -13.2157 O   0  0  0  0  0  0  0  0  0  0  0  0
   21.1964   -8.1029  -18.4452 O   0  0  0  0  0  0  0  0  0  0  0  0
  2  1  1  1
  3  2  1  0
  4  5  1  0
  4  3  1  0
  6  7  1  0
  6  5  1  0
  8  2  1  0
  9  8  2  0
 10  8  1  0
 11 10  1  0
 12 13  1  0
 11 12  1  6
 13 14  2  0
 14 15  1  0
 16 15  1  0
 17 13  1  0
 17 16  2  0
 18 11  1  0
 18 19  2  0
 20 18  1  0
 21 20  1  0
 21 22  1  6
 23 22  1  0
 24 23  1  0
 24 25  2  0
 26 21  1  0
 27 26  1  0
 28 24  1  0
 29 26  2  0
M  END
$$$$
