KHE.pdb
     RDKit          3D

 29 29  0  0  1  0  0  0  0  0999 V2000
   23.8237  -11.6838  -18.0412 N   0  0  0  0  0  0  0  0  0  0  0  0
   23.0140  -10.8155  -18.8751 C   0  0  1  0  0  0  0  0  0  0  0  0
   22.2514  -11.6140  -19.9130 C   0  0  0  0  0  0  0  0  0  0  0  0
   23.2851  -12.4189  -20.6817 C   0  0  0  0  0  0  0  0  0  0  0  0
   22.6286  -13.3742  -21.6670 C   0  0  0  0  0  0  0  0  0  0  0  0
   23.6779  -14.1778  -22.4084 C   0  0  0  0  0  0  0  0  0  0  0  0
   22.9899  -15.0537  -23.3417 N   0  0  0  0  0  0  0  0  0  0  0  0
   22.0965   -9.9832  -18.0505 C   0  0  0  0  0  0  0  0  0  0  0  0
   21.3569   -9.1447  -18.6047 O   0  0  0  0  0  0  0  0  0  0  0  0
   22.0640  -10.1464  -16.6375 N   0  0  0  0  0  0  0  0  0  0  0  0
   21.1952   -9.3258  -15.7758 C   0  0  1  0  0  0  0  0  0  0  0  0
   20.5945  -10.1491  -14.6993 C   0  0  0  0  0  0  0  0  0  0  0  0
   19.4008  -10.9313  -15.0718 C   0  0  0  0  0  0  0  0  0  0  0  0
   18.7360  -10.9249  -16.2907 C   0  0  0  0  0  0  0  0  0  0  0  0
   17.7151  -11.7838  -16.1644 N   0  0  0  0  0  0  0  0  0  0  0  0
   17.7051  -12.3279  -14.9310 C   0  0  0  0  0  0  0  0  0  0  0  0
   18.7432  -11.7900  -14.2893 N   0  0  0  0  0  0  0  0  0  0  0  0
   22.0079   -8.1685  -15.2753 C   0  0  0  0  0  0  0  0  0  0  0  0
   23.1899   -8.2731  -14.9122 O   0  0  0  0  0  0  0  0  0  0  0  0
   21.4354   -6.8641  -15.1937 N   0  0  0  0  0  0  0  0  0  0  0  0
   22.1770   -5.7005  -14.7145 C   0  0  1  0  0  0  0  0  0  0  0  0
   22.0915   -4.5742  -15.6877 C   0  0  0  0  0  0  0  0  0  0  0  0
   22.8704   -3.3822  -15.2336 C   0  0  0  0  0  0  0  0  0  0  0  0
   22.7502   -2.2601  -16.2393 C   0  0  0  0  0  0  0  0  0  0  0  0
   22.0819   -2.4379  -17.2756 O   0  0  0  0  0  0  0  0  0  0  0  0
   21.6907   -5.2855  -13.3850 C   0  0  0  0  0  0  0  0  0  0  0  0
   22.4188   -4.4805  -12.5315 O   0  0  0  0  0  0  0  0  0  0  0  0
   23.3613   -1.0378  -16.0444 O   0  0  0  0  0  0  0  0  0  0  0  0
   20.5483   -5.6794  -12.9807 O   0  0  0  0  0  0  0  0  0  0  0  0
  2  1  1  1
  3  2  1  0
  4  5  1  0
  4  3  1  0
  6  7  1  0
  6  5  1  0
  8  2  1  0
  9  8  2  0
 10  8  1  0
 11 10  1  0
 12 13  1  0
 11 12  1  1
 13 14  2  0
 14 15  1  0
 16 15  1  0
 17 13  1  0
 17 16  2  0
 18 11  1  0
 18 19  2  0
 20 18  1  0
 21 20  1  0
 21 22  1  6
 23 22  1  0
 24 23  1  0
 24 25  2  0
 26 21  1  0
 27 26  1  0
 28 24  1  0
 29 26  2  0
M  END
$$$$
