KHE.pdb
     RDKit          3D

 29 29  0  0  1  0  0  0  0  0999 V2000
   25.1395  -19.5518  -17.1902 N   0  0  0  0  0  0  0  0  0  0  0  0
   24.0397  -18.8791  -16.5248 C   0  0  1  0  0  0  0  0  0  0  0  0
   23.1173  -18.2191  -17.5298 C   0  0  0  0  0  0  0  0  0  0  0  0
   23.9078  -17.0852  -18.1596 C   0  0  0  0  0  0  0  0  0  0  0  0
   23.0976  -15.7984  -18.2056 C   0  0  0  0  0  0  0  0  0  0  0  0
   23.8758  -14.7047  -18.9090 C   0  0  0  0  0  0  0  0  0  0  0  0
   23.0164  -13.5366  -19.0015 N   0  0  0  0  0  0  0  0  0  0  0  0
   23.2950  -19.8156  -15.6398 C   0  0  0  0  0  0  0  0  0  0  0  0
   23.1652  -21.0107  -15.9748 O   0  0  0  0  0  0  0  0  0  0  0  0
   22.7365  -19.3477  -14.4177 N   0  0  0  0  0  0  0  0  0  0  0  0
   21.9582  -20.2264  -13.5272 C   0  0  1  0  0  0  0  0  0  0  0  0
   22.5531  -20.2581  -12.1697 C   0  0  0  0  0  0  0  0  0  0  0  0
   23.7473  -21.1082  -12.0057 C   0  0  0  0  0  0  0  0  0  0  0  0
   24.3919  -21.8532  -12.9841 C   0  0  0  0  0  0  0  0  0  0  0  0
   25.4183  -22.4624  -12.3746 N   0  0  0  0  0  0  0  0  0  0  0  0
   25.4507  -22.1386  -11.0663 C   0  0  0  0  0  0  0  0  0  0  0  0
   24.4216  -21.3128  -10.8719 N   0  0  0  0  0  0  0  0  0  0  0  0
   20.5325  -19.7610  -13.5561 C   0  0  0  0  0  0  0  0  0  0  0  0
   20.2023  -18.5707  -13.4369 O   0  0  0  0  0  0  0  0  0  0  0  0
   19.4692  -20.6972  -13.7255 N   0  0  0  0  0  0  0  0  0  0  0  0
   18.0677  -20.2975  -13.8224 C   0  0  1  0  0  0  0  0  0  0  0  0
   17.2166  -21.4368  -14.2703 C   0  0  0  0  0  0  0  0  0  0  0  0
   15.8056  -21.0148  -14.5248 C   0  0  0  0  0  0  0  0  0  0  0  0
   14.9904  -22.1818  -15.0334 C   0  0  0  0  0  0  0  0  0  0  0  0
   15.5043  -23.3162  -15.0690 O   0  0  0  0  0  0  0  0  0  0  0  0
   17.5905  -19.7582  -12.5348 C   0  0  0  0  0  0  0  0  0  0  0  0
   18.0295  -20.2241  -11.3113 O   0  0  0  0  0  0  0  0  0  0  0  0
   13.6872  -22.0290  -15.4621 O   0  0  0  0  0  0  0  0  0  0  0  0
   16.7287  -18.8197  -12.5253 O   0  0  0  0  0  0  0  0  0  0  0  0
  2  1  1  6
  3  2  1  0
  4  5  1  0
  4  3  1  0
  6  7  1  0
  6  5  1  0
  8  2  1  0
  9  8  2  0
 10  8  1  0
 11 10  1  0
 12 13  1  0
 11 12  1  1
 13 14  2  0
 14 15  1  0
 16 15  1  0
 17 13  1  0
 17 16  2  0
 18 11  1  0
 18 19  2  0
 20 18  1  0
 21 20  1  0
 21 22  1  1
 23 22  1  0
 24 23  1  0
 24 25  2  0
 26 21  1  0
 27 26  1  0
 28 24  1  0
 29 26  2  0
M  END
$$$$
