KHE.pdb
     RDKit          3D

 29 29  0  0  1  0  0  0  0  0999 V2000
   20.1498  -13.3794  -17.3629 N   0  0  0  0  0  0  0  0  0  0  0  0
   19.2344  -13.2198  -16.2486 C   0  0  1  0  0  0  0  0  0  0  0  0
   18.9191  -11.7571  -16.0084 C   0  0  0  0  0  0  0  0  0  0  0  0
   20.2034  -11.1159  -15.5116 C   0  0  0  0  0  0  0  0  0  0  0  0
   20.0604   -9.6068  -15.3836 C   0  0  0  0  0  0  0  0  0  0  0  0
   21.3757   -8.9815  -14.9649 C   0  0  0  0  0  0  0  0  0  0  0  0
   21.2176   -7.5378  -15.0147 N   0  0  0  0  0  0  0  0  0  0  0  0
   17.9934  -14.0144  -16.4561 C   0  0  0  0  0  0  0  0  0  0  0  0
   17.0198  -13.4979  -17.0414 O   0  0  0  0  0  0  0  0  0  0  0  0
   17.9212  -15.3565  -15.9896 N   0  0  0  0  0  0  0  0  0  0  0  0
   16.7050  -16.1736  -16.1450 C   0  0  1  0  0  0  0  0  0  0  0  0
   16.9333  -17.2773  -17.1079 C   0  0  0  0  0  0  0  0  0  0  0  0
   17.0121  -16.8908  -18.5292 C   0  0  0  0  0  0  0  0  0  0  0  0
   15.9585  -16.7396  -19.4208 C   0  0  0  0  0  0  0  0  0  0  0  0
   16.5070  -16.3848  -20.5910 N   0  0  0  0  0  0  0  0  0  0  0  0
   17.8482  -16.3058  -20.4797 C   0  0  0  0  0  0  0  0  0  0  0  0
   18.1257  -16.6189  -19.2133 N   0  0  0  0  0  0  0  0  0  0  0  0
   16.2848  -16.6336  -14.7805 C   0  0  0  0  0  0  0  0  0  0  0  0
   17.0881  -16.9954  -13.9066 O   0  0  0  0  0  0  0  0  0  0  0  0
   14.9036  -16.6753  -14.4246 N   0  0  0  0  0  0  0  0  0  0  0  0
   14.4238  -17.2545  -13.1726 C   0  0  1  0  0  0  0  0  0  0  0  0
   13.0148  -16.8492  -12.9015 C   0  0  0  0  0  0  0  0  0  0  0  0
   12.4966  -17.4427  -11.6314 C   0  0  0  0  0  0  0  0  0  0  0  0
   11.0975  -16.9443  -11.3496 C   0  0  0  0  0  0  0  0  0  0  0  0
   10.5684  -16.1340  -12.1342 O   0  0  0  0  0  0  0  0  0  0  0  0
   14.5538  -18.7238  -13.1959 C   0  0  0  0  0  0  0  0  0  0  0  0
   14.7105  -19.4867  -12.0556 O   0  0  0  0  0  0  0  0  0  0  0  0
   10.3841  -17.3611  -10.2438 O   0  0  0  0  0  0  0  0  0  0  0  0
   14.5272  -19.3411  -14.3103 O   0  0  0  0  0  0  0  0  0  0  0  0
  2  1  1  6
  3  2  1  0
  4  5  1  0
  4  3  1  0
  6  7  1  0
  6  5  1  0
  8  2  1  0
  9  8  2  0
 10  8  1  0
 11 10  1  0
 12 13  1  0
 11 12  1  6
 13 14  2  0
 14 15  1  0
 16 15  1  0
 17 13  1  0
 17 16  2  0
 18 11  1  0
 18 19  2  0
 20 18  1  0
 21 20  1  0
 21 22  1  6
 23 22  1  0
 24 23  1  0
 24 25  2  0
 26 21  1  0
 27 26  1  0
 28 24  1  0
 29 26  2  0
M  END
$$$$
