KHE.pdb
     RDKit          3D

 29 29  0  0  1  0  0  0  0  0999 V2000
   20.7090  -15.6902  -17.6092 N   0  0  0  0  0  0  0  0  0  0  0  0
   19.8757  -14.7803  -16.8459 C   0  0  1  0  0  0  0  0  0  0  0  0
   20.0860  -14.9688  -15.3571 C   0  0  0  0  0  0  0  0  0  0  0  0
   19.4861  -16.3192  -15.0052 C   0  0  0  0  0  0  0  0  0  0  0  0
   19.5778  -16.5987  -13.5126 C   0  0  0  0  0  0  0  0  0  0  0  0
   18.8695  -17.8937  -13.1695 C   0  0  0  0  0  0  0  0  0  0  0  0
   17.5327  -17.5605  -12.7073 N   0  0  0  0  0  0  0  0  0  0  0  0
   20.1123  -13.3682  -17.2518 C   0  0  0  0  0  0  0  0  0  0  0  0
   21.2679  -12.9922  -17.5352 O   0  0  0  0  0  0  0  0  0  0  0  0
   19.0237  -12.4544  -17.3168 N   0  0  0  0  0  0  0  0  0  0  0  0
   19.2113  -11.0403  -17.6854 C   0  0  1  0  0  0  0  0  0  0  0  0
   18.2376  -10.6355  -18.7274 C   0  0  0  0  0  0  0  0  0  0  0  0
   18.2579   -9.2125  -19.1148 C   0  0  0  0  0  0  0  0  0  0  0  0
   18.9200   -8.6424  -20.1938 C   0  0  0  0  0  0  0  0  0  0  0  0
   18.6547   -7.3297  -20.1443 N   0  0  0  0  0  0  0  0  0  0  0  0
   17.8616   -7.0472  -19.0914 C   0  0  0  0  0  0  0  0  0  0  0  0
   17.6367   -8.2131  -18.4841 N   0  0  0  0  0  0  0  0  0  0  0  0
   19.1321  -10.2250  -16.4288 C   0  0  0  0  0  0  0  0  0  0  0  0
   18.3525  -10.4823  -15.4982 O   0  0  0  0  0  0  0  0  0  0  0  0
   19.9745   -9.0872  -16.2503 N   0  0  0  0  0  0  0  0  0  0  0  0
   19.8197   -8.1515  -15.1395 C   0  0  1  0  0  0  0  0  0  0  0  0
   20.9736   -7.2100  -15.0689 C   0  0  0  0  0  0  0  0  0  0  0  0
   20.8432   -6.2497  -13.9312 C   0  0  0  0  0  0  0  0  0  0  0  0
   22.0072   -5.2853  -13.9199 C   0  0  0  0  0  0  0  0  0  0  0  0
   22.3377   -4.7146  -14.9769 O   0  0  0  0  0  0  0  0  0  0  0  0
   18.5461   -7.4158  -15.2531 C   0  0  0  0  0  0  0  0  0  0  0  0
   17.7629   -7.0883  -14.1640 O   0  0  0  0  0  0  0  0  0  0  0  0
   22.7196   -5.0158  -12.7686 O   0  0  0  0  0  0  0  0  0  0  0  0
   18.1253   -7.0578  -16.4014 O   0  0  0  0  0  0  0  0  0  0  0  0
  2  1  1  6
  3  2  1  0
  4  5  1  0
  4  3  1  0
  6  7  1  0
  6  5  1  0
  8  2  1  0
  9  8  2  0
 10  8  1  0
 11 10  1  0
 12 13  1  0
 11 12  1  6
 13 14  2  0
 14 15  1  0
 16 15  1  0
 17 13  1  0
 17 16  2  0
 18 11  1  0
 18 19  2  0
 20 18  1  0
 21 20  1  0
 21 22  1  6
 23 22  1  0
 24 23  1  0
 24 25  2  0
 26 21  1  0
 27 26  1  0
 28 24  1  0
 29 26  2  0
M  END
$$$$
