KHE.pdb
     RDKit          3D

 29 29  0  0  1  0  0  0  0  0999 V2000
   21.2566  -16.9615  -15.9829 N   0  0  0  0  0  0  0  0  0  0  0  0
   20.9898  -15.7431  -16.7239 C   0  0  1  0  0  0  0  0  0  0  0  0
   19.5044  -15.5687  -16.9680 C   0  0  0  0  0  0  0  0  0  0  0  0
   18.9566  -16.9480  -17.2916 C   0  0  0  0  0  0  0  0  0  0  0  0
   17.5071  -16.8797  -17.7484 C   0  0  0  0  0  0  0  0  0  0  0  0
   17.0132  -18.2525  -18.1581 C   0  0  0  0  0  0  0  0  0  0  0  0
   15.6279  -18.1202  -18.5765 N   0  0  0  0  0  0  0  0  0  0  0  0
   21.5679  -14.5582  -16.0336 C   0  0  0  0  0  0  0  0  0  0  0  0
   21.3618  -14.3922  -14.8141 O   0  0  0  0  0  0  0  0  0  0  0  0
   22.3526  -13.6221  -16.7631 N   0  0  0  0  0  0  0  0  0  0  0  0
   22.9593  -12.4427  -16.1214 C   0  0  1  0  0  0  0  0  0  0  0  0
   24.3678  -12.2764  -16.5527 C   0  0  0  0  0  0  0  0  0  0  0  0
   25.3218  -13.2833  -16.0512 C   0  0  0  0  0  0  0  0  0  0  0  0
   25.0519  -14.3541  -15.2097 C   0  0  0  0  0  0  0  0  0  0  0  0
   26.2181  -14.9881  -15.0254 N   0  0  0  0  0  0  0  0  0  0  0  0
   27.2043  -14.3712  -15.7067 C   0  0  0  0  0  0  0  0  0  0  0  0
   26.6281  -13.3374  -16.3215 N   0  0  0  0  0  0  0  0  0  0  0  0
   22.0874  -11.2593  -16.4204 C   0  0  0  0  0  0  0  0  0  0  0  0
   21.6694  -10.9916  -17.5578 O   0  0  0  0  0  0  0  0  0  0  0  0
   21.6945  -10.3683  -15.3775 N   0  0  0  0  0  0  0  0  0  0  0  0
   20.8848   -9.1761  -15.6152 C   0  0  1  0  0  0  0  0  0  0  0  0
   19.5115   -9.3430  -15.0593 C   0  0  0  0  0  0  0  0  0  0  0  0
   18.6398   -8.1665  -15.3593 C   0  0  0  0  0  0  0  0  0  0  0  0
   17.2651   -8.3638  -14.7622 C   0  0  0  0  0  0  0  0  0  0  0  0
   17.0327   -9.3859  -14.0889 O   0  0  0  0  0  0  0  0  0  0  0  0
   21.5401   -7.9814  -15.0499 C   0  0  0  0  0  0  0  0  0  0  0  0
   21.3731   -6.7120  -15.5671 O   0  0  0  0  0  0  0  0  0  0  0  0
   16.2536   -7.4417  -14.9409 O   0  0  0  0  0  0  0  0  0  0  0  0
   22.3049   -8.1017  -14.0378 O   0  0  0  0  0  0  0  0  0  0  0  0
  2  1  1  1
  3  2  1  0
  4  5  1  0
  4  3  1  0
  6  7  1  0
  6  5  1  0
  8  2  1  0
  9  8  2  0
 10  8  1  0
 11 10  1  0
 12 13  1  0
 11 12  1  6
 13 14  2  0
 14 15  1  0
 16 15  1  0
 17 13  1  0
 17 16  2  0
 18 11  1  0
 18 19  2  0
 20 18  1  0
 21 20  1  0
 21 22  1  1
 23 22  1  0
 24 23  1  0
 24 25  2  0
 26 21  1  0
 27 26  1  0
 28 24  1  0
 29 26  2  0
M  END
$$$$
