FQT.pdb
     RDKit          3D

 28 28  0  0  1  0  0  0  0  0999 V2000
    7.2949  -17.4809   20.1918 N   0  0  0  0  0  0  0  0  0  0  0  0
    8.5347  -16.7524   20.1701 C   0  0  1  0  0  0  0  0  0  0  0  0
    8.5441  -15.5553   21.0795 C   0  0  0  0  0  0  0  0  0  0  0  0
    7.9283  -14.4016   20.3754 C   0  0  0  0  0  0  0  0  0  0  0  0
    8.7017  -13.7237   19.4659 C   0  0  0  0  0  0  0  0  0  0  0  0
    8.1490  -12.6454   18.7979 C   0  0  0  0  0  0  0  0  0  0  0  0
    6.8608  -12.2478   19.0250 C   0  0  0  0  0  0  0  0  0  0  0  0
    6.0926  -12.9300   19.9359 C   0  0  0  0  0  0  0  0  0  0  0  0
    6.6287  -14.0125   20.6148 C   0  0  0  0  0  0  0  0  0  0  0  0
    9.6898  -17.6405   20.5390 C   0  0  0  0  0  0  0  0  0  0  0  0
    9.6242  -18.4086   21.5242 O   0  0  0  0  0  0  0  0  0  0  0  0
   14.8061  -18.4363   17.0084 N   0  0  0  0  0  0  0  0  0  0  0  0
   15.2395  -19.1198   18.1687 C   0  0  0  0  0  0  0  0  0  0  0  0
   16.3400  -19.7153   18.2641 O   0  0  0  0  0  0  0  0  0  0  0  0
   14.3198  -19.1262   19.3493 C   0  0  0  0  0  0  0  0  0  0  0  0
   13.0686  -18.3603   19.0244 C   0  0  0  0  0  0  0  0  0  0  0  0
   12.1167  -18.2526   20.1672 C   0  0  2  0  0  0  0  0  0  0  0  0
   10.8711  -17.6001   19.7502 N   0  0  0  0  0  0  0  0  0  0  0  0
   12.6425  -17.6176   21.3871 C   0  0  0  0  0  0  0  0  0  0  0  0
   12.8978  -16.4147   21.4441 O   0  0  0  0  0  0  0  0  0  0  0  0
   11.0095  -17.2224   24.7690 C   0  0  0  0  0  0  0  0  0  0  0  0
   12.2696  -18.0186   24.9470 C   0  0  1  0  0  0  0  0  0  0  0  0
   11.9934  -19.3901   24.9630 O   0  0  0  0  0  0  0  0  0  0  0  0
   13.2681  -17.7875   23.8386 C   0  0  2  0  0  0  0  0  0  0  0  0
   12.8915  -18.3678   22.5936 N   0  0  0  0  0  0  0  0  0  0  0  0
   14.5633  -18.3458   24.2899 C   0  0  0  0  0  0  0  0  0  0  0  0
   15.0014  -19.3838   23.7381 O   0  0  0  0  0  0  0  0  0  0  0  0
   15.3200  -17.7694   25.3025 O   0  0  0  0  0  0  0  0  0  0  0  0
  2  1  1  1
  2  3  1  0
  3  4  1  0
  4  9  2  0
  5  6  2  0
  5  4  1  0
  6  7  1  0
  7  8  2  0
  9  8  1  0
 10 18  1  0
 10  2  1  0
 11 10  2  0
 13 12  1  0
 13 15  1  0
 14 13  2  0
 17 16  1  6
 16 15  1  0
 17 18  1  0
 19 20  2  0
 19 17  1  0
 22 21  1  6
 22 23  1  0
 24 22  1  0
 24 25  1  6
 25 19  1  0
 26 24  1  0
 27 26  2  0
 28 26  1  0
M  END
$$$$
