FQT.pdb
     RDKit          3D

 28 28  0  0  1  0  0  0  0  0999 V2000
    5.8871  -16.2946   25.2019 N   0  0  0  0  0  0  0  0  0  0  0  0
    7.2041  -15.7718   24.9563 C   0  0  1  0  0  0  0  0  0  0  0  0
    7.6430  -14.7496   25.9673 C   0  0  0  0  0  0  0  0  0  0  0  0
    7.0042  -13.4459   25.6535 C   0  0  0  0  0  0  0  0  0  0  0  0
    5.9624  -13.0389   26.4498 C   0  0  0  0  0  0  0  0  0  0  0  0
    5.3520  -11.8277   26.1763 C   0  0  0  0  0  0  0  0  0  0  0  0
    5.7634  -11.0381   25.1389 C   0  0  0  0  0  0  0  0  0  0  0  0
    6.8058  -11.4509   24.3463 C   0  0  0  0  0  0  0  0  0  0  0  0
    7.4297  -12.6608   24.6046 C   0  0  0  0  0  0  0  0  0  0  0  0
    8.2249  -16.8744   24.9190 C   0  0  0  0  0  0  0  0  0  0  0  0
    8.1229  -17.8737   25.6646 O   0  0  0  0  0  0  0  0  0  0  0  0
   12.5355  -17.9053   20.5481 N   0  0  0  0  0  0  0  0  0  0  0  0
   13.1993  -18.5360   21.6265 C   0  0  0  0  0  0  0  0  0  0  0  0
   14.2726  -19.1764   21.5137 O   0  0  0  0  0  0  0  0  0  0  0  0
   12.5730  -18.4257   22.9813 C   0  0  0  0  0  0  0  0  0  0  0  0
   11.2932  -17.6440   22.8885 C   0  0  0  0  0  0  0  0  0  0  0  0
   10.5415  -17.5679   24.1742 C   0  0  2  0  0  0  0  0  0  0  0  0
    9.3198  -16.7713   24.0192 N   0  0  0  0  0  0  0  0  0  0  0  0
   11.3081  -17.1053   25.3432 C   0  0  0  0  0  0  0  0  0  0  0  0
   12.0828  -16.1503   25.2851 O   0  0  0  0  0  0  0  0  0  0  0  0
   10.2224  -15.1928   27.9610 C   0  0  0  0  0  0  0  0  0  0  0  0
   10.6970  -16.4373   28.6535 C   0  0  1  0  0  0  0  0  0  0  0  0
    9.6305  -17.3103   28.8938 O   0  0  0  0  0  0  0  0  0  0  0  0
   11.7148  -17.2041   27.8441 C   0  0  2  0  0  0  0  0  0  0  0  0
   11.1983  -17.7443   26.6316 N   0  0  0  0  0  0  0  0  0  0  0  0
   12.2333  -18.2911   28.7058 C   0  0  0  0  0  0  0  0  0  0  0  0
   12.0316  -19.4820   28.3671 O   0  0  0  0  0  0  0  0  0  0  0  0
   12.9373  -18.0510   29.8793 O   0  0  0  0  0  0  0  0  0  0  0  0
  2  1  1  1
  2  3  1  0
  3  4  1  0
  4  9  2  0
  5  6  2  0
  5  4  1  0
  6  7  1  0
  7  8  2  0
  9  8  1  0
 10 18  1  0
 10  2  1  0
 11 10  2  0
 13 12  1  0
 13 15  1  0
 14 13  2  0
 17 16  1  6
 16 15  1  0
 17 18  1  0
 19 20  2  0
 19 17  1  0
 22 21  1  6
 22 23  1  0
 24 22  1  0
 24 25  1  6
 25 19  1  0
 26 24  1  0
 27 26  2  0
 28 26  1  0
M  END
$$$$
