FQT.pdb
     RDKit          3D

 28 28  0  0  1  0  0  0  0  0999 V2000
    5.4074  -17.0246   24.8548 N   0  0  0  0  0  0  0  0  0  0  0  0
    6.4030  -15.9875   24.8889 C   0  0  1  0  0  0  0  0  0  0  0  0
    6.7634  -15.5461   26.2800 C   0  0  0  0  0  0  0  0  0  0  0  0
    6.5477  -14.0814   26.3995 C   0  0  0  0  0  0  0  0  0  0  0  0
    7.6459  -13.2934   26.6403 C   0  0  0  0  0  0  0  0  0  0  0  0
    7.4689  -11.9260   26.7554 C   0  0  0  0  0  0  0  0  0  0  0  0
    6.2339  -11.3523   26.6350 C   0  0  0  0  0  0  0  0  0  0  0  0
    5.1397  -12.1461   26.3942 C   0  0  0  0  0  0  0  0  0  0  0  0
    5.2969  -13.5176   26.2758 C   0  0  0  0  0  0  0  0  0  0  0  0
    7.6589  -16.4207   24.1858 C   0  0  0  0  0  0  0  0  0  0  0  0
    8.0762  -17.5965   24.2763 O   0  0  0  0  0  0  0  0  0  0  0  0
    9.9427  -13.0401   19.6908 N   0  0  0  0  0  0  0  0  0  0  0  0
    8.7574  -13.8117   19.6584 C   0  0  0  0  0  0  0  0  0  0  0  0
    7.7937  -13.5879   18.8865 O   0  0  0  0  0  0  0  0  0  0  0  0
    8.6583  -14.9638   20.6085 C   0  0  0  0  0  0  0  0  0  0  0  0
    9.8444  -14.9668   21.5308 C   0  0  0  0  0  0  0  0  0  0  0  0
    9.6503  -15.7946   22.7559 C   0  0  2  0  0  0  0  0  0  0  0  0
    8.3768  -15.4725   23.4082 N   0  0  0  0  0  0  0  0  0  0  0  0
   10.7487  -15.7635   23.7361 C   0  0  0  0  0  0  0  0  0  0  0  0
   11.9280  -15.8875   23.4058 O   0  0  0  0  0  0  0  0  0  0  0  0
   10.5463  -13.7607   27.5711 C   0  0  0  0  0  0  0  0  0  0  0  0
   11.0407  -15.1770   27.5135 C   0  0  1  0  0  0  0  0  0  0  0  0
   10.0212  -16.0739   27.8507 O   0  0  0  0  0  0  0  0  0  0  0  0
   11.5305  -15.5693   26.1405 C   0  0  2  0  0  0  0  0  0  0  0  0
   10.5096  -15.5852   25.1473 N   0  0  0  0  0  0  0  0  0  0  0  0
   12.1460  -16.9108   26.2599 C   0  0  0  0  0  0  0  0  0  0  0  0
   13.1734  -17.0458   26.9671 O   0  0  0  0  0  0  0  0  0  0  0  0
   11.6349  -18.0336   25.6209 O   0  0  0  0  0  0  0  0  0  0  0  0
  2  1  1  1
  2  3  1  0
  3  4  1  0
  4  9  2  0
  5  6  2  0
  5  4  1  0
  6  7  1  0
  7  8  2  0
  9  8  1  0
 10 18  1  0
 10  2  1  0
 11 10  2  0
 13 12  1  0
 13 15  1  0
 14 13  2  0
 17 16  1  6
 16 15  1  0
 17 18  1  0
 19 20  2  0
 19 17  1  0
 22 21  1  6
 22 23  1  0
 24 22  1  0
 24 25  1  6
 25 19  1  0
 26 24  1  0
 27 26  2  0
 28 26  1  0
M  END
$$$$
