FQT.pdb
     RDKit          3D

 28 28  0  0  1  0  0  0  0  0999 V2000
    5.0317  -16.2670   20.9808 N   0  0  0  0  0  0  0  0  0  0  0  0
    6.1649  -16.9846   21.4995 C   0  0  1  0  0  0  0  0  0  0  0  0
    7.4661  -16.6029   20.8507 C   0  0  0  0  0  0  0  0  0  0  0  0
    7.5619  -15.1223   20.7810 C   0  0  0  0  0  0  0  0  0  0  0  0
    7.9036  -14.4513   21.9290 C   0  0  0  0  0  0  0  0  0  0  0  0
    7.9989  -13.0716   21.8877 C   0  0  0  0  0  0  0  0  0  0  0  0
    7.7614  -12.3727   20.7370 C   0  0  0  0  0  0  0  0  0  0  0  0
    7.4201  -13.0499   19.5923 C   0  0  0  0  0  0  0  0  0  0  0  0
    7.3197  -14.4316   19.6139 C   0  0  0  0  0  0  0  0  0  0  0  0
    6.2962  -16.7875   22.9838 C   0  0  0  0  0  0  0  0  0  0  0  0
    5.5497  -15.9934   23.5978 O   0  0  0  0  0  0  0  0  0  0  0  0
    7.8437  -21.3732   26.6111 N   0  0  0  0  0  0  0  0  0  0  0  0
    7.8153  -20.3815   27.6196 C   0  0  0  0  0  0  0  0  0  0  0  0
    7.9351  -20.6217   28.8454 O   0  0  0  0  0  0  0  0  0  0  0  0
    7.6304  -18.9613   27.1852 C   0  0  0  0  0  0  0  0  0  0  0  0
    7.5515  -18.8933   25.6863 C   0  0  0  0  0  0  0  0  0  0  0  0
    7.3725  -17.5109   25.1565 C   0  0  2  0  0  0  0  0  0  0  0  0
    7.2871  -17.5191   23.6924 N   0  0  0  0  0  0  0  0  0  0  0  0
    8.3603  -16.5153   25.6050 C   0  0  0  0  0  0  0  0  0  0  0  0
    9.3949  -16.2874   24.9781 O   0  0  0  0  0  0  0  0  0  0  0  0
    7.5835  -12.7421   26.4704 C   0  0  0  0  0  0  0  0  0  0  0  0
    8.2578  -13.4251   27.6247 C   0  0  1  0  0  0  0  0  0  0  0  0
    7.3199  -13.8259   28.5823 O   0  0  0  0  0  0  0  0  0  0  0  0
    9.0142  -14.6639   27.2095 C   0  0  2  0  0  0  0  0  0  0  0  0
    8.1760  -15.7438   26.8097 N   0  0  0  0  0  0  0  0  0  0  0  0
    9.8561  -15.0705   28.3579 C   0  0  0  0  0  0  0  0  0  0  0  0
    9.6987  -16.2136   28.8504 O   0  0  0  0  0  0  0  0  0  0  0  0
   10.8180  -14.2393   28.9182 O   0  0  0  0  0  0  0  0  0  0  0  0
  2  1  1  6
  2  3  1  0
  3  4  1  0
  4  9  2  0
  5  6  2  0
  5  4  1  0
  6  7  1  0
  7  8  2  0
  9  8  1  0
 10 18  1  0
 10  2  1  0
 11 10  2  0
 13 12  1  0
 13 15  1  0
 14 13  2  0
 17 16  1  6
 16 15  1  0
 17 18  1  0
 19 20  2  0
 19 17  1  0
 22 21  1  6
 22 23  1  0
 24 22  1  0
 24 25  1  1
 25 19  1  0
 26 24  1  0
 27 26  2  0
 28 26  1  0
M  END
$$$$
