FQT.pdb
     RDKit          3D

 28 28  0  0  1  0  0  0  0  0999 V2000
    5.9046  -17.7121   23.6659 N   0  0  0  0  0  0  0  0  0  0  0  0
    6.5901  -16.5433   24.1475 C   0  0  1  0  0  0  0  0  0  0  0  0
    5.9937  -15.9717   25.4035 C   0  0  0  0  0  0  0  0  0  0  0  0
    6.4793  -14.5800   25.5860 C   0  0  0  0  0  0  0  0  0  0  0  0
    6.1274  -13.9290   26.7425 C   0  0  0  0  0  0  0  0  0  0  0  0
    6.5684  -12.6317   26.9342 C   0  0  0  0  0  0  0  0  0  0  0  0
    7.3397  -11.9939   26.0030 C   0  0  0  0  0  0  0  0  0  0  0  0
    7.6882  -12.6505   24.8485 C   0  0  0  0  0  0  0  0  0  0  0  0
    7.2560  -13.9501   24.6386 C   0  0  0  0  0  0  0  0  0  0  0  0
    8.0431  -16.8343   24.3993 C   0  0  0  0  0  0  0  0  0  0  0  0
    8.3925  -17.7241   25.2061 O   0  0  0  0  0  0  0  0  0  0  0  0
   14.4277  -14.4993   21.8232 N   0  0  0  0  0  0  0  0  0  0  0  0
   13.4208  -15.4775   21.6487 C   0  0  0  0  0  0  0  0  0  0  0  0
   13.0772  -15.9418   20.5346 O   0  0  0  0  0  0  0  0  0  0  0  0
   12.7294  -15.9823   22.8763 C   0  0  0  0  0  0  0  0  0  0  0  0
   11.2418  -15.8444   22.7161 C   0  0  0  0  0  0  0  0  0  0  0  0
   10.4654  -16.2930   23.9076 C   0  0  2  0  0  0  0  0  0  0  0  0
    9.0283  -16.0816   23.7051 N   0  0  0  0  0  0  0  0  0  0  0  0
   10.8872  -15.7307   25.2014 C   0  0  0  0  0  0  0  0  0  0  0  0
   11.1120  -14.5300   25.3542 O   0  0  0  0  0  0  0  0  0  0  0  0
   10.0591  -13.9622   27.6356 C   0  0  0  0  0  0  0  0  0  0  0  0
   10.3506  -15.2573   28.3366 C   0  0  1  0  0  0  0  0  0  0  0  0
    9.2114  -16.0685   28.3769 O   0  0  0  0  0  0  0  0  0  0  0  0
   11.4334  -16.0592   27.6557 C   0  0  2  0  0  0  0  0  0  0  0  0
   11.0633  -16.5541   26.3724 N   0  0  0  0  0  0  0  0  0  0  0  0
   11.7792  -17.1836   28.5551 C   0  0  0  0  0  0  0  0  0  0  0  0
   11.5566  -18.3573   28.1719 O   0  0  0  0  0  0  0  0  0  0  0  0
   12.3424  -16.9974   29.8115 O   0  0  0  0  0  0  0  0  0  0  0  0
  2  1  1  1
  2  3  1  0
  3  4  1  0
  4  9  2  0
  5  6  2  0
  5  4  1  0
  6  7  1  0
  7  8  2  0
  9  8  1  0
 10 18  1  0
 10  2  1  0
 11 10  2  0
 13 12  1  0
 13 15  1  0
 14 13  2  0
 17 16  1  6
 16 15  1  0
 17 18  1  0
 19 20  2  0
 19 17  1  0
 22 21  1  6
 22 23  1  0
 24 22  1  0
 24 25  1  6
 25 19  1  0
 26 24  1  0
 27 26  2  0
 28 26  1  0
M  END
$$$$
