FQT.pdb
     RDKit          3D

 28 28  0  0  1  0  0  0  0  0999 V2000
    7.5499  -17.5290   17.5782 N   0  0  0  0  0  0  0  0  0  0  0  0
    7.9326  -16.2904   18.2008 C   0  0  1  0  0  0  0  0  0  0  0  0
    6.8356  -15.6632   19.0151 C   0  0  0  0  0  0  0  0  0  0  0  0
    7.3382  -14.4065   19.6269 C   0  0  0  0  0  0  0  0  0  0  0  0
    7.3573  -14.3285   20.9975 C   0  0  0  0  0  0  0  0  0  0  0  0
    7.8215  -13.1674   21.5897 C   0  0  0  0  0  0  0  0  0  0  0  0
    8.2566  -12.1085   20.8425 C   0  0  0  0  0  0  0  0  0  0  0  0
    8.2348  -12.1929   19.4721 C   0  0  0  0  0  0  0  0  0  0  0  0
    7.7734  -13.3476   18.8609 C   0  0  0  0  0  0  0  0  0  0  0  0
    9.1342  -16.4781   19.0839 C   0  0  0  0  0  0  0  0  0  0  0  0
    9.1418  -17.3425   19.9882 O   0  0  0  0  0  0  0  0  0  0  0  0
   15.1203  -13.5607   18.2917 N   0  0  0  0  0  0  0  0  0  0  0  0
   15.0500  -14.8273   18.9180 C   0  0  0  0  0  0  0  0  0  0  0  0
   15.8886  -15.7447   18.7449 O   0  0  0  0  0  0  0  0  0  0  0  0
   13.8996  -15.0768   19.8421 C   0  0  0  0  0  0  0  0  0  0  0  0
   12.6063  -14.9782   19.0836 C   0  0  0  0  0  0  0  0  0  0  0  0
   11.5220  -15.8436   19.6304 C   0  0  2  0  0  0  0  0  0  0  0  0
   10.2753  -15.6559   18.8810 N   0  0  0  0  0  0  0  0  0  0  0  0
   11.2712  -15.7270   21.0766 C   0  0  0  0  0  0  0  0  0  0  0  0
   10.7942  -14.7105   21.5811 O   0  0  0  0  0  0  0  0  0  0  0  0
   10.3683  -17.7694   25.4495 C   0  0  0  0  0  0  0  0  0  0  0  0
   10.5041  -17.8303   23.9557 C   0  0  1  0  0  0  0  0  0  0  0  0
    9.2554  -17.7045   23.3372 O   0  0  0  0  0  0  0  0  0  0  0  0
   11.3775  -16.7298   23.4032 C   0  0  2  0  0  0  0  0  0  0  0  0
   11.5697  -16.7996   21.9936 N   0  0  0  0  0  0  0  0  0  0  0  0
   12.6816  -16.8119   24.0999 C   0  0  0  0  0  0  0  0  0  0  0  0
   13.6287  -17.4186   23.5443 O   0  0  0  0  0  0  0  0  0  0  0  0
   12.9057  -16.2444   25.3481 O   0  0  0  0  0  0  0  0  0  0  0  0
  2  1  1  1
  2  3  1  0
  3  4  1  0
  4  9  2  0
  5  6  2  0
  5  4  1  0
  6  7  1  0
  7  8  2  0
  9  8  1  0
 10 18  1  0
 10  2  1  0
 11 10  2  0
 13 12  1  0
 13 15  1  0
 14 13  2  0
 17 16  1  6
 16 15  1  0
 17 18  1  0
 19 20  2  0
 19 17  1  0
 22 21  1  1
 22 23  1  0
 24 22  1  0
 24 25  1  6
 25 19  1  0
 26 24  1  0
 27 26  2  0
 28 26  1  0
M  END
$$$$
