FQT.pdb
     RDKit          3D

 28 28  0  0  1  0  0  0  0  0999 V2000
    5.6588  -17.9185   25.3533 N   0  0  0  0  0  0  0  0  0  0  0  0
    6.1977  -16.5896   25.2459 C   0  0  1  0  0  0  0  0  0  0  0  0
    6.7291  -16.0499   26.5445 C   0  0  0  0  0  0  0  0  0  0  0  0
    6.8355  -14.5713   26.4526 C   0  0  0  0  0  0  0  0  0  0  0  0
    5.6704  -13.8456   26.4844 C   0  0  0  0  0  0  0  0  0  0  0  0
    5.7451  -12.4666   26.4003 C   0  0  0  0  0  0  0  0  0  0  0  0
    6.9450  -11.8213   26.2873 C   0  0  0  0  0  0  0  0  0  0  0  0
    8.1065  -12.5529   26.2560 C   0  0  0  0  0  0  0  0  0  0  0  0
    8.0519  -13.9349   26.3390 C   0  0  0  0  0  0  0  0  0  0  0  0
    7.2957  -16.5328   24.2210 C   0  0  0  0  0  0  0  0  0  0  0  0
    8.0890  -17.4885   24.0717 O   0  0  0  0  0  0  0  0  0  0  0  0
    7.0583  -12.6873   19.3411 N   0  0  0  0  0  0  0  0  0  0  0  0
    8.1950  -13.4506   18.9851 C   0  0  0  0  0  0  0  0  0  0  0  0
    8.7067  -13.4572   17.8393 O   0  0  0  0  0  0  0  0  0  0  0  0
    8.8169  -14.2991   20.0495 C   0  0  0  0  0  0  0  0  0  0  0  0
    7.8843  -14.4098   21.2223 C   0  0  0  0  0  0  0  0  0  0  0  0
    8.3978  -15.2816   22.3177 C   0  0  2  0  0  0  0  0  0  0  0  0
    7.4269  -15.3710   23.4134 N   0  0  0  0  0  0  0  0  0  0  0  0
    9.7305  -14.9404   22.8426 C   0  0  0  0  0  0  0  0  0  0  0  0
    9.8979  -14.0659   23.6927 O   0  0  0  0  0  0  0  0  0  0  0  0
   12.8268  -17.5762   25.0043 C   0  0  0  0  0  0  0  0  0  0  0  0
   11.6384  -17.0667   24.2415 C   0  0  1  0  0  0  0  0  0  0  0  0
   10.6934  -16.5074   25.1084 O   0  0  0  0  0  0  0  0  0  0  0  0
   12.0016  -15.9953   23.2418 C   0  0  2  0  0  0  0  0  0  0  0  0
   10.9250  -15.6116   22.3919 N   0  0  0  0  0  0  0  0  0  0  0  0
   13.1295  -16.5122   22.4335 C   0  0  0  0  0  0  0  0  0  0  0  0
   12.8801  -17.2008   21.4149 O   0  0  0  0  0  0  0  0  0  0  0  0
   14.4593  -16.2682   22.7534 O   0  0  0  0  0  0  0  0  0  0  0  0
  2  1  1  1
  2  3  1  0
  3  4  1  0
  4  9  2  0
  5  6  2  0
  5  4  1  0
  6  7  1  0
  7  8  2  0
  9  8  1  0
 10 18  1  0
 10  2  1  0
 11 10  2  0
 13 12  1  0
 13 15  1  0
 14 13  2  0
 17 16  1  6
 16 15  1  0
 17 18  1  0
 19 20  2  0
 19 17  1  0
 22 21  1  1
 22 23  1  0
 24 22  1  0
 24 25  1  6
 25 19  1  0
 26 24  1  0
 27 26  2  0
 28 26  1  0
M  END
$$$$
