FQT.pdb
     RDKit          3D

 28 28  0  0  1  0  0  0  0  0999 V2000
    5.4835  -17.8868   24.5814 N   0  0  0  0  0  0  0  0  0  0  0  0
    6.0051  -16.5494   24.6662 C   0  0  1  0  0  0  0  0  0  0  0  0
    6.6601  -16.2423   25.9840 C   0  0  0  0  0  0  0  0  0  0  0  0
    6.6817  -14.7713   26.1883 C   0  0  0  0  0  0  0  0  0  0  0  0
    7.8932  -14.1830   26.4554 C   0  0  0  0  0  0  0  0  0  0  0  0
    7.9375  -12.8138   26.6493 C   0  0  0  0  0  0  0  0  0  0  0  0
    6.8091  -12.0451   26.5803 C   0  0  0  0  0  0  0  0  0  0  0  0
    5.6006  -12.6396   26.3129 C   0  0  0  0  0  0  0  0  0  0  0  0
    5.5362  -14.0096   26.1158 C   0  0  0  0  0  0  0  0  0  0  0  0
    6.9966  -16.2853   23.5680 C   0  0  0  0  0  0  0  0  0  0  0  0
    7.6965  -17.2079   23.0949 O   0  0  0  0  0  0  0  0  0  0  0  0
    6.6897  -13.9760   18.4447 N   0  0  0  0  0  0  0  0  0  0  0  0
    8.0056  -13.9115   18.9599 C   0  0  0  0  0  0  0  0  0  0  0  0
    8.9574  -14.6180   18.5480 O   0  0  0  0  0  0  0  0  0  0  0  0
    8.2667  -12.9363   20.0647 C   0  0  0  0  0  0  0  0  0  0  0  0
    7.4929  -13.3349   21.2894 C   0  0  0  0  0  0  0  0  0  0  0  0
    7.8873  -14.6621   21.8433 C   0  0  2  0  0  0  0  0  0  0  0  0
    7.1342  -14.9633   23.0653 N   0  0  0  0  0  0  0  0  0  0  0  0
    9.3283  -14.8647   22.0682 C   0  0  0  0  0  0  0  0  0  0  0  0
   10.1728  -14.5757   21.2205 O   0  0  0  0  0  0  0  0  0  0  0  0
   11.1577  -15.4250   26.0487 C   0  0  0  0  0  0  0  0  0  0  0  0
   11.4811  -16.3232   24.8902 C   0  0  1  0  0  0  0  0  0  0  0  0
   10.7058  -17.4871   24.9316 O   0  0  0  0  0  0  0  0  0  0  0  0
   11.2181  -15.6710   23.5543 C   0  0  2  0  0  0  0  0  0  0  0  0
    9.8403  -15.4158   23.2989 N   0  0  0  0  0  0  0  0  0  0  0  0
   11.7724  -16.5649   22.5119 C   0  0  0  0  0  0  0  0  0  0  0  0
   10.9905  -17.0822   21.6783 O   0  0  0  0  0  0  0  0  0  0  0  0
   13.1268  -16.8587   22.4141 O   0  0  0  0  0  0  0  0  0  0  0  0
  2  1  1  1
  2  3  1  0
  3  4  1  0
  4  9  2  0
  5  6  2  0
  5  4  1  0
  6  7  1  0
  7  8  2  0
  9  8  1  0
 10 18  1  0
 10  2  1  0
 11 10  2  0
 13 12  1  0
 13 15  1  0
 14 13  2  0
 17 16  1  1
 16 15  1  0
 17 18  1  0
 19 20  2  0
 19 17  1  0
 22 21  1  1
 22 23  1  0
 24 22  1  0
 24 25  1  6
 25 19  1  0
 26 24  1  0
 27 26  2  0
 28 26  1  0
M  END
$$$$
