FQT.pdb
     RDKit          3D

 28 28  0  0  1  0  0  0  0  0999 V2000
    5.5778  -17.8981   24.4678 N   0  0  0  0  0  0  0  0  0  0  0  0
    6.1270  -16.5804   24.6411 C   0  0  1  0  0  0  0  0  0  0  0  0
    6.7824  -16.3737   25.9782 C   0  0  0  0  0  0  0  0  0  0  0  0
    6.9823  -14.9195   26.2052 C   0  0  0  0  0  0  0  0  0  0  0  0
    5.8629  -14.1358   26.3381 C   0  0  0  0  0  0  0  0  0  0  0  0
    6.0247  -12.7782   26.5503 C   0  0  0  0  0  0  0  0  0  0  0  0
    7.2656  -12.2099   26.6291 C   0  0  0  0  0  0  0  0  0  0  0  0
    8.3811  -12.9994   26.4954 C   0  0  0  0  0  0  0  0  0  0  0  0
    8.2392  -14.3611   26.2823 C   0  0  0  0  0  0  0  0  0  0  0  0
    7.1289  -16.2667   23.5655 C   0  0  0  0  0  0  0  0  0  0  0  0
    7.9062  -17.1455   23.1315 O   0  0  0  0  0  0  0  0  0  0  0  0
    9.3505  -14.2890   18.3236 N   0  0  0  0  0  0  0  0  0  0  0  0
    8.1585  -13.8964   18.9765 C   0  0  0  0  0  0  0  0  0  0  0  0
    7.0232  -14.3562   18.7036 O   0  0  0  0  0  0  0  0  0  0  0  0
    8.2710  -12.8681   20.0580 C   0  0  0  0  0  0  0  0  0  0  0  0
    7.4890  -13.3086   21.2630 C   0  0  0  0  0  0  0  0  0  0  0  0
    7.9277  -14.6221   21.8163 C   0  0  2  0  0  0  0  0  0  0  0  0
    7.1867  -14.9480   23.0393 N   0  0  0  0  0  0  0  0  0  0  0  0
    9.3749  -14.7772   22.0392 C   0  0  0  0  0  0  0  0  0  0  0  0
   10.2097  -14.4257   21.2055 O   0  0  0  0  0  0  0  0  0  0  0  0
   11.3674  -15.2328   25.9555 C   0  0  0  0  0  0  0  0  0  0  0  0
   11.5777  -16.2106   24.8361 C   0  0  1  0  0  0  0  0  0  0  0  0
   10.7385  -17.3206   24.9809 O   0  0  0  0  0  0  0  0  0  0  0  0
   11.2857  -15.6168   23.4792 C   0  0  2  0  0  0  0  0  0  0  0  0
    9.9049  -15.3519   23.2513 N   0  0  0  0  0  0  0  0  0  0  0  0
   11.7965  -16.5667   22.4644 C   0  0  0  0  0  0  0  0  0  0  0  0
   10.9837  -17.1070   21.6762 O   0  0  0  0  0  0  0  0  0  0  0  0
   13.1426  -16.8888   22.3445 O   0  0  0  0  0  0  0  0  0  0  0  0
  2  1  1  1
  2  3  1  0
  3  4  1  0
  4  9  2  0
  5  6  2  0
  5  4  1  0
  6  7  1  0
  7  8  2  0
  9  8  1  0
 10 18  1  0
 10  2  1  0
 11 10  2  0
 13 12  1  0
 13 15  1  0
 14 13  2  0
 17 16  1  1
 16 15  1  0
 17 18  1  0
 19 20  2  0
 19 17  1  0
 22 21  1  1
 22 23  1  0
 24 22  1  0
 24 25  1  6
 25 19  1  0
 26 24  1  0
 27 26  2  0
 28 26  1  0
M  END
$$$$
