VYC.pdb
     RDKit          3D

 26 26  0  0  1  0  0  0  0  0999 V2000
   25.4910  -26.1723  -16.9949 C   0  0  0  0  0  0  0  0  0  0  0  0
   25.2724  -24.9756  -16.0938 C   0  0  2  0  0  0  0  0  0  0  0  0
   24.0922  -25.3085  -15.2012 C   0  0  0  0  0  0  0  0  0  0  0  0
   24.9126  -23.7778  -16.9101 C   0  0  2  0  0  0  0  0  0  0  0  0
   26.0208  -23.4919  -17.7969 N   0  0  0  0  0  0  0  0  0  0  0  0
   24.5593  -22.5868  -16.1623 C   0  0  0  0  0  0  0  0  0  0  0  0
   25.4827  -21.8515  -15.7235 O   0  0  0  0  0  0  0  0  0  0  0  0
   24.4219  -17.7805  -20.6331 O   0  0  0  0  0  0  0  0  0  0  0  0
   23.8563  -18.3204  -19.4632 C   0  0  0  0  0  0  0  0  0  0  0  0
   24.1957  -17.8011  -18.2367 C   0  0  0  0  0  0  0  0  0  0  0  0
   23.6310  -18.3412  -17.0780 C   0  0  0  0  0  0  0  0  0  0  0  0
   22.7387  -19.3864  -17.1420 C   0  0  0  0  0  0  0  0  0  0  0  0
   22.1375  -19.9666  -15.9597 C   0  0  0  0  0  0  0  0  0  0  0  0
   22.9809  -20.9393  -15.2020 C   0  0  2  0  0  0  0  0  0  0  0  0
   23.2324  -22.1643  -15.8729 N   0  0  0  0  0  0  0  0  0  0  0  0
   22.2924  -21.1516  -13.8730 C   0  0  0  0  0  0  0  0  0  0  0  0
   21.3222  -21.9358  -13.7996 O   0  0  0  0  0  0  0  0  0  0  0  0
   22.4214  -19.8819  -18.3871 C   0  0  0  0  0  0  0  0  0  0  0  0
   22.9673  -19.3645  -19.5540 C   0  0  0  0  0  0  0  0  0  0  0  0
   22.7195  -20.4818  -12.7012 N   0  0  0  0  0  0  0  0  0  0  0  0
   22.1261  -20.5565  -11.3950 C   0  0  1  0  0  0  0  0  0  0  0  0
   22.9295  -19.9716  -10.2892 C   0  0  0  0  0  0  0  0  0  0  0  0
   22.0583  -20.3081   -8.7222 S   0  0  0  0  0  0  0  0  0  0  0  0
   20.6912  -20.1531  -11.3422 C   0  0  0  0  0  0  0  0  0  0  0  0
   20.3380  -19.0570  -11.8020 O   0  0  0  0  0  0  0  0  0  0  0  0
   19.7237  -20.9752  -10.7875 O   0  0  0  0  0  0  0  0  0  0  0  0
  2  1  1  6
  2  4  1  0
  3  2  1  0
  4  6  1  0
  4  5  1  6
  6  7  2  0
  9  8  1  0
  9 19  2  0
 10  9  1  0
 11 10  2  0
 11 12  1  0
 12 18  2  0
 14 13  1  6
 13 12  1  0
 15 14  1  0
 15  6  1  0
 16 17  2  0
 16 14  1  0
 18 19  1  0
 20 16  1  0
 21 24  1  0
 21 20  1  0
 21 22  1  1
 23 22  1  0
 24 26  1  0
 25 24  2  0
M  END
$$$$
