VYC.pdb
     RDKit          3D

 26 26  0  0  1  0  0  0  0  0999 V2000
   38.1994  -11.8042   -8.6082 C   0  0  0  0  0  0  0  0  0  0  0  0
   37.7574  -11.2542   -7.2688 C   0  0  2  0  0  0  0  0  0  0  0  0
   36.2751  -11.5493   -7.1409 C   0  0  0  0  0  0  0  0  0  0  0  0
   37.9391   -9.7722   -7.2377 C   0  0  2  0  0  0  0  0  0  0  0  0
   37.2873   -9.2171   -8.4053 N   0  0  0  0  0  0  0  0  0  0  0  0
   39.3103   -9.3053   -7.1696 C   0  0  0  0  0  0  0  0  0  0  0  0
   39.8870   -8.9638   -8.2358 O   0  0  0  0  0  0  0  0  0  0  0  0
   39.3205   -2.7621   -7.1744 O   0  0  0  0  0  0  0  0  0  0  0  0
   39.9041   -3.9436   -6.6806 C   0  0  0  0  0  0  0  0  0  0  0  0
   39.3239   -4.6030   -5.6234 C   0  0  0  0  0  0  0  0  0  0  0  0
   39.9076   -5.7759   -5.1370 C   0  0  0  0  0  0  0  0  0  0  0  0
   41.0559   -6.2848   -5.6982 C   0  0  0  0  0  0  0  0  0  0  0  0
   41.6836   -7.4971   -5.2164 C   0  0  0  0  0  0  0  0  0  0  0  0
   41.4224   -8.7345   -6.0116 C   0  0  2  0  0  0  0  0  0  0  0  0
   40.0807   -9.1958   -5.9791 N   0  0  0  0  0  0  0  0  0  0  0  0
   42.3927   -9.7767   -5.5043 C   0  0  0  0  0  0  0  0  0  0  0  0
   42.1499  -10.3766   -4.4352 O   0  0  0  0  0  0  0  0  0  0  0  0
   41.6102   -5.5984   -6.7558 C   0  0  0  0  0  0  0  0  0  0  0  0
   41.0514   -4.4314   -7.2588 C   0  0  0  0  0  0  0  0  0  0  0  0
   43.5771  -10.0942   -6.2120 N   0  0  0  0  0  0  0  0  0  0  0  0
   44.5594  -11.0814   -5.8592 C   0  0  1  0  0  0  0  0  0  0  0  0
   44.8611  -12.0915   -6.9075 C   0  0  0  0  0  0  0  0  0  0  0  0
   45.9645  -13.3473   -6.1771 S   0  0  0  0  0  0  0  0  0  0  0  0
   45.7878  -10.5314   -5.2167 C   0  0  0  0  0  0  0  0  0  0  0  0
   46.3178   -9.5055   -5.6688 O   0  0  0  0  0  0  0  0  0  0  0  0
   46.3665  -11.1379   -4.1135 O   0  0  0  0  0  0  0  0  0  0  0  0
  2  1  1  6
  2  4  1  0
  3  2  1  0
  4  6  1  0
  4  5  1  6
  6  7  2  0
  9  8  1  0
  9 19  2  0
 10  9  1  0
 11 10  2  0
 11 12  1  0
 12 18  2  0
 14 13  1  1
 13 12  1  0
 15 14  1  0
 15  6  1  0
 16 17  2  0
 16 14  1  0
 18 19  1  0
 20 16  1  0
 21 24  1  0
 21 20  1  0
 21 22  1  6
 23 22  1  0
 24 26  1  0
 25 24  2  0
M  END
$$$$
