VYC.pdb
     RDKit          3D

 26 26  0  0  1  0  0  0  0  0999 V2000
   23.5067  -13.5517  -16.6854 C   0  0  0  0  0  0  0  0  0  0  0  0
   24.4500  -12.9099  -17.6805 C   0  0  2  0  0  0  0  0  0  0  0  0
   25.8069  -13.5569  -17.4788 C   0  0  0  0  0  0  0  0  0  0  0  0
   24.5848  -11.4508  -17.3919 C   0  0  2  0  0  0  0  0  0  0  0  0
   25.1840  -11.3077  -16.0816 N   0  0  0  0  0  0  0  0  0  0  0  0
   23.3602  -10.6774  -17.4614 C   0  0  0  0  0  0  0  0  0  0  0  0
   22.7320  -10.6355  -18.5521 O   0  0  0  0  0  0  0  0  0  0  0  0
   17.6650  -14.2414  -16.6200 O   0  0  0  0  0  0  0  0  0  0  0  0
   18.3709  -13.0468  -16.3854 C   0  0  0  0  0  0  0  0  0  0  0  0
   18.6292  -12.1890  -17.4278 C   0  0  0  0  0  0  0  0  0  0  0  0
   19.3307  -11.0040  -17.1891 C   0  0  0  0  0  0  0  0  0  0  0  0
   19.7691  -10.6788  -15.9264 C   0  0  0  0  0  0  0  0  0  0  0  0
   20.4977   -9.4592  -15.6483 C   0  0  0  0  0  0  0  0  0  0  0  0
   21.6327   -9.1461  -16.5678 C   0  0  2  0  0  0  0  0  0  0  0  0
   22.7913   -9.9446  -16.3833 N   0  0  0  0  0  0  0  0  0  0  0  0
   21.9254   -7.6734  -16.3933 C   0  0  0  0  0  0  0  0  0  0  0  0
   22.5611   -7.2858  -15.3896 O   0  0  0  0  0  0  0  0  0  0  0  0
   19.4928  -11.5612  -14.9057 C   0  0  0  0  0  0  0  0  0  0  0  0
   18.7981  -12.7449  -15.1146 C   0  0  0  0  0  0  0  0  0  0  0  0
   21.4963   -6.7144  -17.3423 N   0  0  0  0  0  0  0  0  0  0  0  0
   21.7053   -5.2938  -17.2945 C   0  0  1  0  0  0  0  0  0  0  0  0
   21.8481   -4.6202  -18.6121 C   0  0  0  0  0  0  0  0  0  0  0  0
   22.9352   -5.6492  -19.6547 S   0  0  0  0  0  0  0  0  0  0  0  0
   20.7919   -4.5638  -16.3687 C   0  0  0  0  0  0  0  0  0  0  0  0
   20.9302   -3.3437  -16.1955 O   0  0  0  0  0  0  0  0  0  0  0  0
   19.7775   -5.2135  -15.6842 O   0  0  0  0  0  0  0  0  0  0  0  0
  2  1  1  1
  2  4  1  0
  3  2  1  0
  4  6  1  0
  4  5  1  1
  6  7  2  0
  9  8  1  0
  9 19  2  0
 10  9  1  0
 11 10  2  0
 11 12  1  0
 12 18  2  0
 14 13  1  1
 13 12  1  0
 15 14  1  0
 15  6  1  0
 16 17  2  0
 16 14  1  0
 18 19  1  0
 20 16  1  0
 21 24  1  0
 21 20  1  0
 21 22  1  6
 23 22  1  0
 24 26  1  0
 25 24  2  0
M  END
$$$$
