VYC.pdb
     RDKit          3D

 26 26  0  0  1  0  0  0  0  0999 V2000
   17.3700  -28.7523   -2.7519 C   0  0  0  0  0  0  0  0  0  0  0  0
   17.3116  -27.3076   -2.3034 C   0  0  2  0  0  0  0  0  0  0  0  0
   16.7354  -27.3067   -0.9003 C   0  0  0  0  0  0  0  0  0  0  0  0
   16.3866  -26.5340   -3.1846 C   0  0  2  0  0  0  0  0  0  0  0  0
   16.9227  -26.5614   -4.5292 N   0  0  0  0  0  0  0  0  0  0  0  0
   16.1303  -25.1643   -2.7836 C   0  0  0  0  0  0  0  0  0  0  0  0
   16.9649  -24.2752   -3.0984 O   0  0  0  0  0  0  0  0  0  0  0  0
   12.4422  -22.5930   -7.7257 O   0  0  0  0  0  0  0  0  0  0  0  0
   12.6913  -22.6563   -6.3421 C   0  0  0  0  0  0  0  0  0  0  0  0
   12.4226  -23.8136   -5.6511 C   0  0  0  0  0  0  0  0  0  0  0  0
   12.6719  -23.8710   -4.2771 C   0  0  0  0  0  0  0  0  0  0  0  0
   13.1828  -22.7874   -3.6009 C   0  0  0  0  0  0  0  0  0  0  0  0
   13.4513  -22.8167   -2.1787 C   0  0  0  0  0  0  0  0  0  0  0  0
   14.7869  -23.3480   -1.7716 C   0  0  2  0  0  0  0  0  0  0  0  0
   14.9945  -24.7241   -2.0494 N   0  0  0  0  0  0  0  0  0  0  0  0
   14.9355  -23.0379   -0.2996 C   0  0  0  0  0  0  0  0  0  0  0  0
   14.5330  -23.8633    0.5480 O   0  0  0  0  0  0  0  0  0  0  0  0
   13.4401  -21.6443   -4.3247 C   0  0  0  0  0  0  0  0  0  0  0  0
   13.2020  -21.5599   -5.6898 C   0  0  0  0  0  0  0  0  0  0  0  0
   15.5222  -21.8298    0.1483 N   0  0  0  0  0  0  0  0  0  0  0  0
   15.7547  -21.4313    1.5088 C   0  0  1  0  0  0  0  0  0  0  0  0
   16.7877  -20.3800    1.7034 C   0  0  0  0  0  0  0  0  0  0  0  0
   16.9381  -20.0642    3.4938 S   0  0  0  0  0  0  0  0  0  0  0  0
   14.5164  -21.1778    2.3005 C   0  0  0  0  0  0  0  0  0  0  0  0
   14.3598  -21.7293    3.4001 O   0  0  0  0  0  0  0  0  0  0  0  0
   13.5188  -20.3331    1.8415 O   0  0  0  0  0  0  0  0  0  0  0  0
  2  1  1  6
  2  4  1  0
  3  2  1  0
  4  6  1  0
  4  5  1  6
  6  7  2  0
  9  8  1  0
  9 19  2  0
 10  9  1  0
 11 10  2  0
 11 12  1  0
 12 18  2  0
 14 13  1  1
 13 12  1  0
 15 14  1  0
 15  6  1  0
 16 17  2  0
 16 14  1  0
 18 19  1  0
 20 16  1  0
 21 24  1  0
 21 20  1  0
 21 22  1  6
 23 22  1  0
 24 26  1  0
 25 24  2  0
M  END
$$$$
