VYC.pdb
     RDKit          3D

 26 26  0  0  1  0  0  0  0  0999 V2000
   21.7176  -14.6577  -17.8036 C   0  0  0  0  0  0  0  0  0  0  0  0
   21.6769  -13.5968  -16.7244 C   0  0  2  0  0  0  0  0  0  0  0  0
   20.6453  -14.0453  -15.7069 C   0  0  0  0  0  0  0  0  0  0  0  0
   21.2238  -12.2957  -17.3010 C   0  0  2  0  0  0  0  0  0  0  0  0
   21.7205  -12.2110  -18.6583 N   0  0  0  0  0  0  0  0  0  0  0  0
   21.6068  -11.1092  -16.5606 C   0  0  0  0  0  0  0  0  0  0  0  0
   21.3960  -11.0759  -15.3195 O   0  0  0  0  0  0  0  0  0  0  0  0
   28.1271  -11.9384  -16.1999 O   0  0  0  0  0  0  0  0  0  0  0  0
   27.0658  -11.0167  -16.2670 C   0  0  0  0  0  0  0  0  0  0  0  0
   26.6357  -10.3844  -15.1249 C   0  0  0  0  0  0  0  0  0  0  0  0
   25.5813   -9.4700  -15.1974 C   0  0  0  0  0  0  0  0  0  0  0  0
   24.9637   -9.1896  -16.3943 C   0  0  0  0  0  0  0  0  0  0  0  0
   23.8696   -8.2476  -16.5007 C   0  0  0  0  0  0  0  0  0  0  0  0
   22.4967   -8.8109  -16.3290 C   0  0  2  0  0  0  0  0  0  0  0  0
   22.2135   -9.9524  -17.1232 N   0  0  0  0  0  0  0  0  0  0  0  0
   21.5360   -7.6766  -16.6034 C   0  0  0  0  0  0  0  0  0  0  0  0
   21.2818   -7.3560  -17.7842 O   0  0  0  0  0  0  0  0  0  0  0  0
   25.4203   -9.8412  -17.5184 C   0  0  0  0  0  0  0  0  0  0  0  0
   26.4655  -10.7540  -17.4750 C   0  0  0  0  0  0  0  0  0  0  0  0
   20.9119   -6.9624  -15.5523 N   0  0  0  0  0  0  0  0  0  0  0  0
   20.0099   -5.8511  -15.6753 C   0  0  1  0  0  0  0  0  0  0  0  0
   19.1352   -5.5996  -14.4998 C   0  0  0  0  0  0  0  0  0  0  0  0
   17.8888   -4.3578  -14.9818 S   0  0  0  0  0  0  0  0  0  0  0  0
   20.6309   -4.6051  -16.2102 C   0  0  0  0  0  0  0  0  0  0  0  0
   21.6451   -4.1372  -15.6714 O   0  0  0  0  0  0  0  0  0  0  0  0
   20.1044   -3.9417  -17.3067 O   0  0  0  0  0  0  0  0  0  0  0  0
  2  1  1  6
  2  4  1  0
  3  2  1  0
  4  6  1  0
  4  5  1  6
  6  7  2  0
  9  8  1  0
  9 19  2  0
 10  9  1  0
 11 10  2  0
 11 12  1  0
 12 18  2  0
 14 13  1  6
 13 12  1  0
 15 14  1  0
 15  6  1  0
 16 17  2  0
 16 14  1  0
 18 19  1  0
 20 16  1  0
 21 24  1  0
 21 20  1  0
 21 22  1  1
 23 22  1  0
 24 26  1  0
 25 24  2  0
M  END
$$$$
