VYC.pdb
     RDKit          3D

 26 26  0  0  1  0  0  0  0  0999 V2000
   17.9111  -13.7065  -15.2980 C   0  0  0  0  0  0  0  0  0  0  0  0
   17.9544  -12.2418  -15.6781 C   0  0  2  0  0  0  0  0  0  0  0  0
   19.3609  -11.7543  -15.3868 C   0  0  0  0  0  0  0  0  0  0  0  0
   17.0080  -11.4624  -14.8252 C   0  0  2  0  0  0  0  0  0  0  0  0
   15.6730  -11.9721  -15.0578 N   0  0  0  0  0  0  0  0  0  0  0  0
   17.0266  -10.0245  -15.0125 C   0  0  0  0  0  0  0  0  0  0  0  0
   16.4621   -9.5392  -16.0282 O   0  0  0  0  0  0  0  0  0  0  0  0
   15.4491   -7.7479   -8.3313 O   0  0  0  0  0  0  0  0  0  0  0  0
   15.6981   -7.5481   -9.7018 C   0  0  0  0  0  0  0  0  0  0  0  0
   16.4585   -6.4784  -10.1101 C   0  0  0  0  0  0  0  0  0  0  0  0
   16.7026   -6.2849  -11.4725 C   0  0  0  0  0  0  0  0  0  0  0  0
   16.1946   -7.1476  -12.4159 C   0  0  0  0  0  0  0  0  0  0  0  0
   16.4304   -6.9732  -13.8336 C   0  0  0  0  0  0  0  0  0  0  0  0
   17.6079   -7.6978  -14.3992 C   0  0  2  0  0  0  0  0  0  0  0  0
   17.6395   -9.0911  -14.1315 N   0  0  0  0  0  0  0  0  0  0  0  0
   18.8347   -6.9908  -13.8699 C   0  0  0  0  0  0  0  0  0  0  0  0
   19.4511   -7.4721  -12.8952 O   0  0  0  0  0  0  0  0  0  0  0  0
   15.4373   -8.2086  -11.9714 C   0  0  0  0  0  0  0  0  0  0  0  0
   15.1792   -8.4245  -10.6245 C   0  0  0  0  0  0  0  0  0  0  0  0
   19.3078   -5.7901  -14.4521 N   0  0  0  0  0  0  0  0  0  0  0  0
   20.4477   -5.0181  -14.0416 C   0  0  1  0  0  0  0  0  0  0  0  0
   21.7735   -5.6271  -14.3274 C   0  0  0  0  0  0  0  0  0  0  0  0
   23.0529   -4.5685  -13.5722 S   0  0  0  0  0  0  0  0  0  0  0  0
   20.3837   -3.5744  -14.4103 C   0  0  0  0  0  0  0  0  0  0  0  0
   19.8799   -3.2320  -15.4904 O   0  0  0  0  0  0  0  0  0  0  0  0
   20.8765   -2.5865  -13.5730 O   0  0  0  0  0  0  0  0  0  0  0  0
  2  1  1  1
  2  4  1  0
  3  2  1  0
  4  6  1  0
  4  5  1  6
  6  7  2  0
  9  8  1  0
  9 19  2  0
 10  9  1  0
 11 10  2  0
 11 12  1  0
 12 18  2  0
 14 13  1  1
 13 12  1  0
 15 14  1  0
 15  6  1  0
 16 17  2  0
 16 14  1  0
 18 19  1  0
 20 16  1  0
 21 24  1  0
 21 20  1  0
 21 22  1  6
 23 22  1  0
 24 26  1  0
 25 24  2  0
M  END
$$$$
