VYC.pdb
     RDKit          3D

 26 26  0  0  1  0  0  0  0  0999 V2000
   29.7528  -23.6147  -16.7419 C   0  0  0  0  0  0  0  0  0  0  0  0
   28.6381  -23.5432  -17.7637 C   0  0  2  0  0  0  0  0  0  0  0  0
   29.2941  -23.3295  -19.1144 C   0  0  0  0  0  0  0  0  0  0  0  0
   27.7603  -22.3678  -17.4838 C   0  0  2  0  0  0  0  0  0  0  0  0
   28.5252  -21.1664  -17.7442 N   0  0  0  0  0  0  0  0  0  0  0  0
   27.1883  -22.3094  -16.1525 C   0  0  0  0  0  0  0  0  0  0  0  0
   26.3541  -23.1896  -15.8132 O   0  0  0  0  0  0  0  0  0  0  0  0
   24.7053  -20.3580   -7.9248 O   0  0  0  0  0  0  0  0  0  0  0  0
   25.3831  -20.3832   -9.1578 C   0  0  0  0  0  0  0  0  0  0  0  0
   25.3548  -19.2797   -9.9766 C   0  0  0  0  0  0  0  0  0  0  0  0
   26.0297  -19.3102  -11.2000 C   0  0  0  0  0  0  0  0  0  0  0  0
   26.7241  -20.4278  -11.6017 C   0  0  0  0  0  0  0  0  0  0  0  0
   27.4325  -20.4892  -12.8627 C   0  0  0  0  0  0  0  0  0  0  0  0
   26.7554  -21.2401  -13.9624 C   0  0  2  0  0  0  0  0  0  0  0  0
   27.4919  -21.3244  -15.1725 N   0  0  0  0  0  0  0  0  0  0  0  0
   25.4109  -20.5784  -14.1618 C   0  0  0  0  0  0  0  0  0  0  0  0
   25.3247  -19.5632  -14.8854 O   0  0  0  0  0  0  0  0  0  0  0  0
   26.7312  -21.5152  -10.7566 C   0  0  0  0  0  0  0  0  0  0  0  0
   26.0696  -21.5120   -9.5361 C   0  0  0  0  0  0  0  0  0  0  0  0
   24.2387  -21.0807  -13.5470 N   0  0  0  0  0  0  0  0  0  0  0  0
   22.8981  -20.5890  -13.7053 C   0  0  1  0  0  0  0  0  0  0  0  0
   22.4111  -20.4888  -15.1063 C   0  0  0  0  0  0  0  0  0  0  0  0
   20.8061  -19.6220  -15.0830 S   0  0  0  0  0  0  0  0  0  0  0  0
   21.8982  -21.2096  -12.7892 C   0  0  0  0  0  0  0  0  0  0  0  0
   22.1635  -22.2744  -12.2116 O   0  0  0  0  0  0  0  0  0  0  0  0
   20.6624  -20.6273  -12.5580 O   0  0  0  0  0  0  0  0  0  0  0  0
  2  1  1  1
  2  4  1  0
  3  2  1  0
  4  6  1  0
  4  5  1  1
  6  7  2  0
  9  8  1  0
  9 19  2  0
 10  9  1  0
 11 10  2  0
 11 12  1  0
 12 18  2  0
 14 13  1  1
 13 12  1  0
 15 14  1  0
 15  6  1  0
 16 17  2  0
 16 14  1  0
 18 19  1  0
 20 16  1  0
 21 24  1  0
 21 20  1  0
 21 22  1  6
 23 22  1  0
 24 26  1  0
 25 24  2  0
M  END
$$$$
