VYC.pdb
     RDKit          3D

 26 26  0  0  1  0  0  0  0  0999 V2000
   18.8342  -18.9566  -18.8674 C   0  0  0  0  0  0  0  0  0  0  0  0
   20.0730  -18.8711  -18.0015 C   0  0  2  0  0  0  0  0  0  0  0  0
   21.0153  -19.9614  -18.4750 C   0  0  0  0  0  0  0  0  0  0  0  0
   19.7228  -19.1482  -16.5763 C   0  0  2  0  0  0  0  0  0  0  0  0
   18.7838  -18.1355  -16.1417 N   0  0  0  0  0  0  0  0  0  0  0  0
   20.8390  -19.2147  -15.6531 C   0  0  0  0  0  0  0  0  0  0  0  0
   21.4160  -18.1450  -15.3230 O   0  0  0  0  0  0  0  0  0  0  0  0
   26.4513  -21.0443   -9.1660 O   0  0  0  0  0  0  0  0  0  0  0  0
   25.3944  -21.0683  -10.0948 C   0  0  0  0  0  0  0  0  0  0  0  0
   24.3449  -20.1912   -9.9596 C   0  0  0  0  0  0  0  0  0  0  0  0
   23.2978  -20.2195  -10.8848 C   0  0  0  0  0  0  0  0  0  0  0  0
   23.2977  -21.1117  -11.9320 C   0  0  0  0  0  0  0  0  0  0  0  0
   22.2278  -21.1647  -12.9058 C   0  0  0  0  0  0  0  0  0  0  0  0
   22.4342  -20.3713  -14.1546 C   0  0  2  0  0  0  0  0  0  0  0  0
   21.3530  -20.4073  -15.0731 N   0  0  0  0  0  0  0  0  0  0  0  0
   23.7186  -20.8771  -14.7705 C   0  0  0  0  0  0  0  0  0  0  0  0
   23.7210  -21.9653  -15.3850 O   0  0  0  0  0  0  0  0  0  0  0  0
   24.3649  -21.9759  -12.0369 C   0  0  0  0  0  0  0  0  0  0  0  0
   25.4179  -21.9694  -11.1322 C   0  0  0  0  0  0  0  0  0  0  0  0
   24.9274  -20.1469  -14.6697 N   0  0  0  0  0  0  0  0  0  0  0  0
   26.1975  -20.4891  -15.2471 C   0  0  1  0  0  0  0  0  0  0  0  0
   26.6912  -21.8594  -14.9491 C   0  0  0  0  0  0  0  0  0  0  0  0
   28.3460  -22.0358  -15.6961 S   0  0  0  0  0  0  0  0  0  0  0  0
   26.3433  -20.1230  -16.6855 C   0  0  0  0  0  0  0  0  0  0  0  0
   25.3455  -19.8002  -17.3473 O   0  0  0  0  0  0  0  0  0  0  0  0
   27.5760  -20.1315  -17.3179 O   0  0  0  0  0  0  0  0  0  0  0  0
  2  1  1  6
  2  4  1  0
  3  2  1  0
  4  6  1  0
  4  5  1  1
  6  7  2  0
  9  8  1  0
  9 19  2  0
 10  9  1  0
 11 10  2  0
 11 12  1  0
 12 18  2  0
 14 13  1  1
 13 12  1  0
 15 14  1  0
 15  6  1  0
 16 17  2  0
 16 14  1  0
 18 19  1  0
 20 16  1  0
 21 24  1  0
 21 20  1  0
 21 22  1  6
 23 22  1  0
 24 26  1  0
 25 24  2  0
M  END
$$$$
