VYC.pdb
     RDKit          3D

 26 26  0  0  1  0  0  0  0  0999 V2000
   27.9318  -34.2528  -16.6995 C   0  0  0  0  0  0  0  0  0  0  0  0
   27.8403  -33.7687  -15.2680 C   0  0  2  0  0  0  0  0  0  0  0  0
   27.9121  -34.9987  -14.3835 C   0  0  0  0  0  0  0  0  0  0  0  0
   26.5224  -33.1061  -15.0340 C   0  0  2  0  0  0  0  0  0  0  0  0
   26.4297  -31.9682  -15.9245 N   0  0  0  0  0  0  0  0  0  0  0  0
   26.2588  -32.6883  -13.6707 C   0  0  0  0  0  0  0  0  0  0  0  0
   25.7156  -31.5692  -13.4749 O   0  0  0  0  0  0  0  0  0  0  0  0
   21.2403  -36.9138  -12.3467 O   0  0  0  0  0  0  0  0  0  0  0  0
   22.1170  -35.8621  -12.0219 C   0  0  0  0  0  0  0  0  0  0  0  0
   22.4090  -34.9006  -12.9597 C   0  0  0  0  0  0  0  0  0  0  0  0
   23.2803  -33.8583  -12.6317 C   0  0  0  0  0  0  0  0  0  0  0  0
   23.8532  -33.7761  -11.3837 C   0  0  0  0  0  0  0  0  0  0  0  0
   24.7591  -32.7088  -11.0147 C   0  0  0  0  0  0  0  0  0  0  0  0
   26.2142  -32.9821  -11.2131 C   0  0  2  0  0  0  0  0  0  0  0  0
   26.5658  -33.4467  -12.5072 N   0  0  0  0  0  0  0  0  0  0  0  0
   26.6128  -33.9604  -10.1319 C   0  0  0  0  0  0  0  0  0  0  0  0
   26.5579  -35.1878  -10.3602 O   0  0  0  0  0  0  0  0  0  0  0  0
   23.5385  -34.7563  -10.4689 C   0  0  0  0  0  0  0  0  0  0  0  0
   22.6764  -35.8025  -10.7680 C   0  0  0  0  0  0  0  0  0  0  0  0
   27.0497  -33.5213   -8.8588 N   0  0  0  0  0  0  0  0  0  0  0  0
   27.4960  -34.3397   -7.7657 C   0  0  1  0  0  0  0  0  0  0  0  0
   28.4073  -33.6766   -6.7961 C   0  0  0  0  0  0  0  0  0  0  0  0
   29.7757  -32.9214   -7.7368 S   0  0  0  0  0  0  0  0  0  0  0  0
   26.4178  -35.1263   -7.0999 C   0  0  0  0  0  0  0  0  0  0  0  0
   25.2305  -34.9242   -7.3950 O   0  0  0  0  0  0  0  0  0  0  0  0
   26.7026  -36.0909   -6.1470 O   0  0  0  0  0  0  0  0  0  0  0  0
  2  1  1  6
  2  4  1  0
  3  2  1  0
  4  6  1  0
  4  5  1  6
  6  7  2  0
  9  8  1  0
  9 19  2  0
 10  9  1  0
 11 10  2  0
 11 12  1  0
 12 18  2  0
 14 13  1  6
 13 12  1  0
 15 14  1  0
 15  6  1  0
 16 17  2  0
 16 14  1  0
 18 19  1  0
 20 16  1  0
 21 24  1  0
 21 20  1  0
 21 22  1  1
 23 22  1  0
 24 26  1  0
 25 24  2  0
M  END
$$$$
