VYC.pdb
     RDKit          3D

 26 26  0  0  1  0  0  0  0  0999 V2000
   21.4022  -22.7228  -16.1462 C   0  0  0  0  0  0  0  0  0  0  0  0
   21.5589  -23.2552  -14.7378 C   0  0  2  0  0  0  0  0  0  0  0  0
   20.3059  -24.0517  -14.4278 C   0  0  0  0  0  0  0  0  0  0  0  0
   21.6400  -22.1227  -13.7675 C   0  0  2  0  0  0  0  0  0  0  0  0
   20.4161  -21.3563  -13.8715 N   0  0  0  0  0  0  0  0  0  0  0  0
   22.7853  -21.2456  -13.9147 C   0  0  0  0  0  0  0  0  0  0  0  0
   22.6643  -20.2042  -14.6124 O   0  0  0  0  0  0  0  0  0  0  0  0
   22.7610  -20.4944   -7.5999 O   0  0  0  0  0  0  0  0  0  0  0  0
   23.4344  -20.2803   -8.8168 C   0  0  0  0  0  0  0  0  0  0  0  0
   22.8198  -19.5751   -9.8238 C   0  0  0  0  0  0  0  0  0  0  0  0
   23.4932  -19.3655  -11.0303 C   0  0  0  0  0  0  0  0  0  0  0  0
   24.7639  -19.8532  -11.2299 C   0  0  0  0  0  0  0  0  0  0  0  0
   25.4865  -19.6522  -12.4682 C   0  0  0  0  0  0  0  0  0  0  0  0
   25.1476  -20.5826  -13.5867 C   0  0  2  0  0  0  0  0  0  0  0  0
   24.0631  -21.4606  -13.3282 N   0  0  0  0  0  0  0  0  0  0  0  0
   26.4187  -21.3326  -13.9138 C   0  0  0  0  0  0  0  0  0  0  0  0
   26.8763  -22.1572  -13.0939 O   0  0  0  0  0  0  0  0  0  0  0  0
   25.3494  -20.5551  -10.1997 C   0  0  0  0  0  0  0  0  0  0  0  0
   24.7035  -20.7780   -8.9912 C   0  0  0  0  0  0  0  0  0  0  0  0
   27.1098  -21.1249  -15.1319 N   0  0  0  0  0  0  0  0  0  0  0  0
   27.4507  -22.1156  -16.1148 C   0  0  1  0  0  0  0  0  0  0  0  0
   26.6232  -23.3506  -16.0970 C   0  0  0  0  0  0  0  0  0  0  0  0
   27.4908  -24.6228  -17.0751 S   0  0  0  0  0  0  0  0  0  0  0  0
   27.6567  -21.5783  -17.4907 C   0  0  0  0  0  0  0  0  0  0  0  0
   26.7125  -21.0523  -18.0988 O   0  0  0  0  0  0  0  0  0  0  0  0
   28.8876  -21.6480  -18.1231 O   0  0  0  0  0  0  0  0  0  0  0  0
  2  1  1  6
  2  4  1  0
  3  2  1  0
  4  6  1  0
  4  5  1  6
  6  7  2  0
  9  8  1  0
  9 19  2  0
 10  9  1  0
 11 10  2  0
 11 12  1  0
 12 18  2  0
 14 13  1  1
 13 12  1  0
 15 14  1  0
 15  6  1  0
 16 17  2  0
 16 14  1  0
 18 19  1  0
 20 16  1  0
 21 24  1  0
 21 20  1  0
 21 22  1  6
 23 22  1  0
 24 26  1  0
 25 24  2  0
M  END
$$$$
