VYC.pdb
     RDKit          3D

 26 26  0  0  1  0  0  0  0  0999 V2000
   24.5014  -13.2338  -15.8753 C   0  0  0  0  0  0  0  0  0  0  0  0
   23.7568  -11.9439  -16.1464 C   0  0  2  0  0  0  0  0  0  0  0  0
   24.1770  -10.9604  -15.0709 C   0  0  0  0  0  0  0  0  0  0  0  0
   22.2851  -12.1655  -16.0222 C   0  0  2  0  0  0  0  0  0  0  0  0
   21.8952  -13.1454  -17.0142 N   0  0  0  0  0  0  0  0  0  0  0  0
   21.4557  -10.9824  -16.1450 C   0  0  0  0  0  0  0  0  0  0  0  0
   21.2876  -10.4769  -17.2861 O   0  0  0  0  0  0  0  0  0  0  0  0
   15.8297  -12.8426  -18.4568 O   0  0  0  0  0  0  0  0  0  0  0  0
   16.5121  -11.9503  -17.6091 C   0  0  0  0  0  0  0  0  0  0  0  0
   16.5956  -10.6194  -17.9418 C   0  0  0  0  0  0  0  0  0  0  0  0
   17.2745   -9.7377  -17.0964 C   0  0  0  0  0  0  0  0  0  0  0  0
   17.8628  -10.1781  -15.9334 C   0  0  0  0  0  0  0  0  0  0  0  0
   18.5724   -9.2891  -15.0380 C   0  0  0  0  0  0  0  0  0  0  0  0
   20.0398   -9.1461  -15.2784 C   0  0  2  0  0  0  0  0  0  0  0  0
   20.7995  -10.3260  -15.0672 N   0  0  0  0  0  0  0  0  0  0  0  0
   20.5043   -8.0077  -14.3990 C   0  0  0  0  0  0  0  0  0  0  0  0
   21.1551   -8.2561  -13.3615 O   0  0  0  0  0  0  0  0  0  0  0  0
   17.7595  -11.5178  -15.6313 C   0  0  0  0  0  0  0  0  0  0  0  0
   17.0913  -12.4154  -16.4529 C   0  0  0  0  0  0  0  0  0  0  0  0
   20.2203   -6.6585  -14.7206 N   0  0  0  0  0  0  0  0  0  0  0  0
   20.7625   -5.4853  -14.0933 C   0  0  1  0  0  0  0  0  0  0  0  0
   22.2394   -5.4711  -13.9237 C   0  0  0  0  0  0  0  0  0  0  0  0
   22.6851   -3.9607  -13.0030 S   0  0  0  0  0  0  0  0  0  0  0  0
   20.2297   -4.1970  -14.6230 C   0  0  0  0  0  0  0  0  0  0  0  0
   19.9677   -4.0838  -15.8298 O   0  0  0  0  0  0  0  0  0  0  0  0
   20.0139   -3.1043  -13.7989 O   0  0  0  0  0  0  0  0  0  0  0  0
  2  1  1  1
  2  4  1  0
  3  2  1  0
  4  6  1  0
  4  5  1  6
  6  7  2  0
  9  8  1  0
  9 19  2  0
 10  9  1  0
 11 10  2  0
 11 12  1  0
 12 18  2  0
 14 13  1  1
 13 12  1  0
 15 14  1  0
 15  6  1  0
 16 17  2  0
 16 14  1  0
 18 19  1  0
 20 16  1  0
 21 24  1  0
 21 20  1  0
 21 22  1  6
 23 22  1  0
 24 26  1  0
 25 24  2  0
M  END
$$$$
