VYC.pdb
     RDKit          3D

 26 26  0  0  1  0  0  0  0  0999 V2000
   28.2008  -19.0977  -16.5892 C   0  0  0  0  0  0  0  0  0  0  0  0
   27.6086  -18.8347  -15.2209 C   0  0  2  0  0  0  0  0  0  0  0  0
   28.7579  -18.8684  -14.2317 C   0  0  0  0  0  0  0  0  0  0  0  0
   26.6527  -19.9233  -14.8579 C   0  0  2  0  0  0  0  0  0  0  0  0
   25.6361  -19.9871  -15.8868 N   0  0  0  0  0  0  0  0  0  0  0  0
   26.0286  -19.8070  -13.5542 C   0  0  0  0  0  0  0  0  0  0  0  0
   25.3997  -18.7519  -13.2763 O   0  0  0  0  0  0  0  0  0  0  0  0
   19.6827  -20.3864  -14.2611 O   0  0  0  0  0  0  0  0  0  0  0  0
   20.8091  -20.6549  -13.4614 C   0  0  0  0  0  0  0  0  0  0  0  0
   20.9618  -20.0113  -12.2566 C   0  0  0  0  0  0  0  0  0  0  0  0
   22.0823  -20.2817  -11.4665 C   0  0  0  0  0  0  0  0  0  0  0  0
   23.0387  -21.1831  -11.8731 C   0  0  0  0  0  0  0  0  0  0  0  0
   24.2097  -21.4839  -11.0767 C   0  0  0  0  0  0  0  0  0  0  0  0
   25.3993  -20.6078  -11.2980 C   0  0  2  0  0  0  0  0  0  0  0  0
   26.0634  -20.8007  -12.5373 N   0  0  0  0  0  0  0  0  0  0  0  0
   26.3189  -20.8365  -10.1203 C   0  0  0  0  0  0  0  0  0  0  0  0
   26.8301  -21.9635   -9.9470 O   0  0  0  0  0  0  0  0  0  0  0  0
   22.8538  -21.8095  -13.0856 C   0  0  0  0  0  0  0  0  0  0  0  0
   21.7504  -21.5597  -13.8902 C   0  0  0  0  0  0  0  0  0  0  0  0
   26.6189  -19.8017   -9.2017 N   0  0  0  0  0  0  0  0  0  0  0  0
   27.1033  -19.9496   -7.8573 C   0  0  1  0  0  0  0  0  0  0  0  0
   27.6291  -18.7118   -7.2234 C   0  0  0  0  0  0  0  0  0  0  0  0
   28.3337  -19.1657   -5.6032 S   0  0  0  0  0  0  0  0  0  0  0  0
   26.2014  -20.7222   -6.9551 C   0  0  0  0  0  0  0  0  0  0  0  0
   24.9873  -20.4712   -6.9290 O   0  0  0  0  0  0  0  0  0  0  0  0
   26.6821  -21.7273   -6.1315 O   0  0  0  0  0  0  0  0  0  0  0  0
  2  1  1  6
  2  4  1  0
  3  2  1  0
  4  6  1  0
  4  5  1  6
  6  7  2  0
  9  8  1  0
  9 19  2  0
 10  9  1  0
 11 10  2  0
 11 12  1  0
 12 18  2  0
 14 13  1  1
 13 12  1  0
 15 14  1  0
 15  6  1  0
 16 17  2  0
 16 14  1  0
 18 19  1  0
 20 16  1  0
 21 24  1  0
 21 20  1  0
 21 22  1  1
 23 22  1  0
 24 26  1  0
 25 24  2  0
M  END
$$$$
