VYC.pdb
     RDKit          3D

 26 26  0  0  1  0  0  0  0  0999 V2000
   21.1547  -10.2834    7.9267 C   0  0  0  0  0  0  0  0  0  0  0  0
   20.4930  -11.6160    7.6474 C   0  0  2  0  0  0  0  0  0  0  0  0
   21.3814  -12.3488    6.6603 C   0  0  0  0  0  0  0  0  0  0  0  0
   19.1623  -11.4030    7.0036 C   0  0  2  0  0  0  0  0  0  0  0  0
   18.2956  -10.7619    7.9699 N   0  0  0  0  0  0  0  0  0  0  0  0
   18.5190  -12.5904    6.4753 C   0  0  0  0  0  0  0  0  0  0  0  0
   17.8796  -13.3344    7.2649 O   0  0  0  0  0  0  0  0  0  0  0  0
   15.9269  -19.4115    1.4554 O   0  0  0  0  0  0  0  0  0  0  0  0
   16.3915  -18.1599    1.9003 C   0  0  0  0  0  0  0  0  0  0  0  0
   15.5085  -17.2540    2.4375 C   0  0  0  0  0  0  0  0  0  0  0  0
   15.9753  -16.0125    2.8777 C   0  0  0  0  0  0  0  0  0  0  0  0
   17.3066  -15.6787    2.7832 C   0  0  0  0  0  0  0  0  0  0  0  0
   17.8197  -14.4010    3.2304 C   0  0  0  0  0  0  0  0  0  0  0  0
   17.9802  -14.2362    4.7065 C   0  0  2  0  0  0  0  0  0  0  0  0
   18.5458  -12.9999    5.1135 N   0  0  0  0  0  0  0  0  0  0  0  0
   18.7984  -15.4166    5.1781 C   0  0  0  0  0  0  0  0  0  0  0  0
   20.0218  -15.4586    4.9267 O   0  0  0  0  0  0  0  0  0  0  0  0
   18.1631  -16.6103    2.2398 C   0  0  0  0  0  0  0  0  0  0  0  0
   17.7264  -17.8506    1.7948 C   0  0  0  0  0  0  0  0  0  0  0  0
   18.2127  -16.4832    5.9017 N   0  0  0  0  0  0  0  0  0  0  0  0
   18.8694  -17.6654    6.3866 C   0  0  1  0  0  0  0  0  0  0  0  0
   19.4783  -17.5542    7.7383 C   0  0  0  0  0  0  0  0  0  0  0  0
   20.3778  -19.1043    8.0790 S   0  0  0  0  0  0  0  0  0  0  0  0
   18.0915  -18.9249    6.2055 C   0  0  0  0  0  0  0  0  0  0  0  0
   16.8561  -18.8820    6.1074 O   0  0  0  0  0  0  0  0  0  0  0  0
   18.7127  -20.1617    6.1422 O   0  0  0  0  0  0  0  0  0  0  0  0
  2  1  1  6
  2  4  1  0
  3  2  1  0
  4  6  1  0
  4  5  1  1
  6  7  2  0
  9  8  1  0
  9 19  2  0
 10  9  1  0
 11 10  2  0
 11 12  1  0
 12 18  2  0
 14 13  1  6
 13 12  1  0
 15 14  1  0
 15  6  1  0
 16 17  2  0
 16 14  1  0
 18 19  1  0
 20 16  1  0
 21 24  1  0
 21 20  1  0
 21 22  1  1
 23 22  1  0
 24 26  1  0
 25 24  2  0
M  END
$$$$
