VYC.pdb
     RDKit          3D

 26 26  0  0  1  0  0  0  0  0999 V2000
   16.9369  -10.5129  -17.5921 C   0  0  0  0  0  0  0  0  0  0  0  0
   18.3033  -11.0880  -17.8984 C   0  0  2  0  0  0  0  0  0  0  0  0
   18.0775  -12.4739  -18.4718 C   0  0  0  0  0  0  0  0  0  0  0  0
   19.0937  -11.2306  -16.6393 C   0  0  2  0  0  0  0  0  0  0  0  0
   18.4119  -12.1836  -15.7889 N   0  0  0  0  0  0  0  0  0  0  0  0
   19.3409  -10.0041  -15.9063 C   0  0  0  0  0  0  0  0  0  0  0  0
   18.4671   -9.5966  -15.0961 O   0  0  0  0  0  0  0  0  0  0  0  0
   22.4485   -1.9588  -13.8036 O   0  0  0  0  0  0  0  0  0  0  0  0
   22.3185   -3.3231  -14.1231 C   0  0  0  0  0  0  0  0  0  0  0  0
   21.7571   -4.1879  -13.2143 C   0  0  0  0  0  0  0  0  0  0  0  0
   21.6305   -5.5418  -13.5367 C   0  0  0  0  0  0  0  0  0  0  0  0
   22.0586   -6.0271  -14.7507 C   0  0  0  0  0  0  0  0  0  0  0  0
   21.9409   -7.4237  -15.1131 C   0  0  0  0  0  0  0  0  0  0  0  0
   20.5673   -7.9018  -15.4544 C   0  0  2  0  0  0  0  0  0  0  0  0
   20.5089   -9.2009  -16.0228 N   0  0  0  0  0  0  0  0  0  0  0  0
   19.9695   -6.8560  -16.3676 C   0  0  0  0  0  0  0  0  0  0  0  0
   20.2857   -6.8395  -17.5764 O   0  0  0  0  0  0  0  0  0  0  0  0
   22.6163   -5.1326  -15.6371 C   0  0  0  0  0  0  0  0  0  0  0  0
   22.7541   -3.7829  -15.3427 C   0  0  0  0  0  0  0  0  0  0  0  0
   19.0547   -5.8878  -15.8875 N   0  0  0  0  0  0  0  0  0  0  0  0
   18.3964   -4.8639  -16.6505 C   0  0  1  0  0  0  0  0  0  0  0  0
   16.9110   -4.9237  -16.6600 C   0  0  0  0  0  0  0  0  0  0  0  0
   16.3114   -3.8002  -17.9661 S   0  0  0  0  0  0  0  0  0  0  0  0
   18.9174   -3.4860  -16.4178 C   0  0  0  0  0  0  0  0  0  0  0  0
   18.8729   -2.9899  -15.2822 O   0  0  0  0  0  0  0  0  0  0  0  0
   19.4584   -2.7290  -17.4444 O   0  0  0  0  0  0  0  0  0  0  0  0
  2  1  1  1
  2  4  1  0
  3  2  1  0
  4  6  1  0
  4  5  1  1
  6  7  2  0
  9  8  1  0
  9 19  2  0
 10  9  1  0
 11 10  2  0
 11 12  1  0
 12 18  2  0
 14 13  1  6
 13 12  1  0
 15 14  1  0
 15  6  1  0
 16 17  2  0
 16 14  1  0
 18 19  1  0
 20 16  1  0
 21 24  1  0
 21 20  1  0
 21 22  1  1
 23 22  1  0
 24 26  1  0
 25 24  2  0
M  END
$$$$
