VYC.pdb
     RDKit          3D

 26 26  0  0  1  0  0  0  0  0999 V2000
   20.6657  -12.8455  -18.0357 C   0  0  0  0  0  0  0  0  0  0  0  0
   19.3235  -12.5692  -17.3924 C   0  0  2  0  0  0  0  0  0  0  0  0
   18.2700  -13.1850  -18.2933 C   0  0  0  0  0  0  0  0  0  0  0  0
   19.0776  -11.0974  -17.3308 C   0  0  2  0  0  0  0  0  0  0  0  0
   19.0968  -10.5838  -18.6843 N   0  0  0  0  0  0  0  0  0  0  0  0
   19.9938  -10.3381  -16.5021 C   0  0  0  0  0  0  0  0  0  0  0  0
   20.0321  -10.5772  -15.2662 O   0  0  0  0  0  0  0  0  0  0  0  0
   24.9789  -14.1092  -17.2381 O   0  0  0  0  0  0  0  0  0  0  0  0
   24.5380  -12.7910  -17.0190 C   0  0  0  0  0  0  0  0  0  0  0  0
   24.4472  -12.3043  -15.7368 C   0  0  0  0  0  0  0  0  0  0  0  0
   24.0087  -10.9944  -15.5249 C   0  0  0  0  0  0  0  0  0  0  0  0
   23.6649  -10.1800  -16.5789 C   0  0  0  0  0  0  0  0  0  0  0  0
   23.2075   -8.8193  -16.3910 C   0  0  0  0  0  0  0  0  0  0  0  0
   21.7551   -8.6492  -16.0858 C   0  0  2  0  0  0  0  0  0  0  0  0
   20.8738   -9.3236  -16.9704 N   0  0  0  0  0  0  0  0  0  0  0  0
   21.4998   -7.1596  -16.0575 C   0  0  0  0  0  0  0  0  0  0  0  0
   21.0416   -6.5932  -17.0728 O   0  0  0  0  0  0  0  0  0  0  0  0
   23.7679  -10.7001  -17.8500 C   0  0  0  0  0  0  0  0  0  0  0  0
   24.2004  -11.9975  -18.0890 C   0  0  0  0  0  0  0  0  0  0  0  0
   21.7673   -6.3831  -14.9043 N   0  0  0  0  0  0  0  0  0  0  0  0
   21.5006   -4.9834  -14.7207 C   0  0  1  0  0  0  0  0  0  0  0  0
   20.1104   -4.5491  -15.0188 C   0  0  0  0  0  0  0  0  0  0  0  0
   20.0045   -2.7538  -14.7132 S   0  0  0  0  0  0  0  0  0  0  0  0
   22.0218   -4.4155  -13.4439 C   0  0  0  0  0  0  0  0  0  0  0  0
   21.9826   -5.0896  -12.4038 O   0  0  0  0  0  0  0  0  0  0  0  0
   22.5571   -3.1391  -13.3795 O   0  0  0  0  0  0  0  0  0  0  0  0
  2  1  1  6
  2  4  1  0
  3  2  1  0
  4  6  1  0
  4  5  1  6
  6  7  2  0
  9  8  1  0
  9 19  2  0
 10  9  1  0
 11 10  2  0
 11 12  1  0
 12 18  2  0
 14 13  1  6
 13 12  1  0
 15 14  1  0
 15  6  1  0
 16 17  2  0
 16 14  1  0
 18 19  1  0
 20 16  1  0
 21 24  1  0
 21 20  1  0
 21 22  1  1
 23 22  1  0
 24 26  1  0
 25 24  2  0
M  END
$$$$
