MLP.pdb
     RDKit          3D

 24 24  0  0  1  0  0  0  0  0999 V2000
   13.2958  -22.0064   -4.1555 C   0  0  0  0  0  0  0  0  0  0  0  0
   13.1242  -22.4085   -5.9034 S   0  0  0  0  0  0  0  0  0  0  0  0
   14.4364  -23.5465   -6.4487 C   0  0  0  0  0  0  0  0  0  0  0  0
   14.6548  -24.6198   -5.4175 C   0  0  0  0  0  0  0  0  0  0  0  0
   15.7379  -25.5516   -5.8556 C   0  0  2  0  0  0  0  0  0  0  0  0
   15.4561  -26.2938   -7.0448 N   0  0  0  0  0  0  0  0  0  0  0  0
   16.1236  -26.4668   -4.7363 C   0  0  0  0  0  0  0  0  0  0  0  0
   15.3878  -27.4874   -4.5069 O   0  0  0  0  0  0  0  0  0  0  0  0
   20.8621  -26.9619   -0.8573 C   0  0  0  0  0  0  0  0  0  0  0  0
   19.5752  -27.6591   -1.3689 C   0  0  2  0  0  0  0  0  0  0  0  0
   19.9057  -29.0959   -1.5635 C   0  0  0  0  0  0  0  0  0  0  0  0
   19.0706  -26.9576   -2.5877 C   0  0  0  0  0  0  0  0  0  0  0  0
   17.5776  -26.9312   -2.7610 C   0  0  2  0  0  0  0  0  0  0  0  0
   17.2760  -26.1870   -3.9683 N   0  0  0  0  0  0  0  0  0  0  0  0
   16.7794  -26.6105   -1.5973 C   0  0  0  0  0  0  0  0  0  0  0  0
   16.4754  -25.3707   -1.4454 O   0  0  0  0  0  0  0  0  0  0  0  0
   16.2735  -27.4665   -0.5805 N   0  0  0  0  0  0  0  0  0  0  0  0
   16.4811  -28.8621   -0.2920 C   0  0  0  0  0  0  0  0  0  0  0  0
   15.0704  -29.3180    0.0176 C   0  0  0  0  0  0  0  0  0  0  0  0
   14.3405  -28.1060    0.5256 C   0  0  0  0  0  0  0  0  0  0  0  0
   15.3626  -27.0191    0.4857 C   0  0  1  0  0  0  0  0  0  0  0  0
   16.0922  -26.9215    1.7441 C   0  0  0  0  0  0  0  0  0  0  0  0
   15.6489  -26.2809    2.8896 O   0  0  0  0  0  0  0  0  0  0  0  0
   17.2509  -27.4582    1.8622 O   0  0  0  0  0  0  0  0  0  0  0  0
  1  2  1  0
  2  3  1  0
  4  5  1  0
  4  3  1  0
  5  6  1  6
  7  8  2  0
  7  5  1  0
 10  9  1  6
 10 12  1  0
 11 10  1  0
 13 12  1  1
 13 14  1  0
 14  7  1  0
 15 13  1  0
 16 15  2  0
 17 21  1  0
 17 15  1  0
 18 17  1  0
 19 20  1  0
 19 18  1  0
 20 21  1  0
 21 22  1  1
 22 24  2  0
 22 23  1  0
M  END
$$$$
