MLP.pdb
     RDKit          3D

 24 24  0  0  1  0  0  0  0  0999 V2000
   21.4767  -23.5311  -17.2152 C   0  0  0  0  0  0  0  0  0  0  0  0
   19.7604  -23.3172  -16.7102 S   0  0  0  0  0  0  0  0  0  0  0  0
   19.6354  -22.2533  -15.2382 C   0  0  0  0  0  0  0  0  0  0  0  0
   20.8966  -21.4512  -15.0683 C   0  0  0  0  0  0  0  0  0  0  0  0
   21.1689  -21.2077  -13.6192 C   0  0  2  0  0  0  0  0  0  0  0  0
   20.1371  -20.5111  -12.9162 N   0  0  0  0  0  0  0  0  0  0  0  0
   22.4878  -20.5229  -13.4438 C   0  0  0  0  0  0  0  0  0  0  0  0
   22.5458  -19.2602  -13.6379 O   0  0  0  0  0  0  0  0  0  0  0  0
   27.2229  -21.4421  -10.1179 C   0  0  0  0  0  0  0  0  0  0  0  0
   26.1357  -20.6912  -10.9291 C   0  0  2  0  0  0  0  0  0  0  0  0
   24.9699  -20.5024  -10.0254 C   0  0  0  0  0  0  0  0  0  0  0  0
   25.8414  -21.4361  -12.1905 C   0  0  0  0  0  0  0  0  0  0  0  0
   24.9621  -20.7280  -13.1829 C   0  0  2  0  0  0  0  0  0  0  0  0
   23.6242  -21.2761  -13.0728 N   0  0  0  0  0  0  0  0  0  0  0  0
   25.4754  -20.5622  -14.5257 C   0  0  0  0  0  0  0  0  0  0  0  0
   24.8885  -21.2456  -15.4429 O   0  0  0  0  0  0  0  0  0  0  0  0
   26.5448  -19.7502  -14.9941 N   0  0  0  0  0  0  0  0  0  0  0  0
   27.5413  -18.9658  -14.3116 C   0  0  0  0  0  0  0  0  0  0  0  0
   27.5423  -17.6965  -15.1377 C   0  0  0  0  0  0  0  0  0  0  0  0
   27.0983  -18.0945  -16.5177 C   0  0  0  0  0  0  0  0  0  0  0  0
   26.8675  -19.5658  -16.4184 C   0  0  1  0  0  0  0  0  0  0  0  0
   28.0693  -20.3216  -16.7500 C   0  0  0  0  0  0  0  0  0  0  0  0
   28.6785  -20.3694  -17.9932 O   0  0  0  0  0  0  0  0  0  0  0  0
   28.6606  -21.0212  -15.8525 O   0  0  0  0  0  0  0  0  0  0  0  0
  1  2  1  0
  2  3  1  0
  4  5  1  0
  4  3  1  0
  5  6  1  6
  7  8  2  0
  7  5  1  0
 10  9  1  1
 10 12  1  0
 11 10  1  0
 13 12  1  1
 13 14  1  0
 14  7  1  0
 15 13  1  0
 16 15  2  0
 17 21  1  0
 17 15  1  0
 18 17  1  0
 19 20  1  0
 19 18  1  0
 20 21  1  0
 21 22  1  1
 22 24  2  0
 22 23  1  0
M  END
$$$$
