MLP.pdb
     RDKit          3D

 24 24  0  0  1  0  0  0  0  0999 V2000
   22.4547  -21.1540  -14.7199 C   0  0  0  0  0  0  0  0  0  0  0  0
   21.9751  -19.5308  -15.3373 S   0  0  0  0  0  0  0  0  0  0  0  0
   23.0545  -18.2267  -14.6674 C   0  0  0  0  0  0  0  0  0  0  0  0
   24.2921  -18.8348  -14.0661 C   0  0  0  0  0  0  0  0  0  0  0  0
   25.0873  -17.7946  -13.3455 C   0  0  2  0  0  0  0  0  0  0  0  0
   25.5734  -16.7273  -14.1633 N   0  0  0  0  0  0  0  0  0  0  0  0
   26.2050  -18.4296  -12.5797 C   0  0  0  0  0  0  0  0  0  0  0  0
   27.3374  -18.5633  -13.1589 O   0  0  0  0  0  0  0  0  0  0  0  0
   28.1926  -18.7022   -8.3073 C   0  0  0  0  0  0  0  0  0  0  0  0
   26.6599  -18.9302   -8.3582 C   0  0  2  0  0  0  0  0  0  0  0  0
   26.1916  -19.0618   -6.9529 C   0  0  0  0  0  0  0  0  0  0  0  0
   26.3515  -20.0982   -9.2375 C   0  0  0  0  0  0  0  0  0  0  0  0
   26.7464  -19.9574  -10.6811 C   0  0  2  0  0  0  0  0  0  0  0  0
   25.9878  -18.8616  -11.2521 N   0  0  0  0  0  0  0  0  0  0  0  0
   26.8143  -21.1671  -11.4723 C   0  0  0  0  0  0  0  0  0  0  0  0
   25.8152  -21.3900  -12.2500 O   0  0  0  0  0  0  0  0  0  0  0  0
   27.8288  -22.1626  -11.5220 N   0  0  0  0  0  0  0  0  0  0  0  0
   28.9927  -22.4062  -10.7097 C   0  0  0  0  0  0  0  0  0  0  0  0
   30.0352  -22.7165  -11.7637 C   0  0  0  0  0  0  0  0  0  0  0  0
   29.2859  -23.2687  -12.9441 C   0  0  0  0  0  0  0  0  0  0  0  0
   27.8573  -23.2513  -12.5122 C   0  0  1  0  0  0  0  0  0  0  0  0
   27.4740  -24.5045  -11.8733 C   0  0  0  0  0  0  0  0  0  0  0  0
   27.0912  -25.6635  -12.5284 O   0  0  0  0  0  0  0  0  0  0  0  0
   27.4741  -24.6041  -10.5947 O   0  0  0  0  0  0  0  0  0  0  0  0
  1  2  1  0
  2  3  1  0
  4  5  1  0
  4  3  1  0
  5  6  1  6
  7  8  2  0
  7  5  1  0
 10  9  1  1
 10 12  1  0
 11 10  1  0
 13 12  1  1
 13 14  1  0
 14  7  1  0
 15 13  1  0
 16 15  2  0
 17 21  1  0
 17 15  1  0
 18 17  1  0
 19 20  1  0
 19 18  1  0
 20 21  1  0
 21 22  1  1
 22 24  2  0
 22 23  1  0
M  END
$$$$
