MLP.pdb
     RDKit          3D

 24 24  0  0  1  0  0  0  0  0999 V2000
   20.8722  -20.8451  -11.7777 C   0  0  0  0  0  0  0  0  0  0  0  0
   21.5688  -19.6018  -12.8801 S   0  0  0  0  0  0  0  0  0  0  0  0
   23.3887  -19.6421  -12.8510 C   0  0  0  0  0  0  0  0  0  0  0  0
   23.8738  -20.2877  -11.5817 C   0  0  0  0  0  0  0  0  0  0  0  0
   25.3663  -20.3624  -11.5718 C   0  0  2  0  0  0  0  0  0  0  0  0
   25.9451  -21.0904  -12.6577 N   0  0  0  0  0  0  0  0  0  0  0  0
   25.8539  -20.8887  -10.2586 C   0  0  0  0  0  0  0  0  0  0  0  0
   25.7467  -22.1426  -10.0306 O   0  0  0  0  0  0  0  0  0  0  0  0
   28.1904  -18.3594   -5.2256 C   0  0  0  0  0  0  0  0  0  0  0  0
   27.9630  -19.7428   -5.8877 C   0  0  2  0  0  0  0  0  0  0  0  0
   29.1406  -20.5862   -5.5509 C   0  0  0  0  0  0  0  0  0  0  0  0
   27.7101  -19.5680   -7.3498 C   0  0  0  0  0  0  0  0  0  0  0  0
   26.5897  -20.3878   -7.9263 C   0  0  2  0  0  0  0  0  0  0  0  0
   26.4140  -20.0012   -9.3127 N   0  0  0  0  0  0  0  0  0  0  0  0
   25.3813  -20.5081   -7.1392 C   0  0  0  0  0  0  0  0  0  0  0  0
   24.4462  -19.6680   -7.4084 O   0  0  0  0  0  0  0  0  0  0  0  0
   25.0644  -21.4236   -6.0981 N   0  0  0  0  0  0  0  0  0  0  0  0
   25.8432  -22.4193   -5.4083 C   0  0  0  0  0  0  0  0  0  0  0  0
   24.8730  -23.5814   -5.3628 C   0  0  0  0  0  0  0  0  0  0  0  0
   23.4961  -22.9791   -5.3981 C   0  0  0  0  0  0  0  0  0  0  0  0
   23.7410  -21.5080   -5.4592 C   0  0  1  0  0  0  0  0  0  0  0  0
   23.8016  -20.9178   -4.1275 C   0  0  0  0  0  0  0  0  0  0  0  0
   22.7149  -20.6393   -3.3149 O   0  0  0  0  0  0  0  0  0  0  0  0
   24.9332  -20.6099   -3.6084 O   0  0  0  0  0  0  0  0  0  0  0  0
  1  2  1  0
  2  3  1  0
  4  5  1  0
  4  3  1  0
  5  6  1  6
  7  8  2  0
  7  5  1  0
 10  9  1  6
 10 12  1  0
 11 10  1  0
 13 12  1  1
 13 14  1  0
 14  7  1  0
 15 13  1  0
 16 15  2  0
 17 21  1  0
 17 15  1  0
 18 17  1  0
 19 20  1  0
 19 18  1  0
 20 21  1  0
 21 22  1  1
 22 24  2  0
 22 23  1  0
M  END
$$$$
