MLP.pdb
     RDKit          3D

 24 24  0  0  1  0  0  0  0  0999 V2000
   21.6945  -20.3917  -12.7753 C   0  0  0  0  0  0  0  0  0  0  0  0
   22.7921  -19.7233  -14.0381 S   0  0  0  0  0  0  0  0  0  0  0  0
   24.5380  -19.9020  -13.5539 C   0  0  0  0  0  0  0  0  0  0  0  0
   24.6370  -20.5145  -12.1834 C   0  0  0  0  0  0  0  0  0  0  0  0
   26.0509  -20.4863  -11.7003 C   0  0  2  0  0  0  0  0  0  0  0  0
   26.9909  -21.1698  -12.5330 N   0  0  0  0  0  0  0  0  0  0  0  0
   26.1307  -20.9814  -10.2905 C   0  0  0  0  0  0  0  0  0  0  0  0
   26.0748  -22.2428  -10.0869 O   0  0  0  0  0  0  0  0  0  0  0  0
   28.6194  -20.6356   -6.4143 C   0  0  0  0  0  0  0  0  0  0  0  0
   28.0158  -19.3164   -6.9612 C   0  0  2  0  0  0  0  0  0  0  0  0
   28.5917  -18.2066   -6.1562 C   0  0  0  0  0  0  0  0  0  0  0  0
   26.5240  -19.3983   -6.9456 C   0  0  0  0  0  0  0  0  0  0  0  0
   25.9111  -20.4135   -7.8695 C   0  0  2  0  0  0  0  0  0  0  0  0
   26.2640  -20.0573   -9.2300 N   0  0  0  0  0  0  0  0  0  0  0  0
   24.5271  -20.7692   -7.6413 C   0  0  0  0  0  0  0  0  0  0  0  0
   23.6693  -20.2410   -8.4401 O   0  0  0  0  0  0  0  0  0  0  0  0
   23.9608  -21.6233   -6.6553 N   0  0  0  0  0  0  0  0  0  0  0  0
   24.5316  -22.3332   -5.5399 C   0  0  0  0  0  0  0  0  0  0  0  0
   23.8490  -23.6799   -5.6596 C   0  0  0  0  0  0  0  0  0  0  0  0
   22.5363  -23.4246   -6.3462 C   0  0  0  0  0  0  0  0  0  0  0  0
   22.5275  -21.9511   -6.5840 C   0  0  1  0  0  0  0  0  0  0  0  0
   21.9154  -21.2315   -5.4736 C   0  0  0  0  0  0  0  0  0  0  0  0
   20.5569  -21.1418   -5.2174 O   0  0  0  0  0  0  0  0  0  0  0  0
   22.6481  -20.6090   -4.6249 O   0  0  0  0  0  0  0  0  0  0  0  0
  1  2  1  0
  2  3  1  0
  4  5  1  0
  4  3  1  0
  5  6  1  6
  7  8  2  0
  7  5  1  0
 10  9  1  1
 10 12  1  0
 11 10  1  0
 13 12  1  1
 13 14  1  0
 14  7  1  0
 15 13  1  0
 16 15  2  0
 17 21  1  0
 17 15  1  0
 18 17  1  0
 19 20  1  0
 19 18  1  0
 20 21  1  0
 21 22  1  1
 22 24  2  0
 22 23  1  0
M  END
$$$$
