MLP.pdb
     RDKit          3D

 24 24  0  0  1  0  0  0  0  0999 V2000
   21.7385  -24.0589  -17.4631 C   0  0  0  0  0  0  0  0  0  0  0  0
   20.0658  -23.5245  -17.0594 S   0  0  0  0  0  0  0  0  0  0  0  0
   20.0193  -22.6627  -15.4564 C   0  0  0  0  0  0  0  0  0  0  0  0
   21.2161  -21.7621  -15.3159 C   0  0  0  0  0  0  0  0  0  0  0  0
   21.2847  -21.1974  -13.9339 C   0  0  2  0  0  0  0  0  0  0  0  0
   20.1895  -20.3547  -13.5672 N   0  0  0  0  0  0  0  0  0  0  0  0
   22.5896  -20.4969  -13.7205 C   0  0  0  0  0  0  0  0  0  0  0  0
   22.6358  -19.2320  -13.9042 O   0  0  0  0  0  0  0  0  0  0  0  0
   25.1244  -19.4523  -10.6402 C   0  0  0  0  0  0  0  0  0  0  0  0
   25.2925  -20.9755  -10.8759 C   0  0  2  0  0  0  0  0  0  0  0  0
   26.1147  -21.5022   -9.7543 C   0  0  0  0  0  0  0  0  0  0  0  0
   25.8561  -21.2170  -12.2384 C   0  0  0  0  0  0  0  0  0  0  0  0
   25.0578  -20.6674  -13.3875 C   0  0  2  0  0  0  0  0  0  0  0  0
   23.7262  -21.2379  -13.3263 N   0  0  0  0  0  0  0  0  0  0  0  0
   25.6886  -20.6572  -14.6899 C   0  0  0  0  0  0  0  0  0  0  0  0
   25.1366  -21.3901  -15.5904 O   0  0  0  0  0  0  0  0  0  0  0  0
   26.8420  -19.9534  -15.1336 N   0  0  0  0  0  0  0  0  0  0  0  0
   27.8492  -19.1982  -14.4342 C   0  0  0  0  0  0  0  0  0  0  0  0
   27.9949  -17.9875  -15.3325 C   0  0  0  0  0  0  0  0  0  0  0  0
   27.6093  -18.4413  -16.7128 C   0  0  0  0  0  0  0  0  0  0  0  0
   27.2650  -19.8835  -16.5417 C   0  0  1  0  0  0  0  0  0  0  0  0
   28.4261  -20.7409  -16.7473 C   0  0  0  0  0  0  0  0  0  0  0  0
   29.0769  -20.9476  -17.9526 O   0  0  0  0  0  0  0  0  0  0  0  0
   28.9363  -21.3845  -15.7623 O   0  0  0  0  0  0  0  0  0  0  0  0
  1  2  1  0
  2  3  1  0
  4  5  1  0
  4  3  1  0
  5  6  1  6
  7  8  2  0
  7  5  1  0
 10  9  1  1
 10 12  1  0
 11 10  1  0
 13 12  1  1
 13 14  1  0
 14  7  1  0
 15 13  1  0
 16 15  2  0
 17 21  1  0
 17 15  1  0
 18 17  1  0
 19 20  1  0
 19 18  1  0
 20 21  1  0
 21 22  1  1
 22 24  2  0
 22 23  1  0
M  END
$$$$
