MLP.pdb
     RDKit          3D

 24 24  0  0  1  0  0  0  0  0999 V2000
   28.1479  -21.8098  -15.3067 C   0  0  0  0  0  0  0  0  0  0  0  0
   29.8296  -21.2799  -14.9365 S   0  0  0  0  0  0  0  0  0  0  0  0
   29.8620  -20.1335  -13.5225 C   0  0  0  0  0  0  0  0  0  0  0  0
   28.9022  -20.5929  -12.4592 C   0  0  0  0  0  0  0  0  0  0  0  0
   29.6390  -20.9402  -11.2062 C   0  0  2  0  0  0  0  0  0  0  0  0
   30.6185  -21.9726  -11.3440 N   0  0  0  0  0  0  0  0  0  0  0  0
   28.6763  -21.2637  -10.1072 C   0  0  0  0  0  0  0  0  0  0  0  0
   28.2451  -22.4640  -10.0128 O   0  0  0  0  0  0  0  0  0  0  0  0
   27.8910  -20.8230   -5.6524 C   0  0  0  0  0  0  0  0  0  0  0  0
   28.0981  -19.5063   -6.4443 C   0  0  2  0  0  0  0  0  0  0  0  0
   28.2428  -18.4146   -5.4449 C   0  0  0  0  0  0  0  0  0  0  0  0
   26.9824  -19.3230   -7.4211 C   0  0  0  0  0  0  0  0  0  0  0  0
   26.9630  -20.2754   -8.5840 C   0  0  2  0  0  0  0  0  0  0  0  0
   28.2703  -20.2499   -9.2106 N   0  0  0  0  0  0  0  0  0  0  0  0
   25.8259  -20.2109   -9.4767 C   0  0  0  0  0  0  0  0  0  0  0  0
   26.0150  -19.5930  -10.5881 O   0  0  0  0  0  0  0  0  0  0  0  0
   24.5126  -20.7310   -9.3117 N   0  0  0  0  0  0  0  0  0  0  0  0
   23.8334  -21.3176   -8.1854 C   0  0  0  0  0  0  0  0  0  0  0  0
   23.1386  -22.4966   -8.8342 C   0  0  0  0  0  0  0  0  0  0  0  0
   22.9227  -22.1160  -10.2724 C   0  0  0  0  0  0  0  0  0  0  0  0
   23.4987  -20.7431  -10.3787 C   0  0  1  0  0  0  0  0  0  0  0  0
   22.4964  -19.7181  -10.1134 C   0  0  0  0  0  0  0  0  0  0  0  0
   21.5329  -19.2774  -11.0058 O   0  0  0  0  0  0  0  0  0  0  0  0
   22.4518  -19.1389   -8.9700 O   0  0  0  0  0  0  0  0  0  0  0  0
  1  2  1  0
  2  3  1  0
  4  5  1  0
  4  3  1  0
  5  6  1  6
  7  8  2  0
  7  5  1  0
 10  9  1  1
 10 12  1  0
 11 10  1  0
 13 12  1  1
 13 14  1  0
 14  7  1  0
 15 13  1  0
 16 15  2  0
 17 21  1  0
 17 15  1  0
 18 17  1  0
 19 20  1  0
 19 18  1  0
 20 21  1  0
 21 22  1  1
 22 24  2  0
 22 23  1  0
M  END
$$$$
