MLP.pdb
     RDKit          3D

 24 24  0  0  1  0  0  0  0  0999 V2000
   21.6242  -19.6333   -9.6728 C   0  0  0  0  0  0  0  0  0  0  0  0
   22.0498  -19.1316  -11.3501 S   0  0  0  0  0  0  0  0  0  0  0  0
   23.6369  -19.8559  -11.8709 C   0  0  0  0  0  0  0  0  0  0  0  0
   24.4387  -20.2700  -10.6673 C   0  0  0  0  0  0  0  0  0  0  0  0
   25.7359  -20.8802  -11.0894 C   0  0  2  0  0  0  0  0  0  0  0  0
   25.6219  -21.9998  -11.9712 N   0  0  0  0  0  0  0  0  0  0  0  0
   26.5632  -21.2283   -9.8920 C   0  0  0  0  0  0  0  0  0  0  0  0
   26.1018  -22.0886   -9.0658 O   0  0  0  0  0  0  0  0  0  0  0  0
   30.4000  -23.2333   -9.1375 C   0  0  0  0  0  0  0  0  0  0  0  0
   30.5401  -21.8449   -9.8132 C   0  0  2  0  0  0  0  0  0  0  0  0
   31.9576  -21.7098  -10.2421 C   0  0  0  0  0  0  0  0  0  0  0  0
   30.0584  -20.7792   -8.8834 C   0  0  0  0  0  0  0  0  0  0  0  0
   28.6043  -20.8419   -8.5076 C   0  0  2  0  0  0  0  0  0  0  0  0
   27.8182  -20.6073   -9.7032 N   0  0  0  0  0  0  0  0  0  0  0  0
   28.1929  -20.1218   -7.3217 C   0  0  0  0  0  0  0  0  0  0  0  0
   27.3167  -19.1977   -7.4978 O   0  0  0  0  0  0  0  0  0  0  0  0
   28.6152  -20.2792   -5.9729 N   0  0  0  0  0  0  0  0  0  0  0  0
   29.6401  -21.0862   -5.3626 C   0  0  0  0  0  0  0  0  0  0  0  0
   28.9150  -21.6238   -4.1465 C   0  0  0  0  0  0  0  0  0  0  0  0
   27.8555  -20.6120   -3.8093 C   0  0  0  0  0  0  0  0  0  0  0  0
   28.0243  -19.5468   -4.8410 C   0  0  1  0  0  0  0  0  0  0  0  0
   28.9456  -18.5084   -4.3952 C   0  0  0  0  0  0  0  0  0  0  0  0
   28.7455  -17.6542   -3.3231 O   0  0  0  0  0  0  0  0  0  0  0  0
   30.0563  -18.3235   -5.0090 O   0  0  0  0  0  0  0  0  0  0  0  0
  1  2  1  0
  2  3  1  0
  4  5  1  0
  4  3  1  0
  5  6  1  1
  7  8  2  0
  7  5  1  0
 10  9  1  1
 10 12  1  0
 11 10  1  0
 13 12  1  6
 13 14  1  0
 14  7  1  0
 15 13  1  0
 16 15  2  0
 17 21  1  0
 17 15  1  0
 18 17  1  0
 19 20  1  0
 19 18  1  0
 20 21  1  0
 21 22  1  1
 22 24  2  0
 22 23  1  0
M  END
$$$$
