MLP.pdb
     RDKit          3D

 24 24  0  0  1  0  0  0  0  0999 V2000
   29.5013  -11.6219  -22.5888 C   0  0  0  0  0  0  0  0  0  0  0  0
   28.3887  -10.4035  -21.8649 S   0  0  0  0  0  0  0  0  0  0  0  0
   28.6591  -10.2492  -20.0712 C   0  0  0  0  0  0  0  0  0  0  0  0
   29.9559   -9.5364  -19.8008 C   0  0  0  0  0  0  0  0  0  0  0  0
   30.4954   -9.9246  -18.4623 C   0  0  2  0  0  0  0  0  0  0  0  0
   29.6805   -9.5525  -17.3480 N   0  0  0  0  0  0  0  0  0  0  0  0
   31.8918   -9.4138  -18.2942 C   0  0  0  0  0  0  0  0  0  0  0  0
   32.7813   -9.7943  -19.1308 O   0  0  0  0  0  0  0  0  0  0  0  0
   33.1042   -5.1917  -18.1672 C   0  0  0  0  0  0  0  0  0  0  0  0
   32.5357   -5.6875  -16.8127 C   0  0  2  0  0  0  0  0  0  0  0  0
   32.3519   -4.4889  -15.9519 C   0  0  0  0  0  0  0  0  0  0  0  0
   33.4299   -6.7409  -16.2443 C   0  0  0  0  0  0  0  0  0  0  0  0
   33.5323   -8.0146  -17.0360 C   0  0  2  0  0  0  0  0  0  0  0  0
   32.1928   -8.5349  -17.2297 N   0  0  0  0  0  0  0  0  0  0  0  0
   34.5362   -8.9728  -16.6261 C   0  0  0  0  0  0  0  0  0  0  0  0
   34.1116   -9.9819  -15.9521 O   0  0  0  0  0  0  0  0  0  0  0  0
   35.9397   -8.9700  -16.8551 N   0  0  0  0  0  0  0  0  0  0  0  0
   36.8145   -8.0399  -17.5211 C   0  0  0  0  0  0  0  0  0  0  0  0
   37.6969   -8.9764  -18.3200 C   0  0  0  0  0  0  0  0  0  0  0  0
   37.7139  -10.2785  -17.5689 C   0  0  0  0  0  0  0  0  0  0  0  0
   36.8471  -10.0272  -16.3800 C   0  0  1  0  0  0  0  0  0  0  0  0
   37.6203   -9.5357  -15.2459 C   0  0  0  0  0  0  0  0  0  0  0  0
   38.3847  -10.3115  -14.3898 O   0  0  0  0  0  0  0  0  0  0  0  0
   37.6346   -8.2839  -14.9679 O   0  0  0  0  0  0  0  0  0  0  0  0
  1  2  1  0
  2  3  1  0
  4  5  1  0
  4  3  1  0
  5  6  1  1
  7  8  2  0
  7  5  1  0
 10  9  1  6
 10 12  1  0
 11 10  1  0
 13 12  1  1
 13 14  1  0
 14  7  1  0
 15 13  1  0
 16 15  2  0
 17 21  1  0
 17 15  1  0
 18 17  1  0
 19 20  1  0
 19 18  1  0
 20 21  1  0
 21 22  1  1
 22 24  2  0
 22 23  1  0
M  END
$$$$
