MLP.pdb
     RDKit          3D

 24 24  0  0  1  0  0  0  0  0999 V2000
   16.2504  -20.8878  -13.6232 C   0  0  0  0  0  0  0  0  0  0  0  0
   17.8632  -20.9826  -12.8256 S   0  0  0  0  0  0  0  0  0  0  0  0
   18.9069  -19.5622  -13.2809 C   0  0  0  0  0  0  0  0  0  0  0  0
   20.2558  -19.6773  -12.6249 C   0  0  0  0  0  0  0  0  0  0  0  0
   21.1605  -20.5431  -13.4407 C   0  0  2  0  0  0  0  0  0  0  0  0
   21.1049  -21.9384  -13.1339 N   0  0  0  0  0  0  0  0  0  0  0  0
   22.5676  -20.0388  -13.3716 C   0  0  0  0  0  0  0  0  0  0  0  0
   22.7999  -18.8373  -13.7431 O   0  0  0  0  0  0  0  0  0  0  0  0
   25.0043  -19.4082  -10.1688 C   0  0  0  0  0  0  0  0  0  0  0  0
   25.0982  -20.9246  -10.4780 C   0  0  2  0  0  0  0  0  0  0  0  0
   25.8326  -21.5552   -9.3491 C   0  0  0  0  0  0  0  0  0  0  0  0
   25.7146  -21.1290  -11.8236 C   0  0  0  0  0  0  0  0  0  0  0  0
   24.9895  -20.5020  -12.9816 C   0  0  2  0  0  0  0  0  0  0  0  0
   23.5944  -20.8894  -12.9042 N   0  0  0  0  0  0  0  0  0  0  0  0
   25.6083  -20.6022  -14.2858 C   0  0  0  0  0  0  0  0  0  0  0  0
   24.9931  -21.3307  -15.1482 O   0  0  0  0  0  0  0  0  0  0  0  0
   26.8095  -20.0128  -14.7675 N   0  0  0  0  0  0  0  0  0  0  0  0
   27.8600  -19.2745  -14.1152 C   0  0  0  0  0  0  0  0  0  0  0  0
   28.0933  -18.1490  -15.1015 C   0  0  0  0  0  0  0  0  0  0  0  0
   27.6883  -18.6811  -16.4478 C   0  0  0  0  0  0  0  0  0  0  0  0
   27.2468  -20.0798  -16.1714 C   0  0  1  0  0  0  0  0  0  0  0  0
   28.3492  -21.0257  -16.2963 C   0  0  0  0  0  0  0  0  0  0  0  0
   28.9997  -21.3603  -17.4727 O   0  0  0  0  0  0  0  0  0  0  0  0
   28.8015  -21.6310  -15.2601 O   0  0  0  0  0  0  0  0  0  0  0  0
  1  2  1  0
  2  3  1  0
  4  5  1  0
  4  3  1  0
  5  6  1  1
  7  8  2  0
  7  5  1  0
 10  9  1  1
 10 12  1  0
 11 10  1  0
 13 12  1  1
 13 14  1  0
 14  7  1  0
 15 13  1  0
 16 15  2  0
 17 21  1  0
 17 15  1  0
 18 17  1  0
 19 20  1  0
 19 18  1  0
 20 21  1  0
 21 22  1  1
 22 24  2  0
 22 23  1  0
M  END
$$$$
