MLP.pdb
     RDKit          3D

 24 24  0  0  1  0  0  0  0  0999 V2000
   21.7688  -23.3006  -17.9611 C   0  0  0  0  0  0  0  0  0  0  0  0
   20.2016  -23.5196  -17.0994 S   0  0  0  0  0  0  0  0  0  0  0  0
   20.0907  -22.4268  -15.6476 C   0  0  0  0  0  0  0  0  0  0  0  0
   21.3613  -21.6360  -15.4943 C   0  0  0  0  0  0  0  0  0  0  0  0
   21.2988  -20.7802  -14.2708 C   0  0  2  0  0  0  0  0  0  0  0  0
   20.2790  -19.7781  -14.2821 N   0  0  0  0  0  0  0  0  0  0  0  0
   22.6374  -20.1737  -13.9890 C   0  0  0  0  0  0  0  0  0  0  0  0
   22.8416  -18.9628  -14.3463 O   0  0  0  0  0  0  0  0  0  0  0  0
   24.7726  -19.3399  -10.5875 C   0  0  0  0  0  0  0  0  0  0  0  0
   24.9410  -20.8588  -10.8486 C   0  0  2  0  0  0  0  0  0  0  0  0
   25.5852  -21.4402   -9.6410 C   0  0  0  0  0  0  0  0  0  0  0  0
   25.6866  -21.0727  -12.1257 C   0  0  0  0  0  0  0  0  0  0  0  0
   25.0269  -20.5449  -13.3690 C   0  0  2  0  0  0  0  0  0  0  0  0
   23.6325  -20.9415  -13.3436 N   0  0  0  0  0  0  0  0  0  0  0  0
   25.7226  -20.7378  -14.6232 C   0  0  0  0  0  0  0  0  0  0  0  0
   25.1943  -21.5799  -15.4383 O   0  0  0  0  0  0  0  0  0  0  0  0
   26.9181  -20.1326  -15.0995 N   0  0  0  0  0  0  0  0  0  0  0  0
   27.9301  -19.3377  -14.4530 C   0  0  0  0  0  0  0  0  0  0  0  0
   28.1557  -18.2463  -15.4786 C   0  0  0  0  0  0  0  0  0  0  0  0
   27.8003  -18.8440  -16.8114 C   0  0  0  0  0  0  0  0  0  0  0  0
   27.3924  -20.2430  -16.4887 C   0  0  1  0  0  0  0  0  0  0  0  0
   28.5244  -21.1598  -16.5482 C   0  0  0  0  0  0  0  0  0  0  0  0
   29.2296  -21.5027  -17.6902 O   0  0  0  0  0  0  0  0  0  0  0  0
   28.9520  -21.7282  -15.4811 O   0  0  0  0  0  0  0  0  0  0  0  0
  1  2  1  0
  2  3  1  0
  4  5  1  0
  4  3  1  0
  5  6  1  6
  7  8  2  0
  7  5  1  0
 10  9  1  1
 10 12  1  0
 11 10  1  0
 13 12  1  1
 13 14  1  0
 14  7  1  0
 15 13  1  0
 16 15  2  0
 17 21  1  0
 17 15  1  0
 18 17  1  0
 19 20  1  0
 19 18  1  0
 20 21  1  0
 21 22  1  1
 22 24  2  0
 22 23  1  0
M  END
$$$$
