MLP.pdb
     RDKit          3D

 24 24  0  0  1  0  0  0  0  0999 V2000
   29.3044  -18.4532   -5.8900 C   0  0  0  0  0  0  0  0  0  0  0  0
   28.1408  -19.2798   -4.7906 S   0  0  0  0  0  0  0  0  0  0  0  0
   26.6054  -19.7169   -5.6659 C   0  0  0  0  0  0  0  0  0  0  0  0
   26.9077  -20.0843   -7.0930 C   0  0  0  0  0  0  0  0  0  0  0  0
   25.6523  -20.4579   -7.8126 C   0  0  2  0  0  0  0  0  0  0  0  0
   24.8552  -21.4534   -7.1663 N   0  0  0  0  0  0  0  0  0  0  0  0
   25.9573  -20.8539   -9.2231 C   0  0  0  0  0  0  0  0  0  0  0  0
   26.9249  -21.6643   -9.4294 O   0  0  0  0  0  0  0  0  0  0  0  0
   23.0870  -22.4589  -14.1139 C   0  0  0  0  0  0  0  0  0  0  0  0
   24.4502  -21.9025  -13.6284 C   0  0  2  0  0  0  0  0  0  0  0  0
   25.4754  -22.9369  -13.9289 C   0  0  0  0  0  0  0  0  0  0  0  0
   24.3529  -21.5104  -12.1899 C   0  0  0  0  0  0  0  0  0  0  0  0
   25.4718  -20.6556  -11.6638 C   0  0  2  0  0  0  0  0  0  0  0  0
   25.1804  -20.3309  -10.2810 N   0  0  0  0  0  0  0  0  0  0  0  0
   25.9184  -19.5595  -12.4964 C   0  0  0  0  0  0  0  0  0  0  0  0
   25.4307  -18.4033  -12.2172 O   0  0  0  0  0  0  0  0  0  0  0  0
   26.8249  -19.5638  -13.5921 N   0  0  0  0  0  0  0  0  0  0  0  0
   27.5730  -20.6154  -14.2312 C   0  0  0  0  0  0  0  0  0  0  0  0
   28.9249  -19.9565  -14.4102 C   0  0  0  0  0  0  0  0  0  0  0  0
   28.6627  -18.4787  -14.4943 C   0  0  0  0  0  0  0  0  0  0  0  0
   27.1806  -18.3612  -14.3629 C   0  0  1  0  0  0  0  0  0  0  0  0
   26.5214  -18.4000  -15.6627 C   0  0  0  0  0  0  0  0  0  0  0  0
   26.5030  -17.3731  -16.5923 O   0  0  0  0  0  0  0  0  0  0  0  0
   25.8885  -19.4515  -16.0348 O   0  0  0  0  0  0  0  0  0  0  0  0
  1  2  1  0
  2  3  1  0
  4  5  1  0
  4  3  1  0
  5  6  1  1
  7  8  2  0
  7  5  1  0
 10  9  1  1
 10 12  1  0
 11 10  1  0
 13 12  1  6
 13 14  1  0
 14  7  1  0
 15 13  1  0
 16 15  2  0
 17 21  1  0
 17 15  1  0
 18 17  1  0
 19 20  1  0
 19 18  1  0
 20 21  1  0
 21 22  1  6
 22 24  2  0
 22 23  1  0
M  END
$$$$
