MLP.pdb
     RDKit          3D

 24 24  0  0  1  0  0  0  0  0999 V2000
   20.7486  -23.4462  -11.4305 C   0  0  0  0  0  0  0  0  0  0  0  0
   21.0445  -22.9725  -13.1434 S   0  0  0  0  0  0  0  0  0  0  0  0
   21.7404  -21.2937  -13.2510 C   0  0  0  0  0  0  0  0  0  0  0  0
   23.1644  -21.2895  -12.7658 C   0  0  0  0  0  0  0  0  0  0  0  0
   23.6902  -19.8920  -12.7035 C   0  0  2  0  0  0  0  0  0  0  0  0
   23.7371  -19.2044  -13.9562 N   0  0  0  0  0  0  0  0  0  0  0  0
   25.0275  -19.8669  -12.0326 C   0  0  0  0  0  0  0  0  0  0  0  0
   26.0744  -19.8636  -12.7673 O   0  0  0  0  0  0  0  0  0  0  0  0
   26.9722  -20.8441   -6.4629 C   0  0  0  0  0  0  0  0  0  0  0  0
   27.3170  -19.8198   -7.5745 C   0  0  2  0  0  0  0  0  0  0  0  0
   27.7855  -18.5819   -6.8967 C   0  0  0  0  0  0  0  0  0  0  0  0
   26.1402  -19.6377   -8.4769 C   0  0  0  0  0  0  0  0  0  0  0  0
   26.3767  -19.9266   -9.9330 C   0  0  2  0  0  0  0  0  0  0  0  0
   25.1032  -19.8478  -10.6218 N   0  0  0  0  0  0  0  0  0  0  0  0
   27.2087  -21.0651  -10.2578 C   0  0  0  0  0  0  0  0  0  0  0  0
   26.6042  -22.1951  -10.3605 O   0  0  0  0  0  0  0  0  0  0  0  0
   28.6115  -21.1288  -10.4824 N   0  0  0  0  0  0  0  0  0  0  0  0
   29.6629  -20.1538  -10.3488 C   0  0  0  0  0  0  0  0  0  0  0  0
   30.4608  -20.3970  -11.6129 C   0  0  0  0  0  0  0  0  0  0  0  0
   30.2279  -21.8347  -11.9851 C   0  0  0  0  0  0  0  0  0  0  0  0
   29.3144  -22.3455  -10.9210 C   0  0  1  0  0  0  0  0  0  0  0  0
   30.0573  -22.9121   -9.8019 C   0  0  0  0  0  0  0  0  0  0  0  0
   30.8053  -24.0777   -9.8336 O   0  0  0  0  0  0  0  0  0  0  0  0
   30.0578  -22.3232   -8.6626 O   0  0  0  0  0  0  0  0  0  0  0  0
  1  2  1  0
  2  3  1  0
  4  5  1  0
  4  3  1  0
  5  6  1  6
  7  8  2  0
  7  5  1  0
 10  9  1  1
 10 12  1  0
 11 10  1  0
 13 12  1  1
 13 14  1  0
 14  7  1  0
 15 13  1  0
 16 15  2  0
 17 21  1  0
 17 15  1  0
 18 17  1  0
 19 20  1  0
 19 18  1  0
 20 21  1  0
 21 22  1  1
 22 24  2  0
 22 23  1  0
M  END
$$$$
