MLP.pdb
     RDKit          3D

 24 24  0  0  1  0  0  0  0  0999 V2000
   12.3756  -21.4363    5.6983 C   0  0  0  0  0  0  0  0  0  0  0  0
   11.6872  -21.7764    4.0684 S   0  0  0  0  0  0  0  0  0  0  0  0
   12.7269  -21.0659    2.7536 C   0  0  0  0  0  0  0  0  0  0  0  0
   14.1267  -20.8475    3.2593 C   0  0  0  0  0  0  0  0  0  0  0  0
   14.9864  -20.2698    2.1820 C   0  0  2  0  0  0  0  0  0  0  0  0
   15.2197  -21.1305    1.0644 N   0  0  0  0  0  0  0  0  0  0  0  0
   16.2789  -19.7776    2.7532 C   0  0  0  0  0  0  0  0  0  0  0  0
   17.3246  -20.4966    2.5946 O   0  0  0  0  0  0  0  0  0  0  0  0
   19.1953  -16.3573    2.2345 C   0  0  0  0  0  0  0  0  0  0  0  0
   17.7771  -15.9880    2.7404 C   0  0  2  0  0  0  0  0  0  0  0  0
   17.6710  -14.5053    2.6970 C   0  0  0  0  0  0  0  0  0  0  0  0
   17.5451  -16.5975    4.0847 C   0  0  0  0  0  0  0  0  0  0  0  0
   17.5131  -18.0997    4.1293 C   0  0  2  0  0  0  0  0  0  0  0  0
   16.3150  -18.5466    3.4457 N   0  0  0  0  0  0  0  0  0  0  0  0
   17.7972  -18.7329    5.3991 C   0  0  0  0  0  0  0  0  0  0  0  0
   16.8030  -19.3048    5.9798 O   0  0  0  0  0  0  0  0  0  0  0  0
   19.0229  -18.8201    6.1150 N   0  0  0  0  0  0  0  0  0  0  0  0
   20.3635  -18.3968    5.8030 C   0  0  0  0  0  0  0  0  0  0  0  0
   21.1705  -19.5953    6.2572 C   0  0  0  0  0  0  0  0  0  0  0  0
   20.3660  -20.2550    7.3423 C   0  0  0  0  0  0  0  0  0  0  0  0
   19.1437  -19.4065    7.4598 C   0  0  1  0  0  0  0  0  0  0  0  0
   19.3195  -18.3446    8.4431 C   0  0  0  0  0  0  0  0  0  0  0  0
   19.2403  -18.4930    9.8181 O   0  0  0  0  0  0  0  0  0  0  0  0
   19.5740  -17.1469    8.0618 O   0  0  0  0  0  0  0  0  0  0  0  0
  1  2  1  0
  2  3  1  0
  4  5  1  0
  4  3  1  0
  5  6  1  6
  7  8  2  0
  7  5  1  0
 10  9  1  1
 10 12  1  0
 11 10  1  0
 13 12  1  1
 13 14  1  0
 14  7  1  0
 15 13  1  0
 16 15  2  0
 17 21  1  0
 17 15  1  0
 18 17  1  0
 19 20  1  0
 19 18  1  0
 20 21  1  0
 21 22  1  1
 22 24  2  0
 22 23  1  0
M  END
$$$$
