FKK.pdb
     RDKit          3D

 30 30  0  0  1  0  0  0  0  0999 V2000
   24.5664  -20.5843   -9.6387 N   0  0  0  0  0  0  0  0  0  0  0  0
   25.8281  -20.2600  -10.2373 C   0  0  1  0  0  0  0  0  0  0  0  0
   26.8649  -21.2569   -9.7979 C   0  0  0  0  0  0  0  0  0  0  0  0
   27.5586  -20.6938   -8.6095 C   0  0  0  0  0  0  0  0  0  0  0  0
   28.9375  -20.5846   -8.6267 C   0  0  0  0  0  0  0  0  0  0  0  0
   29.5523  -20.0586   -7.5096 C   0  0  0  0  0  0  0  0  0  0  0  0
   28.8826  -19.6411   -6.3922 C   0  0  0  0  0  0  0  0  0  0  0  0
   27.4971  -19.7501   -6.3732 C   0  0  0  0  0  0  0  0  0  0  0  0
   26.8553  -20.2731   -7.4780 C   0  0  0  0  0  0  0  0  0  0  0  0
   25.7208  -20.1652  -11.7138 C   0  0  0  0  0  0  0  0  0  0  0  0
   24.7741  -20.7740  -12.2771 O   0  0  0  0  0  0  0  0  0  0  0  0
   26.6084  -19.4398  -12.5184 N   0  0  0  0  0  0  0  0  0  0  0  0
   26.2235  -18.7746  -13.7248 C   0  0  1  0  0  0  0  0  0  0  0  0
   27.2890  -17.8070  -14.2157 C   0  0  0  0  0  0  0  0  0  0  0  0
   26.8123  -17.1529  -15.5183 C   0  0  0  0  0  0  0  0  0  0  0  0
   27.8698  -16.2427  -16.0826 C   0  0  0  0  0  0  0  0  0  0  0  0
   27.2709  -15.5548  -17.2912 C   0  0  0  0  0  0  0  0  0  0  0  0
   27.0050  -16.4848  -18.3589 N   0  0  0  0  0  0  0  0  0  0  0  0
   25.9657  -19.7418  -14.8139 C   0  0  0  0  0  0  0  0  0  0  0  0
   26.6089  -20.8171  -14.7952 O   0  0  0  0  0  0  0  0  0  0  0  0
   25.0432  -19.5141  -15.8581 N   0  0  0  0  0  0  0  0  0  0  0  0
   24.1867  -20.6407  -16.2702 C   0  0  1  0  0  0  0  0  0  0  0  0
   24.0177  -21.5986  -15.1128 C   0  0  0  0  0  0  0  0  0  0  0  0
   23.0818  -22.6891  -15.4763 C   0  0  0  0  0  0  0  0  0  0  0  0
   22.8420  -23.6771  -14.3524 C   0  0  0  0  0  0  0  0  0  0  0  0
   21.9530  -24.8204  -14.7667 C   0  0  0  0  0  0  0  0  0  0  0  0
   21.7708  -25.7845  -13.7029 N   0  0  0  0  0  0  0  0  0  0  0  0
   22.9426  -20.0425  -16.7600 C   0  0  0  0  0  0  0  0  0  0  0  0
   21.7940  -20.2797  -16.2967 O   0  0  0  0  0  0  0  0  0  0  0  0
   22.9512  -19.1235  -17.8273 O   0  0  0  0  0  0  0  0  0  0  0  0
  2  1  1  1
  2  3  1  0
  3  4  1  0
  4  9  2  0
  5  4  1  0
  5  6  2  0
  6  7  1  0
  7  8  2  0
  9  8  1  0
 10 12  1  0
 10  2  1  0
 11 10  2  0
 13 19  1  0
 13 12  1  0
 13 14  1  6
 15 14  1  0
 16 15  1  0
 17 18  1  0
 17 16  1  0
 19 21  1  0
 20 19  2  0
 21 22  1  0
 22 28  1  0
 23 24  1  0
 22 23  1  1
 25 24  1  0
 26 25  1  0
 27 26  1  0
 28 29  2  0
 28 30  1  0
M  END
$$$$
