FKK.pdb
     RDKit          3D

 30 30  0  0  1  0  0  0  0  0999 V2000
   23.0168  -17.6727  -20.6838 N   0  0  0  0  0  0  0  0  0  0  0  0
   22.9126  -17.2734  -19.3108 C   0  0  1  0  0  0  0  0  0  0  0  0
   21.7389  -16.3481  -19.1434 C   0  0  0  0  0  0  0  0  0  0  0  0
   22.0459  -15.0910  -19.8757 C   0  0  0  0  0  0  0  0  0  0  0  0
   23.0590  -14.2729  -19.4089 C   0  0  0  0  0  0  0  0  0  0  0  0
   23.3201  -13.1138  -20.1094 C   0  0  0  0  0  0  0  0  0  0  0  0
   22.6403  -12.7279  -21.2321 C   0  0  0  0  0  0  0  0  0  0  0  0
   21.6221  -13.5488  -21.7024 C   0  0  0  0  0  0  0  0  0  0  0  0
   21.3390  -14.7155  -21.0207 C   0  0  0  0  0  0  0  0  0  0  0  0
   22.8439  -18.4476  -18.4070 C   0  0  0  0  0  0  0  0  0  0  0  0
   21.9192  -19.2814  -18.5915 O   0  0  0  0  0  0  0  0  0  0  0  0
   23.7450  -18.6846  -17.3614 N   0  0  0  0  0  0  0  0  0  0  0  0
   23.7099  -19.8495  -16.5320 C   0  0  1  0  0  0  0  0  0  0  0  0
   25.0203  -20.0721  -15.7933 C   0  0  0  0  0  0  0  0  0  0  0  0
   24.9207  -21.3622  -14.9703 C   0  0  0  0  0  0  0  0  0  0  0  0
   25.1879  -22.5702  -15.8274 C   0  0  0  0  0  0  0  0  0  0  0  0
   24.8917  -23.7925  -14.9844 C   0  0  0  0  0  0  0  0  0  0  0  0
   25.0690  -25.0123  -15.7301 N   0  0  0  0  0  0  0  0  0  0  0  0
   22.6380  -19.7553  -15.5169 C   0  0  0  0  0  0  0  0  0  0  0  0
   22.6064  -18.7246  -14.8048 O   0  0  0  0  0  0  0  0  0  0  0  0
   21.6635  -20.7568  -15.3153 N   0  0  0  0  0  0  0  0  0  0  0  0
   20.7083  -20.5672  -14.2089 C   0  0  1  0  0  0  0  0  0  0  0  0
   19.6579  -21.6537  -14.2545 C   0  0  0  0  0  0  0  0  0  0  0  0
   18.7116  -21.5062  -13.1232 C   0  0  0  0  0  0  0  0  0  0  0  0
   17.6271  -22.5646  -13.1027 C   0  0  0  0  0  0  0  0  0  0  0  0
   16.5835  -22.3036  -12.0482 C   0  0  0  0  0  0  0  0  0  0  0  0
   15.5169  -23.2813  -12.0808 N   0  0  0  0  0  0  0  0  0  0  0  0
   21.5111  -20.5391  -12.9842 C   0  0  0  0  0  0  0  0  0  0  0  0
   22.4735  -21.3138  -12.7315 O   0  0  0  0  0  0  0  0  0  0  0  0
   21.2470  -19.6028  -11.9656 O   0  0  0  0  0  0  0  0  0  0  0  0
  2  1  1  6
  2  3  1  0
  3  4  1  0
  4  9  2  0
  5  4  1  0
  5  6  2  0
  6  7  1  0
  7  8  2  0
  9  8  1  0
 10 12  1  0
 10  2  1  0
 11 10  2  0
 13 19  1  0
 13 12  1  0
 13 14  1  1
 15 14  1  0
 16 15  1  0
 17 18  1  0
 17 16  1  0
 19 21  1  0
 20 19  2  0
 21 22  1  0
 22 28  1  0
 23 24  1  0
 22 23  1  1
 25 24  1  0
 26 25  1  0
 27 26  1  0
 28 29  2  0
 28 30  1  0
M  END
$$$$
