FKK.pdb
     RDKit          3D

 30 30  0  0  1  0  0  0  0  0999 V2000
   19.0370  -12.9999  -19.8000 N   0  0  0  0  0  0  0  0  0  0  0  0
   20.0259  -11.9624  -19.8347 C   0  0  1  0  0  0  0  0  0  0  0  0
   19.5228  -10.8152  -20.6670 C   0  0  0  0  0  0  0  0  0  0  0  0
   19.4366  -11.2823  -22.0760 C   0  0  0  0  0  0  0  0  0  0  0  0
   20.5781  -11.2725  -22.8572 C   0  0  0  0  0  0  0  0  0  0  0  0
   20.4664  -11.7115  -24.1600 C   0  0  0  0  0  0  0  0  0  0  0  0
   19.2999  -12.1534  -24.7217 C   0  0  0  0  0  0  0  0  0  0  0  0
   18.1520  -12.1640  -23.9382 C   0  0  0  0  0  0  0  0  0  0  0  0
   18.2348  -11.7299  -22.6302 C   0  0  0  0  0  0  0  0  0  0  0  0
   20.4212  -11.5425  -18.4681 C   0  0  0  0  0  0  0  0  0  0  0  0
   19.5071  -11.2924  -17.6397 O   0  0  0  0  0  0  0  0  0  0  0  0
   21.7491  -11.4075  -18.0439 N   0  0  0  0  0  0  0  0  0  0  0  0
   22.1233  -10.9852  -16.7295 C   0  0  1  0  0  0  0  0  0  0  0  0
   23.5153  -11.4613  -16.3446 C   0  0  0  0  0  0  0  0  0  0  0  0
   23.4747  -12.9712  -16.0787 C   0  0  0  0  0  0  0  0  0  0  0  0
   24.8648  -13.5324  -15.9453 C   0  0  0  0  0  0  0  0  0  0  0  0
   24.7258  -15.0185  -15.6913 C   0  0  0  0  0  0  0  0  0  0  0  0
   26.0081  -15.6576  -15.5403 N   0  0  0  0  0  0  0  0  0  0  0  0
   22.1103   -9.5106  -16.6138 C   0  0  0  0  0  0  0  0  0  0  0  0
   22.7002   -8.8564  -17.5052 O   0  0  0  0  0  0  0  0  0  0  0  0
   21.4743   -8.8155  -15.5624 N   0  0  0  0  0  0  0  0  0  0  0  0
   21.4431   -7.3438  -15.6373 C   0  0  1  0  0  0  0  0  0  0  0  0
   20.4218   -6.9102  -16.6644 C   0  0  0  0  0  0  0  0  0  0  0  0
   20.2751   -5.4353  -16.6574 C   0  0  0  0  0  0  0  0  0  0  0  0
   19.2599   -4.9259  -17.6608 C   0  0  0  0  0  0  0  0  0  0  0  0
   19.2569   -3.4234  -17.7691 C   0  0  0  0  0  0  0  0  0  0  0  0
   18.8198   -2.7879  -16.5444 N   0  0  0  0  0  0  0  0  0  0  0  0
   21.1806   -6.8766  -14.2741 C   0  0  0  0  0  0  0  0  0  0  0  0
   20.7050   -7.5847  -13.3453 O   0  0  0  0  0  0  0  0  0  0  0  0
   21.4553   -5.5475  -13.8978 O   0  0  0  0  0  0  0  0  0  0  0  0
  2  1  1  1
  2  3  1  0
  3  4  1  0
  4  9  2  0
  5  4  1  0
  5  6  2  0
  6  7  1  0
  7  8  2  0
  9  8  1  0
 10 12  1  0
 10  2  1  0
 11 10  2  0
 13 19  1  0
 13 12  1  0
 13 14  1  6
 15 14  1  0
 16 15  1  0
 17 18  1  0
 17 16  1  0
 19 21  1  0
 20 19  2  0
 21 22  1  0
 22 28  1  0
 23 24  1  0
 22 23  1  6
 25 24  1  0
 26 25  1  0
 27 26  1  0
 28 29  2  0
 28 30  1  0
M  END
$$$$
