FKK.pdb
     RDKit          3D

 30 30  0  0  1  0  0  0  0  0999 V2000
   28.8830  -21.1377   -9.2101 N   0  0  0  0  0  0  0  0  0  0  0  0
   27.4988  -20.7736   -9.1277 C   0  0  1  0  0  0  0  0  0  0  0  0
   27.3680  -19.4462   -8.4329 C   0  0  0  0  0  0  0  0  0  0  0  0
   27.7273  -19.6462   -7.0041 C   0  0  0  0  0  0  0  0  0  0  0  0
   28.9255  -19.1375   -6.5360 C   0  0  0  0  0  0  0  0  0  0  0  0
   29.2310  -19.3392   -5.2061 C   0  0  0  0  0  0  0  0  0  0  0  0
   28.4235  -20.0088   -4.3280 C   0  0  0  0  0  0  0  0  0  0  0  0
   27.2193  -20.5206   -4.7967 C   0  0  0  0  0  0  0  0  0  0  0  0
   26.8879  -20.3334   -6.1238 C   0  0  0  0  0  0  0  0  0  0  0  0
   26.8543  -20.7817  -10.4637 C   0  0  0  0  0  0  0  0  0  0  0  0
   27.4147  -20.1445  -11.3934 O   0  0  0  0  0  0  0  0  0  0  0  0
   25.6608  -21.4548  -10.7532 N   0  0  0  0  0  0  0  0  0  0  0  0
   25.1262  -21.5908  -12.0729 C   0  0  1  0  0  0  0  0  0  0  0  0
   24.7078  -23.0197  -12.3820 C   0  0  0  0  0  0  0  0  0  0  0  0
   24.3092  -23.1186  -13.8596 C   0  0  0  0  0  0  0  0  0  0  0  0
   23.8131  -24.4998  -14.1926 C   0  0  0  0  0  0  0  0  0  0  0  0
   24.2124  -24.7865  -15.6247 C   0  0  0  0  0  0  0  0  0  0  0  0
   25.4637  -25.4967  -15.6992 N   0  0  0  0  0  0  0  0  0  0  0  0
   23.9393  -20.7290  -12.2643 C   0  0  0  0  0  0  0  0  0  0  0  0
   23.1853  -20.5577  -11.2781 O   0  0  0  0  0  0  0  0  0  0  0  0
   23.6205  -20.0996  -13.4872 N   0  0  0  0  0  0  0  0  0  0  0  0
   22.4093  -19.2607  -13.5279 C   0  0  1  0  0  0  0  0  0  0  0  0
   22.4550  -18.3634  -14.7439 C   0  0  0  0  0  0  0  0  0  0  0  0
   21.2577  -17.4907  -14.7882 C   0  0  0  0  0  0  0  0  0  0  0  0
   21.2011  -16.6072  -16.0183 C   0  0  0  0  0  0  0  0  0  0  0  0
   19.9424  -15.7820  -16.0807 C   0  0  0  0  0  0  0  0  0  0  0  0
   19.9898  -14.7914  -17.1348 N   0  0  0  0  0  0  0  0  0  0  0  0
   21.2759  -20.1876  -13.4901 C   0  0  0  0  0  0  0  0  0  0  0  0
   21.1744  -21.2356  -14.1841 O   0  0  0  0  0  0  0  0  0  0  0  0
   20.1786  -19.9566  -12.6378 O   0  0  0  0  0  0  0  0  0  0  0  0
  2  1  1  6
  2  3  1  0
  3  4  1  0
  4  9  2  0
  5  4  1  0
  5  6  2  0
  6  7  1  0
  7  8  2  0
  9  8  1  0
 10 12  1  0
 10  2  1  0
 11 10  2  0
 13 19  1  0
 13 12  1  0
 13 14  1  1
 15 14  1  0
 16 15  1  0
 17 18  1  0
 17 16  1  0
 19 21  1  0
 20 19  2  0
 21 22  1  0
 22 28  1  0
 23 24  1  0
 22 23  1  6
 25 24  1  0
 26 25  1  0
 27 26  1  0
 28 29  2  0
 28 30  1  0
M  END
$$$$
