FKK.pdb
     RDKit          3D

 30 30  0  0  1  0  0  0  0  0999 V2000
   24.8183  -20.6661  -10.3539 N   0  0  0  0  0  0  0  0  0  0  0  0
   25.8035  -20.3746  -11.3538 C   0  0  1  0  0  0  0  0  0  0  0  0
   26.5711  -21.6251  -11.6838 C   0  0  0  0  0  0  0  0  0  0  0  0
   28.0143  -21.3401  -11.4683 C   0  0  0  0  0  0  0  0  0  0  0  0
   28.6820  -21.9925  -10.4474 C   0  0  0  0  0  0  0  0  0  0  0  0
   30.0200  -21.7071  -10.2723 C   0  0  0  0  0  0  0  0  0  0  0  0
   30.7216  -20.8219  -11.0441 C   0  0  0  0  0  0  0  0  0  0  0  0
   30.0523  -20.1655  -12.0702 C   0  0  0  0  0  0  0  0  0  0  0  0
   28.7122  -20.4320  -12.2684 C   0  0  0  0  0  0  0  0  0  0  0  0
   25.1929  -19.7497  -12.5525 C   0  0  0  0  0  0  0  0  0  0  0  0
   23.9623  -19.9270  -12.7486 O   0  0  0  0  0  0  0  0  0  0  0  0
   25.9022  -18.9748  -13.4787 N   0  0  0  0  0  0  0  0  0  0  0  0
   25.2781  -18.1459  -14.4633 C   0  0  1  0  0  0  0  0  0  0  0  0
   26.1419  -16.9544  -14.8465 C   0  0  0  0  0  0  0  0  0  0  0  0
   25.3815  -16.0863  -15.8565 C   0  0  0  0  0  0  0  0  0  0  0  0
   26.1520  -14.8342  -16.1786 C   0  0  0  0  0  0  0  0  0  0  0  0
   25.3112  -14.0263  -17.1443 C   0  0  0  0  0  0  0  0  0  0  0  0
   25.9262  -12.7626  -17.4612 N   0  0  0  0  0  0  0  0  0  0  0  0
   24.9914  -18.9033  -15.7011 C   0  0  0  0  0  0  0  0  0  0  0  0
   25.8930  -19.6551  -16.1397 O   0  0  0  0  0  0  0  0  0  0  0  0
   23.7683  -18.8205  -16.4015 N   0  0  0  0  0  0  0  0  0  0  0  0
   23.4667  -19.8836  -17.3769 C   0  0  1  0  0  0  0  0  0  0  0  0
   22.7437  -21.0165  -16.6844 C   0  0  0  0  0  0  0  0  0  0  0  0
   23.6899  -22.1084  -16.3534 C   0  0  0  0  0  0  0  0  0  0  0  0
   23.0446  -23.2602  -15.6093 C   0  0  0  0  0  0  0  0  0  0  0  0
   23.9996  -24.3995  -15.3658 C   0  0  0  0  0  0  0  0  0  0  0  0
   23.3731  -25.4965  -14.6596 N   0  0  0  0  0  0  0  0  0  0  0  0
   22.7115  -19.2394  -18.4539 C   0  0  0  0  0  0  0  0  0  0  0  0
   21.9017  -18.2851  -18.2997 O   0  0  0  0  0  0  0  0  0  0  0  0
   22.8483  -19.6642  -19.7898 O   0  0  0  0  0  0  0  0  0  0  0  0
  2  1  1  1
  2  3  1  0
  3  4  1  0
  4  9  2  0
  5  4  1  0
  5  6  2  0
  6  7  1  0
  7  8  2  0
  9  8  1  0
 10 12  1  0
 10  2  1  0
 11 10  2  0
 13 19  1  0
 13 12  1  0
 13 14  1  6
 15 14  1  0
 16 15  1  0
 17 18  1  0
 17 16  1  0
 19 21  1  0
 20 19  2  0
 21 22  1  0
 22 28  1  0
 23 24  1  0
 22 23  1  1
 25 24  1  0
 26 25  1  0
 27 26  1  0
 28 29  2  0
 28 30  1  0
M  END
$$$$
