FKK.pdb
     RDKit          3D

 30 30  0  0  1  0  0  0  0  0999 V2000
   28.2169  -21.7293  -13.6184 N   0  0  0  0  0  0  0  0  0  0  0  0
   27.1556  -21.4797  -12.6873 C   0  0  1  0  0  0  0  0  0  0  0  0
   27.4475  -20.2216  -11.9166 C   0  0  0  0  0  0  0  0  0  0  0  0
   28.5279  -20.5285  -10.9423 C   0  0  0  0  0  0  0  0  0  0  0  0
   28.1844  -20.9151   -9.6593 C   0  0  0  0  0  0  0  0  0  0  0  0
   29.2087  -21.1929   -8.7783 C   0  0  0  0  0  0  0  0  0  0  0  0
   30.5365  -21.1091   -9.0967 C   0  0  0  0  0  0  0  0  0  0  0  0
   30.8833  -20.7207  -10.3854 C   0  0  0  0  0  0  0  0  0  0  0  0
   29.8783  -20.4365  -11.2883 C   0  0  0  0  0  0  0  0  0  0  0  0
   25.8368  -21.4379  -13.3648 C   0  0  0  0  0  0  0  0  0  0  0  0
   25.7230  -20.7185  -14.3914 O   0  0  0  0  0  0  0  0  0  0  0  0
   24.7112  -22.1500  -12.9319 N   0  0  0  0  0  0  0  0  0  0  0  0
   23.5293  -22.3215  -13.7191 C   0  0  1  0  0  0  0  0  0  0  0  0
   22.7410  -23.5577  -13.3154 C   0  0  0  0  0  0  0  0  0  0  0  0
   21.5752  -23.7520  -14.2927 C   0  0  0  0  0  0  0  0  0  0  0  0
   22.0095  -24.5388  -15.4999 C   0  0  0  0  0  0  0  0  0  0  0  0
   20.8157  -24.6338  -16.4263 C   0  0  0  0  0  0  0  0  0  0  0  0
   21.1168  -25.3979  -17.6101 N   0  0  0  0  0  0  0  0  0  0  0  0
   22.6253  -21.1574  -13.5936 C   0  0  0  0  0  0  0  0  0  0  0  0
   22.5126  -20.6337  -12.4607 O   0  0  0  0  0  0  0  0  0  0  0  0
   21.8944  -20.6165  -14.6736 N   0  0  0  0  0  0  0  0  0  0  0  0
   21.1003  -19.4010  -14.4200 C   0  0  1  0  0  0  0  0  0  0  0  0
   21.1002  -18.5289  -15.6550 C   0  0  0  0  0  0  0  0  0  0  0  0
   20.3279  -17.2874  -15.4117 C   0  0  0  0  0  0  0  0  0  0  0  0
   20.3155  -16.3432  -16.5970 C   0  0  0  0  0  0  0  0  0  0  0  0
   19.6531  -15.0274  -16.2820 C   0  0  0  0  0  0  0  0  0  0  0  0
   19.7238  -14.1004  -17.3911 N   0  0  0  0  0  0  0  0  0  0  0  0
   19.7777  -19.8653  -13.9952 C   0  0  0  0  0  0  0  0  0  0  0  0
   18.9727  -19.2048  -13.2837 O   0  0  0  0  0  0  0  0  0  0  0  0
   19.3001  -21.1358  -14.3713 O   0  0  0  0  0  0  0  0  0  0  0  0
  2  1  1  6
  2  3  1  0
  3  4  1  0
  4  9  2  0
  5  4  1  0
  5  6  2  0
  6  7  1  0
  7  8  2  0
  9  8  1  0
 10 12  1  0
 10  2  1  0
 11 10  2  0
 13 19  1  0
 13 12  1  0
 13 14  1  1
 15 14  1  0
 16 15  1  0
 17 18  1  0
 17 16  1  0
 19 21  1  0
 20 19  2  0
 21 22  1  0
 22 28  1  0
 23 24  1  0
 22 23  1  6
 25 24  1  0
 26 25  1  0
 27 26  1  0
 28 29  2  0
 28 30  1  0
M  END
$$$$
