FKK.pdb
     RDKit          3D

 30 30  0  0  1  0  0  0  0  0999 V2000
   18.8184  -26.1154   -4.6030 N   0  0  0  0  0  0  0  0  0  0  0  0
   17.8217  -27.0294   -5.0789 C   0  0  1  0  0  0  0  0  0  0  0  0
   16.4546  -26.5136   -4.7228 C   0  0  0  0  0  0  0  0  0  0  0  0
   16.2258  -26.7965   -3.2812 C   0  0  0  0  0  0  0  0  0  0  0  0
   16.2193  -28.1102   -2.8480 C   0  0  0  0  0  0  0  0  0  0  0  0
   16.0045  -28.3407   -1.5052 C   0  0  0  0  0  0  0  0  0  0  0  0
   15.7987  -27.3524   -0.5819 C   0  0  0  0  0  0  0  0  0  0  0  0
   15.8049  -26.0319   -1.0155 C   0  0  0  0  0  0  0  0  0  0  0  0
   16.0176  -25.7718   -2.3546 C   0  0  0  0  0  0  0  0  0  0  0  0
   17.9708  -27.2878   -6.5320 C   0  0  0  0  0  0  0  0  0  0  0  0
   18.1339  -26.2992   -7.2938 O   0  0  0  0  0  0  0  0  0  0  0  0
   17.9411  -28.5644   -7.1073 N   0  0  0  0  0  0  0  0  0  0  0  0
   18.0731  -28.8056   -8.5110 C   0  0  1  0  0  0  0  0  0  0  0  0
   18.3625  -30.2659   -8.8212 C   0  0  0  0  0  0  0  0  0  0  0  0
   18.4804  -30.4435  -10.3399 C   0  0  0  0  0  0  0  0  0  0  0  0
   19.8859  -30.8125  -10.7318 C   0  0  0  0  0  0  0  0  0  0  0  0
   19.8840  -31.0624  -12.2251 C   0  0  0  0  0  0  0  0  0  0  0  0
   21.2011  -31.3776  -12.7163 N   0  0  0  0  0  0  0  0  0  0  0  0
   16.8409  -28.4324   -9.2394 C   0  0  0  0  0  0  0  0  0  0  0  0
   15.7446  -28.7178   -8.7034 O   0  0  0  0  0  0  0  0  0  0  0  0
   16.8413  -27.7795  -10.4912 N   0  0  0  0  0  0  0  0  0  0  0  0
   15.5354  -27.4510  -11.0905 C   0  0  1  0  0  0  0  0  0  0  0  0
   15.5560  -26.0284  -11.6021 C   0  0  0  0  0  0  0  0  0  0  0  0
   14.5462  -25.2084  -10.8917 C   0  0  0  0  0  0  0  0  0  0  0  0
   15.1528  -24.1281  -10.0190 C   0  0  0  0  0  0  0  0  0  0  0  0
   14.1222  -23.4068   -9.1903 C   0  0  0  0  0  0  0  0  0  0  0  0
   14.7087  -22.3676   -8.3714 N   0  0  0  0  0  0  0  0  0  0  0  0
   15.2949  -28.4696  -12.1152 C   0  0  0  0  0  0  0  0  0  0  0  0
   14.1599  -28.8024  -12.5526 O   0  0  0  0  0  0  0  0  0  0  0  0
   16.3641  -29.1730  -12.7030 O   0  0  0  0  0  0  0  0  0  0  0  0
  2  1  1  6
  2  3  1  0
  3  4  1  0
  4  9  2  0
  5  4  1  0
  5  6  2  0
  6  7  1  0
  7  8  2  0
  9  8  1  0
 10 12  1  0
 10  2  1  0
 11 10  2  0
 13 19  1  0
 13 12  1  0
 13 14  1  1
 15 14  1  0
 16 15  1  0
 17 18  1  0
 17 16  1  0
 19 21  1  0
 20 19  2  0
 21 22  1  0
 22 28  1  0
 23 24  1  0
 22 23  1  6
 25 24  1  0
 26 25  1  0
 27 26  1  0
 28 29  2  0
 28 30  1  0
M  END
$$$$
