FKK.pdb
     RDKit          3D

 30 30  0  0  1  0  0  0  0  0999 V2000
   25.7953  -21.8134   -7.2469 N   0  0  0  0  0  0  0  0  0  0  0  0
   26.0449  -20.7143   -8.1329 C   0  0  1  0  0  0  0  0  0  0  0  0
   27.4949  -20.3230   -8.0536 C   0  0  0  0  0  0  0  0  0  0  0  0
   27.7630  -19.8595   -6.6665 C   0  0  0  0  0  0  0  0  0  0  0  0
   27.3160  -18.6092   -6.2787 C   0  0  0  0  0  0  0  0  0  0  0  0
   27.5800  -18.2073   -4.9859 C   0  0  0  0  0  0  0  0  0  0  0  0
   28.2539  -18.9679   -4.0700 C   0  0  0  0  0  0  0  0  0  0  0  0
   28.7037  -20.2244   -4.4581 C   0  0  0  0  0  0  0  0  0  0  0  0
   28.4534  -20.6526   -5.7465 C   0  0  0  0  0  0  0  0  0  0  0  0
   25.6151  -21.0246   -9.5183 C   0  0  0  0  0  0  0  0  0  0  0  0
   26.0958  -22.0487  -10.0702 O   0  0  0  0  0  0  0  0  0  0  0  0
   24.7075  -20.2477  -10.2491 N   0  0  0  0  0  0  0  0  0  0  0  0
   24.2600  -20.5790  -11.5666 C   0  0  1  0  0  0  0  0  0  0  0  0
   22.7780  -20.2989  -11.7606 C   0  0  0  0  0  0  0  0  0  0  0  0
   22.3574  -20.7635  -13.1603 C   0  0  0  0  0  0  0  0  0  0  0  0
   20.9036  -20.4667  -13.4124 C   0  0  0  0  0  0  0  0  0  0  0  0
   20.5651  -21.0150  -14.7825 C   0  0  0  0  0  0  0  0  0  0  0  0
   19.1642  -20.8699  -15.0855 N   0  0  0  0  0  0  0  0  0  0  0  0
   24.9957  -19.8102  -12.5941 C   0  0  0  0  0  0  0  0  0  0  0  0
   25.8718  -19.0071  -12.1968 O   0  0  0  0  0  0  0  0  0  0  0  0
   24.7611  -19.9364  -13.9806 N   0  0  0  0  0  0  0  0  0  0  0  0
   25.9058  -19.7382  -14.8877 C   0  0  1  0  0  0  0  0  0  0  0  0
   26.9991  -20.7254  -14.5471 C   0  0  0  0  0  0  0  0  0  0  0  0
   27.4044  -21.4852  -15.7535 C   0  0  0  0  0  0  0  0  0  0  0  0
   28.5149  -22.4829  -15.4926 C   0  0  0  0  0  0  0  0  0  0  0  0
   28.9003  -23.2558  -16.7268 C   0  0  0  0  0  0  0  0  0  0  0  0
   29.9714  -24.1950  -16.4714 N   0  0  0  0  0  0  0  0  0  0  0  0
   25.3694  -19.8590  -16.2453 C   0  0  0  0  0  0  0  0  0  0  0  0
   24.4616  -20.6608  -16.5962 O   0  0  0  0  0  0  0  0  0  0  0  0
   25.8557  -19.0510  -17.2914 O   0  0  0  0  0  0  0  0  0  0  0  0
  2  1  1  1
  2  3  1  0
  3  4  1  0
  4  9  2  0
  5  4  1  0
  5  6  2  0
  6  7  1  0
  7  8  2  0
  9  8  1  0
 10 12  1  0
 10  2  1  0
 11 10  2  0
 13 19  1  0
 13 12  1  0
 13 14  1  1
 15 14  1  0
 16 15  1  0
 17 18  1  0
 17 16  1  0
 19 21  1  0
 20 19  2  0
 21 22  1  0
 22 28  1  0
 23 24  1  0
 22 23  1  1
 25 24  1  0
 26 25  1  0
 27 26  1  0
 28 29  2  0
 28 30  1  0
M  END
$$$$
