FKK.pdb
     RDKit          3D

 30 30  0  0  1  0  0  0  0  0999 V2000
   24.8505  -19.3396   -8.4561 N   0  0  0  0  0  0  0  0  0  0  0  0
   26.0194  -19.9500   -9.0187 C   0  0  1  0  0  0  0  0  0  0  0  0
   26.4684  -21.0838   -8.1387 C   0  0  0  0  0  0  0  0  0  0  0  0
   27.1370  -20.4950   -6.9483 C   0  0  0  0  0  0  0  0  0  0  0  0
   26.4478  -20.4405   -5.7501 C   0  0  0  0  0  0  0  0  0  0  0  0
   27.0944  -19.8887   -4.6639 C   0  0  0  0  0  0  0  0  0  0  0  0
   28.3697  -19.3949   -4.7016 C   0  0  0  0  0  0  0  0  0  0  0  0
   29.0635  -19.4489   -5.9047 C   0  0  0  0  0  0  0  0  0  0  0  0
   28.4406  -19.9962   -7.0085 C   0  0  0  0  0  0  0  0  0  0  0  0
   25.7887  -20.3759  -10.4208 C   0  0  0  0  0  0  0  0  0  0  0  0
   24.6178  -20.6933  -10.7563 O   0  0  0  0  0  0  0  0  0  0  0  0
   26.7941  -20.4462  -11.3932 N   0  0  0  0  0  0  0  0  0  0  0  0
   26.5478  -20.3434  -12.7984 C   0  0  1  0  0  0  0  0  0  0  0  0
   27.8294  -20.3993  -13.6150 C   0  0  0  0  0  0  0  0  0  0  0  0
   27.4936  -20.1728  -15.0941 C   0  0  0  0  0  0  0  0  0  0  0  0
   28.7408  -20.1765  -15.9365 C   0  0  0  0  0  0  0  0  0  0  0  0
   28.4200  -20.9315  -17.2091 C   0  0  0  0  0  0  0  0  0  0  0  0
   28.7956  -22.3193  -17.1169 N   0  0  0  0  0  0  0  0  0  0  0  0
   25.6708  -21.4362  -13.2725 C   0  0  0  0  0  0  0  0  0  0  0  0
   25.5471  -22.4395  -12.5319 O   0  0  0  0  0  0  0  0  0  0  0  0
   24.9769  -21.4030  -14.5016 N   0  0  0  0  0  0  0  0  0  0  0  0
   23.5324  -21.6953  -14.4784 C   0  0  1  0  0  0  0  0  0  0  0  0
   22.8872  -20.9700  -13.3193 C   0  0  0  0  0  0  0  0  0  0  0  0
   21.4156  -21.1438  -13.3550 C   0  0  0  0  0  0  0  0  0  0  0  0
   20.8788  -21.9735  -12.2059 C   0  0  0  0  0  0  0  0  0  0  0  0
   19.5565  -22.6199  -12.5270 C   0  0  0  0  0  0  0  0  0  0  0  0
   19.0569  -23.4178  -11.4279 N   0  0  0  0  0  0  0  0  0  0  0  0
   23.0240  -21.3185  -15.7993 C   0  0  0  0  0  0  0  0  0  0  0  0
   23.2851  -20.2376  -16.3941 O   0  0  0  0  0  0  0  0  0  0  0  0
   22.1733  -22.1783  -16.5209 O   0  0  0  0  0  0  0  0  0  0  0  0
  2  1  1  1
  2  3  1  0
  3  4  1  0
  4  9  2  0
  5  4  1  0
  5  6  2  0
  6  7  1  0
  7  8  2  0
  9  8  1  0
 10 12  1  0
 10  2  1  0
 11 10  2  0
 13 19  1  0
 13 12  1  0
 13 14  1  6
 15 14  1  0
 16 15  1  0
 17 18  1  0
 17 16  1  0
 19 21  1  0
 20 19  2  0
 21 22  1  0
 22 28  1  0
 23 24  1  0
 22 23  1  1
 25 24  1  0
 26 25  1  0
 27 26  1  0
 28 29  2  0
 28 30  1  0
M  END
$$$$
