FKK.pdb
     RDKit          3D

 30 30  0  0  1  0  0  0  0  0999 V2000
   28.3745  -21.1065   -9.2429 N   0  0  0  0  0  0  0  0  0  0  0  0
   27.0041  -20.7395   -9.0362 C   0  0  1  0  0  0  0  0  0  0  0  0
   26.9387  -19.4699   -8.2327 C   0  0  0  0  0  0  0  0  0  0  0  0
   27.5130  -19.7537   -6.8909 C   0  0  0  0  0  0  0  0  0  0  0  0
   26.9848  -20.7886   -6.1402 C   0  0  0  0  0  0  0  0  0  0  0  0
   27.5385  -21.0274   -4.8997 C   0  0  0  0  0  0  0  0  0  0  0  0
   28.5732  -20.3053   -4.3711 C   0  0  0  0  0  0  0  0  0  0  0  0
   29.1051  -19.2651   -5.1241 C   0  0  0  0  0  0  0  0  0  0  0  0
   28.5702  -19.0037   -6.3697 C   0  0  0  0  0  0  0  0  0  0  0  0
   26.2692  -20.6375  -10.3206 C   0  0  0  0  0  0  0  0  0  0  0  0
   26.6145  -19.7362  -11.1285 O   0  0  0  0  0  0  0  0  0  0  0  0
   25.2149  -21.4828  -10.6886 N   0  0  0  0  0  0  0  0  0  0  0  0
   24.7216  -21.6003  -12.0261 C   0  0  1  0  0  0  0  0  0  0  0  0
   24.4504  -23.0447  -12.4167 C   0  0  0  0  0  0  0  0  0  0  0  0
   24.2267  -23.1224  -13.9319 C   0  0  0  0  0  0  0  0  0  0  0  0
   25.4594  -23.6257  -14.6335 C   0  0  0  0  0  0  0  0  0  0  0  0
   25.2411  -23.4304  -16.1190 C   0  0  0  0  0  0  0  0  0  0  0  0
   26.3337  -23.9601  -16.8944 N   0  0  0  0  0  0  0  0  0  0  0  0
   23.4603  -20.8480  -12.2026 C   0  0  0  0  0  0  0  0  0  0  0  0
   22.7371  -20.6883  -11.1916 O   0  0  0  0  0  0  0  0  0  0  0  0
   23.0387  -20.3093  -13.4377 N   0  0  0  0  0  0  0  0  0  0  0  0
   21.7404  -19.6123  -13.4711 C   0  0  1  0  0  0  0  0  0  0  0  0
   21.6020  -18.8611  -14.7759 C   0  0  0  0  0  0  0  0  0  0  0  0
   21.9708  -17.4369  -14.5944 C   0  0  0  0  0  0  0  0  0  0  0  0
   21.8824  -16.6242  -15.8705 C   0  0  0  0  0  0  0  0  0  0  0  0
   22.3624  -15.2079  -15.6891 C   0  0  0  0  0  0  0  0  0  0  0  0
   22.2089  -14.4201  -16.8934 N   0  0  0  0  0  0  0  0  0  0  0  0
   20.7243  -20.6426  -13.2441 C   0  0  0  0  0  0  0  0  0  0  0  0
   20.8291  -21.8510  -13.5892 O   0  0  0  0  0  0  0  0  0  0  0  0
   19.5118  -20.3347  -12.5970 O   0  0  0  0  0  0  0  0  0  0  0  0
  2  1  1  6
  2  3  1  0
  3  4  1  0
  4  9  2  0
  5  4  1  0
  5  6  2  0
  6  7  1  0
  7  8  2  0
  9  8  1  0
 10 12  1  0
 10  2  1  0
 11 10  2  0
 13 19  1  0
 13 12  1  0
 13 14  1  1
 15 14  1  0
 16 15  1  0
 17 18  1  0
 17 16  1  0
 19 21  1  0
 20 19  2  0
 21 22  1  0
 22 28  1  0
 23 24  1  0
 22 23  1  6
 25 24  1  0
 26 25  1  0
 27 26  1  0
 28 29  2  0
 28 30  1  0
M  END
$$$$
