SNM.pdb
     RDKit          3D

 23 22  0  0  1  0  0  0  0  0999 V2000
    6.2652  -19.2628   24.5131 O   0  0  0  0  0  0  0  0  0  0  0  0
    5.7494  -18.2227   23.7435 C   0  0  0  0  0  0  0  0  0  0  0  0
    5.9614  -18.5252   22.2666 C   0  0  2  0  0  0  0  0  0  0  0  0
    6.4124  -19.8906   22.1841 N   0  0  0  0  0  0  0  0  0  0  0  0
    6.9691  -17.6362   21.6478 C   0  0  0  0  0  0  0  0  0  0  0  0
    8.1675  -18.0031   21.6196 O   0  0  0  0  0  0  0  0  0  0  0  0
    7.9067  -12.0072   19.6110 N   0  0  0  0  0  0  0  0  0  0  0  0
    8.1187  -13.3888   19.3388 C   0  0  0  0  0  0  0  0  0  0  0  0
    9.1296  -13.6890   18.6819 O   0  0  0  0  0  0  0  0  0  0  0  0
    7.1189  -14.3501   19.8604 C   0  0  0  0  0  0  0  0  0  0  0  0
    7.7196  -15.4451   20.6919 C   0  0  2  0  0  0  0  0  0  0  0  0
    6.6781  -16.3704   21.0693 N   0  0  0  0  0  0  0  0  0  0  0  0
    8.2909  -14.8031   21.9076 C   0  0  0  0  0  0  0  0  0  0  0  0
    9.2211  -13.9450   21.8044 O   0  0  0  0  0  0  0  0  0  0  0  0
    6.6869  -10.7726   28.0581 C   0  0  0  0  0  0  0  0  0  0  0  0
    6.1236  -12.2722   27.1989 S   0  0  0  0  0  0  0  0  0  0  0  0
    7.5493  -13.0649   26.3692 C   0  0  0  0  0  0  0  0  0  0  0  0
    7.1347  -13.6881   25.0712 C   0  0  0  0  0  0  0  0  0  0  0  0
    8.2886  -14.3030   24.3741 C   0  0  2  0  0  0  0  0  0  0  0  0
    7.8533  -15.0934   23.2202 N   0  0  0  0  0  0  0  0  0  0  0  0
    8.9862  -15.2573   25.2623 C   0  0  0  0  0  0  0  0  0  0  0  0
    9.4963  -14.9503   26.3707 O   0  0  0  0  0  0  0  0  0  0  0  0
    9.1049  -16.6037   24.8736 O   0  0  0  0  0  0  0  0  0  0  0  0
  1  2  1  0
  3  2  1  0
  3  5  1  0
  3  4  1  1
  5  6  2  0
  7  8  1  0
  8 10  1  0
  9  8  2  0
 11 10  1  6
 11 13  1  0
 12 11  1  0
 12  5  1  0
 13 14  2  0
 13 20  1  0
 16 15  1  0
 17 16  1  0
 18 17  1  0
 19 18  1  1
 20 19  1  0
 21 23  1  0
 21 19  1  0
 22 21  2  0
M  END
$$$$
