SNM.pdb
     RDKit          3D

 23 22  0  0  1  0  0  0  0  0999 V2000
    6.0534  -15.8357   22.0133 O   0  0  0  0  0  0  0  0  0  0  0  0
    6.7650  -15.3171   20.9339 C   0  0  0  0  0  0  0  0  0  0  0  0
    7.8272  -16.3153   20.4945 C   0  0  2  0  0  0  0  0  0  0  0  0
    7.1398  -17.5428   20.1861 N   0  0  0  0  0  0  0  0  0  0  0  0
    8.8347  -16.5672   21.5482 C   0  0  0  0  0  0  0  0  0  0  0  0
    8.7196  -17.5875   22.2675 O   0  0  0  0  0  0  0  0  0  0  0  0
   14.1044  -17.0577   22.8562 N   0  0  0  0  0  0  0  0  0  0  0  0
   13.3604  -15.9293   23.3044 C   0  0  0  0  0  0  0  0  0  0  0  0
   13.7032  -15.4156   24.3825 O   0  0  0  0  0  0  0  0  0  0  0  0
   12.2429  -15.4635   22.4501 C   0  0  0  0  0  0  0  0  0  0  0  0
   10.9118  -16.0331   22.8437 C   0  0  2  0  0  0  0  0  0  0  0  0
    9.9483  -15.7241   21.8144 N   0  0  0  0  0  0  0  0  0  0  0  0
   10.5180  -15.3746   24.1195 C   0  0  0  0  0  0  0  0  0  0  0  0
    9.7910  -14.3336   24.1078 O   0  0  0  0  0  0  0  0  0  0  0  0
    6.2872  -12.3107   26.0377 C   0  0  0  0  0  0  0  0  0  0  0  0
    7.5137  -12.6419   27.3379 S   0  0  0  0  0  0  0  0  0  0  0  0
    9.0479  -13.2819   26.5725 C   0  0  0  0  0  0  0  0  0  0  0  0
    8.9397  -14.7522   26.3049 C   0  0  0  0  0  0  0  0  0  0  0  0
   10.2077  -15.4529   26.6158 C   0  0  2  0  0  0  0  0  0  0  0  0
   10.9122  -15.8455   25.3929 N   0  0  0  0  0  0  0  0  0  0  0  0
    9.9423  -16.7155   27.3379 C   0  0  0  0  0  0  0  0  0  0  0  0
    9.4924  -17.7591   26.7982 O   0  0  0  0  0  0  0  0  0  0  0  0
   10.1986  -16.7893   28.7189 O   0  0  0  0  0  0  0  0  0  0  0  0
  1  2  1  0
  3  2  1  0
  3  5  1  0
  3  4  1  1
  5  6  2  0
  7  8  1  0
  8 10  1  0
  9  8  2  0
 11 10  1  6
 11 13  1  0
 12 11  1  0
 12  5  1  0
 13 14  2  0
 13 20  1  0
 16 15  1  0
 17 16  1  0
 18 17  1  0
 19 18  1  6
 20 19  1  0
 21 23  1  0
 21 19  1  0
 22 21  2  0
M  END
$$$$
