SNM.pdb
     RDKit          3D

 23 22  0  0  1  0  0  0  0  0999 V2000
    7.8645  -14.2947   17.4807 O   0  0  0  0  0  0  0  0  0  0  0  0
    7.5964  -13.1313   18.1981 C   0  0  0  0  0  0  0  0  0  0  0  0
    8.5730  -13.0100   19.3597 C   0  0  2  0  0  0  0  0  0  0  0  0
    9.8964  -13.0243   18.7915 N   0  0  0  0  0  0  0  0  0  0  0  0
    8.4407  -14.1223   20.3262 C   0  0  0  0  0  0  0  0  0  0  0  0
    7.3257  -14.3358   20.8579 O   0  0  0  0  0  0  0  0  0  0  0  0
    8.8592  -17.6814   19.3925 N   0  0  0  0  0  0  0  0  0  0  0  0
   10.0740  -17.9381   20.0897 C   0  0  0  0  0  0  0  0  0  0  0  0
   10.8254  -18.8084   19.6189 O   0  0  0  0  0  0  0  0  0  0  0  0
   10.3397  -17.1480   21.3148 C   0  0  0  0  0  0  0  0  0  0  0  0
    9.2952  -16.1076   21.5935 C   0  0  2  0  0  0  0  0  0  0  0  0
    9.5026  -14.9877   20.7069 N   0  0  0  0  0  0  0  0  0  0  0  0
    9.4792  -15.6754   23.0062 C   0  0  0  0  0  0  0  0  0  0  0  0
   10.5446  -15.0844   23.3639 O   0  0  0  0  0  0  0  0  0  0  0  0
    6.5556  -11.2326   27.6247 C   0  0  0  0  0  0  0  0  0  0  0  0
    6.0579  -12.3852   26.3100 S   0  0  0  0  0  0  0  0  0  0  0  0
    7.5440  -13.2197   25.6435 C   0  0  0  0  0  0  0  0  0  0  0  0
    7.4737  -14.6993   25.8691 C   0  0  0  0  0  0  0  0  0  0  0  0
    8.6957  -15.3793   25.3794 C   0  0  2  0  0  0  0  0  0  0  0  0
    8.5132  -15.8851   24.0169 N   0  0  0  0  0  0  0  0  0  0  0  0
    8.9951  -16.5702   26.2029 C   0  0  0  0  0  0  0  0  0  0  0  0
    8.8476  -17.7570   25.8122 O   0  0  0  0  0  0  0  0  0  0  0  0
    9.4783  -16.4014   27.5130 O   0  0  0  0  0  0  0  0  0  0  0  0
  1  2  1  0
  3  2  1  0
  3  5  1  0
  3  4  1  6
  5  6  2  0
  7  8  1  0
  8 10  1  0
  9  8  2  0
 11 10  1  6
 11 13  1  0
 12 11  1  0
 12  5  1  0
 13 14  2  0
 13 20  1  0
 16 15  1  0
 17 16  1  0
 18 17  1  0
 19 18  1  1
 20 19  1  0
 21 23  1  0
 21 19  1  0
 22 21  2  0
M  END
$$$$
