SNM.pdb
     RDKit          3D

 23 22  0  0  1  0  0  0  0  0999 V2000
    8.8876  -11.8762   18.2721 O   0  0  0  0  0  0  0  0  0  0  0  0
    8.5617  -12.7645   19.2944 C   0  0  0  0  0  0  0  0  0  0  0  0
    8.6985  -14.1951   18.7921 C   0  0  2  0  0  0  0  0  0  0  0  0
    7.5614  -14.4470   17.9446 N   0  0  0  0  0  0  0  0  0  0  0  0
    8.7176  -15.1807   19.8953 C   0  0  0  0  0  0  0  0  0  0  0  0
    7.6301  -15.6325   20.3253 O   0  0  0  0  0  0  0  0  0  0  0  0
   12.5072  -18.5578   23.3378 N   0  0  0  0  0  0  0  0  0  0  0  0
   11.2269  -18.3564   22.7479 C   0  0  0  0  0  0  0  0  0  0  0  0
   10.2765  -19.0021   23.2205 O   0  0  0  0  0  0  0  0  0  0  0  0
   11.1354  -17.3961   21.6231 C   0  0  0  0  0  0  0  0  0  0  0  0
    9.8543  -16.6153   21.6063 C   0  0  2  0  0  0  0  0  0  0  0  0
    9.8991  -15.6668   20.5193 N   0  0  0  0  0  0  0  0  0  0  0  0
    9.7695  -15.8926   22.9052 C   0  0  0  0  0  0  0  0  0  0  0  0
   10.6490  -15.0329   23.2209 O   0  0  0  0  0  0  0  0  0  0  0  0
    7.4687  -10.9774   26.7363 C   0  0  0  0  0  0  0  0  0  0  0  0
    6.3684  -12.4005   26.4744 S   0  0  0  0  0  0  0  0  0  0  0  0
    7.3402  -13.9463   26.5971 C   0  0  0  0  0  0  0  0  0  0  0  0
    7.4179  -14.6367   25.2695 C   0  0  0  0  0  0  0  0  0  0  0  0
    8.6910  -15.3800   25.1205 C   0  0  2  0  0  0  0  0  0  0  0  0
    8.7381  -16.1048   23.8485 N   0  0  0  0  0  0  0  0  0  0  0  0
    8.8151  -16.4167   26.1674 C   0  0  0  0  0  0  0  0  0  0  0  0
    8.5601  -17.6359   25.9907 O   0  0  0  0  0  0  0  0  0  0  0  0
    9.2438  -16.0504   27.4559 O   0  0  0  0  0  0  0  0  0  0  0  0
  1  2  1  0
  3  2  1  0
  3  5  1  0
  3  4  1  6
  5  6  2  0
  7  8  1  0
  8 10  1  0
  9  8  2  0
 11 10  1  1
 11 13  1  0
 12 11  1  0
 12  5  1  0
 13 14  2  0
 13 20  1  0
 16 15  1  0
 17 16  1  0
 18 17  1  0
 19 18  1  1
 20 19  1  0
 21 23  1  0
 21 19  1  0
 22 21  2  0
M  END
$$$$
