SNM.pdb
     RDKit          3D

 23 22  0  0  1  0  0  0  0  0999 V2000
    8.6362  -12.0503   20.1544 O   0  0  0  0  0  0  0  0  0  0  0  0
    9.0651  -12.8870   19.1266 C   0  0  0  0  0  0  0  0  0  0  0  0
    8.1408  -14.0927   19.0290 C   0  0  2  0  0  0  0  0  0  0  0  0
    6.8159  -13.5807   18.7906 N   0  0  0  0  0  0  0  0  0  0  0  0
    8.1393  -14.9037   20.2664 C   0  0  0  0  0  0  0  0  0  0  0  0
    7.1534  -14.8338   21.0376 O   0  0  0  0  0  0  0  0  0  0  0  0
   11.3904  -18.6034   23.7257 N   0  0  0  0  0  0  0  0  0  0  0  0
   10.1992  -18.5528   22.9471 C   0  0  0  0  0  0  0  0  0  0  0  0
    9.2541  -19.2737   23.3086 O   0  0  0  0  0  0  0  0  0  0  0  0
   10.1864  -17.6472   21.7743 C   0  0  0  0  0  0  0  0  0  0  0  0
    9.0870  -16.6270   21.8188 C   0  0  2  0  0  0  0  0  0  0  0  0
    9.1918  -15.7761   20.6577 N   0  0  0  0  0  0  0  0  0  0  0  0
    9.2906  -15.8232   23.0553 C   0  0  0  0  0  0  0  0  0  0  0  0
   10.2893  -15.0459   23.1593 O   0  0  0  0  0  0  0  0  0  0  0  0
    6.4439  -10.8407   25.5013 C   0  0  0  0  0  0  0  0  0  0  0  0
    6.2573  -12.0283   26.8648 S   0  0  0  0  0  0  0  0  0  0  0  0
    7.5942  -13.2743   26.7682 C   0  0  0  0  0  0  0  0  0  0  0  0
    7.3941  -14.1843   25.5948 C   0  0  0  0  0  0  0  0  0  0  0  0
    8.6023  -15.0010   25.3321 C   0  0  2  0  0  0  0  0  0  0  0  0
    8.4158  -15.8664   24.1650 N   0  0  0  0  0  0  0  0  0  0  0  0
    8.8677  -15.9176   26.4615 C   0  0  0  0  0  0  0  0  0  0  0  0
    9.0203  -15.5467   27.6540 O   0  0  0  0  0  0  0  0  0  0  0  0
    8.9616  -17.3004   26.2225 O   0  0  0  0  0  0  0  0  0  0  0  0
  1  2  1  0
  3  2  1  0
  3  5  1  0
  3  4  1  1
  5  6  2  0
  7  8  1  0
  8 10  1  0
  9  8  2  0
 11 10  1  6
 11 13  1  0
 12 11  1  0
 12  5  1  0
 13 14  2  0
 13 20  1  0
 16 15  1  0
 17 16  1  0
 18 17  1  0
 19 18  1  1
 20 19  1  0
 21 23  1  0
 21 19  1  0
 22 21  2  0
M  END
$$$$
