SNM.pdb
     RDKit          3D

 23 22  0  0  1  0  0  0  0  0999 V2000
    7.2694  -14.7186   17.9595 O   0  0  0  0  0  0  0  0  0  0  0  0
    6.9376  -13.5814   18.6922 C   0  0  0  0  0  0  0  0  0  0  0  0
    8.0259  -13.2985   19.7185 C   0  0  2  0  0  0  0  0  0  0  0  0
    9.2612  -13.1736   18.9885 N   0  0  0  0  0  0  0  0  0  0  0  0
    8.1530  -14.3813   20.7186 C   0  0  0  0  0  0  0  0  0  0  0  0
    7.1628  -14.6693   21.4315 O   0  0  0  0  0  0  0  0  0  0  0  0
    9.2435  -18.7266   20.4668 N   0  0  0  0  0  0  0  0  0  0  0  0
   10.4321  -17.9438   20.5144 C   0  0  0  0  0  0  0  0  0  0  0  0
   11.2398  -18.0814   19.5804 O   0  0  0  0  0  0  0  0  0  0  0  0
   10.6057  -17.0331   21.6703 C   0  0  0  0  0  0  0  0  0  0  0  0
    9.4051  -16.1748   21.9407 C   0  0  2  0  0  0  0  0  0  0  0  0
    9.3365  -15.1380   20.9389 N   0  0  0  0  0  0  0  0  0  0  0  0
    9.6003  -15.5668   23.2856 C   0  0  0  0  0  0  0  0  0  0  0  0
   10.6973  -15.0001   23.5816 O   0  0  0  0  0  0  0  0  0  0  0  0
    6.3861  -11.2308   25.9738 C   0  0  0  0  0  0  0  0  0  0  0  0
    6.6891  -12.0574   27.5642 S   0  0  0  0  0  0  0  0  0  0  0  0
    7.8370  -13.4594   27.3076 C   0  0  0  0  0  0  0  0  0  0  0  0
    7.6914  -14.0249   25.9278 C   0  0  0  0  0  0  0  0  0  0  0  0
    8.8200  -14.9238   25.5902 C   0  0  2  0  0  0  0  0  0  0  0  0
    8.6112  -15.5766   24.2956 N   0  0  0  0  0  0  0  0  0  0  0  0
    8.9217  -16.0242   26.5724 C   0  0  0  0  0  0  0  0  0  0  0  0
    8.6185  -17.2209   26.3295 O   0  0  0  0  0  0  0  0  0  0  0  0
    9.3844  -15.7505   27.8721 O   0  0  0  0  0  0  0  0  0  0  0  0
  1  2  1  0
  3  2  1  0
  3  5  1  0
  3  4  1  6
  5  6  2  0
  7  8  1  0
  8 10  1  0
  9  8  2  0
 11 10  1  6
 11 13  1  0
 12 11  1  0
 12  5  1  0
 13 14  2  0
 13 20  1  0
 16 15  1  0
 17 16  1  0
 18 17  1  0
 19 18  1  1
 20 19  1  0
 21 23  1  0
 21 19  1  0
 22 21  2  0
M  END
$$$$
