SNM.pdb
     RDKit          3D

 23 22  0  0  1  0  0  0  0  0999 V2000
    5.6453  -16.7144   20.4897 O   0  0  0  0  0  0  0  0  0  0  0  0
    6.5007  -16.7281   19.3904 C   0  0  0  0  0  0  0  0  0  0  0  0
    7.7939  -16.0045   19.7394 C   0  0  2  0  0  0  0  0  0  0  0  0
    8.6308  -16.0642   18.5688 N   0  0  0  0  0  0  0  0  0  0  0  0
    8.4990  -16.6286   20.8805 C   0  0  0  0  0  0  0  0  0  0  0  0
    8.0017  -17.6454   21.4194 O   0  0  0  0  0  0  0  0  0  0  0  0
   12.1328  -18.9751   21.0697 N   0  0  0  0  0  0  0  0  0  0  0  0
   12.2137  -17.5534   21.0679 C   0  0  0  0  0  0  0  0  0  0  0  0
   12.5939  -17.0081   20.0183 O   0  0  0  0  0  0  0  0  0  0  0  0
   11.8385  -16.8453   22.3143 C   0  0  0  0  0  0  0  0  0  0  0  0
   10.3578  -16.7972   22.5520 C   0  0  2  0  0  0  0  0  0  0  0  0
    9.7241  -16.1553   21.4252 N   0  0  0  0  0  0  0  0  0  0  0  0
   10.1420  -15.9877   23.7827 C   0  0  0  0  0  0  0  0  0  0  0  0
   10.4803  -14.7643   23.8147 O   0  0  0  0  0  0  0  0  0  0  0  0
    6.7253  -10.9650   26.4257 C   0  0  0  0  0  0  0  0  0  0  0  0
    6.5321  -12.7644   26.2539 S   0  0  0  0  0  0  0  0  0  0  0  0
    8.1849  -13.5494   26.2239 C   0  0  0  0  0  0  0  0  0  0  0  0
    8.0680  -15.0431   26.2049 C   0  0  0  0  0  0  0  0  0  0  0  0
    9.4010  -15.6891   26.1692 C   0  0  2  0  0  0  0  0  0  0  0  0
    9.5641  -16.5059   24.9643 N   0  0  0  0  0  0  0  0  0  0  0  0
    9.5566  -16.6262   27.3022 C   0  0  0  0  0  0  0  0  0  0  0  0
    9.8972  -16.2830   28.4637 O   0  0  0  0  0  0  0  0  0  0  0  0
    9.3157  -17.9975   27.1035 O   0  0  0  0  0  0  0  0  0  0  0  0
  1  2  1  0
  3  2  1  0
  3  5  1  0
  3  4  1  6
  5  6  2  0
  7  8  1  0
  8 10  1  0
  9  8  2  0
 11 10  1  6
 11 13  1  0
 12 11  1  0
 12  5  1  0
 13 14  2  0
 13 20  1  0
 16 15  1  0
 17 16  1  0
 18 17  1  0
 19 18  1  6
 20 19  1  0
 21 23  1  0
 21 19  1  0
 22 21  2  0
M  END
$$$$
