SNM.pdb
     RDKit          3D

 23 22  0  0  1  0  0  0  0  0999 V2000
    6.1209  -19.7868   24.3816 O   0  0  0  0  0  0  0  0  0  0  0  0
    5.9255  -18.4911   23.9090 C   0  0  0  0  0  0  0  0  0  0  0  0
    5.8609  -18.5056   22.3880 C   0  0  2  0  0  0  0  0  0  0  0  0
    6.1402  -19.8567   21.9744 N   0  0  0  0  0  0  0  0  0  0  0  0
    6.8464  -17.5894   21.7729 C   0  0  0  0  0  0  0  0  0  0  0  0
    8.0435  -17.9520   21.6894 O   0  0  0  0  0  0  0  0  0  0  0  0
    7.7695  -11.9890   19.6364 N   0  0  0  0  0  0  0  0  0  0  0  0
    7.9281  -13.3828   19.3916 C   0  0  0  0  0  0  0  0  0  0  0  0
    8.8871  -13.7286   18.6814 O   0  0  0  0  0  0  0  0  0  0  0  0
    6.9391  -14.3016   20.0027 C   0  0  0  0  0  0  0  0  0  0  0  0
    7.5617  -15.3733   20.8484 C   0  0  2  0  0  0  0  0  0  0  0  0
    6.5348  -16.3015   21.2572 N   0  0  0  0  0  0  0  0  0  0  0  0
    8.1411  -14.7010   22.0437 C   0  0  0  0  0  0  0  0  0  0  0  0
    8.3591  -13.4502   22.0350 O   0  0  0  0  0  0  0  0  0  0  0  0
    7.0308  -11.1094   28.1801 C   0  0  0  0  0  0  0  0  0  0  0  0
    6.5276  -12.1642   26.7877 S   0  0  0  0  0  0  0  0  0  0  0  0
    7.9762  -13.1107   26.1922 C   0  0  0  0  0  0  0  0  0  0  0  0
    7.6538  -13.8422   24.9249 C   0  0  0  0  0  0  0  0  0  0  0  0
    8.7962  -14.6708   24.4734 C   0  0  2  0  0  0  0  0  0  0  0  0
    8.4787  -15.3845   23.2343 N   0  0  0  0  0  0  0  0  0  0  0  0
    9.1007  -15.7238   25.4656 C   0  0  0  0  0  0  0  0  0  0  0  0
    8.8165  -16.9404   25.3171 O   0  0  0  0  0  0  0  0  0  0  0  0
    9.7500  -15.3777   26.6642 O   0  0  0  0  0  0  0  0  0  0  0  0
  1  2  1  0
  3  2  1  0
  3  5  1  0
  3  4  1  6
  5  6  2  0
  7  8  1  0
  8 10  1  0
  9  8  2  0
 11 10  1  6
 11 13  1  0
 12 11  1  0
 12  5  1  0
 13 14  2  0
 13 20  1  0
 16 15  1  0
 17 16  1  0
 18 17  1  0
 19 18  1  1
 20 19  1  0
 21 23  1  0
 21 19  1  0
 22 21  2  0
M  END
$$$$
