SNM.pdb
     RDKit          3D

 23 22  0  0  1  0  0  0  0  0999 V2000
    9.7927  -12.6361   20.0367 O   0  0  0  0  0  0  0  0  0  0  0  0
    9.5713  -13.3298   18.8493 C   0  0  0  0  0  0  0  0  0  0  0  0
    8.2221  -14.0323   18.9110 C   0  0  2  0  0  0  0  0  0  0  0  0
    7.2167  -13.0122   18.7597 N   0  0  0  0  0  0  0  0  0  0  0  0
    8.0140  -14.7418   20.1925 C   0  0  0  0  0  0  0  0  0  0  0  0
    7.2286  -14.2516   21.0378 O   0  0  0  0  0  0  0  0  0  0  0  0
   11.4115  -18.5029   21.9669 N   0  0  0  0  0  0  0  0  0  0  0  0
   10.3485  -18.0010   21.1632 C   0  0  0  0  0  0  0  0  0  0  0  0
   10.6408  -17.5916   20.0271 O   0  0  0  0  0  0  0  0  0  0  0  0
    8.9867  -18.0091   21.7471 C   0  0  0  0  0  0  0  0  0  0  0  0
    8.3408  -16.6551   21.7767 C   0  0  2  0  0  0  0  0  0  0  0  0
    8.6486  -15.9635   20.5478 N   0  0  0  0  0  0  0  0  0  0  0  0
    8.9265  -15.9201   22.9314 C   0  0  0  0  0  0  0  0  0  0  0  0
    9.8173  -15.0348   22.7446 O   0  0  0  0  0  0  0  0  0  0  0  0
    6.3848  -11.3124   25.3190 C   0  0  0  0  0  0  0  0  0  0  0  0
    6.6727  -12.1134   26.9253 S   0  0  0  0  0  0  0  0  0  0  0  0
    7.9934  -13.3676   26.7470 C   0  0  0  0  0  0  0  0  0  0  0  0
    7.7359  -14.2520   25.5652 C   0  0  0  0  0  0  0  0  0  0  0  0
    8.8579  -15.1931   25.3398 C   0  0  2  0  0  0  0  0  0  0  0  0
    8.5454  -16.1477   24.2736 N   0  0  0  0  0  0  0  0  0  0  0  0
    9.0985  -16.0157   26.5446 C   0  0  0  0  0  0  0  0  0  0  0  0
    8.7655  -17.2239   26.6555 O   0  0  0  0  0  0  0  0  0  0  0  0
    9.7395  -15.4417   27.6571 O   0  0  0  0  0  0  0  0  0  0  0  0
  1  2  1  0
  3  2  1  0
  3  5  1  0
  3  4  1  1
  5  6  2  0
  7  8  1  0
  8 10  1  0
  9  8  2  0
 11 10  1  6
 11 13  1  0
 12 11  1  0
 12  5  1  0
 13 14  2  0
 13 20  1  0
 16 15  1  0
 17 16  1  0
 18 17  1  0
 19 18  1  1
 20 19  1  0
 21 23  1  0
 21 19  1  0
 22 21  2  0
M  END
$$$$
