SNM.pdb
     RDKit          3D

 23 22  0  0  1  0  0  0  0  0999 V2000
    8.3849  -12.1387   18.9040 O   0  0  0  0  0  0  0  0  0  0  0  0
    8.3932  -12.9164   20.0596 C   0  0  0  0  0  0  0  0  0  0  0  0
    8.2202  -14.3832   19.6904 C   0  0  2  0  0  0  0  0  0  0  0  0
    6.8472  -14.5500   19.2884 N   0  0  0  0  0  0  0  0  0  0  0  0
    8.5144  -15.2884   20.8231 C   0  0  0  0  0  0  0  0  0  0  0  0
    7.5710  -15.6756   21.5523 O   0  0  0  0  0  0  0  0  0  0  0  0
   12.5671  -17.9284   19.9759 N   0  0  0  0  0  0  0  0  0  0  0  0
   11.5496  -18.2192   20.9287 C   0  0  0  0  0  0  0  0  0  0  0  0
   10.8544  -19.2288   20.7260 O   0  0  0  0  0  0  0  0  0  0  0  0
   11.4055  -17.2964   22.0790 C   0  0  0  0  0  0  0  0  0  0  0  0
   10.0263  -16.7216   22.2152 C   0  0  2  0  0  0  0  0  0  0  0  0
    9.8121  -15.7644   21.1563 N   0  0  0  0  0  0  0  0  0  0  0  0
    9.9702  -16.0363   23.5357 C   0  0  0  0  0  0  0  0  0  0  0  0
   10.8477  -15.1741   23.8502 O   0  0  0  0  0  0  0  0  0  0  0  0
    6.4601  -10.7959   26.1624 C   0  0  0  0  0  0  0  0  0  0  0  0
    6.2312  -12.5939   26.3012 S   0  0  0  0  0  0  0  0  0  0  0  0
    7.8114  -13.4353   25.9216 C   0  0  0  0  0  0  0  0  0  0  0  0
    7.6675  -14.9222   26.0374 C   0  0  0  0  0  0  0  0  0  0  0  0
    8.9583  -15.6102   25.8003 C   0  0  2  0  0  0  0  0  0  0  0  0
    8.9692  -16.2880   24.5018 N   0  0  0  0  0  0  0  0  0  0  0  0
    9.1721  -16.6771   26.8013 C   0  0  0  0  0  0  0  0  0  0  0  0
    9.4551  -16.4687   28.0094 O   0  0  0  0  0  0  0  0  0  0  0  0
    9.0589  -18.0237   26.4116 O   0  0  0  0  0  0  0  0  0  0  0  0
  1  2  1  0
  3  2  1  0
  3  5  1  0
  3  4  1  1
  5  6  2  0
  7  8  1  0
  8 10  1  0
  9  8  2  0
 11 10  1  6
 11 13  1  0
 12 11  1  0
 12  5  1  0
 13 14  2  0
 13 20  1  0
 16 15  1  0
 17 16  1  0
 18 17  1  0
 19 18  1  1
 20 19  1  0
 21 23  1  0
 21 19  1  0
 22 21  2  0
M  END
$$$$
