YDQ.pdb
     RDKit          3D

 30 30  0  0  1  0  0  0  0  0999 V2000
   -1.3308  -25.2360   20.0872 O   0  0  0  0  0  0  0  0  0  0  0  0
   -1.4060  -25.5577   21.4339 C   0  0  0  0  0  0  0  0  0  0  0  0
   -2.1401  -26.6183   21.9122 C   0  0  0  0  0  0  0  0  0  0  0  0
   -2.2005  -26.9214   23.2669 C   0  0  0  0  0  0  0  0  0  0  0  0
   -1.5177  -26.1579   24.1841 C   0  0  0  0  0  0  0  0  0  0  0  0
   -1.5824  -26.4662   25.6254 C   0  0  0  0  0  0  0  0  0  0  0  0
   -0.2534  -26.8804   26.1606 C   0  0  2  0  0  0  0  0  0  0  0  0
    0.1705  -28.1063   25.4643 N   0  0  0  0  0  0  0  0  0  0  0  0
   -0.2673  -27.1283   27.6171 C   0  0  0  0  0  0  0  0  0  0  0  0
   -0.6605  -26.2352   28.4383 O   0  0  0  0  0  0  0  0  0  0  0  0
   -0.7735  -25.0849   23.7107 C   0  0  0  0  0  0  0  0  0  0  0  0
   -0.7298  -24.8074   22.3743 C   0  0  0  0  0  0  0  0  0  0  0  0
    0.1715  -28.3929   28.0937 N   0  0  0  0  0  0  0  0  0  0  0  0
    0.2942  -28.6295   29.5013 C   0  0  1  0  0  0  0  0  0  0  0  0
   -0.5958  -29.7286   29.9217 C   0  0  0  0  0  0  0  0  0  0  0  0
   -0.2418  -30.9652   29.1883 C   0  0  0  0  0  0  0  0  0  0  0  0
   -0.6506  -31.2303   28.0321 O   0  0  0  0  0  0  0  0  0  0  0  0
    1.7198  -28.8380   29.8467 C   0  0  0  0  0  0  0  0  0  0  0  0
    2.4493  -29.3859   28.9881 O   0  0  0  0  0  0  0  0  0  0  0  0
    0.5976  -31.9379   29.7672 O   0  0  0  0  0  0  0  0  0  0  0  0
    7.6605  -27.7694   28.7107 N   0  0  0  0  0  0  0  0  0  0  0  0
    6.6365  -27.2290   29.5223 C   0  0  0  0  0  0  0  0  0  0  0  0
    6.2825  -26.0187   29.3679 O   0  0  0  0  0  0  0  0  0  0  0  0
    5.9525  -28.0283   30.5474 C   0  0  0  0  0  0  0  0  0  0  0  0
    4.4911  -27.9934   30.3747 C   0  0  0  0  0  0  0  0  0  0  0  0
    3.7274  -28.7636   31.3777 C   0  0  2  0  0  0  0  0  0  0  0  0
    2.3004  -28.4621   31.0690 N   0  0  0  0  0  0  0  0  0  0  0  0
    4.0016  -28.6606   32.7821 C   0  0  0  0  0  0  0  0  0  0  0  0
    3.1463  -28.1052   33.5660 O   0  0  0  0  0  0  0  0  0  0  0  0
    5.1380  -29.1192   33.4463 O   0  0  0  0  0  0  0  0  0  0  0  0
  1  2  1  0
  2  3  2  0
  3  4  1  0
  5  6  1  0
  5  4  2  0
  7  9  1  0
  7  6  1  0
  7  8  1  6
  9 10  2  0
 11  5  1  0
 12 11  2  0
 12  2  1  0
 13 14  1  0
 13  9  1  0
 14 15  1  6
 15 16  1  0
 16 17  2  0
 18 14  1  0
 19 18  2  0
 20 16  1  0
 21 22  1  0
 22 23  2  0
 24 22  1  0
 24 25  1  0
 26 25  1  6
 26 27  1  0
 27 18  1  0
 28 26  1  0
 28 30  1  0
 29 28  2  0
M  END
$$$$
