YDQ.pdb
     RDKit          3D

 30 30  0  0  1  0  0  0  0  0999 V2000
    5.1322  -10.1539   26.4764 O   0  0  0  0  0  0  0  0  0  0  0  0
    5.9290  -11.2722   26.2841 C   0  0  0  0  0  0  0  0  0  0  0  0
    6.3431  -12.0846   27.3142 C   0  0  0  0  0  0  0  0  0  0  0  0
    7.1419  -13.2007   27.0970 C   0  0  0  0  0  0  0  0  0  0  0  0
    7.5488  -13.5311   25.8260 C   0  0  0  0  0  0  0  0  0  0  0  0
    8.4041  -14.7090   25.5859 C   0  0  0  0  0  0  0  0  0  0  0  0
    7.7218  -15.7198   24.7275 C   0  0  2  0  0  0  0  0  0  0  0  0
    6.5645  -16.2547   25.4636 N   0  0  0  0  0  0  0  0  0  0  0  0
    8.6057  -16.8362   24.3333 C   0  0  0  0  0  0  0  0  0  0  0  0
    8.5440  -17.9689   24.9163 O   0  0  0  0  0  0  0  0  0  0  0  0
    7.1356  -12.7169   24.7792 C   0  0  0  0  0  0  0  0  0  0  0  0
    6.3504  -11.6254   25.0184 C   0  0  0  0  0  0  0  0  0  0  0  0
    9.5381  -16.6240   23.2823 N   0  0  0  0  0  0  0  0  0  0  0  0
   10.5272  -17.6169   22.9850 C   0  0  1  0  0  0  0  0  0  0  0  0
   11.0649  -17.4221   21.6250 C   0  0  0  0  0  0  0  0  0  0  0  0
   12.0677  -18.4709   21.3303 C   0  0  0  0  0  0  0  0  0  0  0  0
   11.9887  -19.6489   21.7548 O   0  0  0  0  0  0  0  0  0  0  0  0
   11.5580  -17.6240   24.0491 C   0  0  0  0  0  0  0  0  0  0  0  0
   12.2428  -16.5856   24.1988 O   0  0  0  0  0  0  0  0  0  0  0  0
   13.1967  -18.1930   20.5340 O   0  0  0  0  0  0  0  0  0  0  0  0
   10.7728  -16.7092   30.2580 N   0  0  0  0  0  0  0  0  0  0  0  0
   10.8938  -16.6430   28.8508 C   0  0  0  0  0  0  0  0  0  0  0  0
   10.6961  -15.5400   28.2523 O   0  0  0  0  0  0  0  0  0  0  0  0
   11.2511  -17.8174   28.0442 C   0  0  0  0  0  0  0  0  0  0  0  0
   12.0259  -17.4391   26.8513 C   0  0  0  0  0  0  0  0  0  0  0  0
   12.6424  -18.5686   26.1257 C   0  0  2  0  0  0  0  0  0  0  0  0
   11.8136  -18.7156   24.8952 N   0  0  0  0  0  0  0  0  0  0  0  0
   12.8858  -19.8333   26.7577 C   0  0  0  0  0  0  0  0  0  0  0  0
   12.2288  -20.8752   26.3872 O   0  0  0  0  0  0  0  0  0  0  0  0
   13.8019  -20.0951   27.7751 O   0  0  0  0  0  0  0  0  0  0  0  0
  1  2  1  0
  2  3  2  0
  3  4  1  0
  5  6  1  0
  5  4  2  0
  7  9  1  0
  7  6  1  0
  7  8  1  1
  9 10  2  0
 11  5  1  0
 12 11  2  0
 12  2  1  0
 13 14  1  0
 13  9  1  0
 14 15  1  6
 15 16  1  0
 16 17  2  0
 18 14  1  0
 19 18  2  0
 20 16  1  0
 21 22  1  0
 22 23  2  0
 24 22  1  0
 24 25  1  0
 26 25  1  1
 26 27  1  0
 27 18  1  0
 28 26  1  0
 28 30  1  0
 29 28  2  0
M  END
$$$$
