YDQ.pdb
     RDKit          3D

 30 30  0  0  1  0  0  0  0  0999 V2000
    8.9247  -12.4396   18.0311 O   0  0  0  0  0  0  0  0  0  0  0  0
    8.2608  -13.2652   18.9256 C   0  0  0  0  0  0  0  0  0  0  0  0
    8.1466  -14.6248   18.7492 C   0  0  0  0  0  0  0  0  0  0  0  0
    7.4760  -15.4322   19.6598 C   0  0  0  0  0  0  0  0  0  0  0  0
    6.8974  -14.8876   20.7818 C   0  0  0  0  0  0  0  0  0  0  0  0
    6.1758  -15.7351   21.7501 C   0  0  0  0  0  0  0  0  0  0  0  0
    6.7040  -15.5630   23.1341 C   0  0  2  0  0  0  0  0  0  0  0  0
    7.1617  -14.1727   23.2912 N   0  0  0  0  0  0  0  0  0  0  0  0
    7.8192  -16.4805   23.4466 C   0  0  0  0  0  0  0  0  0  0  0  0
    7.6529  -17.7449   23.4640 O   0  0  0  0  0  0  0  0  0  0  0  0
    7.0075  -13.5156   20.9688 C   0  0  0  0  0  0  0  0  0  0  0  0
    7.6719  -12.7433   20.0593 C   0  0  0  0  0  0  0  0  0  0  0  0
    9.0950  -15.9241   23.7325 N   0  0  0  0  0  0  0  0  0  0  0  0
   10.1633  -16.7653   24.1837 C   0  0  1  0  0  0  0  0  0  0  0  0
   11.4698  -16.1815   23.8245 C   0  0  0  0  0  0  0  0  0  0  0  0
   11.7246  -16.3803   22.3795 C   0  0  0  0  0  0  0  0  0  0  0  0
   12.0487  -15.4557   21.5958 O   0  0  0  0  0  0  0  0  0  0  0  0
    9.9998  -17.0416   25.6300 C   0  0  0  0  0  0  0  0  0  0  0  0
    9.9927  -16.0610   26.4097 O   0  0  0  0  0  0  0  0  0  0  0  0
   11.6132  -17.6560   21.7912 O   0  0  0  0  0  0  0  0  0  0  0  0
    6.1119  -19.7022   24.8382 N   0  0  0  0  0  0  0  0  0  0  0  0
    6.7500  -20.0240   26.0583 C   0  0  0  0  0  0  0  0  0  0  0  0
    6.8980  -21.2412   26.3903 O   0  0  0  0  0  0  0  0  0  0  0  0
    7.2613  -18.9885   26.9659 C   0  0  0  0  0  0  0  0  0  0  0  0
    8.4564  -19.4477   27.6921 C   0  0  0  0  0  0  0  0  0  0  0  0
    9.6109  -18.5278   27.6351 C   0  0  2  0  0  0  0  0  0  0  0  0
    9.8533  -18.3265   26.1780 N   0  0  0  0  0  0  0  0  0  0  0  0
   10.8285  -18.7944   28.3455 C   0  0  0  0  0  0  0  0  0  0  0  0
   11.9218  -18.9923   27.6973 O   0  0  0  0  0  0  0  0  0  0  0  0
   10.9902  -18.8622   29.7282 O   0  0  0  0  0  0  0  0  0  0  0  0
  1  2  1  0
  2  3  2  0
  3  4  1  0
  5  6  1  0
  5  4  2  0
  7  9  1  0
  7  6  1  0
  7  8  1  6
  9 10  2  0
 11  5  1  0
 12 11  2  0
 12  2  1  0
 13 14  1  0
 13  9  1  0
 14 15  1  1
 15 16  1  0
 16 17  2  0
 18 14  1  0
 19 18  2  0
 20 16  1  0
 21 22  1  0
 22 23  2  0
 24 22  1  0
 24 25  1  0
 26 25  1  6
 26 27  1  0
 27 18  1  0
 28 26  1  0
 28 30  1  0
 29 28  2  0
M  END
$$$$
