YDQ.pdb
     RDKit          3D

 30 30  0  0  1  0  0  0  0  0999 V2000
    6.8507  -11.4394   26.9620 O   0  0  0  0  0  0  0  0  0  0  0  0
    6.9171  -12.3450   25.9140 C   0  0  0  0  0  0  0  0  0  0  0  0
    7.6797  -12.1354   24.7883 C   0  0  0  0  0  0  0  0  0  0  0  0
    7.7305  -13.0579   23.7505 C   0  0  0  0  0  0  0  0  0  0  0  0
    7.0084  -14.2258   23.8187 C   0  0  0  0  0  0  0  0  0  0  0  0
    7.0487  -15.2076   22.7182 C   0  0  0  0  0  0  0  0  0  0  0  0
    7.7486  -16.4607   23.1229 C   0  0  2  0  0  0  0  0  0  0  0  0
    7.6276  -16.6145   24.5820 N   0  0  0  0  0  0  0  0  0  0  0  0
    9.1781  -16.4722   22.7495 C   0  0  0  0  0  0  0  0  0  0  0  0
    9.5624  -16.8933   21.6086 O   0  0  0  0  0  0  0  0  0  0  0  0
    6.2354  -14.4465   24.9515 C   0  0  0  0  0  0  0  0  0  0  0  0
    6.2022  -13.5245   25.9583 C   0  0  0  0  0  0  0  0  0  0  0  0
   10.1294  -16.0021   23.6946 N   0  0  0  0  0  0  0  0  0  0  0  0
   11.4741  -16.4957   23.6700 C   0  0  1  0  0  0  0  0  0  0  0  0
   12.3671  -15.5340   22.9958 C   0  0  0  0  0  0  0  0  0  0  0  0
   13.7315  -16.1015   22.9024 C   0  0  0  0  0  0  0  0  0  0  0  0
   13.9679  -17.3200   22.7191 O   0  0  0  0  0  0  0  0  0  0  0  0
   11.8959  -16.8540   25.0443 C   0  0  0  0  0  0  0  0  0  0  0  0
   12.6031  -16.0281   25.6667 O   0  0  0  0  0  0  0  0  0  0  0  0
   14.8697  -15.2787   23.0178 O   0  0  0  0  0  0  0  0  0  0  0  0
   10.9046  -14.3867   28.6322 N   0  0  0  0  0  0  0  0  0  0  0  0
   10.5584  -15.4679   29.4750 C   0  0  0  0  0  0  0  0  0  0  0  0
   10.4840  -15.2898   30.7306 O   0  0  0  0  0  0  0  0  0  0  0  0
   10.2710  -16.8072   28.9445 C   0  0  0  0  0  0  0  0  0  0  0  0
   10.6380  -16.9163   27.5233 C   0  0  0  0  0  0  0  0  0  0  0  0
   11.4072  -18.1272   27.1704 C   0  0  2  0  0  0  0  0  0  0  0  0
   11.5546  -18.0544   25.6887 N   0  0  0  0  0  0  0  0  0  0  0  0
   11.0029  -19.4345   27.6016 C   0  0  0  0  0  0  0  0  0  0  0  0
   11.0627  -19.7485   28.8475 O   0  0  0  0  0  0  0  0  0  0  0  0
   10.5176  -20.4651   26.7984 O   0  0  0  0  0  0  0  0  0  0  0  0
  1  2  1  0
  2  3  2  0
  3  4  1  0
  5  6  1  0
  5  4  2  0
  7  9  1  0
  7  6  1  0
  7  8  1  1
  9 10  2  0
 11  5  1  0
 12 11  2  0
 12  2  1  0
 13 14  1  0
 13  9  1  0
 14 15  1  1
 15 16  1  0
 16 17  2  0
 18 14  1  0
 19 18  2  0
 20 16  1  0
 21 22  1  0
 22 23  2  0
 24 22  1  0
 24 25  1  0
 26 25  1  6
 26 27  1  0
 27 18  1  0
 28 26  1  0
 28 30  1  0
 29 28  2  0
M  END
$$$$
