YDQ.pdb
     RDKit          3D

 30 30  0  0  1  0  0  0  0  0999 V2000
    7.9103  -12.4573   17.4302 O   0  0  0  0  0  0  0  0  0  0  0  0
    7.8801  -13.0713   18.6731 C   0  0  0  0  0  0  0  0  0  0  0  0
    8.7227  -14.1013   19.0220 C   0  0  0  0  0  0  0  0  0  0  0  0
    8.6739  -14.7012   20.2744 C   0  0  0  0  0  0  0  0  0  0  0  0
    7.7674  -14.2767   21.2169 C   0  0  0  0  0  0  0  0  0  0  0  0
    7.7017  -14.9129   22.5463 C   0  0  0  0  0  0  0  0  0  0  0  0
    7.8769  -16.3913   22.4591 C   0  0  2  0  0  0  0  0  0  0  0  0
    6.5604  -17.0294   22.6222 N   0  0  0  0  0  0  0  0  0  0  0  0
    8.8058  -16.9256   23.4764 C   0  0  0  0  0  0  0  0  0  0  0  0
    8.3883  -17.3129   24.6176 O   0  0  0  0  0  0  0  0  0  0  0  0
    6.9124  -13.2370   20.8740 C   0  0  0  0  0  0  0  0  0  0  0  0
    6.9800  -12.6635   19.6365 C   0  0  0  0  0  0  0  0  0  0  0  0
   10.1888  -17.0000   23.1590 N   0  0  0  0  0  0  0  0  0  0  0  0
   11.1311  -17.4427   24.1432 C   0  0  1  0  0  0  0  0  0  0  0  0
   12.4183  -17.7878   23.5101 C   0  0  0  0  0  0  0  0  0  0  0  0
   12.5698  -19.2599   23.4586 C   0  0  0  0  0  0  0  0  0  0  0  0
   11.6624  -20.0406   23.0827 O   0  0  0  0  0  0  0  0  0  0  0  0
   11.2371  -16.4297   25.2191 C   0  0  0  0  0  0  0  0  0  0  0  0
   11.6163  -15.2800   24.8966 O   0  0  0  0  0  0  0  0  0  0  0  0
   13.7765  -19.8796   23.8403 O   0  0  0  0  0  0  0  0  0  0  0  0
    7.3615  -14.0012   25.3488 N   0  0  0  0  0  0  0  0  0  0  0  0
    8.0298  -13.6357   26.5401 C   0  0  0  0  0  0  0  0  0  0  0  0
    7.9683  -12.4365   26.9548 O   0  0  0  0  0  0  0  0  0  0  0  0
    8.7981  -14.6064   27.3307 C   0  0  0  0  0  0  0  0  0  0  0  0
   10.2424  -14.4942   27.0701 C   0  0  0  0  0  0  0  0  0  0  0  0
   11.0585  -15.6057   27.6002 C   0  0  2  0  0  0  0  0  0  0  0  0
   10.9409  -16.6766   26.5697 N   0  0  0  0  0  0  0  0  0  0  0  0
   10.8694  -16.1198   28.9261 C   0  0  0  0  0  0  0  0  0  0  0  0
   10.5906  -17.3633   29.1008 O   0  0  0  0  0  0  0  0  0  0  0  0
   10.9626  -15.4053   30.1193 O   0  0  0  0  0  0  0  0  0  0  0  0
  1  2  1  0
  2  3  2  0
  3  4  1  0
  5  6  1  0
  5  4  2  0
  7  9  1  0
  7  6  1  0
  7  8  1  1
  9 10  2  0
 11  5  1  0
 12 11  2  0
 12  2  1  0
 13 14  1  0
 13  9  1  0
 14 15  1  6
 15 16  1  0
 16 17  2  0
 18 14  1  0
 19 18  2  0
 20 16  1  0
 21 22  1  0
 22 23  2  0
 24 22  1  0
 24 25  1  0
 26 25  1  6
 26 27  1  0
 27 18  1  0
 28 26  1  0
 28 30  1  0
 29 28  2  0
M  END
$$$$
