YDQ.pdb
     RDKit          3D

 30 30  0  0  1  0  0  0  0  0999 V2000
    7.4024  -11.6265   17.8153 O   0  0  0  0  0  0  0  0  0  0  0  0
    7.7906  -12.5198   18.8021 C   0  0  0  0  0  0  0  0  0  0  0  0
    6.9026  -13.3257   19.4764 C   0  0  0  0  0  0  0  0  0  0  0  0
    7.3155  -14.2137   20.4621 C   0  0  0  0  0  0  0  0  0  0  0  0
    8.6448  -14.3148   20.7983 C   0  0  0  0  0  0  0  0  0  0  0  0
    9.0921  -15.2483   21.8496 C   0  0  0  0  0  0  0  0  0  0  0  0
    9.9289  -16.3486   21.2899 C   0  0  2  0  0  0  0  0  0  0  0  0
    9.1153  -17.1146   20.3316 N   0  0  0  0  0  0  0  0  0  0  0  0
   10.4505  -17.2638   22.3258 C   0  0  0  0  0  0  0  0  0  0  0  0
    9.7174  -18.1735   22.8374 O   0  0  0  0  0  0  0  0  0  0  0  0
    9.5491  -13.5052   20.1229 C   0  0  0  0  0  0  0  0  0  0  0  0
    9.1186  -12.6403   19.1577 C   0  0  0  0  0  0  0  0  0  0  0  0
   11.7983  -17.1110   22.7490 N   0  0  0  0  0  0  0  0  0  0  0  0
   12.3220  -17.9343   23.7980 C   0  0  1  0  0  0  0  0  0  0  0  0
   13.7972  -17.9149   23.7848 C   0  0  0  0  0  0  0  0  0  0  0  0
   14.3171  -18.7894   24.8607 C   0  0  0  0  0  0  0  0  0  0  0  0
   13.6686  -19.7409   25.3591 O   0  0  0  0  0  0  0  0  0  0  0  0
   11.7220  -17.5310   25.0912 C   0  0  0  0  0  0  0  0  0  0  0  0
   11.8849  -16.3449   25.4602 O   0  0  0  0  0  0  0  0  0  0  0  0
   15.6052  -18.5931   25.3973 O   0  0  0  0  0  0  0  0  0  0  0  0
    6.8420  -15.9391   26.3597 N   0  0  0  0  0  0  0  0  0  0  0  0
    6.9775  -17.2958   25.9853 C   0  0  0  0  0  0  0  0  0  0  0  0
    6.0046  -17.8975   25.4328 O   0  0  0  0  0  0  0  0  0  0  0  0
    8.2215  -18.0444   26.2088 C   0  0  0  0  0  0  0  0  0  0  0  0
    9.2134  -17.2393   26.9398 C   0  0  0  0  0  0  0  0  0  0  0  0
   10.4765  -17.9398   27.2503 C   0  0  2  0  0  0  0  0  0  0  0  0
   10.9865  -18.3903   25.9239 N   0  0  0  0  0  0  0  0  0  0  0  0
   10.5420  -18.9864   28.2294 C   0  0  0  0  0  0  0  0  0  0  0  0
   10.8852  -20.1755   27.8786 O   0  0  0  0  0  0  0  0  0  0  0  0
   10.2742  -18.8720   29.5924 O   0  0  0  0  0  0  0  0  0  0  0  0
  1  2  1  0
  2  3  2  0
  3  4  1  0
  5  6  1  0
  5  4  2  0
  7  9  1  0
  7  6  1  0
  7  8  1  6
  9 10  2  0
 11  5  1  0
 12 11  2  0
 12  2  1  0
 13 14  1  0
 13  9  1  0
 14 15  1  1
 15 16  1  0
 16 17  2  0
 18 14  1  0
 19 18  2  0
 20 16  1  0
 21 22  1  0
 22 23  2  0
 24 22  1  0
 24 25  1  0
 26 25  1  6
 26 27  1  0
 27 18  1  0
 28 26  1  0
 28 30  1  0
 29 28  2  0
M  END
$$$$
