YDQ.pdb
     RDKit          3D

 30 30  0  0  1  0  0  0  0  0999 V2000
    8.1583  -11.6157   19.4903 O   0  0  0  0  0  0  0  0  0  0  0  0
    7.8713  -12.7892   20.1709 C   0  0  0  0  0  0  0  0  0  0  0  0
    7.3986  -13.9213   19.5484 C   0  0  0  0  0  0  0  0  0  0  0  0
    7.1180  -15.0863   20.2518 C   0  0  0  0  0  0  0  0  0  0  0  0
    7.3073  -15.1430   21.6124 C   0  0  0  0  0  0  0  0  0  0  0  0
    7.0042  -16.3724   22.3695 C   0  0  0  0  0  0  0  0  0  0  0  0
    7.7834  -17.5384   21.8622 C   0  0  2  0  0  0  0  0  0  0  0  0
    6.8996  -18.7153   21.8328 N   0  0  0  0  0  0  0  0  0  0  0  0
    8.9719  -17.8430   22.6854 C   0  0  0  0  0  0  0  0  0  0  0  0
    8.9009  -18.6281   23.6880 O   0  0  0  0  0  0  0  0  0  0  0  0
    7.7845  -14.0049   22.2499 C   0  0  0  0  0  0  0  0  0  0  0  0
    8.0530  -12.8719   21.5364 C   0  0  0  0  0  0  0  0  0  0  0  0
   10.2100  -17.2383   22.3383 N   0  0  0  0  0  0  0  0  0  0  0  0
   11.3690  -17.4501   23.1534 C   0  0  1  0  0  0  0  0  0  0  0  0
   12.5874  -17.0123   22.4460 C   0  0  0  0  0  0  0  0  0  0  0  0
   12.9266  -17.9889   21.3859 C   0  0  0  0  0  0  0  0  0  0  0  0
   12.5208  -19.1761   21.3771 O   0  0  0  0  0  0  0  0  0  0  0  0
   11.1707  -16.8077   24.4737 C   0  0  0  0  0  0  0  0  0  0  0  0
   11.0748  -15.5588   24.5013 O   0  0  0  0  0  0  0  0  0  0  0  0
   13.7471  -17.6256   20.2993 O   0  0  0  0  0  0  0  0  0  0  0  0
    8.5971  -13.6547   25.6893 N   0  0  0  0  0  0  0  0  0  0  0  0
    8.7148  -13.8229   27.0883 C   0  0  0  0  0  0  0  0  0  0  0  0
    8.4920  -12.8405   27.8622 O   0  0  0  0  0  0  0  0  0  0  0  0
    9.0841  -15.1116   27.6889 C   0  0  0  0  0  0  0  0  0  0  0  0
    9.4933  -16.0877   26.6660 C   0  0  0  0  0  0  0  0  0  0  0  0
   10.7455  -16.8128   26.9635 C   0  0  2  0  0  0  0  0  0  0  0  0
   11.0840  -17.5072   25.6885 N   0  0  0  0  0  0  0  0  0  0  0  0
   10.8645  -17.6879   28.0941 C   0  0  0  0  0  0  0  0  0  0  0  0
   10.6877  -18.9538   27.9498 O   0  0  0  0  0  0  0  0  0  0  0  0
   11.1731  -17.3225   29.4034 O   0  0  0  0  0  0  0  0  0  0  0  0
  1  2  1  0
  2  3  2  0
  3  4  1  0
  5  6  1  0
  5  4  2  0
  7  9  1  0
  7  6  1  0
  7  8  1  1
  9 10  2  0
 11  5  1  0
 12 11  2  0
 12  2  1  0
 13 14  1  0
 13  9  1  0
 14 15  1  6
 15 16  1  0
 16 17  2  0
 18 14  1  0
 19 18  2  0
 20 16  1  0
 21 22  1  0
 22 23  2  0
 24 22  1  0
 24 25  1  0
 26 25  1  6
 26 27  1  0
 27 18  1  0
 28 26  1  0
 28 30  1  0
 29 28  2  0
M  END
$$$$
