YDQ.pdb
     RDKit          3D

 30 30  0  0  1  0  0  0  0  0999 V2000
    5.6115  -10.5900   26.8989 O   0  0  0  0  0  0  0  0  0  0  0  0
    6.0404  -11.6592   26.1273 C   0  0  0  0  0  0  0  0  0  0  0  0
    5.5501  -12.9360   26.2753 C   0  0  0  0  0  0  0  0  0  0  0  0
    5.9956  -13.9921   25.4899 C   0  0  0  0  0  0  0  0  0  0  0  0
    6.9551  -13.7891   24.5263 C   0  0  0  0  0  0  0  0  0  0  0  0
    7.4410  -14.9055   23.6931 C   0  0  0  0  0  0  0  0  0  0  0  0
    8.4335  -15.7463   24.4226 C   0  0  2  0  0  0  0  0  0  0  0  0
    9.3205  -14.8604   25.1943 N   0  0  0  0  0  0  0  0  0  0  0  0
    9.2495  -16.5894   23.5246 C   0  0  0  0  0  0  0  0  0  0  0  0
    8.7189  -17.4982   22.8042 O   0  0  0  0  0  0  0  0  0  0  0  0
    7.4562  -12.5032   24.3691 C   0  0  0  0  0  0  0  0  0  0  0  0
    7.0020  -11.4817   25.1535 C   0  0  0  0  0  0  0  0  0  0  0  0
   10.6525  -16.3693   23.4776 N   0  0  0  0  0  0  0  0  0  0  0  0
   11.5523  -17.4781   23.3608 C   0  0  1  0  0  0  0  0  0  0  0  0
   12.6660  -17.1482   22.4510 C   0  0  0  0  0  0  0  0  0  0  0  0
   12.2696  -17.4345   21.0533 C   0  0  0  0  0  0  0  0  0  0  0  0
   11.4453  -18.3240   20.7315 O   0  0  0  0  0  0  0  0  0  0  0  0
   11.9808  -17.9132   24.7106 C   0  0  0  0  0  0  0  0  0  0  0  0
   12.9962  -17.3665   25.2000 O   0  0  0  0  0  0  0  0  0  0  0  0
   12.8133  -16.7015   19.9796 O   0  0  0  0  0  0  0  0  0  0  0  0
    7.5731  -19.1007   27.4571 N   0  0  0  0  0  0  0  0  0  0  0  0
    8.3147  -19.9625   28.2976 C   0  0  0  0  0  0  0  0  0  0  0  0
    7.7125  -20.8468   28.9826 O   0  0  0  0  0  0  0  0  0  0  0  0
    9.7771  -19.8765   28.4046 C   0  0  0  0  0  0  0  0  0  0  0  0
   10.3158  -18.7785   27.5856 C   0  0  0  0  0  0  0  0  0  0  0  0
   11.6045  -19.0698   26.9244 C   0  0  2  0  0  0  0  0  0  0  0  0
   11.3236  -18.8944   25.4708 N   0  0  0  0  0  0  0  0  0  0  0  0
   12.3336  -20.2778   27.1838 C   0  0  0  0  0  0  0  0  0  0  0  0
   12.7471  -20.5373   28.3739 O   0  0  0  0  0  0  0  0  0  0  0  0
   12.6634  -21.2681   26.2600 O   0  0  0  0  0  0  0  0  0  0  0  0
  1  2  1  0
  2  3  2  0
  3  4  1  0
  5  6  1  0
  5  4  2  0
  7  9  1  0
  7  6  1  0
  7  8  1  6
  9 10  2  0
 11  5  1  0
 12 11  2  0
 12  2  1  0
 13 14  1  0
 13  9  1  0
 14 15  1  6
 15 16  1  0
 16 17  2  0
 18 14  1  0
 19 18  2  0
 20 16  1  0
 21 22  1  0
 22 23  2  0
 24 22  1  0
 24 25  1  0
 26 25  1  1
 26 27  1  0
 27 18  1  0
 28 26  1  0
 28 30  1  0
 29 28  2  0
M  END
$$$$
