YDQ.pdb
     RDKit          3D

 30 30  0  0  1  0  0  0  0  0999 V2000
    9.0107  -12.1943   18.2893 O   0  0  0  0  0  0  0  0  0  0  0  0
    8.3172  -12.9603   19.2139 C   0  0  0  0  0  0  0  0  0  0  0  0
    7.9825  -12.5027   20.4674 C   0  0  0  0  0  0  0  0  0  0  0  0
    7.2868  -13.2892   21.3775 C   0  0  0  0  0  0  0  0  0  0  0  0
    6.9064  -14.5684   21.0470 C   0  0  0  0  0  0  0  0  0  0  0  0
    6.1751  -15.4144   22.0093 C   0  0  0  0  0  0  0  0  0  0  0  0
    6.9688  -15.6510   23.2495 C   0  0  2  0  0  0  0  0  0  0  0  0
    7.4751  -14.3569   23.7356 N   0  0  0  0  0  0  0  0  0  0  0  0
    8.1059  -16.5715   23.0427 C   0  0  0  0  0  0  0  0  0  0  0  0
    7.9233  -17.7796   22.6767 O   0  0  0  0  0  0  0  0  0  0  0  0
    7.2397  -15.0394   19.7835 C   0  0  0  0  0  0  0  0  0  0  0  0
    7.9239  -14.2470   18.9066 C   0  0  0  0  0  0  0  0  0  0  0  0
    9.4220  -16.0832   23.2625 N   0  0  0  0  0  0  0  0  0  0  0  0
   10.5427  -16.9724   23.1858 C   0  0  1  0  0  0  0  0  0  0  0  0
   11.4865  -16.5283   22.1424 C   0  0  0  0  0  0  0  0  0  0  0  0
   12.5821  -17.5153   22.0082 C   0  0  0  0  0  0  0  0  0  0  0  0
   12.3954  -18.7443   21.8386 O   0  0  0  0  0  0  0  0  0  0  0  0
   11.1501  -17.1215   24.5289 C   0  0  0  0  0  0  0  0  0  0  0  0
   12.2486  -17.7191   24.6045 O   0  0  0  0  0  0  0  0  0  0  0  0
   13.9318  -17.1143   22.0656 O   0  0  0  0  0  0  0  0  0  0  0  0
    9.7115  -13.7695   29.7014 N   0  0  0  0  0  0  0  0  0  0  0  0
    9.4332  -13.7926   28.3153 C   0  0  0  0  0  0  0  0  0  0  0  0
    8.4926  -13.0771   27.8492 O   0  0  0  0  0  0  0  0  0  0  0  0
   10.2064  -14.6201   27.3799 C   0  0  0  0  0  0  0  0  0  0  0  0
   10.5159  -15.9398   27.9537 C   0  0  0  0  0  0  0  0  0  0  0  0
   11.2168  -16.8662   27.0410 C   0  0  2  0  0  0  0  0  0  0  0  0
   10.5746  -16.6374   25.7152 N   0  0  0  0  0  0  0  0  0  0  0  0
   11.3488  -18.2643   27.3345 C   0  0  0  0  0  0  0  0  0  0  0  0
   12.4285  -18.7099   27.8732 O   0  0  0  0  0  0  0  0  0  0  0  0
   10.3990  -19.2584   27.1053 O   0  0  0  0  0  0  0  0  0  0  0  0
  1  2  1  0
  2  3  2  0
  3  4  1  0
  5  6  1  0
  5  4  2  0
  7  9  1  0
  7  6  1  0
  7  8  1  6
  9 10  2  0
 11  5  1  0
 12 11  2  0
 12  2  1  0
 13 14  1  0
 13  9  1  0
 14 15  1  6
 15 16  1  0
 16 17  2  0
 18 14  1  0
 19 18  2  0
 20 16  1  0
 21 22  1  0
 22 23  2  0
 24 22  1  0
 24 25  1  0
 26 25  1  1
 26 27  1  0
 27 18  1  0
 28 26  1  0
 28 30  1  0
 29 28  2  0
M  END
$$$$
