YDQ.pdb
     RDKit          3D

 30 30  0  0  1  0  0  0  0  0999 V2000
    5.5238  -10.1955   26.2076 O   0  0  0  0  0  0  0  0  0  0  0  0
    5.9759  -11.3903   25.6683 C   0  0  0  0  0  0  0  0  0  0  0  0
    5.3716  -12.6013   25.9151 C   0  0  0  0  0  0  0  0  0  0  0  0
    5.8431  -13.7861   25.3631 C   0  0  0  0  0  0  0  0  0  0  0  0
    6.9453  -13.7833   24.5412 C   0  0  0  0  0  0  0  0  0  0  0  0
    7.4589  -15.0370   23.9573 C   0  0  0  0  0  0  0  0  0  0  0  0
    8.8894  -14.9120   23.5547 C   0  0  2  0  0  0  0  0  0  0  0  0
    8.9522  -14.2165   22.2587 N   0  0  0  0  0  0  0  0  0  0  0  0
    9.5750  -16.2158   23.4408 C   0  0  0  0  0  0  0  0  0  0  0  0
    9.3858  -17.1419   24.2971 O   0  0  0  0  0  0  0  0  0  0  0  0
    7.5622  -12.5652   24.2860 C   0  0  0  0  0  0  0  0  0  0  0  0
    7.0797  -11.4142   24.8403 C   0  0  0  0  0  0  0  0  0  0  0  0
   10.4606  -16.4229   22.3491 N   0  0  0  0  0  0  0  0  0  0  0  0
   11.1993  -17.6458   22.2424 C   0  0  1  0  0  0  0  0  0  0  0  0
   11.9523  -17.6876   20.9743 C   0  0  0  0  0  0  0  0  0  0  0  0
   11.5495  -18.8800   20.1943 C   0  0  0  0  0  0  0  0  0  0  0  0
   10.5937  -19.6288   20.5105 O   0  0  0  0  0  0  0  0  0  0  0  0
   12.0370  -17.8260   23.4511 C   0  0  0  0  0  0  0  0  0  0  0  0
   13.1230  -18.4362   23.3171 O   0  0  0  0  0  0  0  0  0  0  0  0
   12.2386  -19.2474   19.0213 O   0  0  0  0  0  0  0  0  0  0  0  0
   10.4054  -15.9834   29.1801 N   0  0  0  0  0  0  0  0  0  0  0  0
   11.3764  -16.9697   29.4692 C   0  0  0  0  0  0  0  0  0  0  0  0
   11.6360  -17.2635   30.6776 O   0  0  0  0  0  0  0  0  0  0  0  0
   12.1015  -17.6823   28.4091 C   0  0  0  0  0  0  0  0  0  0  0  0
   11.6052  -17.3147   27.0730 C   0  0  0  0  0  0  0  0  0  0  0  0
   12.4235  -17.8101   25.9472 C   0  0  2  0  0  0  0  0  0  0  0  0
   11.6915  -17.3583   24.7295 N   0  0  0  0  0  0  0  0  0  0  0  0
   12.8243  -19.1841   25.8483 C   0  0  0  0  0  0  0  0  0  0  0  0
   14.0371  -19.5215   26.1124 O   0  0  0  0  0  0  0  0  0  0  0  0
   12.0195  -20.2643   25.4901 O   0  0  0  0  0  0  0  0  0  0  0  0
  1  2  1  0
  2  3  2  0
  3  4  1  0
  5  6  1  0
  5  4  2  0
  7  9  1  0
  7  6  1  0
  7  8  1  6
  9 10  2  0
 11  5  1  0
 12 11  2  0
 12  2  1  0
 13 14  1  0
 13  9  1  0
 14 15  1  6
 15 16  1  0
 16 17  2  0
 18 14  1  0
 19 18  2  0
 20 16  1  0
 21 22  1  0
 22 23  2  0
 24 22  1  0
 24 25  1  0
 26 25  1  1
 26 27  1  0
 27 18  1  0
 28 26  1  0
 28 30  1  0
 29 28  2  0
M  END
$$$$
