YDQ.pdb
     RDKit          3D

 30 30  0  0  1  0  0  0  0  0999 V2000
    5.0150  -10.1342   26.1268 O   0  0  0  0  0  0  0  0  0  0  0  0
    5.6972  -11.3322   25.9781 C   0  0  0  0  0  0  0  0  0  0  0  0
    6.9176  -11.4278   25.3504 C   0  0  0  0  0  0  0  0  0  0  0  0
    7.5827  -12.6401   25.2132 C   0  0  0  0  0  0  0  0  0  0  0  0
    7.0318  -13.7985   25.7083 C   0  0  0  0  0  0  0  0  0  0  0  0
    7.7258  -15.0919   25.5600 C   0  0  0  0  0  0  0  0  0  0  0  0
    7.4298  -15.7286   24.2444 C   0  0  2  0  0  0  0  0  0  0  0  0
    6.1359  -16.4242   24.3413 N   0  0  0  0  0  0  0  0  0  0  0  0
    8.4682  -16.6899   23.8194 C   0  0  0  0  0  0  0  0  0  0  0  0
    8.3112  -17.9464   23.9719 O   0  0  0  0  0  0  0  0  0  0  0  0
    5.7998  -13.7120   26.3439 C   0  0  0  0  0  0  0  0  0  0  0  0
    5.1660  -12.5086   26.4663 C   0  0  0  0  0  0  0  0  0  0  0  0
    9.6596  -16.1852   23.2324 N   0  0  0  0  0  0  0  0  0  0  0  0
   10.7906  -17.0445   23.0450 C   0  0  1  0  0  0  0  0  0  0  0  0
   11.7664  -16.4245   22.1283 C   0  0  0  0  0  0  0  0  0  0  0  0
   12.8031  -17.4153   21.7592 C   0  0  0  0  0  0  0  0  0  0  0  0
   12.7898  -18.6112   22.1385 O   0  0  0  0  0  0  0  0  0  0  0  0
   11.3517  -17.4202   24.3637 C   0  0  0  0  0  0  0  0  0  0  0  0
   12.1343  -16.6101   24.9121 O   0  0  0  0  0  0  0  0  0  0  0  0
   13.8910  -17.0566   20.9385 O   0  0  0  0  0  0  0  0  0  0  0  0
    6.9825  -19.4336   28.0320 N   0  0  0  0  0  0  0  0  0  0  0  0
    8.3320  -19.8318   27.8921 C   0  0  0  0  0  0  0  0  0  0  0  0
    8.7284  -20.9143   28.4259 O   0  0  0  0  0  0  0  0  0  0  0  0
    9.3050  -19.0322   27.1362 C   0  0  0  0  0  0  0  0  0  0  0  0
   10.6159  -19.6981   27.0679 C   0  0  0  0  0  0  0  0  0  0  0  0
   11.6649  -18.9361   26.3598 C   0  0  2  0  0  0  0  0  0  0  0  0
   11.0625  -18.6206   25.0331 N   0  0  0  0  0  0  0  0  0  0  0  0
   13.0055  -19.4307   26.2318 C   0  0  0  0  0  0  0  0  0  0  0  0
   13.7257  -19.6173   27.2811 O   0  0  0  0  0  0  0  0  0  0  0  0
   13.6632  -19.7622   25.0484 O   0  0  0  0  0  0  0  0  0  0  0  0
  1  2  1  0
  2  3  2  0
  3  4  1  0
  5  6  1  0
  5  4  2  0
  7  9  1  0
  7  6  1  0
  7  8  1  1
  9 10  2  0
 11  5  1  0
 12 11  2  0
 12  2  1  0
 13 14  1  0
 13  9  1  0
 14 15  1  6
 15 16  1  0
 16 17  2  0
 18 14  1  0
 19 18  2  0
 20 16  1  0
 21 22  1  0
 22 23  2  0
 24 22  1  0
 24 25  1  0
 26 25  1  6
 26 27  1  0
 27 18  1  0
 28 26  1  0
 28 30  1  0
 29 28  2  0
M  END
$$$$
