YDQ.pdb
     RDKit          3D

 30 30  0  0  1  0  0  0  0  0999 V2000
    5.6152  -10.8147   27.4396 O   0  0  0  0  0  0  0  0  0  0  0  0
    6.2544  -11.9051   26.8695 C   0  0  0  0  0  0  0  0  0  0  0  0
    7.2298  -11.7842   25.9069 C   0  0  0  0  0  0  0  0  0  0  0  0
    7.8567  -12.8921   25.3498 C   0  0  0  0  0  0  0  0  0  0  0  0
    7.5150  -14.1622   25.7503 C   0  0  0  0  0  0  0  0  0  0  0  0
    8.1685  -15.3453   25.1587 C   0  0  0  0  0  0  0  0  0  0  0  0
    7.7020  -15.5929   23.7640 C   0  0  2  0  0  0  0  0  0  0  0  0
    6.3552  -16.1847   23.8188 N   0  0  0  0  0  0  0  0  0  0  0  0
    8.5970  -16.4901   23.0045 C   0  0  0  0  0  0  0  0  0  0  0  0
    8.3008  -17.7157   22.8128 O   0  0  0  0  0  0  0  0  0  0  0  0
    6.5312  -14.2945   26.7219 C   0  0  0  0  0  0  0  0  0  0  0  0
    5.9299  -13.1900   27.2543 C   0  0  0  0  0  0  0  0  0  0  0  0
    9.8088  -15.9589   22.4864 N   0  0  0  0  0  0  0  0  0  0  0  0
   10.6998  -16.7944   21.7377 C   0  0  1  0  0  0  0  0  0  0  0  0
   11.2372  -16.0662   20.5725 C   0  0  0  0  0  0  0  0  0  0  0  0
   12.1969  -16.9278   19.8451 C   0  0  0  0  0  0  0  0  0  0  0  0
   11.8725  -17.9841   19.2507 O   0  0  0  0  0  0  0  0  0  0  0  0
   11.7381  -17.3456   22.6396 C   0  0  0  0  0  0  0  0  0  0  0  0
   12.5374  -18.1822   22.1593 O   0  0  0  0  0  0  0  0  0  0  0  0
   13.5651  -16.5971   19.7802 O   0  0  0  0  0  0  0  0  0  0  0  0
   10.7173  -18.1586   28.2258 N   0  0  0  0  0  0  0  0  0  0  0  0
   10.8123  -19.1638   27.2360 C   0  0  0  0  0  0  0  0  0  0  0  0
   10.9295  -20.3804   27.5823 O   0  0  0  0  0  0  0  0  0  0  0  0
   10.7732  -18.8498   25.8016 C   0  0  0  0  0  0  0  0  0  0  0  0
   12.0980  -19.0016   25.1783 C   0  0  0  0  0  0  0  0  0  0  0  0
   12.8024  -17.7338   24.8972 C   0  0  2  0  0  0  0  0  0  0  0  0
   11.8809  -16.9906   23.9910 N   0  0  0  0  0  0  0  0  0  0  0  0
   14.1548  -17.7078   24.4191 C   0  0  0  0  0  0  0  0  0  0  0  0
   14.4072  -17.3078   23.2230 O   0  0  0  0  0  0  0  0  0  0  0  0
   15.2977  -18.0737   25.1282 O   0  0  0  0  0  0  0  0  0  0  0  0
  1  2  1  0
  2  3  2  0
  3  4  1  0
  5  6  1  0
  5  4  2  0
  7  9  1  0
  7  6  1  0
  7  8  1  1
  9 10  2  0
 11  5  1  0
 12 11  2  0
 12  2  1  0
 13 14  1  0
 13  9  1  0
 14 15  1  6
 15 16  1  0
 16 17  2  0
 18 14  1  0
 19 18  2  0
 20 16  1  0
 21 22  1  0
 22 23  2  0
 24 22  1  0
 24 25  1  0
 26 25  1  6
 26 27  1  0
 27 18  1  0
 28 26  1  0
 28 30  1  0
 29 28  2  0
M  END
$$$$
