QNP.pdb
     RDKit          3D

 25 25  0  0  1  0  0  0  0  0999 V2000
   13.2225  -16.1076    6.6819 N   0  0  0  0  0  0  0  0  0  0  0  0
   12.9377  -17.1676    5.7522 C   0  0  0  0  0  0  0  0  0  0  0  0
   11.7401  -17.5116    5.5780 O   0  0  0  0  0  0  0  0  0  0  0  0
   14.0626  -17.8064    5.0406 C   0  0  0  0  0  0  0  0  0  0  0  0
   15.3705  -17.2871    5.5226 C   0  0  0  0  0  0  0  0  0  0  0  0
   16.2776  -16.7546    4.4397 C   0  0  2  0  0  0  0  0  0  0  0  0
   16.8064  -17.9469    3.7573 N   0  0  0  0  0  0  0  0  0  0  0  0
   17.4584  -16.0561    5.0166 C   0  0  0  0  0  0  0  0  0  0  0  0
   18.6016  -16.6055    5.0743 O   0  0  0  0  0  0  0  0  0  0  0  0
   20.6206  -11.4240    5.7572 N   0  0  0  0  0  0  0  0  0  0  0  0
   19.5985  -11.8848    6.6130 C   0  0  0  0  0  0  0  0  0  0  0  0
   19.6009  -11.7716    7.8580 O   0  0  0  0  0  0  0  0  0  0  0  0
   18.4099  -12.5683    5.9725 C   0  0  0  0  0  0  0  0  0  0  0  0
   18.5299  -14.0631    6.1676 C   0  0  2  0  0  0  0  0  0  0  0  0
   17.3890  -14.7399    5.5366 N   0  0  0  0  0  0  0  0  0  0  0  0
   18.6899  -14.4879    7.5561 C   0  0  0  0  0  0  0  0  0  0  0  0
   17.6290  -14.4544    8.2740 O   0  0  0  0  0  0  0  0  0  0  0  0
   19.8765  -14.9291    8.1902 N   0  0  0  0  0  0  0  0  0  0  0  0
   21.1069  -15.0706    7.3788 C   0  0  0  0  0  0  0  0  0  0  0  0
   22.1999  -14.7912    8.3706 C   0  0  0  0  0  0  0  0  0  0  0  0
   21.7155  -15.6916    9.5171 C   0  0  0  0  0  0  0  0  0  0  0  0
   20.2021  -15.3208    9.5183 C   0  0  1  0  0  0  0  0  0  0  0  0
   19.9908  -14.2811   10.5522 C   0  0  0  0  0  0  0  0  0  0  0  0
   19.8781  -14.6219   11.8841 O   0  0  0  0  0  0  0  0  0  0  0  0
   19.9123  -13.0875   10.2270 O   0  0  0  0  0  0  0  0  0  0  0  0
  2  1  1  0
  2  3  2  0
  4  2  1  0
  5  4  1  0
  6  5  1  0
  6  7  1  1
  8  6  1  0
  8 15  1  0
  9  8  2  0
 11 10  1  0
 11 13  1  0
 12 11  2  0
 14 13  1  1
 14 15  1  0
 16 14  1  0
 17 16  2  0
 18 16  1  0
 18 22  1  0
 19 20  1  0
 19 18  1  0
 20 21  1  0
 22 21  1  0
 23 24  1  0
 22 23  1  1
 25 23  2  0
M  END
$$$$
