QNP.pdb
     RDKit          3D

 25 25  0  0  1  0  0  0  0  0999 V2000
   21.5144  -26.4886  -13.1208 N   0  0  0  0  0  0  0  0  0  0  0  0
   20.9614  -25.1669  -13.2482 C   0  0  0  0  0  0  0  0  0  0  0  0
   20.3130  -24.6887  -12.2817 O   0  0  0  0  0  0  0  0  0  0  0  0
   21.1788  -24.4268  -14.5070 C   0  0  0  0  0  0  0  0  0  0  0  0
   21.9055  -23.1518  -14.2646 C   0  0  0  0  0  0  0  0  0  0  0  0
   23.1281  -22.9467  -15.1261 C   0  0  2  0  0  0  0  0  0  0  0  0
   24.0336  -24.0554  -14.7827 N   0  0  0  0  0  0  0  0  0  0  0  0
   23.8498  -21.6992  -14.7549 C   0  0  0  0  0  0  0  0  0  0  0  0
   23.2861  -20.5620  -14.7884 O   0  0  0  0  0  0  0  0  0  0  0  0
   26.3201  -22.5672  -11.4794 N   0  0  0  0  0  0  0  0  0  0  0  0
   26.3749  -21.1818  -11.7391 C   0  0  0  0  0  0  0  0  0  0  0  0
   25.9253  -20.2929  -10.9838 O   0  0  0  0  0  0  0  0  0  0  0  0
   27.0279  -20.7412  -13.0312 C   0  0  0  0  0  0  0  0  0  0  0  0
   25.9564  -20.4637  -14.0616 C   0  0  2  0  0  0  0  0  0  0  0  0
   25.2050  -21.6945  -14.3412 N   0  0  0  0  0  0  0  0  0  0  0  0
   26.4396  -19.8515  -15.2969 C   0  0  0  0  0  0  0  0  0  0  0  0
   26.9679  -20.6533  -16.1456 O   0  0  0  0  0  0  0  0  0  0  0  0
   26.3886  -18.4831  -15.6569 N   0  0  0  0  0  0  0  0  0  0  0  0
   25.7736  -17.5214  -14.7139 C   0  0  0  0  0  0  0  0  0  0  0  0
   26.5226  -16.2493  -14.9920 C   0  0  0  0  0  0  0  0  0  0  0  0
   26.4372  -16.2545  -16.5258 C   0  0  0  0  0  0  0  0  0  0  0  0
   26.7975  -17.7451  -16.8020 C   0  0  1  0  0  0  0  0  0  0  0  0
   28.2448  -17.8119  -17.1115 C   0  0  0  0  0  0  0  0  0  0  0  0
   28.6994  -17.6457  -18.4032 O   0  0  0  0  0  0  0  0  0  0  0  0
   29.0655  -18.0198  -16.2060 O   0  0  0  0  0  0  0  0  0  0  0  0
  2  1  1  0
  2  3  2  0
  4  2  1  0
  5  4  1  0
  6  5  1  0
  6  7  1  1
  8  6  1  0
  8 15  1  0
  9  8  2  0
 11 10  1  0
 11 13  1  0
 12 11  2  0
 14 13  1  1
 14 15  1  0
 16 14  1  0
 17 16  2  0
 18 16  1  0
 18 22  1  0
 19 20  1  0
 19 18  1  0
 20 21  1  0
 22 21  1  0
 23 24  1  0
 22 23  1  1
 25 23  2  0
M  END
$$$$
