QNP.pdb
     RDKit          3D

 25 25  0  0  1  0  0  0  0  0999 V2000
   17.5997  -16.1482  -14.2910 N   0  0  0  0  0  0  0  0  0  0  0  0
   17.9813  -16.4751  -15.6388 C   0  0  0  0  0  0  0  0  0  0  0  0
   17.3432  -17.3742  -16.2451 O   0  0  0  0  0  0  0  0  0  0  0  0
   19.1048  -15.7412  -16.2543 C   0  0  0  0  0  0  0  0  0  0  0  0
   18.6383  -14.4878  -16.9053 C   0  0  0  0  0  0  0  0  0  0  0  0
   18.2420  -13.3882  -15.9498 C   0  0  2  0  0  0  0  0  0  0  0  0
   16.7931  -13.5537  -15.7493 N   0  0  0  0  0  0  0  0  0  0  0  0
   18.4189  -12.0450  -16.5658 C   0  0  0  0  0  0  0  0  0  0  0  0
   17.9581  -11.7676  -17.7159 O   0  0  0  0  0  0  0  0  0  0  0  0
   17.9903   -7.4277  -18.5722 N   0  0  0  0  0  0  0  0  0  0  0  0
   17.7952   -7.7052  -17.2030 C   0  0  0  0  0  0  0  0  0  0  0  0
   17.6548   -6.8418  -16.3099 O   0  0  0  0  0  0  0  0  0  0  0  0
   17.7533   -9.1594  -16.7866 C   0  0  0  0  0  0  0  0  0  0  0  0
   19.1510   -9.6177  -16.4354 C   0  0  2  0  0  0  0  0  0  0  0  0
   19.1081  -10.9911  -15.9162 N   0  0  0  0  0  0  0  0  0  0  0  0
   19.8735   -8.7340  -15.5237 C   0  0  0  0  0  0  0  0  0  0  0  0
   19.3736   -8.6169  -14.3496 O   0  0  0  0  0  0  0  0  0  0  0  0
   21.0543   -8.0000  -15.7913 N   0  0  0  0  0  0  0  0  0  0  0  0
   21.6677   -8.1034  -17.1350 C   0  0  0  0  0  0  0  0  0  0  0  0
   22.3202   -6.7621  -17.3129 C   0  0  0  0  0  0  0  0  0  0  0  0
   23.0313   -6.6625  -15.9549 C   0  0  0  0  0  0  0  0  0  0  0  0
   21.8760   -7.1318  -15.0205 C   0  0  1  0  0  0  0  0  0  0  0  0
   21.1984   -5.9236  -14.4954 C   0  0  0  0  0  0  0  0  0  0  0  0
   21.7317   -5.2184  -13.4366 O   0  0  0  0  0  0  0  0  0  0  0  0
   20.1384   -5.5333  -15.0063 O   0  0  0  0  0  0  0  0  0  0  0  0
  2  1  1  0
  2  3  2  0
  4  2  1  0
  5  4  1  0
  6  5  1  0
  6  7  1  6
  8  6  1  0
  8 15  1  0
  9  8  2  0
 11 10  1  0
 11 13  1  0
 12 11  2  0
 14 13  1  1
 14 15  1  0
 16 14  1  0
 17 16  2  0
 18 16  1  0
 18 22  1  0
 19 20  1  0
 19 18  1  0
 20 21  1  0
 22 21  1  0
 23 24  1  0
 22 23  1  6
 25 23  2  0
M  END
$$$$
