QNP.pdb
     RDKit          3D

 25 25  0  0  1  0  0  0  0  0999 V2000
   25.9522  -21.6197   -8.9544 N   0  0  0  0  0  0  0  0  0  0  0  0
   25.9870  -20.2128   -9.2515 C   0  0  0  0  0  0  0  0  0  0  0  0
   26.2603  -19.4071   -8.3245 O   0  0  0  0  0  0  0  0  0  0  0  0
   25.7019  -19.7734  -10.6319 C   0  0  0  0  0  0  0  0  0  0  0  0
   25.2884  -20.9176  -11.4877 C   0  0  0  0  0  0  0  0  0  0  0  0
   26.0372  -21.0341  -12.7933 C   0  0  2  0  0  0  0  0  0  0  0  0
   27.4328  -20.6948  -12.4703 N   0  0  0  0  0  0  0  0  0  0  0  0
   25.5831  -20.0090  -13.7721 C   0  0  0  0  0  0  0  0  0  0  0  0
   24.4433  -20.0700  -14.3282 O   0  0  0  0  0  0  0  0  0  0  0  0
   25.2309  -16.0586  -16.9161 N   0  0  0  0  0  0  0  0  0  0  0  0
   25.7404  -15.5356  -15.7092 C   0  0  0  0  0  0  0  0  0  0  0  0
   25.8563  -14.3186  -15.4480 O   0  0  0  0  0  0  0  0  0  0  0  0
   26.1796  -16.5255  -14.6522 C   0  0  0  0  0  0  0  0  0  0  0  0
   25.9850  -17.9313  -15.1744 C   0  0  2  0  0  0  0  0  0  0  0  0
   26.3848  -18.9027  -14.1476 N   0  0  0  0  0  0  0  0  0  0  0  0
   26.6482  -18.2087  -16.4461 C   0  0  0  0  0  0  0  0  0  0  0  0
   27.8859  -17.8829  -16.5109 O   0  0  0  0  0  0  0  0  0  0  0  0
   26.0800  -18.7929  -17.6040 N   0  0  0  0  0  0  0  0  0  0  0  0
   24.6699  -19.2419  -17.5560 C   0  0  0  0  0  0  0  0  0  0  0  0
   24.2111  -19.0675  -18.9757 C   0  0  0  0  0  0  0  0  0  0  0  0
   25.3928  -19.7396  -19.6910 C   0  0  0  0  0  0  0  0  0  0  0  0
   26.5739  -19.0982  -18.9025 C   0  0  1  0  0  0  0  0  0  0  0  0
   27.0610  -17.9360  -19.6813 C   0  0  0  0  0  0  0  0  0  0  0  0
   27.8864  -18.1125  -20.7724 O   0  0  0  0  0  0  0  0  0  0  0  0
   26.7290  -16.7866  -19.3567 O   0  0  0  0  0  0  0  0  0  0  0  0
  2  1  1  0
  2  3  2  0
  4  2  1  0
  5  4  1  0
  6  5  1  0
  6  7  1  1
  8  6  1  0
  8 15  1  0
  9  8  2  0
 11 10  1  0
 11 13  1  0
 12 11  2  0
 14 13  1  1
 14 15  1  0
 16 14  1  0
 17 16  2  0
 18 16  1  0
 18 22  1  0
 19 20  1  0
 19 18  1  0
 20 21  1  0
 22 21  1  0
 23 24  1  0
 22 23  1  6
 25 23  2  0
M  END
$$$$
