QNP.pdb
     RDKit          3D

 25 25  0  0  1  0  0  0  0  0999 V2000
   19.5022  -19.1031  -16.0808 N   0  0  0  0  0  0  0  0  0  0  0  0
   18.6603  -19.6091  -15.0301 C   0  0  0  0  0  0  0  0  0  0  0  0
   17.4924  -19.9783  -15.3180 O   0  0  0  0  0  0  0  0  0  0  0  0
   19.2022  -19.6752  -13.6584 C   0  0  0  0  0  0  0  0  0  0  0  0
   20.6328  -19.2694  -13.6234 C   0  0  0  0  0  0  0  0  0  0  0  0
   21.6032  -20.3318  -14.0801 C   0  0  2  0  0  0  0  0  0  0  0  0
   21.2681  -21.5273  -13.2893 N   0  0  0  0  0  0  0  0  0  0  0  0
   23.0029  -19.9800  -13.7164 C   0  0  0  0  0  0  0  0  0  0  0  0
   23.5061  -18.8492  -13.9992 O   0  0  0  0  0  0  0  0  0  0  0  0
   24.0282  -20.9394   -9.9386 N   0  0  0  0  0  0  0  0  0  0  0  0
   25.2997  -20.5803  -10.4324 C   0  0  0  0  0  0  0  0  0  0  0  0
   26.0321  -19.6911   -9.9469 O   0  0  0  0  0  0  0  0  0  0  0  0
   25.8137  -21.3299  -11.6424 C   0  0  0  0  0  0  0  0  0  0  0  0
   25.3093  -20.6550  -12.8981 C   0  0  2  0  0  0  0  0  0  0  0  0
   23.8634  -20.8755  -13.0345 N   0  0  0  0  0  0  0  0  0  0  0  0
   26.0154  -21.0310  -14.1204 C   0  0  0  0  0  0  0  0  0  0  0  0
   25.8519  -22.2416  -14.5074 O   0  0  0  0  0  0  0  0  0  0  0  0
   26.8520  -20.2130  -14.9178 N   0  0  0  0  0  0  0  0  0  0  0  0
   27.0419  -18.7968  -14.5298 C   0  0  0  0  0  0  0  0  0  0  0  0
   28.4268  -18.4931  -15.0258 C   0  0  0  0  0  0  0  0  0  0  0  0
   28.3047  -19.0766  -16.4416 C   0  0  0  0  0  0  0  0  0  0  0  0
   27.6015  -20.4264  -16.1077 C   0  0  1  0  0  0  0  0  0  0  0  0
   28.6472  -21.4717  -16.0154 C   0  0  0  0  0  0  0  0  0  0  0  0
   29.2059  -22.0146  -17.1538 O   0  0  0  0  0  0  0  0  0  0  0  0
   29.0315  -21.8709  -14.9065 O   0  0  0  0  0  0  0  0  0  0  0  0
  2  1  1  0
  2  3  2  0
  4  2  1  0
  5  4  1  0
  6  5  1  0
  6  7  1  1
  8  6  1  0
  8 15  1  0
  9  8  2  0
 11 10  1  0
 11 13  1  0
 12 11  2  0
 14 13  1  1
 14 15  1  0
 16 14  1  0
 17 16  2  0
 18 16  1  0
 18 22  1  0
 19 20  1  0
 19 18  1  0
 20 21  1  0
 22 21  1  0
 23 24  1  0
 22 23  1  1
 25 23  2  0
M  END
$$$$
