QNP.pdb
     RDKit          3D

 25 25  0  0  1  0  0  0  0  0999 V2000
   18.5187   -8.6800  -16.6325 N   0  0  0  0  0  0  0  0  0  0  0  0
   18.7703   -9.9756  -16.0607 C   0  0  0  0  0  0  0  0  0  0  0  0
   19.4306  -10.8122  -16.7295 O   0  0  0  0  0  0  0  0  0  0  0  0
   18.2442  -10.2688  -14.7127 C   0  0  0  0  0  0  0  0  0  0  0  0
   17.0494  -11.1522  -14.7803 C   0  0  0  0  0  0  0  0  0  0  0  0
   16.4443  -11.5014  -13.4420 C   0  0  2  0  0  0  0  0  0  0  0  0
   15.2823  -12.3501  -13.7527 N   0  0  0  0  0  0  0  0  0  0  0  0
   15.8995  -10.2949  -12.7620 C   0  0  0  0  0  0  0  0  0  0  0  0
   14.8074   -9.7567  -13.1222 O   0  0  0  0  0  0  0  0  0  0  0  0
   14.5100   -7.0958   -8.6144 N   0  0  0  0  0  0  0  0  0  0  0  0
   15.8896   -7.2566   -8.8601 C   0  0  0  0  0  0  0  0  0  0  0  0
   16.7711   -6.4179   -8.5731 O   0  0  0  0  0  0  0  0  0  0  0  0
   16.3334   -8.5431   -9.5219 C   0  0  0  0  0  0  0  0  0  0  0  0
   16.0371   -8.4696  -11.0030 C   0  0  2  0  0  0  0  0  0  0  0  0
   16.5564   -9.6687  -11.6739 N   0  0  0  0  0  0  0  0  0  0  0  0
   16.5086   -7.2538  -11.6615 C   0  0  0  0  0  0  0  0  0  0  0  0
   17.7806   -7.1073  -11.7146 O   0  0  0  0  0  0  0  0  0  0  0  0
   15.7228   -6.2294  -12.2428 N   0  0  0  0  0  0  0  0  0  0  0  0
   14.2531   -6.4018  -12.2939 C   0  0  0  0  0  0  0  0  0  0  0  0
   13.7444   -4.9904  -12.2199 C   0  0  0  0  0  0  0  0  0  0  0  0
   14.6582   -4.3533  -13.2776 C   0  0  0  0  0  0  0  0  0  0  0  0
   16.0208   -4.9820  -12.8579 C   0  0  1  0  0  0  0  0  0  0  0  0
   16.7241   -4.0051  -11.9944 C   0  0  0  0  0  0  0  0  0  0  0  0
   17.2364   -2.8374  -12.5206 O   0  0  0  0  0  0  0  0  0  0  0  0
   16.8597   -4.2304  -10.7829 O   0  0  0  0  0  0  0  0  0  0  0  0
  2  1  1  0
  2  3  2  0
  4  2  1  0
  5  4  1  0
  6  5  1  0
  6  7  1  6
  8  6  1  0
  8 15  1  0
  9  8  2  0
 11 10  1  0
 11 13  1  0
 12 11  2  0
 14 13  1  1
 14 15  1  0
 16 14  1  0
 17 16  2  0
 18 16  1  0
 18 22  1  0
 19 20  1  0
 19 18  1  0
 20 21  1  0
 22 21  1  0
 23 24  1  0
 22 23  1  1
 25 23  2  0
M  END
$$$$
