QNP.pdb
     RDKit          3D

 25 25  0  0  1  0  0  0  0  0999 V2000
   16.2000  -26.3519    3.9472 N   0  0  0  0  0  0  0  0  0  0  0  0
   16.1130  -25.9721    2.5626 C   0  0  0  0  0  0  0  0  0  0  0  0
   16.6786  -26.6952    1.7021 O   0  0  0  0  0  0  0  0  0  0  0  0
   15.3628  -24.7506    2.2092 C   0  0  0  0  0  0  0  0  0  0  0  0
   16.1673  -23.5278    2.4740 C   0  0  0  0  0  0  0  0  0  0  0  0
   15.4419  -22.2273    2.2264 C   0  0  2  0  0  0  0  0  0  0  0  0
   15.4158  -22.0717    0.7628 N   0  0  0  0  0  0  0  0  0  0  0  0
   16.2154  -21.0674    2.7472 C   0  0  0  0  0  0  0  0  0  0  0  0
   17.1835  -20.5609    2.1005 O   0  0  0  0  0  0  0  0  0  0  0  0
   18.0837  -17.1972    5.3442 N   0  0  0  0  0  0  0  0  0  0  0  0
   16.6959  -16.9769    5.2220 C   0  0  0  0  0  0  0  0  0  0  0  0
   16.1119  -15.9092    5.5077 O   0  0  0  0  0  0  0  0  0  0  0  0
   15.8521  -18.1223    4.7060 C   0  0  0  0  0  0  0  0  0  0  0  0
   16.7215  -19.3493    4.5464 C   0  0  2  0  0  0  0  0  0  0  0  0
   15.9268  -20.4528    3.9909 N   0  0  0  0  0  0  0  0  0  0  0  0
   17.4214  -19.7651    5.7594 C   0  0  0  0  0  0  0  0  0  0  0  0
   16.6748  -20.1158    6.7400 O   0  0  0  0  0  0  0  0  0  0  0  0
   18.8205  -19.8234    5.9690 N   0  0  0  0  0  0  0  0  0  0  0  0
   19.7227  -19.6192    4.8128 C   0  0  0  0  0  0  0  0  0  0  0  0
   20.9427  -19.0071    5.4400 C   0  0  0  0  0  0  0  0  0  0  0  0
   21.1187  -19.9804    6.6154 C   0  0  0  0  0  0  0  0  0  0  0  0
   19.6417  -20.0689    7.1041 C   0  0  1  0  0  0  0  0  0  0  0  0
   19.4758  -19.1106    8.2217 C   0  0  0  0  0  0  0  0  0  0  0  0
   19.8666  -19.4438    9.5019 O   0  0  0  0  0  0  0  0  0  0  0  0
   18.9802  -17.9933    8.0145 O   0  0  0  0  0  0  0  0  0  0  0  0
  2  1  1  0
  2  3  2  0
  4  2  1  0
  5  4  1  0
  6  5  1  0
  6  7  1  6
  8  6  1  0
  8 15  1  0
  9  8  2  0
 11 10  1  0
 11 13  1  0
 12 11  2  0
 14 13  1  1
 14 15  1  0
 16 14  1  0
 17 16  2  0
 18 16  1  0
 18 22  1  0
 19 20  1  0
 19 18  1  0
 20 21  1  0
 22 21  1  0
 23 24  1  0
 22 23  1  1
 25 23  2  0
M  END
$$$$
