QNP.pdb
     RDKit          3D

 25 25  0  0  1  0  0  0  0  0999 V2000
   18.5620  -12.2806  -17.7807 N   0  0  0  0  0  0  0  0  0  0  0  0
   17.4030  -12.9135  -18.3508 C   0  0  0  0  0  0  0  0  0  0  0  0
   17.5043  -14.0978  -18.7636 O   0  0  0  0  0  0  0  0  0  0  0  0
   16.1432  -12.1475  -18.4265 C   0  0  0  0  0  0  0  0  0  0  0  0
   16.3070  -10.7824  -17.8591 C   0  0  0  0  0  0  0  0  0  0  0  0
   16.2234  -10.7088  -16.3535 C   0  0  2  0  0  0  0  0  0  0  0  0
   14.8151  -10.9903  -16.0302 N   0  0  0  0  0  0  0  0  0  0  0  0
   16.4878   -9.3289  -15.8626 C   0  0  0  0  0  0  0  0  0  0  0  0
   15.5747   -8.4482  -15.8107 O   0  0  0  0  0  0  0  0  0  0  0  0
   17.8962   -9.3177  -12.2014 N   0  0  0  0  0  0  0  0  0  0  0  0
   17.9264   -7.9548  -12.5632 C   0  0  0  0  0  0  0  0  0  0  0  0
   17.2543   -7.0533  -12.0170 O   0  0  0  0  0  0  0  0  0  0  0  0
   18.8428   -7.5564  -13.6997 C   0  0  0  0  0  0  0  0  0  0  0  0
   18.0548   -7.5322  -14.9902 C   0  0  2  0  0  0  0  0  0  0  0  0
   17.7665   -8.9062  -15.4223 N   0  0  0  0  0  0  0  0  0  0  0  0
   18.6695   -6.7610  -16.0678 C   0  0  0  0  0  0  0  0  0  0  0  0
   19.7134   -7.2810  -16.5989 O   0  0  0  0  0  0  0  0  0  0  0  0
   18.2429   -5.5143  -16.5860 N   0  0  0  0  0  0  0  0  0  0  0  0
   16.9656   -4.9420  -16.1028 C   0  0  0  0  0  0  0  0  0  0  0  0
   17.1965   -3.4616  -16.2098 C   0  0  0  0  0  0  0  0  0  0  0  0
   17.7750   -3.4141  -17.6321 C   0  0  0  0  0  0  0  0  0  0  0  0
   18.7705   -4.6100  -17.5489 C   0  0  1  0  0  0  0  0  0  0  0  0
   20.1106   -4.0632  -17.2328 C   0  0  0  0  0  0  0  0  0  0  0  0
   20.8393   -3.3835  -18.1866 O   0  0  0  0  0  0  0  0  0  0  0  0
   20.5923   -4.2134  -16.1004 O   0  0  0  0  0  0  0  0  0  0  0  0
  2  1  1  0
  2  3  2  0
  4  2  1  0
  5  4  1  0
  6  5  1  0
  6  7  1  6
  8  6  1  0
  8 15  1  0
  9  8  2  0
 11 10  1  0
 11 13  1  0
 12 11  2  0
 14 13  1  1
 14 15  1  0
 16 14  1  0
 17 16  2  0
 18 16  1  0
 18 22  1  0
 19 20  1  0
 19 18  1  0
 20 21  1  0
 22 21  1  0
 23 24  1  0
 22 23  1  1
 25 23  2  0
M  END
$$$$
