QNP.pdb
     RDKit          3D

 25 25  0  0  1  0  0  0  0  0999 V2000
   16.6388  -14.6957  -15.8177 N   0  0  0  0  0  0  0  0  0  0  0  0
   16.0048  -13.8389  -16.7835 C   0  0  0  0  0  0  0  0  0  0  0  0
   14.9051  -14.1980  -17.2785 O   0  0  0  0  0  0  0  0  0  0  0  0
   16.6703  -12.5737  -17.1524 C   0  0  0  0  0  0  0  0  0  0  0  0
   17.8757  -12.3340  -16.3147 C   0  0  0  0  0  0  0  0  0  0  0  0
   19.1893  -12.6322  -16.9963 C   0  0  2  0  0  0  0  0  0  0  0  0
   19.3613  -14.0899  -16.8836 N   0  0  0  0  0  0  0  0  0  0  0  0
   20.3321  -12.0273  -16.2593 C   0  0  0  0  0  0  0  0  0  0  0  0
   20.6264  -12.3751  -15.0742 O   0  0  0  0  0  0  0  0  0  0  0  0
   24.5450   -9.6566  -14.8847 N   0  0  0  0  0  0  0  0  0  0  0  0
   24.7903  -10.6100  -15.8949 C   0  0  0  0  0  0  0  0  0  0  0  0
   25.9193  -11.0415  -16.2141 O   0  0  0  0  0  0  0  0  0  0  0  0
   23.5938  -11.1494  -16.6482 C   0  0  0  0  0  0  0  0  0  0  0  0
   22.3390  -10.4774  -16.1375 C   0  0  2  0  0  0  0  0  0  0  0  0
   21.1643  -11.0298  -16.8250 N   0  0  0  0  0  0  0  0  0  0  0  0
   22.3530   -9.0185  -16.2118 C   0  0  0  0  0  0  0  0  0  0  0  0
   22.6649   -8.5224  -17.3514 O   0  0  0  0  0  0  0  0  0  0  0  0
   22.0620   -8.1007  -15.1737 N   0  0  0  0  0  0  0  0  0  0  0  0
   21.6651   -8.6277  -13.8481 C   0  0  0  0  0  0  0  0  0  0  0  0
   22.1675   -7.5751  -12.9016 C   0  0  0  0  0  0  0  0  0  0  0  0
   21.6288   -6.3307  -13.6234 C   0  0  0  0  0  0  0  0  0  0  0  0
   22.0353   -6.6813  -15.0863 C   0  0  1  0  0  0  0  0  0  0  0  0
   23.3231   -6.0075  -15.3728 C   0  0  0  0  0  0  0  0  0  0  0  0
   23.3782   -4.6433  -15.5700 O   0  0  0  0  0  0  0  0  0  0  0  0
   24.3698   -6.6685  -15.4390 O   0  0  0  0  0  0  0  0  0  0  0  0
  2  1  1  0
  2  3  2  0
  4  2  1  0
  5  4  1  0
  6  5  1  0
  6  7  1  1
  8  6  1  0
  8 15  1  0
  9  8  2  0
 11 10  1  0
 11 13  1  0
 12 11  2  0
 14 13  1  6
 14 15  1  0
 16 14  1  0
 17 16  2  0
 18 16  1  0
 18 22  1  0
 19 20  1  0
 19 18  1  0
 20 21  1  0
 22 21  1  0
 23 24  1  0
 22 23  1  1
 25 23  2  0
M  END
$$$$
