QNP.pdb
     RDKit          3D

 25 25  0  0  1  0  0  0  0  0999 V2000
   28.8961  -20.3867  -17.4524 N   0  0  0  0  0  0  0  0  0  0  0  0
   28.5169  -20.7488  -16.1130 C   0  0  0  0  0  0  0  0  0  0  0  0
   28.4746  -21.9686  -15.8071 O   0  0  0  0  0  0  0  0  0  0  0  0
   28.1946  -19.6742  -15.1534 C   0  0  0  0  0  0  0  0  0  0  0  0
   26.9896  -18.9136  -15.5798 C   0  0  0  0  0  0  0  0  0  0  0  0
   25.6736  -19.5678  -15.2346 C   0  0  2  0  0  0  0  0  0  0  0  0
   24.6898  -18.9629  -16.1473 N   0  0  0  0  0  0  0  0  0  0  0  0
   25.2325  -19.2062  -13.8599 C   0  0  0  0  0  0  0  0  0  0  0  0
   24.5426  -18.1659  -13.6279 O   0  0  0  0  0  0  0  0  0  0  0  0
   21.6571  -19.4326  -10.3473 N   0  0  0  0  0  0  0  0  0  0  0  0
   22.4701  -20.5508  -10.6269 C   0  0  0  0  0  0  0  0  0  0  0  0
   22.5425  -21.5790   -9.9194 O   0  0  0  0  0  0  0  0  0  0  0  0
   23.3185  -20.4990  -11.8790 C   0  0  0  0  0  0  0  0  0  0  0  0
   24.7121  -20.0363  -11.5179 C   0  0  2  0  0  0  0  0  0  0  0  0
   25.5492  -19.9919  -12.7241 N   0  0  0  0  0  0  0  0  0  0  0  0
   25.3577  -20.8080  -10.4588 C   0  0  0  0  0  0  0  0  0  0  0  0
   25.3423  -22.0806  -10.6092 O   0  0  0  0  0  0  0  0  0  0  0  0
   25.9933  -20.3100   -9.2958 N   0  0  0  0  0  0  0  0  0  0  0  0
   26.2197  -18.8516   -9.1773 C   0  0  0  0  0  0  0  0  0  0  0  0
   26.1603  -18.6195   -7.6944 C   0  0  0  0  0  0  0  0  0  0  0  0
   27.0844  -19.7591   -7.2390 C   0  0  0  0  0  0  0  0  0  0  0  0
   26.5298  -20.9145   -8.1253 C   0  0  1  0  0  0  0  0  0  0  0  0
   25.5601  -21.6844   -7.3120 C   0  0  0  0  0  0  0  0  0  0  0  0
   24.2028  -21.5568   -7.5227 O   0  0  0  0  0  0  0  0  0  0  0  0
   25.9628  -22.4550   -6.4283 O   0  0  0  0  0  0  0  0  0  0  0  0
  2  1  1  0
  2  3  2  0
  4  2  1  0
  5  4  1  0
  6  5  1  0
  6  7  1  6
  8  6  1  0
  8 15  1  0
  9  8  2  0
 11 10  1  0
 11 13  1  0
 12 11  2  0
 14 13  1  6
 14 15  1  0
 16 14  1  0
 17 16  2  0
 18 16  1  0
 18 22  1  0
 19 20  1  0
 19 18  1  0
 20 21  1  0
 22 21  1  0
 23 24  1  0
 22 23  1  1
 25 23  2  0
M  END
$$$$
