QNP.pdb
     RDKit          3D

 25 25  0  0  1  0  0  0  0  0999 V2000
   17.8402  -18.2965  -17.8611 N   0  0  0  0  0  0  0  0  0  0  0  0
   18.5110  -19.4092  -17.2438 C   0  0  0  0  0  0  0  0  0  0  0  0
   18.3661  -19.5902  -16.0071 O   0  0  0  0  0  0  0  0  0  0  0  0
   19.3401  -20.2926  -18.0875 C   0  0  0  0  0  0  0  0  0  0  0  0
   19.2223  -19.9314  -19.5256 C   0  0  0  0  0  0  0  0  0  0  0  0
   20.3792  -19.1311  -20.0736 C   0  0  2  0  0  0  0  0  0  0  0  0
   21.0023  -18.4984  -18.8996 N   0  0  0  0  0  0  0  0  0  0  0  0
   19.9056  -18.0149  -20.9367 C   0  0  0  0  0  0  0  0  0  0  0  0
   19.3933  -18.2209  -22.0800 O   0  0  0  0  0  0  0  0  0  0  0  0
   17.8179  -14.7550  -24.0029 N   0  0  0  0  0  0  0  0  0  0  0  0
   17.5597  -14.6637  -22.6193 C   0  0  0  0  0  0  0  0  0  0  0  0
   16.9576  -13.7197  -22.0635 O   0  0  0  0  0  0  0  0  0  0  0  0
   18.0504  -15.7961  -21.7434 C   0  0  0  0  0  0  0  0  0  0  0  0
   19.4946  -15.5475  -21.3701 C   0  0  2  0  0  0  0  0  0  0  0  0
   19.9926  -16.6560  -20.5449 N   0  0  0  0  0  0  0  0  0  0  0  0
   19.7475  -14.2600  -20.7279 C   0  0  0  0  0  0  0  0  0  0  0  0
   19.0679  -14.0242  -19.6674 O   0  0  0  0  0  0  0  0  0  0  0  0
   20.6527  -13.2537  -21.1434 N   0  0  0  0  0  0  0  0  0  0  0  0
   21.5054  -13.5077  -22.3269 C   0  0  0  0  0  0  0  0  0  0  0  0
   21.7062  -12.1338  -22.9001 C   0  0  0  0  0  0  0  0  0  0  0  0
   22.0796  -11.3905  -21.6087 C   0  0  0  0  0  0  0  0  0  0  0  0
   20.9876  -11.9606  -20.6545 C   0  0  1  0  0  0  0  0  0  0  0  0
   19.8679  -10.9913  -20.6164 C   0  0  0  0  0  0  0  0  0  0  0  0
   19.9545   -9.8411  -19.8599 O   0  0  0  0  0  0  0  0  0  0  0  0
   18.8358  -11.2073  -21.2684 O   0  0  0  0  0  0  0  0  0  0  0  0
  2  1  1  0
  2  3  2  0
  4  2  1  0
  5  4  1  0
  6  5  1  0
  6  7  1  1
  8  6  1  0
  8 15  1  0
  9  8  2  0
 11 10  1  0
 11 13  1  0
 12 11  2  0
 14 13  1  1
 14 15  1  0
 16 14  1  0
 17 16  2  0
 18 16  1  0
 18 22  1  0
 19 20  1  0
 19 18  1  0
 20 21  1  0
 22 21  1  0
 23 24  1  0
 22 23  1  6
 25 23  2  0
M  END
$$$$
