QNP.pdb
     RDKit          3D

 25 25  0  0  1  0  0  0  0  0999 V2000
   23.2687  -22.3215   -7.4351 N   0  0  0  0  0  0  0  0  0  0  0  0
   23.5631  -21.3600   -6.4066 C   0  0  0  0  0  0  0  0  0  0  0  0
   22.7745  -21.2594   -5.4313 O   0  0  0  0  0  0  0  0  0  0  0  0
   24.7788  -20.5326   -6.5380 C   0  0  0  0  0  0  0  0  0  0  0  0
   25.5565  -20.9051   -7.7500 C   0  0  0  0  0  0  0  0  0  0  0  0
   25.4082  -19.9549   -8.9136 C   0  0  2  0  0  0  0  0  0  0  0  0
   23.9574  -19.7646   -9.0751 N   0  0  0  0  0  0  0  0  0  0  0  0
   25.8834  -20.5723  -10.1817 C   0  0  0  0  0  0  0  0  0  0  0  0
   27.1001  -20.8882  -10.3601 O   0  0  0  0  0  0  0  0  0  0  0  0
   25.5839  -24.2194  -14.6939 N   0  0  0  0  0  0  0  0  0  0  0  0
   25.2165  -22.8833  -14.4304 C   0  0  0  0  0  0  0  0  0  0  0  0
   25.2017  -21.9639  -15.2773 O   0  0  0  0  0  0  0  0  0  0  0  0
   24.8101  -22.5396  -13.0138 C   0  0  0  0  0  0  0  0  0  0  0  0
   25.4972  -21.2593  -12.5949 C   0  0  2  0  0  0  0  0  0  0  0  0
   25.0175  -20.8487  -11.2686 N   0  0  0  0  0  0  0  0  0  0  0  0
   25.3876  -20.1639  -13.5552 C   0  0  0  0  0  0  0  0  0  0  0  0
   24.2002  -19.7373  -13.7796 O   0  0  0  0  0  0  0  0  0  0  0  0
   26.4387  -19.5269  -14.2583 N   0  0  0  0  0  0  0  0  0  0  0  0
   27.8259  -19.9986  -14.0454 C   0  0  0  0  0  0  0  0  0  0  0  0
   28.4860  -19.7136  -15.3643 C   0  0  0  0  0  0  0  0  0  0  0  0
   27.9993  -18.2706  -15.5661 C   0  0  0  0  0  0  0  0  0  0  0  0
   26.4999  -18.4446  -15.1792 C   0  0  1  0  0  0  0  0  0  0  0  0
   25.7284  -18.6360  -16.4294 C   0  0  0  0  0  0  0  0  0  0  0  0
   25.3539  -17.5555  -17.2009 O   0  0  0  0  0  0  0  0  0  0  0  0
   25.4099  -19.7768  -16.7953 O   0  0  0  0  0  0  0  0  0  0  0  0
  2  1  1  0
  2  3  2  0
  4  2  1  0
  5  4  1  0
  6  5  1  0
  6  7  1  6
  8  6  1  0
  8 15  1  0
  9  8  2  0
 11 10  1  0
 11 13  1  0
 12 11  2  0
 14 13  1  6
 14 15  1  0
 16 14  1  0
 17 16  2  0
 18 16  1  0
 18 22  1  0
 19 20  1  0
 19 18  1  0
 20 21  1  0
 22 21  1  0
 23 24  1  0
 22 23  1  6
 25 23  2  0
M  END
$$$$
