QNP.pdb
     RDKit          3D

 25 25  0  0  1  0  0  0  0  0999 V2000
   27.5408  -19.0924  -17.6339 N   0  0  0  0  0  0  0  0  0  0  0  0
   26.9899  -17.8202  -17.2507 C   0  0  0  0  0  0  0  0  0  0  0  0
   26.4535  -17.1041  -18.1354 O   0  0  0  0  0  0  0  0  0  0  0  0
   27.0759  -17.4088  -15.8354 C   0  0  0  0  0  0  0  0  0  0  0  0
   27.6408  -18.4953  -14.9911 C   0  0  0  0  0  0  0  0  0  0  0  0
   26.6462  -19.5487  -14.5667 C   0  0  2  0  0  0  0  0  0  0  0  0
   25.4594  -19.3211  -15.4075 N   0  0  0  0  0  0  0  0  0  0  0  0
   26.1993  -19.3379  -13.1628 C   0  0  0  0  0  0  0  0  0  0  0  0
   25.4636  -18.3573  -12.8323 O   0  0  0  0  0  0  0  0  0  0  0  0
   24.8043  -17.5862   -8.5161 N   0  0  0  0  0  0  0  0  0  0  0  0
   25.9284  -18.3468   -8.9002 C   0  0  0  0  0  0  0  0  0  0  0  0
   26.7372  -18.8795   -8.1097 O   0  0  0  0  0  0  0  0  0  0  0  0
   26.1713  -18.5300  -10.3826 C   0  0  0  0  0  0  0  0  0  0  0  0
   26.1404  -20.0051  -10.7141 C   0  0  2  0  0  0  0  0  0  0  0  0
   26.5606  -20.2105  -12.1066 N   0  0  0  0  0  0  0  0  0  0  0  0
   24.8648  -20.6653  -10.4478 C   0  0  0  0  0  0  0  0  0  0  0  0
   24.0008  -20.6081  -11.3925 O   0  0  0  0  0  0  0  0  0  0  0  0
   24.4814  -21.3556   -9.2725 N   0  0  0  0  0  0  0  0  0  0  0  0
   25.4852  -21.5498   -8.2015 C   0  0  0  0  0  0  0  0  0  0  0  0
   24.6486  -21.5727   -6.9542 C   0  0  0  0  0  0  0  0  0  0  0  0
   23.5595  -22.5522   -7.4172 C   0  0  0  0  0  0  0  0  0  0  0  0
   23.2779  -21.9767   -8.8376 C   0  0  1  0  0  0  0  0  0  0  0  0
   22.1046  -21.0778   -8.7383 C   0  0  0  0  0  0  0  0  0  0  0  0
   20.8269  -21.5908   -8.6530 O   0  0  0  0  0  0  0  0  0  0  0  0
   22.2618  -19.8482   -8.7314 O   0  0  0  0  0  0  0  0  0  0  0  0
  2  1  1  0
  2  3  2  0
  4  2  1  0
  5  4  1  0
  6  5  1  0
  6  7  1  6
  8  6  1  0
  8 15  1  0
  9  8  2  0
 11 10  1  0
 11 13  1  0
 12 11  2  0
 14 13  1  6
 14 15  1  0
 16 14  1  0
 17 16  2  0
 18 16  1  0
 18 22  1  0
 19 20  1  0
 19 18  1  0
 20 21  1  0
 22 21  1  0
 23 24  1  0
 22 23  1  1
 25 23  2  0
M  END
$$$$
