QNP.pdb
     RDKit          3D

 25 25  0  0  1  0  0  0  0  0999 V2000
   19.3576  -15.3632  -17.9761 N   0  0  0  0  0  0  0  0  0  0  0  0
   20.1484  -16.4809  -18.4171 C   0  0  0  0  0  0  0  0  0  0  0  0
   19.6125  -17.6183  -18.4628 O   0  0  0  0  0  0  0  0  0  0  0  0
   21.5552  -16.2461  -18.7986 C   0  0  0  0  0  0  0  0  0  0  0  0
   22.2225  -15.3131  -17.8517 C   0  0  0  0  0  0  0  0  0  0  0  0
   23.6322  -14.9281  -18.2307 C   0  0  2  0  0  0  0  0  0  0  0  0
   24.4323  -16.1480  -18.0340 N   0  0  0  0  0  0  0  0  0  0  0  0
   24.1894  -13.9176  -17.2908 C   0  0  0  0  0  0  0  0  0  0  0  0
   24.5040  -14.2127  -16.0967 O   0  0  0  0  0  0  0  0  0  0  0  0
   26.1254   -9.7577  -15.1634 N   0  0  0  0  0  0  0  0  0  0  0  0
   27.0193  -10.3734  -16.0641 C   0  0  0  0  0  0  0  0  0  0  0  0
   28.2404  -10.1191  -16.1481 O   0  0  0  0  0  0  0  0  0  0  0  0
   26.4544  -11.4210  -16.9987 C   0  0  0  0  0  0  0  0  0  0  0  0
   24.9698  -11.5635  -16.7485 C   0  0  2  0  0  0  0  0  0  0  0  0
   24.4061  -12.5671  -17.6610 N   0  0  0  0  0  0  0  0  0  0  0  0
   24.2161  -10.3138  -16.8122 C   0  0  0  0  0  0  0  0  0  0  0  0
   24.3880   -9.6137  -17.8717 O   0  0  0  0  0  0  0  0  0  0  0  0
   23.3243   -9.7958  -15.8421 N   0  0  0  0  0  0  0  0  0  0  0  0
   22.9998  -10.6246  -14.6588 C   0  0  0  0  0  0  0  0  0  0  0  0
   22.7335   -9.6013  -13.5920 C   0  0  0  0  0  0  0  0  0  0  0  0
   21.7972   -8.6740  -14.3814 C   0  0  0  0  0  0  0  0  0  0  0  0
   22.5871   -8.5853  -15.7216 C   0  0  1  0  0  0  0  0  0  0  0  0
   23.4043   -7.3502  -15.6854 C   0  0  0  0  0  0  0  0  0  0  0  0
   22.8285   -6.1155  -15.9016 O   0  0  0  0  0  0  0  0  0  0  0  0
   24.6215   -7.4161  -15.4595 O   0  0  0  0  0  0  0  0  0  0  0  0
  2  1  1  0
  2  3  2  0
  4  2  1  0
  5  4  1  0
  6  5  1  0
  6  7  1  1
  8  6  1  0
  8 15  1  0
  9  8  2  0
 11 10  1  0
 11 13  1  0
 12 11  2  0
 14 13  1  6
 14 15  1  0
 16 14  1  0
 17 16  2  0
 18 16  1  0
 18 22  1  0
 19 20  1  0
 19 18  1  0
 20 21  1  0
 22 21  1  0
 23 24  1  0
 22 23  1  1
 25 23  2  0
M  END
$$$$
