QNP.pdb
     RDKit          3D

 25 25  0  0  1  0  0  0  0  0999 V2000
   23.1091  -13.6090  -16.9656 N   0  0  0  0  0  0  0  0  0  0  0  0
   22.3430  -13.1964  -18.1110 C   0  0  0  0  0  0  0  0  0  0  0  0
   22.9309  -13.0706  -19.2164 O   0  0  0  0  0  0  0  0  0  0  0  0
   20.8992  -12.9390  -17.9418 C   0  0  0  0  0  0  0  0  0  0  0  0
   20.4708  -13.1715  -16.5365 C   0  0  0  0  0  0  0  0  0  0  0  0
   19.0560  -12.7452  -16.2276 C   0  0  2  0  0  0  0  0  0  0  0  0
   18.2269  -13.3724  -17.2698 N   0  0  0  0  0  0  0  0  0  0  0  0
   18.8832  -11.2766  -16.3961 C   0  0  0  0  0  0  0  0  0  0  0  0
   18.5475  -10.7632  -17.5078 O   0  0  0  0  0  0  0  0  0  0  0  0
   16.8480   -6.5312  -16.2107 N   0  0  0  0  0  0  0  0  0  0  0  0
   17.3441   -7.0318  -14.9889 C   0  0  0  0  0  0  0  0  0  0  0  0
   17.6395   -6.3331  -13.9953 O   0  0  0  0  0  0  0  0  0  0  0  0
   17.5323   -8.5291  -14.8753 C   0  0  0  0  0  0  0  0  0  0  0  0
   18.8666   -8.9107  -15.4760 C   0  0  2  0  0  0  0  0  0  0  0  0
   19.0793  -10.3573  -15.3359 N   0  0  0  0  0  0  0  0  0  0  0  0
   20.0076   -8.1597  -14.9582 C   0  0  0  0  0  0  0  0  0  0  0  0
   20.3480   -8.4262  -13.7519 O   0  0  0  0  0  0  0  0  0  0  0  0
   20.7722   -7.1794  -15.6359 N   0  0  0  0  0  0  0  0  0  0  0  0
   20.4724   -6.9011  -17.0589 C   0  0  0  0  0  0  0  0  0  0  0  0
   20.8434   -5.4529  -17.2055 C   0  0  0  0  0  0  0  0  0  0  0  0
   22.2171   -5.4894  -16.5190 C   0  0  0  0  0  0  0  0  0  0  0  0
   21.8590   -6.3405  -15.2639 C   0  0  1  0  0  0  0  0  0  0  0  0
   21.5818   -5.4072  -14.1473 C   0  0  0  0  0  0  0  0  0  0  0  0
   22.6103   -4.7538  -13.5007 O   0  0  0  0  0  0  0  0  0  0  0  0
   20.4148   -5.2044  -13.7813 O   0  0  0  0  0  0  0  0  0  0  0  0
  2  1  1  0
  2  3  2  0
  4  2  1  0
  5  4  1  0
  6  5  1  0
  6  7  1  6
  8  6  1  0
  8 15  1  0
  9  8  2  0
 11 10  1  0
 11 13  1  0
 12 11  2  0
 14 13  1  1
 14 15  1  0
 16 14  1  0
 17 16  2  0
 18 16  1  0
 18 22  1  0
 19 20  1  0
 19 18  1  0
 20 21  1  0
 22 21  1  0
 23 24  1  0
 22 23  1  1
 25 23  2  0
M  END
$$$$
