QNP.pdb
     RDKit          3D

 25 25  0  0  1  0  0  0  0  0999 V2000
   14.7883  -14.5694  -14.3301 N   0  0  0  0  0  0  0  0  0  0  0  0
   15.3765  -15.2484  -15.4535 C   0  0  0  0  0  0  0  0  0  0  0  0
   14.9762  -16.4076  -15.7347 O   0  0  0  0  0  0  0  0  0  0  0  0
   16.4243  -14.5561  -16.2298 C   0  0  0  0  0  0  0  0  0  0  0  0
   16.7056  -13.2061  -15.6723 C   0  0  0  0  0  0  0  0  0  0  0  0
   17.6852  -12.3825  -16.4730 C   0  0  2  0  0  0  0  0  0  0  0  0
   18.9108  -13.1952  -16.5387 N   0  0  0  0  0  0  0  0  0  0  0  0
   18.0598  -11.1348  -15.7534 C   0  0  0  0  0  0  0  0  0  0  0  0
   17.8690  -10.9961  -14.5059 O   0  0  0  0  0  0  0  0  0  0  0  0
   20.2102   -6.8101  -14.3245 N   0  0  0  0  0  0  0  0  0  0  0  0
   20.7048   -8.0694  -13.9255 C   0  0  0  0  0  0  0  0  0  0  0  0
   21.5266   -8.2568  -13.0023 O   0  0  0  0  0  0  0  0  0  0  0  0
   20.2006   -9.2842  -14.6740 C   0  0  0  0  0  0  0  0  0  0  0  0
   19.1660   -8.8507  -15.6881 C   0  0  2  0  0  0  0  0  0  0  0  0
   18.6510  -10.0245  -16.4056 N   0  0  0  0  0  0  0  0  0  0  0  0
   19.6177   -7.8215  -16.6212 C   0  0  0  0  0  0  0  0  0  0  0  0
   20.7669   -8.0182  -17.1531 O   0  0  0  0  0  0  0  0  0  0  0  0
   18.9321   -6.6419  -16.9998 N   0  0  0  0  0  0  0  0  0  0  0  0
   17.6231   -6.3472  -16.3737 C   0  0  0  0  0  0  0  0  0  0  0  0
   17.5781   -4.8457  -16.3753 C   0  0  0  0  0  0  0  0  0  0  0  0
   18.0073   -4.5972  -17.8292 C   0  0  0  0  0  0  0  0  0  0  0  0
   19.2018   -5.5934  -17.9224 C   0  0  1  0  0  0  0  0  0  0  0  0
   20.4473   -4.8331  -17.6666 C   0  0  0  0  0  0  0  0  0  0  0  0
   21.1954   -5.0641  -16.5310 O   0  0  0  0  0  0  0  0  0  0  0  0
   20.8304   -3.9762  -18.4765 O   0  0  0  0  0  0  0  0  0  0  0  0
  2  1  1  0
  2  3  2  0
  4  2  1  0
  5  4  1  0
  6  5  1  0
  6  7  1  1
  8  6  1  0
  8 15  1  0
  9  8  2  0
 11 10  1  0
 11 13  1  0
 12 11  2  0
 14 13  1  1
 14 15  1  0
 16 14  1  0
 17 16  2  0
 18 16  1  0
 18 22  1  0
 19 20  1  0
 19 18  1  0
 20 21  1  0
 22 21  1  0
 23 24  1  0
 22 23  1  1
 25 23  2  0
M  END
$$$$
