QNP.pdb
     RDKit          3D

 25 25  0  0  1  0  0  0  0  0999 V2000
   18.3112  -12.5352  -16.6094 N   0  0  0  0  0  0  0  0  0  0  0  0
   17.5551  -13.4928  -15.8476 C   0  0  0  0  0  0  0  0  0  0  0  0
   17.6560  -14.7121  -16.1413 O   0  0  0  0  0  0  0  0  0  0  0  0
   16.6936  -13.0048  -14.7525 C   0  0  0  0  0  0  0  0  0  0  0  0
   16.7242  -11.5204  -14.6624 C   0  0  0  0  0  0  0  0  0  0  0  0
   15.8626  -10.9349  -13.5699 C   0  0  2  0  0  0  0  0  0  0  0  0
   14.4762  -11.1272  -14.0259 N   0  0  0  0  0  0  0  0  0  0  0  0
   16.0557   -9.4635  -13.4570 C   0  0  0  0  0  0  0  0  0  0  0  0
   15.0746   -8.6623  -13.3693 O   0  0  0  0  0  0  0  0  0  0  0  0
   17.9366   -6.1586   -9.5606 N   0  0  0  0  0  0  0  0  0  0  0  0
   17.3405   -6.1359  -10.8388 C   0  0  0  0  0  0  0  0  0  0  0  0
   17.0796   -5.1009  -11.4894 O   0  0  0  0  0  0  0  0  0  0  0  0
   16.9911   -7.4673  -11.4676 C   0  0  0  0  0  0  0  0  0  0  0  0
   17.5966   -7.5391  -12.8514 C   0  0  2  0  0  0  0  0  0  0  0  0
   17.3375   -8.8600  -13.4394 N   0  0  0  0  0  0  0  0  0  0  0  0
   19.0174   -7.2055  -12.9154 C   0  0  0  0  0  0  0  0  0  0  0  0
   19.7542   -7.7327  -12.0091 O   0  0  0  0  0  0  0  0  0  0  0  0
   19.6645   -6.3722  -13.8598 N   0  0  0  0  0  0  0  0  0  0  0  0
   18.8742   -5.8256  -14.9863 C   0  0  0  0  0  0  0  0  0  0  0  0
   19.5560   -4.5186  -15.2747 C   0  0  0  0  0  0  0  0  0  0  0  0
   21.0116   -5.0093  -15.2921 C   0  0  0  0  0  0  0  0  0  0  0  0
   20.9994   -5.9074  -14.0189 C   0  0  1  0  0  0  0  0  0  0  0  0
   21.5256   -5.1031  -12.8916 C   0  0  0  0  0  0  0  0  0  0  0  0
   22.8750   -4.8387  -12.7818 O   0  0  0  0  0  0  0  0  0  0  0  0
   20.7524   -4.6580  -12.0308 O   0  0  0  0  0  0  0  0  0  0  0  0
  2  1  1  0
  2  3  2  0
  4  2  1  0
  5  4  1  0
  6  5  1  0
  6  7  1  6
  8  6  1  0
  8 15  1  0
  9  8  2  0
 11 10  1  0
 11 13  1  0
 12 11  2  0
 14 13  1  1
 14 15  1  0
 16 14  1  0
 17 16  2  0
 18 16  1  0
 18 22  1  0
 19 20  1  0
 19 18  1  0
 20 21  1  0
 22 21  1  0
 23 24  1  0
 22 23  1  1
 25 23  2  0
M  END
$$$$
