QNP.pdb
     RDKit          3D

 25 25  0  0  1  0  0  0  0  0999 V2000
   18.3017  -22.0584  -14.9202 N   0  0  0  0  0  0  0  0  0  0  0  0
   17.5010  -21.3368  -13.9678 C   0  0  0  0  0  0  0  0  0  0  0  0
   16.2751  -21.1817  -14.2051 O   0  0  0  0  0  0  0  0  0  0  0  0
   18.1508  -20.8098  -12.7514 C   0  0  0  0  0  0  0  0  0  0  0  0
   19.5831  -21.2065  -12.6900 C   0  0  0  0  0  0  0  0  0  0  0  0
   20.5585  -20.1134  -13.0543 C   0  0  2  0  0  0  0  0  0  0  0  0
   20.1555  -19.6677  -14.3981 N   0  0  0  0  0  0  0  0  0  0  0  0
   21.9408  -20.6460  -13.1975 C   0  0  0  0  0  0  0  0  0  0  0  0
   22.5993  -21.0808  -12.2029 O   0  0  0  0  0  0  0  0  0  0  0  0
   25.9586  -24.0657  -14.6270 N   0  0  0  0  0  0  0  0  0  0  0  0
   25.3625  -23.0722  -15.4317 C   0  0  0  0  0  0  0  0  0  0  0  0
   25.9069  -22.5244  -16.4146 O   0  0  0  0  0  0  0  0  0  0  0  0
   23.9572  -22.6384  -15.0752 C   0  0  0  0  0  0  0  0  0  0  0  0
   23.9849  -21.2045  -14.5957 C   0  0  2  0  0  0  0  0  0  0  0  0
   22.6120  -20.7046  -14.4440 N   0  0  0  0  0  0  0  0  0  0  0  0
   24.7852  -20.3000  -15.4175 C   0  0  0  0  0  0  0  0  0  0  0  0
   24.2593  -19.9485  -16.5319 O   0  0  0  0  0  0  0  0  0  0  0  0
   26.0657  -19.7733  -15.1211 N   0  0  0  0  0  0  0  0  0  0  0  0
   26.7195  -20.1634  -13.8513 C   0  0  0  0  0  0  0  0  0  0  0  0
   28.1814  -20.1036  -14.1914 C   0  0  0  0  0  0  0  0  0  0  0  0
   28.2074  -18.7333  -14.8854 C   0  0  0  0  0  0  0  0  0  0  0  0
   26.9436  -18.8732  -15.7861 C   0  0  1  0  0  0  0  0  0  0  0  0
   27.3908  -19.3059  -17.1305 C   0  0  0  0  0  0  0  0  0  0  0  0
   27.9398  -18.4030  -18.0171 O   0  0  0  0  0  0  0  0  0  0  0  0
   27.2740  -20.4916  -17.4731 O   0  0  0  0  0  0  0  0  0  0  0  0
  2  1  1  0
  2  3  2  0
  4  2  1  0
  5  4  1  0
  6  5  1  0
  6  7  1  6
  8  6  1  0
  8 15  1  0
  9  8  2  0
 11 10  1  0
 11 13  1  0
 12 11  2  0
 14 13  1  6
 14 15  1  0
 16 14  1  0
 17 16  2  0
 18 16  1  0
 18 22  1  0
 19 20  1  0
 19 18  1  0
 20 21  1  0
 22 21  1  0
 23 24  1  0
 22 23  1  6
 25 23  2  0
M  END
$$$$
