YKA.pdb
     RDKit          3D

 27 27  0  0  1  0  0  0  0  0999 V2000
   25.7216  -13.7858  -17.0458 O   0  0  0  0  0  0  0  0  0  0  0  0
   24.8050  -14.8319  -17.0006 C   0  0  0  0  0  0  0  0  0  0  0  0
   24.0626  -15.0757  -15.8630 C   0  0  0  0  0  0  0  0  0  0  0  0
   23.1480  -16.1118  -15.8040 C   0  0  0  0  0  0  0  0  0  0  0  0
   22.9395  -16.9464  -16.8823 C   0  0  0  0  0  0  0  0  0  0  0  0
   21.9551  -18.0634  -16.8226 C   0  0  0  0  0  0  0  0  0  0  0  0
   22.5460  -19.3066  -16.1906 C   0  0  2  0  0  0  0  0  0  0  0  0
   23.6599  -19.7961  -16.9894 N   0  0  0  0  0  0  0  0  0  0  0  0
   21.4575  -20.2929  -16.0995 C   0  0  0  0  0  0  0  0  0  0  0  0
   21.1886  -20.9953  -17.0860 O   0  0  0  0  0  0  0  0  0  0  0  0
   23.6831  -16.7001  -18.0179 C   0  0  0  0  0  0  0  0  0  0  0  0
   24.5977  -15.6657  -18.0799 C   0  0  0  0  0  0  0  0  0  0  0  0
   20.7434  -20.4252  -14.9072 N   0  0  0  0  0  0  0  0  0  0  0  0
   19.7260  -21.4815  -14.7789 C   0  0  1  0  0  0  0  0  0  0  0  0
   19.8581  -22.0098  -13.3740 C   0  0  0  0  0  0  0  0  0  0  0  0
   18.8974  -23.1147  -13.1099 C   0  0  0  0  0  0  0  0  0  0  0  0
   19.1577  -23.5697  -11.6645 C   0  0  0  0  0  0  0  0  0  0  0  0
   18.2826  -24.7842  -11.4306 C   0  0  0  0  0  0  0  0  0  0  0  0
   18.4564  -25.1792  -10.0436 N   0  0  0  0  0  0  0  0  0  0  0  0
   18.4315  -20.7820  -14.9157 C   0  0  0  0  0  0  0  0  0  0  0  0
   18.2332  -19.7496  -14.2362 O   0  0  0  0  0  0  0  0  0  0  0  0
   15.3171  -20.8606  -17.0204 C   0  0  0  0  0  0  0  0  0  0  0  0
   16.1654  -20.4190  -15.8693 C   0  0  2  0  0  0  0  0  0  0  0  0
   17.3750  -21.2000  -15.7757 N   0  0  0  0  0  0  0  0  0  0  0  0
   15.3688  -20.4746  -14.6153 C   0  0  0  0  0  0  0  0  0  0  0  0
   15.4237  -21.4483  -13.8240 O   0  0  0  0  0  0  0  0  0  0  0  0
   14.5325  -19.4212  -14.2972 O   0  0  0  0  0  0  0  0  0  0  0  0
  2  1  1  0
  3  2  2  0
  4  3  1  0
  5  4  2  0
  5 11  1  0
  6  5  1  0
  7  6  1  0
  7  9  1  0
  7  8  1  6
  9 13  1  0
 10  9  2  0
 11 12  2  0
 12  2  1  0
 13 14  1  0
 14 20  1  0
 14 15  1  1
 16 15  1  0
 17 18  1  0
 17 16  1  0
 19 18  1  0
 20 24  1  0
 21 20  2  0
 23 22  1  6
 23 25  1  0
 24 23  1  0
 25 26  2  0
 25 27  1  0
M  END
$$$$
