YKA.pdb
     RDKit          3D

 27 27  0  0  1  0  0  0  0  0999 V2000
   25.5917  -20.3896   -7.7064 O   0  0  0  0  0  0  0  0  0  0  0  0
   25.5874  -20.2158   -9.0872 C   0  0  0  0  0  0  0  0  0  0  0  0
   26.7295  -20.4280   -9.8322 C   0  0  0  0  0  0  0  0  0  0  0  0
   26.7396  -20.2591  -11.2051 C   0  0  0  0  0  0  0  0  0  0  0  0
   25.6059  -19.8706  -11.8881 C   0  0  0  0  0  0  0  0  0  0  0  0
   25.6129  -19.6879  -13.3669 C   0  0  0  0  0  0  0  0  0  0  0  0
   24.7501  -20.7157  -14.0691 C   0  0  2  0  0  0  0  0  0  0  0  0
   25.3810  -22.0261  -14.0114 N   0  0  0  0  0  0  0  0  0  0  0  0
   24.5770  -20.2478  -15.4537 C   0  0  0  0  0  0  0  0  0  0  0  0
   25.4272  -20.5442  -16.3070 O   0  0  0  0  0  0  0  0  0  0  0  0
   24.4659  -19.6594  -11.1405 C   0  0  0  0  0  0  0  0  0  0  0  0
   24.4526  -19.8273   -9.7687 C   0  0  0  0  0  0  0  0  0  0  0  0
   23.4613  -19.4782  -15.7883 N   0  0  0  0  0  0  0  0  0  0  0  0
   23.1949  -19.1534  -17.1993 C   0  0  1  0  0  0  0  0  0  0  0  0
   21.8762  -19.8039  -17.5281 C   0  0  0  0  0  0  0  0  0  0  0  0
   21.9600  -21.2871  -17.4472 C   0  0  0  0  0  0  0  0  0  0  0  0
   20.5697  -21.8146  -17.8381 C   0  0  0  0  0  0  0  0  0  0  0  0
   20.6571  -23.3268  -17.8039 C   0  0  0  0  0  0  0  0  0  0  0  0
   19.3821  -23.8422  -18.2716 N   0  0  0  0  0  0  0  0  0  0  0  0
   23.0334  -17.6847  -17.2280 C   0  0  0  0  0  0  0  0  0  0  0  0
   22.3748  -17.1362  -16.3157 O   0  0  0  0  0  0  0  0  0  0  0  0
   24.3898  -14.6778  -19.0058 C   0  0  0  0  0  0  0  0  0  0  0  0
   23.4117  -15.4022  -18.1352 C   0  0  2  0  0  0  0  0  0  0  0  0
   23.5787  -16.8321  -18.2310 N   0  0  0  0  0  0  0  0  0  0  0  0
   22.0295  -14.9790  -18.4824 C   0  0  0  0  0  0  0  0  0  0  0  0
   21.2954  -15.6422  -19.2561 O   0  0  0  0  0  0  0  0  0  0  0  0
   21.5217  -13.8136  -17.9399 O   0  0  0  0  0  0  0  0  0  0  0  0
  2  1  1  0
  3  2  2  0
  4  3  1  0
  5  4  2  0
  5 11  1  0
  6  5  1  0
  7  6  1  0
  7  9  1  0
  7  8  1  6
  9 13  1  0
 10  9  2  0
 11 12  2  0
 12  2  1  0
 13 14  1  0
 14 20  1  0
 14 15  1  1
 16 15  1  0
 17 18  1  0
 17 16  1  0
 19 18  1  0
 20 24  1  0
 21 20  2  0
 23 22  1  6
 23 25  1  0
 24 23  1  0
 25 26  2  0
 25 27  1  0
M  END
$$$$
