YKA.pdb
     RDKit          3D

 27 27  0  0  1  0  0  0  0  0999 V2000
   28.5158  -19.5759   -5.7508 O   0  0  0  0  0  0  0  0  0  0  0  0
   28.1089  -19.7822   -7.0656 C   0  0  0  0  0  0  0  0  0  0  0  0
   26.8163  -19.5026   -7.4600 C   0  0  0  0  0  0  0  0  0  0  0  0
   26.3982  -19.7029   -8.7633 C   0  0  0  0  0  0  0  0  0  0  0  0
   27.2579  -20.1915   -9.7251 C   0  0  0  0  0  0  0  0  0  0  0  0
   26.8113  -20.4084  -11.1300 C   0  0  0  0  0  0  0  0  0  0  0  0
   25.8978  -21.6100  -11.2553 C   0  0  2  0  0  0  0  0  0  0  0  0
   26.6838  -22.8276  -11.3904 N   0  0  0  0  0  0  0  0  0  0  0  0
   25.0442  -21.3717  -12.4303 C   0  0  0  0  0  0  0  0  0  0  0  0
   25.4254  -21.7544  -13.5471 O   0  0  0  0  0  0  0  0  0  0  0  0
   28.5493  -20.4700   -9.3275 C   0  0  0  0  0  0  0  0  0  0  0  0
   28.9700  -20.2710   -8.0261 C   0  0  0  0  0  0  0  0  0  0  0  0
   23.8197  -20.7197  -12.2736 N   0  0  0  0  0  0  0  0  0  0  0  0
   22.7388  -20.9529  -13.2454 C   0  0  1  0  0  0  0  0  0  0  0  0
   21.4547  -20.6957  -12.5003 C   0  0  0  0  0  0  0  0  0  0  0  0
   20.2686  -20.8240  -13.3891 C   0  0  0  0  0  0  0  0  0  0  0  0
   19.8396  -22.2987  -13.3176 C   0  0  0  0  0  0  0  0  0  0  0  0
   18.6562  -22.4493  -14.2516 C   0  0  0  0  0  0  0  0  0  0  0  0
   18.2121  -23.8297  -14.1646 N   0  0  0  0  0  0  0  0  0  0  0  0
   22.9209  -19.9090  -14.2754 C   0  0  0  0  0  0  0  0  0  0  0  0
   22.9981  -18.7140  -13.9106 O   0  0  0  0  0  0  0  0  0  0  0  0
   24.0385  -19.4921  -17.7729 C   0  0  0  0  0  0  0  0  0  0  0  0
   23.2146  -19.0714  -16.5966 C   0  0  2  0  0  0  0  0  0  0  0  0
   23.0165  -20.1630  -15.6742 N   0  0  0  0  0  0  0  0  0  0  0  0
   21.9254  -18.5031  -17.0712 C   0  0  0  0  0  0  0  0  0  0  0  0
   21.8516  -17.3933  -17.6543 O   0  0  0  0  0  0  0  0  0  0  0  0
   20.7571  -19.2133  -16.8690 O   0  0  0  0  0  0  0  0  0  0  0  0
  2  1  1  0
  3  2  2  0
  4  3  1  0
  5  4  2  0
  5 11  1  0
  6  5  1  0
  7  6  1  0
  7  9  1  0
  7  8  1  6
  9 13  1  0
 10  9  2  0
 11 12  2  0
 12  2  1  0
 13 14  1  0
 14 20  1  0
 14 15  1  1
 16 15  1  0
 17 18  1  0
 17 16  1  0
 19 18  1  0
 20 24  1  0
 21 20  2  0
 23 22  1  6
 23 25  1  0
 24 23  1  0
 25 26  2  0
 25 27  1  0
M  END
$$$$
