YKA.pdb
     RDKit          3D

 27 27  0  0  1  0  0  0  0  0999 V2000
   21.4981  -20.2562  -14.5516 O   0  0  0  0  0  0  0  0  0  0  0  0
   21.4521  -18.9497  -15.0287 C   0  0  0  0  0  0  0  0  0  0  0  0
   22.0931  -18.5993  -16.1996 C   0  0  0  0  0  0  0  0  0  0  0  0
   22.0557  -17.3047  -16.6854 C   0  0  0  0  0  0  0  0  0  0  0  0
   21.3747  -16.3078  -16.0183 C   0  0  0  0  0  0  0  0  0  0  0  0
   21.3320  -14.9122  -16.5385 C   0  0  0  0  0  0  0  0  0  0  0  0
   20.0720  -14.6423  -17.3346 C   0  0  2  0  0  0  0  0  0  0  0  0
   20.0248  -15.5018  -18.5084 N   0  0  0  0  0  0  0  0  0  0  0  0
   20.0977  -13.2160  -17.6964 C   0  0  0  0  0  0  0  0  0  0  0  0
   20.7064  -12.8577  -18.7162 O   0  0  0  0  0  0  0  0  0  0  0  0
   20.7350  -16.6613  -14.8482 C   0  0  0  0  0  0  0  0  0  0  0  0
   20.7704  -17.9539  -14.3602 C   0  0  0  0  0  0  0  0  0  0  0  0
   19.4385  -12.2868  -16.8896 N   0  0  0  0  0  0  0  0  0  0  0  0
   19.3477  -10.8816  -17.3188 C   0  0  1  0  0  0  0  0  0  0  0  0
   17.8795  -10.5430  -17.3067 C   0  0  0  0  0  0  0  0  0  0  0  0
   17.6391   -9.1266  -17.6934 C   0  0  0  0  0  0  0  0  0  0  0  0
   16.1124   -8.9475  -17.7287 C   0  0  0  0  0  0  0  0  0  0  0  0
   15.8562   -7.5125  -18.1418 C   0  0  0  0  0  0  0  0  0  0  0  0
   14.4294   -7.3819  -18.3814 N   0  0  0  0  0  0  0  0  0  0  0  0
   20.0326  -10.1142  -16.2578 C   0  0  0  0  0  0  0  0  0  0  0  0
   19.8384  -10.4371  -15.0641 O   0  0  0  0  0  0  0  0  0  0  0  0
   22.4533   -7.2558  -15.8477 C   0  0  0  0  0  0  0  0  0  0  0  0
   21.4804   -8.2936  -15.3831 C   0  0  2  0  0  0  0  0  0  0  0  0
   20.9109   -9.0173  -16.4937 N   0  0  0  0  0  0  0  0  0  0  0  0
   20.4353   -7.6531  -14.5418 C   0  0  0  0  0  0  0  0  0  0  0  0
   19.3251   -7.2916  -15.0044 O   0  0  0  0  0  0  0  0  0  0  0  0
   20.6827   -7.4422  -13.1985 O   0  0  0  0  0  0  0  0  0  0  0  0
  2  1  1  0
  3  2  2  0
  4  3  1  0
  5  4  2  0
  5 11  1  0
  6  5  1  0
  7  6  1  0
  7  9  1  0
  7  8  1  6
  9 13  1  0
 10  9  2  0
 11 12  2  0
 12  2  1  0
 13 14  1  0
 14 20  1  0
 14 15  1  1
 16 15  1  0
 17 18  1  0
 17 16  1  0
 19 18  1  0
 20 24  1  0
 21 20  2  0
 23 22  1  6
 23 25  1  0
 24 23  1  0
 25 26  2  0
 25 27  1  0
M  END
$$$$
