YKA.pdb
     RDKit          3D

 27 27  0  0  1  0  0  0  0  0999 V2000
   33.0938  -12.2895  -16.9058 O   0  0  0  0  0  0  0  0  0  0  0  0
   31.7866  -12.0308  -17.3070 C   0  0  0  0  0  0  0  0  0  0  0  0
   31.5226  -11.1626  -18.3468 C   0  0  0  0  0  0  0  0  0  0  0  0
   30.2284  -10.8962  -18.7561 C   0  0  0  0  0  0  0  0  0  0  0  0
   29.1454  -11.4886  -18.1405 C   0  0  0  0  0  0  0  0  0  0  0  0
   27.7499  -11.2043  -18.5787 C   0  0  0  0  0  0  0  0  0  0  0  0
   27.1485  -12.3649  -19.3439 C   0  0  2  0  0  0  0  0  0  0  0  0
   28.1162  -12.8980  -20.2915 N   0  0  0  0  0  0  0  0  0  0  0  0
   25.9449  -11.8499  -20.0161 C   0  0  0  0  0  0  0  0  0  0  0  0
   25.9533  -11.6982  -21.2473 O   0  0  0  0  0  0  0  0  0  0  0  0
   29.4127  -12.3559  -17.1015 C   0  0  0  0  0  0  0  0  0  0  0  0
   30.7047  -12.6241  -16.6902 C   0  0  0  0  0  0  0  0  0  0  0  0
   24.8119  -11.5395  -19.2617 N   0  0  0  0  0  0  0  0  0  0  0  0
   23.5525  -11.1971  -19.9428 C   0  0  1  0  0  0  0  0  0  0  0  0
   22.5441  -12.2149  -19.4765 C   0  0  0  0  0  0  0  0  0  0  0  0
   21.1956  -11.9541  -20.0484 C   0  0  0  0  0  0  0  0  0  0  0  0
   20.3089  -13.1283  -19.6021 C   0  0  0  0  0  0  0  0  0  0  0  0
   18.9203  -12.8485  -20.1397 C   0  0  0  0  0  0  0  0  0  0  0  0
   18.0485  -13.9017  -19.6489 N   0  0  0  0  0  0  0  0  0  0  0  0
   23.1825   -9.8679  -19.4136 C   0  0  0  0  0  0  0  0  0  0  0  0
   23.2348   -9.6792  -18.1772 O   0  0  0  0  0  0  0  0  0  0  0  0
   22.2322   -6.4286  -20.5989 C   0  0  0  0  0  0  0  0  0  0  0  0
   22.3578   -7.5306  -19.5941 C   0  0  2  0  0  0  0  0  0  0  0  0
   22.7639   -8.7674  -20.2162 N   0  0  0  0  0  0  0  0  0  0  0  0
   21.0772   -7.6749  -18.8528 C   0  0  0  0  0  0  0  0  0  0  0  0
   20.3393   -8.6842  -18.9713 O   0  0  0  0  0  0  0  0  0  0  0  0
   20.6725   -6.6671  -17.9979 O   0  0  0  0  0  0  0  0  0  0  0  0
  2  1  1  0
  3  2  2  0
  4  3  1  0
  5  4  2  0
  5 11  1  0
  6  5  1  0
  7  6  1  0
  7  9  1  0
  7  8  1  6
  9 13  1  0
 10  9  2  0
 11 12  2  0
 12  2  1  0
 13 14  1  0
 14 20  1  0
 14 15  1  1
 16 15  1  0
 17 18  1  0
 17 16  1  0
 19 18  1  0
 20 24  1  0
 21 20  2  0
 23 22  1  6
 23 25  1  0
 24 23  1  0
 25 26  2  0
 25 27  1  0
M  END
$$$$
