YKA.pdb
     RDKit          3D

 27 27  0  0  1  0  0  0  0  0999 V2000
   26.8604  -16.8600  -15.9675 O   0  0  0  0  0  0  0  0  0  0  0  0
   26.2505  -15.6327  -16.2096 C   0  0  0  0  0  0  0  0  0  0  0  0
   25.5846  -14.9612  -15.2045 C   0  0  0  0  0  0  0  0  0  0  0  0
   24.9739  -13.7408  -15.4310 C   0  0  0  0  0  0  0  0  0  0  0  0
   25.0053  -13.1430  -16.6737 C   0  0  0  0  0  0  0  0  0  0  0  0
   24.3489  -11.8284  -16.9214 C   0  0  0  0  0  0  0  0  0  0  0  0
   22.8826  -11.9834  -17.2681 C   0  0  2  0  0  0  0  0  0  0  0  0
   22.7339  -12.7629  -18.4882 N   0  0  0  0  0  0  0  0  0  0  0  0
   22.3362  -10.6245  -17.4120 C   0  0  0  0  0  0  0  0  0  0  0  0
   22.3859  -10.0624  -18.5168 O   0  0  0  0  0  0  0  0  0  0  0  0
   25.6718  -13.8168  -17.6762 C   0  0  0  0  0  0  0  0  0  0  0  0
   26.2829  -15.0362  -17.4531 C   0  0  0  0  0  0  0  0  0  0  0  0
   21.7703   -9.9870  -16.3064 N   0  0  0  0  0  0  0  0  0  0  0  0
   21.0835   -8.6965  -16.4802 C   0  0  1  0  0  0  0  0  0  0  0  0
   19.6755   -8.9116  -15.9885 C   0  0  0  0  0  0  0  0  0  0  0  0
   18.8639   -7.6685  -16.0853 C   0  0  0  0  0  0  0  0  0  0  0  0
   17.4552   -8.0397  -15.5937 C   0  0  0  0  0  0  0  0  0  0  0  0
   16.5784   -6.8298  -15.8441 C   0  0  0  0  0  0  0  0  0  0  0  0
   15.2360   -7.1734  -15.4082 N   0  0  0  0  0  0  0  0  0  0  0  0
   21.7812   -7.7677  -15.5667 C   0  0  0  0  0  0  0  0  0  0  0  0
   22.0574   -8.1590  -14.4102 O   0  0  0  0  0  0  0  0  0  0  0  0
   23.3177   -4.3285  -15.5566 C   0  0  0  0  0  0  0  0  0  0  0  0
   22.8779   -5.6244  -14.9510 C   0  0  2  0  0  0  0  0  0  0  0  0
   22.1693   -6.4397  -15.9074 N   0  0  0  0  0  0  0  0  0  0  0  0
   22.0623   -5.3541  -13.7378 C   0  0  0  0  0  0  0  0  0  0  0  0
   20.8072   -5.3988  -13.7452 O   0  0  0  0  0  0  0  0  0  0  0  0
   22.6974   -5.0407  -12.5509 O   0  0  0  0  0  0  0  0  0  0  0  0
  2  1  1  0
  3  2  2  0
  4  3  1  0
  5  4  2  0
  5 11  1  0
  6  5  1  0
  7  6  1  0
  7  9  1  0
  7  8  1  6
  9 13  1  0
 10  9  2  0
 11 12  2  0
 12  2  1  0
 13 14  1  0
 14 20  1  0
 14 15  1  1
 16 15  1  0
 17 18  1  0
 17 16  1  0
 19 18  1  0
 20 24  1  0
 21 20  2  0
 23 22  1  6
 23 25  1  0
 24 23  1  0
 25 26  2  0
 25 27  1  0
M  END
$$$$
