YKA.pdb
     RDKit          3D

 27 27  0  0  1  0  0  0  0  0999 V2000
   29.1607  -16.9093  -19.0510 O   0  0  0  0  0  0  0  0  0  0  0  0
   27.9528  -16.8062  -18.3676 C   0  0  0  0  0  0  0  0  0  0  0  0
   27.3250  -17.9274  -17.8640 C   0  0  0  0  0  0  0  0  0  0  0  0
   26.1243  -17.8396  -17.1828 C   0  0  0  0  0  0  0  0  0  0  0  0
   25.5030  -16.6252  -16.9781 C   0  0  0  0  0  0  0  0  0  0  0  0
   24.2097  -16.5267  -16.2447 C   0  0  0  0  0  0  0  0  0  0  0  0
   23.0429  -16.9984  -17.0874 C   0  0  2  0  0  0  0  0  0  0  0  0
   22.8511  -16.1094  -18.2237 N   0  0  0  0  0  0  0  0  0  0  0  0
   21.8664  -17.0250  -16.2036 C   0  0  0  0  0  0  0  0  0  0  0  0
   21.3534  -15.9553  -15.8409 O   0  0  0  0  0  0  0  0  0  0  0  0
   26.1331  -15.5065  -17.4828 C   0  0  0  0  0  0  0  0  0  0  0  0
   27.3328  -15.5908  -18.1638 C   0  0  0  0  0  0  0  0  0  0  0  0
   21.3440  -18.2503  -15.7857 N   0  0  0  0  0  0  0  0  0  0  0  0
   20.1545  -18.2794  -14.9188 C   0  0  1  0  0  0  0  0  0  0  0  0
   19.0002  -18.6391  -15.8180 C   0  0  0  0  0  0  0  0  0  0  0  0
   18.4553  -17.4441  -16.5171 C   0  0  0  0  0  0  0  0  0  0  0  0
   17.2912  -17.9513  -17.3840 C   0  0  0  0  0  0  0  0  0  0  0  0
   16.7892  -16.7587  -18.1721 C   0  0  0  0  0  0  0  0  0  0  0  0
   15.8228  -17.2557  -19.1361 N   0  0  0  0  0  0  0  0  0  0  0  0
   20.3990  -19.3889  -13.9738 C   0  0  0  0  0  0  0  0  0  0  0  0
   20.8802  -20.4570  -14.4149 O   0  0  0  0  0  0  0  0  0  0  0  0
   20.2365  -20.1504  -10.2917 C   0  0  0  0  0  0  0  0  0  0  0  0
   20.3784  -20.4848  -11.7434 C   0  0  2  0  0  0  0  0  0  0  0  0
   20.1241  -19.3347  -12.5767 N   0  0  0  0  0  0  0  0  0  0  0  0
   19.4849  -21.6243  -12.0801 C   0  0  0  0  0  0  0  0  0  0  0  0
   18.4482  -21.4859  -12.7754 O   0  0  0  0  0  0  0  0  0  0  0  0
   19.7959  -22.8886  -11.6164 O   0  0  0  0  0  0  0  0  0  0  0  0
  2  1  1  0
  3  2  2  0
  4  3  1  0
  5  4  2  0
  5 11  1  0
  6  5  1  0
  7  6  1  0
  7  9  1  0
  7  8  1  6
  9 13  1  0
 10  9  2  0
 11 12  2  0
 12  2  1  0
 13 14  1  0
 14 20  1  0
 14 15  1  6
 16 15  1  0
 17 18  1  0
 17 16  1  0
 19 18  1  0
 20 24  1  0
 21 20  2  0
 23 22  1  1
 23 25  1  0
 24 23  1  0
 25 26  2  0
 25 27  1  0
M  END
$$$$
