YKA.pdb
     RDKit          3D

 27 27  0  0  1  0  0  0  0  0999 V2000
   20.8444  -36.3532  -10.6358 O   0  0  0  0  0  0  0  0  0  0  0  0
   20.7643  -35.0030  -10.3086 C   0  0  0  0  0  0  0  0  0  0  0  0
   19.8611  -34.1725  -10.9405 C   0  0  0  0  0  0  0  0  0  0  0  0
   19.7706  -32.8287  -10.6252 C   0  0  0  0  0  0  0  0  0  0  0  0
   20.5812  -32.2614   -9.6641 C   0  0  0  0  0  0  0  0  0  0  0  0
   20.4865  -30.8143   -9.3217 C   0  0  0  0  0  0  0  0  0  0  0  0
   21.1284  -29.9388  -10.3778 C   0  0  2  0  0  0  0  0  0  0  0  0
   22.5541  -30.2185  -10.4646 N   0  0  0  0  0  0  0  0  0  0  0  0
   20.8629  -28.5443   -9.9896 C   0  0  0  0  0  0  0  0  0  0  0  0
   21.6221  -27.9811   -9.1862 O   0  0  0  0  0  0  0  0  0  0  0  0
   21.4829  -33.0942   -9.0343 C   0  0  0  0  0  0  0  0  0  0  0  0
   21.5758  -34.4373   -9.3470 C   0  0  0  0  0  0  0  0  0  0  0  0
   19.7629  -27.8746  -10.5288 N   0  0  0  0  0  0  0  0  0  0  0  0
   19.5536  -26.4499  -10.2229 C   0  0  1  0  0  0  0  0  0  0  0  0
   18.8814  -25.8640  -11.4374 C   0  0  0  0  0  0  0  0  0  0  0  0
   18.5078  -24.4396  -11.2251 C   0  0  0  0  0  0  0  0  0  0  0  0
   17.9553  -23.9387  -12.5696 C   0  0  0  0  0  0  0  0  0  0  0  0
   17.5158  -22.5058  -12.3482 C   0  0  0  0  0  0  0  0  0  0  0  0
   16.9268  -22.0393  -13.5915 N   0  0  0  0  0  0  0  0  0  0  0  0
   18.6055  -26.4390   -9.0894 C   0  0  0  0  0  0  0  0  0  0  0  0
   17.5692  -27.1367   -9.1681 O   0  0  0  0  0  0  0  0  0  0  0  0
   18.2550  -25.0744   -5.6038 C   0  0  0  0  0  0  0  0  0  0  0  0
   17.7598  -25.6819   -6.8786 C   0  0  2  0  0  0  0  0  0  0  0  0
   18.7838  -25.6827   -7.8950 N   0  0  0  0  0  0  0  0  0  0  0  0
   16.5337  -24.9693   -7.3248 C   0  0  0  0  0  0  0  0  0  0  0  0
   16.5561  -24.0766   -8.2079 O   0  0  0  0  0  0  0  0  0  0  0  0
   15.3171  -25.2924   -6.7539 O   0  0  0  0  0  0  0  0  0  0  0  0
  2  1  1  0
  3  2  2  0
  4  3  1  0
  5  4  2  0
  5 11  1  0
  6  5  1  0
  7  6  1  0
  7  9  1  0
  7  8  1  1
  9 13  1  0
 10  9  2  0
 11 12  2  0
 12  2  1  0
 13 14  1  0
 14 20  1  0
 14 15  1  6
 16 15  1  0
 17 18  1  0
 17 16  1  0
 19 18  1  0
 20 24  1  0
 21 20  2  0
 23 22  1  1
 23 25  1  0
 24 23  1  0
 25 26  2  0
 25 27  1  0
M  END
$$$$
