YKA.pdb
     RDKit          3D

 27 27  0  0  1  0  0  0  0  0999 V2000
   19.3857  -23.0593   -6.3796 O   0  0  0  0  0  0  0  0  0  0  0  0
   20.2381  -22.4270   -7.2798 C   0  0  0  0  0  0  0  0  0  0  0  0
   20.0040  -22.4852   -8.6387 C   0  0  0  0  0  0  0  0  0  0  0  0
   20.8428  -21.8615   -9.5447 C   0  0  0  0  0  0  0  0  0  0  0  0
   21.9506  -21.1539   -9.1268 C   0  0  0  0  0  0  0  0  0  0  0  0
   22.8563  -20.4805  -10.0997 C   0  0  0  0  0  0  0  0  0  0  0  0
   24.0289  -21.3589  -10.4841 C   0  0  2  0  0  0  0  0  0  0  0  0
   25.1113  -21.2015   -9.5238 N   0  0  0  0  0  0  0  0  0  0  0  0
   24.4325  -20.9556  -11.8407 C   0  0  0  0  0  0  0  0  0  0  0  0
   25.3108  -20.0911  -11.9826 O   0  0  0  0  0  0  0  0  0  0  0  0
   22.1817  -21.0976   -7.7679 C   0  0  0  0  0  0  0  0  0  0  0  0
   21.3456  -21.7196   -6.8601 C   0  0  0  0  0  0  0  0  0  0  0  0
   23.8235  -21.5495  -12.9477 N   0  0  0  0  0  0  0  0  0  0  0  0
   24.3542  -21.2949  -14.2970 C   0  0  1  0  0  0  0  0  0  0  0  0
   24.5494  -22.6512  -14.9238 C   0  0  0  0  0  0  0  0  0  0  0  0
   25.0108  -22.5434  -16.3341 C   0  0  0  0  0  0  0  0  0  0  0  0
   26.4887  -22.9673  -16.3327 C   0  0  0  0  0  0  0  0  0  0  0  0
   26.9906  -22.7856  -17.7507 C   0  0  0  0  0  0  0  0  0  0  0  0
   28.4064  -23.1106  -17.7511 N   0  0  0  0  0  0  0  0  0  0  0  0
   23.2695  -20.5835  -15.0049 C   0  0  0  0  0  0  0  0  0  0  0  0
   22.1005  -21.0191  -14.9027 O   0  0  0  0  0  0  0  0  0  0  0  0
   22.7221  -17.5687  -17.1967 C   0  0  0  0  0  0  0  0  0  0  0  0
   22.3437  -18.8547  -16.5313 C   0  0  2  0  0  0  0  0  0  0  0  0
   23.4560  -19.4213  -15.8079 N   0  0  0  0  0  0  0  0  0  0  0  0
   21.8011  -19.7973  -17.5449 C   0  0  0  0  0  0  0  0  0  0  0  0
   22.5242  -20.6276  -18.1490 O   0  0  0  0  0  0  0  0  0  0  0  0
   20.4517  -19.7685  -17.8425 O   0  0  0  0  0  0  0  0  0  0  0  0
  2  1  1  0
  3  2  2  0
  4  3  1  0
  5  4  2  0
  5 11  1  0
  6  5  1  0
  7  6  1  0
  7  9  1  0
  7  8  1  1
  9 13  1  0
 10  9  2  0
 11 12  2  0
 12  2  1  0
 13 14  1  0
 14 20  1  0
 14 15  1  6
 16 15  1  0
 17 18  1  0
 17 16  1  0
 19 18  1  0
 20 24  1  0
 21 20  2  0
 23 22  1  6
 23 25  1  0
 24 23  1  0
 25 26  2  0
 25 27  1  0
M  END
$$$$
