YKA.pdb
     RDKit          3D

 27 27  0  0  1  0  0  0  0  0999 V2000
   11.9944   -4.3565   -5.8931 O   0  0  0  0  0  0  0  0  0  0  0  0
   12.9178   -5.0584   -6.6622 C   0  0  0  0  0  0  0  0  0  0  0  0
   12.8673   -6.4348   -6.7500 C   0  0  0  0  0  0  0  0  0  0  0  0
   13.7785   -7.1452   -7.5106 C   0  0  0  0  0  0  0  0  0  0  0  0
   14.7779   -6.5061   -8.2145 C   0  0  0  0  0  0  0  0  0  0  0  0
   15.7611   -7.2679   -9.0350 C   0  0  0  0  0  0  0  0  0  0  0  0
   15.1426   -7.8006  -10.3108 C   0  0  2  0  0  0  0  0  0  0  0  0
   14.3789   -9.0082  -10.0336 N   0  0  0  0  0  0  0  0  0  0  0  0
   16.2514   -8.0519  -11.2454 C   0  0  0  0  0  0  0  0  0  0  0  0
   16.9192   -9.0912  -11.1319 O   0  0  0  0  0  0  0  0  0  0  0  0
   14.8256   -5.1302   -8.1246 C   0  0  0  0  0  0  0  0  0  0  0  0
   13.9167   -4.4175   -7.3656 C   0  0  0  0  0  0  0  0  0  0  0  0
   16.5367   -7.1201  -12.2451 N   0  0  0  0  0  0  0  0  0  0  0  0
   17.5457   -7.4347  -13.2699 C   0  0  1  0  0  0  0  0  0  0  0  0
   16.9303   -7.0381  -14.5868 C   0  0  0  0  0  0  0  0  0  0  0  0
   17.8973   -7.1765  -15.7090 C   0  0  0  0  0  0  0  0  0  0  0  0
   17.4433   -8.4054  -16.5138 C   0  0  0  0  0  0  0  0  0  0  0  0
   18.4361   -8.5698  -17.6464 C   0  0  0  0  0  0  0  0  0  0  0  0
   18.2078   -7.4810  -18.5804 N   0  0  0  0  0  0  0  0  0  0  0  0
   18.6818   -6.5372  -12.9740 C   0  0  0  0  0  0  0  0  0  0  0  0
   18.4430   -5.3415  -12.6904 O   0  0  0  0  0  0  0  0  0  0  0  0
   22.4239   -6.6441  -12.5651 C   0  0  0  0  0  0  0  0  0  0  0  0
   21.0842   -5.9841  -12.6602 C   0  0  2  0  0  0  0  0  0  0  0  0
   20.0499   -6.9353  -12.9873 N   0  0  0  0  0  0  0  0  0  0  0  0
   21.1477   -4.8711  -13.6437 C   0  0  0  0  0  0  0  0  0  0  0  0
   20.8832   -5.0308  -14.8610 O   0  0  0  0  0  0  0  0  0  0  0  0
   21.5101   -3.6082  -13.2146 O   0  0  0  0  0  0  0  0  0  0  0  0
  2  1  1  0
  3  2  2  0
  4  3  1  0
  5  4  2  0
  5 11  1  0
  6  5  1  0
  7  6  1  0
  7  9  1  0
  7  8  1  1
  9 13  1  0
 10  9  2  0
 11 12  2  0
 12  2  1  0
 13 14  1  0
 14 20  1  0
 14 15  1  6
 16 15  1  0
 17 18  1  0
 17 16  1  0
 19 18  1  0
 20 24  1  0
 21 20  2  0
 23 22  1  6
 23 25  1  0
 24 23  1  0
 25 26  2  0
 25 27  1  0
M  END
$$$$
