YKA.pdb
     RDKit          3D

 27 27  0  0  1  0  0  0  0  0999 V2000
   21.7449  -21.7981   -8.3857 O   0  0  0  0  0  0  0  0  0  0  0  0
   22.6551  -21.3070   -9.3168 C   0  0  0  0  0  0  0  0  0  0  0  0
   22.3645  -21.3165  -10.6659 C   0  0  0  0  0  0  0  0  0  0  0  0
   23.2598  -20.8317  -11.6023 C   0  0  0  0  0  0  0  0  0  0  0  0
   24.4830  -20.3173  -11.2258 C   0  0  0  0  0  0  0  0  0  0  0  0
   25.4499  -19.7939  -12.2316 C   0  0  0  0  0  0  0  0  0  0  0  0
   26.0558  -20.9032  -13.0660 C   0  0  2  0  0  0  0  0  0  0  0  0
   27.0129  -21.6624  -12.2748 N   0  0  0  0  0  0  0  0  0  0  0  0
   26.6888  -20.2602  -14.2287 C   0  0  0  0  0  0  0  0  0  0  0  0
   27.7619  -19.6556  -14.0805 O   0  0  0  0  0  0  0  0  0  0  0  0
   24.7704  -20.3091   -9.8765 C   0  0  0  0  0  0  0  0  0  0  0  0
   23.8781  -20.7929   -8.9384 C   0  0  0  0  0  0  0  0  0  0  0  0
   26.0753  -20.3385  -15.4803 N   0  0  0  0  0  0  0  0  0  0  0  0
   26.7918  -19.8641  -16.6756 C   0  0  1  0  0  0  0  0  0  0  0  0
   27.1855  -21.1035  -17.4367 C   0  0  0  0  0  0  0  0  0  0  0  0
   28.4792  -21.6571  -16.9537 C   0  0  0  0  0  0  0  0  0  0  0  0
   28.7560  -22.9035  -17.8103 C   0  0  0  0  0  0  0  0  0  0  0  0
   29.8308  -22.5135  -18.8044 C   0  0  0  0  0  0  0  0  0  0  0  0
   30.2102  -23.7178  -19.5227 N   0  0  0  0  0  0  0  0  0  0  0  0
   25.7820  -19.1161  -17.4531 C   0  0  0  0  0  0  0  0  0  0  0  0
   24.5794  -19.4476  -17.3494 O   0  0  0  0  0  0  0  0  0  0  0  0
   25.4981  -16.0845  -19.6606 C   0  0  0  0  0  0  0  0  0  0  0  0
   25.0123  -17.3458  -19.0182 C   0  0  2  0  0  0  0  0  0  0  0  0
   26.0777  -18.0291  -18.3257 N   0  0  0  0  0  0  0  0  0  0  0  0
   24.3711  -18.2102  -20.0438 C   0  0  0  0  0  0  0  0  0  0  0  0
   25.0120  -19.0698  -20.6976 O   0  0  0  0  0  0  0  0  0  0  0  0
   23.0192  -18.0724  -20.2964 O   0  0  0  0  0  0  0  0  0  0  0  0
  2  1  1  0
  3  2  2  0
  4  3  1  0
  5  4  2  0
  5 11  1  0
  6  5  1  0
  7  6  1  0
  7  9  1  0
  7  8  1  1
  9 13  1  0
 10  9  2  0
 11 12  2  0
 12  2  1  0
 13 14  1  0
 14 20  1  0
 14 15  1  6
 16 15  1  0
 17 18  1  0
 17 16  1  0
 19 18  1  0
 20 24  1  0
 21 20  2  0
 23 22  1  6
 23 25  1  0
 24 23  1  0
 25 26  2  0
 25 27  1  0
M  END
$$$$
