CHW.pdb
     RDKit          3D

 31 33  0  0  1  0  0  0  0  0999 V2000
   33.9380  -29.8661  -19.4043 N   0  0  0  0  0  0  0  0  0  0  0  0
   32.5595  -30.2195  -19.6026 C   0  0  1  0  0  0  0  0  0  0  0  0
   32.4071  -31.7426  -19.5829 C   0  0  0  0  0  0  0  0  0  0  0  0
   33.5498  -32.4647  -20.7866 S   0  0  0  0  0  0  0  0  0  0  0  0
   31.7563  -29.6835  -18.4668 C   0  0  0  0  0  0  0  0  0  0  0  0
   32.2859  -28.7850  -17.7569 O   0  0  0  0  0  0  0  0  0  0  0  0
   30.4361  -30.1785  -18.2063 N   0  0  0  0  0  0  0  0  0  0  0  0
   29.4769  -29.3166  -17.6022 C   0  0  1  0  0  0  0  0  0  0  0  0
   29.3378  -28.0264  -18.3444 C   0  0  0  0  0  0  0  0  0  0  0  0
   28.3637  -27.1380  -17.6836 C   0  0  0  0  0  0  0  0  0  0  0  0
   28.5822  -26.1366  -16.7595 C   0  0  0  0  0  0  0  0  0  0  0  0
   27.4033  -25.5843  -16.4312 N   0  0  0  0  0  0  0  0  0  0  0  0
   26.4533  -26.2188  -17.1300 C   0  0  0  0  0  0  0  0  0  0  0  0
   27.0182  -27.1539  -17.8856 N   0  0  0  0  0  0  0  0  0  0  0  0
   28.1642  -30.0170  -17.4346 C   0  0  0  0  0  0  0  0  0  0  0  0
   27.6372  -30.5413  -18.4347 O   0  0  0  0  0  0  0  0  0  0  0  0
   27.5295  -30.0872  -16.1775 N   0  0  0  0  0  0  0  0  0  0  0  0
   26.1970  -30.7234  -16.1227 C   0  0  1  0  0  0  0  0  0  0  0  0
   25.2925  -30.0873  -17.1165 C   0  0  0  0  0  0  0  0  0  0  0  0
   23.9104  -30.5675  -17.1858 C   0  0  0  0  0  0  0  0  0  0  0  0
   23.2267  -31.3380  -16.2302 C   0  0  0  0  0  0  0  0  0  0  0  0
   21.9880  -31.6166  -16.6679 N   0  0  0  0  0  0  0  0  0  0  0  0
   21.8159  -31.0583  -17.8844 C   0  0  0  0  0  0  0  0  0  0  0  0
   20.7535  -31.0158  -18.7657 C   0  0  0  0  0  0  0  0  0  0  0  0
   20.8769  -30.3301  -19.9551 C   0  0  0  0  0  0  0  0  0  0  0  0
   22.0325  -29.6737  -20.3109 C   0  0  0  0  0  0  0  0  0  0  0  0
   23.0778  -29.7274  -19.4237 C   0  0  0  0  0  0  0  0  0  0  0  0
   22.9966  -30.4122  -18.2058 C   0  0  0  0  0  0  0  0  0  0  0  0
   26.3880  -32.1616  -16.3008 C   0  0  0  0  0  0  0  0  0  0  0  0
   26.9187  -32.6930  -17.4817 O   0  0  0  0  0  0  0  0  0  0  0  0
   26.0946  -33.0093  -15.4222 O   0  0  0  0  0  0  0  0  0  0  0  0
  2  1  1  1
  2  3  1  0
  3  4  1  0
  5  2  1  0
  5  6  2  0
  7  5  1  0
  8  7  1  0
  8  9  1  6
 10  9  1  0
 11 10  2  0
 12 11  1  0
 13 12  1  0
 13 14  2  0
 14 10  1  0
 15 17  1  0
 15  8  1  0
 16 15  2  0
 18 17  1  0
 18 29  1  0
 18 19  1  6
 20 19  1  0
 21 20  2  0
 22 23  1  0
 22 21  1  0
 23 28  2  0
 24 25  2  0
 24 23  1  0
 25 26  1  0
 26 27  2  0
 28 27  1  0
 28 20  1  0
 29 30  1  0
 31 29  2  0
M  END
$$$$
