CHW.pdb
     RDKit          3D

 31 33  0  0  1  0  0  0  0  0999 V2000
   25.7178  -31.1309  -16.8147 N   0  0  0  0  0  0  0  0  0  0  0  0
   24.6424  -31.9760  -16.3745 C   0  0  1  0  0  0  0  0  0  0  0  0
   25.0000  -32.6105  -15.0280 C   0  0  0  0  0  0  0  0  0  0  0  0
   26.1453  -33.9835  -15.3092 S   0  0  0  0  0  0  0  0  0  0  0  0
   23.4290  -31.1379  -16.1562 C   0  0  0  0  0  0  0  0  0  0  0  0
   23.6029  -29.8985  -15.9969 O   0  0  0  0  0  0  0  0  0  0  0  0
   22.1241  -31.7316  -16.1327 N   0  0  0  0  0  0  0  0  0  0  0  0
   20.9823  -30.8950  -15.9764 C   0  0  1  0  0  0  0  0  0  0  0  0
   19.7525  -31.5113  -16.5616 C   0  0  0  0  0  0  0  0  0  0  0  0
   18.6175  -30.5707  -16.5191 C   0  0  0  0  0  0  0  0  0  0  0  0
   18.6267  -29.1964  -16.3936 C   0  0  0  0  0  0  0  0  0  0  0  0
   17.3602  -28.7511  -16.4045 N   0  0  0  0  0  0  0  0  0  0  0  0
   16.5601  -29.8171  -16.5341 C   0  0  0  0  0  0  0  0  0  0  0  0
   17.3039  -30.9154  -16.6039 N   0  0  0  0  0  0  0  0  0  0  0  0
   20.7955  -30.5138  -14.5405 C   0  0  0  0  0  0  0  0  0  0  0  0
   21.5722  -30.9925  -13.6916 O   0  0  0  0  0  0  0  0  0  0  0  0
   19.7666  -29.6339  -14.1467 N   0  0  0  0  0  0  0  0  0  0  0  0
   19.6623  -29.3091  -12.7090 C   0  0  1  0  0  0  0  0  0  0  0  0
   20.7434  -28.3632  -12.3254 C   0  0  0  0  0  0  0  0  0  0  0  0
   20.3523  -27.1021  -11.6911 C   0  0  0  0  0  0  0  0  0  0  0  0
   19.8096  -26.9261  -10.4071 C   0  0  0  0  0  0  0  0  0  0  0  0
   19.5421  -25.6268  -10.1972 N   0  0  0  0  0  0  0  0  0  0  0  0
   19.8879  -24.9240  -11.2961 C   0  0  0  0  0  0  0  0  0  0  0  0
   19.8459  -23.5806  -11.6137 C   0  0  0  0  0  0  0  0  0  0  0  0
   20.3018  -23.1524  -12.8421 C   0  0  0  0  0  0  0  0  0  0  0  0
   20.8064  -24.0190  -13.7840 C   0  0  0  0  0  0  0  0  0  0  0  0
   20.8395  -25.3499  -13.4516 C   0  0  0  0  0  0  0  0  0  0  0  0
   20.3868  -25.8285  -12.2169 C   0  0  0  0  0  0  0  0  0  0  0  0
   18.3063  -28.8210  -12.4649 C   0  0  0  0  0  0  0  0  0  0  0  0
   17.4719  -28.4117  -13.5113 O   0  0  0  0  0  0  0  0  0  0  0  0
   17.8012  -28.7351  -11.3186 O   0  0  0  0  0  0  0  0  0  0  0  0
  2  1  1  1
  2  3  1  0
  3  4  1  0
  5  2  1  0
  5  6  2  0
  7  5  1  0
  8  7  1  0
  8  9  1  1
 10  9  1  0
 11 10  2  0
 12 11  1  0
 13 12  1  0
 13 14  2  0
 14 10  1  0
 15 17  1  0
 15  8  1  0
 16 15  2  0
 18 17  1  0
 18 29  1  0
 18 19  1  6
 20 19  1  0
 21 20  2  0
 22 23  1  0
 22 21  1  0
 23 28  2  0
 24 25  2  0
 24 23  1  0
 25 26  1  0
 26 27  2  0
 28 27  1  0
 28 20  1  0
 29 30  1  0
 31 29  2  0
M  END
$$$$
