CHW.pdb
     RDKit          3D

 31 33  0  0  1  0  0  0  0  0999 V2000
   28.2679  -24.3962  -18.3475 N   0  0  0  0  0  0  0  0  0  0  0  0
   28.0170  -25.2867  -17.2482 C   0  0  1  0  0  0  0  0  0  0  0  0
   26.6080  -25.0483  -16.6994 C   0  0  0  0  0  0  0  0  0  0  0  0
   26.5930  -23.4961  -15.7685 S   0  0  0  0  0  0  0  0  0  0  0  0
   28.0623  -26.6913  -17.7457 C   0  0  0  0  0  0  0  0  0  0  0  0
   27.5432  -26.9233  -18.8719 O   0  0  0  0  0  0  0  0  0  0  0  0
   28.6762  -27.7249  -16.9643 N   0  0  0  0  0  0  0  0  0  0  0  0
   28.7645  -29.0416  -17.4995 C   0  0  1  0  0  0  0  0  0  0  0  0
   30.1203  -29.6381  -17.2979 C   0  0  0  0  0  0  0  0  0  0  0  0
   31.1005  -29.0520  -18.2309 C   0  0  0  0  0  0  0  0  0  0  0  0
   32.1507  -28.1957  -17.9696 C   0  0  0  0  0  0  0  0  0  0  0  0
   32.7835  -27.9209  -19.1213 N   0  0  0  0  0  0  0  0  0  0  0  0
   32.1517  -28.5868  -20.0963 C   0  0  0  0  0  0  0  0  0  0  0  0
   31.1392  -29.2696  -19.5735 N   0  0  0  0  0  0  0  0  0  0  0  0
   27.6764  -29.9120  -16.9513 C   0  0  0  0  0  0  0  0  0  0  0  0
   27.4998  -29.9386  -15.7181 O   0  0  0  0  0  0  0  0  0  0  0  0
   26.8643  -30.6888  -17.8028 N   0  0  0  0  0  0  0  0  0  0  0  0
   25.7270  -31.4063  -17.1901 C   0  0  1  0  0  0  0  0  0  0  0  0
   24.8727  -30.4496  -16.4382 C   0  0  0  0  0  0  0  0  0  0  0  0
   23.5960  -30.9416  -15.9150 C   0  0  0  0  0  0  0  0  0  0  0  0
   23.3856  -31.6873  -14.7429 C   0  0  0  0  0  0  0  0  0  0  0  0
   22.0825  -31.9881  -14.6193 N   0  0  0  0  0  0  0  0  0  0  0  0
   21.4104  -31.4687  -15.6680 C   0  0  0  0  0  0  0  0  0  0  0  0
   20.0774  -31.4610  -16.0291 C   0  0  0  0  0  0  0  0  0  0  0  0
   19.6828  -30.8113  -17.1791 C   0  0  0  0  0  0  0  0  0  0  0  0
   20.5736  -30.1578  -17.9991 C   0  0  0  0  0  0  0  0  0  0  0  0
   21.8937  -30.1768  -17.6251 C   0  0  0  0  0  0  0  0  0  0  0  0
   22.3385  -30.8243  -16.4668 C   0  0  0  0  0  0  0  0  0  0  0  0
   25.0402  -32.1343  -18.2553 C   0  0  0  0  0  0  0  0  0  0  0  0
   25.0015  -31.6535  -19.5690 O   0  0  0  0  0  0  0  0  0  0  0  0
   24.4455  -33.2248  -18.0715 O   0  0  0  0  0  0  0  0  0  0  0  0
  2  1  1  6
  2  3  1  0
  3  4  1  0
  5  2  1  0
  5  6  2  0
  7  5  1  0
  8  7  1  0
  8  9  1  1
 10  9  1  0
 11 10  2  0
 12 11  1  0
 13 12  1  0
 13 14  2  0
 14 10  1  0
 15 17  1  0
 15  8  1  0
 16 15  2  0
 18 17  1  0
 18 29  1  0
 18 19  1  6
 20 19  1  0
 21 20  2  0
 22 23  1  0
 22 21  1  0
 23 28  2  0
 24 25  2  0
 24 23  1  0
 25 26  1  0
 26 27  2  0
 28 27  1  0
 28 20  1  0
 29 30  1  0
 31 29  2  0
M  END
$$$$
