CHW.pdb
     RDKit          3D

 31 33  0  0  1  0  0  0  0  0999 V2000
   27.4628  -33.3978   -7.8104 N   0  0  0  0  0  0  0  0  0  0  0  0
   26.1900  -33.9939   -8.1090 C   0  0  1  0  0  0  0  0  0  0  0  0
   25.3707  -34.1370   -6.8238 C   0  0  0  0  0  0  0  0  0  0  0  0
   23.7044  -34.7031   -7.2472 S   0  0  0  0  0  0  0  0  0  0  0  0
   25.4317  -33.0835   -9.0138 C   0  0  0  0  0  0  0  0  0  0  0  0
   25.4466  -31.8520   -8.7403 O   0  0  0  0  0  0  0  0  0  0  0  0
   24.7209  -33.6024  -10.1457 N   0  0  0  0  0  0  0  0  0  0  0  0
   24.0907  -32.6966  -11.0459 C   0  0  1  0  0  0  0  0  0  0  0  0
   23.7706  -33.3413  -12.3560 C   0  0  0  0  0  0  0  0  0  0  0  0
   23.1921  -32.3657  -13.2987 C   0  0  0  0  0  0  0  0  0  0  0  0
   21.8666  -32.0856  -13.5611 C   0  0  0  0  0  0  0  0  0  0  0  0
   21.8031  -31.1207  -14.4925 N   0  0  0  0  0  0  0  0  0  0  0  0
   23.0599  -30.7920  -14.8176 C   0  0  0  0  0  0  0  0  0  0  0  0
   23.9028  -31.5331  -14.1070 N   0  0  0  0  0  0  0  0  0  0  0  0
   22.8860  -32.0712  -10.4139 C   0  0  0  0  0  0  0  0  0  0  0  0
   22.1562  -32.7796   -9.6938 O   0  0  0  0  0  0  0  0  0  0  0  0
   22.5746  -30.7120  -10.6227 N   0  0  0  0  0  0  0  0  0  0  0  0
   21.3995  -30.1663   -9.9123 C   0  0  1  0  0  0  0  0  0  0  0  0
   21.3673  -28.6865  -10.0522 C   0  0  0  0  0  0  0  0  0  0  0  0
   20.4770  -28.1169  -11.0663 C   0  0  0  0  0  0  0  0  0  0  0  0
   19.0955  -27.8861  -10.9552 C   0  0  0  0  0  0  0  0  0  0  0  0
   18.6197  -27.3905  -12.1091 N   0  0  0  0  0  0  0  0  0  0  0  0
   19.6349  -27.2794  -12.9913 C   0  0  0  0  0  0  0  0  0  0  0  0
   19.7141  -26.8223  -14.2921 C   0  0  0  0  0  0  0  0  0  0  0  0
   20.9297  -26.8123  -14.9420 C   0  0  0  0  0  0  0  0  0  0  0  0
   22.0898  -27.2453  -14.3422 C   0  0  0  0  0  0  0  0  0  0  0  0
   21.9919  -27.6970  -13.0502 C   0  0  0  0  0  0  0  0  0  0  0  0
   20.7788  -27.7253  -12.3529 C   0  0  0  0  0  0  0  0  0  0  0  0
   20.2164  -30.8558  -10.4237 C   0  0  0  0  0  0  0  0  0  0  0  0
   20.1887  -31.4183  -11.7048 O   0  0  0  0  0  0  0  0  0  0  0  0
   19.1579  -30.9904   -9.7619 O   0  0  0  0  0  0  0  0  0  0  0  0
  2  1  1  1
  2  3  1  0
  3  4  1  0
  5  2  1  0
  5  6  2  0
  7  5  1  0
  8  7  1  0
  8  9  1  6
 10  9  1  0
 11 10  2  0
 12 11  1  0
 13 12  1  0
 13 14  2  0
 14 10  1  0
 15 17  1  0
 15  8  1  0
 16 15  2  0
 18 17  1  0
 18 29  1  0
 18 19  1  6
 20 19  1  0
 21 20  2  0
 22 23  1  0
 22 21  1  0
 23 28  2  0
 24 25  2  0
 24 23  1  0
 25 26  1  0
 26 27  2  0
 28 27  1  0
 28 20  1  0
 29 30  1  0
 31 29  2  0
M  END
$$$$
