CHW.pdb
     RDKit          3D

 31 33  0  0  1  0  0  0  0  0999 V2000
   25.9133  -22.4313  -17.1311 N   0  0  0  0  0  0  0  0  0  0  0  0
   27.2925  -22.6818  -16.8152 C   0  0  1  0  0  0  0  0  0  0  0  0
   28.1757  -22.2855  -18.0010 C   0  0  0  0  0  0  0  0  0  0  0  0
   27.5794  -23.1286  -19.4876 S   0  0  0  0  0  0  0  0  0  0  0  0
   27.6881  -21.8188  -15.6657 C   0  0  0  0  0  0  0  0  0  0  0  0
   28.8957  -21.8566  -15.3026 O   0  0  0  0  0  0  0  0  0  0  0  0
   26.7233  -20.9841  -15.0113 N   0  0  0  0  0  0  0  0  0  0  0  0
   27.1282  -20.1957  -13.8967 C   0  0  1  0  0  0  0  0  0  0  0  0
   26.8158  -18.7470  -14.0928 C   0  0  0  0  0  0  0  0  0  0  0  0
   27.6130  -18.1781  -15.1953 C   0  0  0  0  0  0  0  0  0  0  0  0
   28.9740  -17.9615  -15.2672 C   0  0  0  0  0  0  0  0  0  0  0  0
   29.2658  -17.4265  -16.4635 N   0  0  0  0  0  0  0  0  0  0  0  0
   28.1168  -17.3042  -17.1405 C   0  0  0  0  0  0  0  0  0  0  0  0
   27.1174  -17.7524  -16.3889 N   0  0  0  0  0  0  0  0  0  0  0  0
   26.5457  -20.7330  -12.6262 C   0  0  0  0  0  0  0  0  0  0  0  0
   25.3301  -21.0052  -12.5971 O   0  0  0  0  0  0  0  0  0  0  0  0
   27.3461  -20.9297  -11.4822 N   0  0  0  0  0  0  0  0  0  0  0  0
   26.6640  -21.3396  -10.2371 C   0  0  1  0  0  0  0  0  0  0  0  0
   27.6577  -21.4809   -9.1402 C   0  0  0  0  0  0  0  0  0  0  0  0
   27.4112  -20.7447   -7.8981 C   0  0  0  0  0  0  0  0  0  0  0  0
   26.2245  -20.1002   -7.5103 C   0  0  0  0  0  0  0  0  0  0  0  0
   26.3974  -19.4984   -6.3222 N   0  0  0  0  0  0  0  0  0  0  0  0
   27.6597  -19.7179   -5.8981 C   0  0  0  0  0  0  0  0  0  0  0  0
   28.3542  -19.3537   -4.7614 C   0  0  0  0  0  0  0  0  0  0  0  0
   29.6622  -19.7570   -4.5989 C   0  0  0  0  0  0  0  0  0  0  0  0
   30.3199  -20.5205   -5.5356 C   0  0  0  0  0  0  0  0  0  0  0  0
   29.6147  -20.8721   -6.6589 C   0  0  0  0  0  0  0  0  0  0  0  0
   28.2859  -20.4843   -6.8653 C   0  0  0  0  0  0  0  0  0  0  0  0
   25.6000  -20.3713   -9.9786 C   0  0  0  0  0  0  0  0  0  0  0  0
   25.7628  -19.0084  -10.2516 O   0  0  0  0  0  0  0  0  0  0  0  0
   24.4826  -20.6871   -9.5010 O   0  0  0  0  0  0  0  0  0  0  0  0
  2  1  1  6
  2  3  1  0
  3  4  1  0
  5  2  1  0
  5  6  2  0
  7  5  1  0
  8  7  1  0
  8  9  1  6
 10  9  1  0
 11 10  2  0
 12 11  1  0
 13 12  1  0
 13 14  2  0
 14 10  1  0
 15 17  1  0
 15  8  1  0
 16 15  2  0
 18 17  1  0
 18 29  1  0
 18 19  1  1
 20 19  1  0
 21 20  2  0
 22 23  1  0
 22 21  1  0
 23 28  2  0
 24 25  2  0
 24 23  1  0
 25 26  1  0
 26 27  2  0
 28 27  1  0
 28 20  1  0
 29 30  1  0
 31 29  2  0
M  END
$$$$
