CHW.pdb
     RDKit          3D

 31 33  0  0  1  0  0  0  0  0999 V2000
   33.2224  -30.5567  -18.6467 N   0  0  0  0  0  0  0  0  0  0  0  0
   32.1773  -30.5864  -17.6611 C   0  0  1  0  0  0  0  0  0  0  0  0
   30.9417  -29.8567  -18.1941 C   0  0  0  0  0  0  0  0  0  0  0  0
   31.2326  -28.0719  -18.1176 S   0  0  0  0  0  0  0  0  0  0  0  0
   31.7808  -32.0034  -17.4216 C   0  0  0  0  0  0  0  0  0  0  0  0
   31.6769  -32.7536  -18.4306 O   0  0  0  0  0  0  0  0  0  0  0  0
   31.5328  -32.4791  -16.0919 N   0  0  0  0  0  0  0  0  0  0  0  0
   31.1221  -33.8293  -15.9018 C   0  0  1  0  0  0  0  0  0  0  0  0
   31.9495  -34.5261  -14.8701 C   0  0  0  0  0  0  0  0  0  0  0  0
   33.2224  -35.0002  -15.4442 C   0  0  0  0  0  0  0  0  0  0  0  0
   33.4366  -35.8904  -16.4768 C   0  0  0  0  0  0  0  0  0  0  0  0
   34.7589  -36.0257  -16.6658 N   0  0  0  0  0  0  0  0  0  0  0  0
   35.3754  -35.2397  -15.7739 C   0  0  0  0  0  0  0  0  0  0  0  0
   34.4628  -34.6188  -15.0348 N   0  0  0  0  0  0  0  0  0  0  0  0
   29.6581  -33.9012  -15.5958 C   0  0  0  0  0  0  0  0  0  0  0  0
   29.2384  -33.3486  -14.5608 O   0  0  0  0  0  0  0  0  0  0  0  0
   28.7656  -34.5771  -16.4529 N   0  0  0  0  0  0  0  0  0  0  0  0
   27.3423  -34.6180  -16.0577 C   0  0  1  0  0  0  0  0  0  0  0  0
   26.5018  -34.0347  -17.1365 C   0  0  0  0  0  0  0  0  0  0  0  0
   26.4548  -32.5751  -17.2501 C   0  0  0  0  0  0  0  0  0  0  0  0
   27.3077  -31.6441  -16.6336 C   0  0  0  0  0  0  0  0  0  0  0  0
   26.9241  -30.3953  -16.9451 N   0  0  0  0  0  0  0  0  0  0  0  0
   25.8433  -30.4559  -17.7509 C   0  0  0  0  0  0  0  0  0  0  0  0
   25.0680  -29.4952  -18.3700 C   0  0  0  0  0  0  0  0  0  0  0  0
   24.0137  -29.8775  -19.1715 C   0  0  0  0  0  0  0  0  0  0  0  0
   23.6925  -31.1979  -19.3867 C   0  0  0  0  0  0  0  0  0  0  0  0
   24.4729  -32.1385  -18.7629 C   0  0  0  0  0  0  0  0  0  0  0  0
   25.5521  -31.7953  -17.9405 C   0  0  0  0  0  0  0  0  0  0  0  0
   27.0211  -36.0012  -15.7111 C   0  0  0  0  0  0  0  0  0  0  0  0
   25.7662  -36.3612  -15.2070 O   0  0  0  0  0  0  0  0  0  0  0  0
   27.8340  -36.9496  -15.8383 O   0  0  0  0  0  0  0  0  0  0  0  0
  2  1  1  6
  2  3  1  0
  3  4  1  0
  5  2  1  0
  5  6  2  0
  7  5  1  0
  8  7  1  0
  8  9  1  1
 10  9  1  0
 11 10  2  0
 12 11  1  0
 13 12  1  0
 13 14  2  0
 14 10  1  0
 15 17  1  0
 15  8  1  0
 16 15  2  0
 18 17  1  0
 18 29  1  0
 18 19  1  6
 20 19  1  0
 21 20  2  0
 22 23  1  0
 22 21  1  0
 23 28  2  0
 24 25  2  0
 24 23  1  0
 25 26  1  0
 26 27  2  0
 28 27  1  0
 28 20  1  0
 29 30  1  0
 31 29  2  0
M  END
$$$$
