CHW.pdb
     RDKit          3D

 31 33  0  0  1  0  0  0  0  0999 V2000
   19.3116  -26.4718    6.2454 N   0  0  0  0  0  0  0  0  0  0  0  0
   18.4539  -25.4233    6.7245 C   0  0  1  0  0  0  0  0  0  0  0  0
   19.0903  -24.7496    7.9430 C   0  0  0  0  0  0  0  0  0  0  0  0
   18.8677  -25.8154    9.3889 S   0  0  0  0  0  0  0  0  0  0  0  0
   18.3262  -24.3828    5.6646 C   0  0  0  0  0  0  0  0  0  0  0  0
   19.3933  -23.9309    5.1659 O   0  0  0  0  0  0  0  0  0  0  0  0
   17.0353  -23.9262    5.2392 N   0  0  0  0  0  0  0  0  0  0  0  0
   16.9492  -22.9403    4.2152 C   0  0  1  0  0  0  0  0  0  0  0  0
   15.7578  -23.1484    3.3366 C   0  0  0  0  0  0  0  0  0  0  0  0
   15.7723  -22.2147    2.1953 C   0  0  0  0  0  0  0  0  0  0  0  0
   16.1923  -22.4278    0.8981 C   0  0  0  0  0  0  0  0  0  0  0  0
   16.0216  -21.2968    0.1953 N   0  0  0  0  0  0  0  0  0  0  0  0
   15.5040  -20.3818    1.0249 C   0  0  0  0  0  0  0  0  0  0  0  0
   15.3498  -20.9216    2.2288 N   0  0  0  0  0  0  0  0  0  0  0  0
   16.9872  -21.5623    4.7997 C   0  0  0  0  0  0  0  0  0  0  0  0
   16.5624  -21.3957    5.9593 O   0  0  0  0  0  0  0  0  0  0  0  0
   17.4900  -20.4704    4.0629 N   0  0  0  0  0  0  0  0  0  0  0  0
   17.5932  -19.1705    4.7579 C   0  0  1  0  0  0  0  0  0  0  0  0
   18.8479  -18.4814    4.3560 C   0  0  0  0  0  0  0  0  0  0  0  0
   18.7296  -17.2745    3.5345 C   0  0  0  0  0  0  0  0  0  0  0  0
   17.7310  -16.2887    3.6065 C   0  0  0  0  0  0  0  0  0  0  0  0
   17.9388  -15.3566    2.6621 N   0  0  0  0  0  0  0  0  0  0  0  0
   19.0437  -15.6822    1.9591 C   0  0  0  0  0  0  0  0  0  0  0  0
   19.7101  -15.0812    0.9093 C   0  0  0  0  0  0  0  0  0  0  0  0
   20.8553  -15.6587    0.4042 C   0  0  0  0  0  0  0  0  0  0  0  0
   21.3745  -16.8290    0.9080 C   0  0  0  0  0  0  0  0  0  0  0  0
   20.6988  -17.4125    1.9500 C   0  0  0  0  0  0  0  0  0  0  0  0
   19.5326  -16.8614    2.4932 C   0  0  0  0  0  0  0  0  0  0  0  0
   16.3680  -18.4236    4.4794 C   0  0  0  0  0  0  0  0  0  0  0  0
   15.5303  -18.7566    3.4089 O   0  0  0  0  0  0  0  0  0  0  0  0
   15.9856  -17.4462    5.1685 O   0  0  0  0  0  0  0  0  0  0  0  0
  2  1  1  6
  2  3  1  0
  3  4  1  0
  5  2  1  0
  5  6  2  0
  7  5  1  0
  8  7  1  0
  8  9  1  1
 10  9  1  0
 11 10  2  0
 12 11  1  0
 13 12  1  0
 13 14  2  0
 14 10  1  0
 15 17  1  0
 15  8  1  0
 16 15  2  0
 18 17  1  0
 18 29  1  0
 18 19  1  6
 20 19  1  0
 21 20  2  0
 22 23  1  0
 22 21  1  0
 23 28  2  0
 24 25  2  0
 24 23  1  0
 25 26  1  0
 26 27  2  0
 28 27  1  0
 28 20  1  0
 29 30  1  0
 31 29  2  0
M  END
$$$$
