CHW.pdb
     RDKit          3D

 31 33  0  0  1  0  0  0  0  0999 V2000
   28.3207  -18.4441  -15.3939 N   0  0  0  0  0  0  0  0  0  0  0  0
   27.8825  -19.7284  -14.9217 C   0  0  1  0  0  0  0  0  0  0  0  0
   29.0836  -20.5324  -14.4175 C   0  0  0  0  0  0  0  0  0  0  0  0
   29.6203  -19.8552  -12.8271 S   0  0  0  0  0  0  0  0  0  0  0  0
   26.9692  -19.5290  -13.7604 C   0  0  0  0  0  0  0  0  0  0  0  0
   26.9511  -18.3852  -13.2283 O   0  0  0  0  0  0  0  0  0  0  0  0
   26.1498  -20.6034  -13.2810 N   0  0  0  0  0  0  0  0  0  0  0  0
   25.2697  -20.3714  -12.1857 C   0  0  1  0  0  0  0  0  0  0  0  0
   23.8424  -20.6245  -12.5511 C   0  0  0  0  0  0  0  0  0  0  0  0
   23.3682  -19.6428  -13.5441 C   0  0  0  0  0  0  0  0  0  0  0  0
   23.3225  -19.7448  -14.9196 C   0  0  0  0  0  0  0  0  0  0  0  0
   22.8119  -18.6093  -15.4222 N   0  0  0  0  0  0  0  0  0  0  0  0
   22.5376  -17.8004  -14.3909 C   0  0  0  0  0  0  0  0  0  0  0  0
   22.8675  -18.4104  -13.2578 N   0  0  0  0  0  0  0  0  0  0  0  0
   25.6949  -21.1602  -10.9861 C   0  0  0  0  0  0  0  0  0  0  0  0
   26.2097  -22.2812  -11.1628 O   0  0  0  0  0  0  0  0  0  0  0  0
   25.5207  -20.6554   -9.6812 N   0  0  0  0  0  0  0  0  0  0  0  0
   25.9757  -21.5012   -8.5582 C   0  0  1  0  0  0  0  0  0  0  0  0
   27.4048  -21.2190   -8.2604 C   0  0  0  0  0  0  0  0  0  0  0  0
   27.7032  -20.1658   -7.2871 C   0  0  0  0  0  0  0  0  0  0  0  0
   27.3924  -18.7992   -7.3876 C   0  0  0  0  0  0  0  0  0  0  0  0
   27.8645  -18.1422   -6.3157 N   0  0  0  0  0  0  0  0  0  0  0  0
   28.4808  -19.0212   -5.4979 C   0  0  0  0  0  0  0  0  0  0  0  0
   29.1146  -18.8960   -4.2773 C   0  0  0  0  0  0  0  0  0  0  0  0
   29.6423  -20.0108   -3.6617 C   0  0  0  0  0  0  0  0  0  0  0  0
   29.5648  -21.2665   -4.2187 C   0  0  0  0  0  0  0  0  0  0  0  0
   28.9326  -21.3717   -5.4319 C   0  0  0  0  0  0  0  0  0  0  0  0
   28.3833  -20.2669   -6.0926 C   0  0  0  0  0  0  0  0  0  0  0  0
   25.0613  -21.2777   -7.4399 C   0  0  0  0  0  0  0  0  0  0  0  0
   23.9140  -20.4876   -7.5739 O   0  0  0  0  0  0  0  0  0  0  0  0
   25.2365  -21.7699   -6.2982 O   0  0  0  0  0  0  0  0  0  0  0  0
  2  1  1  1
  2  3  1  0
  3  4  1  0
  5  2  1  0
  5  6  2  0
  7  5  1  0
  8  7  1  0
  8  9  1  6
 10  9  1  0
 11 10  2  0
 12 11  1  0
 13 12  1  0
 13 14  2  0
 14 10  1  0
 15 17  1  0
 15  8  1  0
 16 15  2  0
 18 17  1  0
 18 29  1  0
 18 19  1  1
 20 19  1  0
 21 20  2  0
 22 23  1  0
 22 21  1  0
 23 28  2  0
 24 25  2  0
 24 23  1  0
 25 26  1  0
 26 27  2  0
 28 27  1  0
 28 20  1  0
 29 30  1  0
 31 29  2  0
M  END
$$$$
