CHW.pdb
     RDKit          3D

 31 33  0  0  1  0  0  0  0  0999 V2000
   27.9965  -18.8975  -16.5598 N   0  0  0  0  0  0  0  0  0  0  0  0
   27.7132  -20.0714  -15.7812 C   0  0  1  0  0  0  0  0  0  0  0  0
   29.0183  -20.7972  -15.4446 C   0  0  0  0  0  0  0  0  0  0  0  0
   28.6285  -22.3448  -14.5907 S   0  0  0  0  0  0  0  0  0  0  0  0
   27.0964  -19.6557  -14.4893 C   0  0  0  0  0  0  0  0  0  0  0  0
   27.6052  -18.6642  -13.8978 O   0  0  0  0  0  0  0  0  0  0  0  0
   25.9698  -20.3635  -13.9550 N   0  0  0  0  0  0  0  0  0  0  0  0
   25.4149  -19.9494  -12.7106 C   0  0  1  0  0  0  0  0  0  0  0  0
   23.9276  -19.8146  -12.7781 C   0  0  0  0  0  0  0  0  0  0  0  0
   23.5377  -18.6688  -13.6206 C   0  0  0  0  0  0  0  0  0  0  0  0
   24.3373  -17.7507  -14.2702 C   0  0  0  0  0  0  0  0  0  0  0  0
   23.5537  -16.8797  -14.9258 N   0  0  0  0  0  0  0  0  0  0  0  0
   22.2821  -17.2336  -14.6999 C   0  0  0  0  0  0  0  0  0  0  0  0
   22.2600  -18.3068  -13.9173 N   0  0  0  0  0  0  0  0  0  0  0  0
   25.8507  -20.8604  -11.6051 C   0  0  0  0  0  0  0  0  0  0  0  0
   26.1182  -22.0457  -11.8811 O   0  0  0  0  0  0  0  0  0  0  0  0
   25.9587  -20.3976  -10.2776 N   0  0  0  0  0  0  0  0  0  0  0  0
   26.1671  -21.4080   -9.2197 C   0  0  1  0  0  0  0  0  0  0  0  0
   27.5257  -21.2545   -8.6356 C   0  0  0  0  0  0  0  0  0  0  0  0
   27.7488  -20.1390   -7.7129 C   0  0  0  0  0  0  0  0  0  0  0  0
   27.2838  -18.8195   -7.8423 C   0  0  0  0  0  0  0  0  0  0  0  0
   27.7280  -18.0747   -6.8168 N   0  0  0  0  0  0  0  0  0  0  0  0
   28.4746  -18.8495   -6.0022 C   0  0  0  0  0  0  0  0  0  0  0  0
   29.1452  -18.6096   -4.8190 C   0  0  0  0  0  0  0  0  0  0  0  0
   29.8209  -19.6358   -4.1942 C   0  0  0  0  0  0  0  0  0  0  0  0
   29.8583  -20.9126   -4.7056 C   0  0  0  0  0  0  0  0  0  0  0  0
   29.1875  -21.1321   -5.8822 C   0  0  0  0  0  0  0  0  0  0  0  0
   28.4893  -20.1199   -6.5506 C   0  0  0  0  0  0  0  0  0  0  0  0
   25.0703  -21.2761   -8.2625 C   0  0  0  0  0  0  0  0  0  0  0  0
   23.9548  -20.4736   -8.5273 O   0  0  0  0  0  0  0  0  0  0  0  0
   25.0505  -21.8630   -7.1527 O   0  0  0  0  0  0  0  0  0  0  0  0
  2  1  1  6
  2  3  1  0
  3  4  1  0
  5  2  1  0
  5  6  2  0
  7  5  1  0
  8  7  1  0
  8  9  1  6
 10  9  1  0
 11 10  2  0
 12 11  1  0
 13 12  1  0
 13 14  2  0
 14 10  1  0
 15 17  1  0
 15  8  1  0
 16 15  2  0
 18 17  1  0
 18 29  1  0
 18 19  1  1
 20 19  1  0
 21 20  2  0
 22 23  1  0
 22 21  1  0
 23 28  2  0
 24 25  2  0
 24 23  1  0
 25 26  1  0
 26 27  2  0
 28 27  1  0
 28 20  1  0
 29 30  1  0
 31 29  2  0
M  END
$$$$
