CHW.pdb
     RDKit          3D

 31 33  0  0  1  0  0  0  0  0999 V2000
   27.9189  -20.6650  -17.2705 N   0  0  0  0  0  0  0  0  0  0  0  0
   27.8034  -21.5465  -16.1417 C   0  0  1  0  0  0  0  0  0  0  0  0
   29.1410  -22.2484  -15.8936 C   0  0  0  0  0  0  0  0  0  0  0  0
   29.2546  -23.6980  -16.9714 S   0  0  0  0  0  0  0  0  0  0  0  0
   27.5007  -20.7369  -14.9270 C   0  0  0  0  0  0  0  0  0  0  0  0
   28.3208  -19.8297  -14.6171 O   0  0  0  0  0  0  0  0  0  0  0  0
   26.3200  -20.9907  -14.1541 N   0  0  0  0  0  0  0  0  0  0  0  0
   26.0489  -20.1829  -13.0131 C   0  0  1  0  0  0  0  0  0  0  0  0
   24.8301  -19.3384  -13.2020 C   0  0  0  0  0  0  0  0  0  0  0  0
   25.0726  -18.2730  -14.1925 C   0  0  0  0  0  0  0  0  0  0  0  0
   25.9855  -17.2387  -14.1564 C   0  0  0  0  0  0  0  0  0  0  0  0
   25.8580  -16.5081  -15.2755 N   0  0  0  0  0  0  0  0  0  0  0  0
   24.8856  -17.0633  -16.0099 C   0  0  0  0  0  0  0  0  0  0  0  0
   24.4064  -18.1240  -15.3696 N   0  0  0  0  0  0  0  0  0  0  0  0
   25.9698  -21.0214  -11.7751 C   0  0  0  0  0  0  0  0  0  0  0  0
   25.3911  -22.1232  -11.8384 O   0  0  0  0  0  0  0  0  0  0  0  0
   26.5337  -20.5832  -10.5594 N   0  0  0  0  0  0  0  0  0  0  0  0
   26.4320  -21.4893   -9.3966 C   0  0  1  0  0  0  0  0  0  0  0  0
   27.6698  -21.4008   -8.5777 C   0  0  0  0  0  0  0  0  0  0  0  0
   27.7579  -20.3230   -7.5898 C   0  0  0  0  0  0  0  0  0  0  0  0
   27.1621  -19.0524   -7.6589 C   0  0  0  0  0  0  0  0  0  0  0  0
   27.5061  -18.3261   -6.5829 N   0  0  0  0  0  0  0  0  0  0  0  0
   28.3118  -19.0661   -5.7927 C   0  0  0  0  0  0  0  0  0  0  0  0
   28.9297  -18.8273   -4.5810 C   0  0  0  0  0  0  0  0  0  0  0  0
   29.6947  -19.8135   -3.9958 C   0  0  0  0  0  0  0  0  0  0  0  0
   29.8740  -21.0485   -4.5752 C   0  0  0  0  0  0  0  0  0  0  0  0
   29.2535  -21.2676   -5.7792 C   0  0  0  0  0  0  0  0  0  0  0  0
   28.4686  -20.2950   -6.4092 C   0  0  0  0  0  0  0  0  0  0  0  0
   25.2007  -21.1543   -8.6836 C   0  0  0  0  0  0  0  0  0  0  0  0
   24.6919  -21.9726   -7.6687 O   0  0  0  0  0  0  0  0  0  0  0  0
   24.5223  -20.1260   -8.9264 O   0  0  0  0  0  0  0  0  0  0  0  0
  2  1  1  6
  2  3  1  0
  3  4  1  0
  5  2  1  0
  5  6  2  0
  7  5  1  0
  8  7  1  0
  8  9  1  6
 10  9  1  0
 11 10  2  0
 12 11  1  0
 13 12  1  0
 13 14  2  0
 14 10  1  0
 15 17  1  0
 15  8  1  0
 16 15  2  0
 18 17  1  0
 18 29  1  0
 18 19  1  1
 20 19  1  0
 21 20  2  0
 22 23  1  0
 22 21  1  0
 23 28  2  0
 24 25  2  0
 24 23  1  0
 25 26  1  0
 26 27  2  0
 28 27  1  0
 28 20  1  0
 29 30  1  0
 31 29  2  0
M  END
$$$$
