CHW.pdb
     RDKit          3D

 31 33  0  0  1  0  0  0  0  0999 V2000
   20.5157  -19.4958  -15.1998 N   0  0  0  0  0  0  0  0  0  0  0  0
   21.5512  -19.2181  -14.2432 C   0  0  1  0  0  0  0  0  0  0  0  0
   21.0728  -19.5934  -12.8383 C   0  0  0  0  0  0  0  0  0  0  0  0
   20.3727  -18.1261  -12.0427 S   0  0  0  0  0  0  0  0  0  0  0  0
   22.7319  -20.0757  -14.5483 C   0  0  0  0  0  0  0  0  0  0  0  0
   22.5364  -21.3189  -14.6376 O   0  0  0  0  0  0  0  0  0  0  0  0
   24.0300  -19.4952  -14.7318 N   0  0  0  0  0  0  0  0  0  0  0  0
   25.1550  -20.3500  -14.9097 C   0  0  1  0  0  0  0  0  0  0  0  0
   26.2631  -19.6705  -15.6480 C   0  0  0  0  0  0  0  0  0  0  0  0
   27.3767  -20.6023  -15.9058 C   0  0  0  0  0  0  0  0  0  0  0  0
   27.4131  -21.7150  -16.7213 C   0  0  0  0  0  0  0  0  0  0  0  0
   28.6370  -22.2627  -16.6538 N   0  0  0  0  0  0  0  0  0  0  0  0
   29.3660  -21.5165  -15.8142 C   0  0  0  0  0  0  0  0  0  0  0  0
   28.6196  -20.5164  -15.3587 N   0  0  0  0  0  0  0  0  0  0  0  0
   25.6096  -20.9100  -13.5975 C   0  0  0  0  0  0  0  0  0  0  0  0
   26.7029  -21.5061  -13.5514 O   0  0  0  0  0  0  0  0  0  0  0  0
   24.8254  -20.7718  -12.4339 N   0  0  0  0  0  0  0  0  0  0  0  0
   25.4458  -21.1484  -11.1467 C   0  0  1  0  0  0  0  0  0  0  0  0
   26.6536  -20.3156  -10.9056 C   0  0  0  0  0  0  0  0  0  0  0  0
   27.1520  -20.2194   -9.5316 C   0  0  0  0  0  0  0  0  0  0  0  0
   26.4992  -19.6488   -8.4260 C   0  0  0  0  0  0  0  0  0  0  0  0
   27.2916  -19.7123   -7.3434 N   0  0  0  0  0  0  0  0  0  0  0  0
   28.4539  -20.3074   -7.6841 C   0  0  0  0  0  0  0  0  0  0  0  0
   29.5925  -20.6379   -6.9757 C   0  0  0  0  0  0  0  0  0  0  0  0
   30.6343  -21.2773   -7.6127 C   0  0  0  0  0  0  0  0  0  0  0  0
   30.5907  -21.6074   -8.9477 C   0  0  0  0  0  0  0  0  0  0  0  0
   29.4524  -21.2705   -9.6357 C   0  0  0  0  0  0  0  0  0  0  0  0
   28.3713  -20.6206   -9.0294 C   0  0  0  0  0  0  0  0  0  0  0  0
   24.4156  -21.0466  -10.1148 C   0  0  0  0  0  0  0  0  0  0  0  0
   23.2182  -20.3568  -10.3358 O   0  0  0  0  0  0  0  0  0  0  0  0
   24.5289  -21.5617   -8.9754 O   0  0  0  0  0  0  0  0  0  0  0  0
  2  1  1  6
  2  3  1  0
  3  4  1  0
  5  2  1  0
  5  6  2  0
  7  5  1  0
  8  7  1  0
  8  9  1  1
 10  9  1  0
 11 10  2  0
 12 11  1  0
 13 12  1  0
 13 14  2  0
 14 10  1  0
 15 17  1  0
 15  8  1  0
 16 15  2  0
 18 17  1  0
 18 29  1  0
 18 19  1  1
 20 19  1  0
 21 20  2  0
 22 23  1  0
 22 21  1  0
 23 28  2  0
 24 25  2  0
 24 23  1  0
 25 26  1  0
 26 27  2  0
 28 27  1  0
 28 20  1  0
 29 30  1  0
 31 29  2  0
M  END
$$$$
