CHW.pdb
     RDKit          3D

 31 33  0  0  1  0  0  0  0  0999 V2000
   30.2746  -20.7333  -18.7233 N   0  0  0  0  0  0  0  0  0  0  0  0
   29.3612  -21.6491  -18.0977 C   0  0  1  0  0  0  0  0  0  0  0  0
   30.1435  -22.7521  -17.3803 C   0  0  0  0  0  0  0  0  0  0  0  0
   28.9866  -23.7797  -16.4412 S   0  0  0  0  0  0  0  0  0  0  0  0
   28.5811  -20.9177  -17.0589 C   0  0  0  0  0  0  0  0  0  0  0  0
   29.2318  -20.3571  -16.1347 O   0  0  0  0  0  0  0  0  0  0  0  0
   27.1499  -20.8617  -17.1229 N   0  0  0  0  0  0  0  0  0  0  0  0
   26.4387  -20.1139  -16.1416 C   0  0  1  0  0  0  0  0  0  0  0  0
   25.3504  -19.2875  -16.7477 C   0  0  0  0  0  0  0  0  0  0  0  0
   24.7044  -18.4358  -15.7319 C   0  0  0  0  0  0  0  0  0  0  0  0
   25.0420  -18.2480  -14.4071 C   0  0  0  0  0  0  0  0  0  0  0  0
   24.1776  -17.3801  -13.8576 N   0  0  0  0  0  0  0  0  0  0  0  0
   23.3073  -17.0215  -14.8102 C   0  0  0  0  0  0  0  0  0  0  0  0
   23.6137  -17.6492  -15.9401 N   0  0  0  0  0  0  0  0  0  0  0  0
   25.9300  -21.0107  -15.0558 C   0  0  0  0  0  0  0  0  0  0  0  0
   25.4582  -22.1198  -15.3721 O   0  0  0  0  0  0  0  0  0  0  0  0
   25.9786  -20.6184  -13.7024 N   0  0  0  0  0  0  0  0  0  0  0  0
   25.4534  -21.5681  -12.6995 C   0  0  1  0  0  0  0  0  0  0  0  0
   26.4883  -21.8344  -11.6659 C   0  0  0  0  0  0  0  0  0  0  0  0
   26.4232  -21.0640  -10.4218 C   0  0  0  0  0  0  0  0  0  0  0  0
   25.3817  -20.2243   -9.9926 C   0  0  0  0  0  0  0  0  0  0  0  0
   25.7041  -19.6586   -8.8180 N   0  0  0  0  0  0  0  0  0  0  0  0
   26.9263  -20.0908   -8.4430 C   0  0  0  0  0  0  0  0  0  0  0  0
   27.7192  -19.8488   -7.3384 C   0  0  0  0  0  0  0  0  0  0  0  0
   28.9442  -20.4706   -7.2248 C   0  0  0  0  0  0  0  0  0  0  0  0
   29.4219  -21.3379   -8.1801 C   0  0  0  0  0  0  0  0  0  0  0  0
   28.6213  -21.5655   -9.2709 C   0  0  0  0  0  0  0  0  0  0  0  0
   27.3714  -20.9555   -9.4273 C   0  0  0  0  0  0  0  0  0  0  0  0
   24.2011  -21.0173  -12.1848 C   0  0  0  0  0  0  0  0  0  0  0  0
   23.8983  -19.6550  -12.2892 O   0  0  0  0  0  0  0  0  0  0  0  0
   23.3221  -21.7147  -11.6214 O   0  0  0  0  0  0  0  0  0  0  0  0
  2  1  1  1
  2  3  1  0
  3  4  1  0
  5  2  1  0
  5  6  2  0
  7  5  1  0
  8  7  1  0
  8  9  1  6
 10  9  1  0
 11 10  2  0
 12 11  1  0
 13 12  1  0
 13 14  2  0
 14 10  1  0
 15 17  1  0
 15  8  1  0
 16 15  2  0
 18 17  1  0
 18 29  1  0
 18 19  1  1
 20 19  1  0
 21 20  2  0
 22 23  1  0
 22 21  1  0
 23 28  2  0
 24 25  2  0
 24 23  1  0
 25 26  1  0
 26 27  2  0
 28 27  1  0
 28 20  1  0
 29 30  1  0
 31 29  2  0
M  END
$$$$
