CHW.pdb
     RDKit          3D

 31 33  0  0  1  0  0  0  0  0999 V2000
   27.0880  -20.4771  -16.5550 N   0  0  0  0  0  0  0  0  0  0  0  0
   26.6752  -19.2872  -15.8635 C   0  0  1  0  0  0  0  0  0  0  0  0
   27.2761  -18.0561  -16.5467 C   0  0  0  0  0  0  0  0  0  0  0  0
   29.0606  -18.2963  -16.7303 S   0  0  0  0  0  0  0  0  0  0  0  0
   25.1928  -19.1631  -15.9604 C   0  0  0  0  0  0  0  0  0  0  0  0
   24.6575  -18.1684  -15.3985 O   0  0  0  0  0  0  0  0  0  0  0  0
   24.4212  -20.1423  -16.6686 N   0  0  0  0  0  0  0  0  0  0  0  0
   23.0085  -19.9853  -16.7545 C   0  0  1  0  0  0  0  0  0  0  0  0
   22.5393  -19.9047  -18.1715 C   0  0  0  0  0  0  0  0  0  0  0  0
   22.9451  -18.6298  -18.7918 C   0  0  0  0  0  0  0  0  0  0  0  0
   22.3844  -17.3760  -18.6572 C   0  0  0  0  0  0  0  0  0  0  0  0
   23.0831  -16.5058  -19.4035 N   0  0  0  0  0  0  0  0  0  0  0  0
   24.0679  -17.1885  -20.0013 C   0  0  0  0  0  0  0  0  0  0  0  0
   23.9950  -18.4651  -19.6415 N   0  0  0  0  0  0  0  0  0  0  0  0
   22.3066  -21.0621  -15.9866 C   0  0  0  0  0  0  0  0  0  0  0  0
   22.5826  -22.2505  -16.2401 O   0  0  0  0  0  0  0  0  0  0  0  0
   21.3523  -20.7493  -14.9968 N   0  0  0  0  0  0  0  0  0  0  0  0
   20.9005  -21.8467  -14.1164 C   0  0  1  0  0  0  0  0  0  0  0  0
   22.0398  -22.3387  -13.2976 C   0  0  0  0  0  0  0  0  0  0  0  0
   22.5372  -21.4686  -12.2293 C   0  0  0  0  0  0  0  0  0  0  0  0
   21.7762  -20.7226  -11.3137 C   0  0  0  0  0  0  0  0  0  0  0  0
   22.5889  -20.0152  -10.5119 N   0  0  0  0  0  0  0  0  0  0  0  0
   23.8700  -20.2617  -10.8571 C   0  0  0  0  0  0  0  0  0  0  0  0
   25.0846  -19.8248  -10.3659 C   0  0  0  0  0  0  0  0  0  0  0  0
   26.2563  -20.2828  -10.9293 C   0  0  0  0  0  0  0  0  0  0  0  0
   26.2711  -21.1724  -11.9787 C   0  0  0  0  0  0  0  0  0  0  0  0
   25.0553  -21.5948  -12.4544 C   0  0  0  0  0  0  0  0  0  0  0  0
   23.8417  -21.1554  -11.9132 C   0  0  0  0  0  0  0  0  0  0  0  0
   19.7609  -21.3525  -13.3460 C   0  0  0  0  0  0  0  0  0  0  0  0
   18.9353  -22.2158  -12.6170 O   0  0  0  0  0  0  0  0  0  0  0  0
   19.4459  -20.1386  -13.2841 O   0  0  0  0  0  0  0  0  0  0  0  0
  2  1  1  6
  2  3  1  0
  3  4  1  0
  5  2  1  0
  5  6  2  0
  7  5  1  0
  8  7  1  0
  8  9  1  6
 10  9  1  0
 11 10  2  0
 12 11  1  0
 13 12  1  0
 13 14  2  0
 14 10  1  0
 15 17  1  0
 15  8  1  0
 16 15  2  0
 18 17  1  0
 18 29  1  0
 18 19  1  1
 20 19  1  0
 21 20  2  0
 22 23  1  0
 22 21  1  0
 23 28  2  0
 24 25  2  0
 24 23  1  0
 25 26  1  0
 26 27  2  0
 28 27  1  0
 28 20  1  0
 29 30  1  0
 31 29  2  0
M  END
$$$$
