CHW.pdb
     RDKit          3D

 31 33  0  0  1  0  0  0  0  0999 V2000
   29.1320  -21.5188  -18.2477 N   0  0  0  0  0  0  0  0  0  0  0  0
   27.8972  -21.5760  -17.5153 C   0  0  1  0  0  0  0  0  0  0  0  0
   27.9478  -22.7234  -16.5033 C   0  0  0  0  0  0  0  0  0  0  0  0
   29.1036  -22.2909  -15.1793 S   0  0  0  0  0  0  0  0  0  0  0  0
   27.7383  -20.3131  -16.7392 C   0  0  0  0  0  0  0  0  0  0  0  0
   28.3325  -19.2884  -17.1735 O   0  0  0  0  0  0  0  0  0  0  0  0
   26.9376  -20.2807  -15.5502 N   0  0  0  0  0  0  0  0  0  0  0  0
   25.7659  -19.4718  -15.5228 C   0  0  1  0  0  0  0  0  0  0  0  0
   24.8158  -19.8253  -16.6215 C   0  0  0  0  0  0  0  0  0  0  0  0
   25.0586  -18.9979  -17.8178 C   0  0  0  0  0  0  0  0  0  0  0  0
   25.7563  -17.8128  -17.9329 C   0  0  0  0  0  0  0  0  0  0  0  0
   25.7238  -17.4127  -19.2140 N   0  0  0  0  0  0  0  0  0  0  0  0
   25.0212  -18.3219  -19.9018 C   0  0  0  0  0  0  0  0  0  0  0  0
   24.6166  -19.2786  -19.0738 N   0  0  0  0  0  0  0  0  0  0  0  0
   25.1162  -19.5232  -14.1748 C   0  0  0  0  0  0  0  0  0  0  0  0
   24.0249  -18.9425  -14.0174 O   0  0  0  0  0  0  0  0  0  0  0  0
   25.7175  -20.2102  -13.1004 N   0  0  0  0  0  0  0  0  0  0  0  0
   24.9949  -21.3747  -12.5477 C   0  0  1  0  0  0  0  0  0  0  0  0
   25.8443  -22.0649  -11.5415 C   0  0  0  0  0  0  0  0  0  0  0  0
   26.1855  -21.3322  -10.3199 C   0  0  0  0  0  0  0  0  0  0  0  0
   25.3067  -20.6517   -9.4603 C   0  0  0  0  0  0  0  0  0  0  0  0
   25.9976  -20.0671   -8.4681 N   0  0  0  0  0  0  0  0  0  0  0  0
   27.3106  -20.3327   -8.6313 C   0  0  0  0  0  0  0  0  0  0  0  0
   28.4409  -20.0025   -7.9098 C   0  0  0  0  0  0  0  0  0  0  0  0
   29.6757  -20.4510   -8.3274 C   0  0  0  0  0  0  0  0  0  0  0  0
   29.8362  -21.2276   -9.4517 C   0  0  0  0  0  0  0  0  0  0  0  0
   28.7025  -21.5449  -10.1565 C   0  0  0  0  0  0  0  0  0  0  0  0
   27.4296  -21.1108   -9.7694 C   0  0  0  0  0  0  0  0  0  0  0  0
   23.7106  -20.8957  -12.0401 C   0  0  0  0  0  0  0  0  0  0  0  0
   22.6939  -21.7789  -11.6596 O   0  0  0  0  0  0  0  0  0  0  0  0
   23.4318  -19.6783  -11.9113 O   0  0  0  0  0  0  0  0  0  0  0  0
  2  1  1  1
  2  3  1  0
  3  4  1  0
  5  2  1  0
  5  6  2  0
  7  5  1  0
  8  7  1  0
  8  9  1  6
 10  9  1  0
 11 10  2  0
 12 11  1  0
 13 12  1  0
 13 14  2  0
 14 10  1  0
 15 17  1  0
 15  8  1  0
 16 15  2  0
 18 17  1  0
 18 29  1  0
 18 19  1  1
 20 19  1  0
 21 20  2  0
 22 23  1  0
 22 21  1  0
 23 28  2  0
 24 25  2  0
 24 23  1  0
 25 26  1  0
 26 27  2  0
 28 27  1  0
 28 20  1  0
 29 30  1  0
 31 29  2  0
M  END
$$$$
