CHW.pdb
     RDKit          3D

 31 33  0  0  1  0  0  0  0  0999 V2000
   26.6185  -19.1774  -16.2651 N   0  0  0  0  0  0  0  0  0  0  0  0
   27.3744  -19.4144  -15.0664 C   0  0  1  0  0  0  0  0  0  0  0  0
   28.0338  -18.1126  -14.6038 C   0  0  0  0  0  0  0  0  0  0  0  0
   27.4317  -17.7036  -12.9466 S   0  0  0  0  0  0  0  0  0  0  0  0
   26.4415  -19.8422  -13.9850 C   0  0  0  0  0  0  0  0  0  0  0  0
   25.4260  -19.1226  -13.7788 O   0  0  0  0  0  0  0  0  0  0  0  0
   26.7015  -21.0270  -13.2206 N   0  0  0  0  0  0  0  0  0  0  0  0
   25.7403  -21.4624  -12.2644 C   0  0  1  0  0  0  0  0  0  0  0  0
   25.4466  -22.9227  -12.3910 C   0  0  0  0  0  0  0  0  0  0  0  0
   24.6713  -23.2025  -13.6139 C   0  0  0  0  0  0  0  0  0  0  0  0
   24.2322  -22.3294  -14.5882 C   0  0  0  0  0  0  0  0  0  0  0  0
   23.5647  -23.0232  -15.5239 N   0  0  0  0  0  0  0  0  0  0  0  0
   23.5772  -24.3106  -15.1554 C   0  0  0  0  0  0  0  0  0  0  0  0
   24.2390  -24.4305  -14.0099 N   0  0  0  0  0  0  0  0  0  0  0  0
   26.1636  -21.0888  -10.8776 C   0  0  0  0  0  0  0  0  0  0  0  0
   27.3649  -21.2091  -10.5691 O   0  0  0  0  0  0  0  0  0  0  0  0
   25.2315  -20.6109   -9.9337 N   0  0  0  0  0  0  0  0  0  0  0  0
   25.6161  -20.6693   -8.5081 C   0  0  1  0  0  0  0  0  0  0  0  0
   26.1612  -19.3547   -8.0780 C   0  0  0  0  0  0  0  0  0  0  0  0
   27.5193  -19.3263   -7.5299 C   0  0  0  0  0  0  0  0  0  0  0  0
   28.7213  -19.1616   -8.2384 C   0  0  0  0  0  0  0  0  0  0  0  0
   29.7637  -19.2320   -7.3945 N   0  0  0  0  0  0  0  0  0  0  0  0
   29.3026  -19.4371   -6.1429 C   0  0  0  0  0  0  0  0  0  0  0  0
   29.9208  -19.5677   -4.9149 C   0  0  0  0  0  0  0  0  0  0  0  0
   29.1595  -19.7531   -3.7808 C   0  0  0  0  0  0  0  0  0  0  0  0
   27.7855  -19.8152   -3.8174 C   0  0  0  0  0  0  0  0  0  0  0  0
   27.1886  -19.6846   -5.0460 C   0  0  0  0  0  0  0  0  0  0  0  0
   27.9223  -19.4956   -6.2227 C   0  0  0  0  0  0  0  0  0  0  0  0
   24.4485  -21.1242   -7.7554 C   0  0  0  0  0  0  0  0  0  0  0  0
   23.2060  -21.3168   -8.3698 O   0  0  0  0  0  0  0  0  0  0  0  0
   24.4759  -21.3703   -6.5245 O   0  0  0  0  0  0  0  0  0  0  0  0
  2  1  1  6
  2  3  1  0
  3  4  1  0
  5  2  1  0
  5  6  2  0
  7  5  1  0
  8  7  1  0
  8  9  1  1
 10  9  1  0
 11 10  2  0
 12 11  1  0
 13 12  1  0
 13 14  2  0
 14 10  1  0
 15 17  1  0
 15  8  1  0
 16 15  2  0
 18 17  1  0
 18 29  1  0
 18 19  1  1
 20 19  1  0
 21 20  2  0
 22 23  1  0
 22 21  1  0
 23 28  2  0
 24 25  2  0
 24 23  1  0
 25 26  1  0
 26 27  2  0
 28 27  1  0
 28 20  1  0
 29 30  1  0
 31 29  2  0
M  END
$$$$
