CHW.pdb
     RDKit          3D

 31 33  0  0  1  0  0  0  0  0999 V2000
   29.8246  -22.1478  -18.0470 N   0  0  0  0  0  0  0  0  0  0  0  0
   28.4000  -22.2193  -17.8736 C   0  0  1  0  0  0  0  0  0  0  0  0
   27.9641  -23.6827  -17.7647 C   0  0  0  0  0  0  0  0  0  0  0  0
   27.9492  -24.4177  -19.4187 S   0  0  0  0  0  0  0  0  0  0  0  0
   28.0370  -21.5566  -16.5884 C   0  0  0  0  0  0  0  0  0  0  0  0
   28.8888  -21.5920  -15.6584 O   0  0  0  0  0  0  0  0  0  0  0  0
   26.7678  -20.9080  -16.4325 N   0  0  0  0  0  0  0  0  0  0  0  0
   26.5261  -20.1238  -15.2687 C   0  0  1  0  0  0  0  0  0  0  0  0
   26.0174  -18.7598  -15.6086 C   0  0  0  0  0  0  0  0  0  0  0  0
   27.0593  -17.9574  -16.2760 C   0  0  0  0  0  0  0  0  0  0  0  0
   28.1319  -17.2869  -15.7244 C   0  0  0  0  0  0  0  0  0  0  0  0
   28.8234  -16.6904  -16.7086 N   0  0  0  0  0  0  0  0  0  0  0  0
   28.2062  -16.9736  -17.8627 C   0  0  0  0  0  0  0  0  0  0  0  0
   27.1454  -17.7340  -17.6155 N   0  0  0  0  0  0  0  0  0  0  0  0
   25.6196  -20.8456  -14.3204 C   0  0  0  0  0  0  0  0  0  0  0  0
   24.7135  -21.5602  -14.7907 O   0  0  0  0  0  0  0  0  0  0  0  0
   25.7785  -20.7257  -12.9246 N   0  0  0  0  0  0  0  0  0  0  0  0
   24.9299  -21.5794  -12.0675 C   0  0  1  0  0  0  0  0  0  0  0  0
   25.7365  -22.1290  -10.9459 C   0  0  0  0  0  0  0  0  0  0  0  0
   26.1922  -21.1959   -9.9129 C   0  0  0  0  0  0  0  0  0  0  0  0
   25.4108  -20.2848   -9.1824 C   0  0  0  0  0  0  0  0  0  0  0  0
   26.1923  -19.5717   -8.3550 N   0  0  0  0  0  0  0  0  0  0  0  0
   27.4719  -19.9738   -8.5040 C   0  0  0  0  0  0  0  0  0  0  0  0
   28.6584  -19.6005   -7.9039 C   0  0  0  0  0  0  0  0  0  0  0  0
   29.8336  -20.2258   -8.2615 C   0  0  0  0  0  0  0  0  0  0  0  0
   29.8791  -21.2241   -9.2073 C   0  0  0  0  0  0  0  0  0  0  0  0
   28.6911  -21.5812   -9.7936 C   0  0  0  0  0  0  0  0  0  0  0  0
   27.4752  -20.9728   -9.4615 C   0  0  0  0  0  0  0  0  0  0  0  0
   23.7748  -20.7827  -11.6583 C   0  0  0  0  0  0  0  0  0  0  0  0
   22.6296  -21.3732  -11.1121 O   0  0  0  0  0  0  0  0  0  0  0  0
   23.7275  -19.5326  -11.7659 O   0  0  0  0  0  0  0  0  0  0  0  0
  2  1  1  1
  2  3  1  0
  3  4  1  0
  5  2  1  0
  5  6  2  0
  7  5  1  0
  8  7  1  0
  8  9  1  6
 10  9  1  0
 11 10  2  0
 12 11  1  0
 13 12  1  0
 13 14  2  0
 14 10  1  0
 15 17  1  0
 15  8  1  0
 16 15  2  0
 18 17  1  0
 18 29  1  0
 18 19  1  1
 20 19  1  0
 21 20  2  0
 22 23  1  0
 22 21  1  0
 23 28  2  0
 24 25  2  0
 24 23  1  0
 25 26  1  0
 26 27  2  0
 28 27  1  0
 28 20  1  0
 29 30  1  0
 31 29  2  0
M  END
$$$$
