CHW.pdb
     RDKit          3D

 31 33  0  0  1  0  0  0  0  0999 V2000
   27.2570  -22.7987  -17.8973 N   0  0  0  0  0  0  0  0  0  0  0  0
   26.2902  -22.4204  -16.9039 C   0  0  1  0  0  0  0  0  0  0  0  0
   25.5187  -23.6565  -16.4348 C   0  0  0  0  0  0  0  0  0  0  0  0
   26.6920  -24.9966  -16.1132 S   0  0  0  0  0  0  0  0  0  0  0  0
   27.0075  -21.8741  -15.7167 C   0  0  0  0  0  0  0  0  0  0  0  0
   28.2031  -21.5066  -15.8816 O   0  0  0  0  0  0  0  0  0  0  0  0
   26.3502  -21.7753  -14.4462 N   0  0  0  0  0  0  0  0  0  0  0  0
   26.6182  -20.6542  -13.6101 C   0  0  1  0  0  0  0  0  0  0  0  0
   26.1612  -19.3724  -14.2289 C   0  0  0  0  0  0  0  0  0  0  0  0
   27.2022  -18.8083  -15.1079 C   0  0  0  0  0  0  0  0  0  0  0  0
   27.1384  -18.5027  -16.4521 C   0  0  0  0  0  0  0  0  0  0  0  0
   28.3235  -18.0058  -16.8410 N   0  0  0  0  0  0  0  0  0  0  0  0
   29.1261  -17.9942  -15.7691 C   0  0  0  0  0  0  0  0  0  0  0  0
   28.4636  -18.4738  -14.7224 N   0  0  0  0  0  0  0  0  0  0  0  0
   26.0409  -20.8602  -12.2440 C   0  0  0  0  0  0  0  0  0  0  0  0
   24.8381  -21.1711  -12.1467 O   0  0  0  0  0  0  0  0  0  0  0  0
   26.8317  -20.7078  -11.0867 N   0  0  0  0  0  0  0  0  0  0  0  0
   26.2350  -21.1122   -9.7968 C   0  0  1  0  0  0  0  0  0  0  0  0
   27.2943  -21.2060   -8.7578 C   0  0  0  0  0  0  0  0  0  0  0  0
   26.9302  -20.8655   -7.3804 C   0  0  0  0  0  0  0  0  0  0  0  0
   25.6961  -21.0854   -6.7457 C   0  0  0  0  0  0  0  0  0  0  0  0
   25.7318  -20.5994   -5.4942 N   0  0  0  0  0  0  0  0  0  0  0  0
   26.9484  -20.0617   -5.2663 C   0  0  0  0  0  0  0  0  0  0  0  0
   27.5246  -19.4523   -4.1691 C   0  0  0  0  0  0  0  0  0  0  0  0
   28.8294  -19.0129   -4.2358 C   0  0  0  0  0  0  0  0  0  0  0  0
   29.5985  -19.1566   -5.3676 C   0  0  0  0  0  0  0  0  0  0  0  0
   29.0094  -19.7633   -6.4481 C   0  0  0  0  0  0  0  0  0  0  0  0
   27.6880  -20.2238   -6.4246 C   0  0  0  0  0  0  0  0  0  0  0  0
   25.1611  -20.1683   -9.4932 C   0  0  0  0  0  0  0  0  0  0  0  0
   23.9963  -20.5676   -8.8281 O   0  0  0  0  0  0  0  0  0  0  0  0
   25.2054  -18.9521   -9.8021 O   0  0  0  0  0  0  0  0  0  0  0  0
  2  1  1  6
  2  3  1  0
  3  4  1  0
  5  2  1  0
  5  6  2  0
  7  5  1  0
  8  7  1  0
  8  9  1  6
 10  9  1  0
 11 10  2  0
 12 11  1  0
 13 12  1  0
 13 14  2  0
 14 10  1  0
 15 17  1  0
 15  8  1  0
 16 15  2  0
 18 17  1  0
 18 29  1  0
 18 19  1  1
 20 19  1  0
 21 20  2  0
 22 23  1  0
 22 21  1  0
 23 28  2  0
 24 25  2  0
 24 23  1  0
 25 26  1  0
 26 27  2  0
 28 27  1  0
 28 20  1  0
 29 30  1  0
 31 29  2  0
M  END
$$$$
