AQL.pdb
     RDKit          3D

 23 22  0  0  1  0  0  0  0  0999 V2000
   20.7818  -10.9826  -16.1165 C   0  0  0  0  0  0  0  0  0  0  0  0
   19.2848  -11.1193  -16.2859 C   0  0  2  0  0  0  0  0  0  0  0  0
   19.0388  -11.5053  -17.6586 N   0  0  0  0  0  0  0  0  0  0  0  0
   18.6516   -9.8215  -15.9492 C   0  0  0  0  0  0  0  0  0  0  0  0
   18.7651   -8.7960  -16.6713 O   0  0  0  0  0  0  0  0  0  0  0  0
   14.4062   -9.6889  -11.4021 N   0  0  0  0  0  0  0  0  0  0  0  0
   14.0696   -9.9836  -12.7742 C   0  0  0  0  0  0  0  0  0  0  0  0
   12.9598  -10.5057  -13.0112 O   0  0  0  0  0  0  0  0  0  0  0  0
   15.0234   -9.6702  -13.8619 C   0  0  0  0  0  0  0  0  0  0  0  0
   16.1919   -8.9442  -13.2778 C   0  0  0  0  0  0  0  0  0  0  0  0
   17.2085   -8.5440  -14.3239 C   0  0  2  0  0  0  0  0  0  0  0  0
   17.8865   -9.7193  -14.7711 N   0  0  0  0  0  0  0  0  0  0  0  0
   18.1046   -7.5202  -13.7535 C   0  0  0  0  0  0  0  0  0  0  0  0
   18.9534   -7.8656  -12.8908 O   0  0  0  0  0  0  0  0  0  0  0  0
   21.8875   -3.7521  -14.8034 C   0  0  0  0  0  0  0  0  0  0  0  0
   21.6547   -4.9340  -13.9058 C   0  0  2  0  0  0  0  0  0  0  0  0
   22.9257   -5.6937  -13.7200 C   0  0  0  0  0  0  0  0  0  0  0  0
   20.4335   -5.7100  -14.1588 C   0  0  0  0  0  0  0  0  0  0  0  0
   19.1241   -5.1960  -13.7062 C   0  0  2  0  0  0  0  0  0  0  0  0
   18.0735   -6.1484  -14.1182 N   0  0  0  0  0  0  0  0  0  0  0  0
   18.7021   -3.8805  -14.1882 C   0  0  0  0  0  0  0  0  0  0  0  0
   19.0130   -2.6536  -13.6265 O   0  0  0  0  0  0  0  0  0  0  0  0
   17.9640   -3.8009  -15.2330 O   0  0  0  0  0  0  0  0  0  0  0  0
  2  1  1  6
  2  3  1  0
  4  2  1  0
  5  4  2  0
  6  7  1  0
  7  8  2  0
  7  9  1  0
  9 10  1  0
 11 10  1  1
 11 13  1  0
 11 12  1  0
 12  4  1  0
 13 20  1  0
 14 13  2  0
 16 15  1  6
 17 16  1  0
 18 16  1  0
 19 18  1  6
 19 21  1  0
 20 19  1  0
 21 22  1  0
 23 21  2  0
M  END
$$$$
