AQL.pdb
     RDKit          3D

 23 22  0  0  1  0  0  0  0  0999 V2000
   16.1891  -13.8311  -18.9232 C   0  0  0  0  0  0  0  0  0  0  0  0
   16.7133  -13.3718  -17.5806 C   0  0  2  0  0  0  0  0  0  0  0  0
   15.5909  -13.3355  -16.6680 N   0  0  0  0  0  0  0  0  0  0  0  0
   17.3382  -12.0378  -17.7497 C   0  0  0  0  0  0  0  0  0  0  0  0
   18.4178  -11.8611  -18.3737 O   0  0  0  0  0  0  0  0  0  0  0  0
   13.4939   -9.7001  -17.4890 N   0  0  0  0  0  0  0  0  0  0  0  0
   14.0174   -9.1693  -18.7247 C   0  0  0  0  0  0  0  0  0  0  0  0
   13.2811   -9.1855  -19.7336 O   0  0  0  0  0  0  0  0  0  0  0  0
   15.3921   -8.6232  -18.7809 C   0  0  0  0  0  0  0  0  0  0  0  0
   15.9722   -8.6475  -17.4037 C   0  0  0  0  0  0  0  0  0  0  0  0
   17.1707   -9.5637  -17.2948 C   0  0  2  0  0  0  0  0  0  0  0  0
   16.7050  -10.9103  -17.1916 N   0  0  0  0  0  0  0  0  0  0  0  0
   18.0013   -9.1318  -16.1546 C   0  0  0  0  0  0  0  0  0  0  0  0
   17.5845   -9.3367  -14.9849 O   0  0  0  0  0  0  0  0  0  0  0  0
   22.8362   -7.7510  -13.7475 C   0  0  0  0  0  0  0  0  0  0  0  0
   22.1603   -9.0806  -13.9262 C   0  0  2  0  0  0  0  0  0  0  0  0
   23.1604  -10.1825  -13.8127 C   0  0  0  0  0  0  0  0  0  0  0  0
   21.1784   -9.1678  -15.0151 C   0  0  0  0  0  0  0  0  0  0  0  0
   20.1075   -8.1558  -15.1275 C   0  0  2  0  0  0  0  0  0  0  0  0
   19.2604   -8.4898  -16.2901 N   0  0  0  0  0  0  0  0  0  0  0  0
   20.5033   -6.7568  -15.2925 C   0  0  0  0  0  0  0  0  0  0  0  0
   20.7308   -5.8359  -14.2837 O   0  0  0  0  0  0  0  0  0  0  0  0
   20.6660   -6.2845  -16.4727 O   0  0  0  0  0  0  0  0  0  0  0  0
  2  1  1  6
  2  3  1  0
  4  2  1  0
  5  4  2  0
  6  7  1  0
  7  8  2  0
  7  9  1  0
  9 10  1  0
 11 10  1  1
 11 13  1  0
 11 12  1  0
 12  4  1  0
 13 20  1  0
 14 13  2  0
 16 15  1  6
 17 16  1  0
 18 16  1  0
 19 18  1  6
 19 21  1  0
 20 19  1  0
 21 22  1  0
 23 21  2  0
M  END
$$$$
