AQL.pdb
     RDKit          3D

 23 22  0  0  1  0  0  0  0  0999 V2000
   23.2328  -13.6688  -22.5962 C   0  0  0  0  0  0  0  0  0  0  0  0
   22.8438  -13.7402  -21.1361 C   0  0  2  0  0  0  0  0  0  0  0  0
   21.5457  -14.3756  -21.0654 N   0  0  0  0  0  0  0  0  0  0  0  0
   22.8218  -12.3634  -20.5861 C   0  0  0  0  0  0  0  0  0  0  0  0
   23.8678  -11.7021  -20.3526 O   0  0  0  0  0  0  0  0  0  0  0  0
   17.3905   -9.3240  -20.4128 N   0  0  0  0  0  0  0  0  0  0  0  0
   18.2665   -8.3110  -19.8752 C   0  0  0  0  0  0  0  0  0  0  0  0
   17.7865   -7.1839  -19.6309 O   0  0  0  0  0  0  0  0  0  0  0  0
   19.6938   -8.6131  -19.6247 C   0  0  0  0  0  0  0  0  0  0  0  0
   19.9572  -10.0315  -20.0150 C   0  0  0  0  0  0  0  0  0  0  0  0
   21.4007  -10.4324  -19.8064 C   0  0  2  0  0  0  0  0  0  0  0  0
   21.5809  -11.7577  -20.3085 N   0  0  0  0  0  0  0  0  0  0  0  0
   21.7363  -10.2863  -18.3772 C   0  0  0  0  0  0  0  0  0  0  0  0
   21.4849  -11.2371  -17.5919 O   0  0  0  0  0  0  0  0  0  0  0  0
   26.4064  -10.2126  -15.3042 C   0  0  0  0  0  0  0  0  0  0  0  0
   24.9668   -9.8013  -15.1809 C   0  0  2  0  0  0  0  0  0  0  0  0
   24.3209  -10.5313  -14.0508 C   0  0  0  0  0  0  0  0  0  0  0  0
   24.2128   -9.6954  -16.4369 C   0  0  0  0  0  0  0  0  0  0  0  0
   22.8631   -9.0937  -16.4403 C   0  0  2  0  0  0  0  0  0  0  0  0
   22.3338   -9.1258  -17.8185 N   0  0  0  0  0  0  0  0  0  0  0  0
   22.7292   -7.7120  -15.9778 C   0  0  0  0  0  0  0  0  0  0  0  0
   22.5966   -7.2865  -14.6668 O   0  0  0  0  0  0  0  0  0  0  0  0
   22.7249   -6.7596  -16.8355 O   0  0  0  0  0  0  0  0  0  0  0  0
  2  1  1  6
  2  3  1  0
  4  2  1  0
  5  4  2  0
  6  7  1  0
  7  8  2  0
  7  9  1  0
  9 10  1  0
 11 10  1  1
 11 13  1  0
 11 12  1  0
 12  4  1  0
 13 20  1  0
 14 13  2  0
 16 15  1  6
 17 16  1  0
 18 16  1  0
 19 18  1  6
 19 21  1  0
 20 19  1  0
 21 22  1  0
 23 21  2  0
M  END
$$$$
