AQL.pdb
     RDKit          3D

 23 22  0  0  1  0  0  0  0  0999 V2000
   28.3733  -18.3600  -14.4606 C   0  0  0  0  0  0  0  0  0  0  0  0
   28.0637  -19.7428  -13.9311 C   0  0  2  0  0  0  0  0  0  0  0  0
   29.0675  -20.6420  -14.4580 N   0  0  0  0  0  0  0  0  0  0  0  0
   26.6960  -20.1181  -14.3637 C   0  0  0  0  0  0  0  0  0  0  0  0
   26.4322  -20.5230  -15.5267 O   0  0  0  0  0  0  0  0  0  0  0  0
   25.1051  -24.3039  -13.1956 N   0  0  0  0  0  0  0  0  0  0  0  0
   24.1261  -23.2682  -12.9685 C   0  0  0  0  0  0  0  0  0  0  0  0
   23.0833  -23.2799  -13.6562 O   0  0  0  0  0  0  0  0  0  0  0  0
   24.3640  -22.2260  -11.9447 C   0  0  0  0  0  0  0  0  0  0  0  0
   23.7077  -20.9596  -12.3910 C   0  0  0  0  0  0  0  0  0  0  0  0
   24.2885  -20.4289  -13.6828 C   0  0  2  0  0  0  0  0  0  0  0  0
   25.6364  -20.0215  -13.4410 N   0  0  0  0  0  0  0  0  0  0  0  0
   23.4214  -19.3480  -14.1891 C   0  0  0  0  0  0  0  0  0  0  0  0
   23.3341  -18.2784  -13.5316 O   0  0  0  0  0  0  0  0  0  0  0  0
   22.0096  -15.2566  -16.8537 C   0  0  0  0  0  0  0  0  0  0  0  0
   22.2560  -16.4681  -17.7070 C   0  0  2  0  0  0  0  0  0  0  0  0
   21.1364  -16.6467  -18.6776 C   0  0  0  0  0  0  0  0  0  0  0  0
   22.7433  -17.6649  -17.0088 C   0  0  0  0  0  0  0  0  0  0  0  0
   21.9272  -18.2824  -15.9428 C   0  0  2  0  0  0  0  0  0  0  0  0
   22.6661  -19.4345  -15.3881 N   0  0  0  0  0  0  0  0  0  0  0  0
   20.5971  -18.7769  -16.2995 C   0  0  0  0  0  0  0  0  0  0  0  0
   20.2925  -20.0092  -16.8529 O   0  0  0  0  0  0  0  0  0  0  0  0
   19.5749  -18.0294  -16.1027 O   0  0  0  0  0  0  0  0  0  0  0  0
  2  1  1  6
  2  3  1  0
  4  2  1  0
  5  4  2  0
  6  7  1  0
  7  8  2  0
  7  9  1  0
  9 10  1  0
 11 10  1  1
 11 13  1  0
 11 12  1  0
 12  4  1  0
 13 20  1  0
 14 13  2  0
 16 15  1  1
 17 16  1  0
 18 16  1  0
 19 18  1  6
 19 21  1  0
 20 19  1  0
 21 22  1  0
 23 21  2  0
M  END
$$$$
