AQL.pdb
     RDKit          3D

 23 22  0  0  1  0  0  0  0  0999 V2000
   16.2270  -14.4986  -14.8026 C   0  0  0  0  0  0  0  0  0  0  0  0
   15.7627  -13.8370  -16.0813 C   0  0  2  0  0  0  0  0  0  0  0  0
   15.6288  -14.8748  -17.0808 N   0  0  0  0  0  0  0  0  0  0  0  0
   16.7609  -12.8122  -16.4713 C   0  0  0  0  0  0  0  0  0  0  0  0
   17.9412  -13.0975  -16.8051 O   0  0  0  0  0  0  0  0  0  0  0  0
   15.0374   -8.1451  -19.3234 N   0  0  0  0  0  0  0  0  0  0  0  0
   16.3023   -7.5462  -18.9712 C   0  0  0  0  0  0  0  0  0  0  0  0
   16.7310   -6.6112  -19.6799 O   0  0  0  0  0  0  0  0  0  0  0  0
   17.0611   -8.0368  -17.7987 C   0  0  0  0  0  0  0  0  0  0  0  0
   16.3136   -9.1790  -17.1901 C   0  0  0  0  0  0  0  0  0  0  0  0
   17.2034  -10.3681  -16.9037 C   0  0  2  0  0  0  0  0  0  0  0  0
   16.3831  -11.4554  -16.4721 N   0  0  0  0  0  0  0  0  0  0  0  0
   18.2312   -9.9715  -15.9224 C   0  0  0  0  0  0  0  0  0  0  0  0
   17.9516  -10.0141  -14.6961 O   0  0  0  0  0  0  0  0  0  0  0  0
   22.8298  -11.1659  -13.6906 C   0  0  0  0  0  0  0  0  0  0  0  0
   22.9064  -10.0058  -14.6420 C   0  0  2  0  0  0  0  0  0  0  0  0
   23.2926   -8.7657  -13.9070 C   0  0  0  0  0  0  0  0  0  0  0  0
   21.8191   -9.8994  -15.6237 C   0  0  0  0  0  0  0  0  0  0  0  0
   20.5617   -9.2122  -15.2625 C   0  0  2  0  0  0  0  0  0  0  0  0
   19.5365   -9.5378  -16.2743 N   0  0  0  0  0  0  0  0  0  0  0  0
   20.5867   -7.7532  -15.1536 C   0  0  0  0  0  0  0  0  0  0  0  0
   20.8646   -7.0121  -14.0174 O   0  0  0  0  0  0  0  0  0  0  0  0
   20.3279   -7.0412  -16.1873 O   0  0  0  0  0  0  0  0  0  0  0  0
  2  1  1  1
  2  3  1  0
  4  2  1  0
  5  4  2  0
  6  7  1  0
  7  8  2  0
  7  9  1  0
  9 10  1  0
 11 10  1  1
 11 13  1  0
 11 12  1  0
 12  4  1  0
 13 20  1  0
 14 13  2  0
 16 15  1  1
 17 16  1  0
 18 16  1  0
 19 18  1  6
 19 21  1  0
 20 19  1  0
 21 22  1  0
 23 21  2  0
M  END
$$$$
