AQL.pdb
     RDKit          3D

 23 22  0  0  1  0  0  0  0  0999 V2000
   27.2806  -21.5503  -18.0245 C   0  0  0  0  0  0  0  0  0  0  0  0
   27.7877  -21.6395  -16.6021 C   0  0  2  0  0  0  0  0  0  0  0  0
   28.5554  -22.8611  -16.4928 N   0  0  0  0  0  0  0  0  0  0  0  0
   26.6229  -21.6285  -15.6847 C   0  0  0  0  0  0  0  0  0  0  0  0
   25.7616  -22.5470  -15.6598 O   0  0  0  0  0  0  0  0  0  0  0  0
   25.8772  -22.8540  -11.2165 N   0  0  0  0  0  0  0  0  0  0  0  0
   25.8273  -21.4277  -11.0020 C   0  0  0  0  0  0  0  0  0  0  0  0
   24.9940  -20.9820  -10.1850 O   0  0  0  0  0  0  0  0  0  0  0  0
   26.7449  -20.5285  -11.7372 C   0  0  0  0  0  0  0  0  0  0  0  0
   25.9358  -19.6582  -12.6437 C   0  0  0  0  0  0  0  0  0  0  0  0
   25.4050  -20.4072  -13.8458 C   0  0  2  0  0  0  0  0  0  0  0  0
   26.4621  -20.5473  -14.7966 N   0  0  0  0  0  0  0  0  0  0  0  0
   24.2234  -19.6957  -14.3696 C   0  0  0  0  0  0  0  0  0  0  0  0
   24.3947  -18.7040  -15.1253 O   0  0  0  0  0  0  0  0  0  0  0  0
   20.5724  -19.3643  -17.6378 C   0  0  0  0  0  0  0  0  0  0  0  0
   21.5283  -20.5212  -17.5694 C   0  0  2  0  0  0  0  0  0  0  0  0
   20.8853  -21.7498  -18.1212 C   0  0  0  0  0  0  0  0  0  0  0  0
   22.2913  -20.6592  -16.3219 C   0  0  0  0  0  0  0  0  0  0  0  0
   21.8084  -20.0113  -15.0846 C   0  0  2  0  0  0  0  0  0  0  0  0
   22.8836  -20.0605  -14.0736 N   0  0  0  0  0  0  0  0  0  0  0  0
   20.6137  -20.5633  -14.4451 C   0  0  0  0  0  0  0  0  0  0  0  0
   20.5025  -21.7939  -13.8199 O   0  0  0  0  0  0  0  0  0  0  0  0
   19.5306  -19.8782  -14.4387 O   0  0  0  0  0  0  0  0  0  0  0  0
  2  1  1  6
  2  3  1  0
  4  2  1  0
  5  4  2  0
  6  7  1  0
  7  8  2  0
  7  9  1  0
  9 10  1  0
 11 10  1  1
 11 13  1  0
 11 12  1  0
 12  4  1  0
 13 20  1  0
 14 13  2  0
 16 15  1  1
 17 16  1  0
 18 16  1  0
 19 18  1  6
 19 21  1  0
 20 19  1  0
 21 22  1  0
 23 21  2  0
M  END
$$$$
