AQL.pdb
     RDKit          3D

 23 22  0  0  1  0  0  0  0  0999 V2000
   25.7107  -26.1014  -16.5386 C   0  0  0  0  0  0  0  0  0  0  0  0
   25.5762  -24.7750  -17.2534 C   0  0  2  0  0  0  0  0  0  0  0  0
   26.4107  -24.8338  -18.4340 N   0  0  0  0  0  0  0  0  0  0  0  0
   25.9952  -23.6956  -16.3271 C   0  0  0  0  0  0  0  0  0  0  0  0
   27.1025  -23.6991  -15.7272 O   0  0  0  0  0  0  0  0  0  0  0  0
   23.8224  -18.0650  -17.1180 N   0  0  0  0  0  0  0  0  0  0  0  0
   24.9177  -17.8581  -16.2014 C   0  0  0  0  0  0  0  0  0  0  0  0
   25.3559  -16.6973  -16.0568 O   0  0  0  0  0  0  0  0  0  0  0  0
   25.4971  -19.0001  -15.4589 C   0  0  0  0  0  0  0  0  0  0  0  0
   24.8134  -20.2534  -15.9011 C   0  0  0  0  0  0  0  0  0  0  0  0
   25.3984  -21.4914  -15.2586 C   0  0  2  0  0  0  0  0  0  0  0  0
   25.1237  -22.6127  -16.1003 N   0  0  0  0  0  0  0  0  0  0  0  0
   24.8552  -21.6244  -13.8934 C   0  0  0  0  0  0  0  0  0  0  0  0
   23.7584  -22.2193  -13.7292 O   0  0  0  0  0  0  0  0  0  0  0  0
   24.2768  -20.6960   -8.4157 C   0  0  0  0  0  0  0  0  0  0  0  0
   25.6419  -20.9739   -8.9779 C   0  0  2  0  0  0  0  0  0  0  0  0
   26.6923  -20.5105   -8.0243 C   0  0  0  0  0  0  0  0  0  0  0  0
   25.8336  -20.6606  -10.4001 C   0  0  0  0  0  0  0  0  0  0  0  0
   24.8596  -21.1431  -11.4011 C   0  0  2  0  0  0  0  0  0  0  0  0
   25.4973  -21.1179  -12.7328 N   0  0  0  0  0  0  0  0  0  0  0  0
   23.5972  -20.4150  -11.5331 C   0  0  0  0  0  0  0  0  0  0  0  0
   23.3939  -19.2262  -12.2134 O   0  0  0  0  0  0  0  0  0  0  0  0
   22.5411  -20.8819  -10.9770 O   0  0  0  0  0  0  0  0  0  0  0  0
  2  1  1  1
  2  3  1  0
  4  2  1  0
  5  4  2  0
  6  7  1  0
  7  8  2  0
  7  9  1  0
  9 10  1  0
 11 10  1  6
 11 13  1  0
 11 12  1  0
 12  4  1  0
 13 20  1  0
 14 13  2  0
 16 15  1  1
 17 16  1  0
 18 16  1  0
 19 18  1  1
 19 21  1  0
 20 19  1  0
 21 22  1  0
 23 21  2  0
M  END
$$$$
