AQL.pdb
     RDKit          3D

 23 22  0  0  1  0  0  0  0  0999 V2000
   44.3852  -11.9932   -8.5965 C   0  0  0  0  0  0  0  0  0  0  0  0
   45.0524  -11.0002   -7.6707 C   0  0  2  0  0  0  0  0  0  0  0  0
   45.8736  -11.7540   -6.7481 N   0  0  0  0  0  0  0  0  0  0  0  0
   43.9988  -10.2238   -6.9736 C   0  0  0  0  0  0  0  0  0  0  0  0
   43.3815  -10.6581   -5.9655 O   0  0  0  0  0  0  0  0  0  0  0  0
   44.2069   -5.4365   -4.6520 N   0  0  0  0  0  0  0  0  0  0  0  0
   42.8436   -5.1236   -5.0074 C   0  0  0  0  0  0  0  0  0  0  0  0
   42.2095   -4.3325   -4.2777 O   0  0  0  0  0  0  0  0  0  0  0  0
   42.2255   -5.7312   -6.2074 C   0  0  0  0  0  0  0  0  0  0  0  0
   43.2004   -6.6879   -6.8141 C   0  0  0  0  0  0  0  0  0  0  0  0
   42.6512   -8.0940   -6.9088 C   0  0  2  0  0  0  0  0  0  0  0  0
   43.6650   -8.9417   -7.4517 N   0  0  0  0  0  0  0  0  0  0  0  0
   41.4076   -8.0697   -7.7021 C   0  0  0  0  0  0  0  0  0  0  0  0
   41.4861   -8.0551   -8.9581 O   0  0  0  0  0  0  0  0  0  0  0  0
   38.3123  -11.0773   -8.3797 C   0  0  0  0  0  0  0  0  0  0  0  0
   38.0012  -10.3188   -7.1209 C   0  0  2  0  0  0  0  0  0  0  0  0
   36.9673  -11.0460   -6.3274 C   0  0  0  0  0  0  0  0  0  0  0  0
   37.8473   -8.8648   -7.2611 C   0  0  0  0  0  0  0  0  0  0  0  0
   38.8824   -8.0760   -7.9611 C   0  0  2  0  0  0  0  0  0  0  0  0
   40.1062   -8.0616   -7.1346 N   0  0  0  0  0  0  0  0  0  0  0  0
   38.5807   -6.6797   -8.2778 C   0  0  0  0  0  0  0  0  0  0  0  0
   37.8264   -6.2163   -9.3425 O   0  0  0  0  0  0  0  0  0  0  0  0
   39.0416   -5.7506   -7.5249 O   0  0  0  0  0  0  0  0  0  0  0  0
  2  1  1  6
  2  3  1  0
  4  2  1  0
  5  4  2  0
  6  7  1  0
  7  8  2  0
  7  9  1  0
  9 10  1  0
 11 10  1  6
 11 13  1  0
 11 12  1  0
 12  4  1  0
 13 20  1  0
 14 13  2  0
 16 15  1  6
 17 16  1  0
 18 16  1  0
 19 18  1  1
 19 21  1  0
 20 19  1  0
 21 22  1  0
 23 21  2  0
M  END
$$$$
