AQL.pdb
     RDKit          3D

 23 22  0  0  1  0  0  0  0  0999 V2000
   11.8103  -20.1676    1.6234 C   0  0  0  0  0  0  0  0  0  0  0  0
   13.1125  -19.4158    1.4575 C   0  0  2  0  0  0  0  0  0  0  0  0
   13.9883  -20.2407    0.6536 N   0  0  0  0  0  0  0  0  0  0  0  0
   13.6770  -19.1482    2.8022 C   0  0  0  0  0  0  0  0  0  0  0  0
   13.0364  -18.5522    3.7080 O   0  0  0  0  0  0  0  0  0  0  0  0
   15.4626  -24.3948    4.6851 N   0  0  0  0  0  0  0  0  0  0  0  0
   15.9944  -23.1014    4.3286 C   0  0  0  0  0  0  0  0  0  0  0  0
   16.9575  -23.0571    3.5344 O   0  0  0  0  0  0  0  0  0  0  0  0
   15.4047  -21.8682    4.8965 C   0  0  0  0  0  0  0  0  0  0  0  0
   16.3536  -20.7363    4.6683 C   0  0  0  0  0  0  0  0  0  0  0  0
   15.6438  -19.4385    4.3526 C   0  0  2  0  0  0  0  0  0  0  0  0
   14.9878  -19.5751    3.0909 N   0  0  0  0  0  0  0  0  0  0  0  0
   16.6215  -18.3346    4.3990 C   0  0  0  0  0  0  0  0  0  0  0  0
   17.6759  -18.4254    3.7179 O   0  0  0  0  0  0  0  0  0  0  0  0
   19.0809  -14.6679    3.2963 C   0  0  0  0  0  0  0  0  0  0  0  0
   17.6549  -14.2352    3.4866 C   0  0  2  0  0  0  0  0  0  0  0  0
   17.5497  -12.7515    3.3653 C   0  0  0  0  0  0  0  0  0  0  0  0
   16.9237  -14.8776    4.5867 C   0  0  0  0  0  0  0  0  0  0  0  0
   17.4707  -16.0910    5.2287 C   0  0  2  0  0  0  0  0  0  0  0  0
   16.4502  -17.1570    5.1733 N   0  0  0  0  0  0  0  0  0  0  0  0
   17.8924  -15.9942    6.6265 C   0  0  0  0  0  0  0  0  0  0  0  0
   19.0591  -15.4194    7.1018 O   0  0  0  0  0  0  0  0  0  0  0  0
   17.1415  -16.4796    7.5447 O   0  0  0  0  0  0  0  0  0  0  0  0
  2  1  1  1
  2  3  1  0
  4  2  1  0
  5  4  2  0
  6  7  1  0
  7  8  2  0
  7  9  1  0
  9 10  1  0
 11 10  1  6
 11 13  1  0
 11 12  1  0
 12  4  1  0
 13 20  1  0
 14 13  2  0
 16 15  1  1
 17 16  1  0
 18 16  1  0
 19 18  1  1
 19 21  1  0
 20 19  1  0
 21 22  1  0
 23 21  2  0
M  END
$$$$
