AQL.pdb
     RDKit          3D

 23 22  0  0  1  0  0  0  0  0999 V2000
   14.5263   -9.9785  -15.3797 C   0  0  0  0  0  0  0  0  0  0  0  0
   15.7820  -10.2295  -14.5745 C   0  0  2  0  0  0  0  0  0  0  0  0
   15.4013  -10.9975  -13.4086 N   0  0  0  0  0  0  0  0  0  0  0  0
   16.3783   -8.9216  -14.2107 C   0  0  0  0  0  0  0  0  0  0  0  0
   16.7819   -8.0908  -15.0668 O   0  0  0  0  0  0  0  0  0  0  0  0
   15.6870   -7.2682   -8.3757 N   0  0  0  0  0  0  0  0  0  0  0  0
   14.8256   -6.6569   -9.3590 C   0  0  0  0  0  0  0  0  0  0  0  0
   13.7316   -6.1900   -8.9775 O   0  0  0  0  0  0  0  0  0  0  0  0
   15.2398   -6.5918  -10.7786 C   0  0  0  0  0  0  0  0  0  0  0  0
   16.6004   -7.1967  -10.9072 C   0  0  0  0  0  0  0  0  0  0  0  0
   17.0322   -7.3531  -12.3483 C   0  0  2  0  0  0  0  0  0  0  0  0
   16.5041   -8.5823  -12.8496 N   0  0  0  0  0  0  0  0  0  0  0  0
   18.5031   -7.2638  -12.4197 C   0  0  0  0  0  0  0  0  0  0  0  0
   19.1957   -8.1381  -11.8369 O   0  0  0  0  0  0  0  0  0  0  0  0
   22.2167   -7.2339  -16.8626 C   0  0  0  0  0  0  0  0  0  0  0  0
   22.1247   -7.0594  -15.3734 C   0  0  2  0  0  0  0  0  0  0  0  0
   22.9084   -8.1258  -14.6836 C   0  0  0  0  0  0  0  0  0  0  0  0
   20.7934   -6.7451  -14.8383 C   0  0  0  0  0  0  0  0  0  0  0  0
   20.6417   -6.3379  -13.4259 C   0  0  2  0  0  0  0  0  0  0  0  0
   19.2017   -6.2407  -13.1132 N   0  0  0  0  0  0  0  0  0  0  0  0
   21.2415   -5.0691  -13.0118 C   0  0  0  0  0  0  0  0  0  0  0  0
   22.4970   -4.8887  -12.4565 O   0  0  0  0  0  0  0  0  0  0  0  0
   20.5756   -3.9832  -13.1532 O   0  0  0  0  0  0  0  0  0  0  0  0
  2  1  1  6
  2  3  1  0
  4  2  1  0
  5  4  2  0
  6  7  1  0
  7  8  2  0
  7  9  1  0
  9 10  1  0
 11 10  1  1
 11 13  1  0
 11 12  1  0
 12  4  1  0
 13 20  1  0
 14 13  2  0
 16 15  1  6
 17 16  1  0
 18 16  1  0
 19 18  1  6
 19 21  1  0
 20 19  1  0
 21 22  1  0
 23 21  2  0
M  END
$$$$
