AQL.pdb
     RDKit          3D

 23 22  0  0  1  0  0  0  0  0999 V2000
   28.0953  -17.2414  -16.0864 C   0  0  0  0  0  0  0  0  0  0  0  0
   28.1393  -18.5758  -15.3753 C   0  0  2  0  0  0  0  0  0  0  0  0
   27.8191  -19.5958  -16.3504 N   0  0  0  0  0  0  0  0  0  0  0  0
   27.1652  -18.5469  -14.2577 C   0  0  0  0  0  0  0  0  0  0  0  0
   27.2113  -17.6958  -13.3306 O   0  0  0  0  0  0  0  0  0  0  0  0
   21.6551  -19.2150  -14.8255 N   0  0  0  0  0  0  0  0  0  0  0  0
   21.5775  -19.7413  -13.4839 C   0  0  0  0  0  0  0  0  0  0  0  0
   20.4834  -19.6735  -12.8851 O   0  0  0  0  0  0  0  0  0  0  0  0
   22.7705  -20.3427  -12.8465 C   0  0  0  0  0  0  0  0  0  0  0  0
   23.9126  -20.2710  -13.8079 C   0  0  0  0  0  0  0  0  0  0  0  0
   25.1350  -19.6118  -13.2087 C   0  0  2  0  0  0  0  0  0  0  0  0
   26.1379  -19.5096  -14.2211 N   0  0  0  0  0  0  0  0  0  0  0  0
   25.5611  -20.3805  -12.0238 C   0  0  0  0  0  0  0  0  0  0  0  0
   26.0157  -21.5433  -12.1828 O   0  0  0  0  0  0  0  0  0  0  0  0
   28.7276  -20.3552   -8.3522 C   0  0  0  0  0  0  0  0  0  0  0  0
   27.6499  -19.3092   -8.3189 C   0  0  2  0  0  0  0  0  0  0  0  0
   27.9446  -18.3044   -7.2555 C   0  0  0  0  0  0  0  0  0  0  0  0
   26.2687  -19.7976   -8.4239 C   0  0  0  0  0  0  0  0  0  0  0  0
   25.8869  -20.7035   -9.5272 C   0  0  2  0  0  0  0  0  0  0  0  0
   25.4917  -19.8888  -10.6937 N   0  0  0  0  0  0  0  0  0  0  0  0
   24.7927  -21.6458   -9.2909 C   0  0  0  0  0  0  0  0  0  0  0  0
   24.8981  -22.9226   -8.7653 O   0  0  0  0  0  0  0  0  0  0  0  0
   23.5936  -21.3039   -9.5873 O   0  0  0  0  0  0  0  0  0  0  0  0
  2  1  1  6
  2  3  1  0
  4  2  1  0
  5  4  2  0
  6  7  1  0
  7  8  2  0
  7  9  1  0
  9 10  1  0
 11 10  1  6
 11 13  1  0
 11 12  1  0
 12  4  1  0
 13 20  1  0
 14 13  2  0
 16 15  1  1
 17 16  1  0
 18 16  1  0
 19 18  1  1
 19 21  1  0
 20 19  1  0
 21 22  1  0
 23 21  2  0
M  END
$$$$
