AQL.pdb
     RDKit          3D

 23 22  0  0  1  0  0  0  0  0999 V2000
-2664.9399 4902.2354-8118.3984 C   0  0  0  0  0  0  0  0  0  0  0  0
-2665.1272 4903.0762-8119.6440 C   0  0  2  0  0  0  0  0  0  0  0  0
-2666.3149 4902.5923-8120.3145 N   0  0  0  0  0  0  0  0  0  0  0  0
-2663.9158 4902.9434-8120.4883 C   0  0  0  0  0  0  0  0  0  0  0  0
-2663.2532 4901.8784-8120.5723 O   0  0  0  0  0  0  0  0  0  0  0  0
-2664.2129 4904.1812-8122.3193 N   0  0  0  0  0  0  0  0  0  0  0  0
-2663.1077 4904.1934-8123.2490 C   0  0  0  0  0  0  0  0  0  0  0  0
-2663.0576 4903.3027-8124.1211 O   0  0  0  0  0  0  0  0  0  0  0  0
-2662.0686 4905.2432-8123.1543 C   0  0  0  0  0  0  0  0  0  0  0  0
-2662.2778 4906.0117-8121.8896 C   0  0  0  0  0  0  0  0  0  0  0  0
-2662.6792 4905.1270-8120.7305 C   0  0  2  0  0  0  0  0  0  0  0  0
-2663.4792 4904.0542-8121.2339 N   0  0  0  0  0  0  0  0  0  0  0  0
-2663.3577 4905.9482-8119.7114 C   0  0  0  0  0  0  0  0  0  0  0  0
-2664.5813 4905.7510-8119.4863 O   0  0  0  0  0  0  0  0  0  0  0  0
-2661.7109 4910.8262-8118.9800 C   0  0  0  0  0  0  0  0  0  0  0  0
-2660.7397 4909.6851-8118.8413 C   0  0  2  0  0  0  0  0  0  0  0  0
-2659.3396 4910.2051-8118.8198 C   0  0  0  0  0  0  0  0  0  0  0  0
-2661.0088 4908.4976-8119.6602 C   0  0  0  0  0  0  0  0  0  0  0  0
-2661.2563 4907.1924-8119.0151 C   0  0  2  0  0  0  0  0  0  0  0  0
-2662.7153 4906.9634-8118.9551 N   0  0  0  0  0  0  0  0  0  0  0  0
-2660.7493 4906.9902-8117.6597 C   0  0  0  0  0  0  0  0  0  0  0  0
-2660.8821 4907.8613-8116.5894 O   0  0  0  0  0  0  0  0  0  0  0  0
-2660.1082 4905.9214-8117.3774 O   0  0  0  0  0  0  0  0  0  0  0  0
  2  1  1  1
  2  3  1  0
  4  2  1  0
  5  4  2  0
  6  7  1  0
  7  8  2  0
  7  9  1  0
  9 10  1  0
 11 10  1  6
 11 13  1  0
 11 12  1  0
 12  4  1  0
 13 20  1  0
 14 13  2  0
 16 15  1  6
 17 16  1  0
 18 16  1  0
 19 18  1  1
 19 21  1  0
 20 19  1  0
 21 22  1  0
 23 21  2  0
M  END
$$$$
