AQL.pdb
     RDKit          3D

 23 22  0  0  1  0  0  0  0  0999 V2000
   20.6653  -12.6785  -17.5417 C   0  0  0  0  0  0  0  0  0  0  0  0
   19.4566  -12.4112  -16.6723 C   0  0  2  0  0  0  0  0  0  0  0  0
   18.4014  -13.2967  -17.1152 N   0  0  0  0  0  0  0  0  0  0  0  0
   19.0819  -10.9833  -16.8117 C   0  0  0  0  0  0  0  0  0  0  0  0
   19.5657  -10.2316  -17.6988 O   0  0  0  0  0  0  0  0  0  0  0  0
   13.5941   -9.1565  -14.8513 N   0  0  0  0  0  0  0  0  0  0  0  0
   13.9096   -9.6308  -16.1773 C   0  0  0  0  0  0  0  0  0  0  0  0
   12.9713  -10.0192  -16.9046 O   0  0  0  0  0  0  0  0  0  0  0  0
   15.3122   -9.6510  -16.6500 C   0  0  0  0  0  0  0  0  0  0  0  0
   16.1884   -9.1065  -15.5686 C   0  0  0  0  0  0  0  0  0  0  0  0
   17.6499   -9.0921  -15.9580 C   0  0  2  0  0  0  0  0  0  0  0  0
   18.1438  -10.4321  -15.9175 N   0  0  0  0  0  0  0  0  0  0  0  0
   18.3732   -8.1637  -15.0682 C   0  0  0  0  0  0  0  0  0  0  0  0
   18.9665   -8.6250  -14.0587 O   0  0  0  0  0  0  0  0  0  0  0  0
   21.8261   -5.4222  -12.5983 C   0  0  0  0  0  0  0  0  0  0  0  0
   21.8499   -5.6068  -14.0890 C   0  0  2  0  0  0  0  0  0  0  0  0
   22.2265   -4.3266  -14.7573 C   0  0  0  0  0  0  0  0  0  0  0  0
   20.7344   -6.3684  -14.6661 C   0  0  0  0  0  0  0  0  0  0  0  0
   19.3466   -5.8904  -14.4955 C   0  0  2  0  0  0  0  0  0  0  0  0
   18.4463   -6.7614  -15.2776 N   0  0  0  0  0  0  0  0  0  0  0  0
   19.0427   -4.5160  -14.8952 C   0  0  0  0  0  0  0  0  0  0  0  0
   19.0643   -3.3937  -14.0845 O   0  0  0  0  0  0  0  0  0  0  0  0
   18.7133   -4.2728  -16.1097 O   0  0  0  0  0  0  0  0  0  0  0  0
  2  1  1  6
  2  3  1  0
  4  2  1  0
  5  4  2  0
  6  7  1  0
  7  8  2  0
  7  9  1  0
  9 10  1  0
 11 10  1  1
 11 13  1  0
 11 12  1  0
 12  4  1  0
 13 20  1  0
 14 13  2  0
 16 15  1  1
 17 16  1  0
 18 16  1  0
 19 18  1  6
 19 21  1  0
 20 19  1  0
 21 22  1  0
 23 21  2  0
M  END
$$$$
