LGD.pdb
     RDKit          3D

 21 20  0  0  1  0  0  0  0  0999 V2000
    7.2705  -12.3161   27.9313 C   0  0  0  0  0  0  0  0  0  0  0  0
    7.1536  -12.4374   26.4132 C   0  0  2  0  0  0  0  0  0  0  0  0
    6.5866  -11.1637   25.9009 C   0  0  0  0  0  0  0  0  0  0  0  0
    6.3904  -13.6883   26.1248 C   0  0  0  0  0  0  0  0  0  0  0  0
    7.1700  -14.9239   25.9546 C   0  0  2  0  0  0  0  0  0  0  0  0
    8.4750  -14.8568   26.5170 N   0  0  0  0  0  0  0  0  0  0  0  0
    7.2280  -15.4235   24.5628 C   0  0  0  0  0  0  0  0  0  0  0  0
    6.1456  -15.6180   23.9587 O   0  0  0  0  0  0  0  0  0  0  0  0
    8.4717  -15.6694   23.9456 N   0  0  0  0  0  0  0  0  0  0  0  0
    8.5821  -16.1517   22.5902 C   0  0  0  0  0  0  0  0  0  0  0  0
    9.6385  -17.1901   22.5372 C   0  0  0  0  0  0  0  0  0  0  0  0
    9.9603  -17.7979   21.4820 O   0  0  0  0  0  0  0  0  0  0  0  0
   10.3522  -17.5457   23.7327 N   0  0  0  0  0  0  0  0  0  0  0  0
   11.8041  -17.4586   23.8121 C   0  0  1  0  0  0  0  0  0  0  0  0
   12.2788  -16.1586   23.1736 C   0  0  0  0  0  0  0  0  0  0  0  0
   13.7006  -16.3324   22.7876 C   0  0  0  0  0  0  0  0  0  0  0  0
   14.1139  -17.3649   22.2150 O   0  0  0  0  0  0  0  0  0  0  0  0
   12.1968  -17.4767   25.2617 C   0  0  0  0  0  0  0  0  0  0  0  0
   11.5055  -16.9078   26.1359 O   0  0  0  0  0  0  0  0  0  0  0  0
   14.6368  -15.3154   23.0651 O   0  0  0  0  0  0  0  0  0  0  0  0
   13.3566  -18.1304   25.6885 O   0  0  0  0  0  0  0  0  0  0  0  0
  2  1  1  1
  3  2  1  0
  4  2  1  0
  5  4  1  0
  5  6  1  6
  7  5  1  0
  7  8  2  0
  9  7  1  0
 10  9  1  0
 10 11  1  0
 11 13  1  0
 12 11  2  0
 13 14  1  0
 14 18  1  0
 14 15  1  1
 15 16  1  0
 16 20  1  0
 17 16  2  0
 18 19  2  0
 18 21  1  0
M  END
$$$$
