LGD.pdb
     RDKit          3D

 21 20  0  0  1  0  0  0  0  0999 V2000
    7.2117  -13.3698   21.4043 C   0  0  0  0  0  0  0  0  0  0  0  0
    8.2357  -12.6428   20.5351 C   0  0  2  0  0  0  0  0  0  0  0  0
    7.6488  -11.3358   20.1435 C   0  0  0  0  0  0  0  0  0  0  0  0
    8.6240  -13.5733   19.4334 C   0  0  0  0  0  0  0  0  0  0  0  0
    9.2906  -14.8264   19.8192 C   0  0  2  0  0  0  0  0  0  0  0  0
    9.9285  -14.7653   21.0893 N   0  0  0  0  0  0  0  0  0  0  0  0
   10.2149  -15.3670   18.7979 C   0  0  0  0  0  0  0  0  0  0  0  0
    9.7606  -15.5960   17.6510 O   0  0  0  0  0  0  0  0  0  0  0  0
   11.5659  -15.6128   19.1186 N   0  0  0  0  0  0  0  0  0  0  0  0
   12.6066  -15.6410   18.1197 C   0  0  0  0  0  0  0  0  0  0  0  0
   13.9140  -15.8130   18.7965 C   0  0  0  0  0  0  0  0  0  0  0  0
   14.9998  -15.9675   18.1771 O   0  0  0  0  0  0  0  0  0  0  0  0
   13.9822  -15.8077   20.2319 N   0  0  0  0  0  0  0  0  0  0  0  0
   15.1153  -16.3795   20.9467 C   0  0  1  0  0  0  0  0  0  0  0  0
   15.7628  -15.3145   21.8239 C   0  0  0  0  0  0  0  0  0  0  0  0
   16.6144  -14.4645   20.9560 C   0  0  0  0  0  0  0  0  0  0  0  0
   16.6682  -14.6217   19.7163 O   0  0  0  0  0  0  0  0  0  0  0  0
   14.6089  -17.4991   21.8104 C   0  0  0  0  0  0  0  0  0  0  0  0
   13.3882  -17.7602   21.8971 O   0  0  0  0  0  0  0  0  0  0  0  0
   17.3992  -13.4396   21.5231 O   0  0  0  0  0  0  0  0  0  0  0  0
   15.4872  -18.2918   22.5551 O   0  0  0  0  0  0  0  0  0  0  0  0
  2  1  1  1
  3  2  1  0
  4  2  1  0
  5  4  1  0
  5  6  1  1
  7  5  1  0
  7  8  2  0
  9  7  1  0
 10  9  1  0
 10 11  1  0
 11 13  1  0
 12 11  2  0
 13 14  1  0
 14 18  1  0
 14 15  1  1
 15 16  1  0
 16 20  1  0
 17 16  2  0
 18 19  2  0
 18 21  1  0
M  END
$$$$
