LGD.pdb
     RDKit          3D

 21 20  0  0  1  0  0  0  0  0999 V2000
    8.0205  -14.2965   18.5737 C   0  0  0  0  0  0  0  0  0  0  0  0
    7.3011  -14.0047   19.8890 C   0  0  2  0  0  0  0  0  0  0  0  0
    6.5421  -12.7395   19.7174 C   0  0  0  0  0  0  0  0  0  0  0  0
    8.3263  -14.0429   20.9743 C   0  0  0  0  0  0  0  0  0  0  0  0
    9.1020  -15.2842   21.1189 C   0  0  2  0  0  0  0  0  0  0  0  0
    8.2981  -16.4361   21.3440 N   0  0  0  0  0  0  0  0  0  0  0  0
   10.1951  -15.2098   22.1137 C   0  0  0  0  0  0  0  0  0  0  0  0
   11.0564  -14.3073   21.9796 O   0  0  0  0  0  0  0  0  0  0  0  0
   10.2544  -16.1337   23.1773 N   0  0  0  0  0  0  0  0  0  0  0  0
   11.1808  -15.9935   24.2746 C   0  0  0  0  0  0  0  0  0  0  0  0
   12.4845  -16.5755   23.8765 C   0  0  0  0  0  0  0  0  0  0  0  0
   12.5938  -17.5906   23.1389 O   0  0  0  0  0  0  0  0  0  0  0  0
   13.7061  -15.9753   24.3376 N   0  0  0  0  0  0  0  0  0  0  0  0
   15.0095  -16.5016   23.9555 C   0  0  1  0  0  0  0  0  0  0  0  0
   16.0888  -15.4639   24.2410 C   0  0  0  0  0  0  0  0  0  0  0  0
   17.3883  -16.0222   23.7934 C   0  0  0  0  0  0  0  0  0  0  0  0
   18.2850  -16.3521   24.6006 O   0  0  0  0  0  0  0  0  0  0  0  0
   15.2742  -17.7358   24.7693 C   0  0  0  0  0  0  0  0  0  0  0  0
   14.7940  -17.8815   25.9156 O   0  0  0  0  0  0  0  0  0  0  0  0
   17.6460  -16.1955   22.4180 O   0  0  0  0  0  0  0  0  0  0  0  0
   16.0735  -18.7705   24.2743 O   0  0  0  0  0  0  0  0  0  0  0  0
  2  1  1  6
  3  2  1  0
  4  2  1  0
  5  4  1  0
  5  6  1  1
  7  5  1  0
  7  8  2  0
  9  7  1  0
 10  9  1  0
 10 11  1  0
 11 13  1  0
 12 11  2  0
 13 14  1  0
 14 18  1  0
 14 15  1  1
 15 16  1  0
 16 20  1  0
 17 16  2  0
 18 19  2  0
 18 21  1  0
M  END
$$$$
