LGD.pdb
     RDKit          3D

 21 20  0  0  1  0  0  0  0  0999 V2000
    7.9640  -14.1259   18.7552 C   0  0  0  0  0  0  0  0  0  0  0  0
    7.2270  -13.4585   19.9146 C   0  0  2  0  0  0  0  0  0  0  0  0
    7.1177  -12.0097   19.6058 C   0  0  0  0  0  0  0  0  0  0  0  0
    7.9408  -13.8358   21.1710 C   0  0  0  0  0  0  0  0  0  0  0  0
    8.0234  -15.2695   21.4891 C   0  0  2  0  0  0  0  0  0  0  0  0
    6.7587  -15.9200   21.5226 N   0  0  0  0  0  0  0  0  0  0  0  0
    8.8017  -15.5815   22.7085 C   0  0  0  0  0  0  0  0  0  0  0  0
    8.2858  -15.3211   23.8221 O   0  0  0  0  0  0  0  0  0  0  0  0
   10.0857  -16.1553   22.6066 N   0  0  0  0  0  0  0  0  0  0  0  0
   10.8694  -16.5113   23.7646 C   0  0  0  0  0  0  0  0  0  0  0  0
   12.2771  -16.7110   23.3459 C   0  0  0  0  0  0  0  0  0  0  0  0
   12.6060  -17.2096   22.2370 O   0  0  0  0  0  0  0  0  0  0  0  0
   13.3462  -16.3267   24.2258 N   0  0  0  0  0  0  0  0  0  0  0  0
   14.7417  -16.5714   23.8875 C   0  0  1  0  0  0  0  0  0  0  0  0
   15.5888  -15.3703   24.2910 C   0  0  0  0  0  0  0  0  0  0  0  0
   16.9461  -15.5576   23.7226 C   0  0  0  0  0  0  0  0  0  0  0  0
   17.8862  -16.0439   24.3892 O   0  0  0  0  0  0  0  0  0  0  0  0
   15.2021  -17.7849   24.6434 C   0  0  0  0  0  0  0  0  0  0  0  0
   14.8222  -18.0121   25.8138 O   0  0  0  0  0  0  0  0  0  0  0  0
   17.2113  -15.1819   22.3897 O   0  0  0  0  0  0  0  0  0  0  0  0
   16.0787  -18.7076   24.0649 O   0  0  0  0  0  0  0  0  0  0  0  0
  2  1  1  6
  3  2  1  0
  4  2  1  0
  5  4  1  0
  5  6  1  1
  7  5  1  0
  7  8  2  0
  9  7  1  0
 10  9  1  0
 10 11  1  0
 11 13  1  0
 12 11  2  0
 13 14  1  0
 14 18  1  0
 14 15  1  1
 15 16  1  0
 16 20  1  0
 17 16  2  0
 18 19  2  0
 18 21  1  0
M  END
$$$$
