LGD.pdb
     RDKit          3D

 21 20  0  0  1  0  0  0  0  0999 V2000
    5.1808  -12.2509   25.9408 C   0  0  0  0  0  0  0  0  0  0  0  0
    6.6431  -12.3804   26.3625 C   0  0  2  0  0  0  0  0  0  0  0  0
    7.0763  -11.0650   26.8993 C   0  0  0  0  0  0  0  0  0  0  0  0
    7.3969  -12.9210   25.1921 C   0  0  0  0  0  0  0  0  0  0  0  0
    7.2217  -14.3486   24.8844 C   0  0  2  0  0  0  0  0  0  0  0  0
    7.3416  -15.1957   26.0209 N   0  0  0  0  0  0  0  0  0  0  0  0
    8.0668  -14.8432   23.7749 C   0  0  0  0  0  0  0  0  0  0  0  0
    7.9966  -14.2534   22.6697 O   0  0  0  0  0  0  0  0  0  0  0  0
    8.9223  -15.9473   23.9687 N   0  0  0  0  0  0  0  0  0  0  0  0
    9.8726  -16.3755   22.9711 C   0  0  0  0  0  0  0  0  0  0  0  0
   10.4371  -17.6838   23.3795 C   0  0  0  0  0  0  0  0  0  0  0  0
   11.2777  -18.3209   22.6911 O   0  0  0  0  0  0  0  0  0  0  0  0
   10.0264  -18.2843   24.6187 N   0  0  0  0  0  0  0  0  0  0  0  0
   10.9950  -18.7684   25.5930 C   0  0  1  0  0  0  0  0  0  0  0  0
   12.3842  -18.2492   25.2413 C   0  0  0  0  0  0  0  0  0  0  0  0
   13.2890  -19.4177   25.1128 C   0  0  0  0  0  0  0  0  0  0  0  0
   12.8619  -20.5934   25.1074 O   0  0  0  0  0  0  0  0  0  0  0  0
   10.5964  -18.2539   26.9466 C   0  0  0  0  0  0  0  0  0  0  0  0
   10.9196  -18.8519   27.9971 O   0  0  0  0  0  0  0  0  0  0  0  0
   14.6803  -19.2235   24.9923 O   0  0  0  0  0  0  0  0  0  0  0  0
    9.8430  -17.0841   27.0823 O   0  0  0  0  0  0  0  0  0  0  0  0
  2  1  1  6
  3  2  1  0
  4  2  1  0
  5  4  1  0
  5  6  1  1
  7  5  1  0
  7  8  2  0
  9  7  1  0
 10  9  1  0
 10 11  1  0
 11 13  1  0
 12 11  2  0
 13 14  1  0
 14 18  1  0
 14 15  1  6
 15 16  1  0
 16 20  1  0
 17 16  2  0
 18 19  2  0
 18 21  1  0
M  END
$$$$
