LGD.pdb
     RDKit          3D

 21 20  0  0  1  0  0  0  0  0999 V2000
    5.4832  -12.0855   26.5473 C   0  0  0  0  0  0  0  0  0  0  0  0
    6.7588  -12.8058   26.9795 C   0  0  2  0  0  0  0  0  0  0  0  0
    7.5728  -11.8473   27.7698 C   0  0  0  0  0  0  0  0  0  0  0  0
    7.3836  -13.3793   25.7502 C   0  0  0  0  0  0  0  0  0  0  0  0
    6.6610  -14.4704   25.0787 C   0  0  2  0  0  0  0  0  0  0  0  0
    6.4432  -15.6054   25.9084 N   0  0  0  0  0  0  0  0  0  0  0  0
    7.2400  -14.8787   23.7795 C   0  0  0  0  0  0  0  0  0  0  0  0
    7.5535  -13.9792   22.9629 O   0  0  0  0  0  0  0  0  0  0  0  0
    7.4287  -16.2439   23.4813 N   0  0  0  0  0  0  0  0  0  0  0  0
    7.8980  -16.6983   22.1948 C   0  0  0  0  0  0  0  0  0  0  0  0
    9.2953  -17.1723   22.3361 C   0  0  0  0  0  0  0  0  0  0  0  0
    9.7785  -18.1167   21.6572 O   0  0  0  0  0  0  0  0  0  0  0  0
   10.1708  -16.5440   23.2868 N   0  0  0  0  0  0  0  0  0  0  0  0
   11.5645  -16.9444   23.4252 C   0  0  1  0  0  0  0  0  0  0  0  0
   12.4703  -15.8766   22.8232 C   0  0  0  0  0  0  0  0  0  0  0  0
   13.8757  -16.3168   23.0019 C   0  0  0  0  0  0  0  0  0  0  0  0
   14.1906  -17.5249   23.0788 O   0  0  0  0  0  0  0  0  0  0  0  0
   11.8676  -17.0905   24.8890 C   0  0  0  0  0  0  0  0  0  0  0  0
   11.0578  -16.7178   25.7672 O   0  0  0  0  0  0  0  0  0  0  0  0
   14.9087  -15.3614   23.0920 O   0  0  0  0  0  0  0  0  0  0  0  0
   13.0730  -17.6480   25.3255 O   0  0  0  0  0  0  0  0  0  0  0  0
  2  1  1  6
  3  2  1  0
  4  2  1  0
  5  4  1  0
  5  6  1  1
  7  5  1  0
  7  8  2  0
  9  7  1  0
 10  9  1  0
 10 11  1  0
 11 13  1  0
 12 11  2  0
 13 14  1  0
 14 18  1  0
 14 15  1  1
 15 16  1  0
 16 20  1  0
 17 16  2  0
 18 19  2  0
 18 21  1  0
M  END
$$$$
