LGD.pdb
     RDKit          3D

 21 20  0  0  1  0  0  0  0  0999 V2000
    5.4346  -12.0680   26.0525 C   0  0  0  0  0  0  0  0  0  0  0  0
    6.7316  -12.7339   26.5075 C   0  0  2  0  0  0  0  0  0  0  0  0
    7.3109  -11.9003   27.5917 C   0  0  0  0  0  0  0  0  0  0  0  0
    7.5707  -12.9499   25.2911 C   0  0  0  0  0  0  0  0  0  0  0  0
    7.1453  -14.0095   24.3639 C   0  0  2  0  0  0  0  0  0  0  0  0
    6.5318  -15.1191   25.0089 N   0  0  0  0  0  0  0  0  0  0  0  0
    8.2004  -14.4669   23.4325 C   0  0  0  0  0  0  0  0  0  0  0  0
    8.8873  -13.5974   22.8439 O   0  0  0  0  0  0  0  0  0  0  0  0
    8.4168  -15.8444   23.2223 N   0  0  0  0  0  0  0  0  0  0  0  0
    9.4352  -16.3413   22.3291 C   0  0  0  0  0  0  0  0  0  0  0  0
   10.5522  -16.8883   23.1353 C   0  0  0  0  0  0  0  0  0  0  0  0
   11.7539  -16.8665   22.7587 O   0  0  0  0  0  0  0  0  0  0  0  0
   10.2858  -17.4804   24.4173 N   0  0  0  0  0  0  0  0  0  0  0  0
   11.3169  -18.1905   25.1618 C   0  0  1  0  0  0  0  0  0  0  0  0
   10.9451  -18.2401   26.6391 C   0  0  0  0  0  0  0  0  0  0  0  0
   11.3765  -16.9643   27.2612 C   0  0  0  0  0  0  0  0  0  0  0  0
   12.1878  -16.1924   26.7040 O   0  0  0  0  0  0  0  0  0  0  0  0
   11.4071  -19.5889   24.6213 C   0  0  0  0  0  0  0  0  0  0  0  0
   12.2936  -20.3846   25.0044 O   0  0  0  0  0  0  0  0  0  0  0  0
   10.8707  -16.5872   28.5222 O   0  0  0  0  0  0  0  0  0  0  0  0
   10.5011  -20.0535   23.6633 O   0  0  0  0  0  0  0  0  0  0  0  0
  2  1  1  6
  3  2  1  0
  4  2  1  0
  5  4  1  0
  5  6  1  1
  7  5  1  0
  7  8  2  0
  9  7  1  0
 10  9  1  0
 10 11  1  0
 11 13  1  0
 12 11  2  0
 13 14  1  0
 14 18  1  0
 14 15  1  1
 15 16  1  0
 16 20  1  0
 17 16  2  0
 18 19  2  0
 18 21  1  0
M  END
$$$$
