LGD.pdb
     RDKit          3D

 21 20  0  0  1  0  0  0  0  0999 V2000
    6.4970  -12.6319   19.5808 C   0  0  0  0  0  0  0  0  0  0  0  0
    7.8065  -13.3144   19.9710 C   0  0  2  0  0  0  0  0  0  0  0  0
    8.8639  -12.2721   20.0123 C   0  0  0  0  0  0  0  0  0  0  0  0
    8.0105  -14.4557   19.0297 C   0  0  0  0  0  0  0  0  0  0  0  0
    9.1812  -15.3150   19.2634 C   0  0  2  0  0  0  0  0  0  0  0  0
    9.3381  -15.7080   20.6216 N   0  0  0  0  0  0  0  0  0  0  0  0
   10.4513  -14.7773   18.7270 C   0  0  0  0  0  0  0  0  0  0  0  0
   10.5269  -14.5585   17.4938 O   0  0  0  0  0  0  0  0  0  0  0  0
   11.5375  -14.5225   19.5893 N   0  0  0  0  0  0  0  0  0  0  0  0
   12.7004  -13.7778   19.1712 C   0  0  0  0  0  0  0  0  0  0  0  0
   13.9160  -14.5264   19.5700 C   0  0  0  0  0  0  0  0  0  0  0  0
   15.0838  -14.1604   19.2724 O   0  0  0  0  0  0  0  0  0  0  0  0
   13.7917  -15.7357   20.3363 N   0  0  0  0  0  0  0  0  0  0  0  0
   14.9538  -16.5370   20.6959 C   0  0  1  0  0  0  0  0  0  0  0  0
   14.6934  -17.2624   22.0109 C   0  0  0  0  0  0  0  0  0  0  0  0
   14.7403  -16.2590   23.1025 C   0  0  0  0  0  0  0  0  0  0  0  0
   15.0342  -15.0612   22.8941 O   0  0  0  0  0  0  0  0  0  0  0  0
   15.1848  -17.5443   19.6061 C   0  0  0  0  0  0  0  0  0  0  0  0
   14.3317  -17.7543   18.7151 O   0  0  0  0  0  0  0  0  0  0  0  0
   14.4491  -16.6431   24.4275 O   0  0  0  0  0  0  0  0  0  0  0  0
   16.3661  -18.2899   19.5492 O   0  0  0  0  0  0  0  0  0  0  0  0
  2  1  1  6
  3  2  1  0
  4  2  1  0
  5  4  1  0
  5  6  1  1
  7  5  1  0
  7  8  2  0
  9  7  1  0
 10  9  1  0
 10 11  1  0
 11 13  1  0
 12 11  2  0
 13 14  1  0
 14 18  1  0
 14 15  1  1
 15 16  1  0
 16 20  1  0
 17 16  2  0
 18 19  2  0
 18 21  1  0
M  END
$$$$
