LGD.pdb
     RDKit          3D

 21 20  0  0  1  0  0  0  0  0999 V2000
    7.0361  -13.3668   20.7511 C   0  0  0  0  0  0  0  0  0  0  0  0
    8.4283  -13.0875   20.1886 C   0  0  2  0  0  0  0  0  0  0  0  0
    8.4684  -11.6633   19.7691 C   0  0  0  0  0  0  0  0  0  0  0  0
    8.6979  -14.1152   19.1390 C   0  0  0  0  0  0  0  0  0  0  0  0
    8.7300  -15.5208   19.5711 C   0  0  2  0  0  0  0  0  0  0  0  0
    8.8244  -15.6818   20.9814 N   0  0  0  0  0  0  0  0  0  0  0  0
    9.7456  -16.3489   18.8835 C   0  0  0  0  0  0  0  0  0  0  0  0
    9.7470  -16.3623   17.6289 O   0  0  0  0  0  0  0  0  0  0  0  0
   10.6794  -17.0966   19.6301 N   0  0  0  0  0  0  0  0  0  0  0  0
   11.7254  -17.8721   19.0086 C   0  0  0  0  0  0  0  0  0  0  0  0
   13.0320  -17.4396   19.5588 C   0  0  0  0  0  0  0  0  0  0  0  0
   14.1271  -17.9786   19.2480 O   0  0  0  0  0  0  0  0  0  0  0  0
   13.0883  -16.3525   20.4968 N   0  0  0  0  0  0  0  0  0  0  0  0
   14.3473  -15.9082   21.0793 C   0  0  1  0  0  0  0  0  0  0  0  0
   14.5961  -14.4484   20.7186 C   0  0  0  0  0  0  0  0  0  0  0  0
   15.1592  -14.4070   19.3468 C   0  0  0  0  0  0  0  0  0  0  0  0
   16.2465  -14.9529   19.0564 O   0  0  0  0  0  0  0  0  0  0  0  0
   14.2481  -16.0451   22.5717 C   0  0  0  0  0  0  0  0  0  0  0  0
   13.1951  -16.4308   23.1267 O   0  0  0  0  0  0  0  0  0  0  0  0
   14.4659  -13.7355   18.3190 O   0  0  0  0  0  0  0  0  0  0  0  0
   15.3333  -15.7416   23.3992 O   0  0  0  0  0  0  0  0  0  0  0  0
  2  1  1  6
  3  2  1  0
  4  2  1  0
  5  4  1  0
  5  6  1  1
  7  5  1  0
  7  8  2  0
  9  7  1  0
 10  9  1  0
 10 11  1  0
 11 13  1  0
 12 11  2  0
 13 14  1  0
 14 18  1  0
 14 15  1  1
 15 16  1  0
 16 20  1  0
 17 16  2  0
 18 19  2  0
 18 21  1  0
M  END
$$$$
