LGD.pdb
     RDKit          3D

 21 20  0  0  1  0  0  0  0  0999 V2000
    5.7540  -11.4676   25.1670 C   0  0  0  0  0  0  0  0  0  0  0  0
    6.3023  -12.4434   26.2061 C   0  0  2  0  0  0  0  0  0  0  0  0
    6.7710  -11.6478   27.3695 C   0  0  0  0  0  0  0  0  0  0  0  0
    7.3102  -13.3048   25.5187 C   0  0  0  0  0  0  0  0  0  0  0  0
    6.8026  -14.4754   24.7869 C   0  0  2  0  0  0  0  0  0  0  0  0
    5.5467  -14.9447   25.2628 N   0  0  0  0  0  0  0  0  0  0  0  0
    7.7672  -15.5920   24.6749 C   0  0  0  0  0  0  0  0  0  0  0  0
    8.9862  -15.3382   24.8289 O   0  0  0  0  0  0  0  0  0  0  0  0
    7.3147  -16.8995   24.4025 N   0  0  0  0  0  0  0  0  0  0  0  0
    6.8400  -17.7863   25.4369 C   0  0  0  0  0  0  0  0  0  0  0  0
    8.0071  -18.3440   26.1607 C   0  0  0  0  0  0  0  0  0  0  0  0
    7.9052  -19.1563   27.1179 O   0  0  0  0  0  0  0  0  0  0  0  0
    9.3373  -17.9598   25.7761 N   0  0  0  0  0  0  0  0  0  0  0  0
   10.5083  -18.4081   26.5175 C   0  0  1  0  0  0  0  0  0  0  0  0
   10.4834  -19.9261   26.6527 C   0  0  0  0  0  0  0  0  0  0  0  0
   10.7423  -20.2618   28.0743 C   0  0  0  0  0  0  0  0  0  0  0  0
   10.8111  -21.4438   28.4777 O   0  0  0  0  0  0  0  0  0  0  0  0
   11.7339  -17.9938   25.7546 C   0  0  0  0  0  0  0  0  0  0  0  0
   12.8777  -18.0772   26.2549 O   0  0  0  0  0  0  0  0  0  0  0  0
   10.9191  -19.2328   29.0219 O   0  0  0  0  0  0  0  0  0  0  0  0
   11.6401  -17.4941   24.4522 O   0  0  0  0  0  0  0  0  0  0  0  0
  2  1  1  6
  3  2  1  0
  4  2  1  0
  5  4  1  0
  5  6  1  1
  7  5  1  0
  7  8  2  0
  9  7  1  0
 10  9  1  0
 10 11  1  0
 11 13  1  0
 12 11  2  0
 13 14  1  0
 14 18  1  0
 14 15  1  6
 15 16  1  0
 16 20  1  0
 17 16  2  0
 18 19  2  0
 18 21  1  0
M  END
$$$$
