NAK.pdb
     RDKit          3D

 23 22  0  0  1  0  0  0  0  0999 V2000
   14.1788  -10.8883  -16.3236 N   0  0  0  0  0  0  0  0  0  0  0  0
   15.3100  -10.0807  -15.9369 C   0  0  0  0  0  0  0  0  0  0  0  0
   15.9772   -9.5773  -16.8686 O   0  0  0  0  0  0  0  0  0  0  0  0
   15.5704   -9.9262  -14.5010 C   0  0  0  0  0  0  0  0  0  0  0  0
   17.0516  -10.1159  -14.1810 C   0  0  2  0  0  0  0  0  0  0  0  0
   17.4539  -11.4700  -14.3013 N   0  0  0  0  0  0  0  0  0  0  0  0
   17.3405   -9.4495  -12.9159 C   0  0  0  0  0  0  0  0  0  0  0  0
   16.8915  -10.0280  -11.8678 O   0  0  0  0  0  0  0  0  0  0  0  0
   19.2480   -6.5100  -11.4722 C   0  0  0  0  0  0  0  0  0  0  0  0
   18.2158   -7.6156  -11.4278 C   0  0  2  0  0  0  0  0  0  0  0  0
   18.0466   -8.2581  -12.7058 N   0  0  0  0  0  0  0  0  0  0  0  0
   16.9240   -7.1388  -10.8671 C   0  0  0  0  0  0  0  0  0  0  0  0
   16.0277   -6.7025  -11.6344 O   0  0  0  0  0  0  0  0  0  0  0  0
   16.6249   -7.1426   -9.4846 N   0  0  0  0  0  0  0  0  0  0  0  0
   15.3488   -6.6828   -8.9596 C   0  0  1  0  0  0  0  0  0  0  0  0
   15.0460   -7.2028   -7.6168 C   0  0  0  0  0  0  0  0  0  0  0  0
   13.7229   -6.6989   -7.1130 C   0  0  0  0  0  0  0  0  0  0  0  0
   12.6611   -7.8240   -7.2265 C   0  0  0  0  0  0  0  0  0  0  0  0
   11.3271   -7.3225   -6.7500 C   0  0  0  0  0  0  0  0  0  0  0  0
   10.2815   -8.3115   -6.9229 N   0  0  0  0  0  0  0  0  0  0  0  0
   15.2459   -5.2180   -9.0831 C   0  0  0  0  0  0  0  0  0  0  0  0
   14.1082   -4.7010   -9.2272 O   0  0  0  0  0  0  0  0  0  0  0  0
   16.3120   -4.3509   -9.0504 O   0  0  0  0  0  0  0  0  0  0  0  0
  2  4  1  0
  2  1  1  0
  3  2  2  0
  5  6  1  1
  5  4  1  0
  7  8  2  0
  7  5  1  0
 10  9  1  6
 10 11  1  0
 10 12  1  0
 11  7  1  0
 12 14  1  0
 12 13  2  0
 14 15  1  0
 15 16  1  1
 15 21  1  0
 17 16  1  0
 18 17  1  0
 19 18  1  0
 20 19  1  0
 21 22  2  0
 21 23  1  0
M  END
$$$$
