NAK.pdb
     RDKit          3D

 23 22  0  0  1  0  0  0  0  0999 V2000
   19.8099  -10.2330  -20.9510 N   0  0  0  0  0  0  0  0  0  0  0  0
   18.6303  -10.1380  -20.1257 C   0  0  0  0  0  0  0  0  0  0  0  0
   17.5450  -10.4395  -20.6715 O   0  0  0  0  0  0  0  0  0  0  0  0
   18.8112   -9.7011  -18.7365 C   0  0  0  0  0  0  0  0  0  0  0  0
   19.3147  -10.8427  -17.8557 C   0  0  2  0  0  0  0  0  0  0  0  0
   18.3297  -11.8447  -17.6669 N   0  0  0  0  0  0  0  0  0  0  0  0
   19.9154  -10.2706  -16.6557 C   0  0  0  0  0  0  0  0  0  0  0  0
   19.1005   -9.7420  -15.8242 O   0  0  0  0  0  0  0  0  0  0  0  0
   23.2038   -9.9836  -14.8106 C   0  0  0  0  0  0  0  0  0  0  0  0
   21.7990   -9.5373  -15.1532 C   0  0  2  0  0  0  0  0  0  0  0  0
   21.2698  -10.2282  -16.3008 N   0  0  0  0  0  0  0  0  0  0  0  0
   21.7128   -8.0604  -15.3016 C   0  0  0  0  0  0  0  0  0  0  0  0
   22.0650   -7.5146  -16.3789 O   0  0  0  0  0  0  0  0  0  0  0  0
   21.2465   -7.1998  -14.2805 N   0  0  0  0  0  0  0  0  0  0  0  0
   21.2691   -5.7511  -14.4084 C   0  0  1  0  0  0  0  0  0  0  0  0
   19.9288   -5.1490  -14.4883 C   0  0  0  0  0  0  0  0  0  0  0  0
   19.2875   -5.3999  -15.8239 C   0  0  0  0  0  0  0  0  0  0  0  0
   17.9100   -4.6889  -15.8806 C   0  0  0  0  0  0  0  0  0  0  0  0
   17.2538   -4.9434  -17.2083 C   0  0  0  0  0  0  0  0  0  0  0  0
   15.9806   -4.2603  -17.3250 N   0  0  0  0  0  0  0  0  0  0  0  0
   22.1407   -5.1627  -13.3762 C   0  0  0  0  0  0  0  0  0  0  0  0
   22.4240   -3.9393  -13.4485 O   0  0  0  0  0  0  0  0  0  0  0  0
   22.6791   -5.8535  -12.3167 O   0  0  0  0  0  0  0  0  0  0  0  0
  2  4  1  0
  2  1  1  0
  3  2  2  0
  5  6  1  1
  5  4  1  0
  7  8  2  0
  7  5  1  0
 10  9  1  6
 10 11  1  0
 10 12  1  0
 11  7  1  0
 12 14  1  0
 12 13  2  0
 14 15  1  0
 15 16  1  1
 15 21  1  0
 17 16  1  0
 18 17  1  0
 19 18  1  0
 20 19  1  0
 21 22  2  0
 21 23  1  0
M  END
$$$$
