NAK.pdb
     RDKit          3D

 23 22  0  0  1  0  0  0  0  0999 V2000
   23.4889  -32.0248   -9.6907 N   0  0  0  0  0  0  0  0  0  0  0  0
   23.5865  -33.4058   -9.2847 C   0  0  0  0  0  0  0  0  0  0  0  0
   22.7003  -34.1760   -9.7186 O   0  0  0  0  0  0  0  0  0  0  0  0
   24.7049  -33.7753   -8.4095 C   0  0  0  0  0  0  0  0  0  0  0  0
   25.5473  -32.5564   -8.0393 C   0  0  2  0  0  0  0  0  0  0  0  0
   26.4542  -32.2021   -9.0698 N   0  0  0  0  0  0  0  0  0  0  0  0
   26.1072  -32.7680   -6.7089 C   0  0  0  0  0  0  0  0  0  0  0  0
   27.2300  -33.3784   -6.6690 O   0  0  0  0  0  0  0  0  0  0  0  0
   25.5624  -31.7596   -3.1003 C   0  0  0  0  0  0  0  0  0  0  0  0
   26.2281  -32.5549   -4.2022 C   0  0  2  0  0  0  0  0  0  0  0  0
   25.5703  -32.3869   -5.4725 N   0  0  0  0  0  0  0  0  0  0  0  0
   26.3739  -33.9880   -3.8340 C   0  0  0  0  0  0  0  0  0  0  0  0
   25.5221  -34.8277   -4.2237 O   0  0  0  0  0  0  0  0  0  0  0  0
   27.4401  -34.4873   -3.0500 N   0  0  0  0  0  0  0  0  0  0  0  0
   27.5517  -35.8910   -2.6854 C   0  0  1  0  0  0  0  0  0  0  0  0
   28.9135  -36.2883   -2.2944 C   0  0  0  0  0  0  0  0  0  0  0  0
   28.9787  -37.7401   -1.9120 C   0  0  0  0  0  0  0  0  0  0  0  0
   30.2696  -38.3732   -2.4941 C   0  0  0  0  0  0  0  0  0  0  0  0
   30.2927  -39.8486   -2.2096 C   0  0  0  0  0  0  0  0  0  0  0  0
   31.5025  -40.4779   -2.7011 N   0  0  0  0  0  0  0  0  0  0  0  0
   26.5087  -36.2471   -1.7074 C   0  0  0  0  0  0  0  0  0  0  0  0
   26.1220  -35.3734   -0.8893 O   0  0  0  0  0  0  0  0  0  0  0  0
   25.9082  -37.4802   -1.6144 O   0  0  0  0  0  0  0  0  0  0  0  0
  2  4  1  0
  2  1  1  0
  3  2  2  0
  5  6  1  6
  5  4  1  0
  7  8  2  0
  7  5  1  0
 10  9  1  1
 10 11  1  0
 10 12  1  0
 11  7  1  0
 12 14  1  0
 12 13  2  0
 14 15  1  0
 15 16  1  1
 15 21  1  0
 17 16  1  0
 18 17  1  0
 19 18  1  0
 20 19  1  0
 21 22  2  0
 21 23  1  0
M  END
$$$$
