NAK.pdb
     RDKit          3D

 23 22  0  0  1  0  0  0  0  0999 V2000
   33.1848  -12.6015  -18.1276 N   0  0  0  0  0  0  0  0  0  0  0  0
   33.5006  -11.5486  -19.0619 C   0  0  0  0  0  0  0  0  0  0  0  0
   34.2286  -11.8649  -20.0297 O   0  0  0  0  0  0  0  0  0  0  0  0
   32.9442  -10.2175  -18.7932 C   0  0  0  0  0  0  0  0  0  0  0  0
   32.2414  -10.1720  -17.4380 C   0  0  2  0  0  0  0  0  0  0  0  0
   31.1427  -11.0658  -17.3769 N   0  0  0  0  0  0  0  0  0  0  0  0
   31.9797   -8.7773  -17.0995 C   0  0  0  0  0  0  0  0  0  0  0  0
   30.8442   -8.3195  -17.4682 O   0  0  0  0  0  0  0  0  0  0  0  0
   33.3916   -5.9097  -15.0772 C   0  0  0  0  0  0  0  0  0  0  0  0
   32.4827   -6.5085  -16.1285 C   0  0  2  0  0  0  0  0  0  0  0  0
   32.8144   -7.8789  -16.4225 N   0  0  0  0  0  0  0  0  0  0  0  0
   32.4349   -5.6699  -17.3554 C   0  0  0  0  0  0  0  0  0  0  0  0
   33.3221   -5.7954  -18.2383 O   0  0  0  0  0  0  0  0  0  0  0  0
   31.4268   -4.7096  -17.6050 N   0  0  0  0  0  0  0  0  0  0  0  0
   31.4558   -3.8286  -18.7620 C   0  0  1  0  0  0  0  0  0  0  0  0
   30.1180   -3.4442  -19.2393 C   0  0  0  0  0  0  0  0  0  0  0  0
   29.3067   -4.6441  -19.6395 C   0  0  0  0  0  0  0  0  0  0  0  0
   27.8994   -4.1875  -20.1058 C   0  0  0  0  0  0  0  0  0  0  0  0
   27.0863   -5.3783  -20.5292 C   0  0  0  0  0  0  0  0  0  0  0  0
   25.7620   -4.9992  -20.9806 N   0  0  0  0  0  0  0  0  0  0  0  0
   32.3637   -2.6946  -18.5153 C   0  0  0  0  0  0  0  0  0  0  0  0
   32.6633   -1.9389  -19.4753 O   0  0  0  0  0  0  0  0  0  0  0  0
   32.9202   -2.3853  -17.2970 O   0  0  0  0  0  0  0  0  0  0  0  0
  2  4  1  0
  2  1  1  0
  3  2  2  0
  5  6  1  6
  5  4  1  0
  7  8  2  0
  7  5  1  0
 10  9  1  1
 10 11  1  0
 10 12  1  0
 11  7  1  0
 12 14  1  0
 12 13  2  0
 14 15  1  0
 15 16  1  1
 15 21  1  0
 17 16  1  0
 18 17  1  0
 19 18  1  0
 20 19  1  0
 21 22  2  0
 21 23  1  0
M  END
$$$$
