NAK.pdb
     RDKit          3D

 23 22  0  0  1  0  0  0  0  0999 V2000
   27.8262  -15.6073  -20.5551 N   0  0  0  0  0  0  0  0  0  0  0  0
   27.6947  -16.2264  -19.2586 C   0  0  0  0  0  0  0  0  0  0  0  0
   27.7361  -17.4771  -19.2338 O   0  0  0  0  0  0  0  0  0  0  0  0
   27.5263  -15.3405  -18.1009 C   0  0  0  0  0  0  0  0  0  0  0  0
   27.5242  -13.8720  -18.5202 C   0  0  2  0  0  0  0  0  0  0  0  0
   28.8055  -13.4361  -18.9423 N   0  0  0  0  0  0  0  0  0  0  0  0
   26.8717  -13.0931  -17.4734 C   0  0  0  0  0  0  0  0  0  0  0  0
   25.7743  -13.5730  -17.0258 O   0  0  0  0  0  0  0  0  0  0  0  0
   27.4157  -10.0738  -15.2508 C   0  0  0  0  0  0  0  0  0  0  0  0
   26.5759  -11.1616  -15.8842 C   0  0  2  0  0  0  0  0  0  0  0  0
   27.2958  -11.8883  -16.8983 N   0  0  0  0  0  0  0  0  0  0  0  0
   25.2815  -10.6323  -16.3892 C   0  0  0  0  0  0  0  0  0  0  0  0
   25.2181  -10.1098  -17.5318 O   0  0  0  0  0  0  0  0  0  0  0  0
   24.0777  -10.6780  -15.6480 N   0  0  0  0  0  0  0  0  0  0  0  0
   22.8288  -10.1277  -16.1508 C   0  0  1  0  0  0  0  0  0  0  0  0
   21.6628  -10.9865  -15.8895 C   0  0  0  0  0  0  0  0  0  0  0  0
   20.4089  -10.4160  -16.4900 C   0  0  0  0  0  0  0  0  0  0  0  0
   19.2316  -11.4011  -16.2674 C   0  0  0  0  0  0  0  0  0  0  0  0
   17.9788  -10.8554  -16.8927 C   0  0  0  0  0  0  0  0  0  0  0  0
   16.8684  -11.7804  -16.7812 N   0  0  0  0  0  0  0  0  0  0  0  0
   22.6705   -8.7328  -15.7030 C   0  0  0  0  0  0  0  0  0  0  0  0
   21.8482   -7.9938  -16.3030 O   0  0  0  0  0  0  0  0  0  0  0  0
   23.3592   -8.1605  -14.6601 O   0  0  0  0  0  0  0  0  0  0  0  0
  2  4  1  0
  2  1  1  0
  3  2  2  0
  5  6  1  1
  5  4  1  0
  7  8  2  0
  7  5  1  0
 10  9  1  6
 10 11  1  0
 10 12  1  0
 11  7  1  0
 12 14  1  0
 12 13  2  0
 14 15  1  0
 15 16  1  1
 15 21  1  0
 17 16  1  0
 18 17  1  0
 19 18  1  0
 20 19  1  0
 21 22  2  0
 21 23  1  0
M  END
$$$$
