NAK.pdb
     RDKit          3D

 23 22  0  0  1  0  0  0  0  0999 V2000
   16.1748  -15.6478  -14.7527 N   0  0  0  0  0  0  0  0  0  0  0  0
   15.8095  -14.2931  -14.4168 C   0  0  0  0  0  0  0  0  0  0  0  0
   14.9823  -14.1552  -13.4876 O   0  0  0  0  0  0  0  0  0  0  0  0
   16.4358  -13.2134  -15.1884 C   0  0  0  0  0  0  0  0  0  0  0  0
   15.4003  -12.1956  -15.6621 C   0  0  2  0  0  0  0  0  0  0  0  0
   14.5136  -12.7446  -16.6223 N   0  0  0  0  0  0  0  0  0  0  0  0
   16.0945  -10.9661  -16.0289 C   0  0  0  0  0  0  0  0  0  0  0  0
   16.8723  -11.0477  -17.0405 O   0  0  0  0  0  0  0  0  0  0  0  0
   16.1156   -7.2590  -15.3667 C   0  0  0  0  0  0  0  0  0  0  0  0
   16.7688   -8.5491  -15.8127 C   0  0  2  0  0  0  0  0  0  0  0  0
   16.0159   -9.7103  -15.4135 N   0  0  0  0  0  0  0  0  0  0  0  0
   18.1878   -8.6261  -15.3756 C   0  0  0  0  0  0  0  0  0  0  0  0
   18.4706   -9.0631  -14.2304 O   0  0  0  0  0  0  0  0  0  0  0  0
   19.2764   -8.2284  -16.1865 N   0  0  0  0  0  0  0  0  0  0  0  0
   20.6611   -8.4163  -15.7831 C   0  0  1  0  0  0  0  0  0  0  0  0
   21.5301   -8.8879  -16.8729 C   0  0  0  0  0  0  0  0  0  0  0  0
   22.9586   -9.0187  -16.4253 C   0  0  0  0  0  0  0  0  0  0  0  0
   23.8397   -9.4615  -17.6227 C   0  0  0  0  0  0  0  0  0  0  0  0
   25.2791   -9.5452  -17.1991 C   0  0  0  0  0  0  0  0  0  0  0  0
   26.1575   -9.8390  -18.3141 N   0  0  0  0  0  0  0  0  0  0  0  0
   21.1554   -7.2158  -15.0861 C   0  0  0  0  0  0  0  0  0  0  0  0
   20.7997   -6.0837  -15.5034 O   0  0  0  0  0  0  0  0  0  0  0  0
   21.9883   -7.2303  -13.9926 O   0  0  0  0  0  0  0  0  0  0  0  0
  2  4  1  0
  2  1  1  0
  3  2  2  0
  5  6  1  6
  5  4  1  0
  7  8  2  0
  7  5  1  0
 10  9  1  1
 10 11  1  0
 10 12  1  0
 11  7  1  0
 12 14  1  0
 12 13  2  0
 14 15  1  0
 15 16  1  6
 15 21  1  0
 17 16  1  0
 18 17  1  0
 19 18  1  0
 20 19  1  0
 21 22  2  0
 21 23  1  0
M  END
$$$$
