NAK.pdb
     RDKit          3D

 23 22  0  0  1  0  0  0  0  0999 V2000
   25.8297  -21.3413   -8.8045 N   0  0  0  0  0  0  0  0  0  0  0  0
   25.8208  -20.0222   -9.3885 C   0  0  0  0  0  0  0  0  0  0  0  0
   25.4849  -19.0826   -8.6329 O   0  0  0  0  0  0  0  0  0  0  0  0
   26.2029  -19.9059  -10.8006 C   0  0  0  0  0  0  0  0  0  0  0  0
   26.6305  -21.2554  -11.3738 C   0  0  2  0  0  0  0  0  0  0  0  0
   28.0221  -21.4812  -11.2244 N   0  0  0  0  0  0  0  0  0  0  0  0
   26.0801  -21.3820  -12.7188 C   0  0  0  0  0  0  0  0  0  0  0  0
   26.7931  -20.8907  -13.6596 O   0  0  0  0  0  0  0  0  0  0  0  0
   24.0417  -23.6045  -14.7423 C   0  0  0  0  0  0  0  0  0  0  0  0
   24.4545  -22.1740  -14.4720 C   0  0  2  0  0  0  0  0  0  0  0  0
   24.8712  -21.9729  -13.1080 N   0  0  0  0  0  0  0  0  0  0  0  0
   23.3982  -21.2109  -14.8810 C   0  0  0  0  0  0  0  0  0  0  0  0
   22.4504  -20.9462  -14.0974 O   0  0  0  0  0  0  0  0  0  0  0  0
   23.3865  -20.5509  -16.1320 N   0  0  0  0  0  0  0  0  0  0  0  0
   22.3664  -19.5790  -16.4935 C   0  0  1  0  0  0  0  0  0  0  0  0
   22.6836  -18.8239  -17.7160 C   0  0  0  0  0  0  0  0  0  0  0  0
   21.6939  -17.7192  -17.9571 C   0  0  0  0  0  0  0  0  0  0  0  0
   22.0193  -17.0142  -19.3000 C   0  0  0  0  0  0  0  0  0  0  0  0
   21.1211  -15.8240  -19.4871 C   0  0  0  0  0  0  0  0  0  0  0  0
   21.4336  -15.0926  -20.6990 N   0  0  0  0  0  0  0  0  0  0  0  0
   21.0370  -20.2145  -16.4976 C   0  0  0  0  0  0  0  0  0  0  0  0
   20.0566  -19.5706  -16.0431 O   0  0  0  0  0  0  0  0  0  0  0  0
   20.7726  -21.4782  -16.9696 O   0  0  0  0  0  0  0  0  0  0  0  0
  2  4  1  0
  2  1  1  0
  3  2  2  0
  5  6  1  6
  5  4  1  0
  7  8  2  0
  7  5  1  0
 10  9  1  1
 10 11  1  0
 10 12  1  0
 11  7  1  0
 12 14  1  0
 12 13  2  0
 14 15  1  0
 15 16  1  6
 15 21  1  0
 17 16  1  0
 18 17  1  0
 19 18  1  0
 20 19  1  0
 21 22  2  0
 21 23  1  0
M  END
$$$$
