NAK.pdb
     RDKit          3D

 23 22  0  0  1  0  0  0  0  0999 V2000
   17.1848  -14.9246  -18.2240 N   0  0  0  0  0  0  0  0  0  0  0  0
   17.4730  -14.6336  -16.8406 C   0  0  0  0  0  0  0  0  0  0  0  0
   16.8934  -15.3467  -15.9908 O   0  0  0  0  0  0  0  0  0  0  0  0
   18.4098  -13.5391  -16.5614 C   0  0  0  0  0  0  0  0  0  0  0  0
   19.0419  -13.0071  -17.8458 C   0  0  2  0  0  0  0  0  0  0  0  0
   20.0931  -13.8391  -18.3070 N   0  0  0  0  0  0  0  0  0  0  0  0
   19.3503  -11.5936  -17.6585 C   0  0  0  0  0  0  0  0  0  0  0  0
   19.9970  -11.3020  -16.5947 O   0  0  0  0  0  0  0  0  0  0  0  0
   19.3716   -8.2940  -19.4736 C   0  0  0  0  0  0  0  0  0  0  0  0
   19.3317   -9.1380  -18.2182 C   0  0  2  0  0  0  0  0  0  0  0  0
   19.0275  -10.5182  -18.4960 N   0  0  0  0  0  0  0  0  0  0  0  0
   18.4194   -8.5598  -17.1964 C   0  0  0  0  0  0  0  0  0  0  0  0
   17.2012   -8.8733  -17.1911 O   0  0  0  0  0  0  0  0  0  0  0  0
   18.8423   -7.6518  -16.1977 N   0  0  0  0  0  0  0  0  0  0  0  0
   17.9333   -7.1058  -15.2022 C   0  0  1  0  0  0  0  0  0  0  0  0
   17.9255   -7.8607  -13.9392 C   0  0  0  0  0  0  0  0  0  0  0  0
   17.0226   -7.2254  -12.9196 C   0  0  0  0  0  0  0  0  0  0  0  0
   17.1962   -7.9410  -11.5543 C   0  0  0  0  0  0  0  0  0  0  0  0
   16.3901   -7.2379  -10.4988 C   0  0  0  0  0  0  0  0  0  0  0  0
   16.6143   -7.7982   -9.1808 N   0  0  0  0  0  0  0  0  0  0  0  0
   18.1604   -5.6583  -15.0453 C   0  0  0  0  0  0  0  0  0  0  0  0
   19.2926   -5.1889  -15.3285 O   0  0  0  0  0  0  0  0  0  0  0  0
   17.2172   -4.7587  -14.6088 O   0  0  0  0  0  0  0  0  0  0  0  0
  2  4  1  0
  2  1  1  0
  3  2  2  0
  5  6  1  1
  5  4  1  0
  7  8  2  0
  7  5  1  0
 10  9  1  6
 10 11  1  0
 10 12  1  0
 11  7  1  0
 12 14  1  0
 12 13  2  0
 14 15  1  0
 15 16  1  1
 15 21  1  0
 17 16  1  0
 18 17  1  0
 19 18  1  0
 20 19  1  0
 21 22  2  0
 21 23  1  0
M  END
$$$$
