NAK.pdb
     RDKit          3D

 23 22  0  0  1  0  0  0  0  0999 V2000
   26.0280  -14.9166  -20.7466 N   0  0  0  0  0  0  0  0  0  0  0  0
   25.5184  -15.5367  -19.5477 C   0  0  0  0  0  0  0  0  0  0  0  0
   25.1943  -16.7421  -19.6407 O   0  0  0  0  0  0  0  0  0  0  0  0
   25.4285  -14.7043  -18.3425 C   0  0  0  0  0  0  0  0  0  0  0  0
   25.9572  -13.2948  -18.5996 C   0  0  2  0  0  0  0  0  0  0  0  0
   27.3591  -13.2814  -18.8103 N   0  0  0  0  0  0  0  0  0  0  0  0
   25.4350  -12.4091  -17.5646 C   0  0  0  0  0  0  0  0  0  0  0  0
   24.1662  -12.4257  -17.4072 O   0  0  0  0  0  0  0  0  0  0  0  0
   26.5800  -10.0153  -14.8542 C   0  0  0  0  0  0  0  0  0  0  0  0
   25.5509  -10.6561  -15.7599 C   0  0  2  0  0  0  0  0  0  0  0  0
   26.1476  -11.5448  -16.7236 N   0  0  0  0  0  0  0  0  0  0  0  0
   24.6770   -9.6398  -16.4035 C   0  0  0  0  0  0  0  0  0  0  0  0
   25.0966   -8.9841  -17.3917 O   0  0  0  0  0  0  0  0  0  0  0  0
   23.3634   -9.3511  -15.9657 N   0  0  0  0  0  0  0  0  0  0  0  0
   22.5308   -8.3431  -16.6031 C   0  0  1  0  0  0  0  0  0  0  0  0
   21.2699   -8.8786  -17.1402 C   0  0  0  0  0  0  0  0  0  0  0  0
   21.5143   -9.8750  -18.2382 C   0  0  0  0  0  0  0  0  0  0  0  0
   20.1573  -10.3459  -18.8239 C   0  0  0  0  0  0  0  0  0  0  0  0
   20.3907  -11.3168  -19.9469 C   0  0  0  0  0  0  0  0  0  0  0  0
   19.1533  -11.7092  -20.5920 N   0  0  0  0  0  0  0  0  0  0  0  0
   22.3686   -7.1801  -15.7130 C   0  0  0  0  0  0  0  0  0  0  0  0
   22.6827   -7.2970  -14.5006 O   0  0  0  0  0  0  0  0  0  0  0  0
   21.8954   -5.9508  -16.1062 O   0  0  0  0  0  0  0  0  0  0  0  0
  2  4  1  0
  2  1  1  0
  3  2  2  0
  5  6  1  1
  5  4  1  0
  7  8  2  0
  7  5  1  0
 10  9  1  6
 10 11  1  0
 10 12  1  0
 11  7  1  0
 12 14  1  0
 12 13  2  0
 14 15  1  0
 15 16  1  1
 15 21  1  0
 17 16  1  0
 18 17  1  0
 19 18  1  0
 20 19  1  0
 21 22  2  0
 21 23  1  0
M  END
$$$$
