NAK.pdb
     RDKit          3D

 23 22  0  0  1  0  0  0  0  0999 V2000
   16.2649  -10.5256  -16.7393 N   0  0  0  0  0  0  0  0  0  0  0  0
   15.1693   -9.9341  -16.0104 C   0  0  0  0  0  0  0  0  0  0  0  0
   14.0576   -9.9302  -16.5854 O   0  0  0  0  0  0  0  0  0  0  0  0
   15.4577   -9.3974  -14.6753 C   0  0  0  0  0  0  0  0  0  0  0  0
   16.9492   -9.4732  -14.3559 C   0  0  2  0  0  0  0  0  0  0  0  0
   17.3876  -10.8087  -14.1709 N   0  0  0  0  0  0  0  0  0  0  0  0
   17.2416   -8.5263  -13.2853 C   0  0  0  0  0  0  0  0  0  0  0  0
   16.7971   -8.8408  -12.1285 O   0  0  0  0  0  0  0  0  0  0  0  0
   19.2691   -5.4199  -12.5489 C   0  0  0  0  0  0  0  0  0  0  0  0
   18.1719   -6.4217  -12.2615 C   0  0  2  0  0  0  0  0  0  0  0  0
   17.9468   -7.3187  -13.3656 N   0  0  0  0  0  0  0  0  0  0  0  0
   16.9192   -5.7529  -11.8209 C   0  0  0  0  0  0  0  0  0  0  0  0
   16.0229   -5.4798  -12.6602 O   0  0  0  0  0  0  0  0  0  0  0  0
   16.6587   -5.3913  -10.4784 N   0  0  0  0  0  0  0  0  0  0  0  0
   15.4450   -4.6973  -10.0773 C   0  0  1  0  0  0  0  0  0  0  0  0
   15.0809   -4.9200   -8.6691 C   0  0  0  0  0  0  0  0  0  0  0  0
   13.8756   -4.1140   -8.2744 C   0  0  0  0  0  0  0  0  0  0  0  0
   13.5949   -4.3062   -6.7610 C   0  0  0  0  0  0  0  0  0  0  0  0
   12.3515   -3.5587   -6.3693 C   0  0  0  0  0  0  0  0  0  0  0  0
   12.1065   -3.6218   -4.9420 N   0  0  0  0  0  0  0  0  0  0  0  0
   15.5161   -3.2791  -10.4712 C   0  0  0  0  0  0  0  0  0  0  0  0
   16.6286   -2.6937  -10.4281 O   0  0  0  0  0  0  0  0  0  0  0  0
   14.4455   -2.5274  -10.8935 O   0  0  0  0  0  0  0  0  0  0  0  0
  2  4  1  0
  2  1  1  0
  3  2  2  0
  5  6  1  1
  5  4  1  0
  7  8  2  0
  7  5  1  0
 10  9  1  6
 10 11  1  0
 10 12  1  0
 11  7  1  0
 12 14  1  0
 12 13  2  0
 14 15  1  0
 15 16  1  1
 15 21  1  0
 17 16  1  0
 18 17  1  0
 19 18  1  0
 20 19  1  0
 21 22  2  0
 21 23  1  0
M  END
$$$$
