NAK.pdb
     RDKit          3D

 23 22  0  0  1  0  0  0  0  0999 V2000
   22.0863  -14.1397  -19.8517 N   0  0  0  0  0  0  0  0  0  0  0  0
   21.3270  -12.9131  -19.8716 C   0  0  0  0  0  0  0  0  0  0  0  0
   20.8266  -12.5876  -20.9718 O   0  0  0  0  0  0  0  0  0  0  0  0
   21.2132  -12.1684  -18.6123 C   0  0  0  0  0  0  0  0  0  0  0  0
   21.9659  -12.8683  -17.4826 C   0  0  2  0  0  0  0  0  0  0  0  0
   21.2538  -13.9863  -16.9800 N   0  0  0  0  0  0  0  0  0  0  0  0
   22.3868  -11.8617  -16.5142 C   0  0  0  0  0  0  0  0  0  0  0  0
   21.4612  -11.3805  -15.7749 O   0  0  0  0  0  0  0  0  0  0  0  0
   25.5003  -10.1589  -15.1742 C   0  0  0  0  0  0  0  0  0  0  0  0
   24.0059  -10.3373  -15.3317 C   0  0  2  0  0  0  0  0  0  0  0  0
   23.6748  -11.3575  -16.2931 N   0  0  0  0  0  0  0  0  0  0  0  0
   23.3271   -9.0484  -15.6290 C   0  0  0  0  0  0  0  0  0  0  0  0
   23.1651   -8.6829  -16.8217 O   0  0  0  0  0  0  0  0  0  0  0  0
   22.8353   -8.1771  -14.6291 N   0  0  0  0  0  0  0  0  0  0  0  0
   22.1744   -6.9202  -14.9437 C   0  0  1  0  0  0  0  0  0  0  0  0
   20.7790   -7.0852  -15.3807 C   0  0  0  0  0  0  0  0  0  0  0  0
   20.1544   -5.7689  -15.7488 C   0  0  0  0  0  0  0  0  0  0  0  0
   18.6968   -6.0010  -16.2261 C   0  0  0  0  0  0  0  0  0  0  0  0
   18.0496   -4.6867  -16.5606 C   0  0  0  0  0  0  0  0  0  0  0  0
   16.6500   -4.8421  -16.9043 N   0  0  0  0  0  0  0  0  0  0  0  0
   22.3580   -5.9591  -13.8419 C   0  0  0  0  0  0  0  0  0  0  0  0
   22.4901   -6.3986  -12.6707 O   0  0  0  0  0  0  0  0  0  0  0  0
   22.4007   -4.5932  -13.9909 O   0  0  0  0  0  0  0  0  0  0  0  0
  2  4  1  0
  2  1  1  0
  3  2  2  0
  5  6  1  1
  5  4  1  0
  7  8  2  0
  7  5  1  0
 10  9  1  6
 10 11  1  0
 10 12  1  0
 11  7  1  0
 12 14  1  0
 12 13  2  0
 14 15  1  0
 15 16  1  1
 15 21  1  0
 17 16  1  0
 18 17  1  0
 19 18  1  0
 20 19  1  0
 21 22  2  0
 21 23  1  0
M  END
$$$$
