NAK.pdb
     RDKit          3D

 23 22  0  0  1  0  0  0  0  0999 V2000
   22.3708  -10.3439  -18.2228 N   0  0  0  0  0  0  0  0  0  0  0  0
   21.1004   -9.7165  -18.4946 C   0  0  0  0  0  0  0  0  0  0  0  0
   20.5662   -9.9965  -19.5914 O   0  0  0  0  0  0  0  0  0  0  0  0
   20.5581   -8.8172  -17.4696 C   0  0  0  0  0  0  0  0  0  0  0  0
   21.5438   -8.6275  -16.3186 C   0  0  2  0  0  0  0  0  0  0  0  0
   21.7681   -9.8316  -15.6047 N   0  0  0  0  0  0  0  0  0  0  0  0
   21.1289   -7.4647  -15.5413 C   0  0  0  0  0  0  0  0  0  0  0  0
   19.9328   -7.4956  -15.0904 O   0  0  0  0  0  0  0  0  0  0  0  0
   22.4826   -4.3104  -13.9597 C   0  0  0  0  0  0  0  0  0  0  0  0
   21.3718   -5.1836  -14.5017 C   0  0  2  0  0  0  0  0  0  0  0  0
   21.8748   -6.3213  -15.2277 N   0  0  0  0  0  0  0  0  0  0  0  0
   20.3960   -4.3974  -15.3020 C   0  0  0  0  0  0  0  0  0  0  0  0
   20.5262   -4.3166  -16.5505 O   0  0  0  0  0  0  0  0  0  0  0  0
   19.2958   -3.7119  -14.7360 N   0  0  0  0  0  0  0  0  0  0  0  0
   18.3947   -2.8905  -15.5291 C   0  0  1  0  0  0  0  0  0  0  0  0
   17.0342   -3.4422  -15.6294 C   0  0  0  0  0  0  0  0  0  0  0  0
   16.1463   -2.5760  -16.4776 C   0  0  0  0  0  0  0  0  0  0  0  0
   14.7300   -3.2038  -16.5565 C   0  0  0  0  0  0  0  0  0  0  0  0
   13.8192   -2.3192  -17.3604 C   0  0  0  0  0  0  0  0  0  0  0  0
   12.5054   -2.9066  -17.5338 N   0  0  0  0  0  0  0  0  0  0  0  0
   18.4520   -1.4894  -15.0762 C   0  0  0  0  0  0  0  0  0  0  0  0
   18.6656   -1.2547  -13.8590 O   0  0  0  0  0  0  0  0  0  0  0  0
   18.2910   -0.3941  -15.8911 O   0  0  0  0  0  0  0  0  0  0  0  0
  2  4  1  0
  2  1  1  0
  3  2  2  0
  5  6  1  1
  5  4  1  0
  7  8  2  0
  7  5  1  0
 10  9  1  6
 10 11  1  0
 10 12  1  0
 11  7  1  0
 12 14  1  0
 12 13  2  0
 14 15  1  0
 15 16  1  1
 15 21  1  0
 17 16  1  0
 18 17  1  0
 19 18  1  0
 20 19  1  0
 21 22  2  0
 21 23  1  0
M  END
$$$$
