NAK.pdb
     RDKit          3D

 23 22  0  0  1  0  0  0  0  0999 V2000
   19.2191  -13.3422  -18.5500 N   0  0  0  0  0  0  0  0  0  0  0  0
   18.1684  -12.9374  -17.6480 C   0  0  0  0  0  0  0  0  0  0  0  0
   17.0626  -13.5055  -17.7930 O   0  0  0  0  0  0  0  0  0  0  0  0
   18.4910  -11.9072  -16.6539 C   0  0  0  0  0  0  0  0  0  0  0  0
   19.9394  -11.4414  -16.7861 C   0  0  2  0  0  0  0  0  0  0  0  0
   20.8525  -12.3760  -16.2359 N   0  0  0  0  0  0  0  0  0  0  0  0
   20.0289  -10.0670  -16.3052 C   0  0  0  0  0  0  0  0  0  0  0  0
   19.3537   -9.8015  -15.2523 O   0  0  0  0  0  0  0  0  0  0  0  0
   21.8490   -6.8068  -16.9355 C   0  0  0  0  0  0  0  0  0  0  0  0
   20.7262   -7.6476  -16.3678 C   0  0  2  0  0  0  0  0  0  0  0  0
   20.7601   -9.0042  -16.8508 N   0  0  0  0  0  0  0  0  0  0  0  0
   19.4000   -7.0110  -16.5837 C   0  0  0  0  0  0  0  0  0  0  0  0
   18.7442   -7.2616  -17.6275 O   0  0  0  0  0  0  0  0  0  0  0  0
   18.8068   -6.1136  -15.6653 N   0  0  0  0  0  0  0  0  0  0  0  0
   17.5304   -5.4645  -15.9201 C   0  0  1  0  0  0  0  0  0  0  0  0
   16.5460   -5.6652  -14.8449 C   0  0  0  0  0  0  0  0  0  0  0  0
   15.2399   -4.9908  -15.1567 C   0  0  0  0  0  0  0  0  0  0  0  0
   14.2106   -5.3110  -14.0412 C   0  0  0  0  0  0  0  0  0  0  0  0
   12.8510   -4.8068  -14.4355 C   0  0  0  0  0  0  0  0  0  0  0  0
   11.8451   -5.1217  -13.4404 N   0  0  0  0  0  0  0  0  0  0  0  0
   17.7421   -4.0558  -16.2970 C   0  0  0  0  0  0  0  0  0  0  0  0
   16.7772   -3.4050  -16.7739 O   0  0  0  0  0  0  0  0  0  0  0  0
   18.9310   -3.3784  -16.1651 O   0  0  0  0  0  0  0  0  0  0  0  0
  2  4  1  0
  2  1  1  0
  3  2  2  0
  5  6  1  1
  5  4  1  0
  7  8  2  0
  7  5  1  0
 10  9  1  6
 10 11  1  0
 10 12  1  0
 11  7  1  0
 12 14  1  0
 12 13  2  0
 14 15  1  0
 15 16  1  1
 15 21  1  0
 17 16  1  0
 18 17  1  0
 19 18  1  0
 20 19  1  0
 21 22  2  0
 21 23  1  0
M  END
$$$$
