NAK.pdb
     RDKit          3D

 23 22  0  0  1  0  0  0  0  0999 V2000
   18.3673  -12.8699  -18.8377 N   0  0  0  0  0  0  0  0  0  0  0  0
   17.9361  -11.4938  -18.7968 C   0  0  0  0  0  0  0  0  0  0  0  0
   17.2885  -11.0852  -19.7870 O   0  0  0  0  0  0  0  0  0  0  0  0
   18.2932  -10.7089  -17.6095 C   0  0  0  0  0  0  0  0  0  0  0  0
   19.0573  -11.5548  -16.5930 C   0  0  2  0  0  0  0  0  0  0  0  0
   18.2317  -12.5352  -15.9873 N   0  0  0  0  0  0  0  0  0  0  0  0
   19.7855  -10.6595  -15.7006 C   0  0  0  0  0  0  0  0  0  0  0  0
   19.0767  -10.0399  -14.8353 O   0  0  0  0  0  0  0  0  0  0  0  0
   23.2871   -9.8171  -14.5930 C   0  0  0  0  0  0  0  0  0  0  0  0
   21.8109   -9.5160  -14.7344 C   0  0  2  0  0  0  0  0  0  0  0  0
   21.1606  -10.3943  -15.6726 N   0  0  0  0  0  0  0  0  0  0  0  0
   21.5705   -8.0834  -15.0516 C   0  0  0  0  0  0  0  0  0  0  0  0
   21.5613   -7.6969  -16.2486 O   0  0  0  0  0  0  0  0  0  0  0  0
   21.3441   -7.0939  -14.0666 N   0  0  0  0  0  0  0  0  0  0  0  0
   21.1384   -5.6928  -14.3989 C   0  0  1  0  0  0  0  0  0  0  0  0
   19.7692   -5.2229  -14.1349 C   0  0  0  0  0  0  0  0  0  0  0  0
   19.6474   -3.7371  -14.3237 C   0  0  0  0  0  0  0  0  0  0  0  0
   18.2667   -3.4042  -14.9473 C   0  0  0  0  0  0  0  0  0  0  0  0
   18.1401   -1.9212  -15.1552 C   0  0  0  0  0  0  0  0  0  0  0  0
   16.9216   -1.5733  -15.8590 N   0  0  0  0  0  0  0  0  0  0  0  0
   22.1946   -4.8651  -13.7900 C   0  0  0  0  0  0  0  0  0  0  0  0
   22.7035   -5.2372  -12.7015 O   0  0  0  0  0  0  0  0  0  0  0  0
   22.6825   -3.6968  -14.3254 O   0  0  0  0  0  0  0  0  0  0  0  0
  2  4  1  0
  2  1  1  0
  3  2  2  0
  5  6  1  1
  5  4  1  0
  7  8  2  0
  7  5  1  0
 10  9  1  6
 10 11  1  0
 10 12  1  0
 11  7  1  0
 12 14  1  0
 12 13  2  0
 14 15  1  0
 15 16  1  1
 15 21  1  0
 17 16  1  0
 18 17  1  0
 19 18  1  0
 20 19  1  0
 21 22  2  0
 21 23  1  0
M  END
$$$$
