NVH.pdb
     RDKit          3D

 26 26  0  0  1  0  0  0  0  0999 V2000
    6.4298  -19.6266   17.2770 N   0  0  0  0  0  0  0  0  0  0  0  0
    7.7230  -19.3984   16.7240 C   0  0  0  0  0  0  0  0  0  0  0  0
    7.9773  -19.8769   15.5642 O   0  0  0  0  0  0  0  0  0  0  0  0
    8.7594  -18.6353   17.4424 C   0  0  0  0  0  0  0  0  0  0  0  0
    8.3237  -17.1837   17.4330 C   0  0  2  0  0  0  0  0  0  0  0  0
    8.7077  -16.6682   16.1267 N   0  0  0  0  0  0  0  0  0  0  0  0
    8.9508  -16.4129   18.5310 C   0  0  0  0  0  0  0  0  0  0  0  0
   10.1985  -16.4164   18.6774 O   0  0  0  0  0  0  0  0  0  0  0  0
    7.6509  -12.9036   19.8295 C   0  0  0  0  0  0  0  0  0  0  0  0
    7.9267  -13.7768   21.0375 C   0  0  1  0  0  0  0  0  0  0  0  0
    6.5807  -14.3476   21.4433 C   0  0  0  0  0  0  0  0  0  0  0  0
    8.7831  -14.9297   20.5627 C   0  0  2  0  0  0  0  0  0  0  0  0
    8.1981  -15.6429   19.4548 N   0  0  0  0  0  0  0  0  0  0  0  0
    9.2130  -15.8160   21.6575 C   0  0  0  0  0  0  0  0  0  0  0  0
    8.6445  -16.8882   21.9758 O   0  0  0  0  0  0  0  0  0  0  0  0
   10.3657  -15.5030   22.4765 N   0  0  0  0  0  0  0  0  0  0  0  0
   10.7692  -16.3801   23.5441 C   0  0  1  0  0  0  0  0  0  0  0  0
   12.2627  -16.1159   23.7609 C   0  0  0  0  0  0  0  0  0  0  0  0
   13.0780  -16.6546   22.6559 C   0  0  0  0  0  0  0  0  0  0  0  0
   12.6483  -17.5826   21.7399 C   0  0  0  0  0  0  0  0  0  0  0  0
   13.6584  -17.8627   20.8613 N   0  0  0  0  0  0  0  0  0  0  0  0
   14.6954  -17.0945   21.2578 C   0  0  0  0  0  0  0  0  0  0  0  0
   14.3434  -16.3624   22.3455 N   0  0  0  0  0  0  0  0  0  0  0  0
   10.0164  -16.1763   24.8030 C   0  0  0  0  0  0  0  0  0  0  0  0
   10.1900  -17.0176   25.8779 O   0  0  0  0  0  0  0  0  0  0  0  0
    9.1913  -15.2325   24.9404 O   0  0  0  0  0  0  0  0  0  0  0  0
  2  3  2  0
  2  1  1  0
  4  2  1  0
  5  4  1  0
  5  7  1  0
  5  6  1  6
  7 13  1  0
  7  8  2  0
 10 11  1  6
 10  9  1  0
 12 10  1  0
 12 13  1  6
 14 12  1  0
 14 15  2  0
 16 14  1  0
 17 16  1  0
 17 18  1  1
 19 18  1  0
 20 19  2  0
 21 20  1  0
 22 21  1  0
 22 23  2  0
 23 19  1  0
 24 17  1  0
 25 24  1  0
 26 24  2  0
M  END
$$$$
