NVH.pdb
     RDKit          3D

 26 26  0  0  1  0  0  0  0  0999 V2000
    9.9723  -18.8944   15.8653 N   0  0  0  0  0  0  0  0  0  0  0  0
   10.4887  -18.7432   17.1846 C   0  0  0  0  0  0  0  0  0  0  0  0
   11.0121  -19.7657   17.7496 O   0  0  0  0  0  0  0  0  0  0  0  0
   10.4376  -17.4577   17.9039 C   0  0  0  0  0  0  0  0  0  0  0  0
    9.6728  -17.7020   19.1893 C   0  0  2  0  0  0  0  0  0  0  0  0
    8.2880  -17.9050   18.7884 N   0  0  0  0  0  0  0  0  0  0  0  0
    9.8081  -16.5704   20.1349 C   0  0  0  0  0  0  0  0  0  0  0  0
   10.9268  -16.2888   20.6324 O   0  0  0  0  0  0  0  0  0  0  0  0
    8.1178  -13.1292   19.8590 C   0  0  0  0  0  0  0  0  0  0  0  0
    7.8711  -13.5742   21.2870 C   0  0  1  0  0  0  0  0  0  0  0  0
    6.4461  -14.0951   21.3107 C   0  0  0  0  0  0  0  0  0  0  0  0
    8.7873  -14.7491   21.5479 C   0  0  2  0  0  0  0  0  0  0  0  0
    8.7111  -15.7579   20.5208 N   0  0  0  0  0  0  0  0  0  0  0  0
    8.6464  -15.2976   22.9073 C   0  0  0  0  0  0  0  0  0  0  0  0
    7.9081  -16.2638   23.2167 O   0  0  0  0  0  0  0  0  0  0  0  0
    9.3767  -14.7414   24.0275 N   0  0  0  0  0  0  0  0  0  0  0  0
    9.2072  -15.2748   25.3536 C   0  0  1  0  0  0  0  0  0  0  0  0
    7.6992  -15.2535   25.6236 C   0  0  0  0  0  0  0  0  0  0  0  0
    7.2259  -13.8996   25.9685 C   0  0  0  0  0  0  0  0  0  0  0  0
    8.0357  -12.8091   26.1676 C   0  0  0  0  0  0  0  0  0  0  0  0
    7.2702  -11.7189   26.4777 N   0  0  0  0  0  0  0  0  0  0  0  0
    5.9961  -12.1650   26.4615 C   0  0  0  0  0  0  0  0  0  0  0  0
    5.9695  -13.4868   26.1528 N   0  0  0  0  0  0  0  0  0  0  0  0
    9.7469  -16.6436   25.5218 C   0  0  0  0  0  0  0  0  0  0  0  0
   11.1031  -16.8752   25.5350 O   0  0  0  0  0  0  0  0  0  0  0  0
    8.9923  -17.6450   25.6572 O   0  0  0  0  0  0  0  0  0  0  0  0
  2  3  2  0
  2  1  1  0
  4  2  1  0
  5  4  1  0
  5  7  1  0
  5  6  1  6
  7 13  1  0
  7  8  2  0
 10 11  1  6
 10  9  1  0
 12 10  1  0
 12 13  1  6
 14 12  1  0
 14 15  2  0
 16 14  1  0
 17 16  1  0
 17 18  1  6
 19 18  1  0
 20 19  2  0
 21 20  1  0
 22 21  1  0
 22 23  2  0
 23 19  1  0
 24 17  1  0
 25 24  1  0
 26 24  2  0
M  END
$$$$
