NVH.pdb
     RDKit          3D

 26 26  0  0  1  0  0  0  0  0999 V2000
    8.5500  -16.7402   19.6571 N   0  0  0  0  0  0  0  0  0  0  0  0
    8.4363  -17.5931   20.7928 C   0  0  0  0  0  0  0  0  0  0  0  0
    7.9919  -18.7804   20.6149 O   0  0  0  0  0  0  0  0  0  0  0  0
    8.8134  -17.1498   22.1470 C   0  0  0  0  0  0  0  0  0  0  0  0
    9.1568  -15.6770   22.0489 C   0  0  2  0  0  0  0  0  0  0  0  0
   10.4064  -15.6151   21.3043 N   0  0  0  0  0  0  0  0  0  0  0  0
    9.2845  -15.0505   23.3846 C   0  0  0  0  0  0  0  0  0  0  0  0
   10.4154  -14.9037   23.9117 O   0  0  0  0  0  0  0  0  0  0  0  0
    5.9081  -13.9329   26.0258 C   0  0  0  0  0  0  0  0  0  0  0  0
    7.1126  -13.0578   25.7401 C   0  0  1  0  0  0  0  0  0  0  0  0
    7.4286  -12.3598   27.0498 C   0  0  0  0  0  0  0  0  0  0  0  0
    8.2676  -13.9840   25.4302 C   0  0  2  0  0  0  0  0  0  0  0  0
    8.1662  -14.5887   24.1253 N   0  0  0  0  0  0  0  0  0  0  0  0
    8.5243  -14.9618   26.5011 C   0  0  0  0  0  0  0  0  0  0  0  0
    8.5066  -14.7008   27.7283 O   0  0  0  0  0  0  0  0  0  0  0  0
    8.8269  -16.3468   26.2051 N   0  0  0  0  0  0  0  0  0  0  0  0
    8.9349  -17.3180   27.2619 C   0  0  1  0  0  0  0  0  0  0  0  0
    8.8849  -18.6881   26.5779 C   0  0  0  0  0  0  0  0  0  0  0  0
    7.7411  -18.7942   25.6524 C   0  0  0  0  0  0  0  0  0  0  0  0
    6.7226  -17.8793   25.5509 C   0  0  0  0  0  0  0  0  0  0  0  0
    5.8281  -18.2910   24.6016 N   0  0  0  0  0  0  0  0  0  0  0  0
    6.3197  -19.4586   24.1350 C   0  0  0  0  0  0  0  0  0  0  0  0
    7.4791  -19.7634   24.7721 N   0  0  0  0  0  0  0  0  0  0  0  0
   10.1671  -17.1858   28.0728 C   0  0  0  0  0  0  0  0  0  0  0  0
   10.3731  -17.9705   29.1840 O   0  0  0  0  0  0  0  0  0  0  0  0
   11.0699  -16.3548   27.7817 O   0  0  0  0  0  0  0  0  0  0  0  0
  2  3  2  0
  2  1  1  0
  4  2  1  0
  5  4  1  0
  5  7  1  0
  5  6  1  1
  7 13  1  0
  7  8  2  0
 10 11  1  1
 10  9  1  0
 12 10  1  0
 12 13  1  6
 14 12  1  0
 14 15  2  0
 16 14  1  0
 17 16  1  0
 17 18  1  6
 19 18  1  0
 20 19  2  0
 21 20  1  0
 22 21  1  0
 22 23  2  0
 23 19  1  0
 24 17  1  0
 25 24  1  0
 26 24  2  0
M  END
$$$$
