NVH.pdb
     RDKit          3D

 26 26  0  0  1  0  0  0  0  0999 V2000
   11.1759  -18.2224   16.7218 N   0  0  0  0  0  0  0  0  0  0  0  0
   10.3952  -18.4149   17.8981 C   0  0  0  0  0  0  0  0  0  0  0  0
    9.8545  -19.5603   18.0838 O   0  0  0  0  0  0  0  0  0  0  0  0
   10.1987  -17.3448   18.8925 C   0  0  0  0  0  0  0  0  0  0  0  0
   10.4302  -17.9630   20.2567 C   0  0  2  0  0  0  0  0  0  0  0  0
    9.3233  -18.8864   20.4611 N   0  0  0  0  0  0  0  0  0  0  0  0
   10.4910  -16.9376   21.3234 C   0  0  0  0  0  0  0  0  0  0  0  0
   11.4050  -16.0757   21.3245 O   0  0  0  0  0  0  0  0  0  0  0  0
    7.4546  -16.4313   24.4516 C   0  0  0  0  0  0  0  0  0  0  0  0
    8.2637  -15.3246   23.8044 C   0  0  1  0  0  0  0  0  0  0  0  0
    8.4877  -14.2932   24.8945 C   0  0  0  0  0  0  0  0  0  0  0  0
    9.6124  -15.9118   23.4522 C   0  0  2  0  0  0  0  0  0  0  0  0
    9.5429  -16.8693   22.3766 N   0  0  0  0  0  0  0  0  0  0  0  0
   10.3451  -16.4149   24.6265 C   0  0  0  0  0  0  0  0  0  0  0  0
   10.5146  -15.7755   25.6927 O   0  0  0  0  0  0  0  0  0  0  0  0
   10.9455  -17.7328   24.6366 N   0  0  0  0  0  0  0  0  0  0  0  0
   11.5877  -18.2392   25.8210 C   0  0  1  0  0  0  0  0  0  0  0  0
   12.9805  -17.6013   25.8470 C   0  0  0  0  0  0  0  0  0  0  0  0
   13.6538  -17.7079   24.5389 C   0  0  0  0  0  0  0  0  0  0  0  0
   13.4562  -18.7190   23.6315 C   0  0  0  0  0  0  0  0  0  0  0  0
   14.2429  -18.5101   22.5323 N   0  0  0  0  0  0  0  0  0  0  0  0
   14.9118  -17.3657   22.7883 C   0  0  0  0  0  0  0  0  0  0  0  0
   14.5547  -16.8797   24.0046 N   0  0  0  0  0  0  0  0  0  0  0  0
   10.8552  -17.9412   27.0731 C   0  0  0  0  0  0  0  0  0  0  0  0
   11.4655  -18.0677   28.2997 O   0  0  0  0  0  0  0  0  0  0  0  0
    9.6519  -17.5637   27.0670 O   0  0  0  0  0  0  0  0  0  0  0  0
  2  3  2  0
  2  1  1  0
  4  2  1  0
  5  4  1  0
  5  7  1  0
  5  6  1  1
  7 13  1  0
  7  8  2  0
 10 11  1  1
 10  9  1  0
 12 10  1  0
 12 13  1  6
 14 12  1  0
 14 15  2  0
 16 14  1  0
 17 16  1  0
 17 18  1  1
 19 18  1  0
 20 19  2  0
 21 20  1  0
 22 21  1  0
 22 23  2  0
 23 19  1  0
 24 17  1  0
 25 24  1  0
 26 24  2  0
M  END
$$$$
