NVH.pdb
     RDKit          3D

 26 26  0  0  1  0  0  0  0  0999 V2000
    7.8090  -12.8823   14.2426 N   0  0  0  0  0  0  0  0  0  0  0  0
    7.9626  -14.2729   13.9725 C   0  0  0  0  0  0  0  0  0  0  0  0
    8.7435  -14.6209   13.0197 O   0  0  0  0  0  0  0  0  0  0  0  0
    7.2565  -15.3055   14.7521 C   0  0  0  0  0  0  0  0  0  0  0  0
    8.3126  -16.0846   15.5100 C   0  0  2  0  0  0  0  0  0  0  0  0
    7.6043  -17.1840   16.1497 N   0  0  0  0  0  0  0  0  0  0  0  0
    9.0173  -15.2384   16.5001 C   0  0  0  0  0  0  0  0  0  0  0  0
   10.1874  -14.8394   16.2762 O   0  0  0  0  0  0  0  0  0  0  0  0
    7.5105  -12.7139   19.1683 C   0  0  0  0  0  0  0  0  0  0  0  0
    8.3533  -13.7248   19.9207 C   0  0  1  0  0  0  0  0  0  0  0  0
    7.3690  -14.7203   20.5060 C   0  0  0  0  0  0  0  0  0  0  0  0
    9.1838  -14.4599   18.8922 C   0  0  2  0  0  0  0  0  0  0  0  0
    8.4256  -14.8368   17.7254 N   0  0  0  0  0  0  0  0  0  0  0  0
    9.9534  -15.5767   19.4661 C   0  0  0  0  0  0  0  0  0  0  0  0
   10.0354  -16.7231   18.9628 O   0  0  0  0  0  0  0  0  0  0  0  0
   10.6992  -15.4277   20.6986 N   0  0  0  0  0  0  0  0  0  0  0  0
   12.1279  -15.6015   20.7192 C   0  0  1  0  0  0  0  0  0  0  0  0
   12.6837  -14.6211   19.6813 C   0  0  0  0  0  0  0  0  0  0  0  0
   14.1365  -14.7925   19.4921 C   0  0  0  0  0  0  0  0  0  0  0  0
   14.9119  -15.7186   20.1448 C   0  0  0  0  0  0  0  0  0  0  0  0
   16.2120  -15.5982   19.7375 N   0  0  0  0  0  0  0  0  0  0  0  0
   16.2085  -14.5938   18.8353 C   0  0  0  0  0  0  0  0  0  0  0  0
   14.9505  -14.1056   18.6868 N   0  0  0  0  0  0  0  0  0  0  0  0
   12.7413  -15.3590   22.0452 C   0  0  0  0  0  0  0  0  0  0  0  0
   13.9360  -15.9463   22.3926 O   0  0  0  0  0  0  0  0  0  0  0  0
   12.1981  -14.6117   22.9037 O   0  0  0  0  0  0  0  0  0  0  0  0
  2  3  2  0
  2  1  1  0
  4  2  1  0
  5  4  1  0
  5  7  1  0
  5  6  1  1
  7 13  1  0
  7  8  2  0
 10 11  1  6
 10  9  1  0
 12 10  1  0
 12 13  1  6
 14 12  1  0
 14 15  2  0
 16 14  1  0
 17 16  1  0
 17 18  1  6
 19 18  1  0
 20 19  2  0
 21 20  1  0
 22 21  1  0
 22 23  2  0
 23 19  1  0
 24 17  1  0
 25 24  1  0
 26 24  2  0
M  END
$$$$
