NVH.pdb
     RDKit          3D

 26 26  0  0  1  0  0  0  0  0999 V2000
    7.5544  -17.9910   19.7202 N   0  0  0  0  0  0  0  0  0  0  0  0
    7.0017  -17.2874   20.8292 C   0  0  0  0  0  0  0  0  0  0  0  0
    5.7491  -17.0240   20.8143 O   0  0  0  0  0  0  0  0  0  0  0  0
    7.8236  -16.8630   21.9768 C   0  0  0  0  0  0  0  0  0  0  0  0
    7.6975  -15.3560   22.0759 C   0  0  2  0  0  0  0  0  0  0  0  0
    8.2766  -14.8330   20.8468 N   0  0  0  0  0  0  0  0  0  0  0  0
    8.3847  -14.8229   23.2743 C   0  0  0  0  0  0  0  0  0  0  0  0
    9.6351  -14.8931   23.3733 O   0  0  0  0  0  0  0  0  0  0  0  0
    7.4197  -11.5532   25.2695 C   0  0  0  0  0  0  0  0  0  0  0  0
    7.5730  -12.6799   26.2722 C   0  0  1  0  0  0  0  0  0  0  0  0
    6.1659  -13.1795   26.5416 C   0  0  0  0  0  0  0  0  0  0  0  0
    8.3231  -13.7928   25.5746 C   0  0  2  0  0  0  0  0  0  0  0  0
    7.6888  -14.2145   24.3505 N   0  0  0  0  0  0  0  0  0  0  0  0
    8.6521  -14.9144   26.4704 C   0  0  0  0  0  0  0  0  0  0  0  0
    7.8271  -15.7618   26.8896 O   0  0  0  0  0  0  0  0  0  0  0  0
   10.0015  -15.1291   26.9506 N   0  0  0  0  0  0  0  0  0  0  0  0
   10.2838  -16.1604   27.9142 C   0  0  1  0  0  0  0  0  0  0  0  0
   11.5755  -16.8340   27.4398 C   0  0  0  0  0  0  0  0  0  0  0  0
   11.4181  -17.4336   26.1012 C   0  0  0  0  0  0  0  0  0  0  0  0
   10.2258  -17.5702   25.4346 C   0  0  0  0  0  0  0  0  0  0  0  0
   10.4418  -18.1716   24.2253 N   0  0  0  0  0  0  0  0  0  0  0  0
   11.7726  -18.3927   24.1728 C   0  0  0  0  0  0  0  0  0  0  0  0
   12.3641  -17.9454   25.3099 N   0  0  0  0  0  0  0  0  0  0  0  0
   10.4364  -15.6596   29.2995 C   0  0  0  0  0  0  0  0  0  0  0  0
   10.3616  -14.3147   29.5804 O   0  0  0  0  0  0  0  0  0  0  0  0
   10.6408  -16.4381   30.2704 O   0  0  0  0  0  0  0  0  0  0  0  0
  2  3  2  0
  2  1  1  0
  4  2  1  0
  5  4  1  0
  5  7  1  0
  5  6  1  6
  7 13  1  0
  7  8  2  0
 10 11  1  6
 10  9  1  0
 12 10  1  0
 12 13  1  6
 14 12  1  0
 14 15  2  0
 16 14  1  0
 17 16  1  0
 17 18  1  6
 19 18  1  0
 20 19  2  0
 21 20  1  0
 22 21  1  0
 22 23  2  0
 23 19  1  0
 24 17  1  0
 25 24  1  0
 26 24  2  0
M  END
$$$$
