NVH.pdb
     RDKit          3D

 26 26  0  0  1  0  0  0  0  0999 V2000
    6.2751  -17.2941   19.8636 N   0  0  0  0  0  0  0  0  0  0  0  0
    7.6964  -17.3805   19.9166 C   0  0  0  0  0  0  0  0  0  0  0  0
    8.3194  -17.7456   18.8596 O   0  0  0  0  0  0  0  0  0  0  0  0
    8.4560  -17.0633   21.1392 C   0  0  0  0  0  0  0  0  0  0  0  0
    7.9311  -15.7376   21.6527 C   0  0  2  0  0  0  0  0  0  0  0  0
    8.2639  -14.7606   20.6259 N   0  0  0  0  0  0  0  0  0  0  0  0
    8.5245  -15.3792   22.9613 C   0  0  0  0  0  0  0  0  0  0  0  0
    9.6181  -15.8816   23.3216 O   0  0  0  0  0  0  0  0  0  0  0  0
    6.3493  -13.4531   26.1896 C   0  0  0  0  0  0  0  0  0  0  0  0
    7.7378  -12.9775   25.8101 C   0  0  1  0  0  0  0  0  0  0  0  0
    8.4443  -12.6947   27.1228 C   0  0  0  0  0  0  0  0  0  0  0  0
    8.4424  -14.1469   25.1591 C   0  0  2  0  0  0  0  0  0  0  0  0
    7.9095  -14.4687   23.8588 N   0  0  0  0  0  0  0  0  0  0  0  0
    8.5508  -15.3186   26.0447 C   0  0  0  0  0  0  0  0  0  0  0  0
    7.5786  -15.9933   26.4618 O   0  0  0  0  0  0  0  0  0  0  0  0
    9.8346  -15.7951   26.5161 N   0  0  0  0  0  0  0  0  0  0  0  0
    9.9140  -16.8351   27.5079 C   0  0  1  0  0  0  0  0  0  0  0  0
   11.0712  -17.7403   27.0734 C   0  0  0  0  0  0  0  0  0  0  0  0
   10.7578  -18.4666   25.8283 C   0  0  0  0  0  0  0  0  0  0  0  0
    9.5621  -18.3993   25.1570 C   0  0  0  0  0  0  0  0  0  0  0  0
    9.6113  -19.2007   24.0496 N   0  0  0  0  0  0  0  0  0  0  0  0
   10.8457  -19.7471   24.0628 C   0  0  0  0  0  0  0  0  0  0  0  0
   11.5404  -19.3020   25.1410 N   0  0  0  0  0  0  0  0  0  0  0  0
   10.1335  -16.3342   28.8842 C   0  0  0  0  0  0  0  0  0  0  0  0
   10.1143  -17.1891   29.9622 O   0  0  0  0  0  0  0  0  0  0  0  0
   10.3438  -15.1139   29.1232 O   0  0  0  0  0  0  0  0  0  0  0  0
  2  3  2  0
  2  1  1  0
  4  2  1  0
  5  4  1  0
  5  7  1  0
  5  6  1  6
  7 13  1  0
  7  8  2  0
 10 11  1  1
 10  9  1  0
 12 10  1  0
 12 13  1  6
 14 12  1  0
 14 15  2  0
 16 14  1  0
 17 16  1  0
 17 18  1  6
 19 18  1  0
 20 19  2  0
 21 20  1  0
 22 21  1  0
 22 23  2  0
 23 19  1  0
 24 17  1  0
 25 24  1  0
 26 24  2  0
M  END
$$$$
