NVH.pdb
     RDKit          3D

 26 26  0  0  1  0  0  0  0  0999 V2000
    6.6302  -18.8610   18.5018 N   0  0  0  0  0  0  0  0  0  0  0  0
    6.3095  -18.0683   19.6416 C   0  0  0  0  0  0  0  0  0  0  0  0
    5.1237  -17.5951   19.7344 O   0  0  0  0  0  0  0  0  0  0  0  0
    7.2938  -17.7851   20.7016 C   0  0  0  0  0  0  0  0  0  0  0  0
    7.5338  -16.2888   20.6918 C   0  0  2  0  0  0  0  0  0  0  0  0
    8.1795  -16.0042   19.4183 N   0  0  0  0  0  0  0  0  0  0  0  0
    8.3679  -15.8567   21.8365 C   0  0  0  0  0  0  0  0  0  0  0  0
    9.6176  -15.9786   21.7934 O   0  0  0  0  0  0  0  0  0  0  0  0
    7.9680  -12.6454   23.8714 C   0  0  0  0  0  0  0  0  0  0  0  0
    8.0992  -13.7428   24.9090 C   0  0  1  0  0  0  0  0  0  0  0  0
    6.6853  -14.0307   25.3783 C   0  0  0  0  0  0  0  0  0  0  0  0
    8.5969  -14.9755   24.1874 C   0  0  2  0  0  0  0  0  0  0  0  0
    7.8183  -15.2915   23.0159 N   0  0  0  0  0  0  0  0  0  0  0  0
    8.7864  -16.1291   25.0831 C   0  0  0  0  0  0  0  0  0  0  0  0
    7.8583  -16.8292   25.5550 O   0  0  0  0  0  0  0  0  0  0  0  0
   10.1064  -16.5552   25.4997 N   0  0  0  0  0  0  0  0  0  0  0  0
   10.2739  -17.7052   26.3490 C   0  0  1  0  0  0  0  0  0  0  0  0
   11.6102  -18.3347   25.9422 C   0  0  0  0  0  0  0  0  0  0  0  0
   11.5649  -18.8707   24.5686 C   0  0  0  0  0  0  0  0  0  0  0  0
   10.4608  -18.8548   23.7530 C   0  0  0  0  0  0  0  0  0  0  0  0
   10.7669  -19.4375   22.5540 N   0  0  0  0  0  0  0  0  0  0  0  0
   12.0629  -19.8012   22.6580 C   0  0  0  0  0  0  0  0  0  0  0  0
   12.5464  -19.4576   23.8791 N   0  0  0  0  0  0  0  0  0  0  0  0
   10.2673  -17.3871   27.7953 C   0  0  0  0  0  0  0  0  0  0  0  0
   10.3253  -18.3843   28.7416 O   0  0  0  0  0  0  0  0  0  0  0  0
   10.2072  -16.1997   28.2159 O   0  0  0  0  0  0  0  0  0  0  0  0
  2  3  2  0
  2  1  1  0
  4  2  1  0
  5  4  1  0
  5  7  1  0
  5  6  1  6
  7 13  1  0
  7  8  2  0
 10 11  1  6
 10  9  1  0
 12 10  1  0
 12 13  1  6
 14 12  1  0
 14 15  2  0
 16 14  1  0
 17 16  1  0
 17 18  1  6
 19 18  1  0
 20 19  2  0
 21 20  1  0
 22 21  1  0
 22 23  2  0
 23 19  1  0
 24 17  1  0
 25 24  1  0
 26 24  2  0
M  END
$$$$
