NVH.pdb
     RDKit          3D

 26 26  0  0  1  0  0  0  0  0999 V2000
    9.3158  -19.7976   15.8520 N   0  0  0  0  0  0  0  0  0  0  0  0
    9.6424  -18.5287   15.2921 C   0  0  0  0  0  0  0  0  0  0  0  0
   10.1338  -18.4980   14.1104 O   0  0  0  0  0  0  0  0  0  0  0  0
    9.4306  -17.2692   16.0279 C   0  0  0  0  0  0  0  0  0  0  0  0
    8.9812  -17.6455   17.4255 C   0  0  2  0  0  0  0  0  0  0  0  0
    7.5348  -17.7915   17.3457 N   0  0  0  0  0  0  0  0  0  0  0  0
    9.3735  -16.6250   18.4242 C   0  0  0  0  0  0  0  0  0  0  0  0
   10.5718  -16.5182   18.7860 O   0  0  0  0  0  0  0  0  0  0  0  0
    6.4796  -14.4085   20.8583 C   0  0  0  0  0  0  0  0  0  0  0  0
    7.7445  -13.7666   20.3234 C   0  0  1  0  0  0  0  0  0  0  0  0
    8.2539  -12.8766   21.4417 C   0  0  0  0  0  0  0  0  0  0  0  0
    8.7550  -14.8756   20.1310 C   0  0  2  0  0  0  0  0  0  0  0  0
    8.4432  -15.7298   19.0122 N   0  0  0  0  0  0  0  0  0  0  0  0
    9.0308  -15.6237   21.3691 C   0  0  0  0  0  0  0  0  0  0  0  0
    8.3200  -16.5563   21.8156 O   0  0  0  0  0  0  0  0  0  0  0  0
   10.1850  -15.3265   22.1920 N   0  0  0  0  0  0  0  0  0  0  0  0
   10.3643  -15.9698   23.4671 C   0  0  1  0  0  0  0  0  0  0  0  0
   11.8421  -15.7834   23.8256 C   0  0  0  0  0  0  0  0  0  0  0  0
   12.7150  -16.6459   23.0070 C   0  0  0  0  0  0  0  0  0  0  0  0
   12.2748  -17.6051   22.1291 C   0  0  0  0  0  0  0  0  0  0  0  0
   13.3476  -18.2199   21.5444 N   0  0  0  0  0  0  0  0  0  0  0  0
   14.4331  -17.6205   22.0782 C   0  0  0  0  0  0  0  0  0  0  0  0
   14.0495  -16.6665   22.9647 N   0  0  0  0  0  0  0  0  0  0  0  0
    9.4965  -15.4282   24.5380 C   0  0  0  0  0  0  0  0  0  0  0  0
    9.3196  -16.1091   25.7205 O   0  0  0  0  0  0  0  0  0  0  0  0
    8.8881  -14.3308   24.4111 O   0  0  0  0  0  0  0  0  0  0  0  0
  2  3  2  0
  2  1  1  0
  4  2  1  0
  5  4  1  0
  5  7  1  0
  5  6  1  6
  7 13  1  0
  7  8  2  0
 10 11  1  1
 10  9  1  0
 12 10  1  0
 12 13  1  6
 14 12  1  0
 14 15  2  0
 16 14  1  0
 17 16  1  0
 17 18  1  1
 19 18  1  0
 20 19  2  0
 21 20  1  0
 22 21  1  0
 22 23  2  0
 23 19  1  0
 24 17  1  0
 25 24  1  0
 26 24  2  0
M  END
$$$$
