NVH.pdb
     RDKit          3D

 26 26  0  0  1  0  0  0  0  0999 V2000
    6.2641  -20.0252   17.2497 N   0  0  0  0  0  0  0  0  0  0  0  0
    7.6671  -20.1040   17.0138 C   0  0  0  0  0  0  0  0  0  0  0  0
    8.0854  -20.9252   16.1254 O   0  0  0  0  0  0  0  0  0  0  0  0
    8.6344  -19.2748   17.7550 C   0  0  0  0  0  0  0  0  0  0  0  0
    8.2642  -17.8282   17.4962 C   0  0  2  0  0  0  0  0  0  0  0  0
    8.7798  -17.5235   16.1692 N   0  0  0  0  0  0  0  0  0  0  0  0
    8.8282  -16.9225   18.5232 C   0  0  0  0  0  0  0  0  0  0  0  0
    9.9973  -17.0953   18.9492 O   0  0  0  0  0  0  0  0  0  0  0  0
    6.4629  -14.1930   20.9317 C   0  0  0  0  0  0  0  0  0  0  0  0
    7.7645  -13.7319   20.3060 C   0  0  1  0  0  0  0  0  0  0  0  0
    8.4460  -12.8828   21.3628 C   0  0  0  0  0  0  0  0  0  0  0  0
    8.6154  -14.9651   20.0977 C   0  0  2  0  0  0  0  0  0  0  0  0
    8.1005  -15.8336   19.0685 N   0  0  0  0  0  0  0  0  0  0  0  0
    8.9184  -15.6736   21.3527 C   0  0  0  0  0  0  0  0  0  0  0  0
    8.1464  -16.4816   21.9232 O   0  0  0  0  0  0  0  0  0  0  0  0
   10.1759  -15.4823   22.0453 N   0  0  0  0  0  0  0  0  0  0  0  0
   10.4347  -16.1457   23.2962 C   0  0  1  0  0  0  0  0  0  0  0  0
   11.9597  -16.1972   23.4348 C   0  0  0  0  0  0  0  0  0  0  0  0
   12.5693  -17.0850   22.4268 C   0  0  0  0  0  0  0  0  0  0  0  0
   12.1939  -18.3845   22.1917 C   0  0  0  0  0  0  0  0  0  0  0  0
   12.9695  -18.9140   21.1973 N   0  0  0  0  0  0  0  0  0  0  0  0
   13.8110  -17.9213   20.8384 C   0  0  0  0  0  0  0  0  0  0  0  0
   13.5683  -16.8128   21.5837 N   0  0  0  0  0  0  0  0  0  0  0  0
    9.8280  -15.4724   24.4675 C   0  0  0  0  0  0  0  0  0  0  0  0
    9.8571  -16.0539   25.7142 O   0  0  0  0  0  0  0  0  0  0  0  0
    9.2634  -14.3488   24.3713 O   0  0  0  0  0  0  0  0  0  0  0  0
  2  3  2  0
  2  1  1  0
  4  2  1  0
  5  4  1  0
  5  7  1  0
  5  6  1  6
  7 13  1  0
  7  8  2  0
 10 11  1  1
 10  9  1  0
 12 10  1  0
 12 13  1  6
 14 12  1  0
 14 15  2  0
 16 14  1  0
 17 16  1  0
 17 18  1  1
 19 18  1  0
 20 19  2  0
 21 20  1  0
 22 21  1  0
 22 23  2  0
 23 19  1  0
 24 17  1  0
 25 24  1  0
 26 24  2  0
M  END
$$$$
