NVH.pdb
     RDKit          3D

 26 26  0  0  1  0  0  0  0  0999 V2000
    6.0126  -18.3096   25.3600 N   0  0  0  0  0  0  0  0  0  0  0  0
    6.3266  -19.0233   24.1673 C   0  0  0  0  0  0  0  0  0  0  0  0
    6.0089  -20.2617   24.1027 O   0  0  0  0  0  0  0  0  0  0  0  0
    6.9965  -18.3805   23.0225 C   0  0  0  0  0  0  0  0  0  0  0  0
    6.3969  -16.9958   22.8817 C   0  0  2  0  0  0  0  0  0  0  0  0
    6.0331  -16.8676   21.4778 N   0  0  0  0  0  0  0  0  0  0  0  0
    7.3464  -15.9388   23.2992 C   0  0  0  0  0  0  0  0  0  0  0  0
    8.3011  -15.6112   22.5512 O   0  0  0  0  0  0  0  0  0  0  0  0
    6.3403  -12.6610   24.8418 C   0  0  0  0  0  0  0  0  0  0  0  0
    7.5115  -13.0992   25.6987 C   0  0  1  0  0  0  0  0  0  0  0  0
    6.9000  -13.6463   26.9751 C   0  0  0  0  0  0  0  0  0  0  0  0
    8.1747  -14.2548   24.9826 C   0  0  2  0  0  0  0  0  0  0  0  0
    7.2334  -15.2507   24.5346 N   0  0  0  0  0  0  0  0  0  0  0  0
    9.3046  -14.8255   25.7351 C   0  0  0  0  0  0  0  0  0  0  0  0
    9.3594  -14.9163   26.9853 O   0  0  0  0  0  0  0  0  0  0  0  0
   10.4782  -15.3427   25.0621 N   0  0  0  0  0  0  0  0  0  0  0  0
   11.2525  -16.4058   25.6469 C   0  0  1  0  0  0  0  0  0  0  0  0
   10.3194  -17.6196   25.7060 C   0  0  0  0  0  0  0  0  0  0  0  0
   10.0380  -18.0240   27.0963 C   0  0  0  0  0  0  0  0  0  0  0  0
   10.5348  -17.4004   28.2139 C   0  0  0  0  0  0  0  0  0  0  0  0
   10.0798  -18.0369   29.3358 N   0  0  0  0  0  0  0  0  0  0  0  0
    9.3061  -19.0455   28.8810 C   0  0  0  0  0  0  0  0  0  0  0  0
    9.2809  -19.0375   27.5237 N   0  0  0  0  0  0  0  0  0  0  0  0
   12.4849  -16.7328   24.8936 C   0  0  0  0  0  0  0  0  0  0  0  0
   13.5042  -17.4497   25.4771 O   0  0  0  0  0  0  0  0  0  0  0  0
   12.6504  -16.3699   23.6972 O   0  0  0  0  0  0  0  0  0  0  0  0
  2  3  2  0
  2  1  1  0
  4  2  1  0
  5  4  1  0
  5  7  1  0
  5  6  1  6
  7 13  1  0
  7  8  2  0
 10 11  1  1
 10  9  1  0
 12 10  1  0
 12 13  1  1
 14 12  1  0
 14 15  2  0
 16 14  1  0
 17 16  1  0
 17 18  1  6
 19 18  1  0
 20 19  2  0
 21 20  1  0
 22 21  1  0
 22 23  2  0
 23 19  1  0
 24 17  1  0
 25 24  1  0
 26 24  2  0
M  END
$$$$
