NVH.pdb
     RDKit          3D

 26 26  0  0  1  0  0  0  0  0999 V2000
    9.1946  -17.8109   13.8732 N   0  0  0  0  0  0  0  0  0  0  0  0
    9.7387  -18.1080   15.1562 C   0  0  0  0  0  0  0  0  0  0  0  0
    9.9848  -19.3319   15.4395 O   0  0  0  0  0  0  0  0  0  0  0  0
   10.0224  -17.0571   16.1499 C   0  0  0  0  0  0  0  0  0  0  0  0
    9.3371  -17.4709   17.4368 C   0  0  2  0  0  0  0  0  0  0  0  0
    7.9250  -17.5965   17.1056 N   0  0  0  0  0  0  0  0  0  0  0  0
    9.5591  -16.4867   18.5207 C   0  0  0  0  0  0  0  0  0  0  0  0
   10.7221  -16.2420   18.9280 O   0  0  0  0  0  0  0  0  0  0  0  0
    7.8683  -13.1999   21.7863 C   0  0  0  0  0  0  0  0  0  0  0  0
    7.5131  -14.0304   20.5687 C   0  0  1  0  0  0  0  0  0  0  0  0
    7.4943  -13.0581   19.4040 C   0  0  0  0  0  0  0  0  0  0  0  0
    8.6594  -14.9902   20.3392 C   0  0  2  0  0  0  0  0  0  0  0  0
    8.4988  -15.7789   19.1432 N   0  0  0  0  0  0  0  0  0  0  0  0
    8.9775  -15.8008   21.5269 C   0  0  0  0  0  0  0  0  0  0  0  0
    8.3037  -16.7812   21.9261 O   0  0  0  0  0  0  0  0  0  0  0  0
   10.1336  -15.5151   22.3511 N   0  0  0  0  0  0  0  0  0  0  0  0
   10.4286  -16.3188   23.5081 C   0  0  1  0  0  0  0  0  0  0  0  0
   11.9560  -16.3356   23.6275 C   0  0  0  0  0  0  0  0  0  0  0  0
   12.5687  -17.2633   22.6580 C   0  0  0  0  0  0  0  0  0  0  0  0
   11.8732  -18.0635   21.7858 C   0  0  0  0  0  0  0  0  0  0  0  0
   12.7507  -18.7995   21.0381 N   0  0  0  0  0  0  0  0  0  0  0  0
   13.9766  -18.4328   21.4687 C   0  0  0  0  0  0  0  0  0  0  0  0
   13.8660  -17.5018   22.4505 N   0  0  0  0  0  0  0  0  0  0  0  0
    9.8143  -15.8163   24.7584 C   0  0  0  0  0  0  0  0  0  0  0  0
    9.8112  -16.5785   25.9039 O   0  0  0  0  0  0  0  0  0  0  0  0
    9.2722  -14.6795   24.8240 O   0  0  0  0  0  0  0  0  0  0  0  0
  2  3  2  0
  2  1  1  0
  4  2  1  0
  5  4  1  0
  5  7  1  0
  5  6  1  6
  7 13  1  0
  7  8  2  0
 10 11  1  6
 10  9  1  0
 12 10  1  0
 12 13  1  6
 14 12  1  0
 14 15  2  0
 16 14  1  0
 17 16  1  0
 17 18  1  1
 19 18  1  0
 20 19  2  0
 21 20  1  0
 22 21  1  0
 22 23  2  0
 23 19  1  0
 24 17  1  0
 25 24  1  0
 26 24  2  0
M  END
$$$$
