QNP.pdb
     RDKit          3D

 25 25  0  0  1  0  0  0  0  0999 V2000
   10.6582  -13.5317   18.4921 N   0  0  0  0  0  0  0  0  0  0  0  0
   10.2244  -12.7752   19.6360 C   0  0  0  0  0  0  0  0  0  0  0  0
   11.0920  -12.2024   20.3447 O   0  0  0  0  0  0  0  0  0  0  0  0
    8.7794  -12.7018   19.9296 C   0  0  0  0  0  0  0  0  0  0  0  0
    8.0352  -13.7984   19.2543 C   0  0  0  0  0  0  0  0  0  0  0  0
    8.1589  -15.1489   19.9175 C   0  0  2  0  0  0  0  0  0  0  0  0
    7.3499  -16.0607   19.0921 N   0  0  0  0  0  0  0  0  0  0  0  0
    7.5290  -15.1504   21.2660 C   0  0  0  0  0  0  0  0  0  0  0  0
    6.2756  -15.0215   21.4217 O   0  0  0  0  0  0  0  0  0  0  0  0
    5.6256  -17.9086   25.3458 N   0  0  0  0  0  0  0  0  0  0  0  0
    6.9783  -17.5441   25.1819 C   0  0  0  0  0  0  0  0  0  0  0  0
    7.8297  -17.5193   26.0969 O   0  0  0  0  0  0  0  0  0  0  0  0
    7.4304  -17.1535   23.7915 C   0  0  0  0  0  0  0  0  0  0  0  0
    7.6766  -15.6621   23.7481 C   0  0  2  0  0  0  0  0  0  0  0  0
    8.2787  -15.2950   22.4596 N   0  0  0  0  0  0  0  0  0  0  0  0
    8.4627  -15.1393   24.8629 C   0  0  0  0  0  0  0  0  0  0  0  0
    9.6372  -15.6343   24.9961 O   0  0  0  0  0  0  0  0  0  0  0  0
    8.0742  -14.1546   25.8033 N   0  0  0  0  0  0  0  0  0  0  0  0
    6.7392  -13.5287   25.6682 C   0  0  0  0  0  0  0  0  0  0  0  0
    6.3763  -13.1967   27.0875 C   0  0  0  0  0  0  0  0  0  0  0  0
    7.6922  -12.5319   27.5193 C   0  0  0  0  0  0  0  0  0  0  0  0
    8.7077  -13.5542   26.9264 C   0  0  1  0  0  0  0  0  0  0  0  0
    9.0928  -14.4902   28.0083 C   0  0  0  0  0  0  0  0  0  0  0  0
    9.9882  -14.1097   28.9862 O   0  0  0  0  0  0  0  0  0  0  0  0
    8.6107  -15.6317   28.0440 O   0  0  0  0  0  0  0  0  0  0  0  0
  2  1  1  0
  2  3  2  0
  4  2  1  0
  5  4  1  0
  6  5  1  0
  6  7  1  6
  8  6  1  0
  8 15  1  0
  9  8  2  0
 11 10  1  0
 11 13  1  0
 12 11  2  0
 14 13  1  1
 14 15  1  0
 16 14  1  0
 17 16  2  0
 18 16  1  0
 18 22  1  0
 19 20  1  0
 19 18  1  0
 20 21  1  0
 22 21  1  0
 23 24  1  0
 22 23  1  1
 25 23  2  0
M  END
$$$$
