QNP.pdb
     RDKit          3D

 25 25  0  0  1  0  0  0  0  0999 V2000
   17.3462  -26.1273   20.6042 N   0  0  0  0  0  0  0  0  0  0  0  0
   16.4129  -26.3975   19.5436 C   0  0  0  0  0  0  0  0  0  0  0  0
   16.8509  -26.8573   18.4574 O   0  0  0  0  0  0  0  0  0  0  0  0
   14.9804  -26.1252   19.7746 C   0  0  0  0  0  0  0  0  0  0  0  0
   14.2904  -27.3134   20.3442 C   0  0  0  0  0  0  0  0  0  0  0  0
   12.8126  -27.1288   20.5912 C   0  0  2  0  0  0  0  0  0  0  0  0
   12.1896  -27.1697   19.2580 N   0  0  0  0  0  0  0  0  0  0  0  0
   12.5192  -25.7761   21.1384 C   0  0  0  0  0  0  0  0  0  0  0  0
   13.2862  -24.7862   20.9289 O   0  0  0  0  0  0  0  0  0  0  0  0
    9.1994  -21.4842   21.7069 N   0  0  0  0  0  0  0  0  0  0  0  0
    9.2311  -22.4981   22.6870 C   0  0  0  0  0  0  0  0  0  0  0  0
    9.0115  -22.3242   23.9053 O   0  0  0  0  0  0  0  0  0  0  0  0
    9.5564  -23.9022   22.2256 C   0  0  0  0  0  0  0  0  0  0  0  0
   11.0350  -24.1583   22.4129 C   0  0  2  0  0  0  0  0  0  0  0  0
   11.3725  -25.5018   21.9242 N   0  0  0  0  0  0  0  0  0  0  0  0
   11.5229  -23.9572   23.7751 C   0  0  0  0  0  0  0  0  0  0  0  0
   11.2851  -24.9105   24.5977 O   0  0  0  0  0  0  0  0  0  0  0  0
   12.2236  -22.8360   24.2819 N   0  0  0  0  0  0  0  0  0  0  0  0
   12.6103  -21.7556   23.3462 C   0  0  0  0  0  0  0  0  0  0  0  0
   12.5950  -20.5321   24.2175 C   0  0  0  0  0  0  0  0  0  0  0  0
   13.3937  -21.0802   25.4098 C   0  0  0  0  0  0  0  0  0  0  0  0
   12.7047  -22.4687   25.5691 C   0  0  1  0  0  0  0  0  0  0  0  0
   11.6662  -22.3419   26.6180 C   0  0  0  0  0  0  0  0  0  0  0  0
   12.0137  -22.2676   27.9508 O   0  0  0  0  0  0  0  0  0  0  0  0
   10.4675  -22.3017   26.3047 O   0  0  0  0  0  0  0  0  0  0  0  0
  2  1  1  0
  2  3  2  0
  4  2  1  0
  5  4  1  0
  6  5  1  0
  6  7  1  6
  8  6  1  0
  8 15  1  0
  9  8  2  0
 11 10  1  0
 11 13  1  0
 12 11  2  0
 14 13  1  1
 14 15  1  0
 16 14  1  0
 17 16  2  0
 18 16  1  0
 18 22  1  0
 19 20  1  0
 19 18  1  0
 20 21  1  0
 22 21  1  0
 23 24  1  0
 22 23  1  1
 25 23  2  0
M  END
$$$$
