QNP.pdb
     RDKit          3D

 25 25  0  0  1  0  0  0  0  0999 V2000
    9.9993  -12.6205   19.9108 N   0  0  0  0  0  0  0  0  0  0  0  0
    8.5907  -12.6810   19.6257 C   0  0  0  0  0  0  0  0  0  0  0  0
    7.9306  -11.6099   19.6171 O   0  0  0  0  0  0  0  0  0  0  0  0
    7.9792  -13.9971   19.3542 C   0  0  0  0  0  0  0  0  0  0  0  0
    8.9864  -15.0882   19.4409 C   0  0  0  0  0  0  0  0  0  0  0  0
    8.5193  -16.3237   20.1718 C   0  0  2  0  0  0  0  0  0  0  0  0
    7.6487  -17.0310   19.2185 N   0  0  0  0  0  0  0  0  0  0  0  0
    7.6555  -15.9732   21.3320 C   0  0  0  0  0  0  0  0  0  0  0  0
    6.3945  -16.1170   21.2980 O   0  0  0  0  0  0  0  0  0  0  0  0
    5.4892  -17.2794   25.7002 N   0  0  0  0  0  0  0  0  0  0  0  0
    6.8511  -17.5069   25.4121 C   0  0  0  0  0  0  0  0  0  0  0  0
    7.6961  -17.9283   26.2313 O   0  0  0  0  0  0  0  0  0  0  0  0
    7.3223  -17.2177   24.0034 C   0  0  0  0  0  0  0  0  0  0  0  0
    7.5783  -15.7343   23.8583 C   0  0  2  0  0  0  0  0  0  0  0  0
    8.1768  -15.4594   22.5452 N   0  0  0  0  0  0  0  0  0  0  0  0
    8.3731  -15.1429   24.9318 C   0  0  0  0  0  0  0  0  0  0  0  0
    9.5545  -15.6179   25.0760 O   0  0  0  0  0  0  0  0  0  0  0  0
    7.9862  -14.1119   25.8218 N   0  0  0  0  0  0  0  0  0  0  0  0
    6.6411  -13.5109   25.6734 C   0  0  0  0  0  0  0  0  0  0  0  0
    6.2957  -13.1044   27.0776 C   0  0  0  0  0  0  0  0  0  0  0  0
    7.6092  -12.4003   27.4504 C   0  0  0  0  0  0  0  0  0  0  0  0
    8.6289  -13.4418   26.8993 C   0  0  1  0  0  0  0  0  0  0  0  0
    9.0428  -14.3108   28.0254 C   0  0  0  0  0  0  0  0  0  0  0  0
    9.9809  -13.8818   28.9412 O   0  0  0  0  0  0  0  0  0  0  0  0
    8.5464  -15.4394   28.1551 O   0  0  0  0  0  0  0  0  0  0  0  0
  2  1  1  0
  2  3  2  0
  4  2  1  0
  5  4  1  0
  6  5  1  0
  6  7  1  6
  8  6  1  0
  8 15  1  0
  9  8  2  0
 11 10  1  0
 11 13  1  0
 12 11  2  0
 14 13  1  1
 14 15  1  0
 16 14  1  0
 17 16  2  0
 18 16  1  0
 18 22  1  0
 19 20  1  0
 19 18  1  0
 20 21  1  0
 22 21  1  0
 23 24  1  0
 22 23  1  1
 25 23  2  0
M  END
$$$$
