QNP.pdb
     RDKit          3D

 25 25  0  0  1  0  0  0  0  0999 V2000
   12.1858  -18.7531   24.2484 N   0  0  0  0  0  0  0  0  0  0  0  0
   11.1491  -19.3316   23.4363 C   0  0  0  0  0  0  0  0  0  0  0  0
   10.0865  -19.7099   23.9939 O   0  0  0  0  0  0  0  0  0  0  0  0
   11.3750  -19.4560   21.9826 C   0  0  0  0  0  0  0  0  0  0  0  0
   10.2514  -18.8628   21.2093 C   0  0  0  0  0  0  0  0  0  0  0  0
   10.5676  -17.5452   20.5437 C   0  0  2  0  0  0  0  0  0  0  0  0
   12.0372  -17.4857   20.4824 N   0  0  0  0  0  0  0  0  0  0  0  0
   10.1467  -16.3955   21.3900 C   0  0  0  0  0  0  0  0  0  0  0  0
   10.8943  -15.9231   22.3010 O   0  0  0  0  0  0  0  0  0  0  0  0
    6.9094  -13.8582   18.9737 N   0  0  0  0  0  0  0  0  0  0  0  0
    7.6575  -13.4166   20.0849 C   0  0  0  0  0  0  0  0  0  0  0  0
    8.6192  -12.6197   20.0303 O   0  0  0  0  0  0  0  0  0  0  0  0
    7.2641  -13.9500   21.4453 C   0  0  0  0  0  0  0  0  0  0  0  0
    8.4575  -14.6297   22.0782 C   0  0  2  0  0  0  0  0  0  0  0  0
    8.8926  -15.7536   21.2384 N   0  0  0  0  0  0  0  0  0  0  0  0
    8.2570  -15.0547   23.4614 C   0  0  0  0  0  0  0  0  0  0  0  0
    8.5064  -16.2876   23.7064 O   0  0  0  0  0  0  0  0  0  0  0  0
    7.8222  -14.2622   24.5512 N   0  0  0  0  0  0  0  0  0  0  0  0
    7.5636  -12.8219   24.3255 C   0  0  0  0  0  0  0  0  0  0  0  0
    6.4847  -12.5117   25.3235 C   0  0  0  0  0  0  0  0  0  0  0  0
    7.1072  -13.1773   26.5601 C   0  0  0  0  0  0  0  0  0  0  0  0
    7.5701  -14.5235   25.9265 C   0  0  1  0  0  0  0  0  0  0  0  0
    6.5214  -15.5350   26.1942 C   0  0  0  0  0  0  0  0  0  0  0  0
    6.4724  -16.1992   27.4022 O   0  0  0  0  0  0  0  0  0  0  0  0
    5.6730  -15.7955   25.3287 O   0  0  0  0  0  0  0  0  0  0  0  0
  2  1  1  0
  2  3  2  0
  4  2  1  0
  5  4  1  0
  6  5  1  0
  6  7  1  1
  8  6  1  0
  8 15  1  0
  9  8  2  0
 11 10  1  0
 11 13  1  0
 12 11  2  0
 14 13  1  6
 14 15  1  0
 16 14  1  0
 17 16  2  0
 18 16  1  0
 18 22  1  0
 19 20  1  0
 19 18  1  0
 20 21  1  0
 22 21  1  0
 23 24  1  0
 22 23  1  6
 25 23  2  0
M  END
$$$$
