QNP.pdb
     RDKit          3D

 25 25  0  0  1  0  0  0  0  0999 V2000
   10.6180  -13.3014   19.6734 N   0  0  0  0  0  0  0  0  0  0  0  0
    9.8425  -13.3547   18.4631 C   0  0  0  0  0  0  0  0  0  0  0  0
   10.4318  -13.6041   17.3797 O   0  0  0  0  0  0  0  0  0  0  0  0
    8.3878  -13.1158   18.5431 C   0  0  0  0  0  0  0  0  0  0  0  0
    7.8519  -13.4929   19.8784 C   0  0  0  0  0  0  0  0  0  0  0  0
    7.8318  -14.9767   20.1561 C   0  0  2  0  0  0  0  0  0  0  0  0
    6.9244  -15.5467   19.1468 N   0  0  0  0  0  0  0  0  0  0  0  0
    7.2125  -15.2727   21.4766 C   0  0  0  0  0  0  0  0  0  0  0  0
    6.0231  -15.7051   21.5787 O   0  0  0  0  0  0  0  0  0  0  0  0
    7.2823  -18.5946   25.9223 N   0  0  0  0  0  0  0  0  0  0  0  0
    6.6547  -17.4720   25.3431 C   0  0  0  0  0  0  0  0  0  0  0  0
    5.7269  -16.8194   25.8683 O   0  0  0  0  0  0  0  0  0  0  0  0
    7.1437  -17.0264   23.9820 C   0  0  0  0  0  0  0  0  0  0  0  0
    7.3659  -15.5307   23.9975 C   0  0  2  0  0  0  0  0  0  0  0  0
    7.9022  -15.0944   22.7015 N   0  0  0  0  0  0  0  0  0  0  0  0
    8.1950  -15.0468   25.0986 C   0  0  0  0  0  0  0  0  0  0  0  0
    9.2751  -15.7027   25.3117 O   0  0  0  0  0  0  0  0  0  0  0  0
    7.9399  -13.9430   25.9479 N   0  0  0  0  0  0  0  0  0  0  0  0
    6.7230  -13.1321   25.7154 C   0  0  0  0  0  0  0  0  0  0  0  0
    6.3785  -12.6373   27.0912 C   0  0  0  0  0  0  0  0  0  0  0  0
    7.7700  -12.1504   27.5232 C   0  0  0  0  0  0  0  0  0  0  0  0
    8.6291  -13.3601   27.0472 C   0  0  1  0  0  0  0  0  0  0  0  0
    8.8342  -14.2556   28.2094 C   0  0  0  0  0  0  0  0  0  0  0  0
    8.2268  -15.4929   28.2638 O   0  0  0  0  0  0  0  0  0  0  0  0
    9.5584  -13.8981   29.1499 O   0  0  0  0  0  0  0  0  0  0  0  0
  2  1  1  0
  2  3  2  0
  4  2  1  0
  5  4  1  0
  6  5  1  0
  6  7  1  6
  8  6  1  0
  8 15  1  0
  9  8  2  0
 11 10  1  0
 11 13  1  0
 12 11  2  0
 14 13  1  6
 14 15  1  0
 16 14  1  0
 17 16  2  0
 18 16  1  0
 18 22  1  0
 19 20  1  0
 19 18  1  0
 20 21  1  0
 22 21  1  0
 23 24  1  0
 22 23  1  1
 25 23  2  0
M  END
$$$$
