QNP.pdb
     RDKit          3D

 25 25  0  0  1  0  0  0  0  0999 V2000
    8.8068  -12.0516   19.4150 N   0  0  0  0  0  0  0  0  0  0  0  0
    8.6190  -13.2610   18.6593 C   0  0  0  0  0  0  0  0  0  0  0  0
    9.0157  -13.2942   17.4657 O   0  0  0  0  0  0  0  0  0  0  0  0
    7.9698  -14.4128   19.3163 C   0  0  0  0  0  0  0  0  0  0  0  0
    8.9749  -15.4059   19.7809 C   0  0  0  0  0  0  0  0  0  0  0  0
    8.4008  -16.5839   20.5303 C   0  0  2  0  0  0  0  0  0  0  0  0
    7.3734  -17.1461   19.6384 N   0  0  0  0  0  0  0  0  0  0  0  0
    7.6820  -16.1473   21.7582 C   0  0  0  0  0  0  0  0  0  0  0  0
    6.5665  -15.5433   21.7043 O   0  0  0  0  0  0  0  0  0  0  0  0
    6.4441  -18.9138   23.2508 N   0  0  0  0  0  0  0  0  0  0  0  0
    5.9286  -17.8316   23.9943 C   0  0  0  0  0  0  0  0  0  0  0  0
    4.7580  -17.4002   23.9141 O   0  0  0  0  0  0  0  0  0  0  0  0
    6.8663  -17.1422   24.9616 C   0  0  0  0  0  0  0  0  0  0  0  0
    7.4917  -15.9450   24.2816 C   0  0  2  0  0  0  0  0  0  0  0  0
    8.1887  -16.3741   23.0618 N   0  0  0  0  0  0  0  0  0  0  0  0
    8.3689  -15.1465   25.1341 C   0  0  0  0  0  0  0  0  0  0  0  0
    9.5846  -15.5446   25.2096 O   0  0  0  0  0  0  0  0  0  0  0  0
    8.0276  -13.9916   25.8788 N   0  0  0  0  0  0  0  0  0  0  0  0
    6.8105  -13.2365   25.5035 C   0  0  0  0  0  0  0  0  0  0  0  0
    6.3580  -12.6528   26.8115 C   0  0  0  0  0  0  0  0  0  0  0  0
    7.7032  -12.0944   27.2999 C   0  0  0  0  0  0  0  0  0  0  0  0
    8.6231  -13.3096   26.9758 C   0  0  1  0  0  0  0  0  0  0  0  0
    8.7680  -14.1112   28.2132 C   0  0  0  0  0  0  0  0  0  0  0  0
    9.6743  -13.7486   29.1878 O   0  0  0  0  0  0  0  0  0  0  0  0
    8.0715  -15.1223   28.3844 O   0  0  0  0  0  0  0  0  0  0  0  0
  2  1  1  0
  2  3  2  0
  4  2  1  0
  5  4  1  0
  6  5  1  0
  6  7  1  6
  8  6  1  0
  8 15  1  0
  9  8  2  0
 11 10  1  0
 11 13  1  0
 12 11  2  0
 14 13  1  1
 14 15  1  0
 16 14  1  0
 17 16  2  0
 18 16  1  0
 18 22  1  0
 19 20  1  0
 19 18  1  0
 20 21  1  0
 22 21  1  0
 23 24  1  0
 22 23  1  1
 25 23  2  0
M  END
$$$$
