QNP.pdb
     RDKit          3D

 25 25  0  0  1  0  0  0  0  0999 V2000
    9.6916  -12.5133   18.1157 N   0  0  0  0  0  0  0  0  0  0  0  0
    9.3045  -12.6496   19.4943 C   0  0  0  0  0  0  0  0  0  0  0  0
   10.1812  -12.5007   20.3845 O   0  0  0  0  0  0  0  0  0  0  0  0
    7.8948  -12.9573   19.8068 C   0  0  0  0  0  0  0  0  0  0  0  0
    7.4858  -14.2635   19.2245 C   0  0  0  0  0  0  0  0  0  0  0  0
    8.0149  -15.4748   19.9538 C   0  0  2  0  0  0  0  0  0  0  0  0
    7.4874  -16.6328   19.2137 N   0  0  0  0  0  0  0  0  0  0  0  0
    7.4463  -15.5727   21.3257 C   0  0  0  0  0  0  0  0  0  0  0  0
    6.1960  -15.6559   21.5301 O   0  0  0  0  0  0  0  0  0  0  0  0
    5.7945  -17.5671   25.8461 N   0  0  0  0  0  0  0  0  0  0  0  0
    7.1676  -17.5159   25.5271 C   0  0  0  0  0  0  0  0  0  0  0  0
    8.0997  -17.6456   26.3499 O   0  0  0  0  0  0  0  0  0  0  0  0
    7.5373  -17.2861   24.0778 C   0  0  0  0  0  0  0  0  0  0  0  0
    7.7199  -15.8041   23.8390 C   0  0  2  0  0  0  0  0  0  0  0  0
    8.2548  -15.5802   22.4894 N   0  0  0  0  0  0  0  0  0  0  0  0
    8.5273  -15.1175   24.8443 C   0  0  0  0  0  0  0  0  0  0  0  0
    9.7413  -15.5143   24.9489 O   0  0  0  0  0  0  0  0  0  0  0  0
    8.1207  -14.0712   25.7073 N   0  0  0  0  0  0  0  0  0  0  0  0
    6.7943  -13.4484   25.4953 C   0  0  0  0  0  0  0  0  0  0  0  0
    6.3958  -13.0221   26.8795 C   0  0  0  0  0  0  0  0  0  0  0  0
    7.7043  -12.3374   27.3025 C   0  0  0  0  0  0  0  0  0  0  0  0
    8.7281  -13.4018   26.8056 C   0  0  1  0  0  0  0  0  0  0  0  0
    9.0774  -14.2668   27.9564 C   0  0  0  0  0  0  0  0  0  0  0  0
    9.9599  -13.8332   28.9239 O   0  0  0  0  0  0  0  0  0  0  0  0
    8.5766  -15.3960   28.0604 O   0  0  0  0  0  0  0  0  0  0  0  0
  2  1  1  0
  2  3  2  0
  4  2  1  0
  5  4  1  0
  6  5  1  0
  6  7  1  6
  8  6  1  0
  8 15  1  0
  9  8  2  0
 11 10  1  0
 11 13  1  0
 12 11  2  0
 14 13  1  1
 14 15  1  0
 16 14  1  0
 17 16  2  0
 18 16  1  0
 18 22  1  0
 19 20  1  0
 19 18  1  0
 20 21  1  0
 22 21  1  0
 23 24  1  0
 22 23  1  1
 25 23  2  0
M  END
$$$$
