QNP.pdb
     RDKit          3D

 25 25  0  0  1  0  0  0  0  0999 V2000
    9.2450  -12.4417   18.6853 N   0  0  0  0  0  0  0  0  0  0  0  0
    7.9859  -13.1046   18.4755 C   0  0  0  0  0  0  0  0  0  0  0  0
    7.0554  -12.4690   17.9157 O   0  0  0  0  0  0  0  0  0  0  0  0
    7.8386  -14.5032   18.9248 C   0  0  0  0  0  0  0  0  0  0  0  0
    9.0221  -14.9450   19.7102 C   0  0  0  0  0  0  0  0  0  0  0  0
    8.8663  -16.2839   20.3900 C   0  0  2  0  0  0  0  0  0  0  0  0
    8.1378  -17.1247   19.4259 N   0  0  0  0  0  0  0  0  0  0  0  0
    7.9907  -16.1844   21.5893 C   0  0  0  0  0  0  0  0  0  0  0  0
    6.7544  -16.4699   21.5437 O   0  0  0  0  0  0  0  0  0  0  0  0
    6.1129  -16.4731   26.1815 N   0  0  0  0  0  0  0  0  0  0  0  0
    6.6575  -17.6279   25.5819 C   0  0  0  0  0  0  0  0  0  0  0  0
    6.5273  -18.7917   26.0193 O   0  0  0  0  0  0  0  0  0  0  0  0
    7.4603  -17.4405   24.3128 C   0  0  0  0  0  0  0  0  0  0  0  0
    7.7268  -15.9665   24.1048 C   0  0  2  0  0  0  0  0  0  0  0  0
    8.4726  -15.7678   22.8550 N   0  0  0  0  0  0  0  0  0  0  0  0
    8.3900  -15.3010   25.2234 C   0  0  0  0  0  0  0  0  0  0  0  0
    9.4610  -15.8616   25.6487 O   0  0  0  0  0  0  0  0  0  0  0  0
    7.9843  -14.1156   25.8830 N   0  0  0  0  0  0  0  0  0  0  0  0
    6.6934  -13.4967   25.5051 C   0  0  0  0  0  0  0  0  0  0  0  0
    6.2487  -12.8373   26.7793 C   0  0  0  0  0  0  0  0  0  0  0  0
    7.5615  -12.1319   27.1519 C   0  0  0  0  0  0  0  0  0  0  0  0
    8.5659  -13.2935   26.8876 C   0  0  1  0  0  0  0  0  0  0  0  0
    8.8294  -13.9679   28.1800 C   0  0  0  0  0  0  0  0  0  0  0  0
    8.3423  -15.2343   28.4282 O   0  0  0  0  0  0  0  0  0  0  0  0
    9.4943  -13.3957   29.0560 O   0  0  0  0  0  0  0  0  0  0  0  0
  2  1  1  0
  2  3  2  0
  4  2  1  0
  5  4  1  0
  6  5  1  0
  6  7  1  6
  8  6  1  0
  8 15  1  0
  9  8  2  0
 11 10  1  0
 11 13  1  0
 12 11  2  0
 14 13  1  1
 14 15  1  0
 16 14  1  0
 17 16  2  0
 18 16  1  0
 18 22  1  0
 19 20  1  0
 19 18  1  0
 20 21  1  0
 22 21  1  0
 23 24  1  0
 22 23  1  1
 25 23  2  0
M  END
$$$$
