QNP.pdb
     RDKit          3D

 25 25  0  0  1  0  0  0  0  0999 V2000
    9.8158  -13.5784   18.1232 N   0  0  0  0  0  0  0  0  0  0  0  0
    8.8864  -12.6957   18.7760 C   0  0  0  0  0  0  0  0  0  0  0  0
    8.6683  -11.5659   18.2669 O   0  0  0  0  0  0  0  0  0  0  0  0
    8.2266  -13.1530   20.0150 C   0  0  0  0  0  0  0  0  0  0  0  0
    8.7713  -14.4620   20.4648 C   0  0  0  0  0  0  0  0  0  0  0  0
    7.7327  -15.5319   20.7010 C   0  0  2  0  0  0  0  0  0  0  0  0
    6.5397  -15.0820   19.9651 N   0  0  0  0  0  0  0  0  0  0  0  0
    7.3317  -15.5914   22.1330 C   0  0  0  0  0  0  0  0  0  0  0  0
    6.2928  -15.0026   22.5644 O   0  0  0  0  0  0  0  0  0  0  0  0
    6.9850  -16.8808   27.0493 N   0  0  0  0  0  0  0  0  0  0  0  0
    6.7361  -17.9798   26.2008 C   0  0  0  0  0  0  0  0  0  0  0  0
    6.2621  -19.0764   26.5690 O   0  0  0  0  0  0  0  0  0  0  0  0
    7.0697  -17.8161   24.7339 C   0  0  0  0  0  0  0  0  0  0  0  0
    7.6488  -16.4380   24.5052 C   0  0  2  0  0  0  0  0  0  0  0  0
    8.0754  -16.3040   23.1060 N   0  0  0  0  0  0  0  0  0  0  0  0
    8.7257  -16.0676   25.4201 C   0  0  0  0  0  0  0  0  0  0  0  0
    9.7451  -16.8441   25.4232 O   0  0  0  0  0  0  0  0  0  0  0  0
    8.7674  -14.9553   26.2953 N   0  0  0  0  0  0  0  0  0  0  0  0
    7.6297  -14.0077   26.2970 C   0  0  0  0  0  0  0  0  0  0  0  0
    7.6161  -13.4984   27.7101 C   0  0  0  0  0  0  0  0  0  0  0  0
    9.1112  -13.1797   27.8616 C   0  0  0  0  0  0  0  0  0  0  0  0
    9.7179  -14.4718   27.2366 C   0  0  1  0  0  0  0  0  0  0  0  0
   10.0394  -15.4028   28.3431 C   0  0  0  0  0  0  0  0  0  0  0  0
   11.1119  -15.1651   29.1774 O   0  0  0  0  0  0  0  0  0  0  0  0
    9.3427  -16.4111   28.5299 O   0  0  0  0  0  0  0  0  0  0  0  0
  2  1  1  0
  2  3  2  0
  4  2  1  0
  5  4  1  0
  6  5  1  0
  6  7  1  6
  8  6  1  0
  8 15  1  0
  9  8  2  0
 11 10  1  0
 11 13  1  0
 12 11  2  0
 14 13  1  1
 14 15  1  0
 16 14  1  0
 17 16  2  0
 18 16  1  0
 18 22  1  0
 19 20  1  0
 19 18  1  0
 20 21  1  0
 22 21  1  0
 23 24  1  0
 22 23  1  1
 25 23  2  0
M  END
$$$$
