QNP.pdb
     RDKit          3D

 25 25  0  0  1  0  0  0  0  0999 V2000
   11.6286  -13.9883   21.3595 N   0  0  0  0  0  0  0  0  0  0  0  0
   11.8665  -13.4973   20.0286 C   0  0  0  0  0  0  0  0  0  0  0  0
   13.0036  -13.6669   19.5174 O   0  0  0  0  0  0  0  0  0  0  0  0
   10.7661  -12.8161   19.3181 C   0  0  0  0  0  0  0  0  0  0  0  0
    9.4935  -12.9048   20.0830 C   0  0  0  0  0  0  0  0  0  0  0  0
    8.7163  -14.1817   19.8722 C   0  0  2  0  0  0  0  0  0  0  0  0
    7.7978  -13.8959   18.7579 N   0  0  0  0  0  0  0  0  0  0  0  0
    7.8534  -14.4909   21.0447 C   0  0  0  0  0  0  0  0  0  0  0  0
    6.6112  -14.2280   21.0521 O   0  0  0  0  0  0  0  0  0  0  0  0
    6.2002  -16.2584   25.5486 N   0  0  0  0  0  0  0  0  0  0  0  0
    6.2530  -17.2181   24.5162 C   0  0  0  0  0  0  0  0  0  0  0  0
    5.7248  -18.3502   24.5625 O   0  0  0  0  0  0  0  0  0  0  0  0
    7.0076  -16.8464   23.2582 C   0  0  0  0  0  0  0  0  0  0  0  0
    7.5100  -15.4253   23.3800 C   0  0  2  0  0  0  0  0  0  0  0  0
    8.3543  -15.0958   22.2240 N   0  0  0  0  0  0  0  0  0  0  0  0
    8.1962  -15.1244   24.6341 C   0  0  0  0  0  0  0  0  0  0  0  0
    9.1690  -15.9018   24.9364 O   0  0  0  0  0  0  0  0  0  0  0  0
    7.9083  -14.0781   25.5435 N   0  0  0  0  0  0  0  0  0  0  0  0
    6.7359  -13.2118   25.2840 C   0  0  0  0  0  0  0  0  0  0  0  0
    6.3017  -12.8081   26.6642 C   0  0  0  0  0  0  0  0  0  0  0  0
    7.6693  -12.4016   27.2335 C   0  0  0  0  0  0  0  0  0  0  0  0
    8.5278  -13.6013   26.7318 C   0  0  1  0  0  0  0  0  0  0  0  0
    8.6186  -14.5863   27.8346 C   0  0  0  0  0  0  0  0  0  0  0  0
    9.4465  -14.3628   28.9151 O   0  0  0  0  0  0  0  0  0  0  0  0
    7.9470  -15.6275   27.7954 O   0  0  0  0  0  0  0  0  0  0  0  0
  2  1  1  0
  2  3  2  0
  4  2  1  0
  5  4  1  0
  6  5  1  0
  6  7  1  6
  8  6  1  0
  8 15  1  0
  9  8  2  0
 11 10  1  0
 11 13  1  0
 12 11  2  0
 14 13  1  1
 14 15  1  0
 16 14  1  0
 17 16  2  0
 18 16  1  0
 18 22  1  0
 19 20  1  0
 19 18  1  0
 20 21  1  0
 22 21  1  0
 23 24  1  0
 22 23  1  1
 25 23  2  0
M  END
$$$$
