QNP.pdb
     RDKit          3D

 25 25  0  0  1  0  0  0  0  0999 V2000
    7.4927  -12.6267   18.1302 N   0  0  0  0  0  0  0  0  0  0  0  0
    8.3154  -13.6107   17.4791 C   0  0  0  0  0  0  0  0  0  0  0  0
    8.6847  -13.4001   16.2949 O   0  0  0  0  0  0  0  0  0  0  0  0
    8.6926  -14.8258   18.2281 C   0  0  0  0  0  0  0  0  0  0  0  0
    8.0228  -14.8710   19.5554 C   0  0  0  0  0  0  0  0  0  0  0  0
    8.3883  -16.0620   20.4082 C   0  0  2  0  0  0  0  0  0  0  0  0
    7.9151  -17.2358   19.6563 N   0  0  0  0  0  0  0  0  0  0  0  0
    7.6308  -16.0643   21.6893 C   0  0  0  0  0  0  0  0  0  0  0  0
    6.4312  -16.4745   21.7594 O   0  0  0  0  0  0  0  0  0  0  0  0
    7.6975  -17.4754   26.8247 N   0  0  0  0  0  0  0  0  0  0  0  0
    6.8081  -17.6667   25.7468 C   0  0  0  0  0  0  0  0  0  0  0  0
    5.6254  -18.0571   25.8543 O   0  0  0  0  0  0  0  0  0  0  0  0
    7.3280  -17.3769   24.3555 C   0  0  0  0  0  0  0  0  0  0  0  0
    7.5948  -15.8943   24.2220 C   0  0  2  0  0  0  0  0  0  0  0  0
    8.1917  -15.6129   22.9096 N   0  0  0  0  0  0  0  0  0  0  0  0
    8.3970  -15.3178   25.2982 C   0  0  0  0  0  0  0  0  0  0  0  0
    9.4767  -15.9457   25.5850 O   0  0  0  0  0  0  0  0  0  0  0  0
    8.1163  -14.1525   26.0518 N   0  0  0  0  0  0  0  0  0  0  0  0
    6.8564  -13.4207   25.7885 C   0  0  0  0  0  0  0  0  0  0  0  0
    6.5308  -12.8164   27.1246 C   0  0  0  0  0  0  0  0  0  0  0  0
    7.9104  -12.2312   27.4625 C   0  0  0  0  0  0  0  0  0  0  0  0
    8.8103  -13.4409   27.0693 C   0  0  1  0  0  0  0  0  0  0  0  0
    9.0921  -14.2154   28.3003 C   0  0  0  0  0  0  0  0  0  0  0  0
    8.5685  -15.4796   28.4750 O   0  0  0  0  0  0  0  0  0  0  0  0
    9.8055  -13.7305   29.1907 O   0  0  0  0  0  0  0  0  0  0  0  0
  2  1  1  0
  2  3  2  0
  4  2  1  0
  5  4  1  0
  6  5  1  0
  6  7  1  6
  8  6  1  0
  8 15  1  0
  9  8  2  0
 11 10  1  0
 11 13  1  0
 12 11  2  0
 14 13  1  1
 14 15  1  0
 16 14  1  0
 17 16  2  0
 18 16  1  0
 18 22  1  0
 19 20  1  0
 19 18  1  0
 20 21  1  0
 22 21  1  0
 23 24  1  0
 22 23  1  1
 25 23  2  0
M  END
$$$$
