QNP.pdb
     RDKit          3D

 25 25  0  0  1  0  0  0  0  0999 V2000
   10.0007  -12.7186   19.0008 N   0  0  0  0  0  0  0  0  0  0  0  0
    9.0715  -13.0981   17.9704 C   0  0  0  0  0  0  0  0  0  0  0  0
    9.5186  -13.3766   16.8277 O   0  0  0  0  0  0  0  0  0  0  0  0
    7.6326  -13.1460   18.2974 C   0  0  0  0  0  0  0  0  0  0  0  0
    7.4164  -13.2668   19.7641 C   0  0  0  0  0  0  0  0  0  0  0  0
    7.9931  -14.5147   20.3879 C   0  0  2  0  0  0  0  0  0  0  0  0
    7.5392  -15.6214   19.5299 N   0  0  0  0  0  0  0  0  0  0  0  0
    7.4052  -14.7708   21.7310 C   0  0  0  0  0  0  0  0  0  0  0  0
    6.2665  -14.3180   22.0630 O   0  0  0  0  0  0  0  0  0  0  0  0
    7.2713  -18.3882   26.4005 N   0  0  0  0  0  0  0  0  0  0  0  0
    6.6121  -17.3848   25.6602 C   0  0  0  0  0  0  0  0  0  0  0  0
    5.6843  -16.6676   26.0932 O   0  0  0  0  0  0  0  0  0  0  0  0
    7.0641  -17.1622   24.2332 C   0  0  0  0  0  0  0  0  0  0  0  0
    7.5341  -15.7334   24.0765 C   0  0  2  0  0  0  0  0  0  0  0  0
    8.0703  -15.5321   22.7239 N   0  0  0  0  0  0  0  0  0  0  0  0
    8.4867  -15.2882   25.0906 C   0  0  0  0  0  0  0  0  0  0  0  0
    9.5713  -15.9660   25.1709 O   0  0  0  0  0  0  0  0  0  0  0  0
    8.3457  -14.2002   25.9857 N   0  0  0  0  0  0  0  0  0  0  0  0
    7.2051  -13.2734   25.8056 C   0  0  0  0  0  0  0  0  0  0  0  0
    6.9266  -12.8041   27.2050 C   0  0  0  0  0  0  0  0  0  0  0  0
    8.3626  -12.4634   27.6310 C   0  0  0  0  0  0  0  0  0  0  0  0
    9.1005  -13.7265   27.0943 C   0  0  1  0  0  0  0  0  0  0  0  0
    9.2389  -14.6823   28.2177 C   0  0  0  0  0  0  0  0  0  0  0  0
   10.2089  -14.5035   29.1820 O   0  0  0  0  0  0  0  0  0  0  0  0
    8.4791  -15.6583   28.3011 O   0  0  0  0  0  0  0  0  0  0  0  0
  2  1  1  0
  2  3  2  0
  4  2  1  0
  5  4  1  0
  6  5  1  0
  6  7  1  6
  8  6  1  0
  8 15  1  0
  9  8  2  0
 11 10  1  0
 11 13  1  0
 12 11  2  0
 14 13  1  1
 14 15  1  0
 16 14  1  0
 17 16  2  0
 18 16  1  0
 18 22  1  0
 19 20  1  0
 19 18  1  0
 20 21  1  0
 22 21  1  0
 23 24  1  0
 22 23  1  1
 25 23  2  0
M  END
$$$$
