QNP.pdb
     RDKit          3D

 25 25  0  0  1  0  0  0  0  0999 V2000
    8.9567  -12.3770   18.6994 N   0  0  0  0  0  0  0  0  0  0  0  0
    8.4112  -13.4291   17.8843 C   0  0  0  0  0  0  0  0  0  0  0  0
    8.7852  -13.5195   16.6863 O   0  0  0  0  0  0  0  0  0  0  0  0
    7.4365  -14.3593   18.4879 C   0  0  0  0  0  0  0  0  0  0  0  0
    7.2467  -14.0771   19.9359 C   0  0  0  0  0  0  0  0  0  0  0  0
    8.3441  -14.5993   20.8314 C   0  0  2  0  0  0  0  0  0  0  0  0
    8.6073  -15.9694   20.3618 N   0  0  0  0  0  0  0  0  0  0  0  0
    7.8784  -14.7316   22.2388 C   0  0  0  0  0  0  0  0  0  0  0  0
    7.3235  -13.7706   22.8557 O   0  0  0  0  0  0  0  0  0  0  0  0
    5.4544  -16.7603   23.0110 N   0  0  0  0  0  0  0  0  0  0  0  0
    5.9540  -17.7852   23.8414 C   0  0  0  0  0  0  0  0  0  0  0  0
    5.4617  -18.9298   23.9421 O   0  0  0  0  0  0  0  0  0  0  0  0
    7.1791  -17.4723   24.6728 C   0  0  0  0  0  0  0  0  0  0  0  0
    7.6244  -16.0550   24.3903 C   0  0  2  0  0  0  0  0  0  0  0  0
    8.0206  -15.9300   22.9813 N   0  0  0  0  0  0  0  0  0  0  0  0
    8.6724  -15.5549   25.2767 C   0  0  0  0  0  0  0  0  0  0  0  0
    9.8131  -16.1288   25.1689 O   0  0  0  0  0  0  0  0  0  0  0  0
    8.5682  -14.5153   26.2323 N   0  0  0  0  0  0  0  0  0  0  0  0
    7.3966  -13.6116   26.1763 C   0  0  0  0  0  0  0  0  0  0  0  0
    7.2045  -13.2177   27.6130 C   0  0  0  0  0  0  0  0  0  0  0  0
    8.6583  -12.8596   27.9570 C   0  0  0  0  0  0  0  0  0  0  0  0
    9.3866  -14.0754   27.3093 C   0  0  1  0  0  0  0  0  0  0  0  0
    9.6244  -15.0800   28.3718 C   0  0  0  0  0  0  0  0  0  0  0  0
   10.6936  -14.9562   29.2346 O   0  0  0  0  0  0  0  0  0  0  0  0
    8.8596  -16.0478   28.4952 O   0  0  0  0  0  0  0  0  0  0  0  0
  2  1  1  0
  2  3  2  0
  4  2  1  0
  5  4  1  0
  6  5  1  0
  6  7  1  6
  8  6  1  0
  8 15  1  0
  9  8  2  0
 11 10  1  0
 11 13  1  0
 12 11  2  0
 14 13  1  1
 14 15  1  0
 16 14  1  0
 17 16  2  0
 18 16  1  0
 18 22  1  0
 19 20  1  0
 19 18  1  0
 20 21  1  0
 22 21  1  0
 23 24  1  0
 22 23  1  1
 25 23  2  0
M  END
$$$$
