QNP.pdb
     RDKit          3D

 25 25  0  0  1  0  0  0  0  0999 V2000
   11.7132  -13.7002   18.6276 N   0  0  0  0  0  0  0  0  0  0  0  0
   11.2945  -13.4001   19.9706 C   0  0  0  0  0  0  0  0  0  0  0  0
   12.1340  -13.5058   20.9019 O   0  0  0  0  0  0  0  0  0  0  0  0
    9.8979  -12.9797   20.1996 C   0  0  0  0  0  0  0  0  0  0  0  0
    8.9460  -13.8328   19.4390 C   0  0  0  0  0  0  0  0  0  0  0  0
    8.7250  -15.2081   20.0210 C   0  0  2  0  0  0  0  0  0  0  0  0
    7.8490  -15.8984   19.0602 N   0  0  0  0  0  0  0  0  0  0  0  0
    7.9605  -15.1406   21.2962 C   0  0  0  0  0  0  0  0  0  0  0  0
    6.7932  -14.6445   21.3539 O   0  0  0  0  0  0  0  0  0  0  0  0
    7.0006  -18.4403   22.0543 N   0  0  0  0  0  0  0  0  0  0  0  0
    6.4098  -17.5934   23.0152 C   0  0  0  0  0  0  0  0  0  0  0  0
    5.2063  -17.2557   23.0295 O   0  0  0  0  0  0  0  0  0  0  0  0
    7.3035  -17.0538   24.1108 C   0  0  0  0  0  0  0  0  0  0  0  0
    7.7051  -15.6356   23.7730 C   0  0  2  0  0  0  0  0  0  0  0  0
    8.4783  -15.6220   22.5241 N   0  0  0  0  0  0  0  0  0  0  0  0
    8.4150  -14.9308   24.8376 C   0  0  0  0  0  0  0  0  0  0  0  0
    9.6612  -15.2060   24.9524 O   0  0  0  0  0  0  0  0  0  0  0  0
    7.8831  -13.9855   25.7478 N   0  0  0  0  0  0  0  0  0  0  0  0
    6.5912  -13.3371   25.4270 C   0  0  0  0  0  0  0  0  0  0  0  0
    6.0032  -13.0660   26.7824 C   0  0  0  0  0  0  0  0  0  0  0  0
    7.2343  -12.4385   27.4536 C   0  0  0  0  0  0  0  0  0  0  0  0
    8.3278  -13.4454   26.9862 C   0  0  1  0  0  0  0  0  0  0  0  0
    8.5265  -14.4348   28.0708 C   0  0  0  0  0  0  0  0  0  0  0  0
    9.3020  -14.1315   29.1705 O   0  0  0  0  0  0  0  0  0  0  0  0
    7.9941  -15.5520   27.9986 O   0  0  0  0  0  0  0  0  0  0  0  0
  2  1  1  0
  2  3  2  0
  4  2  1  0
  5  4  1  0
  6  5  1  0
  6  7  1  6
  8  6  1  0
  8 15  1  0
  9  8  2  0
 11 10  1  0
 11 13  1  0
 12 11  2  0
 14 13  1  1
 14 15  1  0
 16 14  1  0
 17 16  2  0
 18 16  1  0
 18 22  1  0
 19 20  1  0
 19 18  1  0
 20 21  1  0
 22 21  1  0
 23 24  1  0
 22 23  1  1
 25 23  2  0
M  END
$$$$
