QNP.pdb
     RDKit          3D

 25 25  0  0  1  0  0  0  0  0999 V2000
   10.3459  -14.1505   18.7036 N   0  0  0  0  0  0  0  0  0  0  0  0
    9.5723  -13.1020   19.3129 C   0  0  0  0  0  0  0  0  0  0  0  0
   10.1676  -12.2413   20.0115 O   0  0  0  0  0  0  0  0  0  0  0  0
    8.1128  -13.0792   19.0920 C   0  0  0  0  0  0  0  0  0  0  0  0
    7.3757  -13.5025   20.3126 C   0  0  0  0  0  0  0  0  0  0  0  0
    7.6876  -14.9014   20.7868 C   0  0  2  0  0  0  0  0  0  0  0  0
    7.2597  -15.7857   19.6904 N   0  0  0  0  0  0  0  0  0  0  0  0
    6.8538  -15.2740   21.9619 C   0  0  0  0  0  0  0  0  0  0  0  0
    5.6924  -15.7699   21.8310 O   0  0  0  0  0  0  0  0  0  0  0  0
    6.2973  -18.8160   25.2401 N   0  0  0  0  0  0  0  0  0  0  0  0
    7.6148  -18.3122   25.2414 C   0  0  0  0  0  0  0  0  0  0  0  0
    8.5154  -18.6634   26.0341 O   0  0  0  0  0  0  0  0  0  0  0  0
    7.9614  -17.2669   24.2035 C   0  0  0  0  0  0  0  0  0  0  0  0
    7.0361  -16.0814   24.3619 C   0  0  2  0  0  0  0  0  0  0  0  0
    7.2953  -15.1029   23.2974 N   0  0  0  0  0  0  0  0  0  0  0  0
    7.0734  -15.4479   25.6777 C   0  0  0  0  0  0  0  0  0  0  0  0
    6.8274  -16.2171   26.6727 O   0  0  0  0  0  0  0  0  0  0  0  0
    7.3493  -14.0908   25.9724 N   0  0  0  0  0  0  0  0  0  0  0  0
    6.2538  -13.1010   25.8604 C   0  0  0  0  0  0  0  0  0  0  0  0
    6.6220  -12.0712   26.8901 C   0  0  0  0  0  0  0  0  0  0  0  0
    8.1023  -11.8876   26.5230 C   0  0  0  0  0  0  0  0  0  0  0  0
    8.5184  -13.3807   26.3626 C   0  0  1  0  0  0  0  0  0  0  0  0
    9.1272  -13.8214   27.6393 C   0  0  0  0  0  0  0  0  0  0  0  0
   10.2311  -13.1753   28.1557 O   0  0  0  0  0  0  0  0  0  0  0  0
    8.6467  -14.7817   28.2586 O   0  0  0  0  0  0  0  0  0  0  0  0
  2  1  1  0
  2  3  2  0
  4  2  1  0
  5  4  1  0
  6  5  1  0
  6  7  1  6
  8  6  1  0
  8 15  1  0
  9  8  2  0
 11 10  1  0
 11 13  1  0
 12 11  2  0
 14 13  1  1
 14 15  1  0
 16 14  1  0
 17 16  2  0
 18 16  1  0
 18 22  1  0
 19 20  1  0
 19 18  1  0
 20 21  1  0
 22 21  1  0
 23 24  1  0
 22 23  1  1
 25 23  2  0
M  END
$$$$
