MLC.pdb
     RDKit          3D

 23 22  0  0  1  0  0  0  0  0999 V2000
    8.4226  -11.4842   19.9178 C   0  0  0  0  0  0  0  0  0  0  0  0
    7.6538  -12.7898   18.9335 S   0  0  0  0  0  0  0  0  0  0  0  0
    7.5340  -14.3457   19.8630 C   0  0  0  0  0  0  0  0  0  0  0  0
    8.7074  -14.5122   20.8035 C   0  0  0  0  0  0  0  0  0  0  0  0
    8.5748  -15.8120   21.5954 C   0  0  2  0  0  0  0  0  0  0  0  0
    7.1838  -16.2585   21.5390 N   0  0  0  0  0  0  0  0  0  0  0  0
    8.8972  -15.6432   23.0220 C   0  0  0  0  0  0  0  0  0  0  0  0
   10.0250  -15.3333   23.4699 O   0  0  0  0  0  0  0  0  0  0  0  0
    5.6521  -12.8157   26.2881 C   0  0  0  0  0  0  0  0  0  0  0  0
    6.8689  -13.4606   25.6925 C   0  0  1  0  0  0  0  0  0  0  0  0
    8.0662  -12.5740   26.0106 C   0  0  0  0  0  0  0  0  0  0  0  0
    7.0861  -14.8659   26.1831 C   0  0  0  0  0  0  0  0  0  0  0  0
    8.0769  -15.6331   25.3991 C   0  0  2  0  0  0  0  0  0  0  0  0
    7.8593  -15.8361   24.0212 N   0  0  0  0  0  0  0  0  0  0  0  0
    8.6439  -16.8237   26.0613 C   0  0  0  0  0  0  0  0  0  0  0  0
    7.8918  -17.7537   26.4522 O   0  0  0  0  0  0  0  0  0  0  0  0
   10.0289  -16.9437   26.2760 N   0  0  0  0  0  0  0  0  0  0  0  0
   10.5656  -18.1893   26.8113 C   0  0  1  0  0  0  0  0  0  0  0  0
   11.9293  -18.4692   26.2724 C   0  0  0  0  0  0  0  0  0  0  0  0
   11.9685  -18.1831   24.4854 S   0  0  0  0  0  0  0  0  0  0  0  0
   10.6385  -18.1666   28.2946 C   0  0  0  0  0  0  0  0  0  0  0  0
   10.2872  -17.0995   28.8571 O   0  0  0  0  0  0  0  0  0  0  0  0
   11.0738  -19.2698   29.0323 O   0  0  0  0  0  0  0  0  0  0  0  0
  2  1  1  0
  3  2  1  0
  4  3  1  0
  5  4  1  0
  5  7  1  0
  5  6  1  1
  7 14  1  0
  7  8  2  0
 10  9  1  1
 10 11  1  0
 12 10  1  0
 13 12  1  1
 14 13  1  0
 15 13  1  0
 15 17  1  0
 16 15  2  0
 18 21  1  0
 18 19  1  6
 18 17  1  0
 20 19  1  0
 21 23  1  0
 22 21  2  0
M  END
$$$$
