MLC.pdb
     RDKit          3D

 23 22  0  0  1  0  0  0  0  0999 V2000
    6.5602  -19.4361   29.1621 C   0  0  0  0  0  0  0  0  0  0  0  0
    7.0166  -20.6405   27.8949 S   0  0  0  0  0  0  0  0  0  0  0  0
    7.4113  -19.8335   26.3163 C   0  0  0  0  0  0  0  0  0  0  0  0
    6.3564  -18.8145   25.9445 C   0  0  0  0  0  0  0  0  0  0  0  0
    6.7243  -18.1211   24.6340 C   0  0  2  0  0  0  0  0  0  0  0  0
    7.3216  -19.1043   23.7318 N   0  0  0  0  0  0  0  0  0  0  0  0
    7.7304  -17.0615   24.8151 C   0  0  0  0  0  0  0  0  0  0  0  0
    8.8656  -17.0535   24.2864 O   0  0  0  0  0  0  0  0  0  0  0  0
    5.4556  -12.4767   26.7629 C   0  0  0  0  0  0  0  0  0  0  0  0
    6.2597  -13.2463   25.7567 C   0  0  1  0  0  0  0  0  0  0  0  0
    6.2276  -12.4704   24.4461 C   0  0  0  0  0  0  0  0  0  0  0  0
    7.6730  -13.4984   26.2059 C   0  0  0  0  0  0  0  0  0  0  0  0
    8.2442  -14.7713   25.7179 C   0  0  2  0  0  0  0  0  0  0  0  0
    7.4254  -15.9174   25.6583 N   0  0  0  0  0  0  0  0  0  0  0  0
    9.6144  -15.0808   26.1694 C   0  0  0  0  0  0  0  0  0  0  0  0
   10.5811  -14.3595   25.8108 O   0  0  0  0  0  0  0  0  0  0  0  0
    9.8721  -16.1860   27.0006 N   0  0  0  0  0  0  0  0  0  0  0  0
   11.2123  -16.3783   27.5418 C   0  0  1  0  0  0  0  0  0  0  0  0
   11.2808  -15.9772   28.9782 C   0  0  0  0  0  0  0  0  0  0  0  0
   10.4440  -14.3915   29.2272 S   0  0  0  0  0  0  0  0  0  0  0  0
   11.6583  -17.7900   27.4230 C   0  0  0  0  0  0  0  0  0  0  0  0
   10.8491  -18.5910   26.8918 O   0  0  0  0  0  0  0  0  0  0  0  0
   12.9102  -18.2124   27.8759 O   0  0  0  0  0  0  0  0  0  0  0  0
  2  1  1  0
  3  2  1  0
  4  3  1  0
  5  4  1  0
  5  7  1  0
  5  6  1  6
  7 14  1  0
  7  8  2  0
 10  9  1  1
 10 11  1  0
 12 10  1  0
 13 12  1  1
 14 13  1  0
 15 13  1  0
 15 17  1  0
 16 15  2  0
 18 21  1  0
 18 19  1  1
 18 17  1  0
 20 19  1  0
 21 23  1  0
 22 21  2  0
M  END
$$$$
