MLC.pdb
     RDKit          3D

 23 22  0  0  1  0  0  0  0  0999 V2000
    8.0610  -20.9481   23.0161 C   0  0  0  0  0  0  0  0  0  0  0  0
    8.5211  -20.7267   21.2829 S   0  0  0  0  0  0  0  0  0  0  0  0
    8.5495  -18.9712   20.8174 C   0  0  0  0  0  0  0  0  0  0  0  0
    8.6256  -18.0828   22.0398 C   0  0  0  0  0  0  0  0  0  0  0  0
    8.4522  -16.6173   21.6445 C   0  0  2  0  0  0  0  0  0  0  0  0
    9.4647  -16.2752   20.6470 N   0  0  0  0  0  0  0  0  0  0  0  0
    8.6575  -15.6962   22.7746 C   0  0  0  0  0  0  0  0  0  0  0  0
    9.7640  -15.2230   23.1214 O   0  0  0  0  0  0  0  0  0  0  0  0
    7.7445  -11.8377   26.4639 C   0  0  0  0  0  0  0  0  0  0  0  0
    6.8110  -13.0088   26.5540 C   0  0  1  0  0  0  0  0  0  0  0  0
    5.5091  -12.5174   27.1741 C   0  0  0  0  0  0  0  0  0  0  0  0
    6.5665  -13.6663   25.2233 C   0  0  0  0  0  0  0  0  0  0  0  0
    7.6550  -14.5646   24.7842 C   0  0  2  0  0  0  0  0  0  0  0  0
    7.5189  -15.2733   23.5732 N   0  0  0  0  0  0  0  0  0  0  0  0
    8.2928  -15.3728   25.8412 C   0  0  0  0  0  0  0  0  0  0  0  0
    8.7310  -14.8240   26.8853 O   0  0  0  0  0  0  0  0  0  0  0  0
    8.4315  -16.7660   25.7050 N   0  0  0  0  0  0  0  0  0  0  0  0
    9.0691  -17.5301   26.7707 C   0  0  1  0  0  0  0  0  0  0  0  0
    8.5885  -18.9433   26.7882 C   0  0  0  0  0  0  0  0  0  0  0  0
    6.7797  -18.9901   26.8436 S   0  0  0  0  0  0  0  0  0  0  0  0
   10.5483  -17.5350   26.6375 C   0  0  0  0  0  0  0  0  0  0  0  0
   11.0287  -16.8599   25.6930 O   0  0  0  0  0  0  0  0  0  0  0  0
   11.3690  -18.2503   27.5126 O   0  0  0  0  0  0  0  0  0  0  0  0
  2  1  1  0
  3  2  1  0
  4  3  1  0
  5  4  1  0
  5  7  1  0
  5  6  1  6
  7 14  1  0
  7  8  2  0
 10  9  1  6
 10 11  1  0
 12 10  1  0
 13 12  1  1
 14 13  1  0
 15 13  1  0
 15 17  1  0
 16 15  2  0
 18 21  1  0
 18 19  1  6
 18 17  1  0
 20 19  1  0
 21 23  1  0
 22 21  2  0
M  END
$$$$
