MLC.pdb
     RDKit          3D

 23 22  0  0  1  0  0  0  0  0999 V2000
    3.5460  -19.9044   20.8966 C   0  0  0  0  0  0  0  0  0  0  0  0
    3.6403  -20.6871   22.5223 S   0  0  0  0  0  0  0  0  0  0  0  0
    5.1591  -20.2202   23.4024 C   0  0  0  0  0  0  0  0  0  0  0  0
    5.5984  -18.8211   23.0300 C   0  0  0  0  0  0  0  0  0  0  0  0
    6.8968  -18.4612   23.7501 C   0  0  2  0  0  0  0  0  0  0  0  0
    6.6957  -18.6158   25.1899 N   0  0  0  0  0  0  0  0  0  0  0  0
    7.2951  -17.0601   23.5365 C   0  0  0  0  0  0  0  0  0  0  0  0
    7.6076  -16.5649   22.4295 O   0  0  0  0  0  0  0  0  0  0  0  0
    7.6947  -11.6491   26.1225 C   0  0  0  0  0  0  0  0  0  0  0  0
    7.1685  -13.0532   26.0677 C   0  0  1  0  0  0  0  0  0  0  0  0
    5.7336  -13.0309   26.5789 C   0  0  0  0  0  0  0  0  0  0  0  0
    7.2471  -13.6545   24.6911 C   0  0  0  0  0  0  0  0  0  0  0  0
    8.0208  -14.9121   24.6243 C   0  0  2  0  0  0  0  0  0  0  0  0
    7.3388  -16.1452   24.6652 N   0  0  0  0  0  0  0  0  0  0  0  0
    9.2796  -14.9388   25.3939 C   0  0  0  0  0  0  0  0  0  0  0  0
   10.2308  -14.1750   25.0853 O   0  0  0  0  0  0  0  0  0  0  0  0
    9.4477  -15.8175   26.4794 N   0  0  0  0  0  0  0  0  0  0  0  0
   10.7617  -15.9494   27.0974 C   0  0  1  0  0  0  0  0  0  0  0  0
   10.7098  -15.6365   28.5562 C   0  0  0  0  0  0  0  0  0  0  0  0
   10.1051  -13.9500   28.8148 S   0  0  0  0  0  0  0  0  0  0  0  0
   11.3177  -17.3160   26.9261 C   0  0  0  0  0  0  0  0  0  0  0  0
   10.6034  -18.1374   26.2988 O   0  0  0  0  0  0  0  0  0  0  0  0
   12.5682  -17.6764   27.4332 O   0  0  0  0  0  0  0  0  0  0  0  0
  2  1  1  0
  3  2  1  0
  4  3  1  0
  5  4  1  0
  5  7  1  0
  5  6  1  1
  7 14  1  0
  7  8  2  0
 10  9  1  6
 10 11  1  0
 12 10  1  0
 13 12  1  1
 14 13  1  0
 15 13  1  0
 15 17  1  0
 16 15  2  0
 18 21  1  0
 18 19  1  1
 18 17  1  0
 20 19  1  0
 21 23  1  0
 22 21  2  0
M  END
$$$$
