MLC.pdb
     RDKit          3D

 23 22  0  0  1  0  0  0  0  0999 V2000
    5.1144  -12.0105   26.0657 C   0  0  0  0  0  0  0  0  0  0  0  0
    6.7955  -12.2564   26.6805 S   0  0  0  0  0  0  0  0  0  0  0  0
    7.2714  -14.0089   26.6439 C   0  0  0  0  0  0  0  0  0  0  0  0
    6.1804  -14.8589   26.0303 C   0  0  0  0  0  0  0  0  0  0  0  0
    6.7801  -16.0969   25.3658 C   0  0  2  0  0  0  0  0  0  0  0  0
    8.0889  -16.3635   25.9601 N   0  0  0  0  0  0  0  0  0  0  0  0
    7.0110  -15.9116   23.9236 C   0  0  0  0  0  0  0  0  0  0  0  0
    6.2079  -15.3640   23.1339 O   0  0  0  0  0  0  0  0  0  0  0  0
    7.6590  -12.3785   21.2616 C   0  0  0  0  0  0  0  0  0  0  0  0
    7.9186  -13.8366   21.5022 C   0  0  1  0  0  0  0  0  0  0  0  0
    8.4080  -14.4427   20.1930 C   0  0  0  0  0  0  0  0  0  0  0  0
    8.8999  -14.0806   22.6159 C   0  0  0  0  0  0  0  0  0  0  0  0
    9.2357  -15.5049   22.8240 C   0  0  2  0  0  0  0  0  0  0  0  0
    8.2519  -16.3795   23.3284 N   0  0  0  0  0  0  0  0  0  0  0  0
   10.5734  -15.7791   23.3833 C   0  0  0  0  0  0  0  0  0  0  0  0
   11.5763  -15.1347   22.9803 O   0  0  0  0  0  0  0  0  0  0  0  0
   10.7594  -16.7653   24.3689 N   0  0  0  0  0  0  0  0  0  0  0  0
   11.3861  -16.4038   25.6349 C   0  0  1  0  0  0  0  0  0  0  0  0
   10.6199  -15.3294   26.3330 C   0  0  0  0  0  0  0  0  0  0  0  0
   11.5538  -14.7176   27.7578 S   0  0  0  0  0  0  0  0  0  0  0  0
   11.5023  -17.5707   26.5464 C   0  0  0  0  0  0  0  0  0  0  0  0
   10.6895  -18.5106   26.3606 O   0  0  0  0  0  0  0  0  0  0  0  0
   12.4623  -17.6273   27.5593 O   0  0  0  0  0  0  0  0  0  0  0  0
  2  1  1  0
  3  2  1  0
  4  3  1  0
  5  4  1  0
  5  7  1  0
  5  6  1  1
  7 14  1  0
  7  8  2  0
 10  9  1  6
 10 11  1  0
 12 10  1  0
 13 12  1  1
 14 13  1  0
 15 13  1  0
 15 17  1  0
 16 15  2  0
 18 21  1  0
 18 19  1  1
 18 17  1  0
 20 19  1  0
 21 23  1  0
 22 21  2  0
M  END
$$$$
