MLC.pdb
     RDKit          3D

 23 22  0  0  1  0  0  0  0  0999 V2000
    8.2668  -11.2658   19.7089 C   0  0  0  0  0  0  0  0  0  0  0  0
    7.7837  -12.6684   18.6775 S   0  0  0  0  0  0  0  0  0  0  0  0
    7.5696  -14.1800   19.6616 C   0  0  0  0  0  0  0  0  0  0  0  0
    8.3367  -14.0980   20.9632 C   0  0  0  0  0  0  0  0  0  0  0  0
    8.3086  -15.4450   21.6834 C   0  0  2  0  0  0  0  0  0  0  0  0
    6.9247  -15.9098   21.7602 N   0  0  0  0  0  0  0  0  0  0  0  0
    8.7928  -15.3571   23.0711 C   0  0  0  0  0  0  0  0  0  0  0  0
    9.9898  -15.1998   23.4037 O   0  0  0  0  0  0  0  0  0  0  0  0
    5.8305  -12.5043   26.6097 C   0  0  0  0  0  0  0  0  0  0  0  0
    6.9738  -13.1341   25.8700 C   0  0  1  0  0  0  0  0  0  0  0  0
    8.1512  -12.1692   25.9277 C   0  0  0  0  0  0  0  0  0  0  0  0
    7.3497  -14.4853   26.4140 C   0  0  0  0  0  0  0  0  0  0  0  0
    8.2192  -15.2767   25.5182 C   0  0  2  0  0  0  0  0  0  0  0  0
    7.8458  -15.4501   24.1700 N   0  0  0  0  0  0  0  0  0  0  0  0
    8.8081  -16.4977   26.1011 C   0  0  0  0  0  0  0  0  0  0  0  0
    8.2625  -17.0602   27.0857 O   0  0  0  0  0  0  0  0  0  0  0  0
    9.9891  -17.0545   25.5779 N   0  0  0  0  0  0  0  0  0  0  0  0
   10.5947  -18.2031   26.2413 C   0  0  1  0  0  0  0  0  0  0  0  0
   10.1880  -19.4833   25.5899 C   0  0  0  0  0  0  0  0  0  0  0  0
   10.3888  -19.3651   23.7948 S   0  0  0  0  0  0  0  0  0  0  0  0
   12.0778  -18.1222   26.2409 C   0  0  0  0  0  0  0  0  0  0  0  0
   12.5907  -17.2320   25.5176 O   0  0  0  0  0  0  0  0  0  0  0  0
   12.8675  -18.9871   27.0019 O   0  0  0  0  0  0  0  0  0  0  0  0
  2  1  1  0
  3  2  1  0
  4  3  1  0
  5  4  1  0
  5  7  1  0
  5  6  1  1
  7 14  1  0
  7  8  2  0
 10  9  1  1
 10 11  1  0
 12 10  1  0
 13 12  1  1
 14 13  1  0
 15 13  1  0
 15 17  1  0
 16 15  2  0
 18 21  1  0
 18 19  1  6
 18 17  1  0
 20 19  1  0
 21 23  1  0
 22 21  2  0
M  END
$$$$
