MLC.pdb
     RDKit          3D

 23 22  0  0  1  0  0  0  0  0999 V2000
    7.1286  -11.2741   26.8641 C   0  0  0  0  0  0  0  0  0  0  0  0
    7.4563  -12.7651   27.8308 S   0  0  0  0  0  0  0  0  0  0  0  0
    6.7820  -14.2465   27.0247 C   0  0  0  0  0  0  0  0  0  0  0  0
    7.5832  -14.6118   25.7943 C   0  0  0  0  0  0  0  0  0  0  0  0
    6.9730  -15.8305   25.1040 C   0  0  2  0  0  0  0  0  0  0  0  0
    7.0550  -16.9754   26.0094 N   0  0  0  0  0  0  0  0  0  0  0  0
    7.7010  -16.2156   23.8836 C   0  0  0  0  0  0  0  0  0  0  0  0
    7.9496  -17.3937   23.5393 O   0  0  0  0  0  0  0  0  0  0  0  0
    8.1120  -12.1394   20.1095 C   0  0  0  0  0  0  0  0  0  0  0  0
    7.7688  -13.4149   20.8213 C   0  0  1  0  0  0  0  0  0  0  0  0
    6.4335  -13.9053   20.2762 C   0  0  0  0  0  0  0  0  0  0  0  0
    8.8339  -14.4680   20.6818 C   0  0  0  0  0  0  0  0  0  0  0  0
    8.8299  -15.4780   21.7610 C   0  0  2  0  0  0  0  0  0  0  0  0
    8.1819  -15.1851   22.9782 N   0  0  0  0  0  0  0  0  0  0  0  0
   10.0904  -16.2193   21.9579 C   0  0  0  0  0  0  0  0  0  0  0  0
   10.6951  -16.7198   20.9745 O   0  0  0  0  0  0  0  0  0  0  0  0
   10.6393  -16.3887   23.2420 N   0  0  0  0  0  0  0  0  0  0  0  0
   12.0703  -16.6300   23.3833 C   0  0  1  0  0  0  0  0  0  0  0  0
   12.8619  -15.4061   23.0608 C   0  0  0  0  0  0  0  0  0  0  0  0
   14.6318  -15.7359   23.2497 S   0  0  0  0  0  0  0  0  0  0  0  0
   12.4225  -17.0730   24.7565 C   0  0  0  0  0  0  0  0  0  0  0  0
   11.5157  -16.9909   25.6222 O   0  0  0  0  0  0  0  0  0  0  0  0
   13.6932  -17.5567   25.0762 O   0  0  0  0  0  0  0  0  0  0  0  0
  2  1  1  0
  3  2  1  0
  4  3  1  0
  5  4  1  0
  5  7  1  0
  5  6  1  1
  7 14  1  0
  7  8  2  0
 10  9  1  6
 10 11  1  0
 12 10  1  0
 13 12  1  1
 14 13  1  0
 15 13  1  0
 15 17  1  0
 16 15  2  0
 18 21  1  0
 18 19  1  1
 18 17  1  0
 20 19  1  0
 21 23  1  0
 22 21  2  0
M  END
$$$$
