MLC.pdb
     RDKit          3D

 23 22  0  0  1  0  0  0  0  0999 V2000
    7.7989  -19.9026   28.3979 C   0  0  0  0  0  0  0  0  0  0  0  0
    6.8977  -21.0506   27.3326 S   0  0  0  0  0  0  0  0  0  0  0  0
    6.4706  -20.2898   25.7395 C   0  0  0  0  0  0  0  0  0  0  0  0
    7.3319  -19.0765   25.4649 C   0  0  0  0  0  0  0  0  0  0  0  0
    6.7883  -18.2974   24.2685 C   0  0  2  0  0  0  0  0  0  0  0  0
    6.9576  -19.1065   23.0627 N   0  0  0  0  0  0  0  0  0  0  0  0
    7.5184  -17.0415   24.0294 C   0  0  0  0  0  0  0  0  0  0  0  0
    8.4663  -16.9063   23.2222 O   0  0  0  0  0  0  0  0  0  0  0  0
    5.5639  -12.4091   26.5846 C   0  0  0  0  0  0  0  0  0  0  0  0
    6.2863  -13.1031   25.4676 C   0  0  1  0  0  0  0  0  0  0  0  0
    6.4538  -12.1023   24.3313 C   0  0  0  0  0  0  0  0  0  0  0  0
    7.6125  -13.6720   25.8923 C   0  0  0  0  0  0  0  0  0  0  0  0
    8.0628  -14.8240   25.0831 C   0  0  2  0  0  0  0  0  0  0  0  0
    7.1428  -15.8416   24.7590 N   0  0  0  0  0  0  0  0  0  0  0  0
    9.4014  -15.3559   25.4036 C   0  0  0  0  0  0  0  0  0  0  0  0
   10.3773  -15.1244   24.6437 O   0  0  0  0  0  0  0  0  0  0  0  0
    9.6157  -16.1349   26.5551 N   0  0  0  0  0  0  0  0  0  0  0  0
   10.5833  -15.6900   27.5511 C   0  0  1  0  0  0  0  0  0  0  0  0
   10.1722  -14.3935   28.1666 C   0  0  0  0  0  0  0  0  0  0  0  0
   11.3460  -13.9122   29.4579 S   0  0  0  0  0  0  0  0  0  0  0  0
   10.7621  -16.6918   28.6330 C   0  0  0  0  0  0  0  0  0  0  0  0
   11.6741  -16.4611   29.4659 O   0  0  0  0  0  0  0  0  0  0  0  0
    9.9621  -17.8330   28.7261 O   0  0  0  0  0  0  0  0  0  0  0  0
  2  1  1  0
  3  2  1  0
  4  3  1  0
  5  4  1  0
  5  7  1  0
  5  6  1  6
  7 14  1  0
  7  8  2  0
 10  9  1  1
 10 11  1  0
 12 10  1  0
 13 12  1  1
 14 13  1  0
 15 13  1  0
 15 17  1  0
 16 15  2  0
 18 21  1  0
 18 19  1  1
 18 17  1  0
 20 19  1  0
 21 23  1  0
 22 21  2  0
M  END
$$$$
