MLC.pdb
     RDKit          3D

 23 22  0  0  1  0  0  0  0  0999 V2000
    7.6290  -11.4321   27.0629 C   0  0  0  0  0  0  0  0  0  0  0  0
    6.6681  -12.6813   27.9466 S   0  0  0  0  0  0  0  0  0  0  0  0
    6.1373  -14.0219   26.8421 C   0  0  0  0  0  0  0  0  0  0  0  0
    7.2310  -14.3889   25.8632 C   0  0  0  0  0  0  0  0  0  0  0  0
    6.7202  -15.4164   24.8547 C   0  0  2  0  0  0  0  0  0  0  0  0
    6.4459  -16.6694   25.5561 N   0  0  0  0  0  0  0  0  0  0  0  0
    7.7130  -15.7337   23.8148 C   0  0  0  0  0  0  0  0  0  0  0  0
    8.3897  -16.7864   23.7677 O   0  0  0  0  0  0  0  0  0  0  0  0
    6.5865  -13.9678   20.5342 C   0  0  0  0  0  0  0  0  0  0  0  0
    7.8773  -13.9494   19.7695 C   0  0  1  0  0  0  0  0  0  0  0  0
    7.8850  -12.6966   18.9028 C   0  0  0  0  0  0  0  0  0  0  0  0
    9.0872  -14.0020   20.6618 C   0  0  0  0  0  0  0  0  0  0  0  0
    8.9724  -14.9626   21.7793 C   0  0  2  0  0  0  0  0  0  0  0  0
    7.9559  -14.7858   22.7399 N   0  0  0  0  0  0  0  0  0  0  0  0
   10.2434  -15.4107   22.3802 C   0  0  0  0  0  0  0  0  0  0  0  0
   10.7327  -14.7991   23.3651 O   0  0  0  0  0  0  0  0  0  0  0  0
   10.9373  -16.5209   21.8658 N   0  0  0  0  0  0  0  0  0  0  0  0
   12.1237  -17.0085   22.5593 C   0  0  1  0  0  0  0  0  0  0  0  0
   11.7986  -17.4474   23.9487 C   0  0  0  0  0  0  0  0  0  0  0  0
   13.1782  -17.0798   25.0616 S   0  0  0  0  0  0  0  0  0  0  0  0
   12.7560  -18.1438   21.8402 C   0  0  0  0  0  0  0  0  0  0  0  0
   12.0331  -18.7586   21.0168 O   0  0  0  0  0  0  0  0  0  0  0  0
   14.0842  -18.5145   22.0624 O   0  0  0  0  0  0  0  0  0  0  0  0
  2  1  1  0
  3  2  1  0
  4  3  1  0
  5  4  1  0
  5  7  1  0
  5  6  1  1
  7 14  1  0
  7  8  2  0
 10  9  1  1
 10 11  1  0
 12 10  1  0
 13 12  1  1
 14 13  1  0
 15 13  1  0
 15 17  1  0
 16 15  2  0
 18 21  1  0
 18 19  1  1
 18 17  1  0
 20 19  1  0
 21 23  1  0
 22 21  2  0
M  END
$$$$
