MLC.pdb
     RDKit          3D

 23 22  0  0  1  0  0  0  0  0999 V2000
   10.4072  -14.5097   29.4339 C   0  0  0  0  0  0  0  0  0  0  0  0
   11.2608  -15.9930   28.8545 S   0  0  0  0  0  0  0  0  0  0  0  0
   10.0899  -17.3104   28.4159 C   0  0  0  0  0  0  0  0  0  0  0  0
    8.6982  -16.7561   28.2030 C   0  0  0  0  0  0  0  0  0  0  0  0
    7.8992  -17.6664   27.2720 C   0  0  2  0  0  0  0  0  0  0  0  0
    8.7251  -18.8192   26.9168 N   0  0  0  0  0  0  0  0  0  0  0  0
    7.5406  -17.0086   26.0047 C   0  0  0  0  0  0  0  0  0  0  0  0
    6.9406  -17.5619   25.0548 O   0  0  0  0  0  0  0  0  0  0  0  0
    7.2850  -11.4835   26.0126 C   0  0  0  0  0  0  0  0  0  0  0  0
    7.0298  -12.9620   25.9997 C   0  0  1  0  0  0  0  0  0  0  0  0
    5.6638  -13.2023   26.6299 C   0  0  0  0  0  0  0  0  0  0  0  0
    7.1056  -13.5572   24.6203 C   0  0  0  0  0  0  0  0  0  0  0  0
    7.6395  -14.9350   24.5853 C   0  0  2  0  0  0  0  0  0  0  0  0
    7.8844  -15.6115   25.7976 N   0  0  0  0  0  0  0  0  0  0  0  0
    8.6790  -15.2004   23.5722 C   0  0  0  0  0  0  0  0  0  0  0  0
    8.5734  -14.7249   22.4119 O   0  0  0  0  0  0  0  0  0  0  0  0
    9.8020  -15.9916   23.8751 N   0  0  0  0  0  0  0  0  0  0  0  0
   10.8379  -16.1809   22.8666 C   0  0  1  0  0  0  0  0  0  0  0  0
   12.1912  -16.2778   23.4895 C   0  0  0  0  0  0  0  0  0  0  0  0
   12.4430  -14.9177   24.6572 S   0  0  0  0  0  0  0  0  0  0  0  0
   10.6019  -17.4025   22.0554 C   0  0  0  0  0  0  0  0  0  0  0  0
    9.6146  -18.1088   22.3793 O   0  0  0  0  0  0  0  0  0  0  0  0
   11.4299  -17.7542   20.9869 O   0  0  0  0  0  0  0  0  0  0  0  0
  2  1  1  0
  3  2  1  0
  4  3  1  0
  5  4  1  0
  5  7  1  0
  5  6  1  6
  7 14  1  0
  7  8  2  0
 10  9  1  6
 10 11  1  0
 12 10  1  0
 13 12  1  1
 14 13  1  0
 15 13  1  0
 15 17  1  0
 16 15  2  0
 18 21  1  0
 18 19  1  1
 18 17  1  0
 20 19  1  0
 21 23  1  0
 22 21  2  0
M  END
$$$$
