MLC.pdb
     RDKit          3D

 23 22  0  0  1  0  0  0  0  0999 V2000
   11.7063  -19.8724   14.7041 C   0  0  0  0  0  0  0  0  0  0  0  0
   12.5471  -19.6562   16.2887 S   0  0  0  0  0  0  0  0  0  0  0  0
   12.6310  -17.9063   16.7682 C   0  0  0  0  0  0  0  0  0  0  0  0
   11.5207  -17.1083   16.1204 C   0  0  0  0  0  0  0  0  0  0  0  0
   11.6402  -15.6312   16.4916 C   0  0  2  0  0  0  0  0  0  0  0  0
   12.9809  -15.1643   16.1425 N   0  0  0  0  0  0  0  0  0  0  0  0
   11.4831  -15.3942   17.9361 C   0  0  0  0  0  0  0  0  0  0  0  0
   12.4203  -15.3844   18.7667 O   0  0  0  0  0  0  0  0  0  0  0  0
    6.7799  -12.7799   19.8343 C   0  0  0  0  0  0  0  0  0  0  0  0
    8.1688  -13.2243   19.4814 C   0  0  1  0  0  0  0  0  0  0  0  0
    9.0944  -12.0252   19.6426 C   0  0  0  0  0  0  0  0  0  0  0  0
    8.6383  -14.3899   20.3082 C   0  0  0  0  0  0  0  0  0  0  0  0
    9.9234  -14.9684   19.8623 C   0  0  2  0  0  0  0  0  0  0  0  0
   10.1600  -15.1437   18.4837 N   0  0  0  0  0  0  0  0  0  0  0  0
   10.4437  -16.0883   20.6700 C   0  0  0  0  0  0  0  0  0  0  0  0
   10.4930  -17.2504   20.1901 O   0  0  0  0  0  0  0  0  0  0  0  0
   10.8877  -15.8862   21.9894 N   0  0  0  0  0  0  0  0  0  0  0  0
   11.4633  -17.0022   22.7304 C   0  0  1  0  0  0  0  0  0  0  0  0
   12.6475  -17.5716   22.0217 C   0  0  0  0  0  0  0  0  0  0  0  0
   12.1402  -18.9425   20.9540 S   0  0  0  0  0  0  0  0  0  0  0  0
   11.8787  -16.6007   24.0987 C   0  0  0  0  0  0  0  0  0  0  0  0
   11.6945  -15.3976   24.4103 O   0  0  0  0  0  0  0  0  0  0  0  0
   12.4453  -17.5074   24.9974 O   0  0  0  0  0  0  0  0  0  0  0  0
  2  1  1  0
  3  2  1  0
  4  3  1  0
  5  4  1  0
  5  7  1  0
  5  6  1  1
  7 14  1  0
  7  8  2  0
 10  9  1  1
 10 11  1  0
 12 10  1  0
 13 12  1  6
 14 13  1  0
 15 13  1  0
 15 17  1  0
 16 15  2  0
 18 21  1  0
 18 19  1  6
 18 17  1  0
 20 19  1  0
 21 23  1  0
 22 21  2  0
M  END
$$$$
