MLC.pdb
     RDKit          3D

 23 22  0  0  1  0  0  0  0  0999 V2000
    7.5784  -11.6946   26.7778 C   0  0  0  0  0  0  0  0  0  0  0  0
    6.2416  -12.6630   27.5125 S   0  0  0  0  0  0  0  0  0  0  0  0
    5.7322  -14.0293   26.4295 C   0  0  0  0  0  0  0  0  0  0  0  0
    6.9330  -14.7628   25.8734 C   0  0  0  0  0  0  0  0  0  0  0  0
    6.4937  -15.7914   24.8328 C   0  0  2  0  0  0  0  0  0  0  0  0
    6.3391  -17.0889   25.4885 N   0  0  0  0  0  0  0  0  0  0  0  0
    7.4914  -15.9830   23.7672 C   0  0  0  0  0  0  0  0  0  0  0  0
    8.0174  -17.0792   23.4669 O   0  0  0  0  0  0  0  0  0  0  0  0
    7.7483  -12.0284   19.6590 C   0  0  0  0  0  0  0  0  0  0  0  0
    7.5986  -13.2566   20.5077 C   0  0  1  0  0  0  0  0  0  0  0  0
    6.7609  -14.2609   19.7265 C   0  0  0  0  0  0  0  0  0  0  0  0
    8.9190  -13.8499   20.9169 C   0  0  0  0  0  0  0  0  0  0  0  0
    8.8076  -14.9634   21.8826 C   0  0  2  0  0  0  0  0  0  0  0  0
    7.9251  -14.8438   22.9753 N   0  0  0  0  0  0  0  0  0  0  0  0
   10.0718  -15.6300   22.2498 C   0  0  0  0  0  0  0  0  0  0  0  0
   10.8661  -16.0249   21.3573 O   0  0  0  0  0  0  0  0  0  0  0  0
   10.4140  -15.8445   23.5973 N   0  0  0  0  0  0  0  0  0  0  0  0
   11.7810  -16.2202   23.9382 C   0  0  1  0  0  0  0  0  0  0  0  0
   12.1328  -15.7908   25.3240 C   0  0  0  0  0  0  0  0  0  0  0  0
   10.8666  -16.3450   26.4929 S   0  0  0  0  0  0  0  0  0  0  0  0
   11.9943  -17.6860   23.8286 C   0  0  0  0  0  0  0  0  0  0  0  0
   10.9858  -18.3799   23.5456 O   0  0  0  0  0  0  0  0  0  0  0  0
   13.2474  -18.2696   24.0283 O   0  0  0  0  0  0  0  0  0  0  0  0
  2  1  1  0
  3  2  1  0
  4  3  1  0
  5  4  1  0
  5  7  1  0
  5  6  1  1
  7 14  1  0
  7  8  2  0
 10  9  1  6
 10 11  1  0
 12 10  1  0
 13 12  1  1
 14 13  1  0
 15 13  1  0
 15 17  1  0
 16 15  2  0
 18 21  1  0
 18 19  1  1
 18 17  1  0
 20 19  1  0
 21 23  1  0
 22 21  2  0
M  END
$$$$
