MLC.pdb
     RDKit          3D

 23 22  0  0  1  0  0  0  0  0999 V2000
    8.6476  -11.8888   19.2119 C   0  0  0  0  0  0  0  0  0  0  0  0
    7.5622  -13.1815   18.5673 S   0  0  0  0  0  0  0  0  0  0  0  0
    7.4676  -14.6005   19.6971 C   0  0  0  0  0  0  0  0  0  0  0  0
    8.8174  -14.9010   20.3114 C   0  0  0  0  0  0  0  0  0  0  0  0
    8.6781  -15.9442   21.4187 C   0  0  2  0  0  0  0  0  0  0  0  0
    7.3461  -16.5414   21.3389 N   0  0  0  0  0  0  0  0  0  0  0  0
    8.7894  -15.3607   22.7658 C   0  0  0  0  0  0  0  0  0  0  0  0
    9.8430  -14.9009   23.2627 O   0  0  0  0  0  0  0  0  0  0  0  0
    5.5531  -11.9765   26.6550 C   0  0  0  0  0  0  0  0  0  0  0  0
    6.7516  -12.6050   26.0070 C   0  0  1  0  0  0  0  0  0  0  0  0
    7.8143  -12.7938   27.0820 C   0  0  0  0  0  0  0  0  0  0  0  0
    6.4322  -13.9058   25.3223 C   0  0  0  0  0  0  0  0  0  0  0  0
    7.6216  -14.6644   24.8814 C   0  0  2  0  0  0  0  0  0  0  0  0
    7.6132  -15.2875   23.6168 N   0  0  0  0  0  0  0  0  0  0  0  0
    8.2810  -15.4897   25.9116 C   0  0  0  0  0  0  0  0  0  0  0  0
    8.4015  -15.0621   27.0889 O   0  0  0  0  0  0  0  0  0  0  0  0
    8.7933  -16.7628   25.6028 N   0  0  0  0  0  0  0  0  0  0  0  0
    9.2038  -17.6513   26.6836 C   0  0  1  0  0  0  0  0  0  0  0  0
    8.0268  -18.3172   27.3161 C   0  0  0  0  0  0  0  0  0  0  0  0
    7.0228  -19.1444   26.0573 S   0  0  0  0  0  0  0  0  0  0  0  0
   10.1425  -18.7002   26.2096 C   0  0  0  0  0  0  0  0  0  0  0  0
   10.5732  -19.5009   27.0768 O   0  0  0  0  0  0  0  0  0  0  0  0
   10.5309  -18.7975   24.8715 O   0  0  0  0  0  0  0  0  0  0  0  0
  2  1  1  0
  3  2  1  0
  4  3  1  0
  5  4  1  0
  5  7  1  0
  5  6  1  1
  7 14  1  0
  7  8  2  0
 10  9  1  1
 10 11  1  0
 12 10  1  0
 13 12  1  1
 14 13  1  0
 15 13  1  0
 15 17  1  0
 16 15  2  0
 18 21  1  0
 18 19  1  6
 18 17  1  0
 20 19  1  0
 21 23  1  0
 22 21  2  0
M  END
$$$$
