MLC.pdb
     RDKit          3D

 23 22  0  0  1  0  0  0  0  0999 V2000
    7.1002  -11.6006   26.9717 C   0  0  0  0  0  0  0  0  0  0  0  0
    5.6693  -12.5300   27.5662 S   0  0  0  0  0  0  0  0  0  0  0  0
    5.3836  -14.0248   26.5749 C   0  0  0  0  0  0  0  0  0  0  0  0
    6.6247  -14.4132   25.8014 C   0  0  0  0  0  0  0  0  0  0  0  0
    6.3412  -15.6225   24.9120 C   0  0  2  0  0  0  0  0  0  0  0  0
    6.0292  -16.7702   25.7622 N   0  0  0  0  0  0  0  0  0  0  0  0
    7.5042  -16.0145   24.0989 C   0  0  0  0  0  0  0  0  0  0  0  0
    8.0912  -17.1183   24.1732 O   0  0  0  0  0  0  0  0  0  0  0  0
    8.4734  -12.6396   19.7549 C   0  0  0  0  0  0  0  0  0  0  0  0
    8.0552  -13.7497   20.6736 C   0  0  1  0  0  0  0  0  0  0  0  0
    6.8186  -14.4069   20.0739 C   0  0  0  0  0  0  0  0  0  0  0  0
    9.1472  -14.7571   20.9096 C   0  0  0  0  0  0  0  0  0  0  0  0
    9.0744  -15.4306   22.2233 C   0  0  2  0  0  0  0  0  0  0  0  0
    8.0432  -15.0846   23.1201 N   0  0  0  0  0  0  0  0  0  0  0  0
   10.3625  -15.6571   22.9064 C   0  0  0  0  0  0  0  0  0  0  0  0
   11.3778  -16.0076   22.2508 O   0  0  0  0  0  0  0  0  0  0  0  0
   10.4840  -15.4943   24.2983 N   0  0  0  0  0  0  0  0  0  0  0  0
   11.7667  -15.7550   24.9408 C   0  0  1  0  0  0  0  0  0  0  0  0
   11.8930  -15.0053   26.2256 C   0  0  0  0  0  0  0  0  0  0  0  0
   10.2655  -14.7882   26.9877 S   0  0  0  0  0  0  0  0  0  0  0  0
   11.9625  -17.2014   25.2158 C   0  0  0  0  0  0  0  0  0  0  0  0
   10.9833  -17.9539   24.9845 O   0  0  0  0  0  0  0  0  0  0  0  0
   13.1692  -17.7060   25.7059 O   0  0  0  0  0  0  0  0  0  0  0  0
  2  1  1  0
  3  2  1  0
  4  3  1  0
  5  4  1  0
  5  7  1  0
  5  6  1  1
  7 14  1  0
  7  8  2  0
 10  9  1  6
 10 11  1  0
 12 10  1  0
 13 12  1  6
 14 13  1  0
 15 13  1  0
 15 17  1  0
 16 15  2  0
 18 21  1  0
 18 19  1  1
 18 17  1  0
 20 19  1  0
 21 23  1  0
 22 21  2  0
M  END
$$$$
