MLC.pdb
     RDKit          3D

 23 22  0  0  1  0  0  0  0  0999 V2000
    6.9263  -20.1319   20.8874 C   0  0  0  0  0  0  0  0  0  0  0  0
    6.7172  -19.1413   19.3908 S   0  0  0  0  0  0  0  0  0  0  0  0
    7.0200  -17.3786   19.7078 C   0  0  0  0  0  0  0  0  0  0  0  0
    7.6351  -17.1667   21.0738 C   0  0  0  0  0  0  0  0  0  0  0  0
    7.7456  -15.6745   21.3823 C   0  0  2  0  0  0  0  0  0  0  0  0
    8.6874  -15.0675   20.4431 N   0  0  0  0  0  0  0  0  0  0  0  0
    8.2777  -15.4110   22.7295 C   0  0  0  0  0  0  0  0  0  0  0  0
    9.4911  -15.4354   23.0381 O   0  0  0  0  0  0  0  0  0  0  0  0
    5.8730  -11.9602   26.4563 C   0  0  0  0  0  0  0  0  0  0  0  0
    6.8764  -12.7307   25.6496 C   0  0  1  0  0  0  0  0  0  0  0  0
    8.2061  -11.9924   25.7359 C   0  0  0  0  0  0  0  0  0  0  0  0
    7.0163  -14.1593   26.0992 C   0  0  0  0  0  0  0  0  0  0  0  0
    7.7704  -15.0170   25.1609 C   0  0  2  0  0  0  0  0  0  0  0  0
    7.3635  -15.0898   23.8131 N   0  0  0  0  0  0  0  0  0  0  0  0
    8.2088  -16.3235   25.6883 C   0  0  0  0  0  0  0  0  0  0  0  0
    7.4296  -17.3114   25.6702 O   0  0  0  0  0  0  0  0  0  0  0  0
    9.4973  -16.4931   26.2265 N   0  0  0  0  0  0  0  0  0  0  0  0
    9.8911  -17.7979   26.7449 C   0  0  1  0  0  0  0  0  0  0  0  0
   10.9244  -18.4376   25.8778 C   0  0  0  0  0  0  0  0  0  0  0  0
   12.2472  -17.2594   25.5052 S   0  0  0  0  0  0  0  0  0  0  0  0
   10.4256  -17.7042   28.1274 C   0  0  0  0  0  0  0  0  0  0  0  0
   10.5150  -16.5506   28.6172 O   0  0  0  0  0  0  0  0  0  0  0  0
   10.8107  -18.8348   28.8514 O   0  0  0  0  0  0  0  0  0  0  0  0
  2  1  1  0
  3  2  1  0
  4  3  1  0
  5  4  1  0
  5  7  1  0
  5  6  1  6
  7 14  1  0
  7  8  2  0
 10  9  1  1
 10 11  1  0
 12 10  1  0
 13 12  1  1
 14 13  1  0
 15 13  1  0
 15 17  1  0
 16 15  2  0
 18 21  1  0
 18 19  1  6
 18 17  1  0
 20 19  1  0
 21 23  1  0
 22 21  2  0
M  END
$$$$
