MLC.pdb
     RDKit          3D

 23 22  0  0  1  0  0  0  0  0999 V2000
    7.3623  -20.0960   28.7954 C   0  0  0  0  0  0  0  0  0  0  0  0
    8.3753  -20.7347   27.4424 S   0  0  0  0  0  0  0  0  0  0  0  0
    8.1470  -19.7679   25.9218 C   0  0  0  0  0  0  0  0  0  0  0  0
    6.6884  -19.4308   25.7022 C   0  0  0  0  0  0  0  0  0  0  0  0
    6.5163  -18.6226   24.4172 C   0  0  2  0  0  0  0  0  0  0  0  0
    7.1398  -19.3522   23.3144 N   0  0  0  0  0  0  0  0  0  0  0  0
    7.1852  -17.3124   24.4765 C   0  0  0  0  0  0  0  0  0  0  0  0
    8.2833  -17.0435   23.9378 O   0  0  0  0  0  0  0  0  0  0  0  0
    6.9112  -11.9370   24.5335 C   0  0  0  0  0  0  0  0  0  0  0  0
    7.0460  -12.5115   25.9131 C   0  0  1  0  0  0  0  0  0  0  0  0
    6.4178  -11.5252   26.8895 C   0  0  0  0  0  0  0  0  0  0  0  0
    6.4257  -13.8758   26.0422 C   0  0  0  0  0  0  0  0  0  0  0  0
    7.1378  -14.9362   25.2984 C   0  0  2  0  0  0  0  0  0  0  0  0
    6.5589  -16.2178   25.1995 N   0  0  0  0  0  0  0  0  0  0  0  0
    8.5996  -14.9916   25.4915 C   0  0  0  0  0  0  0  0  0  0  0  0
    9.3502  -14.1645   24.9120 O   0  0  0  0  0  0  0  0  0  0  0  0
    9.1857  -15.9681   26.3171 N   0  0  0  0  0  0  0  0  0  0  0  0
   10.2719  -15.5902   27.2135 C   0  0  1  0  0  0  0  0  0  0  0  0
    9.8104  -14.6145   28.2449 C   0  0  0  0  0  0  0  0  0  0  0  0
   11.2232  -13.9705   29.1756 S   0  0  0  0  0  0  0  0  0  0  0  0
   10.8531  -16.7696   27.9044 C   0  0  0  0  0  0  0  0  0  0  0  0
   10.1541  -17.8135   27.9160 O   0  0  0  0  0  0  0  0  0  0  0  0
   12.1102  -16.7278   28.5116 O   0  0  0  0  0  0  0  0  0  0  0  0
  2  1  1  0
  3  2  1  0
  4  3  1  0
  5  4  1  0
  5  7  1  0
  5  6  1  6
  7 14  1  0
  7  8  2  0
 10  9  1  6
 10 11  1  0
 12 10  1  0
 13 12  1  1
 14 13  1  0
 15 13  1  0
 15 17  1  0
 16 15  2  0
 18 21  1  0
 18 19  1  1
 18 17  1  0
 20 19  1  0
 21 23  1  0
 22 21  2  0
M  END
$$$$
