MLC.pdb
     RDKit          3D

 23 22  0  0  1  0  0  0  0  0999 V2000
    7.2278  -20.6079   22.4324 C   0  0  0  0  0  0  0  0  0  0  0  0
    6.5169  -20.1804   20.8273 S   0  0  0  0  0  0  0  0  0  0  0  0
    6.8953  -18.4654   20.3636 C   0  0  0  0  0  0  0  0  0  0  0  0
    6.9490  -17.5692   21.5814 C   0  0  0  0  0  0  0  0  0  0  0  0
    7.1651  -16.1156   21.1637 C   0  0  2  0  0  0  0  0  0  0  0  0
    7.9523  -16.0912   19.9320 N   0  0  0  0  0  0  0  0  0  0  0  0
    7.9305  -15.3466   22.1588 C   0  0  0  0  0  0  0  0  0  0  0  0
    9.1750  -15.2068   22.1536 O   0  0  0  0  0  0  0  0  0  0  0  0
    7.7105  -11.5682   26.9997 C   0  0  0  0  0  0  0  0  0  0  0  0
    7.1537  -12.7988   26.3463 C   0  0  1  0  0  0  0  0  0  0  0  0
    5.7005  -12.9378   26.7816 C   0  0  0  0  0  0  0  0  0  0  0  0
    7.2729  -12.7704   24.8470 C   0  0  0  0  0  0  0  0  0  0  0  0
    7.8997  -13.9772   24.2678 C   0  0  2  0  0  0  0  0  0  0  0  0
    7.2310  -14.6784   23.2439 N   0  0  0  0  0  0  0  0  0  0  0  0
    8.5706  -14.8796   25.2232 C   0  0  0  0  0  0  0  0  0  0  0  0
    9.2812  -14.4111   26.1500 O   0  0  0  0  0  0  0  0  0  0  0  0
    8.4382  -16.2760   25.1176 N   0  0  0  0  0  0  0  0  0  0  0  0
    9.1808  -17.1371   26.0304 C   0  0  1  0  0  0  0  0  0  0  0  0
    8.5244  -18.4702   26.1745 C   0  0  0  0  0  0  0  0  0  0  0  0
    7.0877  -18.3469   27.2688 S   0  0  0  0  0  0  0  0  0  0  0  0
   10.5800  -17.3452   25.5776 C   0  0  0  0  0  0  0  0  0  0  0  0
   10.9124  -16.7806   24.5056 O   0  0  0  0  0  0  0  0  0  0  0  0
   11.4846  -18.1262   26.3005 O   0  0  0  0  0  0  0  0  0  0  0  0
  2  1  1  0
  3  2  1  0
  4  3  1  0
  5  4  1  0
  5  7  1  0
  5  6  1  6
  7 14  1  0
  7  8  2  0
 10  9  1  1
 10 11  1  0
 12 10  1  0
 13 12  1  1
 14 13  1  0
 15 13  1  0
 15 17  1  0
 16 15  2  0
 18 21  1  0
 18 19  1  6
 18 17  1  0
 20 19  1  0
 21 23  1  0
 22 21  2  0
M  END
$$$$
