MLC.pdb
     RDKit          3D

 23 22  0  0  1  0  0  0  0  0999 V2000
    8.6157  -11.9973   19.2680 C   0  0  0  0  0  0  0  0  0  0  0  0
    7.3400  -13.2114   18.8639 S   0  0  0  0  0  0  0  0  0  0  0  0
    7.2980  -14.5654   20.0737 C   0  0  0  0  0  0  0  0  0  0  0  0
    8.6147  -14.6817   20.8100 C   0  0  0  0  0  0  0  0  0  0  0  0
    8.5596  -15.8246   21.8222 C   0  0  2  0  0  0  0  0  0  0  0  0
    7.2091  -16.3843   21.8282 N   0  0  0  0  0  0  0  0  0  0  0  0
    8.8278  -15.3772   23.1990 C   0  0  0  0  0  0  0  0  0  0  0  0
    9.9449  -15.0071   23.6274 O   0  0  0  0  0  0  0  0  0  0  0  0
    5.5655  -11.8785   25.9457 C   0  0  0  0  0  0  0  0  0  0  0  0
    6.7600  -12.6477   25.4635 C   0  0  1  0  0  0  0  0  0  0  0  0
    7.9990  -11.8105   25.7544 C   0  0  0  0  0  0  0  0  0  0  0  0
    6.8670  -14.0133   26.0854 C   0  0  0  0  0  0  0  0  0  0  0  0
    7.9110  -14.8703   25.4852 C   0  0  2  0  0  0  0  0  0  0  0  0
    7.7439  -15.3413   24.1671 N   0  0  0  0  0  0  0  0  0  0  0  0
    8.5044  -15.8865   26.3755 C   0  0  0  0  0  0  0  0  0  0  0  0
    8.6907  -15.6345   27.5942 O   0  0  0  0  0  0  0  0  0  0  0  0
    8.8797  -17.1504   25.8851 N   0  0  0  0  0  0  0  0  0  0  0  0
    9.2080  -18.2151   26.8257 C   0  0  1  0  0  0  0  0  0  0  0  0
    7.9763  -18.8139   27.4199 C   0  0  0  0  0  0  0  0  0  0  0  0
    6.7394  -19.1113   26.1321 S   0  0  0  0  0  0  0  0  0  0  0  0
    9.9966  -19.2966   26.1819 C   0  0  0  0  0  0  0  0  0  0  0  0
   10.3599  -20.2435   26.9235 O   0  0  0  0  0  0  0  0  0  0  0  0
   10.3213  -19.2693   24.8237 O   0  0  0  0  0  0  0  0  0  0  0  0
  2  1  1  0
  3  2  1  0
  4  3  1  0
  5  4  1  0
  5  7  1  0
  5  6  1  1
  7 14  1  0
  7  8  2  0
 10  9  1  1
 10 11  1  0
 12 10  1  0
 13 12  1  1
 14 13  1  0
 15 13  1  0
 15 17  1  0
 16 15  2  0
 18 21  1  0
 18 19  1  6
 18 17  1  0
 20 19  1  0
 21 23  1  0
 22 21  2  0
M  END
$$$$
