HCL.pdb
     RDKit          3D

 25 25  0  0  1  0  0  0  0  0999 V2000
    8.4611  -18.7465   19.2547 N   0  0  0  0  0  0  0  0  0  0  0  0
    8.7488  -17.4303   19.7565 C   0  0  1  0  0  0  0  0  0  0  0  0
    8.2938  -16.4370   18.7040 C   0  0  0  0  0  0  0  0  0  0  0  0
    9.1344  -16.6308   17.5070 C   0  0  0  0  0  0  0  0  0  0  0  0
    8.7399  -16.7108   16.1939 C   0  0  0  0  0  0  0  0  0  0  0  0
    9.8565  -16.8933   15.4303 N   0  0  0  0  0  0  0  0  0  0  0  0
   10.9182  -16.9258   16.2487 C   0  0  0  0  0  0  0  0  0  0  0  0
   10.4689  -16.7653   17.5106 N   0  0  0  0  0  0  0  0  0  0  0  0
    8.0591  -17.2167   21.0502 C   0  0  0  0  0  0  0  0  0  0  0  0
    6.9109  -16.7099   21.0470 O   0  0  0  0  0  0  0  0  0  0  0  0
    8.6333  -17.5573   22.2963 N   0  0  0  0  0  0  0  0  0  0  0  0
    7.9000  -17.3631   23.4991 C   0  0  1  0  0  0  0  0  0  0  0  0
    7.5491  -18.6790   24.1886 C   0  0  0  0  0  0  0  0  0  0  0  0
    6.6226  -18.3876   25.7080 S   0  0  0  0  0  0  0  0  0  0  0  0
    8.6143  -16.4544   24.4474 C   0  0  0  0  0  0  0  0  0  0  0  0
    9.8701  -16.4263   24.5128 O   0  0  0  0  0  0  0  0  0  0  0  0
    7.1871  -12.4581   25.0383 C   0  0  0  0  0  0  0  0  0  0  0  0
    7.4451  -12.5434   26.5099 C   0  0  1  0  0  0  0  0  0  0  0  0
    6.2183  -11.9412   27.2112 C   0  0  0  0  0  0  0  0  0  0  0  0
    7.5630  -13.9441   26.9990 C   0  0  0  0  0  0  0  0  0  0  0  0
    8.6135  -14.7788   26.3368 C   0  0  2  0  0  0  0  0  0  0  0  0
    7.9142  -15.5778   25.3218 N   0  0  0  0  0  0  0  0  0  0  0  0
    9.3787  -15.6302   27.2550 C   0  0  0  0  0  0  0  0  0  0  0  0
    9.1572  -16.8572   27.4151 O   0  0  0  0  0  0  0  0  0  0  0  0
   10.4095  -15.0809   28.0015 O   0  0  0  0  0  0  0  0  0  0  0  0
  2  1  1  6
  3  2  1  0
  3  4  1  0
  4  8  1  0
  5  4  2  0
  5  6  1  0
  6  7  1  0
  8  7  2  0
  9  2  1  0
  9 10  2  0
 11  9  1  0
 12 11  1  0
 12 15  1  0
 12 13  1  1
 14 13  1  0
 15 22  1  0
 16 15  2  0
 18 17  1  6
 18 19  1  0
 20 18  1  0
 21 20  1  1
 22 21  1  0
 23 25  1  0
 23 21  1  0
 24 23  2  0
M  END
$$$$
