HCL.pdb
     RDKit          3D

 25 25  0  0  1  0  0  0  0  0999 V2000
    9.8097  -18.2799   20.1168 N   0  0  0  0  0  0  0  0  0  0  0  0
   10.6736  -17.7734   21.1483 C   0  0  1  0  0  0  0  0  0  0  0  0
   11.2340  -16.4516   20.6585 C   0  0  0  0  0  0  0  0  0  0  0  0
   12.3564  -16.7469   19.7475 C   0  0  0  0  0  0  0  0  0  0  0  0
   13.1124  -17.8910   19.6713 C   0  0  0  0  0  0  0  0  0  0  0  0
   14.0382  -17.7177   18.6833 N   0  0  0  0  0  0  0  0  0  0  0  0
   13.8616  -16.4962   18.1589 C   0  0  0  0  0  0  0  0  0  0  0  0
   12.8359  -15.9129   18.8129 N   0  0  0  0  0  0  0  0  0  0  0  0
    9.9185  -17.6167   22.4133 C   0  0  0  0  0  0  0  0  0  0  0  0
    8.7832  -17.0826   22.3778 O   0  0  0  0  0  0  0  0  0  0  0  0
   10.4158  -18.0414   23.6666 N   0  0  0  0  0  0  0  0  0  0  0  0
    9.6192  -17.9036   24.8366 C   0  0  1  0  0  0  0  0  0  0  0  0
    8.7829  -19.1478   25.1240 C   0  0  0  0  0  0  0  0  0  0  0  0
    9.8353  -20.5655   25.4908 S   0  0  0  0  0  0  0  0  0  0  0  0
   10.4415  -17.5430   26.0321 C   0  0  0  0  0  0  0  0  0  0  0  0
   11.6589  -17.8488   26.1104 O   0  0  0  0  0  0  0  0  0  0  0  0
    9.4262  -12.9831   28.5042 C   0  0  0  0  0  0  0  0  0  0  0  0
   10.0425  -14.2174   27.9245 C   0  0  1  0  0  0  0  0  0  0  0  0
   11.4596  -13.8350   27.4714 C   0  0  0  0  0  0  0  0  0  0  0  0
   10.2010  -15.3111   28.9214 C   0  0  0  0  0  0  0  0  0  0  0  0
   10.6555  -16.6282   28.3762 C   0  0  2  0  0  0  0  0  0  0  0  0
    9.8923  -16.8382   27.1388 N   0  0  0  0  0  0  0  0  0  0  0  0
   10.4948  -17.7551   29.3024 C   0  0  0  0  0  0  0  0  0  0  0  0
    9.5798  -18.6116   29.2052 O   0  0  0  0  0  0  0  0  0  0  0  0
   11.3854  -17.9117   30.3530 O   0  0  0  0  0  0  0  0  0  0  0  0
  2  1  1  6
  3  2  1  0
  3  4  1  0
  4  8  1  0
  5  4  2  0
  5  6  1  0
  6  7  1  0
  8  7  2  0
  9  2  1  0
  9 10  2  0
 11  9  1  0
 12 11  1  0
 12 15  1  0
 12 13  1  1
 14 13  1  0
 15 22  1  0
 16 15  2  0
 18 17  1  1
 18 19  1  0
 20 18  1  0
 21 20  1  1
 22 21  1  0
 23 25  1  0
 23 21  1  0
 24 23  2  0
M  END
$$$$
