HCL.pdb
     RDKit          3D

 25 25  0  0  1  0  0  0  0  0999 V2000
    7.2877  -18.4458   20.2157 N   0  0  0  0  0  0  0  0  0  0  0  0
    8.3629  -17.9511   21.0319 C   0  0  1  0  0  0  0  0  0  0  0  0
    8.9444  -16.7405   20.3266 C   0  0  0  0  0  0  0  0  0  0  0  0
    9.7264  -17.2230   19.1722 C   0  0  0  0  0  0  0  0  0  0  0  0
   10.5523  -18.3181   19.1015 C   0  0  0  0  0  0  0  0  0  0  0  0
   11.0655  -18.3763   17.8381 N   0  0  0  0  0  0  0  0  0  0  0  0
   10.5707  -17.3430   17.1412 C   0  0  0  0  0  0  0  0  0  0  0  0
    9.7567  -16.6468   17.9614 N   0  0  0  0  0  0  0  0  0  0  0  0
    7.8613  -17.6125   22.3842 C   0  0  0  0  0  0  0  0  0  0  0  0
    7.1311  -16.6011   22.5227 O   0  0  0  0  0  0  0  0  0  0  0  0
    8.1659  -18.3765   23.5340 N   0  0  0  0  0  0  0  0  0  0  0  0
    7.8286  -17.8895   24.8268 C   0  0  1  0  0  0  0  0  0  0  0  0
    6.8947  -18.8323   25.5811 C   0  0  0  0  0  0  0  0  0  0  0  0
    7.3355  -20.5556   25.2845 S   0  0  0  0  0  0  0  0  0  0  0  0
    9.0437  -17.5963   25.6471 C   0  0  0  0  0  0  0  0  0  0  0  0
   10.1815  -18.0139   25.3111 O   0  0  0  0  0  0  0  0  0  0  0  0
    9.2459  -14.0004   26.6347 C   0  0  0  0  0  0  0  0  0  0  0  0
   10.1350  -14.1788   27.8251 C   0  0  1  0  0  0  0  0  0  0  0  0
    9.7829  -13.0572   28.8140 C   0  0  0  0  0  0  0  0  0  0  0  0
    9.8963  -15.4611   28.5419 C   0  0  0  0  0  0  0  0  0  0  0  0
   10.1308  -16.7057   27.7453 C   0  0  2  0  0  0  0  0  0  0  0  0
    8.9769  -16.8328   26.8454 N   0  0  0  0  0  0  0  0  0  0  0  0
   10.3155  -17.9165   28.5538 C   0  0  0  0  0  0  0  0  0  0  0  0
    9.4059  -18.7579   28.7657 O   0  0  0  0  0  0  0  0  0  0  0  0
   11.5498  -18.1754   29.1292 O   0  0  0  0  0  0  0  0  0  0  0  0
  2  1  1  6
  3  2  1  0
  3  4  1  0
  4  8  1  0
  5  4  2  0
  5  6  1  0
  6  7  1  0
  8  7  2  0
  9  2  1  0
  9 10  2  0
 11  9  1  0
 12 11  1  0
 12 15  1  0
 12 13  1  1
 14 13  1  0
 15 22  1  0
 16 15  2  0
 18 17  1  6
 18 19  1  0
 20 18  1  0
 21 20  1  1
 22 21  1  0
 23 25  1  0
 23 21  1  0
 24 23  2  0
M  END
$$$$
