HCL.pdb
     RDKit          3D

 25 25  0  0  1  0  0  0  0  0999 V2000
    9.3525  -18.6159   18.4231 N   0  0  0  0  0  0  0  0  0  0  0  0
   10.1191  -18.0385   19.4936 C   0  0  1  0  0  0  0  0  0  0  0  0
   11.0085  -16.9703   18.8861 C   0  0  0  0  0  0  0  0  0  0  0  0
   12.2506  -17.6229   18.4298 C   0  0  0  0  0  0  0  0  0  0  0  0
   12.8846  -18.7162   18.9673 C   0  0  0  0  0  0  0  0  0  0  0  0
   13.9985  -18.9659   18.2188 N   0  0  0  0  0  0  0  0  0  0  0  0
   14.0549  -18.0504   17.2407 C   0  0  0  0  0  0  0  0  0  0  0  0
   12.9871  -17.2373   17.3772 N   0  0  0  0  0  0  0  0  0  0  0  0
    9.2134  -17.4802   20.5247 C   0  0  0  0  0  0  0  0  0  0  0  0
    8.4889  -16.4997   20.2265 O   0  0  0  0  0  0  0  0  0  0  0  0
    9.1238  -18.0001   21.8362 N   0  0  0  0  0  0  0  0  0  0  0  0
    8.2322  -17.4165   22.7780 C   0  0  1  0  0  0  0  0  0  0  0  0
    7.4072  -18.4604   23.5263 C   0  0  0  0  0  0  0  0  0  0  0  0
    8.4284  -19.3758   24.6972 S   0  0  0  0  0  0  0  0  0  0  0  0
    8.9460  -16.5278   23.7454 C   0  0  0  0  0  0  0  0  0  0  0  0
   10.2008  -16.5196   23.8297 O   0  0  0  0  0  0  0  0  0  0  0  0
    7.4062  -11.7397   26.9983 C   0  0  0  0  0  0  0  0  0  0  0  0
    7.2350  -13.0897   26.3757 C   0  0  1  0  0  0  0  0  0  0  0  0
    5.9040  -13.0594   25.6094 C   0  0  0  0  0  0  0  0  0  0  0  0
    8.2894  -13.4056   25.3739 C   0  0  0  0  0  0  0  0  0  0  0  0
    8.9543  -14.7373   25.5263 C   0  0  2  0  0  0  0  0  0  0  0  0
    8.2462  -15.6486   24.6175 N   0  0  0  0  0  0  0  0  0  0  0  0
    8.9677  -15.2540   26.8997 C   0  0  0  0  0  0  0  0  0  0  0  0
    8.1667  -16.1250   27.3241 O   0  0  0  0  0  0  0  0  0  0  0  0
    9.9034  -14.7753   27.8035 O   0  0  0  0  0  0  0  0  0  0  0  0
  2  1  1  6
  3  2  1  0
  3  4  1  0
  4  8  1  0
  5  4  2  0
  5  6  1  0
  6  7  1  0
  8  7  2  0
  9  2  1  0
  9 10  2  0
 11  9  1  0
 12 11  1  0
 12 15  1  0
 12 13  1  1
 14 13  1  0
 15 22  1  0
 16 15  2  0
 18 17  1  6
 18 19  1  0
 20 18  1  0
 21 20  1  1
 22 21  1  0
 23 25  1  0
 23 21  1  0
 24 23  2  0
M  END
$$$$
