HCL.pdb
     RDKit          3D

 25 25  0  0  1  0  0  0  0  0999 V2000
    9.3049  -18.1125   18.4128 N   0  0  0  0  0  0  0  0  0  0  0  0
    9.5432  -18.3441   19.8116 C   0  0  1  0  0  0  0  0  0  0  0  0
   11.0312  -18.1702   20.0503 C   0  0  0  0  0  0  0  0  0  0  0  0
   11.7064  -19.4065   19.6114 C   0  0  0  0  0  0  0  0  0  0  0  0
   11.2049  -20.6847   19.5790 C   0  0  0  0  0  0  0  0  0  0  0  0
   12.1834  -21.5078   19.1012 N   0  0  0  0  0  0  0  0  0  0  0  0
   13.2658  -20.7594   18.8432 C   0  0  0  0  0  0  0  0  0  0  0  0
   12.9660  -19.4820   19.1568 N   0  0  0  0  0  0  0  0  0  0  0  0
    8.7408  -17.4031   20.6274 C   0  0  0  0  0  0  0  0  0  0  0  0
    8.8385  -16.1723   20.4022 O   0  0  0  0  0  0  0  0  0  0  0  0
    7.8647  -17.8249   21.6536 N   0  0  0  0  0  0  0  0  0  0  0  0
    7.3949  -16.8943   22.6209 C   0  0  1  0  0  0  0  0  0  0  0  0
    6.2779  -17.4676   23.4891 C   0  0  0  0  0  0  0  0  0  0  0  0
    5.7625  -19.0900   22.8942 S   0  0  0  0  0  0  0  0  0  0  0  0
    8.5034  -16.3733   23.4782 C   0  0  0  0  0  0  0  0  0  0  0  0
    9.5071  -15.8012   22.9810 O   0  0  0  0  0  0  0  0  0  0  0  0
    6.6213  -12.1146   25.8224 C   0  0  0  0  0  0  0  0  0  0  0  0
    7.7765  -13.0218   26.1083 C   0  0  1  0  0  0  0  0  0  0  0  0
    7.7625  -13.2951   27.6199 C   0  0  0  0  0  0  0  0  0  0  0  0
    7.6542  -14.3465   25.4409 C   0  0  0  0  0  0  0  0  0  0  0  0
    8.7183  -15.3442   25.7743 C   0  0  2  0  0  0  0  0  0  0  0  0
    8.4811  -16.4967   24.8951 N   0  0  0  0  0  0  0  0  0  0  0  0
    8.7518  -15.7451   27.1856 C   0  0  0  0  0  0  0  0  0  0  0  0
    9.7090  -15.4900   27.9596 O   0  0  0  0  0  0  0  0  0  0  0  0
    7.6839  -16.4449   27.7254 O   0  0  0  0  0  0  0  0  0  0  0  0
  2  1  1  6
  3  2  1  0
  3  4  1  0
  4  8  1  0
  5  4  2  0
  5  6  1  0
  6  7  1  0
  8  7  2  0
  9  2  1  0
  9 10  2  0
 11  9  1  0
 12 11  1  0
 12 15  1  0
 12 13  1  1
 14 13  1  0
 15 22  1  0
 16 15  2  0
 18 17  1  1
 18 19  1  0
 20 18  1  0
 21 20  1  1
 22 21  1  0
 23 25  1  0
 23 21  1  0
 24 23  2  0
M  END
$$$$
