HCL.pdb
     RDKit          3D

 25 25  0  0  1  0  0  0  0  0999 V2000
    9.5017  -15.8591   19.5417 N   0  0  0  0  0  0  0  0  0  0  0  0
    8.5846  -14.9813   20.2165 C   0  0  1  0  0  0  0  0  0  0  0  0
    7.3520  -14.8574   19.3409 C   0  0  0  0  0  0  0  0  0  0  0  0
    7.7793  -14.3257   18.0325 C   0  0  0  0  0  0  0  0  0  0  0  0
    8.3981  -13.1301   17.7606 C   0  0  0  0  0  0  0  0  0  0  0  0
    8.6041  -13.0608   16.4131 N   0  0  0  0  0  0  0  0  0  0  0  0
    8.1251  -14.1853   15.8616 C   0  0  0  0  0  0  0  0  0  0  0  0
    7.6251  -14.9490   16.8550 N   0  0  0  0  0  0  0  0  0  0  0  0
    8.2562  -15.5208   21.5567 C   0  0  0  0  0  0  0  0  0  0  0  0
    7.0591  -15.5164   21.9337 O   0  0  0  0  0  0  0  0  0  0  0  0
    9.2301  -16.0436   22.4379 N   0  0  0  0  0  0  0  0  0  0  0  0
    8.8549  -16.4931   23.7339 C   0  0  1  0  0  0  0  0  0  0  0  0
    9.3260  -17.9170   24.0177 C   0  0  0  0  0  0  0  0  0  0  0  0
    9.6791  -18.8003   22.4858 S   0  0  0  0  0  0  0  0  0  0  0  0
    9.3305  -15.5654   24.8055 C   0  0  0  0  0  0  0  0  0  0  0  0
   10.4650  -15.0250   24.7528 O   0  0  0  0  0  0  0  0  0  0  0  0
    5.7799  -12.3029   26.9861 C   0  0  0  0  0  0  0  0  0  0  0  0
    7.0412  -12.9087   26.4555 C   0  0  1  0  0  0  0  0  0  0  0  0
    7.9156  -11.7480   25.9575 C   0  0  0  0  0  0  0  0  0  0  0  0
    7.8327  -13.6123   27.5012 C   0  0  0  0  0  0  0  0  0  0  0  0
    9.0218  -14.3778   27.0127 C   0  0  2  0  0  0  0  0  0  0  0  0
    8.5284  -15.2468   25.9361 N   0  0  0  0  0  0  0  0  0  0  0  0
    9.7127  -15.1511   28.0511 C   0  0  0  0  0  0  0  0  0  0  0  0
    9.6559  -16.4038   28.1404 O   0  0  0  0  0  0  0  0  0  0  0  0
   10.4786  -14.4931   29.0008 O   0  0  0  0  0  0  0  0  0  0  0  0
  2  1  1  6
  3  2  1  0
  3  4  1  0
  4  8  1  0
  5  4  2  0
  5  6  1  0
  6  7  1  0
  8  7  2  0
  9  2  1  0
  9 10  2  0
 11  9  1  0
 12 11  1  0
 12 15  1  0
 12 13  1  1
 14 13  1  0
 15 22  1  0
 16 15  2  0
 18 17  1  1
 18 19  1  0
 20 18  1  0
 21 20  1  1
 22 21  1  0
 23 25  1  0
 23 21  1  0
 24 23  2  0
M  END
$$$$
