HCL.pdb
     RDKit          3D

 25 25  0  0  1  0  0  0  0  0999 V2000
    6.8287  -17.4130   19.5452 N   0  0  0  0  0  0  0  0  0  0  0  0
    7.2656  -16.3323   20.3866 C   0  0  1  0  0  0  0  0  0  0  0  0
    6.6175  -15.0639   19.8646 C   0  0  0  0  0  0  0  0  0  0  0  0
    7.4842  -14.5183   18.8024 C   0  0  0  0  0  0  0  0  0  0  0  0
    8.6603  -15.0336   18.3150 C   0  0  0  0  0  0  0  0  0  0  0  0
    9.1139  -14.1943   17.3389 N   0  0  0  0  0  0  0  0  0  0  0  0
    8.2413  -13.1828   17.2228 C   0  0  0  0  0  0  0  0  0  0  0  0
    7.2528  -13.3886   18.1175 N   0  0  0  0  0  0  0  0  0  0  0  0
    6.8936  -16.6013   21.7953 C   0  0  0  0  0  0  0  0  0  0  0  0
    5.6773  -16.6634   22.0983 O   0  0  0  0  0  0  0  0  0  0  0  0
    7.8464  -16.7929   22.8219 N   0  0  0  0  0  0  0  0  0  0  0  0
    7.4425  -16.7762   24.1853 C   0  0  1  0  0  0  0  0  0  0  0  0
    7.3394  -18.1776   24.7816 C   0  0  0  0  0  0  0  0  0  0  0  0
    8.9636  -18.8011   25.2561 S   0  0  0  0  0  0  0  0  0  0  0  0
    8.3384  -15.9205   25.0221 C   0  0  0  0  0  0  0  0  0  0  0  0
    9.5651  -15.8068   24.7690 O   0  0  0  0  0  0  0  0  0  0  0  0
    6.8120  -12.7856   25.5808 C   0  0  0  0  0  0  0  0  0  0  0  0
    7.4407  -12.3110   26.8532 C   0  0  1  0  0  0  0  0  0  0  0  0
    6.3437  -11.5850   27.6463 C   0  0  0  0  0  0  0  0  0  0  0  0
    7.9161  -13.4255   27.7175 C   0  0  0  0  0  0  0  0  0  0  0  0
    8.7571  -14.4614   27.0404 C   0  0  2  0  0  0  0  0  0  0  0  0
    7.8525  -15.1931   26.1438 N   0  0  0  0  0  0  0  0  0  0  0  0
    9.4532  -15.3709   27.9579 C   0  0  0  0  0  0  0  0  0  0  0  0
    9.1167  -16.5683   28.1402 O   0  0  0  0  0  0  0  0  0  0  0  0
   10.5463  -14.9146   28.6779 O   0  0  0  0  0  0  0  0  0  0  0  0
  2  1  1  6
  3  2  1  0
  3  4  1  0
  4  8  1  0
  5  4  2  0
  5  6  1  0
  6  7  1  0
  8  7  2  0
  9  2  1  0
  9 10  2  0
 11  9  1  0
 12 11  1  0
 12 15  1  0
 12 13  1  1
 14 13  1  0
 15 22  1  0
 16 15  2  0
 18 17  1  6
 18 19  1  0
 20 18  1  0
 21 20  1  1
 22 21  1  0
 23 25  1  0
 23 21  1  0
 24 23  2  0
M  END
$$$$
