HCL.pdb
     RDKit          3D

 25 25  0  0  1  0  0  0  0  0999 V2000
   10.9166  -16.7722   19.3408 N   0  0  0  0  0  0  0  0  0  0  0  0
   10.5919  -17.6848   20.4033 C   0  0  1  0  0  0  0  0  0  0  0  0
   11.7955  -18.5852   20.6079 C   0  0  0  0  0  0  0  0  0  0  0  0
   11.7147  -19.6784   19.6203 C   0  0  0  0  0  0  0  0  0  0  0  0
   10.6441  -20.4900   19.3347 C   0  0  0  0  0  0  0  0  0  0  0  0
   11.0256  -21.3584   18.3531 N   0  0  0  0  0  0  0  0  0  0  0  0
   12.3013  -21.0928   18.0368 C   0  0  0  0  0  0  0  0  0  0  0  0
   12.7122  -20.0689   18.8132 N   0  0  0  0  0  0  0  0  0  0  0  0
   10.2508  -16.9331   21.6336 C   0  0  0  0  0  0  0  0  0  0  0  0
   10.9793  -15.9699   21.9753 O   0  0  0  0  0  0  0  0  0  0  0  0
    9.1386  -17.2485   22.4472 N   0  0  0  0  0  0  0  0  0  0  0  0
    8.8385  -16.4544   23.5881 C   0  0  1  0  0  0  0  0  0  0  0  0
    7.3556  -16.4866   23.9488 C   0  0  0  0  0  0  0  0  0  0  0  0
    7.0491  -15.6332   25.5075 S   0  0  0  0  0  0  0  0  0  0  0  0
    9.6689  -16.8398   24.7701 C   0  0  0  0  0  0  0  0  0  0  0  0
   10.0468  -18.0257   24.9508 O   0  0  0  0  0  0  0  0  0  0  0  0
   10.3665  -14.1729   29.7524 C   0  0  0  0  0  0  0  0  0  0  0  0
   10.1221  -14.3481   28.2865 C   0  0  1  0  0  0  0  0  0  0  0  0
    9.9652  -12.9406   27.6915 C   0  0  0  0  0  0  0  0  0  0  0  0
   11.2688  -14.9784   27.5773 C   0  0  0  0  0  0  0  0  0  0  0  0
   10.9665  -16.2539   26.8558 C   0  0  2  0  0  0  0  0  0  0  0  0
   10.0732  -15.8895   25.7482 N   0  0  0  0  0  0  0  0  0  0  0  0
   10.3762  -17.3008   27.6979 C   0  0  0  0  0  0  0  0  0  0  0  0
   11.0256  -17.9573   28.5509 O   0  0  0  0  0  0  0  0  0  0  0  0
    9.0301  -17.6063   27.5698 O   0  0  0  0  0  0  0  0  0  0  0  0
  2  1  1  6
  3  2  1  0
  3  4  1  0
  4  8  1  0
  5  4  2  0
  5  6  1  0
  6  7  1  0
  8  7  2  0
  9  2  1  0
  9 10  2  0
 11  9  1  0
 12 11  1  0
 12 15  1  0
 12 13  1  1
 14 13  1  0
 15 22  1  0
 16 15  2  0
 18 17  1  1
 18 19  1  0
 20 18  1  0
 21 20  1  1
 22 21  1  0
 23 25  1  0
 23 21  1  0
 24 23  2  0
M  END
$$$$
