HCL.pdb
     RDKit          3D

 25 25  0  0  1  0  0  0  0  0999 V2000
    9.1724  -17.1369   19.5493 N   0  0  0  0  0  0  0  0  0  0  0  0
    7.9476  -16.3904   19.6473 C   0  0  1  0  0  0  0  0  0  0  0  0
    7.0048  -16.9297   18.5882 C   0  0  0  0  0  0  0  0  0  0  0  0
    7.4580  -16.4214   17.2793 C   0  0  0  0  0  0  0  0  0  0  0  0
    8.4122  -15.4680   17.0204 C   0  0  0  0  0  0  0  0  0  0  0  0
    8.4996  -15.3181   15.6665 N   0  0  0  0  0  0  0  0  0  0  0  0
    7.6216  -16.1575   15.0985 C   0  0  0  0  0  0  0  0  0  0  0  0
    6.9923  -16.8248   16.0879 N   0  0  0  0  0  0  0  0  0  0  0  0
    7.3791  -16.5215   21.0091 C   0  0  0  0  0  0  0  0  0  0  0  0
    6.2835  -15.9645   21.2633 O   0  0  0  0  0  0  0  0  0  0  0  0
    8.0129  -17.2474   22.0434 N   0  0  0  0  0  0  0  0  0  0  0  0
    7.4998  -17.2006   23.3688 C   0  0  1  0  0  0  0  0  0  0  0  0
    7.2243  -18.5899   23.9382 C   0  0  0  0  0  0  0  0  0  0  0  0
    6.8211  -18.5026   25.6936 S   0  0  0  0  0  0  0  0  0  0  0  0
    8.3947  -16.4314   24.2867 C   0  0  0  0  0  0  0  0  0  0  0  0
    9.6423  -16.5903   24.2760 O   0  0  0  0  0  0  0  0  0  0  0  0
    6.2092  -11.9223   26.4515 C   0  0  0  0  0  0  0  0  0  0  0  0
    7.1355  -12.8924   25.7880 C   0  0  1  0  0  0  0  0  0  0  0  0
    8.1398  -12.0618   24.9749 C   0  0  0  0  0  0  0  0  0  0  0  0
    7.9363  -13.6877   26.7583 C   0  0  0  0  0  0  0  0  0  0  0  0
    8.7587  -14.7921   26.1729 C   0  0  2  0  0  0  0  0  0  0  0  0
    7.8843  -15.4835   25.2164 N   0  0  0  0  0  0  0  0  0  0  0  0
    9.3134  -15.7238   27.1618 C   0  0  0  0  0  0  0  0  0  0  0  0
    8.8648  -16.8821   27.3558 O   0  0  0  0  0  0  0  0  0  0  0  0
   10.3921  -15.3351   27.9408 O   0  0  0  0  0  0  0  0  0  0  0  0
  2  1  1  1
  3  2  1  0
  3  4  1  0
  4  8  1  0
  5  4  2  0
  5  6  1  0
  6  7  1  0
  8  7  2  0
  9  2  1  0
  9 10  2  0
 11  9  1  0
 12 11  1  0
 12 15  1  0
 12 13  1  1
 14 13  1  0
 15 22  1  0
 16 15  2  0
 18 17  1  1
 18 19  1  0
 20 18  1  0
 21 20  1  1
 22 21  1  0
 23 25  1  0
 23 21  1  0
 24 23  2  0
M  END
$$$$
