HCL.pdb
     RDKit          3D

 25 25  0  0  1  0  0  0  0  0999 V2000
    7.4928  -17.1079   19.5632 N   0  0  0  0  0  0  0  0  0  0  0  0
    8.0061  -16.0485   20.3886 C   0  0  1  0  0  0  0  0  0  0  0  0
    7.2216  -14.7944   20.0525 C   0  0  0  0  0  0  0  0  0  0  0  0
    7.7696  -14.2415   18.7991 C   0  0  0  0  0  0  0  0  0  0  0  0
    8.6583  -13.2062   18.6424 C   0  0  0  0  0  0  0  0  0  0  0  0
    8.8808  -13.0422   17.3057 N   0  0  0  0  0  0  0  0  0  0  0  0
    8.1485  -13.9531   16.6484 C   0  0  0  0  0  0  0  0  0  0  0  0
    7.4756  -14.6784   17.5655 N   0  0  0  0  0  0  0  0  0  0  0  0
    7.8789  -16.4109   21.8195 C   0  0  0  0  0  0  0  0  0  0  0  0
    6.7913  -16.8850   22.2289 O   0  0  0  0  0  0  0  0  0  0  0  0
    8.9280  -16.2484   22.7529 N   0  0  0  0  0  0  0  0  0  0  0  0
    8.7608  -16.6755   24.0990 C   0  0  1  0  0  0  0  0  0  0  0  0
    9.3946  -18.0389   24.3625 C   0  0  0  0  0  0  0  0  0  0  0  0
    9.3705  -18.4358   26.1214 S   0  0  0  0  0  0  0  0  0  0  0  0
    9.2776  -15.6658   25.0730 C   0  0  0  0  0  0  0  0  0  0  0  0
   10.4360  -15.1865   24.9722 O   0  0  0  0  0  0  0  0  0  0  0  0
    5.7530  -12.1372   26.8798 C   0  0  0  0  0  0  0  0  0  0  0  0
    6.9953  -12.8230   26.4044 C   0  0  1  0  0  0  0  0  0  0  0  0
    7.8589  -11.7526   25.7202 C   0  0  0  0  0  0  0  0  0  0  0  0
    7.8152  -13.3766   27.5163 C   0  0  0  0  0  0  0  0  0  0  0  0
    8.9986  -14.1957   27.1073 C   0  0  2  0  0  0  0  0  0  0  0  0
    8.4895  -15.1962   26.1601 N   0  0  0  0  0  0  0  0  0  0  0  0
    9.7120  -14.8284   28.2228 C   0  0  0  0  0  0  0  0  0  0  0  0
    9.6127  -16.0480   28.5109 O   0  0  0  0  0  0  0  0  0  0  0  0
   10.5497  -14.0660   29.0219 O   0  0  0  0  0  0  0  0  0  0  0  0
  2  1  1  6
  3  2  1  0
  3  4  1  0
  4  8  1  0
  5  4  2  0
  5  6  1  0
  6  7  1  0
  8  7  2  0
  9  2  1  0
  9 10  2  0
 11  9  1  0
 12 11  1  0
 12 15  1  0
 12 13  1  6
 14 13  1  0
 15 22  1  0
 16 15  2  0
 18 17  1  1
 18 19  1  0
 20 18  1  0
 21 20  1  1
 22 21  1  0
 23 25  1  0
 23 21  1  0
 24 23  2  0
M  END
$$$$
