HCL.pdb
     RDKit          3D

 25 25  0  0  1  0  0  0  0  0999 V2000
    8.1023  -18.4612   19.0049 N   0  0  0  0  0  0  0  0  0  0  0  0
    8.2081  -17.1516   19.5886 C   0  0  1  0  0  0  0  0  0  0  0  0
    7.3606  -16.2141   18.7495 C   0  0  0  0  0  0  0  0  0  0  0  0
    8.0874  -15.9516   17.4926 C   0  0  0  0  0  0  0  0  0  0  0  0
    7.6480  -16.1258   16.2030 C   0  0  0  0  0  0  0  0  0  0  0  0
    8.6570  -15.7549   15.3618 N   0  0  0  0  0  0  0  0  0  0  0  0
    9.6972  -15.3601   16.1102 C   0  0  0  0  0  0  0  0  0  0  0  0
    9.3412  -15.4833   17.4057 N   0  0  0  0  0  0  0  0  0  0  0  0
    7.7590  -17.1854   21.0000 C   0  0  0  0  0  0  0  0  0  0  0  0
    6.7405  -17.8570   21.2947 O   0  0  0  0  0  0  0  0  0  0  0  0
    8.4247  -16.4947   22.0384 N   0  0  0  0  0  0  0  0  0  0  0  0
    8.0014  -16.6497   23.3871 C   0  0  1  0  0  0  0  0  0  0  0  0
    8.1521  -18.0846   23.8857 C   0  0  0  0  0  0  0  0  0  0  0  0
    9.8736  -18.6172   23.8171 S   0  0  0  0  0  0  0  0  0  0  0  0
    8.7070  -15.7042   24.3055 C   0  0  0  0  0  0  0  0  0  0  0  0
    9.9058  -15.3739   24.1164 O   0  0  0  0  0  0  0  0  0  0  0  0
    5.6581  -12.0406   26.6544 C   0  0  0  0  0  0  0  0  0  0  0  0
    6.7369  -12.8393   25.9927 C   0  0  1  0  0  0  0  0  0  0  0  0
    7.4651  -11.8894   25.0299 C   0  0  0  0  0  0  0  0  0  0  0  0
    7.7631  -13.3352   26.9498 C   0  0  0  0  0  0  0  0  0  0  0  0
    8.7842  -14.2704   26.3829 C   0  0  2  0  0  0  0  0  0  0  0  0
    8.0623  -15.1311   25.4365 N   0  0  0  0  0  0  0  0  0  0  0  0
    9.5031  -15.0632   27.3870 C   0  0  0  0  0  0  0  0  0  0  0  0
   10.2682  -14.5646   28.2509 O   0  0  0  0  0  0  0  0  0  0  0  0
    9.3509  -16.4408   27.4107 O   0  0  0  0  0  0  0  0  0  0  0  0
  2  1  1  6
  3  2  1  0
  3  4  1  0
  4  8  1  0
  5  4  2  0
  5  6  1  0
  6  7  1  0
  8  7  2  0
  9  2  1  0
  9 10  2  0
 11  9  1  0
 12 11  1  0
 12 15  1  0
 12 13  1  1
 14 13  1  0
 15 22  1  0
 16 15  2  0
 18 17  1  1
 18 19  1  0
 20 18  1  0
 21 20  1  1
 22 21  1  0
 23 25  1  0
 23 21  1  0
 24 23  2  0
M  END
$$$$
