HCL.pdb
     RDKit          3D

 25 25  0  0  1  0  0  0  0  0999 V2000
    9.3768  -17.5731   19.1202 N   0  0  0  0  0  0  0  0  0  0  0  0
    9.2085  -16.4216   19.9644 C   0  0  1  0  0  0  0  0  0  0  0  0
    8.1377  -15.5521   19.3331 C   0  0  0  0  0  0  0  0  0  0  0  0
    8.7495  -14.2507   19.0032 C   0  0  0  0  0  0  0  0  0  0  0  0
   10.0478  -13.8468   19.1974 C   0  0  0  0  0  0  0  0  0  0  0  0
   10.1614  -12.5650   18.7420 N   0  0  0  0  0  0  0  0  0  0  0  0
    8.9636  -12.1823   18.2764 C   0  0  0  0  0  0  0  0  0  0  0  0
    8.1106  -13.2147   18.4396 N   0  0  0  0  0  0  0  0  0  0  0  0
    8.8371  -16.8450   21.3348 C   0  0  0  0  0  0  0  0  0  0  0  0
    8.0296  -17.7954   21.4762 O   0  0  0  0  0  0  0  0  0  0  0  0
    9.3501  -16.2282   22.4987 N   0  0  0  0  0  0  0  0  0  0  0  0
    8.9697  -16.6995   23.7854 C   0  0  1  0  0  0  0  0  0  0  0  0
    9.4274  -18.1330   24.0416 C   0  0  0  0  0  0  0  0  0  0  0  0
   11.2110  -18.2917   23.8284 S   0  0  0  0  0  0  0  0  0  0  0  0
    9.4529  -15.7974   24.8753 C   0  0  0  0  0  0  0  0  0  0  0  0
   10.6139  -15.3138   24.8635 O   0  0  0  0  0  0  0  0  0  0  0  0
    5.7725  -12.6313   26.6900 C   0  0  0  0  0  0  0  0  0  0  0  0
    7.0467  -13.2782   26.2459 C   0  0  1  0  0  0  0  0  0  0  0  0
    7.8204  -12.2257   25.4375 C   0  0  0  0  0  0  0  0  0  0  0  0
    7.9275  -13.6668   27.3809 C   0  0  0  0  0  0  0  0  0  0  0  0
    9.0985  -14.5298   27.0305 C   0  0  2  0  0  0  0  0  0  0  0  0
    8.6286  -15.4404   25.9781 N   0  0  0  0  0  0  0  0  0  0  0  0
    9.6669  -15.2688   28.1638 C   0  0  0  0  0  0  0  0  0  0  0  0
   10.1934  -14.7156   29.1624 O   0  0  0  0  0  0  0  0  0  0  0  0
    9.6370  -16.6547   28.1633 O   0  0  0  0  0  0  0  0  0  0  0  0
  2  1  1  6
  3  2  1  0
  3  4  1  0
  4  8  1  0
  5  4  2  0
  5  6  1  0
  6  7  1  0
  8  7  2  0
  9  2  1  0
  9 10  2  0
 11  9  1  0
 12 11  1  0
 12 15  1  0
 12 13  1  1
 14 13  1  0
 15 22  1  0
 16 15  2  0
 18 17  1  1
 18 19  1  0
 20 18  1  0
 21 20  1  1
 22 21  1  0
 23 25  1  0
 23 21  1  0
 24 23  2  0
M  END
$$$$
