HCL.pdb
     RDKit          3D

 25 25  0  0  1  0  0  0  0  0999 V2000
    9.5489  -17.4970   20.2289 N   0  0  0  0  0  0  0  0  0  0  0  0
   10.3552  -17.9176   21.3424 C   0  0  1  0  0  0  0  0  0  0  0  0
   11.7283  -17.2977   21.1645 C   0  0  0  0  0  0  0  0  0  0  0  0
   12.4965  -18.1585   20.2448 C   0  0  0  0  0  0  0  0  0  0  0  0
   12.2374  -19.4564   19.8777 C   0  0  0  0  0  0  0  0  0  0  0  0
   13.2134  -19.8497   19.0083 N   0  0  0  0  0  0  0  0  0  0  0  0
   14.0577  -18.8218   18.8395 C   0  0  0  0  0  0  0  0  0  0  0  0
   13.6133  -17.7970   19.5960 N   0  0  0  0  0  0  0  0  0  0  0  0
    9.7229  -17.4996   22.6154 C   0  0  0  0  0  0  0  0  0  0  0  0
    9.3409  -16.3104   22.7391 O   0  0  0  0  0  0  0  0  0  0  0  0
    9.5269  -18.3788   23.7049 N   0  0  0  0  0  0  0  0  0  0  0  0
    8.9212  -17.9098   24.9030 C   0  0  1  0  0  0  0  0  0  0  0  0
    7.8385  -18.8540   25.4189 C   0  0  0  0  0  0  0  0  0  0  0  0
    8.5649  -20.3085   26.1991 S   0  0  0  0  0  0  0  0  0  0  0  0
    9.9319  -17.6450   25.9724 C   0  0  0  0  0  0  0  0  0  0  0  0
   11.0728  -18.1735   25.9457 O   0  0  0  0  0  0  0  0  0  0  0  0
    9.3604  -13.0066   28.6217 C   0  0  0  0  0  0  0  0  0  0  0  0
    9.8547  -14.2232   27.9041 C   0  0  1  0  0  0  0  0  0  0  0  0
   11.1207  -13.8047   27.1413 C   0  0  0  0  0  0  0  0  0  0  0  0
   10.2629  -15.3168   28.8274 C   0  0  0  0  0  0  0  0  0  0  0  0
   10.6072  -16.6210   28.1799 C   0  0  2  0  0  0  0  0  0  0  0  0
    9.6572  -16.7850   27.0717 N   0  0  0  0  0  0  0  0  0  0  0  0
   10.5764  -17.7743   29.0869 C   0  0  0  0  0  0  0  0  0  0  0  0
   11.4655  -18.0105   29.9436 O   0  0  0  0  0  0  0  0  0  0  0  0
    9.5216  -18.6712   29.0204 O   0  0  0  0  0  0  0  0  0  0  0  0
  2  1  1  6
  3  2  1  0
  3  4  1  0
  4  8  1  0
  5  4  2  0
  5  6  1  0
  6  7  1  0
  8  7  2  0
  9  2  1  0
  9 10  2  0
 11  9  1  0
 12 11  1  0
 12 15  1  0
 12 13  1  1
 14 13  1  0
 15 22  1  0
 16 15  2  0
 18 17  1  1
 18 19  1  0
 20 18  1  0
 21 20  1  1
 22 21  1  0
 23 25  1  0
 23 21  1  0
 24 23  2  0
M  END
$$$$
