HCL.pdb
     RDKit          3D

 25 25  0  0  1  0  0  0  0  0999 V2000
    9.3395  -15.6829   19.4915 N   0  0  0  0  0  0  0  0  0  0  0  0
    8.2369  -14.8879   19.9595 C   0  0  1  0  0  0  0  0  0  0  0  0
    7.1069  -15.0517   18.9608 C   0  0  0  0  0  0  0  0  0  0  0  0
    7.5937  -14.5865   17.6479 C   0  0  0  0  0  0  0  0  0  0  0  0
    8.0722  -13.3446   17.3089 C   0  0  0  0  0  0  0  0  0  0  0  0
    8.4069  -13.3703   15.9858 N   0  0  0  0  0  0  0  0  0  0  0  0
    8.1428  -14.5977   15.5147 C   0  0  0  0  0  0  0  0  0  0  0  0
    7.6482  -15.3309   16.5335 N   0  0  0  0  0  0  0  0  0  0  0  0
    7.8376  -15.3211   21.3189 C   0  0  0  0  0  0  0  0  0  0  0  0
    6.7550  -14.9002   21.7942 O   0  0  0  0  0  0  0  0  0  0  0  0
    8.6202  -16.1906   22.1126 N   0  0  0  0  0  0  0  0  0  0  0  0
    8.2230  -16.4968   23.4433 C   0  0  1  0  0  0  0  0  0  0  0  0
    8.3685  -17.9808   23.7698 C   0  0  0  0  0  0  0  0  0  0  0  0
   10.0649  -18.5371   23.5155 S   0  0  0  0  0  0  0  0  0  0  0  0
    8.9572  -15.6694   24.4491 C   0  0  0  0  0  0  0  0  0  0  0  0
   10.1623  -15.3491   24.2846 O   0  0  0  0  0  0  0  0  0  0  0  0
    6.0787  -12.1501   26.7243 C   0  0  0  0  0  0  0  0  0  0  0  0
    7.1831  -12.9386   26.0934 C   0  0  1  0  0  0  0  0  0  0  0  0
    7.8360  -12.0264   25.0439 C   0  0  0  0  0  0  0  0  0  0  0  0
    8.2569  -13.3074   27.0557 C   0  0  0  0  0  0  0  0  0  0  0  0
    9.0899  -14.4919   26.6792 C   0  0  2  0  0  0  0  0  0  0  0  0
    8.3341  -15.2032   25.6397 N   0  0  0  0  0  0  0  0  0  0  0  0
    9.4238  -15.3785   27.8000 C   0  0  0  0  0  0  0  0  0  0  0  0
    8.9838  -16.5503   27.9161 O   0  0  0  0  0  0  0  0  0  0  0  0
   10.2690  -14.9284   28.8023 O   0  0  0  0  0  0  0  0  0  0  0  0
  2  1  1  6
  3  2  1  0
  3  4  1  0
  4  8  1  0
  5  4  2  0
  5  6  1  0
  6  7  1  0
  8  7  2  0
  9  2  1  0
  9 10  2  0
 11  9  1  0
 12 11  1  0
 12 15  1  0
 12 13  1  1
 14 13  1  0
 15 22  1  0
 16 15  2  0
 18 17  1  1
 18 19  1  0
 20 18  1  0
 21 20  1  1
 22 21  1  0
 23 25  1  0
 23 21  1  0
 24 23  2  0
M  END
$$$$
