NRL.pdb
     RDKit          3D

 28 27  0  0  1  0  0  0  0  0999 V2000
    9.6465  -20.9096   20.4518 N   0  0  0  0  0  0  0  0  0  0  0  0
    9.0481  -20.0891   19.4626 C   0  0  0  0  0  0  0  0  0  0  0  0
    9.0855  -20.4485   18.2617 O   0  0  0  0  0  0  0  0  0  0  0  0
    8.3852  -18.8188   19.8480 C   0  0  0  0  0  0  0  0  0  0  0  0
    8.5275  -18.6083   21.3475 C   0  0  2  0  0  0  0  0  0  0  0  0
    7.2802  -18.7721   22.0325 N   0  0  0  0  0  0  0  0  0  0  0  0
    9.1552  -17.2872   21.6013 C   0  0  0  0  0  0  0  0  0  0  0  0
   10.3729  -17.3061   21.9518 O   0  0  0  0  0  0  0  0  0  0  0  0
    9.0147  -15.2445   17.2312 N   0  0  0  0  0  0  0  0  0  0  0  0
    8.4318  -14.0989   16.5781 C   0  0  0  0  0  0  0  0  0  0  0  0
    8.5498  -14.0020   15.3088 N   0  0  0  0  0  0  0  0  0  0  0  0
    7.7536  -13.1246   17.3490 N   0  0  0  0  0  0  0  0  0  0  0  0
    8.2390  -12.8429   18.6735 C   0  0  0  0  0  0  0  0  0  0  0  0
    8.1472  -14.0678   19.5746 C   0  0  0  0  0  0  0  0  0  0  0  0
    8.5120  -13.6531   20.9832 C   0  0  0  0  0  0  0  0  0  0  0  0
    9.1707  -14.8131   21.7357 C   0  0  2  0  0  0  0  0  0  0  0  0
    8.4787  -16.0536   21.4739 N   0  0  0  0  0  0  0  0  0  0  0  0
    9.1933  -14.4781   23.1758 C   0  0  0  0  0  0  0  0  0  0  0  0
    9.9316  -13.5528   23.5949 O   0  0  0  0  0  0  0  0  0  0  0  0
    8.1798  -13.1970   14.7798 C   0  0  0  0  0  0  0  0  0  0  0  0
    8.3597  -12.0924   25.9867 C   0  0  2  0  0  0  0  0  0  0  0  0
    7.2820  -12.9065   26.7140 C   0  0  0  0  0  0  0  0  0  0  0  0
    5.9515  -12.2371   26.4267 C   0  0  0  0  0  0  0  0  0  0  0  0
    7.2538  -14.3113   26.2090 C   0  0  2  0  0  0  0  0  0  0  0  0
    8.4743  -14.8340   25.5569 N   0  0  0  0  0  0  0  0  0  0  0  0
    8.4028  -15.1607   24.1625 C   0  0  0  0  0  0  0  0  0  0  0  0
    9.0023  -16.0214   26.2869 O   0  0  0  0  0  0  0  0  0  0  0  0
    9.1599  -15.9424   27.5292 O   0  0  0  0  0  0  0  0  0  0  0  0
  1  2  1  0
  2  3  2  0
  4  2  1  0
  4  5  1  0
  5  6  1  1
  7  8  2  0
  7  5  1  0
 10  9  1  0
 10 12  1  0
 11 10  2  0
 13 12  1  0
 13 14  1  0
 14 15  1  0
 16 15  1  6
 16 17  1  0
 17  7  1  0
 18 16  1  0
 19 18  2  0
 21 20  1  1
 21 23  1  0
 22 21  1  0
 24 23  1  6
 24 26  1  0
 24 25  1  0
 25 18  1  0
 26 28  1  0
 27 26  2  0
M  END
$$$$
