NRL.pdb
     RDKit          3D

 28 27  0  0  1  0  0  0  0  0999 V2000
    9.3119  -14.2192   16.2587 N   0  0  0  0  0  0  0  0  0  0  0  0
    8.1057  -13.5770   16.6364 C   0  0  0  0  0  0  0  0  0  0  0  0
    7.4115  -13.0095   15.7596 O   0  0  0  0  0  0  0  0  0  0  0  0
    7.6725  -13.5784   18.0555 C   0  0  0  0  0  0  0  0  0  0  0  0
    8.6895  -14.3366   18.8945 C   0  0  2  0  0  0  0  0  0  0  0  0
    9.2821  -15.4200   18.1687 N   0  0  0  0  0  0  0  0  0  0  0  0
    8.0535  -14.7724   20.1631 C   0  0  0  0  0  0  0  0  0  0  0  0
    7.4555  -13.8726   20.8254 O   0  0  0  0  0  0  0  0  0  0  0  0
   10.2258  -19.4960   24.3988 N   0  0  0  0  0  0  0  0  0  0  0  0
   10.7679  -20.3108   23.3401 C   0  0  0  0  0  0  0  0  0  0  0  0
   11.9822  -20.6984   23.4375 N   0  0  0  0  0  0  0  0  0  0  0  0
    9.9525  -20.6555   22.2357 N   0  0  0  0  0  0  0  0  0  0  0  0
    8.6508  -20.0518   22.1334 C   0  0  0  0  0  0  0  0  0  0  0  0
    8.7393  -18.5310   22.1257 C   0  0  0  0  0  0  0  0  0  0  0  0
    7.3362  -17.9713   22.0399 C   0  0  0  0  0  0  0  0  0  0  0  0
    7.3700  -16.4516   21.8520 C   0  0  2  0  0  0  0  0  0  0  0  0
    8.0846  -16.0992   20.6473 N   0  0  0  0  0  0  0  0  0  0  0  0
    7.9760  -15.8488   23.0587 C   0  0  0  0  0  0  0  0  0  0  0  0
    9.2073  -15.6047   23.0893 O   0  0  0  0  0  0  0  0  0  0  0  0
   12.4332  -21.2868   22.7196 C   0  0  0  0  0  0  0  0  0  0  0  0
    7.9712  -11.4850   26.0830 C   0  0  2  0  0  0  0  0  0  0  0  0
    7.2164  -12.6239   26.7805 C   0  0  0  0  0  0  0  0  0  0  0  0
    6.0380  -11.9980   27.5021 C   0  0  0  0  0  0  0  0  0  0  0  0
    6.7205  -13.6159   25.7808 C   0  0  1  0  0  0  0  0  0  0  0  0
    7.7029  -14.5533   25.1942 N   0  0  0  0  0  0  0  0  0  0  0  0
    7.2287  -15.5115   24.2386 C   0  0  0  0  0  0  0  0  0  0  0  0
    8.4435  -15.2860   26.2602 O   0  0  0  0  0  0  0  0  0  0  0  0
    7.9912  -16.3864   26.6588 O   0  0  0  0  0  0  0  0  0  0  0  0
  1  2  1  0
  2  3  2  0
  4  2  1  0
  4  5  1  0
  5  6  1  6
  7  8  2  0
  7  5  1  0
 10  9  1  0
 10 12  1  0
 11 10  2  0
 13 12  1  0
 13 14  1  0
 14 15  1  0
 16 15  1  1
 16 17  1  0
 17  7  1  0
 18 16  1  0
 19 18  2  0
 21 20  1  1
 21 23  1  0
 22 21  1  0
 24 23  1  6
 24 26  1  0
 24 25  1  0
 25 18  1  0
 26 28  1  0
 27 26  2  0
M  END
$$$$
