NRL.pdb
     RDKit          3D

 28 27  0  0  1  0  0  0  0  0999 V2000
   14.9948  -14.3763   17.5740 N   0  0  0  0  0  0  0  0  0  0  0  0
   14.8585  -14.6722   18.9538 C   0  0  0  0  0  0  0  0  0  0  0  0
   15.8536  -15.0878   19.5941 O   0  0  0  0  0  0  0  0  0  0  0  0
   13.5502  -14.4906   19.6300 C   0  0  0  0  0  0  0  0  0  0  0  0
   13.2865  -15.6739   20.5483 C   0  0  2  0  0  0  0  0  0  0  0  0
   13.0636  -16.8832   19.8138 N   0  0  0  0  0  0  0  0  0  0  0  0
   12.1687  -15.3435   21.4675 C   0  0  0  0  0  0  0  0  0  0  0  0
   12.3893  -14.4175   22.3041 O   0  0  0  0  0  0  0  0  0  0  0  0
    8.5337  -14.5371   18.0476 N   0  0  0  0  0  0  0  0  0  0  0  0
    8.3268  -13.3883   18.8939 C   0  0  0  0  0  0  0  0  0  0  0  0
    8.9361  -12.3036   18.5996 N   0  0  0  0  0  0  0  0  0  0  0  0
    7.4663  -13.4901   20.0130 N   0  0  0  0  0  0  0  0  0  0  0  0
    7.0706  -14.8013   20.4528 C   0  0  0  0  0  0  0  0  0  0  0  0
    7.4717  -15.0495   21.9014 C   0  0  0  0  0  0  0  0  0  0  0  0
    8.5153  -16.1448   21.9271 C   0  0  0  0  0  0  0  0  0  0  0  0
    9.8730  -15.5887   22.3669 C   0  0  2  0  0  0  0  0  0  0  0  0
   10.9143  -15.9930   21.4512 N   0  0  0  0  0  0  0  0  0  0  0  0
   10.1350  -16.0448   23.7489 C   0  0  0  0  0  0  0  0  0  0  0  0
   10.7891  -17.0976   23.9505 O   0  0  0  0  0  0  0  0  0  0  0  0
    8.8048  -11.4331   19.1380 C   0  0  0  0  0  0  0  0  0  0  0  0
   11.3537  -13.8274   27.9130 C   0  0  2  0  0  0  0  0  0  0  0  0
   10.1896  -14.6551   28.4724 C   0  0  0  0  0  0  0  0  0  0  0  0
    9.4204  -13.7544   29.4200 C   0  0  0  0  0  0  0  0  0  0  0  0
    9.2887  -15.1072   27.3708 C   0  0  2  0  0  0  0  0  0  0  0  0
    9.8965  -15.8452   26.2422 N   0  0  0  0  0  0  0  0  0  0  0  0
    9.6778  -15.3437   24.9167 C   0  0  0  0  0  0  0  0  0  0  0  0
    9.4989  -17.2815   26.2682 O   0  0  0  0  0  0  0  0  0  0  0  0
    8.3980  -17.6098   25.7636 O   0  0  0  0  0  0  0  0  0  0  0  0
  1  2  1  0
  2  3  2  0
  4  2  1  0
  4  5  1  0
  5  6  1  6
  7  8  2  0
  7  5  1  0
 10  9  1  0
 10 12  1  0
 11 10  2  0
 13 12  1  0
 13 14  1  0
 14 15  1  0
 16 15  1  6
 16 17  1  0
 17  7  1  0
 18 16  1  0
 19 18  2  0
 21 20  1  1
 21 23  1  0
 22 21  1  0
 24 23  1  1
 24 26  1  0
 24 25  1  0
 25 18  1  0
 26 28  1  0
 27 26  2  0
M  END
$$$$
