NRL.pdb
     RDKit          3D

 28 27  0  0  1  0  0  0  0  0999 V2000
   15.7616  -14.2542   19.4261 N   0  0  0  0  0  0  0  0  0  0  0  0
   14.4661  -14.8301   19.4399 C   0  0  0  0  0  0  0  0  0  0  0  0
   14.1991  -15.7606   18.6426 O   0  0  0  0  0  0  0  0  0  0  0  0
   13.4394  -14.3343   20.3894 C   0  0  0  0  0  0  0  0  0  0  0  0
   12.6972  -15.5156   20.9948 C   0  0  2  0  0  0  0  0  0  0  0  0
   12.2897  -16.4604   19.9982 N   0  0  0  0  0  0  0  0  0  0  0  0
   11.5639  -15.0171   21.8139 C   0  0  0  0  0  0  0  0  0  0  0  0
   11.8610  -14.2109   22.7455 O   0  0  0  0  0  0  0  0  0  0  0  0
    8.3030  -15.5151   17.1484 N   0  0  0  0  0  0  0  0  0  0  0  0
    7.7922  -14.1679   17.0957 C   0  0  0  0  0  0  0  0  0  0  0  0
    8.2089  -13.3999   16.1624 N   0  0  0  0  0  0  0  0  0  0  0  0
    6.8556  -13.7368   18.0654 N   0  0  0  0  0  0  0  0  0  0  0  0
    6.8015  -14.4369   19.3208 C   0  0  0  0  0  0  0  0  0  0  0  0
    8.0974  -14.2776   20.1057 C   0  0  0  0  0  0  0  0  0  0  0  0
    7.8554  -14.7391   21.5262 C   0  0  0  0  0  0  0  0  0  0  0  0
    9.1587  -14.7219   22.3305 C   0  0  2  0  0  0  0  0  0  0  0  0
   10.2167  -15.3887   21.6078 N   0  0  0  0  0  0  0  0  0  0  0  0
    8.8999  -15.3461   23.6459 C   0  0  0  0  0  0  0  0  0  0  0  0
    9.3039  -16.5118   23.8794 O   0  0  0  0  0  0  0  0  0  0  0  0
    7.8839  -12.4255   16.0629 C   0  0  0  0  0  0  0  0  0  0  0  0
    6.7711  -12.2818   27.8711 C   0  0  1  0  0  0  0  0  0  0  0  0
    7.8264  -13.2131   27.2612 C   0  0  0  0  0  0  0  0  0  0  0  0
    8.9622  -13.3115   28.2618 C   0  0  0  0  0  0  0  0  0  0  0  0
    7.2536  -14.5707   27.0203 C   0  0  2  0  0  0  0  0  0  0  0  0
    7.8232  -15.3732   25.9160 N   0  0  0  0  0  0  0  0  0  0  0  0
    8.1944  -14.6893   24.7114 C   0  0  0  0  0  0  0  0  0  0  0  0
    6.9166  -16.4989   25.5519 O   0  0  0  0  0  0  0  0  0  0  0  0
    6.6507  -17.3625   26.4224 O   0  0  0  0  0  0  0  0  0  0  0  0
  1  2  1  0
  2  3  2  0
  4  2  1  0
  4  5  1  0
  5  6  1  6
  7  8  2  0
  7  5  1  0
 10  9  1  0
 10 12  1  0
 11 10  2  0
 13 12  1  0
 13 14  1  0
 14 15  1  0
 16 15  1  6
 16 17  1  0
 17  7  1  0
 18 16  1  0
 19 18  2  0
 21 20  1  6
 21 23  1  0
 22 21  1  0
 24 23  1  1
 24 26  1  0
 24 25  1  0
 25 18  1  0
 26 28  1  0
 27 26  2  0
M  END
$$$$
