NRL.pdb
     RDKit          3D

 28 27  0  0  1  0  0  0  0  0999 V2000
    9.0075  -13.3056   16.4158 N   0  0  0  0  0  0  0  0  0  0  0  0
    7.7353  -13.8660   16.6942 C   0  0  0  0  0  0  0  0  0  0  0  0
    6.8608  -13.8812   15.7954 O   0  0  0  0  0  0  0  0  0  0  0  0
    7.4453  -14.4279   18.0366 C   0  0  0  0  0  0  0  0  0  0  0  0
    8.6726  -14.2812   18.9226 C   0  0  2  0  0  0  0  0  0  0  0  0
    9.8664  -14.7159   18.2611 N   0  0  0  0  0  0  0  0  0  0  0  0
    8.4377  -14.9845   20.2087 C   0  0  0  0  0  0  0  0  0  0  0  0
    7.3871  -14.6596   20.8385 O   0  0  0  0  0  0  0  0  0  0  0  0
   11.5945  -22.0104   23.0605 N   0  0  0  0  0  0  0  0  0  0  0  0
   10.3808  -21.9002   23.8308 C   0  0  0  0  0  0  0  0  0  0  0  0
    9.6812  -22.9551   24.0102 N   0  0  0  0  0  0  0  0  0  0  0  0
   10.0007  -20.6441   24.3610 N   0  0  0  0  0  0  0  0  0  0  0  0
   10.6886  -19.4699   23.8947 C   0  0  0  0  0  0  0  0  0  0  0  0
    9.7277  -18.3073   23.6808 C   0  0  0  0  0  0  0  0  0  0  0  0
    9.9946  -17.7119   22.3156 C   0  0  0  0  0  0  0  0  0  0  0  0
    9.0176  -16.5693   22.0229 C   0  0  2  0  0  0  0  0  0  0  0  0
    9.3031  -15.9652   20.7423 N   0  0  0  0  0  0  0  0  0  0  0  0
    9.0987  -15.5946   23.1319 C   0  0  0  0  0  0  0  0  0  0  0  0
   10.1742  -14.9874   23.3584 O   0  0  0  0  0  0  0  0  0  0  0  0
    8.7763  -22.9398   24.5061 C   0  0  0  0  0  0  0  0  0  0  0  0
    7.9597  -11.4621   26.3821 C   0  0  2  0  0  0  0  0  0  0  0  0
    7.0317  -12.6569   26.6355 C   0  0  0  0  0  0  0  0  0  0  0  0
    5.6602  -12.0930   26.9551 C   0  0  0  0  0  0  0  0  0  0  0  0
    6.9456  -13.5227   25.4221 C   0  0  1  0  0  0  0  0  0  0  0  0
    8.1180  -14.3607   25.0887 N   0  0  0  0  0  0  0  0  0  0  0  0
    7.9952  -15.2833   23.9978 C   0  0  0  0  0  0  0  0  0  0  0  0
    8.5926  -15.1137   26.2843 O   0  0  0  0  0  0  0  0  0  0  0  0
    8.0048  -16.1771   26.5976 O   0  0  0  0  0  0  0  0  0  0  0  0
  1  2  1  0
  2  3  2  0
  4  2  1  0
  4  5  1  0
  5  6  1  6
  7  8  2  0
  7  5  1  0
 10  9  1  0
 10 12  1  0
 11 10  2  0
 13 12  1  0
 13 14  1  0
 14 15  1  0
 16 15  1  1
 16 17  1  0
 17  7  1  0
 18 16  1  0
 19 18  2  0
 21 20  1  1
 21 23  1  0
 22 21  1  0
 24 23  1  6
 24 26  1  0
 24 25  1  0
 25 18  1  0
 26 28  1  0
 27 26  2  0
M  END
$$$$
