NRL.pdb
     RDKit          3D

 28 27  0  0  1  0  0  0  0  0999 V2000
   13.3611  -18.5747   17.5928 N   0  0  0  0  0  0  0  0  0  0  0  0
   13.5839  -17.9237   18.8324 C   0  0  0  0  0  0  0  0  0  0  0  0
   14.6229  -18.1839   19.4847 O   0  0  0  0  0  0  0  0  0  0  0  0
   12.5955  -16.9452   19.3494 C   0  0  0  0  0  0  0  0  0  0  0  0
   12.0281  -17.4473   20.6680 C   0  0  2  0  0  0  0  0  0  0  0  0
   11.1961  -18.5996   20.4894 N   0  0  0  0  0  0  0  0  0  0  0  0
   11.3302  -16.3340   21.3589 C   0  0  0  0  0  0  0  0  0  0  0  0
   12.0026  -15.7119   22.2346 O   0  0  0  0  0  0  0  0  0  0  0  0
    8.4133  -15.5378   16.9139 N   0  0  0  0  0  0  0  0  0  0  0  0
    7.9716  -14.1927   16.6412 C   0  0  0  0  0  0  0  0  0  0  0  0
    8.1620  -13.7204   15.4686 N   0  0  0  0  0  0  0  0  0  0  0  0
    7.3474  -13.4408   17.6650 N   0  0  0  0  0  0  0  0  0  0  0  0
    7.0376  -14.1010   18.9049 C   0  0  0  0  0  0  0  0  0  0  0  0
    8.2958  -14.6107   19.5961 C   0  0  0  0  0  0  0  0  0  0  0  0
    8.1915  -14.2945   21.0721 C   0  0  0  0  0  0  0  0  0  0  0  0
    9.3862  -14.8738   21.8357 C   0  0  2  0  0  0  0  0  0  0  0  0
    9.9967  -15.9512   21.0925 N   0  0  0  0  0  0  0  0  0  0  0  0
    8.9172  -15.3089   23.1689 C   0  0  0  0  0  0  0  0  0  0  0  0
    9.5512  -16.1883   23.8025 O   0  0  0  0  0  0  0  0  0  0  0  0
    7.9795  -12.7318   15.2353 C   0  0  0  0  0  0  0  0  0  0  0  0
    7.7144  -11.2447   27.2135 C   0  0  2  0  0  0  0  0  0  0  0  0
    7.2683  -12.6986   27.0127 C   0  0  0  0  0  0  0  0  0  0  0  0
    5.8500  -12.8040   27.5403 C   0  0  0  0  0  0  0  0  0  0  0  0
    7.2906  -13.0603   25.5642 C   0  0  1  0  0  0  0  0  0  0  0  0
    7.7339  -14.4239   25.2011 N   0  0  0  0  0  0  0  0  0  0  0  0
    7.7471  -14.7777   23.8115 C   0  0  0  0  0  0  0  0  0  0  0  0
    6.9469  -15.4542   25.9365 O   0  0  0  0  0  0  0  0  0  0  0  0
    5.9036  -15.9060   25.4057 O   0  0  0  0  0  0  0  0  0  0  0  0
  1  2  1  0
  2  3  2  0
  4  2  1  0
  4  5  1  0
  5  6  1  6
  7  8  2  0
  7  5  1  0
 10  9  1  0
 10 12  1  0
 11 10  2  0
 13 12  1  0
 13 14  1  0
 14 15  1  0
 16 15  1  6
 16 17  1  0
 17  7  1  0
 18 16  1  0
 19 18  2  0
 21 20  1  1
 21 23  1  0
 22 21  1  0
 24 23  1  6
 24 26  1  0
 24 25  1  0
 25 18  1  0
 26 28  1  0
 27 26  2  0
M  END
$$$$
