NRL.pdb
     RDKit          3D

 28 27  0  0  1  0  0  0  0  0999 V2000
    8.3615  -12.0596   16.5897 N   0  0  0  0  0  0  0  0  0  0  0  0
    8.2395  -13.4721   16.5934 C   0  0  0  0  0  0  0  0  0  0  0  0
    8.5665  -14.1194   15.5702 O   0  0  0  0  0  0  0  0  0  0  0  0
    7.7297  -14.1737   17.7974 C   0  0  0  0  0  0  0  0  0  0  0  0
    8.8351  -14.2614   18.8381 C   0  0  2  0  0  0  0  0  0  0  0  0
   10.0147  -14.8842   18.3161 N   0  0  0  0  0  0  0  0  0  0  0  0
    8.3149  -14.9389   20.0523 C   0  0  0  0  0  0  0  0  0  0  0  0
    7.2795  -14.4289   20.5754 O   0  0  0  0  0  0  0  0  0  0  0  0
    6.6532  -21.5255   22.0611 N   0  0  0  0  0  0  0  0  0  0  0  0
    7.4213  -21.9116   20.9037 C   0  0  0  0  0  0  0  0  0  0  0  0
    6.8736  -22.6850   20.0456 N   0  0  0  0  0  0  0  0  0  0  0  0
    8.7437  -21.4309   20.7500 N   0  0  0  0  0  0  0  0  0  0  0  0
    9.1864  -20.3645   21.6079 C   0  0  0  0  0  0  0  0  0  0  0  0
    8.4804  -19.0547   21.2810 C   0  0  0  0  0  0  0  0  0  0  0  0
    9.0338  -17.9751   22.1853 C   0  0  0  0  0  0  0  0  0  0  0  0
    8.3901  -16.6217   21.8693 C   0  0  2  0  0  0  0  0  0  0  0  0
    8.9027  -16.0865   20.6296 N   0  0  0  0  0  0  0  0  0  0  0  0
    8.6316  -15.7154   23.0125 C   0  0  0  0  0  0  0  0  0  0  0  0
    9.6992  -15.0578   23.0793 O   0  0  0  0  0  0  0  0  0  0  0  0
    7.3473  -22.9641   19.1724 C   0  0  0  0  0  0  0  0  0  0  0  0
    7.8567  -11.4976   26.1555 C   0  0  2  0  0  0  0  0  0  0  0  0
    7.0088  -12.6967   26.5986 C   0  0  0  0  0  0  0  0  0  0  0  0
    5.6672  -12.1492   27.0475 C   0  0  0  0  0  0  0  0  0  0  0  0
    6.8067  -13.6459   25.4640 C   0  0  1  0  0  0  0  0  0  0  0  0
    7.9157  -14.5655   25.1288 N   0  0  0  0  0  0  0  0  0  0  0  0
    7.6982  -15.5285   24.0888 C   0  0  0  0  0  0  0  0  0  0  0  0
    8.3934  -15.2893   26.3411 O   0  0  0  0  0  0  0  0  0  0  0  0
    8.7302  -14.6198   27.3474 O   0  0  0  0  0  0  0  0  0  0  0  0
  1  2  1  0
  2  3  2  0
  4  2  1  0
  4  5  1  0
  5  6  1  6
  7  8  2  0
  7  5  1  0
 10  9  1  0
 10 12  1  0
 11 10  2  0
 13 12  1  0
 13 14  1  0
 14 15  1  0
 16 15  1  1
 16 17  1  0
 17  7  1  0
 18 16  1  0
 19 18  2  0
 21 20  1  1
 21 23  1  0
 22 21  1  0
 24 23  1  6
 24 26  1  0
 24 25  1  0
 25 18  1  0
 26 28  1  0
 27 26  2  0
M  END
$$$$
