NRL.pdb
     RDKit          3D

 28 27  0  0  1  0  0  0  0  0999 V2000
    9.3871  -13.1921   16.6814 N   0  0  0  0  0  0  0  0  0  0  0  0
    7.9956  -13.3101   16.9259 C   0  0  0  0  0  0  0  0  0  0  0  0
    7.1850  -13.0178   16.0147 O   0  0  0  0  0  0  0  0  0  0  0  0
    7.5072  -13.7751   18.2476 C   0  0  0  0  0  0  0  0  0  0  0  0
    8.6909  -13.9881   19.1784 C   0  0  2  0  0  0  0  0  0  0  0  0
    9.7733  -14.6602   18.5238 N   0  0  0  0  0  0  0  0  0  0  0  0
    8.2331  -14.6902   20.4036 C   0  0  0  0  0  0  0  0  0  0  0  0
    7.2853  -14.1406   21.0404 O   0  0  0  0  0  0  0  0  0  0  0  0
   10.4045  -20.6045   25.7368 N   0  0  0  0  0  0  0  0  0  0  0  0
   10.9810  -20.4138   24.4291 C   0  0  0  0  0  0  0  0  0  0  0  0
   12.2467  -20.5417   24.3023 N   0  0  0  0  0  0  0  0  0  0  0  0
   10.1419  -20.0942   23.3350 N   0  0  0  0  0  0  0  0  0  0  0  0
    8.7240  -20.0116   23.5633 C   0  0  0  0  0  0  0  0  0  0  0  0
    8.2294  -18.5725   23.4909 C   0  0  0  0  0  0  0  0  0  0  0  0
    8.7934  -17.9359   22.2394 C   0  0  0  0  0  0  0  0  0  0  0  0
    8.3198  -16.4852   22.1094 C   0  0  2  0  0  0  0  0  0  0  0  0
    8.7879  -15.9012   20.8741 N   0  0  0  0  0  0  0  0  0  0  0  0
    8.7887  -15.7365   23.2953 C   0  0  0  0  0  0  0  0  0  0  0  0
    9.9871  -15.3700   23.3745 O   0  0  0  0  0  0  0  0  0  0  0  0
   12.7269  -20.4114   23.3983 C   0  0  0  0  0  0  0  0  0  0  0  0
    5.5994  -11.9969   26.2176 C   0  0  2  0  0  0  0  0  0  0  0  0
    6.6738  -12.6897   25.3697 C   0  0  0  0  0  0  0  0  0  0  0  0
    7.6481  -11.6156   24.9249 C   0  0  0  0  0  0  0  0  0  0  0  0
    7.3972  -13.7180   26.1751 C   0  0  2  0  0  0  0  0  0  0  0  0
    8.3948  -14.5610   25.4807 N   0  0  0  0  0  0  0  0  0  0  0  0
    7.9399  -15.3874   24.4007 C   0  0  0  0  0  0  0  0  0  0  0  0
    9.1310  -15.4229   26.4485 O   0  0  0  0  0  0  0  0  0  0  0  0
    8.8734  -16.6506   26.4772 O   0  0  0  0  0  0  0  0  0  0  0  0
  1  2  1  0
  2  3  2  0
  4  2  1  0
  4  5  1  0
  5  6  1  6
  7  8  2  0
  7  5  1  0
 10  9  1  0
 10 12  1  0
 11 10  2  0
 13 12  1  0
 13 14  1  0
 14 15  1  0
 16 15  1  1
 16 17  1  0
 17  7  1  0
 18 16  1  0
 19 18  2  0
 21 20  1  6
 21 23  1  0
 22 21  1  0
 24 23  1  6
 24 26  1  0
 24 25  1  0
 25 18  1  0
 26 28  1  0
 27 26  2  0
M  END
$$$$
