NRL.pdb
     RDKit          3D

 28 27  0  0  1  0  0  0  0  0999 V2000
    1.1025  -18.1476   22.0079 N   0  0  0  0  0  0  0  0  0  0  0  0
    2.1481  -19.1038   22.0579 C   0  0  0  0  0  0  0  0  0  0  0  0
    2.0290  -20.1780   21.4218 O   0  0  0  0  0  0  0  0  0  0  0  0
    3.3693  -18.8328   22.8560 C   0  0  0  0  0  0  0  0  0  0  0  0
    4.5721  -19.4620   22.1703 C   0  0  2  0  0  0  0  0  0  0  0  0
    4.5689  -20.8898   22.2861 N   0  0  0  0  0  0  0  0  0  0  0  0
    5.8160  -18.8441   22.6944 C   0  0  0  0  0  0  0  0  0  0  0  0
    6.1523  -19.1775   23.8699 O   0  0  0  0  0  0  0  0  0  0  0  0
   13.0166  -20.1026   20.9596 N   0  0  0  0  0  0  0  0  0  0  0  0
   13.4611  -18.7586   21.2335 C   0  0  0  0  0  0  0  0  0  0  0  0
   14.7191  -18.5342   21.2709 N   0  0  0  0  0  0  0  0  0  0  0  0
   12.5059  -17.7370   21.4508 N   0  0  0  0  0  0  0  0  0  0  0  0
   11.1296  -18.1156   21.6285 C   0  0  0  0  0  0  0  0  0  0  0  0
   10.2475  -16.9039   21.9014 C   0  0  0  0  0  0  0  0  0  0  0  0
    8.8653  -17.1863   21.3544 C   0  0  0  0  0  0  0  0  0  0  0  0
    7.8870  -17.4992   22.4906 C   0  0  2  0  0  0  0  0  0  0  0  0
    6.6131  -17.9331   21.9660 N   0  0  0  0  0  0  0  0  0  0  0  0
    7.7618  -16.2947   23.3392 C   0  0  0  0  0  0  0  0  0  0  0  0
    7.1542  -15.2831   22.9100 O   0  0  0  0  0  0  0  0  0  0  0  0
   15.1078  -17.6073   21.5044 C   0  0  0  0  0  0  0  0  0  0  0  0
    7.4662  -11.8996   25.8449 C   0  0  2  0  0  0  0  0  0  0  0  0
    6.9585  -13.1477   26.5781 C   0  0  0  0  0  0  0  0  0  0  0  0
    5.5299  -12.8627   27.0013 C   0  0  0  0  0  0  0  0  0  0  0  0
    6.9842  -14.3357   25.6741 C   0  0  1  0  0  0  0  0  0  0  0  0
    8.2932  -14.9708   25.4076 N   0  0  0  0  0  0  0  0  0  0  0  0
    8.3053  -16.1979   24.6658 C   0  0  0  0  0  0  0  0  0  0  0  0
    9.0499  -15.1847   26.6738 O   0  0  0  0  0  0  0  0  0  0  0  0
    9.0530  -14.2713   27.5341 O   0  0  0  0  0  0  0  0  0  0  0  0
  1  2  1  0
  2  3  2  0
  4  2  1  0
  4  5  1  0
  5  6  1  1
  7  8  2  0
  7  5  1  0
 10  9  1  0
 10 12  1  0
 11 10  2  0
 13 12  1  0
 13 14  1  0
 14 15  1  0
 16 15  1  6
 16 17  1  0
 17  7  1  0
 18 16  1  0
 19 18  2  0
 21 20  1  1
 21 23  1  0
 22 21  1  0
 24 23  1  6
 24 26  1  0
 24 25  1  0
 25 18  1  0
 26 28  1  0
 27 26  2  0
M  END
$$$$
