NRL.pdb
     RDKit          3D

 28 27  0  0  1  0  0  0  0  0999 V2000
    7.5934  -12.7282   16.4993 N   0  0  0  0  0  0  0  0  0  0  0  0
    7.2920  -14.1095   16.6063 C   0  0  0  0  0  0  0  0  0  0  0  0
    6.6444  -14.6696   15.6900 O   0  0  0  0  0  0  0  0  0  0  0  0
    7.7400  -14.8810   17.7920 C   0  0  0  0  0  0  0  0  0  0  0  0
    8.2892  -13.9253   18.8398 C   0  0  2  0  0  0  0  0  0  0  0  0
    9.3484  -13.1123   18.3212 N   0  0  0  0  0  0  0  0  0  0  0  0
    8.6900  -14.6942   20.0448 C   0  0  0  0  0  0  0  0  0  0  0  0
    7.7500  -15.2387   20.6975 O   0  0  0  0  0  0  0  0  0  0  0  0
   15.5184  -14.7383   19.1234 N   0  0  0  0  0  0  0  0  0  0  0  0
   15.3508  -14.6890   20.5546 C   0  0  0  0  0  0  0  0  0  0  0  0
   16.2069  -14.0327   21.2408 N   0  0  0  0  0  0  0  0  0  0  0  0
   14.2578  -15.3593   21.1540 N   0  0  0  0  0  0  0  0  0  0  0  0
   13.7917  -16.5795   20.5516 C   0  0  0  0  0  0  0  0  0  0  0  0
   12.2844  -16.7382   20.7052 C   0  0  0  0  0  0  0  0  0  0  0  0
   11.8200  -15.8310   21.8236 C   0  0  0  0  0  0  0  0  0  0  0  0
   10.3193  -15.5491   21.7043 C   0  0  2  0  0  0  0  0  0  0  0  0
   10.0259  -14.8403   20.4804 N   0  0  0  0  0  0  0  0  0  0  0  0
    9.8924  -14.7961   22.9032 C   0  0  0  0  0  0  0  0  0  0  0  0
   10.3756  -13.6612   23.1383 O   0  0  0  0  0  0  0  0  0  0  0  0
   16.1959  -14.0219   22.2726 C   0  0  0  0  0  0  0  0  0  0  0  0
    7.9065  -11.8917   26.6181 C   0  0  2  0  0  0  0  0  0  0  0  0
    7.0686  -13.1673   26.4631 C   0  0  0  0  0  0  0  0  0  0  0  0
    5.6117  -12.7451   26.4770 C   0  0  0  0  0  0  0  0  0  0  0  0
    7.3795  -13.8470   25.1706 C   0  0  1  0  0  0  0  0  0  0  0  0
    8.6472  -14.6034   25.0770 N   0  0  0  0  0  0  0  0  0  0  0  0
    8.9307  -15.2892   23.8500 C   0  0  0  0  0  0  0  0  0  0  0  0
    8.7687  -15.5811   26.1956 O   0  0  0  0  0  0  0  0  0  0  0  0
    8.1442  -15.3570   27.2606 O   0  0  0  0  0  0  0  0  0  0  0  0
  1  2  1  0
  2  3  2  0
  4  2  1  0
  4  5  1  0
  5  6  1  6
  7  8  2  0
  7  5  1  0
 10  9  1  0
 10 12  1  0
 11 10  2  0
 13 12  1  0
 13 14  1  0
 14 15  1  0
 16 15  1  1
 16 17  1  0
 17  7  1  0
 18 16  1  0
 19 18  2  0
 21 20  1  1
 21 23  1  0
 22 21  1  0
 24 23  1  6
 24 26  1  0
 24 25  1  0
 25 18  1  0
 26 28  1  0
 27 26  2  0
M  END
$$$$
