NRL.pdb
     RDKit          3D

 28 27  0  0  1  0  0  0  0  0999 V2000
    7.6311  -12.4573   16.5986 N   0  0  0  0  0  0  0  0  0  0  0  0
    7.2259  -13.8119   16.4934 C   0  0  0  0  0  0  0  0  0  0  0  0
    6.7428  -14.2262   15.4128 O   0  0  0  0  0  0  0  0  0  0  0  0
    7.3736  -14.7268   17.6521 C   0  0  0  0  0  0  0  0  0  0  0  0
    7.7578  -13.9240   18.8853 C   0  0  2  0  0  0  0  0  0  0  0  0
    8.8364  -13.0192   18.6212 N   0  0  0  0  0  0  0  0  0  0  0  0
    8.0463  -14.8530   20.0067 C   0  0  0  0  0  0  0  0  0  0  0  0
    7.0544  -15.4878   20.4747 O   0  0  0  0  0  0  0  0  0  0  0  0
   15.7497  -15.3279   21.3586 N   0  0  0  0  0  0  0  0  0  0  0  0
   15.1176  -14.9814   20.1099 C   0  0  0  0  0  0  0  0  0  0  0  0
   15.7553  -14.2262   19.2991 N   0  0  0  0  0  0  0  0  0  0  0  0
   13.8252  -15.4797   19.8186 N   0  0  0  0  0  0  0  0  0  0  0  0
   12.9417  -15.7692   20.9162 C   0  0  0  0  0  0  0  0  0  0  0  0
   11.5984  -16.2966   20.4281 C   0  0  0  0  0  0  0  0  0  0  0  0
   10.7813  -16.7102   21.6326 C   0  0  0  0  0  0  0  0  0  0  0  0
    9.5024  -15.8734   21.7324 C   0  0  2  0  0  0  0  0  0  0  0  0
    9.3325  -15.0533   20.5557 N   0  0  0  0  0  0  0  0  0  0  0  0
    9.5708  -15.0682   22.9707 C   0  0  0  0  0  0  0  0  0  0  0  0
    9.8143  -13.8379   22.9084 O   0  0  0  0  0  0  0  0  0  0  0  0
   15.3202  -13.8389   18.4473 C   0  0  0  0  0  0  0  0  0  0  0  0
    8.2995  -11.9801   26.6090 C   0  0  2  0  0  0  0  0  0  0  0  0
    7.3214  -13.1442   26.4059 C   0  0  0  0  0  0  0  0  0  0  0  0
    5.9606  -12.5357   26.1247 C   0  0  0  0  0  0  0  0  0  0  0  0
    7.7407  -13.9875   25.2472 C   0  0  1  0  0  0  0  0  0  0  0  0
    8.9670  -14.8012   25.3951 N   0  0  0  0  0  0  0  0  0  0  0  0
    9.3713  -15.6138   24.2848 C   0  0  0  0  0  0  0  0  0  0  0  0
    8.8882  -15.6700   26.6037 O   0  0  0  0  0  0  0  0  0  0  0  0
    8.2056  -16.7212   26.5451 O   0  0  0  0  0  0  0  0  0  0  0  0
  1  2  1  0
  2  3  2  0
  4  2  1  0
  4  5  1  0
  5  6  1  6
  7  8  2  0
  7  5  1  0
 10  9  1  0
 10 12  1  0
 11 10  2  0
 13 12  1  0
 13 14  1  0
 14 15  1  0
 16 15  1  6
 16 17  1  0
 17  7  1  0
 18 16  1  0
 19 18  2  0
 21 20  1  1
 21 23  1  0
 22 21  1  0
 24 23  1  6
 24 26  1  0
 24 25  1  0
 25 18  1  0
 26 28  1  0
 27 26  2  0
M  END
$$$$
