NRL.pdb
     RDKit          3D

 28 27  0  0  1  0  0  0  0  0999 V2000
    7.9753  -12.2360   17.3869 N   0  0  0  0  0  0  0  0  0  0  0  0
    7.9529  -13.6532   17.4185 C   0  0  0  0  0  0  0  0  0  0  0  0
    8.1708  -14.2945   16.3630 O   0  0  0  0  0  0  0  0  0  0  0  0
    7.6741  -14.3668   18.6892 C   0  0  0  0  0  0  0  0  0  0  0  0
    8.9185  -14.3489   19.5633 C   0  0  2  0  0  0  0  0  0  0  0  0
   10.0466  -14.9334   18.9018 N   0  0  0  0  0  0  0  0  0  0  0  0
    8.6148  -14.9955   20.8646 C   0  0  0  0  0  0  0  0  0  0  0  0
    7.5599  -14.6056   21.4487 O   0  0  0  0  0  0  0  0  0  0  0  0
   10.3590  -19.4112   19.1318 N   0  0  0  0  0  0  0  0  0  0  0  0
    9.6953  -20.6634   19.3968 C   0  0  0  0  0  0  0  0  0  0  0  0
    9.2143  -21.3136   18.4066 N   0  0  0  0  0  0  0  0  0  0  0  0
    9.5949  -21.1336   20.7280 N   0  0  0  0  0  0  0  0  0  0  0  0
    9.9433  -20.2363   21.7970 C   0  0  0  0  0  0  0  0  0  0  0  0
    9.2069  -18.9084   21.6743 C   0  0  0  0  0  0  0  0  0  0  0  0
    9.6340  -18.0176   22.8204 C   0  0  0  0  0  0  0  0  0  0  0  0
    9.0063  -16.6268   22.6880 C   0  0  2  0  0  0  0  0  0  0  0  0
    9.4215  -15.9911   21.4594 N   0  0  0  0  0  0  0  0  0  0  0  0
    9.3774  -15.8354   23.8808 C   0  0  0  0  0  0  0  0  0  0  0  0
   10.5129  -15.3045   23.9551 O   0  0  0  0  0  0  0  0  0  0  0  0
    8.6539  -22.1714   18.5293 C   0  0  0  0  0  0  0  0  0  0  0  0
    5.7683  -12.7404   26.8769 C   0  0  1  0  0  0  0  0  0  0  0  0
    6.9863  -13.1874   26.0586 C   0  0  0  0  0  0  0  0  0  0  0  0
    7.7599  -11.9343   25.6947 C   0  0  0  0  0  0  0  0  0  0  0  0
    7.8562  -14.0955   26.8635 C   0  0  2  0  0  0  0  0  0  0  0  0
    8.8971  -14.8656   26.1484 N   0  0  0  0  0  0  0  0  0  0  0  0
    8.4995  -15.6245   24.9985 C   0  0  0  0  0  0  0  0  0  0  0  0
    9.6212  -15.7764   27.0799 O   0  0  0  0  0  0  0  0  0  0  0  0
   10.1085  -15.2970   28.1321 O   0  0  0  0  0  0  0  0  0  0  0  0
  1  2  1  0
  2  3  2  0
  4  2  1  0
  4  5  1  0
  5  6  1  6
  7  8  2  0
  7  5  1  0
 10  9  1  0
 10 12  1  0
 11 10  2  0
 13 12  1  0
 13 14  1  0
 14 15  1  0
 16 15  1  1
 16 17  1  0
 17  7  1  0
 18 16  1  0
 19 18  2  0
 21 20  1  6
 21 23  1  0
 22 21  1  0
 24 23  1  6
 24 26  1  0
 24 25  1  0
 25 18  1  0
 26 28  1  0
 27 26  2  0
M  END
$$$$
