NRL.pdb
     RDKit          3D

 28 27  0  0  1  0  0  0  0  0999 V2000
   16.6834  -15.2661   19.9623 N   0  0  0  0  0  0  0  0  0  0  0  0
   15.5919  -15.0486   19.0841 C   0  0  0  0  0  0  0  0  0  0  0  0
   15.7952  -15.0199   17.8469 O   0  0  0  0  0  0  0  0  0  0  0  0
   14.2242  -14.8573   19.6270 C   0  0  0  0  0  0  0  0  0  0  0  0
   13.9790  -15.8584   20.7453 C   0  0  2  0  0  0  0  0  0  0  0  0
   13.6179  -17.1491   20.2397 N   0  0  0  0  0  0  0  0  0  0  0  0
   12.9733  -15.3067   21.6876 C   0  0  0  0  0  0  0  0  0  0  0  0
   13.3971  -14.4446   22.5141 O   0  0  0  0  0  0  0  0  0  0  0  0
    5.8704  -13.5852   18.0906 N   0  0  0  0  0  0  0  0  0  0  0  0
    7.1939  -13.5943   17.5189 C   0  0  0  0  0  0  0  0  0  0  0  0
    7.3017  -13.6060   16.2450 N   0  0  0  0  0  0  0  0  0  0  0  0
    8.3238  -13.5900   18.3713 N   0  0  0  0  0  0  0  0  0  0  0  0
    8.1847  -14.1429   19.6920 C   0  0  0  0  0  0  0  0  0  0  0  0
    9.4907  -14.0617   20.4721 C   0  0  0  0  0  0  0  0  0  0  0  0
    9.3208  -14.8230   21.7687 C   0  0  0  0  0  0  0  0  0  0  0  0
   10.6600  -14.9511   22.5008 C   0  0  2  0  0  0  0  0  0  0  0  0
   11.6129  -15.6869   21.7028 N   0  0  0  0  0  0  0  0  0  0  0  0
   10.4130  -15.5924   23.8101 C   0  0  0  0  0  0  0  0  0  0  0  0
   10.6780  -16.8087   23.9748 O   0  0  0  0  0  0  0  0  0  0  0  0
    8.2145  -13.6757   15.7689 C   0  0  0  0  0  0  0  0  0  0  0  0
   10.2525  -13.5852   29.7371 C   0  0  2  0  0  0  0  0  0  0  0  0
   10.2735  -14.7754   28.7695 C   0  0  0  0  0  0  0  0  0  0  0  0
    9.1516  -15.7067   29.1880 C   0  0  0  0  0  0  0  0  0  0  0  0
   10.0454  -14.3171   27.3669 C   0  0  1  0  0  0  0  0  0  0  0  0
   10.1144  -15.3298   26.2911 N   0  0  0  0  0  0  0  0  0  0  0  0
    9.8725  -14.8972   24.9455 C   0  0  0  0  0  0  0  0  0  0  0  0
    9.2094  -16.4782   26.5808 O   0  0  0  0  0  0  0  0  0  0  0  0
    9.6433  -17.4235   27.2826 O   0  0  0  0  0  0  0  0  0  0  0  0
  1  2  1  0
  2  3  2  0
  4  2  1  0
  4  5  1  0
  5  6  1  6
  7  8  2  0
  7  5  1  0
 10  9  1  0
 10 12  1  0
 11 10  2  0
 13 12  1  0
 13 14  1  0
 14 15  1  0
 16 15  1  6
 16 17  1  0
 17  7  1  0
 18 16  1  0
 19 18  2  0
 21 20  1  1
 21 23  1  0
 22 21  1  0
 24 23  1  6
 24 26  1  0
 24 25  1  0
 25 18  1  0
 26 28  1  0
 27 26  2  0
M  END
$$$$
