RNS.pdb
     RDKit          3D

 26 25  0  0  1  0  0  0  0  0999 V2000
    7.6535  -12.2308   17.1457 N   0  0  0  0  0  0  0  0  0  0  0  0
    8.0015  -13.5415   16.7280 C   0  0  0  0  0  0  0  0  0  0  0  0
    7.7173  -13.9767   15.5308 N   0  0  0  0  0  0  0  0  0  0  0  0
    8.6738  -14.3805   17.6558 N   0  0  0  0  0  0  0  0  0  0  0  0
    8.5258  -14.1706   19.0838 C   0  0  0  0  0  0  0  0  0  0  0  0
    7.1967  -14.6458   19.5905 C   0  0  0  0  0  0  0  0  0  0  0  0
    6.9972  -14.4144   21.0527 C   0  0  0  0  0  0  0  0  0  0  0  0
    8.1390  -14.9015   21.9076 C   0  0  2  0  0  0  0  0  0  0  0  0
    8.7666  -16.0808   21.4138 N   0  0  0  0  0  0  0  0  0  0  0  0
    7.7858  -14.9584   23.3340 C   0  0  0  0  0  0  0  0  0  0  0  0
    7.1968  -13.9577   23.8635 O   0  0  0  0  0  0  0  0  0  0  0  0
    8.0390  -14.9249   15.2614 N   0  0  0  0  0  0  0  0  0  0  0  0
    8.5890  -18.6203   25.0907 C   0  0  0  0  0  0  0  0  0  0  0  0
    7.2229  -18.4784   25.5768 O   0  0  0  0  0  0  0  0  0  0  0  0
    6.5310  -19.5217   25.6796 C   0  0  0  0  0  0  0  0  0  0  0  0
    6.7982  -17.1257   25.8960 C   0  0  1  0  0  0  0  0  0  0  0  0
    7.7773  -16.0376   25.6345 N   0  0  0  0  0  0  0  0  0  0  0  0
    8.0646  -16.0685   24.1579 C   0  0  0  0  0  0  0  0  0  0  0  0
    9.1073  -16.2881   26.2586 O   0  0  0  0  0  0  0  0  0  0  0  0
   10.1545  -16.2402   25.4953 O   0  0  0  0  0  0  0  0  0  0  0  0
    9.2706  -14.2310   29.3356 C   0  0  0  0  0  0  0  0  0  0  0  0
   10.2466  -14.4971   28.3808 C   0  0  1  0  0  0  0  0  0  0  0  0
   10.5567  -15.9795   28.2937 N   0  0  0  0  0  0  0  0  0  0  0  0
    9.3849  -16.5723   27.6071 C   0  0  0  0  0  0  0  0  0  0  0  0
   10.6522  -16.4786   29.6737 O   0  0  0  0  0  0  0  0  0  0  0  0
    9.7380  -17.3968   30.1351 O   0  0  0  0  0  0  0  0  0  0  0  0
  2  3  2  0
  2  1  1  0
  4  2  1  0
  5  4  1  0
  6  5  1  0
  7  6  1  0
  8 10  1  0
  8  7  1  0
  8  9  1  6
 10 17  1  0
 11 10  2  0
 13 12  1  0
 14 13  2  0
 15 13  1  0
 16 17  1  0
 16 15  1  6
 18 16  1  0
 19 18  2  0
 21 20  1  0
 22 21  1  6
 22 23  1  0
 22 24  1  0
 23 18  1  0
 24 25  1  0
 26 24  2  0
M  END
$$$$
