RNS.pdb
     RDKit          3D

 26 25  0  0  1  0  0  0  0  0999 V2000
    6.9066  -11.3006   19.1159 N   0  0  0  0  0  0  0  0  0  0  0  0
    7.7087  -12.4700   19.1662 C   0  0  0  0  0  0  0  0  0  0  0  0
    8.7964  -12.5854   18.4541 N   0  0  0  0  0  0  0  0  0  0  0  0
    7.2943  -13.5266   20.0197 N   0  0  0  0  0  0  0  0  0  0  0  0
    8.2708  -14.4071   20.6332 C   0  0  0  0  0  0  0  0  0  0  0  0
    7.6287  -15.4372   21.5142 C   0  0  0  0  0  0  0  0  0  0  0  0
    8.5840  -16.4657   22.0249 C   0  0  0  0  0  0  0  0  0  0  0  0
    9.2459  -17.2745   20.9389 C   0  0  2  0  0  0  0  0  0  0  0  0
    8.4685  -18.3792   20.4876 N   0  0  0  0  0  0  0  0  0  0  0  0
   10.6406  -17.6107   21.2623 C   0  0  0  0  0  0  0  0  0  0  0  0
   10.9301  -18.8167   21.5630 O   0  0  0  0  0  0  0  0  0  0  0  0
    9.3899  -13.4243   18.5924 N   0  0  0  0  0  0  0  0  0  0  0  0
   14.0819  -14.2726   19.3770 C   0  0  0  0  0  0  0  0  0  0  0  0
   14.1398  -15.6660   19.7987 O   0  0  0  0  0  0  0  0  0  0  0  0
   14.3372  -16.5340   18.9124 C   0  0  0  0  0  0  0  0  0  0  0  0
   13.9603  -15.9088   21.2202 C   0  0  2  0  0  0  0  0  0  0  0  0
   13.0982  -17.0596   21.5990 N   0  0  0  0  0  0  0  0  0  0  0  0
   11.6868  -16.6649   21.2588 C   0  0  0  0  0  0  0  0  0  0  0  0
   13.0544  -17.2955   23.0700 O   0  0  0  0  0  0  0  0  0  0  0  0
   12.7677  -16.2903   23.8374 O   0  0  0  0  0  0  0  0  0  0  0  0
   12.3771  -20.7571   24.7341 C   0  0  0  0  0  0  0  0  0  0  0  0
   12.2160  -19.6397   25.5468 C   0  0  1  0  0  0  0  0  0  0  0  0
   13.2419  -18.5667   25.2348 N   0  0  0  0  0  0  0  0  0  0  0  0
   13.2842  -18.5014   23.7550 C   0  0  0  0  0  0  0  0  0  0  0  0
   14.5295  -19.0378   25.7667 O   0  0  0  0  0  0  0  0  0  0  0  0
   14.7024  -19.1711   27.1247 O   0  0  0  0  0  0  0  0  0  0  0  0
  2  3  2  0
  2  1  1  0
  4  2  1  0
  5  4  1  0
  6  5  1  0
  7  6  1  0
  8 10  1  0
  8  7  1  0
  8  9  1  1
 10 17  1  0
 11 10  2  0
 13 12  1  0
 14 13  2  0
 15 13  1  0
 16 17  1  0
 16 15  1  6
 18 16  1  0
 19 18  2  0
 21 20  1  0
 22 21  1  1
 22 23  1  0
 22 24  1  0
 23 18  1  0
 24 25  1  0
 26 24  2  0
M  END
$$$$
