RNS.pdb
     RDKit          3D

 26 25  0  0  1  0  0  0  0  0999 V2000
    7.6735  -14.5666   17.2326 N   0  0  0  0  0  0  0  0  0  0  0  0
    7.8267  -13.2767   17.8037 C   0  0  0  0  0  0  0  0  0  0  0  0
    8.4943  -12.3338   17.1962 N   0  0  0  0  0  0  0  0  0  0  0  0
    7.2301  -13.0325   19.0690 N   0  0  0  0  0  0  0  0  0  0  0  0
    7.8659  -13.4972   20.2876 C   0  0  0  0  0  0  0  0  0  0  0  0
    7.2606  -14.7744   20.7896 C   0  0  0  0  0  0  0  0  0  0  0  0
    8.2644  -15.7388   21.3314 C   0  0  0  0  0  0  0  0  0  0  0  0
    9.4049  -16.0247   20.3883 C   0  0  2  0  0  0  0  0  0  0  0  0
    9.0174  -16.7269   19.2113 N   0  0  0  0  0  0  0  0  0  0  0  0
   10.5704  -16.5991   21.0770 C   0  0  0  0  0  0  0  0  0  0  0  0
   10.4623  -17.7513   21.6150 O   0  0  0  0  0  0  0  0  0  0  0  0
    8.5470  -11.4001   17.6438 N   0  0  0  0  0  0  0  0  0  0  0  0
   14.4467  -14.4106   19.4210 C   0  0  0  0  0  0  0  0  0  0  0  0
   14.5605  -15.7174   20.0549 O   0  0  0  0  0  0  0  0  0  0  0  0
   14.9657  -16.6734   19.3477 C   0  0  0  0  0  0  0  0  0  0  0  0
   14.1878  -15.7788   21.4582 C   0  0  2  0  0  0  0  0  0  0  0  0
   13.0061  -16.6137   21.8009 N   0  0  0  0  0  0  0  0  0  0  0  0
   11.8136  -15.9409   21.1772 C   0  0  0  0  0  0  0  0  0  0  0  0
   12.6923  -16.6095   23.2579 O   0  0  0  0  0  0  0  0  0  0  0  0
   12.7699  -15.4810   23.8919 O   0  0  0  0  0  0  0  0  0  0  0  0
   10.2261  -18.8810   25.0519 C   0  0  0  0  0  0  0  0  0  0  0  0
   10.7254  -17.8390   25.8265 C   0  0  1  0  0  0  0  0  0  0  0  0
   12.1885  -17.5706   25.5294 N   0  0  0  0  0  0  0  0  0  0  0  0
   12.3064  -17.6991   24.0578 C   0  0  0  0  0  0  0  0  0  0  0  0
   12.9624  -18.6246   26.2023 O   0  0  0  0  0  0  0  0  0  0  0  0
   12.9425  -18.7195   27.5743 O   0  0  0  0  0  0  0  0  0  0  0  0
  2  3  2  0
  2  1  1  0
  4  2  1  0
  5  4  1  0
  6  5  1  0
  7  6  1  0
  8 10  1  0
  8  7  1  0
  8  9  1  6
 10 17  1  0
 11 10  2  0
 13 12  1  0
 14 13  2  0
 15 13  1  0
 16 17  1  0
 16 15  1  6
 18 16  1  0
 19 18  2  0
 21 20  1  0
 22 21  1  6
 22 23  1  0
 22 24  1  0
 23 18  1  0
 24 25  1  0
 26 24  2  0
M  END
$$$$
