RNS.pdb
     RDKit          3D

 26 25  0  0  1  0  0  0  0  0999 V2000
    6.3093  -12.0833   17.9488 N   0  0  0  0  0  0  0  0  0  0  0  0
    6.6615  -13.2279   17.1875 C   0  0  0  0  0  0  0  0  0  0  0  0
    6.3129  -13.3515   15.9358 N   0  0  0  0  0  0  0  0  0  0  0  0
    7.4109  -14.2500   17.8281 N   0  0  0  0  0  0  0  0  0  0  0  0
    8.0016  -14.0250   19.1341 C   0  0  0  0  0  0  0  0  0  0  0  0
    9.1285  -13.0366   19.0824 C   0  0  0  0  0  0  0  0  0  0  0  0
   10.4452  -13.6098   19.4933 C   0  0  0  0  0  0  0  0  0  0  0  0
   11.2586  -14.1510   18.3455 C   0  0  2  0  0  0  0  0  0  0  0  0
   10.4873  -14.8416   17.3675 N   0  0  0  0  0  0  0  0  0  0  0  0
   12.4507  -14.8823   18.7999 C   0  0  0  0  0  0  0  0  0  0  0  0
   12.3911  -16.1527   18.9066 O   0  0  0  0  0  0  0  0  0  0  0  0
    6.5038  -14.2512   15.4573 N   0  0  0  0  0  0  0  0  0  0  0  0
   16.8360  -15.9917   17.1424 C   0  0  0  0  0  0  0  0  0  0  0  0
   16.2717  -14.6788   17.4264 O   0  0  0  0  0  0  0  0  0  0  0  0
   16.0312  -13.9258   16.4502 C   0  0  0  0  0  0  0  0  0  0  0  0
   16.0433  -14.3740   18.8288 C   0  0  2  0  0  0  0  0  0  0  0  0
   14.8926  -15.0521   19.4823 N   0  0  0  0  0  0  0  0  0  0  0  0
   13.6689  -14.2517   19.1278 C   0  0  0  0  0  0  0  0  0  0  0  0
   14.9425  -14.9809   20.9702 O   0  0  0  0  0  0  0  0  0  0  0  0
   14.6945  -13.8386   21.5316 O   0  0  0  0  0  0  0  0  0  0  0  0
   12.1440  -16.8889   23.5967 C   0  0  0  0  0  0  0  0  0  0  0  0
   13.0203  -16.5715   22.5641 C   0  0  1  0  0  0  0  0  0  0  0  0
   14.4037  -16.2334   23.0864 N   0  0  0  0  0  0  0  0  0  0  0  0
   15.2261  -16.0212   21.8721 C   0  0  0  0  0  0  0  0  0  0  0  0
   14.8790  -17.4086   23.8318 O   0  0  0  0  0  0  0  0  0  0  0  0
   14.9897  -17.3526   25.2016 O   0  0  0  0  0  0  0  0  0  0  0  0
  2  3  2  0
  2  1  1  0
  4  2  1  0
  5  4  1  0
  6  5  1  0
  7  6  1  0
  8 10  1  0
  8  7  1  0
  8  9  1  1
 10 17  1  0
 11 10  2  0
 13 12  1  0
 14 13  2  0
 15 13  1  0
 16 17  1  0
 16 15  1  6
 18 16  1  0
 19 18  2  0
 21 20  1  0
 22 21  1  1
 22 23  1  0
 22 24  1  0
 23 18  1  0
 24 25  1  0
 26 24  2  0
M  END
$$$$
