RNS.pdb
     RDKit          3D

 26 25  0  0  1  0  0  0  0  0999 V2000
    9.9142  -13.1384   19.5918 N   0  0  0  0  0  0  0  0  0  0  0  0
    8.9934  -13.4067   18.5459 C   0  0  0  0  0  0  0  0  0  0  0  0
    9.1887  -12.9675   17.3324 N   0  0  0  0  0  0  0  0  0  0  0  0
    7.8385  -14.1731   18.8546 N   0  0  0  0  0  0  0  0  0  0  0  0
    7.7129  -14.8353   20.1395 C   0  0  0  0  0  0  0  0  0  0  0  0
    7.3263  -13.8825   21.2313 C   0  0  0  0  0  0  0  0  0  0  0  0
    6.6382  -14.5402   22.3824 C   0  0  0  0  0  0  0  0  0  0  0  0
    7.3071  -15.8081   22.8480 C   0  0  2  0  0  0  0  0  0  0  0  0
    6.3967  -16.8195   23.2682 N   0  0  0  0  0  0  0  0  0  0  0  0
    8.4001  -15.5486   23.7969 C   0  0  0  0  0  0  0  0  0  0  0  0
    9.3713  -14.8061   23.4304 O   0  0  0  0  0  0  0  0  0  0  0  0
    8.4776  -13.1835   16.6094 N   0  0  0  0  0  0  0  0  0  0  0  0
    9.9979  -13.1942   28.4487 C   0  0  0  0  0  0  0  0  0  0  0  0
    9.6897  -14.6125   28.3217 O   0  0  0  0  0  0  0  0  0  0  0  0
   10.1645  -15.3905   29.1862 C   0  0  0  0  0  0  0  0  0  0  0  0
    8.8539  -14.9836   27.1921 C   0  0  1  0  0  0  0  0  0  0  0  0
    9.5212  -15.6991   26.0724 N   0  0  0  0  0  0  0  0  0  0  0  0
    8.4355  -16.0799   25.1029 C   0  0  0  0  0  0  0  0  0  0  0  0
   10.1041  -17.0081   26.4823 O   0  0  0  0  0  0  0  0  0  0  0  0
    9.2902  -17.9955   26.6925 O   0  0  0  0  0  0  0  0  0  0  0  0
   13.6211  -18.3482   25.4322 C   0  0  0  0  0  0  0  0  0  0  0  0
   12.6312  -19.2268   25.8602 C   0  0  1  0  0  0  0  0  0  0  0  0
   11.8860  -18.6876   27.0665 N   0  0  0  0  0  0  0  0  0  0  0  0
   11.4607  -17.3242   26.6712 C   0  0  0  0  0  0  0  0  0  0  0  0
   12.8519  -18.6253   28.1737 O   0  0  0  0  0  0  0  0  0  0  0  0
   13.3695  -19.7868   28.6978 O   0  0  0  0  0  0  0  0  0  0  0  0
  2  3  2  0
  2  1  1  0
  4  2  1  0
  5  4  1  0
  6  5  1  0
  7  6  1  0
  8 10  1  0
  8  7  1  0
  8  9  1  1
 10 17  1  0
 11 10  2  0
 13 12  1  0
 14 13  2  0
 15 13  1  0
 16 17  1  0
 16 15  1  6
 18 16  1  0
 19 18  2  0
 21 20  1  0
 22 21  1  6
 22 23  1  0
 22 24  1  0
 23 18  1  0
 24 25  1  0
 26 24  2  0
M  END
$$$$
