RNS.pdb
     RDKit          3D

 26 25  0  0  1  0  0  0  0  0999 V2000
    8.0499  -12.6209   18.0853 N   0  0  0  0  0  0  0  0  0  0  0  0
    9.0885  -13.4200   18.6296 C   0  0  0  0  0  0  0  0  0  0  0  0
   10.1810  -13.6713   17.9610 N   0  0  0  0  0  0  0  0  0  0  0  0
    8.9088  -13.9481   19.9355 N   0  0  0  0  0  0  0  0  0  0  0  0
    8.0455  -15.0930   20.1571 C   0  0  0  0  0  0  0  0  0  0  0  0
    6.6395  -14.6861   20.4842 C   0  0  0  0  0  0  0  0  0  0  0  0
    6.1967  -15.1093   21.8466 C   0  0  0  0  0  0  0  0  0  0  0  0
    6.2884  -16.5951   22.0824 C   0  0  2  0  0  0  0  0  0  0  0  0
    5.2657  -17.3458   21.4353 N   0  0  0  0  0  0  0  0  0  0  0  0
    6.4720  -16.9262   23.5035 C   0  0  0  0  0  0  0  0  0  0  0  0
    5.4730  -16.8331   24.2921 O   0  0  0  0  0  0  0  0  0  0  0  0
   10.9108  -14.2549   18.4102 N   0  0  0  0  0  0  0  0  0  0  0  0
    8.3323  -18.5935   28.0611 C   0  0  0  0  0  0  0  0  0  0  0  0
    8.8780  -19.3910   26.9707 O   0  0  0  0  0  0  0  0  0  0  0  0
    9.5297  -20.4213   27.2734 C   0  0  0  0  0  0  0  0  0  0  0  0
    8.6076  -18.9037   25.6285 C   0  0  1  0  0  0  0  0  0  0  0  0
    7.8504  -17.6287   25.5193 N   0  0  0  0  0  0  0  0  0  0  0  0
    7.7032  -17.3450   24.0491 C   0  0  0  0  0  0  0  0  0  0  0  0
    8.6107  -16.4536   26.0316 O   0  0  0  0  0  0  0  0  0  0  0  0
    9.7380  -16.1642   25.4597 O   0  0  0  0  0  0  0  0  0  0  0  0
    7.2844  -13.0681   26.7516 C   0  0  0  0  0  0  0  0  0  0  0  0
    8.1572  -13.3270   27.8033 C   0  0  2  0  0  0  0  0  0  0  0  0
    9.1196  -14.4511   27.4697 N   0  0  0  0  0  0  0  0  0  0  0  0
    8.2534  -15.5888   27.0806 C   0  0  0  0  0  0  0  0  0  0  0  0
    9.8572  -14.7634   28.7031 O   0  0  0  0  0  0  0  0  0  0  0  0
    9.8051  -16.0328   29.2299 O   0  0  0  0  0  0  0  0  0  0  0  0
  2  3  2  0
  2  1  1  0
  4  2  1  0
  5  4  1  0
  6  5  1  0
  7  6  1  0
  8 10  1  0
  8  7  1  0
  8  9  1  1
 10 17  1  0
 11 10  2  0
 13 12  1  0
 14 13  2  0
 15 13  1  0
 16 17  1  0
 16 15  1  6
 18 16  1  0
 19 18  2  0
 21 20  1  0
 22 21  1  6
 22 23  1  0
 22 24  1  0
 23 18  1  0
 24 25  1  0
 26 24  2  0
M  END
$$$$
