RNS.pdb
     RDKit          3D

 26 25  0  0  1  0  0  0  0  0999 V2000
    7.7542  -11.1895   19.8622 N   0  0  0  0  0  0  0  0  0  0  0  0
    7.8999  -12.5624   19.5343 C   0  0  0  0  0  0  0  0  0  0  0  0
    8.6252  -12.9511   18.5211 N   0  0  0  0  0  0  0  0  0  0  0  0
    7.2282  -13.5163   20.3439 N   0  0  0  0  0  0  0  0  0  0  0  0
    7.9569  -14.6148   20.9501 C   0  0  0  0  0  0  0  0  0  0  0  0
    7.4865  -15.9488   20.4516 C   0  0  0  0  0  0  0  0  0  0  0  0
    8.2548  -17.1008   21.0119 C   0  0  0  0  0  0  0  0  0  0  0  0
    9.5379  -17.3922   20.2768 C   0  0  2  0  0  0  0  0  0  0  0  0
    9.3815  -18.2785   19.1731 N   0  0  0  0  0  0  0  0  0  0  0  0
   10.6358  -17.7506   21.1872 C   0  0  0  0  0  0  0  0  0  0  0  0
   10.6460  -18.9136   21.7126 O   0  0  0  0  0  0  0  0  0  0  0  0
    8.6853  -13.9661   18.3182 N   0  0  0  0  0  0  0  0  0  0  0  0
   15.2092  -17.7278   23.7334 C   0  0  0  0  0  0  0  0  0  0  0  0
   15.0330  -16.4013   23.1572 O   0  0  0  0  0  0  0  0  0  0  0  0
   15.9401  -15.5555   23.3566 C   0  0  0  0  0  0  0  0  0  0  0  0
   13.8091  -16.1929   22.4018 C   0  0  1  0  0  0  0  0  0  0  0  0
   12.8319  -17.3135   22.3884 N   0  0  0  0  0  0  0  0  0  0  0  0
   11.6888  -16.8718   21.5156 C   0  0  0  0  0  0  0  0  0  0  0  0
   12.1939  -17.5463   23.7152 O   0  0  0  0  0  0  0  0  0  0  0  0
   11.5285  -16.5693   24.2482 O   0  0  0  0  0  0  0  0  0  0  0  0
   10.8513  -20.9531   25.1894 C   0  0  0  0  0  0  0  0  0  0  0  0
   10.4539  -19.7310   25.7219 C   0  0  1  0  0  0  0  0  0  0  0  0
   11.6181  -18.7658   25.8409 N   0  0  0  0  0  0  0  0  0  0  0  0
   12.2146  -18.7223   24.4851 C   0  0  0  0  0  0  0  0  0  0  0  0
   12.5644  -19.3527   26.8015 O   0  0  0  0  0  0  0  0  0  0  0  0
   13.8390  -19.6752   26.3980 O   0  0  0  0  0  0  0  0  0  0  0  0
  2  3  2  0
  2  1  1  0
  4  2  1  0
  5  4  1  0
  6  5  1  0
  7  6  1  0
  8 10  1  0
  8  7  1  0
  8  9  1  6
 10 17  1  0
 11 10  2  0
 13 12  1  0
 14 13  2  0
 15 13  1  0
 16 17  1  0
 16 15  1  6
 18 16  1  0
 19 18  2  0
 21 20  1  0
 22 21  1  6
 22 23  1  0
 22 24  1  0
 23 18  1  0
 24 25  1  0
 26 24  2  0
M  END
$$$$
