MKA.pdb
     RDKit          3D

 23 22  0  0  1  0  0  0  0  0999 V2000
    8.2731  -11.8042   18.0182 C   0  0  0  0  0  0  0  0  0  0  0  0
    7.5147  -13.3076   17.4249 S   0  0  0  0  0  0  0  0  0  0  0  0
    7.7887  -14.7349   18.4609 C   0  0  0  0  0  0  0  0  0  0  0  0
    8.9510  -14.5982   19.3891 C   0  0  0  0  0  0  0  0  0  0  0  0
    9.1117  -15.8426   20.2511 C   0  0  2  0  0  0  0  0  0  0  0  0
    7.9793  -16.7099   20.1727 N   0  0  0  0  0  0  0  0  0  0  0  0
    9.3921  -15.4992   21.6620 C   0  0  0  0  0  0  0  0  0  0  0  0
   10.5660  -15.1529   21.9745 O   0  0  0  0  0  0  0  0  0  0  0  0
    8.3713  -15.5504   22.6708 N   0  0  0  0  0  0  0  0  0  0  0  0
    8.6609  -15.1592   24.0102 C   0  0  1  0  0  0  0  0  0  0  0  0
    7.4662  -14.4261   24.5925 C   0  0  0  0  0  0  0  0  0  0  0  0
    7.7592  -13.9354   25.9965 C   0  0  0  0  0  0  0  0  0  0  0  0
    6.6180  -13.1632   26.5766 C   0  0  0  0  0  0  0  0  0  0  0  0
    6.9740  -12.7404   27.9760 C   0  0  0  0  0  0  0  0  0  0  0  0
    5.9198  -11.9875   28.6104 N   0  0  0  0  0  0  0  0  0  0  0  0
    8.9912  -16.3063   24.8979 C   0  0  0  0  0  0  0  0  0  0  0  0
    8.1118  -17.1679   25.1576 O   0  0  0  0  0  0  0  0  0  0  0  0
   11.7731  -18.4395   25.7473 C   0  0  0  0  0  0  0  0  0  0  0  0
   10.5632  -17.6993   26.2849 C   0  0  2  0  0  0  0  0  0  0  0  0
   10.2675  -16.5077   25.4939 N   0  0  0  0  0  0  0  0  0  0  0  0
   10.7115  -17.3078   27.6989 C   0  0  0  0  0  0  0  0  0  0  0  0
   10.7499  -16.1097   28.0795 O   0  0  0  0  0  0  0  0  0  0  0  0
   10.8174  -18.2766   28.6856 O   0  0  0  0  0  0  0  0  0  0  0  0
  2  3  1  0
  2  1  1  0
  4  5  1  0
  4  3  1  0
  5  6  1  1
  7  8  2  0
  7  5  1  0
  9  7  1  0
 10 11  1  1
 10  9  1  0
 11 12  1  0
 12 13  1  0
 13 14  1  0
 14 15  1  0
 16 10  1  0
 17 16  2  0
 19 18  1  6
 19 20  1  0
 20 16  1  0
 21 19  1  0
 21 23  1  0
 22 21  2  0
M  END
$$$$
