MKA.pdb
     RDKit          3D

 23 22  0  0  1  0  0  0  0  0999 V2000
    6.9356  -11.1877   26.8879 C   0  0  0  0  0  0  0  0  0  0  0  0
    6.9503  -12.6934   27.8471 S   0  0  0  0  0  0  0  0  0  0  0  0
    6.4884  -14.1571   26.9361 C   0  0  0  0  0  0  0  0  0  0  0  0
    7.1583  -14.2826   25.6070 C   0  0  0  0  0  0  0  0  0  0  0  0
    6.6540  -15.5055   24.8538 C   0  0  2  0  0  0  0  0  0  0  0  0
    6.9216  -16.7235   25.5505 N   0  0  0  0  0  0  0  0  0  0  0  0
    7.2070  -15.5717   23.4838 C   0  0  0  0  0  0  0  0  0  0  0  0
    7.4432  -16.7080   22.9852 O   0  0  0  0  0  0  0  0  0  0  0  0
    7.4772  -14.3871   22.7184 N   0  0  0  0  0  0  0  0  0  0  0  0
    8.0069  -14.4861   21.3991 C   0  0  1  0  0  0  0  0  0  0  0  0
    8.0989  -13.1006   20.7858 C   0  0  0  0  0  0  0  0  0  0  0  0
    7.6481  -13.1143   19.3386 C   0  0  0  0  0  0  0  0  0  0  0  0
    8.5037  -13.9959   18.4868 C   0  0  0  0  0  0  0  0  0  0  0  0
    7.9521  -14.0093   17.0871 C   0  0  0  0  0  0  0  0  0  0  0  0
    8.7221  -14.8444   16.1981 N   0  0  0  0  0  0  0  0  0  0  0  0
    9.3545  -15.1143   21.3538 C   0  0  0  0  0  0  0  0  0  0  0  0
    9.8582  -15.4320   20.2454 O   0  0  0  0  0  0  0  0  0  0  0  0
   12.4140  -15.4627   23.4503 C   0  0  0  0  0  0  0  0  0  0  0  0
   11.4614  -16.0066   22.4029 C   0  0  2  0  0  0  0  0  0  0  0  0
   10.1408  -15.3916   22.5069 N   0  0  0  0  0  0  0  0  0  0  0  0
   11.3110  -17.4720   22.4696 C   0  0  0  0  0  0  0  0  0  0  0  0
   10.2059  -18.0412   22.6614 O   0  0  0  0  0  0  0  0  0  0  0  0
   12.4162  -18.2963   22.3189 O   0  0  0  0  0  0  0  0  0  0  0  0
  2  3  1  0
  2  1  1  0
  4  5  1  0
  4  3  1  0
  5  6  1  1
  7  8  2  0
  7  5  1  0
  9  7  1  0
 10 11  1  1
 10  9  1  0
 11 12  1  0
 12 13  1  0
 13 14  1  0
 14 15  1  0
 16 10  1  0
 17 16  2  0
 19 18  1  1
 19 20  1  0
 20 16  1  0
 21 19  1  0
 21 23  1  0
 22 21  2  0
M  END
$$$$
