MKA.pdb
     RDKit          3D

 23 22  0  0  1  0  0  0  0  0999 V2000
    5.9328  -11.5901   27.3546 C   0  0  0  0  0  0  0  0  0  0  0  0
    7.3621  -12.5384   27.8500 S   0  0  0  0  0  0  0  0  0  0  0  0
    7.3695  -14.2260   27.2690 C   0  0  0  0  0  0  0  0  0  0  0  0
    6.4702  -14.4712   26.1019 C   0  0  0  0  0  0  0  0  0  0  0  0
    6.5086  -15.9331   25.6795 C   0  0  2  0  0  0  0  0  0  0  0  0
    7.0142  -16.7848   26.7089 N   0  0  0  0  0  0  0  0  0  0  0  0
    7.2850  -16.1237   24.4353 C   0  0  0  0  0  0  0  0  0  0  0  0
    7.9875  -17.1671   24.3189 O   0  0  0  0  0  0  0  0  0  0  0  0
    7.2572  -15.1604   23.3706 N   0  0  0  0  0  0  0  0  0  0  0  0
    8.0351  -15.3635   22.1939 C   0  0  1  0  0  0  0  0  0  0  0  0
    7.7933  -14.2208   21.2244 C   0  0  0  0  0  0  0  0  0  0  0  0
    8.5062  -14.4624   19.9086 C   0  0  0  0  0  0  0  0  0  0  0  0
    8.1193  -13.4662   18.8632 C   0  0  0  0  0  0  0  0  0  0  0  0
    8.6105  -13.9455   17.5244 C   0  0  0  0  0  0  0  0  0  0  0  0
    8.2262  -13.0658   16.4478 N   0  0  0  0  0  0  0  0  0  0  0  0
    9.4950  -15.4541   22.4643 C   0  0  0  0  0  0  0  0  0  0  0  0
   10.0552  -14.5744   23.1682 O   0  0  0  0  0  0  0  0  0  0  0  0
   12.2121  -17.9556   22.5939 C   0  0  0  0  0  0  0  0  0  0  0  0
   11.7572  -16.5426   22.2823 C   0  0  2  0  0  0  0  0  0  0  0  0
   10.3313  -16.4940   21.9703 N   0  0  0  0  0  0  0  0  0  0  0  0
   12.5091  -15.9294   21.1718 C   0  0  0  0  0  0  0  0  0  0  0  0
   12.0235  -15.7610   20.0239 O   0  0  0  0  0  0  0  0  0  0  0  0
   13.8159  -15.5056   21.3616 O   0  0  0  0  0  0  0  0  0  0  0  0
  2  3  1  0
  2  1  1  0
  4  5  1  0
  4  3  1  0
  5  6  1  1
  7  8  2  0
  7  5  1  0
  9  7  1  0
 10 11  1  6
 10  9  1  0
 11 12  1  0
 12 13  1  0
 13 14  1  0
 14 15  1  0
 16 10  1  0
 17 16  2  0
 19 18  1  6
 19 20  1  0
 20 16  1  0
 21 19  1  0
 21 23  1  0
 22 21  2  0
M  END
$$$$
