MKA.pdb
     RDKit          3D

 23 22  0  0  1  0  0  0  0  0999 V2000
    5.6149  -11.3606   26.4082 C   0  0  0  0  0  0  0  0  0  0  0  0
    6.3286  -12.4013   27.6710 S   0  0  0  0  0  0  0  0  0  0  0  0
    6.9766  -13.9534   27.0736 C   0  0  0  0  0  0  0  0  0  0  0  0
    6.1838  -14.5546   25.9595 C   0  0  0  0  0  0  0  0  0  0  0  0
    6.8180  -15.8507   25.4745 C   0  0  2  0  0  0  0  0  0  0  0  0
    7.9871  -16.1973   26.2186 N   0  0  0  0  0  0  0  0  0  0  0  0
    7.1314  -15.8004   24.0301 C   0  0  0  0  0  0  0  0  0  0  0  0
    6.7220  -16.7411   23.2930 O   0  0  0  0  0  0  0  0  0  0  0  0
    7.8812  -14.7189   23.4552 N   0  0  0  0  0  0  0  0  0  0  0  0
    8.3362  -14.7935   22.1068 C   0  0  1  0  0  0  0  0  0  0  0  0
    8.3475  -13.4025   21.4993 C   0  0  0  0  0  0  0  0  0  0  0  0
    8.9588  -13.4186   20.1122 C   0  0  0  0  0  0  0  0  0  0  0  0
    7.9244  -13.3341   19.0361 C   0  0  0  0  0  0  0  0  0  0  0  0
    8.6023  -13.4318   17.6965 C   0  0  0  0  0  0  0  0  0  0  0  0
    7.6634  -13.4371   16.6015 N   0  0  0  0  0  0  0  0  0  0  0  0
    9.6985  -15.3771   21.9789 C   0  0  0  0  0  0  0  0  0  0  0  0
   10.2407  -15.4543   20.8461 O   0  0  0  0  0  0  0  0  0  0  0  0
   12.6861  -16.2663   24.0462 C   0  0  0  0  0  0  0  0  0  0  0  0
   11.7488  -16.5244   22.8820 C   0  0  2  0  0  0  0  0  0  0  0  0
   10.4577  -15.8701   23.0768 N   0  0  0  0  0  0  0  0  0  0  0  0
   11.5227  -17.9604   22.6347 C   0  0  0  0  0  0  0  0  0  0  0  0
   10.3945  -18.5063   22.7400 O   0  0  0  0  0  0  0  0  0  0  0  0
   12.5781  -18.7818   22.2672 O   0  0  0  0  0  0  0  0  0  0  0  0
  2  3  1  0
  2  1  1  0
  4  5  1  0
  4  3  1  0
  5  6  1  1
  7  8  2  0
  7  5  1  0
  9  7  1  0
 10 11  1  1
 10  9  1  0
 11 12  1  0
 12 13  1  0
 13 14  1  0
 14 15  1  0
 16 10  1  0
 17 16  2  0
 19 18  1  1
 19 20  1  0
 20 16  1  0
 21 19  1  0
 21 23  1  0
 22 21  2  0
M  END
$$$$
