MKA.pdb
     RDKit          3D

 23 22  0  0  1  0  0  0  0  0999 V2000
    8.6676  -12.2123   18.4350 C   0  0  0  0  0  0  0  0  0  0  0  0
    8.0868  -12.5425   20.0906 S   0  0  0  0  0  0  0  0  0  0  0  0
    7.4299  -14.1845   20.3319 C   0  0  0  0  0  0  0  0  0  0  0  0
    7.0901  -14.5007   21.7516 C   0  0  0  0  0  0  0  0  0  0  0  0
    6.7421  -15.9736   21.9155 C   0  0  2  0  0  0  0  0  0  0  0  0
    5.4717  -16.2998   21.3495 N   0  0  0  0  0  0  0  0  0  0  0  0
    6.7898  -16.3934   23.3328 C   0  0  0  0  0  0  0  0  0  0  0  0
    5.8260  -16.0779   24.0860 O   0  0  0  0  0  0  0  0  0  0  0  0
    7.8940  -17.1425   23.8637 N   0  0  0  0  0  0  0  0  0  0  0  0
    8.0264  -17.3334   25.2697 C   0  0  1  0  0  0  0  0  0  0  0  0
    8.5330  -18.7378   25.5438 C   0  0  0  0  0  0  0  0  0  0  0  0
    7.5283  -19.7779   25.0894 C   0  0  0  0  0  0  0  0  0  0  0  0
    6.8465  -20.4476   26.2391 C   0  0  0  0  0  0  0  0  0  0  0  0
    5.9831  -21.5625   25.7145 C   0  0  0  0  0  0  0  0  0  0  0  0
    6.7412  -22.7512   25.4093 N   0  0  0  0  0  0  0  0  0  0  0  0
    8.9543  -16.3622   25.9088 C   0  0  0  0  0  0  0  0  0  0  0  0
   10.1216  -16.2258   25.4596 O   0  0  0  0  0  0  0  0  0  0  0  0
    8.9699  -13.3545   28.0788 C   0  0  0  0  0  0  0  0  0  0  0  0
    9.5875  -14.6778   27.6688 C   0  0  2  0  0  0  0  0  0  0  0  0
    8.6091  -15.5507   27.0255 N   0  0  0  0  0  0  0  0  0  0  0  0
   10.1999  -15.4001   28.7991 C   0  0  0  0  0  0  0  0  0  0  0  0
    9.7990  -16.5251   29.1936 O   0  0  0  0  0  0  0  0  0  0  0  0
   11.2700  -14.8462   29.4860 O   0  0  0  0  0  0  0  0  0  0  0  0
  2  3  1  0
  2  1  1  0
  4  5  1  0
  4  3  1  0
  5  6  1  1
  7  8  2  0
  7  5  1  0
  9  7  1  0
 10 11  1  6
 10  9  1  0
 11 12  1  0
 12 13  1  0
 13 14  1  0
 14 15  1  0
 16 10  1  0
 17 16  2  0
 19 18  1  1
 19 20  1  0
 20 16  1  0
 21 19  1  0
 21 23  1  0
 22 21  2  0
M  END
$$$$
