MKA.pdb
     RDKit          3D

 23 22  0  0  1  0  0  0  0  0999 V2000
    5.7940  -11.2872   26.2033 C   0  0  0  0  0  0  0  0  0  0  0  0
    6.8184  -12.2389   27.3134 S   0  0  0  0  0  0  0  0  0  0  0  0
    7.7572  -13.5369   26.5263 C   0  0  0  0  0  0  0  0  0  0  0  0
    7.1259  -14.8873   26.6217 C   0  0  0  0  0  0  0  0  0  0  0  0
    6.4769  -15.2819   25.3025 C   0  0  2  0  0  0  0  0  0  0  0  0
    5.4421  -16.2518   25.4727 N   0  0  0  0  0  0  0  0  0  0  0  0
    7.4744  -15.7692   24.3254 C   0  0  0  0  0  0  0  0  0  0  0  0
    7.8965  -16.9545   24.4376 O   0  0  0  0  0  0  0  0  0  0  0  0
    7.9666  -14.9344   23.2656 N   0  0  0  0  0  0  0  0  0  0  0  0
    8.9123  -15.4418   22.3279 C   0  0  1  0  0  0  0  0  0  0  0  0
    9.2062  -14.3816   21.2822 C   0  0  0  0  0  0  0  0  0  0  0  0
    8.0988  -14.3132   20.2492 C   0  0  0  0  0  0  0  0  0  0  0  0
    8.5364  -13.6297   18.9937 C   0  0  0  0  0  0  0  0  0  0  0  0
    7.4032  -13.6508   18.0042 C   0  0  0  0  0  0  0  0  0  0  0  0
    7.7833  -13.1202   16.7179 N   0  0  0  0  0  0  0  0  0  0  0  0
   10.1956  -15.8567   22.9552 C   0  0  0  0  0  0  0  0  0  0  0  0
   10.8865  -15.0116   23.5809 O   0  0  0  0  0  0  0  0  0  0  0  0
   12.1268  -19.0335   23.6965 C   0  0  0  0  0  0  0  0  0  0  0  0
   11.9819  -17.5322   23.5364 C   0  0  2  0  0  0  0  0  0  0  0  0
   10.7163  -17.1798   22.8983 N   0  0  0  0  0  0  0  0  0  0  0  0
   13.0868  -16.9275   22.7695 C   0  0  0  0  0  0  0  0  0  0  0  0
   13.0434  -16.7518   21.5248 O   0  0  0  0  0  0  0  0  0  0  0  0
   14.2454  -16.5207   23.4141 O   0  0  0  0  0  0  0  0  0  0  0  0
  2  3  1  0
  2  1  1  0
  4  5  1  0
  4  3  1  0
  5  6  1  1
  7  8  2  0
  7  5  1  0
  9  7  1  0
 10 11  1  6
 10  9  1  0
 11 12  1  0
 12 13  1  0
 13 14  1  0
 14 15  1  0
 16 10  1  0
 17 16  2  0
 19 18  1  6
 19 20  1  0
 20 16  1  0
 21 19  1  0
 21 23  1  0
 22 21  2  0
M  END
$$$$
