MKA.pdb
     RDKit          3D

 23 22  0  0  1  0  0  0  0  0999 V2000
    7.4523  -11.1051   27.1357 C   0  0  0  0  0  0  0  0  0  0  0  0
    6.5082  -12.2387   28.1412 S   0  0  0  0  0  0  0  0  0  0  0  0
    6.0152  -13.7367   27.3055 C   0  0  0  0  0  0  0  0  0  0  0  0
    6.9381  -14.1519   26.2069 C   0  0  0  0  0  0  0  0  0  0  0  0
    6.4258  -15.4020   25.5055 C   0  0  2  0  0  0  0  0  0  0  0  0
    6.3824  -16.5353   26.3740 N   0  0  0  0  0  0  0  0  0  0  0  0
    7.2197  -15.7171   24.2982 C   0  0  0  0  0  0  0  0  0  0  0  0
    7.9259  -16.7645   24.2995 O   0  0  0  0  0  0  0  0  0  0  0  0
    7.2047  -14.8688   23.1395 N   0  0  0  0  0  0  0  0  0  0  0  0
    7.9737  -15.2068   21.9883 C   0  0  1  0  0  0  0  0  0  0  0  0
    7.7836  -14.1424   20.9229 C   0  0  0  0  0  0  0  0  0  0  0  0
    8.4582  -14.5431   19.6259 C   0  0  0  0  0  0  0  0  0  0  0  0
    8.1480  -13.5976   18.5101 C   0  0  0  0  0  0  0  0  0  0  0  0
    8.7579  -14.1230   17.2392 C   0  0  0  0  0  0  0  0  0  0  0  0
    8.4981  -13.2676   16.1071 N   0  0  0  0  0  0  0  0  0  0  0  0
    9.4280  -15.3380   22.2722 C   0  0  0  0  0  0  0  0  0  0  0  0
   10.0421  -14.3940   22.8333 O   0  0  0  0  0  0  0  0  0  0  0  0
   12.0423  -18.0226   22.5064 C   0  0  0  0  0  0  0  0  0  0  0  0
   11.6157  -16.5827   22.2937 C   0  0  2  0  0  0  0  0  0  0  0  0
   10.2003  -16.4877   21.9460 N   0  0  0  0  0  0  0  0  0  0  0  0
   12.4081  -15.8965   21.2566 C   0  0  0  0  0  0  0  0  0  0  0  0
   11.9750  -15.6724   20.0972 O   0  0  0  0  0  0  0  0  0  0  0  0
   13.6961  -15.4628   21.5329 O   0  0  0  0  0  0  0  0  0  0  0  0
  2  3  1  0
  2  1  1  0
  4  5  1  0
  4  3  1  0
  5  6  1  1
  7  8  2  0
  7  5  1  0
  9  7  1  0
 10 11  1  6
 10  9  1  0
 11 12  1  0
 12 13  1  0
 13 14  1  0
 14 15  1  0
 16 10  1  0
 17 16  2  0
 19 18  1  6
 19 20  1  0
 20 16  1  0
 21 19  1  0
 21 23  1  0
 22 21  2  0
M  END
$$$$
