MKA.pdb
     RDKit          3D

 23 22  0  0  1  0  0  0  0  0999 V2000
    5.3852  -11.8684   27.2195 C   0  0  0  0  0  0  0  0  0  0  0  0
    7.1467  -11.8359   27.5089 S   0  0  0  0  0  0  0  0  0  0  0  0
    8.0416  -13.2014   26.7878 C   0  0  0  0  0  0  0  0  0  0  0  0
    7.1697  -14.2189   26.1277 C   0  0  0  0  0  0  0  0  0  0  0  0
    8.0001  -15.2214   25.3387 C   0  0  2  0  0  0  0  0  0  0  0  0
    9.4017  -14.9616   25.4320 N   0  0  0  0  0  0  0  0  0  0  0  0
    7.5873  -15.2785   23.9197 C   0  0  0  0  0  0  0  0  0  0  0  0
    6.4921  -15.8396   23.6344 O   0  0  0  0  0  0  0  0  0  0  0  0
    8.3945  -14.7166   22.8732 N   0  0  0  0  0  0  0  0  0  0  0  0
    7.9699  -14.7933   21.5150 C   0  0  1  0  0  0  0  0  0  0  0  0
    8.2791  -13.4830   20.8138 C   0  0  0  0  0  0  0  0  0  0  0  0
    7.6453  -13.4386   19.4375 C   0  0  0  0  0  0  0  0  0  0  0  0
    8.6557  -13.5720   18.3437 C   0  0  0  0  0  0  0  0  0  0  0  0
    7.9482  -13.5356   17.0165 C   0  0  0  0  0  0  0  0  0  0  0  0
    8.8542  -13.6813   15.9035 N   0  0  0  0  0  0  0  0  0  0  0  0
    8.6177  -15.8989   20.7595 C   0  0  0  0  0  0  0  0  0  0  0  0
    8.1718  -16.2280   19.6299 O   0  0  0  0  0  0  0  0  0  0  0  0
   11.7481  -17.4331   20.0555 C   0  0  0  0  0  0  0  0  0  0  0  0
   10.3175  -17.7312   20.4618 C   0  0  2  0  0  0  0  0  0  0  0  0
    9.7391  -16.6350   21.2342 N   0  0  0  0  0  0  0  0  0  0  0  0
   10.1892  -18.9795   21.2364 C   0  0  0  0  0  0  0  0  0  0  0  0
    9.7409  -19.0160   22.4110 O   0  0  0  0  0  0  0  0  0  0  0  0
   10.5702  -20.1910   20.6792 O   0  0  0  0  0  0  0  0  0  0  0  0
  2  3  1  0
  2  1  1  0
  4  5  1  0
  4  3  1  0
  5  6  1  6
  7  8  2  0
  7  5  1  0
  9  7  1  0
 10 11  1  6
 10  9  1  0
 11 12  1  0
 12 13  1  0
 13 14  1  0
 14 15  1  0
 16 10  1  0
 17 16  2  0
 19 18  1  1
 19 20  1  0
 20 16  1  0
 21 19  1  0
 21 23  1  0
 22 21  2  0
M  END
$$$$
