MKA.pdb
     RDKit          3D

 23 22  0  0  1  0  0  0  0  0999 V2000
    6.5071  -12.3823   19.6412 C   0  0  0  0  0  0  0  0  0  0  0  0
    7.9324  -12.7385   18.6267 S   0  0  0  0  0  0  0  0  0  0  0  0
    9.1149  -13.8477   19.3730 C   0  0  0  0  0  0  0  0  0  0  0  0
    8.7487  -14.2882   20.7525 C   0  0  0  0  0  0  0  0  0  0  0  0
    9.8853  -15.0691   21.3970 C   0  0  2  0  0  0  0  0  0  0  0  0
   10.2784  -16.2012   20.6195 N   0  0  0  0  0  0  0  0  0  0  0  0
    9.5488  -15.4905   22.7741 C   0  0  0  0  0  0  0  0  0  0  0  0
    9.1334  -14.6162   23.5857 O   0  0  0  0  0  0  0  0  0  0  0  0
    9.6823  -16.8547   23.2023 N   0  0  0  0  0  0  0  0  0  0  0  0
    9.5351  -17.1964   24.5780 C   0  0  1  0  0  0  0  0  0  0  0  0
   10.1633  -18.5548   24.8316 C   0  0  0  0  0  0  0  0  0  0  0  0
   10.0325  -18.9522   26.2886 C   0  0  0  0  0  0  0  0  0  0  0  0
   10.5345  -20.3367   26.5456 C   0  0  0  0  0  0  0  0  0  0  0  0
   10.3987  -20.6424   28.0124 C   0  0  0  0  0  0  0  0  0  0  0  0
   10.6923  -22.0211   28.3187 N   0  0  0  0  0  0  0  0  0  0  0  0
   10.1583  -16.2074   25.4979 C   0  0  0  0  0  0  0  0  0  0  0  0
   11.3575  -15.8665   25.3284 O   0  0  0  0  0  0  0  0  0  0  0  0
    9.3869  -13.4446   27.7775 C   0  0  0  0  0  0  0  0  0  0  0  0
   10.1692  -14.7199   27.5284 C   0  0  2  0  0  0  0  0  0  0  0  0
    9.4777  -15.5994   26.5896 N   0  0  0  0  0  0  0  0  0  0  0  0
   10.4514  -15.4711   28.7656 C   0  0  0  0  0  0  0  0  0  0  0  0
   10.0131  -16.6303   28.9804 O   0  0  0  0  0  0  0  0  0  0  0  0
   11.2323  -14.9075   29.7636 O   0  0  0  0  0  0  0  0  0  0  0  0
  2  3  1  0
  2  1  1  0
  4  5  1  0
  4  3  1  0
  5  6  1  6
  7  8  2  0
  7  5  1  0
  9  7  1  0
 10 11  1  6
 10  9  1  0
 11 12  1  0
 12 13  1  0
 13 14  1  0
 14 15  1  0
 16 10  1  0
 17 16  2  0
 19 18  1  1
 19 20  1  0
 20 16  1  0
 21 19  1  0
 21 23  1  0
 22 21  2  0
M  END
$$$$
