MKA.pdb
     RDKit          3D

 23 22  0  0  1  0  0  0  0  0999 V2000
    7.8827  -12.1703   28.4837 C   0  0  0  0  0  0  0  0  0  0  0  0
    6.2988  -11.9809   27.6820 S   0  0  0  0  0  0  0  0  0  0  0  0
    5.7605  -13.4095   26.7573 C   0  0  0  0  0  0  0  0  0  0  0  0
    6.8078  -13.9825   25.8595 C   0  0  0  0  0  0  0  0  0  0  0  0
    6.2874  -15.2113   25.1271 C   0  0  2  0  0  0  0  0  0  0  0  0
    6.1151  -16.3318   25.9962 N   0  0  0  0  0  0  0  0  0  0  0  0
    7.1571  -15.5799   23.9891 C   0  0  0  0  0  0  0  0  0  0  0  0
    7.6491  -16.7430   23.9606 O   0  0  0  0  0  0  0  0  0  0  0  0
    7.4499  -14.6558   22.9296 N   0  0  0  0  0  0  0  0  0  0  0  0
    8.1681  -15.0851   21.7761 C   0  0  1  0  0  0  0  0  0  0  0  0
    8.1633  -13.9790   20.7366 C   0  0  0  0  0  0  0  0  0  0  0  0
    8.8071  -14.4423   19.4448 C   0  0  0  0  0  0  0  0  0  0  0  0
    8.2627  -13.7253   18.2513 C   0  0  0  0  0  0  0  0  0  0  0  0
    8.7878  -14.3821   17.0038 C   0  0  0  0  0  0  0  0  0  0  0  0
    8.3160  -13.7403   15.8012 N   0  0  0  0  0  0  0  0  0  0  0  0
    9.5792  -15.4547   22.0676 C   0  0  0  0  0  0  0  0  0  0  0  0
   10.3052  -14.6709   22.7323 O   0  0  0  0  0  0  0  0  0  0  0  0
   11.8871  -18.4483   21.6775 C   0  0  0  0  0  0  0  0  0  0  0  0
   11.5643  -17.0006   21.9944 C   0  0  2  0  0  0  0  0  0  0  0  0
   10.1881  -16.6666   21.6371 N   0  0  0  0  0  0  0  0  0  0  0  0
   12.4737  -16.0506   21.3274 C   0  0  0  0  0  0  0  0  0  0  0  0
   13.4804  -15.5513   21.8923 O   0  0  0  0  0  0  0  0  0  0  0  0
   12.2421  -15.6639   20.0158 O   0  0  0  0  0  0  0  0  0  0  0  0
  2  3  1  0
  2  1  1  0
  4  5  1  0
  4  3  1  0
  5  6  1  1
  7  8  2  0
  7  5  1  0
  9  7  1  0
 10 11  1  6
 10  9  1  0
 11 12  1  0
 12 13  1  0
 13 14  1  0
 14 15  1  0
 16 10  1  0
 17 16  2  0
 19 18  1  6
 19 20  1  0
 20 16  1  0
 21 19  1  0
 21 23  1  0
 22 21  2  0
M  END
$$$$
