MKA.pdb
     RDKit          3D

 23 22  0  0  1  0  0  0  0  0999 V2000
    7.3645  -11.4489   20.6637 C   0  0  0  0  0  0  0  0  0  0  0  0
    8.1073  -12.4715   19.4028 S   0  0  0  0  0  0  0  0  0  0  0  0
    7.5737  -14.1746   19.4202 C   0  0  0  0  0  0  0  0  0  0  0  0
    7.4930  -14.7725   20.7866 C   0  0  0  0  0  0  0  0  0  0  0  0
    8.8697  -15.1932   21.2816 C   0  0  2  0  0  0  0  0  0  0  0  0
    9.5067  -16.1189   20.3996 N   0  0  0  0  0  0  0  0  0  0  0  0
    8.8129  -15.7517   22.6498 C   0  0  0  0  0  0  0  0  0  0  0  0
    7.8516  -15.4153   23.3970 O   0  0  0  0  0  0  0  0  0  0  0  0
    9.8143  -16.6566   23.1402 N   0  0  0  0  0  0  0  0  0  0  0  0
    9.7771  -17.1104   24.4907 C   0  0  1  0  0  0  0  0  0  0  0  0
   10.6752  -18.3248   24.6410 C   0  0  0  0  0  0  0  0  0  0  0  0
   10.2294  -19.4488   23.7268 C   0  0  0  0  0  0  0  0  0  0  0  0
   11.1522  -20.6238   23.7817 C   0  0  0  0  0  0  0  0  0  0  0  0
   11.1412  -21.3179   22.4469 C   0  0  0  0  0  0  0  0  0  0  0  0
   12.0517  -22.4357   22.3983 N   0  0  0  0  0  0  0  0  0  0  0  0
   10.2105  -16.0770   25.4689 C   0  0  0  0  0  0  0  0  0  0  0  0
   11.3722  -15.5988   25.3981 O   0  0  0  0  0  0  0  0  0  0  0  0
    8.8598  -13.4831   27.7027 C   0  0  0  0  0  0  0  0  0  0  0  0
    9.8745  -14.5860   27.4688 C   0  0  2  0  0  0  0  0  0  0  0  0
    9.3832  -15.5734   26.5113 N   0  0  0  0  0  0  0  0  0  0  0  0
   10.2649  -15.2794   28.7103 C   0  0  0  0  0  0  0  0  0  0  0  0
   10.0143  -16.4926   28.9274 O   0  0  0  0  0  0  0  0  0  0  0  0
   10.9412  -14.5964   29.7101 O   0  0  0  0  0  0  0  0  0  0  0  0
  2  3  1  0
  2  1  1  0
  4  5  1  0
  4  3  1  0
  5  6  1  6
  7  8  2  0
  7  5  1  0
  9  7  1  0
 10 11  1  6
 10  9  1  0
 11 12  1  0
 12 13  1  0
 13 14  1  0
 14 15  1  0
 16 10  1  0
 17 16  2  0
 19 18  1  1
 19 20  1  0
 20 16  1  0
 21 19  1  0
 21 23  1  0
 22 21  2  0
M  END
$$$$
