MKA.pdb
     RDKit          3D

 23 22  0  0  1  0  0  0  0  0999 V2000
    8.3036  -11.6010   20.8101 C   0  0  0  0  0  0  0  0  0  0  0  0
    7.6851  -11.4911   19.1389 S   0  0  0  0  0  0  0  0  0  0  0  0
    8.1215  -12.8713   18.0948 C   0  0  0  0  0  0  0  0  0  0  0  0
    8.1547  -14.1846   18.8055 C   0  0  0  0  0  0  0  0  0  0  0  0
    8.6538  -15.2911   17.8869 C   0  0  2  0  0  0  0  0  0  0  0  0
    7.7338  -15.5814   16.8334 N   0  0  0  0  0  0  0  0  0  0  0  0
    8.9722  -16.5247   18.6379 C   0  0  0  0  0  0  0  0  0  0  0  0
    8.0246  -17.2988   18.9519 O   0  0  0  0  0  0  0  0  0  0  0  0
   10.3182  -16.8568   19.0126 N   0  0  0  0  0  0  0  0  0  0  0  0
   10.5717  -17.9326   19.9123 C   0  0  1  0  0  0  0  0  0  0  0  0
   11.4323  -18.9759   19.2232 C   0  0  0  0  0  0  0  0  0  0  0  0
   10.6746  -19.6493   18.0961 C   0  0  0  0  0  0  0  0  0  0  0  0
   11.4824  -20.7148   17.4274 C   0  0  0  0  0  0  0  0  0  0  0  0
   10.6384  -21.3816   16.3755 C   0  0  0  0  0  0  0  0  0  0  0  0
   11.3636  -22.3914   15.6439 N   0  0  0  0  0  0  0  0  0  0  0  0
   11.2566  -17.5037   21.1612 C   0  0  0  0  0  0  0  0  0  0  0  0
   12.1512  -16.6204   21.1107 O   0  0  0  0  0  0  0  0  0  0  0  0
   10.9039  -17.9333   24.9082 C   0  0  0  0  0  0  0  0  0  0  0  0
   11.6575  -17.5621   23.6454 C   0  0  2  0  0  0  0  0  0  0  0  0
   10.9662  -18.0349   22.4489 N   0  0  0  0  0  0  0  0  0  0  0  0
   13.0402  -18.0747   23.6306 C   0  0  0  0  0  0  0  0  0  0  0  0
   13.3657  -19.1569   23.0787 O   0  0  0  0  0  0  0  0  0  0  0  0
   14.0581  -17.3593   24.2435 O   0  0  0  0  0  0  0  0  0  0  0  0
  2  3  1  0
  2  1  1  0
  4  5  1  0
  4  3  1  0
  5  6  1  6
  7  8  2  0
  7  5  1  0
  9  7  1  0
 10 11  1  6
 10  9  1  0
 11 12  1  0
 12 13  1  0
 13 14  1  0
 14 15  1  0
 16 10  1  0
 17 16  2  0
 19 18  1  1
 19 20  1  0
 20 16  1  0
 21 19  1  0
 21 23  1  0
 22 21  2  0
M  END
$$$$
