MKA.pdb
     RDKit          3D

 23 22  0  0  1  0  0  0  0  0999 V2000
    7.4929  -11.6556   20.2057 C   0  0  0  0  0  0  0  0  0  0  0  0
    8.5158  -12.4983   19.0095 S   0  0  0  0  0  0  0  0  0  0  0  0
    8.6721  -14.2563   19.2754 C   0  0  0  0  0  0  0  0  0  0  0  0
    8.5849  -14.6644   20.7096 C   0  0  0  0  0  0  0  0  0  0  0  0
    8.6786  -16.1768   20.8545 C   0  0  2  0  0  0  0  0  0  0  0  0
    7.6520  -16.8583   20.1318 N   0  0  0  0  0  0  0  0  0  0  0  0
    8.6632  -16.5933   22.2734 C   0  0  0  0  0  0  0  0  0  0  0  0
    7.5488  -16.8342   22.8172 O   0  0  0  0  0  0  0  0  0  0  0  0
    9.8726  -16.7280   23.0361 N   0  0  0  0  0  0  0  0  0  0  0  0
    9.8172  -17.0072   24.4325 C   0  0  1  0  0  0  0  0  0  0  0  0
   10.9246  -17.9789   24.7981 C   0  0  0  0  0  0  0  0  0  0  0  0
   10.8931  -18.3095   26.2771 C   0  0  0  0  0  0  0  0  0  0  0  0
   12.0167  -19.2094   26.6807 C   0  0  0  0  0  0  0  0  0  0  0  0
   11.9105  -19.4947   28.1541 C   0  0  0  0  0  0  0  0  0  0  0  0
   13.0154  -20.2814   28.6452 N   0  0  0  0  0  0  0  0  0  0  0  0
    9.9547  -15.7922   25.2795 C   0  0  0  0  0  0  0  0  0  0  0  0
   10.9636  -15.0517   25.1498 O   0  0  0  0  0  0  0  0  0  0  0  0
    7.8274  -13.4177   27.1431 C   0  0  0  0  0  0  0  0  0  0  0  0
    9.1490  -14.1496   27.0082 C   0  0  2  0  0  0  0  0  0  0  0  0
    9.0001  -15.3928   26.2563 N   0  0  0  0  0  0  0  0  0  0  0  0
    9.7732  -14.4518   28.3097 C   0  0  0  0  0  0  0  0  0  0  0  0
   10.0946  -13.5636   29.1402 O   0  0  0  0  0  0  0  0  0  0  0  0
   10.0349  -15.7647   28.6720 O   0  0  0  0  0  0  0  0  0  0  0  0
  2  3  1  0
  2  1  1  0
  4  5  1  0
  4  3  1  0
  5  6  1  6
  7  8  2  0
  7  5  1  0
  9  7  1  0
 10 11  1  1
 10  9  1  0
 11 12  1  0
 12 13  1  0
 13 14  1  0
 14 15  1  0
 16 10  1  0
 17 16  2  0
 19 18  1  1
 19 20  1  0
 20 16  1  0
 21 19  1  0
 21 23  1  0
 22 21  2  0
M  END
$$$$
