HQS.pdb
     RDKit          3D

 26 26  0  0  1  0  0  0  0  0999 V2000
   17.2310  -10.6153  -14.7383 N   0  0  0  0  0  0  0  0  0  0  0  0
   18.3201  -10.3460  -15.6232 C   0  0  1  0  0  0  0  0  0  0  0  0
   17.7836   -9.5584  -16.8079 C   0  0  0  0  0  0  0  0  0  0  0  0
   16.8900  -10.4263  -17.6084 C   0  0  0  0  0  0  0  0  0  0  0  0
   17.1873  -10.9753  -18.8269 C   0  0  0  0  0  0  0  0  0  0  0  0
   16.1115  -11.6947  -19.2137 N   0  0  0  0  0  0  0  0  0  0  0  0
   15.1589  -11.6140  -18.2843 C   0  0  0  0  0  0  0  0  0  0  0  0
   15.6466  -10.8240  -17.2868 N   0  0  0  0  0  0  0  0  0  0  0  0
   19.3791   -9.5113  -14.9914 C   0  0  0  0  0  0  0  0  0  0  0  0
   19.0591   -8.5920  -14.1954 O   0  0  0  0  0  0  0  0  0  0  0  0
   25.6871  -10.3722  -15.1060 N   0  0  0  0  0  0  0  0  0  0  0  0
   24.8727  -10.3463  -16.2675 C   0  0  0  0  0  0  0  0  0  0  0  0
   25.3861  -10.7677  -17.3344 O   0  0  0  0  0  0  0  0  0  0  0  0
   23.5057   -9.8367  -16.1478 C   0  0  0  0  0  0  0  0  0  0  0  0
   23.1451   -9.4209  -14.7466 C   0  0  0  0  0  0  0  0  0  0  0  0
   21.7637   -8.7963  -14.7263 C   0  0  2  0  0  0  0  0  0  0  0  0
   20.7636   -9.7004  -15.2440 N   0  0  0  0  0  0  0  0  0  0  0  0
   21.7462   -7.4881  -15.4332 C   0  0  0  0  0  0  0  0  0  0  0  0
   21.5677   -7.4255  -16.6759 O   0  0  0  0  0  0  0  0  0  0  0  0
   20.2927   -3.2506  -15.9875 O   0  0  0  0  0  0  0  0  0  0  0  0
   20.4391   -4.4962  -15.3992 C   0  0  0  0  0  0  0  0  0  0  0  0
   21.8495   -5.0073  -15.4829 C   0  0  2  0  0  0  0  0  0  0  0  0
   21.9281   -6.2550  -14.7499 N   0  0  0  0  0  0  0  0  0  0  0  0
   22.8367   -4.0170  -14.9817 C   0  0  0  0  0  0  0  0  0  0  0  0
   23.4682   -3.2011  -15.9090 O   0  0  0  0  0  0  0  0  0  0  0  0
   23.1204   -3.8868  -13.7815 O   0  0  0  0  0  0  0  0  0  0  0  0
  2  1  1  1
  3  2  1  0
  4  3  1  0
  5  4  2  0
  6  5  1  0
  7  6  1  0
  7  8  2  0
  8  4  1  0
  9  2  1  0
  9 10  2  0
 12 11  1  0
 13 12  2  0
 14 12  1  0
 16 15  1  6
 15 14  1  0
 17 16  1  0
 17  9  1  0
 18 19  2  0
 18 16  1  0
 20 21  1  0
 22 21  1  1
 22 24  1  0
 22 23  1  0
 23 18  1  0
 24 25  1  0
 26 24  2  0
M  END
$$$$
