HQS.pdb
     RDKit          3D

 26 26  0  0  1  0  0  0  0  0999 V2000
   22.9003  -13.3376  -18.3768 N   0  0  0  0  0  0  0  0  0  0  0  0
   22.9716  -12.4867  -17.2310 C   0  0  1  0  0  0  0  0  0  0  0  0
   24.4204  -12.4297  -16.7733 C   0  0  0  0  0  0  0  0  0  0  0  0
   24.8252  -13.7597  -16.2634 C   0  0  0  0  0  0  0  0  0  0  0  0
   24.0325  -14.8751  -16.2171 C   0  0  0  0  0  0  0  0  0  0  0  0
   24.7754  -15.8710  -15.6872 N   0  0  0  0  0  0  0  0  0  0  0  0
   25.9969  -15.4182  -15.4030 C   0  0  0  0  0  0  0  0  0  0  0  0
   26.0245  -14.1042  -15.7628 N   0  0  0  0  0  0  0  0  0  0  0  0
   22.5558  -11.0882  -17.5290 C   0  0  0  0  0  0  0  0  0  0  0  0
   23.0986  -10.4623  -18.4749 O   0  0  0  0  0  0  0  0  0  0  0  0
   17.2218   -9.3093  -18.7847 N   0  0  0  0  0  0  0  0  0  0  0  0
   18.0624  -10.4452  -18.9110 C   0  0  0  0  0  0  0  0  0  0  0  0
   17.5914  -11.4395  -19.5184 O   0  0  0  0  0  0  0  0  0  0  0  0
   19.4057  -10.3847  -18.3326 C   0  0  0  0  0  0  0  0  0  0  0  0
   19.7167   -9.0618  -17.6848 C   0  0  0  0  0  0  0  0  0  0  0  0
   21.1282   -9.0704  -17.1312 C   0  0  2  0  0  0  0  0  0  0  0  0
   21.5561  -10.4059  -16.7863 N   0  0  0  0  0  0  0  0  0  0  0  0
   21.2713   -8.1307  -15.9876 C   0  0  0  0  0  0  0  0  0  0  0  0
   21.1595   -8.5318  -14.8016 O   0  0  0  0  0  0  0  0  0  0  0  0
   23.4367   -4.7190  -16.1122 O   0  0  0  0  0  0  0  0  0  0  0  0
   22.2199   -4.5623  -15.4687 C   0  0  0  0  0  0  0  0  0  0  0  0
   21.6355   -5.8721  -15.0213 C   0  0  2  0  0  0  0  0  0  0  0  0
   21.5385   -6.7469  -16.1727 N   0  0  0  0  0  0  0  0  0  0  0  0
   20.3197   -5.7014  -14.3534 C   0  0  0  0  0  0  0  0  0  0  0  0
   20.2991   -5.1154  -13.0962 O   0  0  0  0  0  0  0  0  0  0  0  0
   19.2465   -6.0560  -14.8640 O   0  0  0  0  0  0  0  0  0  0  0  0
  2  1  1  6
  3  2  1  0
  4  3  1  0
  5  4  2  0
  6  5  1  0
  7  6  1  0
  7  8  2  0
  8  4  1  0
  9  2  1  0
  9 10  2  0
 12 11  1  0
 13 12  2  0
 14 12  1  0
 16 15  1  1
 15 14  1  0
 17 16  1  0
 17  9  1  0
 18 19  2  0
 18 16  1  0
 20 21  1  0
 22 21  1  6
 22 24  1  0
 22 23  1  0
 23 18  1  0
 24 25  1  0
 26 24  2  0
M  END
$$$$
