HQS.pdb
     RDKit          3D

 26 26  0  0  1  0  0  0  0  0999 V2000
   25.3519  -23.4460  -17.3602 N   0  0  0  0  0  0  0  0  0  0  0  0
   25.5849  -22.1672  -16.7666 C   0  0  1  0  0  0  0  0  0  0  0  0
   26.7212  -21.4952  -17.5207 C   0  0  0  0  0  0  0  0  0  0  0  0
   27.9737  -22.2520  -17.2946 C   0  0  0  0  0  0  0  0  0  0  0  0
   28.5473  -23.1324  -18.1723 C   0  0  0  0  0  0  0  0  0  0  0  0
   29.6704  -23.6037  -17.5884 N   0  0  0  0  0  0  0  0  0  0  0  0
   29.8165  -23.0511  -16.3838 C   0  0  0  0  0  0  0  0  0  0  0  0
   28.7591  -22.2106  -16.2042 N   0  0  0  0  0  0  0  0  0  0  0  0
   24.4044  -21.2651  -16.8672 C   0  0  0  0  0  0  0  0  0  0  0  0
   23.7596  -21.1965  -17.9446 O   0  0  0  0  0  0  0  0  0  0  0  0
   20.0715  -20.0418  -12.6056 N   0  0  0  0  0  0  0  0  0  0  0  0
   19.7092  -19.1607  -13.6570 C   0  0  0  0  0  0  0  0  0  0  0  0
   18.5977  -18.5823  -13.5598 O   0  0  0  0  0  0  0  0  0  0  0  0
   20.6422  -18.9859  -14.7713 C   0  0  0  0  0  0  0  0  0  0  0  0
   21.8918  -19.8148  -14.6380 C   0  0  0  0  0  0  0  0  0  0  0  0
   22.7520  -19.6658  -15.8777 C   0  0  2  0  0  0  0  0  0  0  0  0
   23.9558  -20.4584  -15.7881 N   0  0  0  0  0  0  0  0  0  0  0  0
   23.0497  -18.2377  -16.1664 C   0  0  0  0  0  0  0  0  0  0  0  0
   23.8207  -17.5744  -15.4276 O   0  0  0  0  0  0  0  0  0  0  0  0
   24.2803  -16.7174  -19.3519 O   0  0  0  0  0  0  0  0  0  0  0  0
   23.1503  -16.0076  -18.9798 C   0  0  0  0  0  0  0  0  0  0  0  0
   22.8270  -16.1684  -17.5214 C   0  0  2  0  0  0  0  0  0  0  0  0
   22.4856  -17.5559  -17.2788 N   0  0  0  0  0  0  0  0  0  0  0  0
   21.7411  -15.2548  -17.0825 C   0  0  0  0  0  0  0  0  0  0  0  0
   21.9207  -13.8923  -17.2721 O   0  0  0  0  0  0  0  0  0  0  0  0
   20.6892  -15.6506  -16.5584 O   0  0  0  0  0  0  0  0  0  0  0  0
  2  1  1  6
  3  2  1  0
  4  3  1  0
  5  4  2  0
  6  5  1  0
  7  6  1  0
  7  8  2  0
  8  4  1  0
  9  2  1  0
  9 10  2  0
 12 11  1  0
 13 12  2  0
 14 12  1  0
 16 15  1  1
 15 14  1  0
 17 16  1  0
 17  9  1  0
 18 19  2  0
 18 16  1  0
 20 21  1  0
 22 21  1  6
 22 24  1  0
 22 23  1  0
 23 18  1  0
 24 25  1  0
 26 24  2  0
M  END
$$$$
