HQS.pdb
     RDKit          3D

 26 26  0  0  1  0  0  0  0  0999 V2000
   16.9304  -20.2889    0.2921 N   0  0  0  0  0  0  0  0  0  0  0  0
   16.4594  -20.3981    1.6367 C   0  0  1  0  0  0  0  0  0  0  0  0
   16.4187  -21.8725    2.0057 C   0  0  0  0  0  0  0  0  0  0  0  0
   15.5066  -22.5835    1.0810 C   0  0  0  0  0  0  0  0  0  0  0  0
   15.8838  -23.4664    0.1050 C   0  0  0  0  0  0  0  0  0  0  0  0
   14.7571  -23.8875   -0.5096 N   0  0  0  0  0  0  0  0  0  0  0  0
   13.6962  -23.3013    0.0459 C   0  0  0  0  0  0  0  0  0  0  0  0
   14.1661  -22.4905    1.0352 N   0  0  0  0  0  0  0  0  0  0  0  0
   17.3613  -19.7308    2.6158 C   0  0  0  0  0  0  0  0  0  0  0  0
   18.6081  -19.8155    2.4764 O   0  0  0  0  0  0  0  0  0  0  0  0
   16.5446  -14.1491    4.9156 N   0  0  0  0  0  0  0  0  0  0  0  0
   17.4258  -14.4823    3.8547 C   0  0  0  0  0  0  0  0  0  0  0  0
   17.8005  -13.5439    3.1074 O   0  0  0  0  0  0  0  0  0  0  0  0
   17.8350  -15.8795    3.7028 C   0  0  0  0  0  0  0  0  0  0  0  0
   17.2447  -16.7904    4.7459 C   0  0  0  0  0  0  0  0  0  0  0  0
   17.7618  -18.2033    4.5585 C   0  0  2  0  0  0  0  0  0  0  0  0
   16.8799  -18.9863    3.7250 N   0  0  0  0  0  0  0  0  0  0  0  0
   18.0230  -18.8661    5.8638 C   0  0  0  0  0  0  0  0  0  0  0  0
   17.0866  -19.3729    6.5319 O   0  0  0  0  0  0  0  0  0  0  0  0
   21.8685  -19.7361    7.1617 O   0  0  0  0  0  0  0  0  0  0  0  0
   20.7736  -20.4732    7.5824 C   0  0  0  0  0  0  0  0  0  0  0  0
   19.5266  -19.6411    7.6821 C   0  0  2  0  0  0  0  0  0  0  0  0
   19.3286  -18.9605    6.4180 N   0  0  0  0  0  0  0  0  0  0  0  0
   19.5800  -18.6822    8.8154 C   0  0  0  0  0  0  0  0  0  0  0  0
   19.6343  -19.1978   10.1021 O   0  0  0  0  0  0  0  0  0  0  0  0
   19.5782  -17.4511    8.6656 O   0  0  0  0  0  0  0  0  0  0  0  0
  2  1  1  6
  3  2  1  0
  4  3  1  0
  5  4  2  0
  6  5  1  0
  7  6  1  0
  7  8  2  0
  8  4  1  0
  9  2  1  0
  9 10  2  0
 12 11  1  0
 13 12  2  0
 14 12  1  0
 16 15  1  1
 15 14  1  0
 17 16  1  0
 17  9  1  0
 18 19  2  0
 18 16  1  0
 20 21  1  0
 22 21  1  6
 22 24  1  0
 22 23  1  0
 23 18  1  0
 24 25  1  0
 26 24  2  0
M  END
$$$$
