HQS.pdb
     RDKit          3D

 26 26  0  0  1  0  0  0  0  0999 V2000
   24.0897  -12.4593  -18.0538 N   0  0  0  0  0  0  0  0  0  0  0  0
   24.2772  -11.6610  -16.8837 C   0  0  1  0  0  0  0  0  0  0  0  0
   25.6893  -11.0984  -16.9157 C   0  0  0  0  0  0  0  0  0  0  0  0
   26.6519  -12.1730  -16.5821 C   0  0  0  0  0  0  0  0  0  0  0  0
   26.3306  -13.4632  -16.2552 C   0  0  0  0  0  0  0  0  0  0  0  0
   27.4898  -14.1168  -16.0237 N   0  0  0  0  0  0  0  0  0  0  0  0
   28.5171  -13.2840  -16.1937 C   0  0  0  0  0  0  0  0  0  0  0  0
   27.9922  -12.0755  -16.5411 N   0  0  0  0  0  0  0  0  0  0  0  0
   23.3485  -10.4982  -16.8284 C   0  0  0  0  0  0  0  0  0  0  0  0
   23.0456   -9.8888  -17.8857 O   0  0  0  0  0  0  0  0  0  0  0  0
   18.0659  -10.4186  -14.1010 N   0  0  0  0  0  0  0  0  0  0  0  0
   18.4781  -10.8720  -15.3806 C   0  0  0  0  0  0  0  0  0  0  0  0
   17.7052  -11.6581  -15.9842 O   0  0  0  0  0  0  0  0  0  0  0  0
   19.7601  -10.4003  -15.9065 C   0  0  0  0  0  0  0  0  0  0  0  0
   20.4785   -9.4625  -14.9732 C   0  0  0  0  0  0  0  0  0  0  0  0
   21.7721   -8.9865  -15.6048 C   0  0  2  0  0  0  0  0  0  0  0  0
   22.7720  -10.0282  -15.6187 N   0  0  0  0  0  0  0  0  0  0  0  0
   22.2730   -7.7470  -14.9537 C   0  0  0  0  0  0  0  0  0  0  0  0
   22.8955   -7.7944  -13.8626 O   0  0  0  0  0  0  0  0  0  0  0  0
   22.0996   -4.0259  -16.8160 O   0  0  0  0  0  0  0  0  0  0  0  0
   23.0381   -4.2884  -15.8315 C   0  0  0  0  0  0  0  0  0  0  0  0
   22.5438   -5.2820  -14.8188 C   0  0  2  0  0  0  0  0  0  0  0  0
   22.0771   -6.4594  -15.5232 N   0  0  0  0  0  0  0  0  0  0  0  0
   21.4856   -4.7142  -13.9445 C   0  0  0  0  0  0  0  0  0  0  0  0
   21.8455   -3.7148  -13.0523 O   0  0  0  0  0  0  0  0  0  0  0  0
   20.3040   -5.0894  -13.9751 O   0  0  0  0  0  0  0  0  0  0  0  0
  2  1  1  6
  3  2  1  0
  4  3  1  0
  5  4  2  0
  6  5  1  0
  7  6  1  0
  7  8  2  0
  8  4  1  0
  9  2  1  0
  9 10  2  0
 12 11  1  0
 13 12  2  0
 14 12  1  0
 16 15  1  1
 15 14  1  0
 17 16  1  0
 17  9  1  0
 18 19  2  0
 18 16  1  0
 20 21  1  0
 22 21  1  6
 22 24  1  0
 22 23  1  0
 23 18  1  0
 24 25  1  0
 26 24  2  0
M  END
$$$$
