HQS.pdb
     RDKit          3D

 26 26  0  0  1  0  0  0  0  0999 V2000
   16.5988  -11.6250  -16.6400 N   0  0  0  0  0  0  0  0  0  0  0  0
   17.7440  -11.2161  -15.8897 C   0  0  1  0  0  0  0  0  0  0  0  0
   18.9446  -12.0017  -16.3927 C   0  0  0  0  0  0  0  0  0  0  0  0
   18.7604  -13.4356  -16.0724 C   0  0  0  0  0  0  0  0  0  0  0  0
   18.8144  -14.4698  -16.9679 C   0  0  0  0  0  0  0  0  0  0  0  0
   18.5954  -15.6090  -16.2759 N   0  0  0  0  0  0  0  0  0  0  0  0
   18.4077  -15.3229  -14.9872 C   0  0  0  0  0  0  0  0  0  0  0  0
   18.5110  -13.9698  -14.8641 N   0  0  0  0  0  0  0  0  0  0  0  0
   18.0630   -9.7730  -16.0716 C   0  0  0  0  0  0  0  0  0  0  0  0
   18.0225   -9.2634  -17.2205 O   0  0  0  0  0  0  0  0  0  0  0  0
   15.0184   -5.9851  -17.3371 N   0  0  0  0  0  0  0  0  0  0  0  0
   15.8175   -5.7701  -16.1846 C   0  0  0  0  0  0  0  0  0  0  0  0
   16.1528   -4.5848  -15.9352 O   0  0  0  0  0  0  0  0  0  0  0  0
   16.1937   -6.9284  -15.3725 C   0  0  0  0  0  0  0  0  0  0  0  0
   17.4489   -6.7115  -14.5702 C   0  0  0  0  0  0  0  0  0  0  0  0
   18.5965   -7.4979  -15.1732 C   0  0  2  0  0  0  0  0  0  0  0  0
   18.4191   -8.9198  -14.9938 N   0  0  0  0  0  0  0  0  0  0  0  0
   19.9093   -7.0336  -14.6515 C   0  0  0  0  0  0  0  0  0  0  0  0
   20.3619   -7.4643  -13.5607 O   0  0  0  0  0  0  0  0  0  0  0  0
   24.0834   -4.7529  -15.6235 O   0  0  0  0  0  0  0  0  0  0  0  0
   22.8143   -5.1537  -16.0079 C   0  0  0  0  0  0  0  0  0  0  0  0
   22.0557   -5.8069  -14.8876 C   0  0  2  0  0  0  0  0  0  0  0  0
   20.7116   -6.0905  -15.3495 N   0  0  0  0  0  0  0  0  0  0  0  0
   22.0454   -4.9759  -13.6565 C   0  0  0  0  0  0  0  0  0  0  0  0
   22.9616   -5.2781  -12.6596 O   0  0  0  0  0  0  0  0  0  0  0  0
   21.2615   -4.0313  -13.4798 O   0  0  0  0  0  0  0  0  0  0  0  0
  2  1  1  6
  3  2  1  0
  4  3  1  0
  5  4  2  0
  6  5  1  0
  7  6  1  0
  7  8  2  0
  8  4  1  0
  9  2  1  0
  9 10  2  0
 12 11  1  0
 13 12  2  0
 14 12  1  0
 16 15  1  1
 15 14  1  0
 17 16  1  0
 17  9  1  0
 18 19  2  0
 18 16  1  0
 20 21  1  0
 22 21  1  6
 22 24  1  0
 22 23  1  0
 23 18  1  0
 24 25  1  0
 26 24  2  0
M  END
$$$$
