HQS.pdb
     RDKit          3D

 26 26  0  0  1  0  0  0  0  0999 V2000
   19.2820  -25.5948   -9.1187 N   0  0  0  0  0  0  0  0  0  0  0  0
   18.2629  -26.3627   -8.4758 C   0  0  1  0  0  0  0  0  0  0  0  0
   18.6230  -27.8338   -8.6102 C   0  0  0  0  0  0  0  0  0  0  0  0
   19.2680  -28.0617   -9.9235 C   0  0  0  0  0  0  0  0  0  0  0  0
   20.6164  -28.1051  -10.1569 C   0  0  0  0  0  0  0  0  0  0  0  0
   20.7858  -28.3332  -11.4774 N   0  0  0  0  0  0  0  0  0  0  0  0
   19.5968  -28.4330  -12.0725 C   0  0  0  0  0  0  0  0  0  0  0  0
   18.6546  -28.2636  -11.1027 N   0  0  0  0  0  0  0  0  0  0  0  0
   18.1601  -26.0729   -7.0188 C   0  0  0  0  0  0  0  0  0  0  0  0
   19.1791  -25.7038   -6.3811 O   0  0  0  0  0  0  0  0  0  0  0  0
   13.4949  -23.1974   -4.1689 N   0  0  0  0  0  0  0  0  0  0  0  0
   14.4253  -23.4012   -3.1175 C   0  0  0  0  0  0  0  0  0  0  0  0
   14.2287  -22.7677   -2.0501 O   0  0  0  0  0  0  0  0  0  0  0  0
   15.5388  -24.3244   -3.3426 C   0  0  0  0  0  0  0  0  0  0  0  0
   15.5809  -24.8775   -4.7421 C   0  0  0  0  0  0  0  0  0  0  0  0
   16.8226  -25.7267   -4.9310 C   0  0  2  0  0  0  0  0  0  0  0  0
   16.9461  -26.1932   -6.2921 N   0  0  0  0  0  0  0  0  0  0  0  0
   16.8701  -26.8479   -3.9552 C   0  0  0  0  0  0  0  0  0  0  0  0
   16.1214  -27.8496   -4.0824 O   0  0  0  0  0  0  0  0  0  0  0  0
   19.3051  -26.6414   -0.6485 O   0  0  0  0  0  0  0  0  0  0  0  0
   18.9955  -27.9153   -1.0961 C   0  0  0  0  0  0  0  0  0  0  0  0
   17.7266  -27.9477   -1.8999 C   0  0  2  0  0  0  0  0  0  0  0  0
   17.7532  -26.8463   -2.8413 N   0  0  0  0  0  0  0  0  0  0  0  0
   16.5158  -27.9018   -1.0407 C   0  0  0  0  0  0  0  0  0  0  0  0
   16.2344  -29.0085   -0.2530 O   0  0  0  0  0  0  0  0  0  0  0  0
   15.7504  -26.9270   -0.9952 O   0  0  0  0  0  0  0  0  0  0  0  0
  2  1  1  1
  3  2  1  0
  4  3  1  0
  5  4  2  0
  6  5  1  0
  7  6  1  0
  7  8  2  0
  8  4  1  0
  9  2  1  0
  9 10  2  0
 12 11  1  0
 13 12  2  0
 14 12  1  0
 16 15  1  6
 15 14  1  0
 17 16  1  0
 17  9  1  0
 18 19  2  0
 18 16  1  0
 20 21  1  0
 22 21  1  1
 22 24  1  0
 22 23  1  0
 23 18  1  0
 24 25  1  0
 26 24  2  0
M  END
$$$$
