HQS.pdb
     RDKit          3D

 26 26  0  0  1  0  0  0  0  0999 V2000
   20.8717  -13.1583  -18.0770 N   0  0  0  0  0  0  0  0  0  0  0  0
   20.7520  -11.9074  -18.7572 C   0  0  1  0  0  0  0  0  0  0  0  0
   19.9532  -12.1356  -20.0306 C   0  0  0  0  0  0  0  0  0  0  0  0
   20.7184  -13.0230  -20.9359 C   0  0  0  0  0  0  0  0  0  0  0  0
   21.7140  -12.6301  -21.7897 C   0  0  0  0  0  0  0  0  0  0  0  0
   22.1496  -13.7363  -22.4309 N   0  0  0  0  0  0  0  0  0  0  0  0
   21.4643  -14.7995  -22.0092 C   0  0  0  0  0  0  0  0  0  0  0  0
   20.5747  -14.3521  -21.0790 N   0  0  0  0  0  0  0  0  0  0  0  0
   20.0142  -10.8895  -17.9592 C   0  0  0  0  0  0  0  0  0  0  0  0
   18.9370  -11.2012  -17.3903 O   0  0  0  0  0  0  0  0  0  0  0  0
   21.9260   -7.3697  -13.5673 N   0  0  0  0  0  0  0  0  0  0  0  0
   21.0050   -8.4387  -13.4195 C   0  0  0  0  0  0  0  0  0  0  0  0
   20.9035   -8.9512  -12.2764 O   0  0  0  0  0  0  0  0  0  0  0  0
   20.2435   -8.8686  -14.5934 C   0  0  0  0  0  0  0  0  0  0  0  0
   20.5800   -8.0930  -15.8390 C   0  0  0  0  0  0  0  0  0  0  0  0
   19.7478   -8.5904  -17.0047 C   0  0  2  0  0  0  0  0  0  0  0  0
   20.4706   -9.5541  -17.8012 N   0  0  0  0  0  0  0  0  0  0  0  0
   19.2356   -7.4637  -17.8291 C   0  0  0  0  0  0  0  0  0  0  0  0
   19.9148   -6.9928  -18.7762 O   0  0  0  0  0  0  0  0  0  0  0  0
   15.5169   -4.6309  -19.0891 O   0  0  0  0  0  0  0  0  0  0  0  0
   16.0311   -5.6573  -18.3137 C   0  0  0  0  0  0  0  0  0  0  0  0
   17.5261   -5.7619  -18.4198 C   0  0  2  0  0  0  0  0  0  0  0  0
   17.9671   -6.8673  -17.5928 N   0  0  0  0  0  0  0  0  0  0  0  0
   18.2059   -4.4953  -18.0453 C   0  0  0  0  0  0  0  0  0  0  0  0
   18.3510   -3.5211  -19.0222 O   0  0  0  0  0  0  0  0  0  0  0  0
   18.6466   -4.2702  -16.9081 O   0  0  0  0  0  0  0  0  0  0  0  0
  2  1  1  1
  3  2  1  0
  4  3  1  0
  5  4  2  0
  6  5  1  0
  7  6  1  0
  7  8  2  0
  8  4  1  0
  9  2  1  0
  9 10  2  0
 12 11  1  0
 13 12  2  0
 14 12  1  0
 16 15  1  1
 15 14  1  0
 17 16  1  0
 17  9  1  0
 18 19  2  0
 18 16  1  0
 20 21  1  0
 22 21  1  1
 22 24  1  0
 22 23  1  0
 23 18  1  0
 24 25  1  0
 26 24  2  0
M  END
$$$$
