HQS.pdb
     RDKit          3D

 26 26  0  0  1  0  0  0  0  0999 V2000
   27.6959  -24.3938  -17.0010 N   0  0  0  0  0  0  0  0  0  0  0  0
   26.3102  -24.6600  -16.7752 C   0  0  1  0  0  0  0  0  0  0  0  0
   26.1996  -25.6524  -15.6287 C   0  0  0  0  0  0  0  0  0  0  0  0
   26.7005  -26.9727  -16.0742 C   0  0  0  0  0  0  0  0  0  0  0  0
   27.8992  -27.5343  -15.7244 C   0  0  0  0  0  0  0  0  0  0  0  0
   27.9720  -28.7350  -16.3390 N   0  0  0  0  0  0  0  0  0  0  0  0
   26.8668  -28.9406  -17.0559 C   0  0  0  0  0  0  0  0  0  0  0  0
   26.0778  -27.8422  -16.8890 N   0  0  0  0  0  0  0  0  0  0  0  0
   25.5516  -23.4441  -16.3709 C   0  0  0  0  0  0  0  0  0  0  0  0
   26.0697  -22.6191  -15.5759 O   0  0  0  0  0  0  0  0  0  0  0  0
   21.8707  -19.7309  -19.6789 N   0  0  0  0  0  0  0  0  0  0  0  0
   21.7241  -19.2081  -18.3681 C   0  0  0  0  0  0  0  0  0  0  0  0
   21.1186  -18.1127  -18.2545 O   0  0  0  0  0  0  0  0  0  0  0  0
   22.2807  -19.9697  -17.2488 C   0  0  0  0  0  0  0  0  0  0  0  0
   22.9672  -21.2399  -17.6749 C   0  0  0  0  0  0  0  0  0  0  0  0
   23.5428  -21.9530  -16.4670 C   0  0  2  0  0  0  0  0  0  0  0  0
   24.2439  -23.1577  -16.8447 N   0  0  0  0  0  0  0  0  0  0  0  0
   22.4990  -22.2184  -15.4417 C   0  0  0  0  0  0  0  0  0  0  0  0
   21.7654  -23.2367  -15.5125 O   0  0  0  0  0  0  0  0  0  0  0  0
   21.2878  -19.3650  -12.6491 O   0  0  0  0  0  0  0  0  0  0  0  0
   21.3569  -20.6845  -12.2329 C   0  0  0  0  0  0  0  0  0  0  0  0
   21.2418  -21.6527  -13.3760 C   0  0  2  0  0  0  0  0  0  0  0  0
   22.2783  -21.3460  -14.3414 N   0  0  0  0  0  0  0  0  0  0  0  0
   19.8930  -21.6300  -13.9980 C   0  0  0  0  0  0  0  0  0  0  0  0
   19.7154  -20.8611  -15.1389 O   0  0  0  0  0  0  0  0  0  0  0  0
   18.9255  -22.2619  -13.5478 O   0  0  0  0  0  0  0  0  0  0  0  0
  2  1  1  1
  3  2  1  0
  4  3  1  0
  5  4  2  0
  6  5  1  0
  7  6  1  0
  7  8  2  0
  8  4  1  0
  9  2  1  0
  9 10  2  0
 12 11  1  0
 13 12  2  0
 14 12  1  0
 16 15  1  6
 15 14  1  0
 17 16  1  0
 17  9  1  0
 18 19  2  0
 18 16  1  0
 20 21  1  0
 22 21  1  1
 22 24  1  0
 22 23  1  0
 23 18  1  0
 24 25  1  0
 26 24  2  0
M  END
$$$$
