HQS.pdb
     RDKit          3D

 26 26  0  0  1  0  0  0  0  0999 V2000
   18.3199  -12.1204  -17.8785 N   0  0  0  0  0  0  0  0  0  0  0  0
   19.4627  -11.5316  -17.2547 C   0  0  1  0  0  0  0  0  0  0  0  0
   20.4817  -11.2138  -18.3375 C   0  0  0  0  0  0  0  0  0  0  0  0
   20.9700  -12.4771  -18.9359 C   0  0  0  0  0  0  0  0  0  0  0  0
   20.7382  -12.8984  -20.2179 C   0  0  0  0  0  0  0  0  0  0  0  0
   21.3530  -14.0923  -20.3631 N   0  0  0  0  0  0  0  0  0  0  0  0
   21.9568  -14.4285  -19.2229 C   0  0  0  0  0  0  0  0  0  0  0  0
   21.7165  -13.4214  -18.3370 N   0  0  0  0  0  0  0  0  0  0  0  0
   19.1441  -10.2486  -16.5692 C   0  0  0  0  0  0  0  0  0  0  0  0
   18.4578   -9.3769  -17.1609 O   0  0  0  0  0  0  0  0  0  0  0  0
   17.2924   -9.1285  -10.8949 N   0  0  0  0  0  0  0  0  0  0  0  0
   16.5937   -9.5136  -12.0681 C   0  0  0  0  0  0  0  0  0  0  0  0
   15.4391   -9.9859  -11.9161 O   0  0  0  0  0  0  0  0  0  0  0  0
   17.2558   -9.3375  -13.3618 C   0  0  0  0  0  0  0  0  0  0  0  0
   18.6838   -8.8762  -13.2427 C   0  0  0  0  0  0  0  0  0  0  0  0
   19.2871   -8.6837  -14.6203 C   0  0  2  0  0  0  0  0  0  0  0  0
   19.5831   -9.9478  -15.2527 N   0  0  0  0  0  0  0  0  0  0  0  0
   20.4786   -7.7951  -14.5746 C   0  0  0  0  0  0  0  0  0  0  0  0
   21.6065   -8.2404  -14.2435 O   0  0  0  0  0  0  0  0  0  0  0  0
   22.7217   -3.8683  -16.0849 O   0  0  0  0  0  0  0  0  0  0  0  0
   21.6065   -4.6893  -16.0477 C   0  0  0  0  0  0  0  0  0  0  0  0
   21.6041   -5.5988  -14.8518 C   0  0  2  0  0  0  0  0  0  0  0  0
   20.4062   -6.4130  -14.8988 N   0  0  0  0  0  0  0  0  0  0  0  0
   21.7033   -4.8475  -13.5743 C   0  0  0  0  0  0  0  0  0  0  0  0
   22.9472   -4.7583  -12.9666 O   0  0  0  0  0  0  0  0  0  0  0  0
   20.7328   -4.3003  -13.0297 O   0  0  0  0  0  0  0  0  0  0  0  0
  2  1  1  6
  3  2  1  0
  4  3  1  0
  5  4  2  0
  6  5  1  0
  7  6  1  0
  7  8  2  0
  8  4  1  0
  9  2  1  0
  9 10  2  0
 12 11  1  0
 13 12  2  0
 14 12  1  0
 16 15  1  1
 15 14  1  0
 17 16  1  0
 17  9  1  0
 18 19  2  0
 18 16  1  0
 20 21  1  0
 22 21  1  6
 22 24  1  0
 22 23  1  0
 23 18  1  0
 24 25  1  0
 26 24  2  0
M  END
$$$$
