HQS.pdb
     RDKit          3D

 26 26  0  0  1  0  0  0  0  0999 V2000
   26.0590  -17.7188  -17.2187 N   0  0  0  0  0  0  0  0  0  0  0  0
   26.5294  -17.3520  -15.9203 C   0  0  1  0  0  0  0  0  0  0  0  0
   26.4630  -15.8376  -15.8031 C   0  0  0  0  0  0  0  0  0  0  0  0
   27.3806  -15.2294  -16.7934 C   0  0  0  0  0  0  0  0  0  0  0  0
   27.0070  -14.4876  -17.8818 C   0  0  0  0  0  0  0  0  0  0  0  0
   28.1382  -14.1221  -18.5232 N   0  0  0  0  0  0  0  0  0  0  0  0
   29.1983  -14.6072  -17.8763 C   0  0  0  0  0  0  0  0  0  0  0  0
   28.7234  -15.2957  -16.8005 N   0  0  0  0  0  0  0  0  0  0  0  0
   25.6860  -17.9089  -14.8267 C   0  0  0  0  0  0  0  0  0  0  0  0
   24.4412  -17.7320  -14.8450 O   0  0  0  0  0  0  0  0  0  0  0  0
   24.9294  -23.5130  -13.8114 N   0  0  0  0  0  0  0  0  0  0  0  0
   23.7224  -22.8044  -13.5787 C   0  0  0  0  0  0  0  0  0  0  0  0
   22.7117  -23.4841  -13.2692 O   0  0  0  0  0  0  0  0  0  0  0  0
   23.7342  -21.3468  -13.7129 C   0  0  0  0  0  0  0  0  0  0  0  0
   25.0880  -20.7918  -14.0673 C   0  0  0  0  0  0  0  0  0  0  0  0
   25.4769  -19.6998  -13.0899 C   0  0  2  0  0  0  0  0  0  0  0  0
   26.2223  -18.6465  -13.7382 N   0  0  0  0  0  0  0  0  0  0  0  0
   26.2051  -20.2520  -11.9168 C   0  0  0  0  0  0  0  0  0  0  0  0
   27.1664  -21.0479  -12.0669 O   0  0  0  0  0  0  0  0  0  0  0  0
   26.3690  -18.9506   -8.0439 O   0  0  0  0  0  0  0  0  0  0  0  0
   26.9620  -20.1287   -8.4677 C   0  0  0  0  0  0  0  0  0  0  0  0
   26.1423  -20.8420   -9.5053 C   0  0  2  0  0  0  0  0  0  0  0  0
   25.8573  -19.9134  -10.5808 N   0  0  0  0  0  0  0  0  0  0  0  0
   24.8965  -21.4188   -8.9381 C   0  0  0  0  0  0  0  0  0  0  0  0
   25.0166  -22.3493   -7.9163 O   0  0  0  0  0  0  0  0  0  0  0  0
   23.7623  -21.1094   -9.3330 O   0  0  0  0  0  0  0  0  0  0  0  0
  2  1  1  6
  3  2  1  0
  4  3  1  0
  5  4  2  0
  6  5  1  0
  7  6  1  0
  7  8  2  0
  8  4  1  0
  9  2  1  0
  9 10  2  0
 12 11  1  0
 13 12  2  0
 14 12  1  0
 16 15  1  6
 15 14  1  0
 17 16  1  0
 17  9  1  0
 18 19  2  0
 18 16  1  0
 20 21  1  0
 22 21  1  1
 22 24  1  0
 22 23  1  0
 23 18  1  0
 24 25  1  0
 26 24  2  0
M  END
$$$$
