EHW.pdb
     RDKit          3D

 34 36  0  0  1  0  0  0  0  0999 V2000
   10.3333  -18.1795   19.2066 N   0  0  0  0  0  0  0  0  0  0  0  0
   11.3619  -17.1895   19.3610 C   0  0  1  0  0  0  0  0  0  0  0  0
   12.0338  -16.8736   18.1002 C   0  0  0  0  0  0  0  0  0  0  0  0
   12.5122  -18.1643   17.4333 C   0  0  0  0  0  0  0  0  0  0  0  0
   13.2284  -17.9015   16.1663 C   0  0  0  0  0  0  0  0  0  0  0  0
   12.8611  -17.1128   15.2678 O   0  0  0  0  0  0  0  0  0  0  0  0
   10.9248  -16.0220   20.1930 C   0  0  0  0  0  0  0  0  0  0  0  0
   11.8624  -15.3047   20.6155 O   0  0  0  0  0  0  0  0  0  0  0  0
   14.4065  -18.5746   15.9419 O   0  0  0  0  0  0  0  0  0  0  0  0
    9.5712  -15.7766   20.4548 N   0  0  0  0  0  0  0  0  0  0  0  0
    8.8848  -14.8063   21.1815 C   0  0  1  0  0  0  0  0  0  0  0  0
    7.5753  -14.3655   20.5648 C   0  0  0  0  0  0  0  0  0  0  0  0
    7.6459  -14.0623   19.1347 C   0  0  0  0  0  0  0  0  0  0  0  0
    8.5627  -13.2595   18.5213 C   0  0  0  0  0  0  0  0  0  0  0  0
    8.3086  -13.2067   17.2114 N   0  0  0  0  0  0  0  0  0  0  0  0
    7.2143  -13.9934   17.0128 C   0  0  0  0  0  0  0  0  0  0  0  0
    6.8241  -14.4991   18.1751 N   0  0  0  0  0  0  0  0  0  0  0  0
    8.8488  -14.8892   22.6618 C   0  0  0  0  0  0  0  0  0  0  0  0
    8.0176  -14.2956   23.3946 O   0  0  0  0  0  0  0  0  0  0  0  0
    9.7938  -15.6882   23.4006 N   0  0  0  0  0  0  0  0  0  0  0  0
    9.6856  -15.8147   24.8516 C   0  0  1  0  0  0  0  0  0  0  0  0
    8.3104  -16.3700   25.1002 C   0  0  0  0  0  0  0  0  0  0  0  0
    7.3245  -15.4344   25.6533 C   0  0  0  0  0  0  0  0  0  0  0  0
    5.9563  -15.6829   25.8645 C   0  0  0  0  0  0  0  0  0  0  0  0
    5.3799  -14.5846   26.3385 N   0  0  0  0  0  0  0  0  0  0  0  0
    6.2937  -13.5676   26.4727 C   0  0  0  0  0  0  0  0  0  0  0  0
    6.1623  -12.2753   26.9213 C   0  0  0  0  0  0  0  0  0  0  0  0
    7.2771  -11.4763   26.9494 C   0  0  0  0  0  0  0  0  0  0  0  0
    8.4778  -11.9975   26.5292 C   0  0  0  0  0  0  0  0  0  0  0  0
    8.5936  -13.2849   26.0841 C   0  0  0  0  0  0  0  0  0  0  0  0
    7.4839  -14.1323   26.0378 C   0  0  0  0  0  0  0  0  0  0  0  0
   10.7812  -16.5646   25.4661 C   0  0  0  0  0  0  0  0  0  0  0  0
   10.9247  -16.6890   26.7351 O   0  0  0  0  0  0  0  0  0  0  0  0
   11.7516  -17.2048   24.7200 O   0  0  0  0  0  0  0  0  0  0  0  0
  2  1  1  6
  2  3  1  0
  3  4  1  0
  4  5  1  0
  5  9  1  0
  6  5  2  0
  7  2  1  0
  7  8  2  0
 10  7  1  0
 11 10  1  0
 11 12  1  6
 13 14  2  0
 13 12  1  0
 15 14  1  0
 16 17  2  0
 16 15  1  0
 17 13  1  0
 18 11  1  0
 19 18  2  0
 20 18  1  0
 21 20  1  0
 21 22  1  6
 22 23  1  0
 23 31  1  0
 24 25  1  0
 24 23  2  0
 25 26  1  0
 26 31  2  0
 26 27  1  0
 27 28  2  0
 28 29  1  0
 30 29  2  0
 31 30  1  0
 32 21  1  0
 32 34  1  0
 33 32  2  0
M  END
$$$$
