EHW.pdb
     RDKit          3D

 34 36  0  0  1  0  0  0  0  0999 V2000
   10.1642  -13.5163   19.0648 N   0  0  0  0  0  0  0  0  0  0  0  0
    8.7708  -13.7481   19.3230 C   0  0  1  0  0  0  0  0  0  0  0  0
    7.9759  -13.8268   18.0970 C   0  0  0  0  0  0  0  0  0  0  0  0
    8.7423  -14.6173   17.0354 C   0  0  0  0  0  0  0  0  0  0  0  0
    7.9247  -14.8602   15.8271 C   0  0  0  0  0  0  0  0  0  0  0  0
    6.7683  -14.4281   15.6267 O   0  0  0  0  0  0  0  0  0  0  0  0
    8.5391  -14.8273   20.3368 C   0  0  0  0  0  0  0  0  0  0  0  0
    7.3558  -14.9145   20.7423 O   0  0  0  0  0  0  0  0  0  0  0  0
    8.4715  -15.6254   14.8237 O   0  0  0  0  0  0  0  0  0  0  0  0
    9.5796  -15.6577   20.7717 N   0  0  0  0  0  0  0  0  0  0  0  0
    9.6786  -16.6698   21.7238 C   0  0  1  0  0  0  0  0  0  0  0  0
   10.2131  -17.9828   21.1949 C   0  0  0  0  0  0  0  0  0  0  0  0
    9.4110  -18.5823   20.1275 C   0  0  0  0  0  0  0  0  0  0  0  0
    8.1075  -18.3018   19.8389 C   0  0  0  0  0  0  0  0  0  0  0  0
    7.7043  -19.0499   18.8088 N   0  0  0  0  0  0  0  0  0  0  0  0
    8.7809  -19.8058   18.4543 C   0  0  0  0  0  0  0  0  0  0  0  0
    9.7982  -19.5182   19.2549 N   0  0  0  0  0  0  0  0  0  0  0  0
   10.1462  -16.3438   23.0930 C   0  0  0  0  0  0  0  0  0  0  0  0
   11.0845  -15.5518   23.3623 O   0  0  0  0  0  0  0  0  0  0  0  0
    9.5367  -16.9263   24.2621 N   0  0  0  0  0  0  0  0  0  0  0  0
   10.0172  -16.5852   25.5985 C   0  0  1  0  0  0  0  0  0  0  0  0
    9.7827  -15.1064   25.7392 C   0  0  0  0  0  0  0  0  0  0  0  0
    8.3825  -14.6797   25.8419 C   0  0  0  0  0  0  0  0  0  0  0  0
    7.2434  -15.4885   25.6792 C   0  0  0  0  0  0  0  0  0  0  0  0
    6.1536  -14.7398   25.8030 N   0  0  0  0  0  0  0  0  0  0  0  0
    6.4821  -13.4291   26.0504 C   0  0  0  0  0  0  0  0  0  0  0  0
    5.7033  -12.3148   26.2518 C   0  0  0  0  0  0  0  0  0  0  0  0
    6.3262  -11.1157   26.4884 C   0  0  0  0  0  0  0  0  0  0  0  0
    7.7000  -11.0753   26.5147 C   0  0  0  0  0  0  0  0  0  0  0  0
    8.4625  -12.1917   26.3113 C   0  0  0  0  0  0  0  0  0  0  0  0
    7.8694  -13.4326   26.0659 C   0  0  0  0  0  0  0  0  0  0  0  0
    9.4477  -17.4109   26.6634 C   0  0  0  0  0  0  0  0  0  0  0  0
    9.8034  -17.3184   27.8928 O   0  0  0  0  0  0  0  0  0  0  0  0
    8.4720  -18.3591   26.4250 O   0  0  0  0  0  0  0  0  0  0  0  0
  2  1  1  6
  2  3  1  0
  3  4  1  0
  4  5  1  0
  5  9  1  0
  6  5  2  0
  7  2  1  0
  7  8  2  0
 10  7  1  0
 11 10  1  0
 11 12  1  6
 13 14  2  0
 13 12  1  0
 15 14  1  0
 16 17  2  0
 16 15  1  0
 17 13  1  0
 18 11  1  0
 19 18  2  0
 20 18  1  0
 21 20  1  0
 21 22  1  1
 22 23  1  0
 23 31  1  0
 24 25  1  0
 24 23  2  0
 25 26  1  0
 26 31  2  0
 26 27  1  0
 27 28  2  0
 28 29  1  0
 30 29  2  0
 31 30  1  0
 32 21  1  0
 32 34  1  0
 33 32  2  0
M  END
$$$$
