EHW.pdb
     RDKit          3D

 34 36  0  0  1  0  0  0  0  0999 V2000
   10.4445  -13.2578   19.6765 N   0  0  0  0  0  0  0  0  0  0  0  0
    9.1840  -13.6191   19.0913 C   0  0  1  0  0  0  0  0  0  0  0  0
    9.2899  -13.9129   17.6618 C   0  0  0  0  0  0  0  0  0  0  0  0
    7.9227  -14.3312   17.1186 C   0  0  0  0  0  0  0  0  0  0  0  0
    8.0091  -14.8432   15.7337 C   0  0  0  0  0  0  0  0  0  0  0  0
    7.8012  -14.1802   14.6938 O   0  0  0  0  0  0  0  0  0  0  0  0
    8.4208  -14.6081   19.9193 C   0  0  0  0  0  0  0  0  0  0  0  0
    7.3793  -15.0470   19.3763 O   0  0  0  0  0  0  0  0  0  0  0  0
    8.3500  -16.1637   15.5564 O   0  0  0  0  0  0  0  0  0  0  0  0
    8.8640  -14.9940   21.1904 N   0  0  0  0  0  0  0  0  0  0  0  0
    9.0671  -16.2228   21.8145 C   0  0  1  0  0  0  0  0  0  0  0  0
    9.4627  -17.3462   20.8813 C   0  0  0  0  0  0  0  0  0  0  0  0
    9.5156  -18.6685   21.5064 C   0  0  0  0  0  0  0  0  0  0  0  0
    8.4633  -19.3572   22.0350 C   0  0  0  0  0  0  0  0  0  0  0  0
    8.8910  -20.5218   22.5289 N   0  0  0  0  0  0  0  0  0  0  0  0
   10.2335  -20.5524   22.2994 C   0  0  0  0  0  0  0  0  0  0  0  0
   10.5969  -19.4333   21.6877 N   0  0  0  0  0  0  0  0  0  0  0  0
    9.7503  -16.2718   23.1300 C   0  0  0  0  0  0  0  0  0  0  0  0
   10.9511  -15.9573   23.3281 O   0  0  0  0  0  0  0  0  0  0  0  0
    9.0653  -16.6940   24.3258 N   0  0  0  0  0  0  0  0  0  0  0  0
    9.6571  -16.4645   25.6412 C   0  0  1  0  0  0  0  0  0  0  0  0
    8.4923  -16.3395   26.5842 C   0  0  0  0  0  0  0  0  0  0  0  0
    7.4665  -15.3557   26.2195 C   0  0  0  0  0  0  0  0  0  0  0  0
    6.1904  -15.6275   25.6942 C   0  0  0  0  0  0  0  0  0  0  0  0
    5.5643  -14.4822   25.4503 N   0  0  0  0  0  0  0  0  0  0  0  0
    6.3524  -13.4087   25.7875 C   0  0  0  0  0  0  0  0  0  0  0  0
    6.1292  -12.0544   25.7179 C   0  0  0  0  0  0  0  0  0  0  0  0
    7.1200  -11.2057   26.1420 C   0  0  0  0  0  0  0  0  0  0  0  0
    8.2933  -11.7409   26.6182 C   0  0  0  0  0  0  0  0  0  0  0  0
    8.5023  -13.0905   26.6806 C   0  0  0  0  0  0  0  0  0  0  0  0
    7.5207  -13.9903   26.2581 C   0  0  0  0  0  0  0  0  0  0  0  0
   10.6634  -17.4560   26.0213 C   0  0  0  0  0  0  0  0  0  0  0  0
   10.8415  -18.5573   25.3874 O   0  0  0  0  0  0  0  0  0  0  0  0
   11.5087  -17.2788   27.0993 O   0  0  0  0  0  0  0  0  0  0  0  0
  2  1  1  1
  2  3  1  0
  3  4  1  0
  4  5  1  0
  5  9  1  0
  6  5  2  0
  7  2  1  0
  7  8  2  0
 10  7  1  0
 11 10  1  0
 11 12  1  6
 13 14  2  0
 13 12  1  0
 15 14  1  0
 16 17  2  0
 16 15  1  0
 17 13  1  0
 18 11  1  0
 19 18  2  0
 20 18  1  0
 21 20  1  0
 21 22  1  1
 22 23  1  0
 23 31  1  0
 24 25  1  0
 24 23  2  0
 25 26  1  0
 26 31  2  0
 26 27  1  0
 27 28  2  0
 28 29  1  0
 30 29  2  0
 31 30  1  0
 32 21  1  0
 32 34  1  0
 33 32  2  0
M  END
$$$$
