EHW.pdb
     RDKit          3D

 34 36  0  0  1  0  0  0  0  0999 V2000
   10.2650  -17.4387   18.9479 N   0  0  0  0  0  0  0  0  0  0  0  0
   10.9749  -17.7156   20.1650 C   0  0  1  0  0  0  0  0  0  0  0  0
   12.3085  -17.1138   20.1888 C   0  0  0  0  0  0  0  0  0  0  0  0
   13.1485  -17.6759   19.0410 C   0  0  0  0  0  0  0  0  0  0  0  0
   14.5080  -17.0942   19.0121 C   0  0  0  0  0  0  0  0  0  0  0  0
   14.8057  -15.9489   18.6072 O   0  0  0  0  0  0  0  0  0  0  0  0
   10.1323  -17.5152   21.3880 C   0  0  0  0  0  0  0  0  0  0  0  0
    9.4741  -16.4480   21.3968 O   0  0  0  0  0  0  0  0  0  0  0  0
   15.5485  -17.8679   19.4704 O   0  0  0  0  0  0  0  0  0  0  0  0
   10.1004  -18.4640   22.4176 N   0  0  0  0  0  0  0  0  0  0  0  0
    9.4903  -18.5164   23.6688 C   0  0  1  0  0  0  0  0  0  0  0  0
    8.9089  -19.8657   24.0307 C   0  0  0  0  0  0  0  0  0  0  0  0
    8.2475  -19.9148   25.3355 C   0  0  0  0  0  0  0  0  0  0  0  0
    8.7946  -20.3560   26.5047 C   0  0  0  0  0  0  0  0  0  0  0  0
    7.8924  -20.2661   27.4851 N   0  0  0  0  0  0  0  0  0  0  0  0
    6.7669  -19.7584   26.9093 C   0  0  0  0  0  0  0  0  0  0  0  0
    6.9917  -19.5544   25.6183 N   0  0  0  0  0  0  0  0  0  0  0  0
   10.1081  -17.8065   24.8151 C   0  0  0  0  0  0  0  0  0  0  0  0
   11.3439  -17.7336   25.0335 O   0  0  0  0  0  0  0  0  0  0  0  0
    9.3122  -17.1169   25.7992 N   0  0  0  0  0  0  0  0  0  0  0  0
    9.9463  -16.4556   26.9366 C   0  0  1  0  0  0  0  0  0  0  0  0
    8.8505  -15.6665   27.5984 C   0  0  0  0  0  0  0  0  0  0  0  0
    7.8735  -15.0375   26.7023 C   0  0  0  0  0  0  0  0  0  0  0  0
    6.8039  -15.6730   26.0462 C   0  0  0  0  0  0  0  0  0  0  0  0
    6.1667  -14.7877   25.2889 N   0  0  0  0  0  0  0  0  0  0  0  0
    6.7469  -13.5465   25.3883 C   0  0  0  0  0  0  0  0  0  0  0  0
    6.4347  -12.3430   24.8027 C   0  0  0  0  0  0  0  0  0  0  0  0
    7.2067  -11.2497   25.1034 C   0  0  0  0  0  0  0  0  0  0  0  0
    8.2587  -11.3998   25.9756 C   0  0  0  0  0  0  0  0  0  0  0  0
    8.5586  -12.6036   26.5500 C   0  0  0  0  0  0  0  0  0  0  0  0
    7.7994  -13.7426   26.2706 C   0  0  0  0  0  0  0  0  0  0  0  0
   10.6806  -17.3634   27.8182 C   0  0  0  0  0  0  0  0  0  0  0  0
   10.6704  -18.6392   27.6815 O   0  0  0  0  0  0  0  0  0  0  0  0
   11.4508  -16.9118   28.8721 O   0  0  0  0  0  0  0  0  0  0  0  0
  2  1  1  6
  2  3  1  0
  3  4  1  0
  4  5  1  0
  5  9  1  0
  6  5  2  0
  7  2  1  0
  7  8  2  0
 10  7  1  0
 11 10  1  0
 11 12  1  1
 13 14  2  0
 13 12  1  0
 15 14  1  0
 16 17  2  0
 16 15  1  0
 17 13  1  0
 18 11  1  0
 19 18  2  0
 20 18  1  0
 21 20  1  0
 21 22  1  1
 22 23  1  0
 23 31  1  0
 24 25  1  0
 24 23  2  0
 25 26  1  0
 26 31  2  0
 26 27  1  0
 27 28  2  0
 28 29  1  0
 30 29  2  0
 31 30  1  0
 32 21  1  0
 32 34  1  0
 33 32  2  0
M  END
$$$$
