EHW.pdb
     RDKit          3D

 34 36  0  0  1  0  0  0  0  0999 V2000
   10.9685  -19.2640   19.6558 N   0  0  0  0  0  0  0  0  0  0  0  0
   11.8557  -18.1985   19.2822 C   0  0  1  0  0  0  0  0  0  0  0  0
   12.4838  -18.4189   17.9792 C   0  0  0  0  0  0  0  0  0  0  0  0
   11.4048  -18.5828   16.9077 C   0  0  0  0  0  0  0  0  0  0  0  0
   11.9845  -18.8438   15.5723 C   0  0  0  0  0  0  0  0  0  0  0  0
   11.9115  -18.0843   14.5814 O   0  0  0  0  0  0  0  0  0  0  0  0
   11.2644  -16.8411   19.5150 C   0  0  0  0  0  0  0  0  0  0  0  0
   12.0306  -15.8866   19.2427 O   0  0  0  0  0  0  0  0  0  0  0  0
   12.6704  -20.0215   15.3879 O   0  0  0  0  0  0  0  0  0  0  0  0
    9.9575  -16.6850   19.9934 N   0  0  0  0  0  0  0  0  0  0  0  0
    9.1671  -15.5830   20.3121 C   0  0  1  0  0  0  0  0  0  0  0  0
    7.9037  -15.4543   19.4895 C   0  0  0  0  0  0  0  0  0  0  0  0
    8.0210  -14.5762   18.3245 C   0  0  0  0  0  0  0  0  0  0  0  0
    9.1308  -13.8803   17.9433 C   0  0  0  0  0  0  0  0  0  0  0  0
    8.8630  -13.1765   16.8405 N   0  0  0  0  0  0  0  0  0  0  0  0
    7.5627  -13.4446   16.5349 C   0  0  0  0  0  0  0  0  0  0  0  0
    7.0674  -14.2837   17.4345 N   0  0  0  0  0  0  0  0  0  0  0  0
    8.9968  -15.1901   21.7320 C   0  0  0  0  0  0  0  0  0  0  0  0
    7.9711  -14.6405   22.2074 O   0  0  0  0  0  0  0  0  0  0  0  0
   10.0281  -15.4204   22.7123 N   0  0  0  0  0  0  0  0  0  0  0  0
    9.6829  -15.8224   24.0733 C   0  0  1  0  0  0  0  0  0  0  0  0
    8.1801  -15.8010   24.1245 C   0  0  0  0  0  0  0  0  0  0  0  0
    7.5814  -15.1984   25.3210 C   0  0  0  0  0  0  0  0  0  0  0  0
    6.9935  -15.8808   26.4012 C   0  0  0  0  0  0  0  0  0  0  0  0
    6.5243  -14.9970   27.2741 N   0  0  0  0  0  0  0  0  0  0  0  0
    6.7622  -13.7121   26.8503 C   0  0  0  0  0  0  0  0  0  0  0  0
    6.4683  -12.4947   27.4162 C   0  0  0  0  0  0  0  0  0  0  0  0
    6.8438  -11.3560   26.7496 C   0  0  0  0  0  0  0  0  0  0  0  0
    7.4971  -11.4765   25.5461 C   0  0  0  0  0  0  0  0  0  0  0  0
    7.7820  -12.6944   24.9942 C   0  0  0  0  0  0  0  0  0  0  0  0
    7.4166  -13.8790   25.6385 C   0  0  0  0  0  0  0  0  0  0  0  0
   10.3034  -17.0775   24.4976 C   0  0  0  0  0  0  0  0  0  0  0  0
   10.5234  -17.3742   25.7264 O   0  0  0  0  0  0  0  0  0  0  0  0
   10.6999  -18.0493   23.5996 O   0  0  0  0  0  0  0  0  0  0  0  0
  2  1  1  6
  2  3  1  0
  3  4  1  0
  4  5  1  0
  5  9  1  0
  6  5  2  0
  7  2  1  0
  7  8  2  0
 10  7  1  0
 11 10  1  0
 11 12  1  1
 13 14  2  0
 13 12  1  0
 15 14  1  0
 16 17  2  0
 16 15  1  0
 17 13  1  0
 18 11  1  0
 19 18  2  0
 20 18  1  0
 21 20  1  0
 21 22  1  6
 22 23  1  0
 23 31  1  0
 24 25  1  0
 24 23  2  0
 25 26  1  0
 26 31  2  0
 26 27  1  0
 27 28  2  0
 28 29  1  0
 30 29  2  0
 31 30  1  0
 32 21  1  0
 32 34  1  0
 33 32  2  0
M  END
$$$$
