EHW.pdb
     RDKit          3D

 34 36  0  0  1  0  0  0  0  0999 V2000
    7.3665  -18.6886   20.5200 N   0  0  0  0  0  0  0  0  0  0  0  0
    8.7369  -18.7174   20.0920 C   0  0  1  0  0  0  0  0  0  0  0  0
    8.8757  -19.0120   18.6655 C   0  0  0  0  0  0  0  0  0  0  0  0
    7.5719  -19.6084   18.1329 C   0  0  0  0  0  0  0  0  0  0  0  0
    7.6399  -19.8830   16.6812 C   0  0  0  0  0  0  0  0  0  0  0  0
    7.5682  -21.0108   16.1454 O   0  0  0  0  0  0  0  0  0  0  0  0
    9.5331  -17.5595   20.6131 C   0  0  0  0  0  0  0  0  0  0  0  0
   10.7694  -17.6524   20.4260 O   0  0  0  0  0  0  0  0  0  0  0  0
    7.7931  -18.8131   15.8307 O   0  0  0  0  0  0  0  0  0  0  0  0
    8.9161  -16.4745   21.2482 N   0  0  0  0  0  0  0  0  0  0  0  0
    9.3833  -15.2980   21.8296 C   0  0  1  0  0  0  0  0  0  0  0  0
    8.6664  -14.0440   21.3791 C   0  0  0  0  0  0  0  0  0  0  0  0
    8.4662  -13.9421   19.9328 C   0  0  0  0  0  0  0  0  0  0  0  0
    7.3844  -13.4021   19.3010 C   0  0  0  0  0  0  0  0  0  0  0  0
    7.5441  -13.4945   17.9784 N   0  0  0  0  0  0  0  0  0  0  0  0
    8.7487  -14.1025   17.7909 C   0  0  0  0  0  0  0  0  0  0  0  0
    9.2912  -14.3687   18.9713 N   0  0  0  0  0  0  0  0  0  0  0  0
    9.7562  -15.2885   23.2651 C   0  0  0  0  0  0  0  0  0  0  0  0
   10.3510  -14.3461   23.8467 O   0  0  0  0  0  0  0  0  0  0  0  0
    9.4507  -16.3955   24.1361 N   0  0  0  0  0  0  0  0  0  0  0  0
    9.9820  -16.4396   25.4958 C   0  0  1  0  0  0  0  0  0  0  0  0
    8.7781  -16.5616   26.3887 C   0  0  0  0  0  0  0  0  0  0  0  0
    7.6532  -15.6698   26.0846 C   0  0  0  0  0  0  0  0  0  0  0  0
    6.4305  -16.0316   25.4912 C   0  0  0  0  0  0  0  0  0  0  0  0
    5.6807  -14.9465   25.3369 N   0  0  0  0  0  0  0  0  0  0  0  0
    6.3297  -13.8291   25.8032 C   0  0  0  0  0  0  0  0  0  0  0  0
    5.9514  -12.5090   25.8564 C   0  0  0  0  0  0  0  0  0  0  0  0
    6.8259  -11.5994   26.3947 C   0  0  0  0  0  0  0  0  0  0  0  0
    8.0421  -12.0421   26.8581 C   0  0  0  0  0  0  0  0  0  0  0  0
    8.4058  -13.3585   26.7976 C   0  0  0  0  0  0  0  0  0  0  0  0
    7.5465  -14.3178   26.2563 C   0  0  0  0  0  0  0  0  0  0  0  0
   11.0138  -17.4568   25.6980 C   0  0  0  0  0  0  0  0  0  0  0  0
   10.9679  -18.6224   25.1635 O   0  0  0  0  0  0  0  0  0  0  0  0
   12.1282  -17.2366   26.4839 O   0  0  0  0  0  0  0  0  0  0  0  0
  2  1  1  6
  2  3  1  0
  3  4  1  0
  4  5  1  0
  5  9  1  0
  6  5  2  0
  7  2  1  0
  7  8  2  0
 10  7  1  0
 11 10  1  0
 11 12  1  1
 13 14  2  0
 13 12  1  0
 15 14  1  0
 16 17  2  0
 16 15  1  0
 17 13  1  0
 18 11  1  0
 19 18  2  0
 20 18  1  0
 21 20  1  0
 21 22  1  1
 22 23  1  0
 23 31  1  0
 24 25  1  0
 24 23  2  0
 25 26  1  0
 26 31  2  0
 26 27  1  0
 27 28  2  0
 28 29  1  0
 30 29  2  0
 31 30  1  0
 32 21  1  0
 32 34  1  0
 33 32  2  0
M  END
$$$$
