EHW.pdb
     RDKit          3D

 34 36  0  0  1  0  0  0  0  0999 V2000
   10.5296  -14.1258   19.3991 N   0  0  0  0  0  0  0  0  0  0  0  0
    9.1836  -14.2187   19.8906 C   0  0  1  0  0  0  0  0  0  0  0  0
    8.2032  -14.3956   18.8189 C   0  0  0  0  0  0  0  0  0  0  0  0
    8.7554  -13.8186   17.5145 C   0  0  0  0  0  0  0  0  0  0  0  0
    7.8164  -14.0002   16.3864 C   0  0  0  0  0  0  0  0  0  0  0  0
    6.5683  -13.9717   16.4610 O   0  0  0  0  0  0  0  0  0  0  0  0
    9.0566  -15.1381   21.0673 C   0  0  0  0  0  0  0  0  0  0  0  0
    7.9274  -15.1322   21.6124 O   0  0  0  0  0  0  0  0  0  0  0  0
    8.3472  -14.2182   15.1365 O   0  0  0  0  0  0  0  0  0  0  0  0
   10.1291  -15.9305   21.4954 N   0  0  0  0  0  0  0  0  0  0  0  0
   10.2991  -16.8613   22.5178 C   0  0  1  0  0  0  0  0  0  0  0  0
   11.0585  -18.1069   22.1165 C   0  0  0  0  0  0  0  0  0  0  0  0
   10.4751  -18.8418   20.9932 C   0  0  0  0  0  0  0  0  0  0  0  0
   10.8477  -18.7497   19.6841 C   0  0  0  0  0  0  0  0  0  0  0  0
   10.0853  -19.5568   18.9420 N   0  0  0  0  0  0  0  0  0  0  0  0
    9.2264  -20.1594   19.8109 C   0  0  0  0  0  0  0  0  0  0  0  0
    9.4683  -19.7201   21.0385 N   0  0  0  0  0  0  0  0  0  0  0  0
   10.6053  -16.3927   23.8912 C   0  0  0  0  0  0  0  0  0  0  0  0
   11.6275  -15.7366   24.2152 O   0  0  0  0  0  0  0  0  0  0  0  0
    9.7218  -16.6582   24.9985 N   0  0  0  0  0  0  0  0  0  0  0  0
   10.2128  -16.5941   26.3726 C   0  0  1  0  0  0  0  0  0  0  0  0
    9.7453  -15.2655   26.8997 C   0  0  0  0  0  0  0  0  0  0  0  0
    8.4130  -14.8294   26.4662 C   0  0  0  0  0  0  0  0  0  0  0  0
    7.3740  -15.6491   25.9898 C   0  0  0  0  0  0  0  0  0  0  0  0
    6.3365  -14.8908   25.6552 N   0  0  0  0  0  0  0  0  0  0  0  0
    6.6043  -13.5625   25.8809 C   0  0  0  0  0  0  0  0  0  0  0  0
    5.8438  -12.4331   25.6940 C   0  0  0  0  0  0  0  0  0  0  0  0
    6.3872  -11.2172   26.0229 C   0  0  0  0  0  0  0  0  0  0  0  0
    7.6664  -11.1758   26.5246 C   0  0  0  0  0  0  0  0  0  0  0  0
    8.4121  -12.3074   26.7041 C   0  0  0  0  0  0  0  0  0  0  0  0
    7.8982  -13.5658   26.3813 C   0  0  0  0  0  0  0  0  0  0  0  0
    9.8476  -17.7521   27.1887 C   0  0  0  0  0  0  0  0  0  0  0  0
    9.0554  -18.6769   26.7844 O   0  0  0  0  0  0  0  0  0  0  0  0
   10.3352  -17.9416   28.4671 O   0  0  0  0  0  0  0  0  0  0  0  0
  2  1  1  6
  2  3  1  0
  3  4  1  0
  4  5  1  0
  5  9  1  0
  6  5  2  0
  7  2  1  0
  7  8  2  0
 10  7  1  0
 11 10  1  0
 11 12  1  6
 13 14  2  0
 13 12  1  0
 15 14  1  0
 16 17  2  0
 16 15  1  0
 17 13  1  0
 18 11  1  0
 19 18  2  0
 20 18  1  0
 21 20  1  0
 21 22  1  1
 22 23  1  0
 23 31  1  0
 24 25  1  0
 24 23  2  0
 25 26  1  0
 26 31  2  0
 26 27  1  0
 27 28  2  0
 28 29  1  0
 30 29  2  0
 31 30  1  0
 32 21  1  0
 32 34  1  0
 33 32  2  0
M  END
$$$$
