EHW.pdb
     RDKit          3D

 34 36  0  0  1  0  0  0  0  0999 V2000
   13.1424  -18.8766   18.8079 N   0  0  0  0  0  0  0  0  0  0  0  0
   13.7170  -18.5967   20.0938 C   0  0  1  0  0  0  0  0  0  0  0  0
   15.1455  -18.2888   20.0177 C   0  0  0  0  0  0  0  0  0  0  0  0
   15.3927  -17.2578   18.9153 C   0  0  0  0  0  0  0  0  0  0  0  0
   16.3847  -17.7311   17.9257 C   0  0  0  0  0  0  0  0  0  0  0  0
   17.6161  -17.8379   18.1171 O   0  0  0  0  0  0  0  0  0  0  0  0
   12.8781  -17.6652   20.9151 C   0  0  0  0  0  0  0  0  0  0  0  0
   13.5326  -16.8581   21.6168 O   0  0  0  0  0  0  0  0  0  0  0  0
   15.9283  -18.0924   16.6798 O   0  0  0  0  0  0  0  0  0  0  0  0
   11.4791  -17.7140   20.8758 N   0  0  0  0  0  0  0  0  0  0  0  0
   10.4669  -17.1079   21.6165 C   0  0  1  0  0  0  0  0  0  0  0  0
    9.1299  -17.0309   20.9122 C   0  0  0  0  0  0  0  0  0  0  0  0
    8.0987  -16.2901   21.6402 C   0  0  0  0  0  0  0  0  0  0  0  0
    7.7947  -14.9684   21.4931 C   0  0  0  0  0  0  0  0  0  0  0  0
    6.8092  -14.6378   22.3314 N   0  0  0  0  0  0  0  0  0  0  0  0
    6.4984  -15.7787   23.0081 C   0  0  0  0  0  0  0  0  0  0  0  0
    7.2810  -16.7627   22.5864 N   0  0  0  0  0  0  0  0  0  0  0  0
   10.3602  -17.3800   23.0705 C   0  0  0  0  0  0  0  0  0  0  0  0
   10.4005  -18.5229   23.5924 O   0  0  0  0  0  0  0  0  0  0  0  0
   10.2012  -16.3180   24.0319 N   0  0  0  0  0  0  0  0  0  0  0  0
   10.1445  -16.6123   25.4614 C   0  0  1  0  0  0  0  0  0  0  0  0
    9.8413  -15.2976   26.1256 C   0  0  0  0  0  0  0  0  0  0  0  0
    8.4455  -14.8489   26.0666 C   0  0  0  0  0  0  0  0  0  0  0  0
    7.3103  -15.6572   25.8757 C   0  0  0  0  0  0  0  0  0  0  0  0
    6.2277  -14.8892   25.8367 N   0  0  0  0  0  0  0  0  0  0  0  0
    6.5571  -13.5651   25.9961 C   0  0  0  0  0  0  0  0  0  0  0  0
    5.7840  -12.4294   26.0295 C   0  0  0  0  0  0  0  0  0  0  0  0
    6.4056  -11.2205   26.2139 C   0  0  0  0  0  0  0  0  0  0  0  0
    7.7725  -11.1922   26.3575 C   0  0  0  0  0  0  0  0  0  0  0  0
    8.5294  -12.3300   26.3210 C   0  0  0  0  0  0  0  0  0  0  0  0
    7.9375  -13.5816   26.1341 C   0  0  0  0  0  0  0  0  0  0  0  0
    9.2397  -17.7087   25.8069 C   0  0  0  0  0  0  0  0  0  0  0  0
    8.3141  -18.1309   25.0250 O   0  0  0  0  0  0  0  0  0  0  0  0
    9.3160  -18.3816   27.0109 O   0  0  0  0  0  0  0  0  0  0  0  0
  2  1  1  6
  2  3  1  0
  3  4  1  0
  4  5  1  0
  5  9  1  0
  6  5  2  0
  7  2  1  0
  7  8  2  0
 10  7  1  0
 11 10  1  0
 11 12  1  6
 13 14  2  0
 13 12  1  0
 15 14  1  0
 16 17  2  0
 16 15  1  0
 17 13  1  0
 18 11  1  0
 19 18  2  0
 20 18  1  0
 21 20  1  0
 21 22  1  1
 22 23  1  0
 23 31  1  0
 24 25  1  0
 24 23  2  0
 25 26  1  0
 26 31  2  0
 26 27  1  0
 27 28  2  0
 28 29  1  0
 30 29  2  0
 31 30  1  0
 32 21  1  0
 32 34  1  0
 33 32  2  0
M  END
$$$$
