EHW.pdb
     RDKit          3D

 34 36  0  0  1  0  0  0  0  0999 V2000
    9.1677  -18.5299   19.9053 N   0  0  0  0  0  0  0  0  0  0  0  0
   10.4434  -17.8965   19.7226 C   0  0  1  0  0  0  0  0  0  0  0  0
   10.8923  -17.9246   18.3303 C   0  0  0  0  0  0  0  0  0  0  0  0
   10.9117  -19.3676   17.8236 C   0  0  0  0  0  0  0  0  0  0  0  0
   11.3604  -19.4556   16.4171 C   0  0  0  0  0  0  0  0  0  0  0  0
   12.5055  -19.7802   16.0330 O   0  0  0  0  0  0  0  0  0  0  0  0
   10.5441  -16.5781   20.4280 C   0  0  0  0  0  0  0  0  0  0  0  0
   11.6635  -16.0213   20.3322 O   0  0  0  0  0  0  0  0  0  0  0  0
   10.4482  -19.1596   15.4314 O   0  0  0  0  0  0  0  0  0  0  0  0
    9.4566  -16.0365   21.1246 N   0  0  0  0  0  0  0  0  0  0  0  0
    9.2596  -14.8683   21.8576 C   0  0  1  0  0  0  0  0  0  0  0  0
    8.0916  -14.0241   21.3966 C   0  0  0  0  0  0  0  0  0  0  0  0
    8.0004  -13.8489   19.9464 C   0  0  0  0  0  0  0  0  0  0  0  0
    8.4455  -12.7761   19.2307 C   0  0  0  0  0  0  0  0  0  0  0  0
    8.1802  -12.9592   17.9348 N   0  0  0  0  0  0  0  0  0  0  0  0
    7.5603  -14.1694   17.8495 C   0  0  0  0  0  0  0  0  0  0  0  0
    7.4557  -14.6922   19.0638 N   0  0  0  0  0  0  0  0  0  0  0  0
    9.4358  -14.8893   23.3301 C   0  0  0  0  0  0  0  0  0  0  0  0
    9.6124  -13.8720   24.0471 O   0  0  0  0  0  0  0  0  0  0  0  0
    9.4125  -16.1200   24.0799 N   0  0  0  0  0  0  0  0  0  0  0  0
   10.0201  -16.1936   25.4061 C   0  0  1  0  0  0  0  0  0  0  0  0
    8.8680  -16.3211   26.3641 C   0  0  0  0  0  0  0  0  0  0  0  0
    7.6737  -15.5286   26.0497 C   0  0  0  0  0  0  0  0  0  0  0  0
    6.5242  -15.9736   25.3723 C   0  0  0  0  0  0  0  0  0  0  0  0
    5.6756  -14.9610   25.2381 N   0  0  0  0  0  0  0  0  0  0  0  0
    6.1838  -13.8149   25.7997 C   0  0  0  0  0  0  0  0  0  0  0  0
    5.6703  -12.5445   25.9054 C   0  0  0  0  0  0  0  0  0  0  0  0
    6.4205  -11.5868   26.5393 C   0  0  0  0  0  0  0  0  0  0  0  0
    7.6519  -11.9336   27.0423 C   0  0  0  0  0  0  0  0  0  0  0  0
    8.1509  -13.2013   26.9288 C   0  0  0  0  0  0  0  0  0  0  0  0
    7.4211  -14.2068   26.2899 C   0  0  0  0  0  0  0  0  0  0  0  0
   11.0516  -17.2235   25.5308 C   0  0  0  0  0  0  0  0  0  0  0  0
   11.7360  -17.4088   26.6002 O   0  0  0  0  0  0  0  0  0  0  0  0
   11.3676  -18.0853   24.4986 O   0  0  0  0  0  0  0  0  0  0  0  0
  2  1  1  6
  2  3  1  0
  3  4  1  0
  4  5  1  0
  5  9  1  0
  6  5  2  0
  7  2  1  0
  7  8  2  0
 10  7  1  0
 11 10  1  0
 11 12  1  1
 13 14  2  0
 13 12  1  0
 15 14  1  0
 16 17  2  0
 16 15  1  0
 17 13  1  0
 18 11  1  0
 19 18  2  0
 20 18  1  0
 21 20  1  0
 21 22  1  1
 22 23  1  0
 23 31  1  0
 24 25  1  0
 24 23  2  0
 25 26  1  0
 26 31  2  0
 26 27  1  0
 27 28  2  0
 28 29  1  0
 30 29  2  0
 31 30  1  0
 32 21  1  0
 32 34  1  0
 33 32  2  0
M  END
$$$$
