EHW.pdb
     RDKit          3D

 34 36  0  0  1  0  0  0  0  0999 V2000
   11.8720  -15.0712   17.6599 N   0  0  0  0  0  0  0  0  0  0  0  0
   12.4140  -15.3714   18.9554 C   0  0  1  0  0  0  0  0  0  0  0  0
   13.5906  -14.5624   19.2753 C   0  0  0  0  0  0  0  0  0  0  0  0
   14.8525  -15.4185   19.1577 C   0  0  0  0  0  0  0  0  0  0  0  0
   15.8356  -14.8316   18.2216 C   0  0  0  0  0  0  0  0  0  0  0  0
   16.1917  -13.6331   18.1904 O   0  0  0  0  0  0  0  0  0  0  0  0
   11.3617  -15.4652   20.0183 C   0  0  0  0  0  0  0  0  0  0  0  0
   10.8536  -14.3665   20.3453 O   0  0  0  0  0  0  0  0  0  0  0  0
   16.4218  -15.6655   17.2983 O   0  0  0  0  0  0  0  0  0  0  0  0
   10.9945  -16.6956   20.5773 N   0  0  0  0  0  0  0  0  0  0  0  0
   10.1301  -17.0756   21.6016 C   0  0  1  0  0  0  0  0  0  0  0  0
    9.3443  -18.3392   21.3272 C   0  0  0  0  0  0  0  0  0  0  0  0
    8.4557  -18.7531   22.4141 C   0  0  0  0  0  0  0  0  0  0  0  0
    8.5778  -19.8779   23.1762 C   0  0  0  0  0  0  0  0  0  0  0  0
    7.5788  -19.9321   24.0606 N   0  0  0  0  0  0  0  0  0  0  0  0
    6.8263  -18.8180   23.8403 C   0  0  0  0  0  0  0  0  0  0  0  0
    7.3612  -18.1199   22.8478 N   0  0  0  0  0  0  0  0  0  0  0  0
   10.5621  -16.9368   23.0135 C   0  0  0  0  0  0  0  0  0  0  0  0
   11.6603  -17.3418   23.4720 O   0  0  0  0  0  0  0  0  0  0  0  0
    9.7296  -16.3004   24.0031 N   0  0  0  0  0  0  0  0  0  0  0  0
   10.1940  -16.1510   25.3798 C   0  0  1  0  0  0  0  0  0  0  0  0
    9.9068  -14.7201   25.7425 C   0  0  0  0  0  0  0  0  0  0  0  0
    8.4907  -14.3492   25.8433 C   0  0  0  0  0  0  0  0  0  0  0  0
    7.3887  -15.2226   25.8092 C   0  0  0  0  0  0  0  0  0  0  0  0
    6.2673  -14.5155   25.8849 N   0  0  0  0  0  0  0  0  0  0  0  0
    6.5375  -13.1716   25.9740 C   0  0  0  0  0  0  0  0  0  0  0  0
    5.7105  -12.0787   26.0758 C   0  0  0  0  0  0  0  0  0  0  0  0
    6.2798  -10.8332   26.1569 C   0  0  0  0  0  0  0  0  0  0  0  0
    7.6502  -10.7271   26.1332 C   0  0  0  0  0  0  0  0  0  0  0  0
    8.4609  -11.8231   26.0302 C   0  0  0  0  0  0  0  0  0  0  0  0
    7.9231  -13.1097   25.9440 C   0  0  0  0  0  0  0  0  0  0  0  0
    9.6510  -17.1488   26.3017 C   0  0  0  0  0  0  0  0  0  0  0  0
   10.0379  -17.2668   27.5194 O   0  0  0  0  0  0  0  0  0  0  0  0
    8.6689  -18.0458   25.9290 O   0  0  0  0  0  0  0  0  0  0  0  0
  2  1  1  6
  2  3  1  0
  3  4  1  0
  4  5  1  0
  5  9  1  0
  6  5  2  0
  7  2  1  0
  7  8  2  0
 10  7  1  0
 11 10  1  0
 11 12  1  6
 13 14  2  0
 13 12  1  0
 15 14  1  0
 16 17  2  0
 16 15  1  0
 17 13  1  0
 18 11  1  0
 19 18  2  0
 20 18  1  0
 21 20  1  0
 21 22  1  1
 22 23  1  0
 23 31  1  0
 24 25  1  0
 24 23  2  0
 25 26  1  0
 26 31  2  0
 26 27  1  0
 27 28  2  0
 28 29  1  0
 30 29  2  0
 31 30  1  0
 32 21  1  0
 32 34  1  0
 33 32  2  0
M  END
$$$$
