EHW.pdb
     RDKit          3D

 34 36  0  0  1  0  0  0  0  0999 V2000
    9.4434  -20.6479   21.5046 N   0  0  0  0  0  0  0  0  0  0  0  0
   10.7296  -20.1077   21.1640 C   0  0  1  0  0  0  0  0  0  0  0  0
   11.3713  -20.8302   20.0653 C   0  0  0  0  0  0  0  0  0  0  0  0
   10.9864  -22.3092   20.1263 C   0  0  0  0  0  0  0  0  0  0  0  0
   11.7200  -23.0298   21.1893 C   0  0  0  0  0  0  0  0  0  0  0  0
   12.9636  -23.1029   21.3001 O   0  0  0  0  0  0  0  0  0  0  0  0
   10.7242  -18.6124   21.0639 C   0  0  0  0  0  0  0  0  0  0  0  0
   11.8069  -18.1133   20.6755 O   0  0  0  0  0  0  0  0  0  0  0  0
   10.9834  -23.6808   22.1511 O   0  0  0  0  0  0  0  0  0  0  0  0
    9.5847  -17.8624   21.3807 N   0  0  0  0  0  0  0  0  0  0  0  0
    9.3060  -16.4986   21.4347 C   0  0  1  0  0  0  0  0  0  0  0  0
    8.0312  -16.0872   20.7311 C   0  0  0  0  0  0  0  0  0  0  0  0
    7.8416  -14.6412   20.6080 C   0  0  0  0  0  0  0  0  0  0  0  0
    7.1587  -13.8373   21.4732 C   0  0  0  0  0  0  0  0  0  0  0  0
    7.1846  -12.5773   21.0316 N   0  0  0  0  0  0  0  0  0  0  0  0
    7.8986  -12.6045   19.8717 C   0  0  0  0  0  0  0  0  0  0  0  0
    8.2851  -13.8492   19.6267 N   0  0  0  0  0  0  0  0  0  0  0  0
    9.5651  -15.7473   22.6868 C   0  0  0  0  0  0  0  0  0  0  0  0
    9.7453  -14.5050   22.7552 O   0  0  0  0  0  0  0  0  0  0  0  0
    9.6278  -16.4051   23.9677 N   0  0  0  0  0  0  0  0  0  0  0  0
   10.2078  -15.7266   25.1238 C   0  0  1  0  0  0  0  0  0  0  0  0
    9.1924  -15.8767   26.2228 C   0  0  0  0  0  0  0  0  0  0  0  0
    7.9011  -15.2142   26.0064 C   0  0  0  0  0  0  0  0  0  0  0  0
    6.7027  -15.8235   25.5932 C   0  0  0  0  0  0  0  0  0  0  0  0
    5.7610  -14.8959   25.4665 N   0  0  0  0  0  0  0  0  0  0  0  0
    6.2508  -13.6510   25.7783 C   0  0  0  0  0  0  0  0  0  0  0  0
    5.6542  -12.4131   25.7964 C   0  0  0  0  0  0  0  0  0  0  0  0
    6.4093  -11.3286   26.1644 C   0  0  0  0  0  0  0  0  0  0  0  0
    7.7285  -11.5214   26.4994 C   0  0  0  0  0  0  0  0  0  0  0  0
    8.3095  -12.7586   26.4758 C   0  0  0  0  0  0  0  0  0  0  0  0
    7.5776  -13.8897   26.1060 C   0  0  0  0  0  0  0  0  0  0  0  0
   11.5598  -16.1739   25.4588 C   0  0  0  0  0  0  0  0  0  0  0  0
   12.1034  -17.2175   24.9470 O   0  0  0  0  0  0  0  0  0  0  0  0
   12.3630  -15.4986   26.3570 O   0  0  0  0  0  0  0  0  0  0  0  0
  2  1  1  6
  2  3  1  0
  3  4  1  0
  4  5  1  0
  5  9  1  0
  6  5  2  0
  7  2  1  0
  7  8  2  0
 10  7  1  0
 11 10  1  0
 11 12  1  1
 13 14  2  0
 13 12  1  0
 15 14  1  0
 16 17  2  0
 16 15  1  0
 17 13  1  0
 18 11  1  0
 19 18  2  0
 20 18  1  0
 21 20  1  0
 21 22  1  1
 22 23  1  0
 23 31  1  0
 24 25  1  0
 24 23  2  0
 25 26  1  0
 26 31  2  0
 26 27  1  0
 27 28  2  0
 28 29  1  0
 30 29  2  0
 31 30  1  0
 32 21  1  0
 32 34  1  0
 33 32  2  0
M  END
$$$$
