EHW.pdb
     RDKit          3D

 34 36  0  0  1  0  0  0  0  0999 V2000
    9.1447  -20.1383   18.7091 N   0  0  0  0  0  0  0  0  0  0  0  0
    8.3978  -19.1334   19.4121 C   0  0  1  0  0  0  0  0  0  0  0  0
    7.7119  -19.6627   20.5913 C   0  0  0  0  0  0  0  0  0  0  0  0
    8.7304  -20.3012   21.5370 C   0  0  0  0  0  0  0  0  0  0  0  0
    8.5702  -19.8251   22.9280 C   0  0  0  0  0  0  0  0  0  0  0  0
    8.1002  -18.7187   23.2735 O   0  0  0  0  0  0  0  0  0  0  0  0
    9.1703  -17.8638   19.6055 C   0  0  0  0  0  0  0  0  0  0  0  0
   10.4133  -18.0160   19.6692 O   0  0  0  0  0  0  0  0  0  0  0  0
    8.9660  -20.6630   23.9442 O   0  0  0  0  0  0  0  0  0  0  0  0
    8.5271  -16.6233   19.6985 N   0  0  0  0  0  0  0  0  0  0  0  0
    8.9701  -15.3089   19.8282 C   0  0  1  0  0  0  0  0  0  0  0  0
    8.0122  -14.2653   19.2966 C   0  0  0  0  0  0  0  0  0  0  0  0
    7.9690  -14.1640   17.8371 C   0  0  0  0  0  0  0  0  0  0  0  0
    8.7602  -14.8394   16.9545 C   0  0  0  0  0  0  0  0  0  0  0  0
    8.4455  -14.4845   15.7062 N   0  0  0  0  0  0  0  0  0  0  0  0
    7.4395  -13.5732   15.8212 C   0  0  0  0  0  0  0  0  0  0  0  0
    7.1643  -13.3871   17.1051 N   0  0  0  0  0  0  0  0  0  0  0  0
    9.6792  -14.8937   21.0629 C   0  0  0  0  0  0  0  0  0  0  0  0
   10.1411  -13.7438   21.2739 O   0  0  0  0  0  0  0  0  0  0  0  0
    9.8971  -15.8067   22.1567 N   0  0  0  0  0  0  0  0  0  0  0  0
    9.4807  -15.4554   23.5118 C   0  0  1  0  0  0  0  0  0  0  0  0
    8.0155  -15.1337   23.4061 C   0  0  0  0  0  0  0  0  0  0  0  0
    7.3398  -14.7728   24.6576 C   0  0  0  0  0  0  0  0  0  0  0  0
    6.4745  -15.5868   25.4105 C   0  0  0  0  0  0  0  0  0  0  0  0
    6.0258  -14.9003   26.4548 N   0  0  0  0  0  0  0  0  0  0  0  0
    6.5458  -13.6289   26.4687 C   0  0  0  0  0  0  0  0  0  0  0  0
    6.3747  -12.5818   27.3422 C   0  0  0  0  0  0  0  0  0  0  0  0
    7.0435  -11.4095   27.0966 C   0  0  0  0  0  0  0  0  0  0  0  0
    7.8557  -11.3279   25.9905 C   0  0  0  0  0  0  0  0  0  0  0  0
    8.0155  -12.3774   25.1291 C   0  0  0  0  0  0  0  0  0  0  0  0
    7.3525  -13.5887   25.3407 C   0  0  0  0  0  0  0  0  0  0  0  0
    9.8278  -16.4582   24.5189 C   0  0  0  0  0  0  0  0  0  0  0  0
    9.7676  -16.2383   25.7816 O   0  0  0  0  0  0  0  0  0  0  0  0
   10.2469  -17.7311   24.1840 O   0  0  0  0  0  0  0  0  0  0  0  0
  2  1  1  1
  2  3  1  0
  3  4  1  0
  4  5  1  0
  5  9  1  0
  6  5  2  0
  7  2  1  0
  7  8  2  0
 10  7  1  0
 11 10  1  0
 11 12  1  1
 13 14  2  0
 13 12  1  0
 15 14  1  0
 16 17  2  0
 16 15  1  0
 17 13  1  0
 18 11  1  0
 19 18  2  0
 20 18  1  0
 21 20  1  0
 21 22  1  6
 22 23  1  0
 23 31  1  0
 24 25  1  0
 24 23  2  0
 25 26  1  0
 26 31  2  0
 26 27  1  0
 27 28  2  0
 28 29  1  0
 30 29  2  0
 31 30  1  0
 32 21  1  0
 32 34  1  0
 33 32  2  0
M  END
$$$$
