EHW.pdb
     RDKit          3D

 34 36  0  0  1  0  0  0  0  0999 V2000
    9.3204  -19.1881   17.9753 N   0  0  0  0  0  0  0  0  0  0  0  0
    9.8061  -18.0295   18.6709 C   0  0  1  0  0  0  0  0  0  0  0  0
    9.4322  -16.7781   18.0112 C   0  0  0  0  0  0  0  0  0  0  0  0
    9.6016  -16.9223   16.4979 C   0  0  0  0  0  0  0  0  0  0  0  0
   10.1902  -15.7104   15.8878 C   0  0  0  0  0  0  0  0  0  0  0  0
    9.6199  -14.9486   15.0763 O   0  0  0  0  0  0  0  0  0  0  0  0
    9.5714  -18.0984   20.1495 C   0  0  0  0  0  0  0  0  0  0  0  0
    8.3663  -18.0278   20.4886 O   0  0  0  0  0  0  0  0  0  0  0  0
   11.4780  -15.3759   16.2356 O   0  0  0  0  0  0  0  0  0  0  0  0
   10.6328  -18.2357   21.0528 N   0  0  0  0  0  0  0  0  0  0  0  0
   10.7319  -18.2166   22.4422 C   0  0  1  0  0  0  0  0  0  0  0  0
   11.5032  -19.3753   23.0353 C   0  0  0  0  0  0  0  0  0  0  0  0
   12.7057  -19.7525   22.2909 C   0  0  0  0  0  0  0  0  0  0  0  0
   12.8530  -19.7488   20.9346 C   0  0  0  0  0  0  0  0  0  0  0  0
   14.0809  -20.1653   20.6149 N   0  0  0  0  0  0  0  0  0  0  0  0
   14.7034  -20.4300   21.7975 C   0  0  0  0  0  0  0  0  0  0  0  0
   13.8668  -20.1810   22.7959 N   0  0  0  0  0  0  0  0  0  0  0  0
   10.9579  -16.9290   23.1426 C   0  0  0  0  0  0  0  0  0  0  0  0
   11.1236  -15.8207   22.5729 O   0  0  0  0  0  0  0  0  0  0  0  0
   11.0018  -16.8446   24.5807 N   0  0  0  0  0  0  0  0  0  0  0  0
   10.0784  -15.9729   25.3023 C   0  0  1  0  0  0  0  0  0  0  0  0
    8.7846  -16.0467   24.5392 C   0  0  0  0  0  0  0  0  0  0  0  0
    7.6555  -15.2996   25.1051 C   0  0  0  0  0  0  0  0  0  0  0  0
    6.4253  -15.8314   25.5318 C   0  0  0  0  0  0  0  0  0  0  0  0
    5.6403  -14.8428   25.9436 N   0  0  0  0  0  0  0  0  0  0  0  0
    6.2735  -13.6294   25.8255 C   0  0  0  0  0  0  0  0  0  0  0  0
    5.8641  -12.3526   26.1273 C   0  0  0  0  0  0  0  0  0  0  0  0
    6.7352  -11.3167   25.9037 C   0  0  0  0  0  0  0  0  0  0  0  0
    7.9789  -11.5949   25.3884 C   0  0  0  0  0  0  0  0  0  0  0  0
    8.3724  -12.8701   25.0916 C   0  0  0  0  0  0  0  0  0  0  0  0
    7.5167  -13.9541   25.3025 C   0  0  0  0  0  0  0  0  0  0  0  0
    9.9768  -16.2680   26.7316 C   0  0  0  0  0  0  0  0  0  0  0  0
   10.0102  -15.3639   27.6415 O   0  0  0  0  0  0  0  0  0  0  0  0
    9.8322  -17.5540   27.2148 O   0  0  0  0  0  0  0  0  0  0  0  0
  2  1  1  6
  2  3  1  0
  3  4  1  0
  4  5  1  0
  5  9  1  0
  6  5  2  0
  7  2  1  0
  7  8  2  0
 10  7  1  0
 11 10  1  0
 11 12  1  6
 13 14  2  0
 13 12  1  0
 15 14  1  0
 16 17  2  0
 16 15  1  0
 17 13  1  0
 18 11  1  0
 19 18  2  0
 20 18  1  0
 21 20  1  0
 21 22  1  6
 22 23  1  0
 23 31  1  0
 24 25  1  0
 24 23  2  0
 25 26  1  0
 26 31  2  0
 26 27  1  0
 27 28  2  0
 28 29  1  0
 30 29  2  0
 31 30  1  0
 32 21  1  0
 32 34  1  0
 33 32  2  0
M  END
$$$$
