QDT.pdb
     RDKit          3D

 25 24  0  0  1  0  0  0  0  0999 V2000
   27.8539  -11.2550  -15.8233 N   0  0  0  0  0  0  0  0  0  0  0  0
   27.3284  -12.5713  -15.7650 C   0  0  0  0  0  0  0  0  0  0  0  0
   28.1130  -13.5154  -15.5742 O   0  0  0  0  0  0  0  0  0  0  0  0
   25.8939  -12.7882  -15.9330 C   0  0  0  0  0  0  0  0  0  0  0  0
   25.0201  -11.5869  -16.0183 C   0  0  0  0  0  0  0  0  0  0  0  0
   23.5874  -11.9533  -16.0884 C   0  0  2  0  0  0  0  0  0  0  0  0
   23.2553  -12.7293  -17.2459 N   0  0  0  0  0  0  0  0  0  0  0  0
   22.6966  -10.7309  -16.0929 C   0  0  0  0  0  0  0  0  0  0  0  0
   22.5382  -10.0427  -17.1336 O   0  0  0  0  0  0  0  0  0  0  0  0
   22.0059  -10.3194  -14.9112 N   0  0  0  0  0  0  0  0  0  0  0  0
   21.1470   -9.1717  -14.8610 C   0  0  1  0  0  0  0  0  0  0  0  0
   19.8491   -9.4407  -14.1580 C   0  0  0  0  0  0  0  0  0  0  0  0
   19.0482  -10.4983  -14.7507 C   0  0  0  0  0  0  0  0  0  0  0  0
   18.9318  -11.6053  -14.1881 O   0  0  0  0  0  0  0  0  0  0  0  0
   21.8418   -7.9687  -14.3336 C   0  0  0  0  0  0  0  0  0  0  0  0
   22.5714   -8.0601  -13.3140 O   0  0  0  0  0  0  0  0  0  0  0  0
   18.3980  -10.3029  -15.9496 O   0  0  0  0  0  0  0  0  0  0  0  0
   24.2409   -5.7488  -16.2581 C   0  0  0  0  0  0  0  0  0  0  0  0
   23.1032   -4.9222  -15.7475 C   0  0  1  0  0  0  0  0  0  0  0  0
   22.1020   -4.7217  -16.6912 O   0  0  0  0  0  0  0  0  0  0  0  0
   22.4357   -5.5285  -14.5239 C   0  0  2  0  0  0  0  0  0  0  0  0
   21.6997   -6.7051  -14.9604 N   0  0  0  0  0  0  0  0  0  0  0  0
   21.5313   -4.5042  -13.9692 C   0  0  0  0  0  0  0  0  0  0  0  0
   22.0626   -3.3991  -13.3437 O   0  0  0  0  0  0  0  0  0  0  0  0
   20.2972   -4.6469  -14.0707 O   0  0  0  0  0  0  0  0  0  0  0  0
  2  1  1  0
  2  3  2  0
  4  5  1  0
  4  2  1  0
  5  6  1  0
  6  7  1  6
  8  6  1  0
  8  9  2  0
 10  8  1  0
 11 10  1  0
 11 12  1  1
 13 12  1  0
 14 13  2  0
 15 11  1  0
 16 15  2  0
 17 13  1  0
 19 20  1  0
 19 18  1  6
 21 19  1  0
 21 22  1  6
 22 15  1  0
 23 24  1  0
 23 21  1  0
 25 23  2  0
M  END
$$$$
