QDT.pdb
     RDKit          3D

 25 24  0  0  1  0  0  0  0  0999 V2000
   15.2766  -11.1695  -15.5387 N   0  0  0  0  0  0  0  0  0  0  0  0
   16.0296  -12.3550  -15.7376 C   0  0  0  0  0  0  0  0  0  0  0  0
   15.4908  -13.3088  -16.3235 O   0  0  0  0  0  0  0  0  0  0  0  0
   17.4048  -12.4316  -15.2516 C   0  0  0  0  0  0  0  0  0  0  0  0
   17.9687  -11.2267  -14.5851 C   0  0  0  0  0  0  0  0  0  0  0  0
   18.1296  -10.0997  -15.5316 C   0  0  2  0  0  0  0  0  0  0  0  0
   18.7840  -10.4706  -16.7508 N   0  0  0  0  0  0  0  0  0  0  0  0
   18.9210   -8.9646  -14.9209 C   0  0  0  0  0  0  0  0  0  0  0  0
   18.6489   -8.5214  -13.7758 O   0  0  0  0  0  0  0  0  0  0  0  0
   20.0054   -8.3594  -15.6285 N   0  0  0  0  0  0  0  0  0  0  0  0
   20.7285   -7.2222  -15.1375 C   0  0  1  0  0  0  0  0  0  0  0  0
   22.2155   -7.4218  -15.1514 C   0  0  0  0  0  0  0  0  0  0  0  0
   22.9790   -6.3184  -14.5941 C   0  0  0  0  0  0  0  0  0  0  0  0
   23.9976   -5.8883  -15.1714 O   0  0  0  0  0  0  0  0  0  0  0  0
   20.3170   -5.9598  -15.8047 C   0  0  0  0  0  0  0  0  0  0  0  0
   20.5389   -5.7954  -17.0311 O   0  0  0  0  0  0  0  0  0  0  0  0
   22.5953   -5.7204  -13.4137 O   0  0  0  0  0  0  0  0  0  0  0  0
   16.9940   -4.3679  -16.3491 C   0  0  0  0  0  0  0  0  0  0  0  0
   17.8176   -3.4556  -15.4961 C   0  0  1  0  0  0  0  0  0  0  0  0
   17.5700   -3.6018  -14.1357 O   0  0  0  0  0  0  0  0  0  0  0  0
   19.3118   -3.6532  -15.6922 C   0  0  2  0  0  0  0  0  0  0  0  0
   19.6725   -4.9240  -15.0827 N   0  0  0  0  0  0  0  0  0  0  0  0
   19.9910   -2.5261  -15.0265 C   0  0  0  0  0  0  0  0  0  0  0  0
   20.7106   -2.7539  -13.8754 O   0  0  0  0  0  0  0  0  0  0  0  0
   19.9084   -1.3802  -15.5098 O   0  0  0  0  0  0  0  0  0  0  0  0
  2  1  1  0
  2  3  2  0
  4  5  1  0
  4  2  1  0
  5  6  1  0
  6  7  1  6
  8  6  1  0
  8  9  2  0
 10  8  1  0
 11 10  1  0
 11 12  1  6
 13 12  1  0
 14 13  2  0
 15 11  1  0
 16 15  2  0
 17 13  1  0
 19 20  1  0
 19 18  1  6
 21 19  1  0
 21 22  1  1
 22 15  1  0
 23 24  1  0
 23 21  1  0
 25 23  2  0
M  END
$$$$
