QDT.pdb
     RDKit          3D

 25 24  0  0  1  0  0  0  0  0999 V2000
   21.8685  -14.1186  -16.4433 N   0  0  0  0  0  0  0  0  0  0  0  0
   21.0412  -14.6228  -17.4794 C   0  0  0  0  0  0  0  0  0  0  0  0
   19.9064  -14.1378  -17.6215 O   0  0  0  0  0  0  0  0  0  0  0  0
   21.5320  -15.6920  -18.3448 C   0  0  0  0  0  0  0  0  0  0  0  0
   22.8810  -16.2492  -18.0552 C   0  0  0  0  0  0  0  0  0  0  0  0
   23.2421  -17.3325  -18.9975 C   0  0  2  0  0  0  0  0  0  0  0  0
   22.3885  -17.3943  -20.1463 N   0  0  0  0  0  0  0  0  0  0  0  0
   23.2028  -18.6898  -18.3314 C   0  0  0  0  0  0  0  0  0  0  0  0
   22.2720  -19.5034  -18.5626 O   0  0  0  0  0  0  0  0  0  0  0  0
   24.2251  -19.0904  -17.4164 N   0  0  0  0  0  0  0  0  0  0  0  0
   24.2574  -20.3790  -16.7873 C   0  0  1  0  0  0  0  0  0  0  0  0
   25.6486  -20.9157  -16.6208 C   0  0  0  0  0  0  0  0  0  0  0  0
   25.7145  -22.2957  -16.1710 C   0  0  0  0  0  0  0  0  0  0  0  0
   24.6767  -22.9282  -15.8904 O   0  0  0  0  0  0  0  0  0  0  0  0
   23.4798  -20.4095  -15.5214 C   0  0  0  0  0  0  0  0  0  0  0  0
   24.0100  -20.0255  -14.4482 O   0  0  0  0  0  0  0  0  0  0  0  0
   26.9263  -22.9389  -16.0438 O   0  0  0  0  0  0  0  0  0  0  0  0
   20.6862  -18.4926  -14.9360 C   0  0  0  0  0  0  0  0  0  0  0  0
   21.2043  -19.3843  -13.8521 C   0  0  1  0  0  0  0  0  0  0  0  0
   20.4144  -19.3754  -12.7079 O   0  0  0  0  0  0  0  0  0  0  0  0
   21.3252  -20.8351  -14.2887 C   0  0  2  0  0  0  0  0  0  0  0  0
   22.1382  -20.8667  -15.4947 N   0  0  0  0  0  0  0  0  0  0  0  0
   19.9592  -21.3267  -14.5486 C   0  0  0  0  0  0  0  0  0  0  0  0
   19.5733  -21.6016  -15.8410 O   0  0  0  0  0  0  0  0  0  0  0  0
   19.1680  -21.4888  -13.5993 O   0  0  0  0  0  0  0  0  0  0  0  0
  2  1  1  0
  2  3  2  0
  4  5  1  0
  4  2  1  0
  5  6  1  0
  6  7  1  6
  8  6  1  0
  8  9  2  0
 10  8  1  0
 11 10  1  0
 11 12  1  1
 13 12  1  0
 14 13  2  0
 15 11  1  0
 16 15  2  0
 17 13  1  0
 19 20  1  0
 19 18  1  6
 21 19  1  0
 21 22  1  6
 22 15  1  0
 23 24  1  0
 23 21  1  0
 25 23  2  0
M  END
$$$$
