QDT.pdb
     RDKit          3D

 25 24  0  0  1  0  0  0  0  0999 V2000
   18.5552  -18.1656  -12.1862 N   0  0  0  0  0  0  0  0  0  0  0  0
   17.5632  -19.1412  -12.4624 C   0  0  0  0  0  0  0  0  0  0  0  0
   16.3979  -18.9240  -12.0906 O   0  0  0  0  0  0  0  0  0  0  0  0
   17.9277  -20.3683  -13.1654 C   0  0  0  0  0  0  0  0  0  0  0  0
   19.3561  -20.5497  -13.5408 C   0  0  0  0  0  0  0  0  0  0  0  0
   19.6754  -19.8858  -14.8249 C   0  0  2  0  0  0  0  0  0  0  0  0
   18.8603  -20.3340  -15.9144 N   0  0  0  0  0  0  0  0  0  0  0  0
   21.1190  -20.1005  -15.2222 C   0  0  0  0  0  0  0  0  0  0  0  0
   21.7353  -21.1485  -14.9006 O   0  0  0  0  0  0  0  0  0  0  0  0
   21.8286  -19.1160  -15.9772 N   0  0  0  0  0  0  0  0  0  0  0  0
   23.2266  -19.2152  -16.2824 C   0  0  1  0  0  0  0  0  0  0  0  0
   23.6797  -18.2027  -17.2927 C   0  0  0  0  0  0  0  0  0  0  0  0
   25.0792  -18.3080  -17.6686 C   0  0  0  0  0  0  0  0  0  0  0  0
   25.6888  -19.3918  -17.5710 O   0  0  0  0  0  0  0  0  0  0  0  0
   24.0727  -19.2190  -15.0609 C   0  0  0  0  0  0  0  0  0  0  0  0
   24.0852  -18.2174  -14.3012 O   0  0  0  0  0  0  0  0  0  0  0  0
   25.7666  -17.2120  -18.1423 O   0  0  0  0  0  0  0  0  0  0  0  0
   25.1863  -22.4006  -12.8513 C   0  0  0  0  0  0  0  0  0  0  0  0
   25.6822  -21.0175  -12.5696 C   0  0  1  0  0  0  0  0  0  0  0  0
   26.8194  -20.9929  -11.7701 O   0  0  0  0  0  0  0  0  0  0  0  0
   26.0190  -20.2425  -13.8330 C   0  0  2  0  0  0  0  0  0  0  0  0
   24.8759  -20.3386  -14.7276 N   0  0  0  0  0  0  0  0  0  0  0  0
   27.2166  -20.8698  -14.4222 C   0  0  0  0  0  0  0  0  0  0  0  0
   28.4382  -20.7042  -13.8098 O   0  0  0  0  0  0  0  0  0  0  0  0
   27.1134  -21.5427  -15.4663 O   0  0  0  0  0  0  0  0  0  0  0  0
  2  1  1  0
  2  3  2  0
  4  5  1  0
  4  2  1  0
  5  6  1  0
  6  7  1  6
  8  6  1  0
  8  9  2  0
 10  8  1  0
 11 10  1  0
 11 12  1  6
 13 12  1  0
 14 13  2  0
 15 11  1  0
 16 15  2  0
 17 13  1  0
 19 20  1  0
 19 18  1  6
 21 19  1  0
 21 22  1  6
 22 15  1  0
 23 24  1  0
 23 21  1  0
 25 23  2  0
M  END
$$$$
