QDT.pdb
     RDKit          3D

 25 24  0  0  1  0  0  0  0  0999 V2000
   28.7948  -21.3742  -10.1201 N   0  0  0  0  0  0  0  0  0  0  0  0
   29.8855  -21.2997  -11.0239 C   0  0  0  0  0  0  0  0  0  0  0  0
   30.9088  -21.9583  -10.7745 O   0  0  0  0  0  0  0  0  0  0  0  0
   29.7868  -20.4568  -12.2126 C   0  0  0  0  0  0  0  0  0  0  0  0
   28.5069  -19.7330  -12.4405 C   0  0  0  0  0  0  0  0  0  0  0  0
   27.4556  -20.6296  -12.9722 C   0  0  2  0  0  0  0  0  0  0  0  0
   27.8625  -21.3521  -14.1405 N   0  0  0  0  0  0  0  0  0  0  0  0
   26.1976  -19.8684  -13.3267 C   0  0  0  0  0  0  0  0  0  0  0  0
   25.6853  -19.0454  -12.5255 O   0  0  0  0  0  0  0  0  0  0  0  0
   25.5508  -20.0618  -14.5865 N   0  0  0  0  0  0  0  0  0  0  0  0
   24.3491  -19.3776  -14.9674 C   0  0  1  0  0  0  0  0  0  0  0  0
   24.3875  -18.8653  -16.3771 C   0  0  0  0  0  0  0  0  0  0  0  0
   23.2458  -18.0503  -16.7556 C   0  0  0  0  0  0  0  0  0  0  0  0
   23.0881  -17.6773  -17.9353 O   0  0  0  0  0  0  0  0  0  0  0  0
   23.1294  -20.1783  -14.6854 C   0  0  0  0  0  0  0  0  0  0  0  0
   22.9637  -21.2909  -15.2467 O   0  0  0  0  0  0  0  0  0  0  0  0
   22.3095  -17.6698  -15.8192 O   0  0  0  0  0  0  0  0  0  0  0  0
   21.8972  -21.1088  -11.1610 C   0  0  0  0  0  0  0  0  0  0  0  0
   20.8077  -20.4126  -11.9138 C   0  0  1  0  0  0  0  0  0  0  0  0
   20.7064  -19.0597  -11.6093 O   0  0  0  0  0  0  0  0  0  0  0  0
   20.9765  -20.5100  -13.4212 C   0  0  2  0  0  0  0  0  0  0  0  0
   22.1363  -19.7119  -13.7878 N   0  0  0  0  0  0  0  0  0  0  0  0
   19.7439  -19.9790  -14.0324 C   0  0  0  0  0  0  0  0  0  0  0  0
   18.5529  -20.6415  -13.8394 O   0  0  0  0  0  0  0  0  0  0  0  0
   19.7903  -18.9381  -14.7165 O   0  0  0  0  0  0  0  0  0  0  0  0
  2  1  1  0
  2  3  2  0
  4  5  1  0
  4  2  1  0
  5  6  1  0
  6  7  1  6
  8  6  1  0
  8  9  2  0
 10  8  1  0
 11 10  1  0
 11 12  1  6
 13 12  1  0
 14 13  2  0
 15 11  1  0
 16 15  2  0
 17 13  1  0
 19 20  1  0
 19 18  1  1
 21 19  1  0
 21 22  1  6
 22 15  1  0
 23 24  1  0
 23 21  1  0
 25 23  2  0
M  END
$$$$
