QDT.pdb
     RDKit          3D

 25 24  0  0  1  0  0  0  0  0999 V2000
   18.4004  -13.6758  -16.3594 N   0  0  0  0  0  0  0  0  0  0  0  0
   17.0286  -14.0096  -16.2217 C   0  0  0  0  0  0  0  0  0  0  0  0
   16.7229  -15.2003  -16.0427 O   0  0  0  0  0  0  0  0  0  0  0  0
   16.0152  -12.9606  -16.2969 C   0  0  0  0  0  0  0  0  0  0  0  0
   16.4829  -11.5636  -16.5059 C   0  0  0  0  0  0  0  0  0  0  0  0
   16.8999  -10.9278  -15.2356 C   0  0  2  0  0  0  0  0  0  0  0  0
   15.8323  -10.7943  -14.2897 N   0  0  0  0  0  0  0  0  0  0  0  0
   17.4774   -9.5485  -15.4633 C   0  0  0  0  0  0  0  0  0  0  0  0
   18.3703   -9.3492  -16.3261 O   0  0  0  0  0  0  0  0  0  0  0  0
   17.0245   -8.4264  -14.7026 N   0  0  0  0  0  0  0  0  0  0  0  0
   17.5885   -7.1133  -14.8251 C   0  0  1  0  0  0  0  0  0  0  0  0
   16.5796   -6.0207  -14.6259 C   0  0  0  0  0  0  0  0  0  0  0  0
   17.1040   -4.6759  -14.7919 C   0  0  0  0  0  0  0  0  0  0  0  0
   17.3471   -3.9566  -13.8023 O   0  0  0  0  0  0  0  0  0  0  0  0
   18.7956   -6.9355  -13.9770 C   0  0  0  0  0  0  0  0  0  0  0  0
   18.7307   -7.1437  -12.7390 O   0  0  0  0  0  0  0  0  0  0  0  0
   17.3452   -4.1630  -16.0476 O   0  0  0  0  0  0  0  0  0  0  0  0
   22.1132   -8.6795  -14.1063 C   0  0  0  0  0  0  0  0  0  0  0  0
   22.3269   -7.2181  -14.3447 C   0  0  1  0  0  0  0  0  0  0  0  0
   22.3950   -6.8847  -15.6928 O   0  0  0  0  0  0  0  0  0  0  0  0
   21.2344   -6.3547  -13.7354 C   0  0  2  0  0  0  0  0  0  0  0  0
   20.0335   -6.5317  -14.5374 N   0  0  0  0  0  0  0  0  0  0  0  0
   21.7082   -4.9588  -13.7783 C   0  0  0  0  0  0  0  0  0  0  0  0
   22.7755   -4.5819  -12.9951 O   0  0  0  0  0  0  0  0  0  0  0  0
   21.1402   -4.1343  -14.5207 O   0  0  0  0  0  0  0  0  0  0  0  0
  2  1  1  0
  2  3  2  0
  4  5  1  0
  4  2  1  0
  5  6  1  0
  6  7  1  1
  8  6  1  0
  8  9  2  0
 10  8  1  0
 11 10  1  0
 11 12  1  1
 13 12  1  0
 14 13  2  0
 15 11  1  0
 16 15  2  0
 17 13  1  0
 19 20  1  0
 19 18  1  6
 21 19  1  0
 21 22  1  6
 22 15  1  0
 23 24  1  0
 23 21  1  0
 25 23  2  0
M  END
$$$$
