QDT.pdb
     RDKit          3D

 25 24  0  0  1  0  0  0  0  0999 V2000
   24.2770  -20.7089   -9.7683 N   0  0  0  0  0  0  0  0  0  0  0  0
   25.5999  -20.4511   -9.3262 C   0  0  0  0  0  0  0  0  0  0  0  0
   25.8464  -20.5346   -8.1115 O   0  0  0  0  0  0  0  0  0  0  0  0
   26.6321  -20.0924  -10.2952 C   0  0  0  0  0  0  0  0  0  0  0  0
   26.2319  -19.9953  -11.7250 C   0  0  0  0  0  0  0  0  0  0  0  0
   25.2781  -21.0629  -12.1024 C   0  0  2  0  0  0  0  0  0  0  0  0
   25.8629  -22.3706  -12.1104 N   0  0  0  0  0  0  0  0  0  0  0  0
   24.6850  -20.8245  -13.4732 C   0  0  0  0  0  0  0  0  0  0  0  0
   24.9225  -19.7676  -14.1122 O   0  0  0  0  0  0  0  0  0  0  0  0
   23.8340  -21.7957  -14.0859 N   0  0  0  0  0  0  0  0  0  0  0  0
   23.2399  -21.6175  -15.3792 C   0  0  1  0  0  0  0  0  0  0  0  0
   22.7492  -22.9012  -15.9813 C   0  0  0  0  0  0  0  0  0  0  0  0
   22.2830  -22.7866  -17.3526 C   0  0  0  0  0  0  0  0  0  0  0  0
   21.2674  -23.4001  -17.7372 O   0  0  0  0  0  0  0  0  0  0  0  0
   22.2024  -20.5537  -15.3826 C   0  0  0  0  0  0  0  0  0  0  0  0
   21.4019  -20.4526  -14.4186 O   0  0  0  0  0  0  0  0  0  0  0  0
   22.9526  -21.9968  -18.2614 O   0  0  0  0  0  0  0  0  0  0  0  0
   22.8091  -16.6740  -16.3893 C   0  0  0  0  0  0  0  0  0  0  0  0
   21.7675  -17.3775  -17.2006 C   0  0  1  0  0  0  0  0  0  0  0  0
   22.2533  -17.8807  -18.4024 O   0  0  0  0  0  0  0  0  0  0  0  0
   21.1333  -18.5450  -16.4624 C   0  0  2  0  0  0  0  0  0  0  0  0
   22.0924  -19.6390  -16.4601 N   0  0  0  0  0  0  0  0  0  0  0  0
   19.9059  -18.9081  -17.1949 C   0  0  0  0  0  0  0  0  0  0  0  0
   19.8935  -20.0424  -17.9746 O   0  0  0  0  0  0  0  0  0  0  0  0
   18.8932  -18.1875  -17.1024 O   0  0  0  0  0  0  0  0  0  0  0  0
  2  1  1  0
  2  3  2  0
  4  5  1  0
  4  2  1  0
  5  6  1  0
  6  7  1  6
  8  6  1  0
  8  9  2  0
 10  8  1  0
 11 10  1  0
 11 12  1  1
 13 12  1  0
 14 13  2  0
 15 11  1  0
 16 15  2  0
 17 13  1  0
 19 20  1  0
 19 18  1  1
 21 19  1  0
 21 22  1  6
 22 15  1  0
 23 24  1  0
 23 21  1  0
 25 23  2  0
M  END
$$$$
