QDT.pdb
     RDKit          3D

 25 24  0  0  1  0  0  0  0  0999 V2000
   16.4886  -13.4218  -16.7926 N   0  0  0  0  0  0  0  0  0  0  0  0
   15.1574  -12.9364  -16.8592 C   0  0  0  0  0  0  0  0  0  0  0  0
   14.3056  -13.6201  -17.4510 O   0  0  0  0  0  0  0  0  0  0  0  0
   14.8199  -11.6562  -16.2425 C   0  0  0  0  0  0  0  0  0  0  0  0
   15.8982  -10.9374  -15.5113 C   0  0  0  0  0  0  0  0  0  0  0  0
   16.3830   -9.7595  -16.2658 C   0  0  2  0  0  0  0  0  0  0  0  0
   16.8459  -10.0797  -17.5831 N   0  0  0  0  0  0  0  0  0  0  0  0
   17.5152   -9.0611  -15.5460 C   0  0  0  0  0  0  0  0  0  0  0  0
   17.3723   -8.6216  -14.3763 O   0  0  0  0  0  0  0  0  0  0  0  0
   18.7856   -8.8788  -16.1750 N   0  0  0  0  0  0  0  0  0  0  0  0
   19.8972   -8.2392  -15.5327 C   0  0  1  0  0  0  0  0  0  0  0  0
   21.1188   -9.1083  -15.4717 C   0  0  0  0  0  0  0  0  0  0  0  0
   22.2645   -8.4962  -14.8207 C   0  0  0  0  0  0  0  0  0  0  0  0
   23.3983   -9.0092  -14.9043 O   0  0  0  0  0  0  0  0  0  0  0  0
   20.1817   -6.8959  -16.1007 C   0  0  0  0  0  0  0  0  0  0  0  0
   20.6177   -6.7889  -17.2749 O   0  0  0  0  0  0  0  0  0  0  0  0
   22.1252   -7.3335  -14.0948 O   0  0  0  0  0  0  0  0  0  0  0  0
   18.1403   -3.7993  -16.7519 C   0  0  0  0  0  0  0  0  0  0  0  0
   19.1811   -3.4824  -15.7251 C   0  0  1  0  0  0  0  0  0  0  0  0
   18.7068   -3.5556  -14.4201 O   0  0  0  0  0  0  0  0  0  0  0  0
   20.3877   -4.4033  -15.8040 C   0  0  2  0  0  0  0  0  0  0  0  0
   19.9705   -5.7178  -15.3409 N   0  0  0  0  0  0  0  0  0  0  0  0
   21.4294   -3.8317  -14.9305 C   0  0  0  0  0  0  0  0  0  0  0  0
   22.0308   -2.6444  -15.2818 O   0  0  0  0  0  0  0  0  0  0  0  0
   21.7559   -4.4261  -13.8848 O   0  0  0  0  0  0  0  0  0  0  0  0
  2  1  1  0
  2  3  2  0
  4  5  1  0
  4  2  1  0
  5  6  1  0
  6  7  1  6
  8  6  1  0
  8  9  2  0
 10  8  1  0
 11 10  1  0
 11 12  1  6
 13 12  1  0
 14 13  2  0
 15 11  1  0
 16 15  2  0
 17 13  1  0
 19 20  1  0
 19 18  1  6
 21 19  1  0
 21 22  1  1
 22 15  1  0
 23 24  1  0
 23 21  1  0
 25 23  2  0
M  END
$$$$
