QDT.pdb
     RDKit          3D

 25 24  0  0  1  0  0  0  0  0999 V2000
   16.1969  -13.7388  -15.1586 N   0  0  0  0  0  0  0  0  0  0  0  0
   17.5531  -13.4242  -15.4299 C   0  0  0  0  0  0  0  0  0  0  0  0
   18.4280  -14.2467  -15.1119 O   0  0  0  0  0  0  0  0  0  0  0  0
   17.8902  -12.1532  -16.0656 C   0  0  0  0  0  0  0  0  0  0  0  0
   18.4300  -11.0705  -15.1992 C   0  0  0  0  0  0  0  0  0  0  0  0
   19.4074  -10.2248  -15.9212 C   0  0  2  0  0  0  0  0  0  0  0  0
   20.5852  -10.9343  -16.3231 N   0  0  0  0  0  0  0  0  0  0  0  0
   19.8530   -9.0460  -15.0847 C   0  0  0  0  0  0  0  0  0  0  0  0
   20.2847   -9.2027  -13.9139 O   0  0  0  0  0  0  0  0  0  0  0  0
   19.7968   -7.7143  -15.6008 N   0  0  0  0  0  0  0  0  0  0  0  0
   20.2573   -6.5679  -14.8721 C   0  0  1  0  0  0  0  0  0  0  0  0
   21.6750   -6.7036  -14.3999 C   0  0  0  0  0  0  0  0  0  0  0  0
   22.1926   -5.5413  -13.6983 C   0  0  0  0  0  0  0  0  0  0  0  0
   22.9234   -4.7149  -14.2802 O   0  0  0  0  0  0  0  0  0  0  0  0
   20.0210   -5.2986  -15.6077 C   0  0  0  0  0  0  0  0  0  0  0  0
   20.6607   -5.0540  -16.6618 O   0  0  0  0  0  0  0  0  0  0  0  0
   21.8878   -5.3245  -12.3723 O   0  0  0  0  0  0  0  0  0  0  0  0
   16.6739   -4.0037  -16.9399 C   0  0  0  0  0  0  0  0  0  0  0  0
   17.2625   -3.0176  -15.9811 C   0  0  1  0  0  0  0  0  0  0  0  0
   16.7626   -3.1405  -14.6894 O   0  0  0  0  0  0  0  0  0  0  0  0
   18.7750   -3.1264  -15.8767 C   0  0  2  0  0  0  0  0  0  0  0  0
   19.0801   -4.3453  -15.1434 N   0  0  0  0  0  0  0  0  0  0  0  0
   19.2484   -1.9315  -15.1535 C   0  0  0  0  0  0  0  0  0  0  0  0
   19.1564   -0.6962  -15.7538 O   0  0  0  0  0  0  0  0  0  0  0  0
   19.7264   -2.0493  -14.0084 O   0  0  0  0  0  0  0  0  0  0  0  0
  2  1  1  0
  2  3  2  0
  4  5  1  0
  4  2  1  0
  5  6  1  0
  6  7  1  1
  8  6  1  0
  8  9  2  0
 10  8  1  0
 11 10  1  0
 11 12  1  6
 13 12  1  0
 14 13  2  0
 15 11  1  0
 16 15  2  0
 17 13  1  0
 19 20  1  0
 19 18  1  6
 21 19  1  0
 21 22  1  1
 22 15  1  0
 23 24  1  0
 23 21  1  0
 25 23  2  0
M  END
$$$$
