QDT.pdb
     RDKit          3D

 25 24  0  0  1  0  0  0  0  0999 V2000
   17.0537  -13.2378  -14.9752 N   0  0  0  0  0  0  0  0  0  0  0  0
   16.9411  -12.9056  -16.3496 C   0  0  0  0  0  0  0  0  0  0  0  0
   16.5605  -13.7826  -17.1427 O   0  0  0  0  0  0  0  0  0  0  0  0
   17.2752  -11.5570  -16.8001 C   0  0  0  0  0  0  0  0  0  0  0  0
   17.6729  -10.5633  -15.7665 C   0  0  0  0  0  0  0  0  0  0  0  0
   19.0958  -10.1756  -15.8955 C   0  0  2  0  0  0  0  0  0  0  0  0
   20.0019  -11.1617  -15.3867 N   0  0  0  0  0  0  0  0  0  0  0  0
   19.3897   -8.8778  -15.1764 C   0  0  0  0  0  0  0  0  0  0  0  0
   18.9787   -8.6729  -14.0056 O   0  0  0  0  0  0  0  0  0  0  0  0
   20.1456   -7.8418  -15.8073 N   0  0  0  0  0  0  0  0  0  0  0  0
   20.5541   -6.6435  -15.1331 C   0  0  1  0  0  0  0  0  0  0  0  0
   21.8041   -6.8235  -14.3228 C   0  0  0  0  0  0  0  0  0  0  0  0
   22.2721   -5.6195  -13.6576 C   0  0  0  0  0  0  0  0  0  0  0  0
   21.7696   -5.2475  -12.5784 O   0  0  0  0  0  0  0  0  0  0  0  0
   20.6333   -5.4776  -16.0509 C   0  0  0  0  0  0  0  0  0  0  0  0
   21.4769   -5.4670  -16.9830 O   0  0  0  0  0  0  0  0  0  0  0  0
   23.2831   -4.8596  -14.2040 O   0  0  0  0  0  0  0  0  0  0  0  0
   17.8828   -3.7811  -18.2180 C   0  0  0  0  0  0  0  0  0  0  0  0
   18.4269   -2.8445  -17.1860 C   0  0  1  0  0  0  0  0  0  0  0  0
   17.6609   -2.7985  -16.0265 O   0  0  0  0  0  0  0  0  0  0  0  0
   19.8437   -3.1937  -16.7605 C   0  0  2  0  0  0  0  0  0  0  0  0
   19.7700   -4.3636  -15.8988 N   0  0  0  0  0  0  0  0  0  0  0  0
   20.3809   -2.0264  -16.0368 C   0  0  0  0  0  0  0  0  0  0  0  0
   20.6742   -0.8752  -16.7320 O   0  0  0  0  0  0  0  0  0  0  0  0
   20.5644   -2.0914  -14.8057 O   0  0  0  0  0  0  0  0  0  0  0  0
  2  1  1  0
  2  3  2  0
  4  5  1  0
  4  2  1  0
  5  6  1  0
  6  7  1  1
  8  6  1  0
  8  9  2  0
 10  8  1  0
 11 10  1  0
 11 12  1  6
 13 12  1  0
 14 13  2  0
 15 11  1  0
 16 15  2  0
 17 13  1  0
 19 20  1  0
 19 18  1  6
 21 19  1  0
 21 22  1  1
 22 15  1  0
 23 24  1  0
 23 21  1  0
 25 23  2  0
M  END
$$$$
