QDT.pdb
     RDKit          3D

 25 24  0  0  1  0  0  0  0  0999 V2000
   21.2341  -12.5207  -20.5386 N   0  0  0  0  0  0  0  0  0  0  0  0
   21.9093  -13.2094  -19.4984 C   0  0  0  0  0  0  0  0  0  0  0  0
   22.4648  -14.2882  -19.7643 O   0  0  0  0  0  0  0  0  0  0  0  0
   21.9336  -12.6458  -18.1512 C   0  0  0  0  0  0  0  0  0  0  0  0
   21.2859  -11.3221  -17.9456 C   0  0  0  0  0  0  0  0  0  0  0  0
   20.4281  -11.3115  -16.7390 C   0  0  2  0  0  0  0  0  0  0  0  0
   19.3432  -12.2448  -16.8049 N   0  0  0  0  0  0  0  0  0  0  0  0
   19.8332   -9.9439  -16.4872 C   0  0  0  0  0  0  0  0  0  0  0  0
   19.0475   -9.4119  -17.3127 O   0  0  0  0  0  0  0  0  0  0  0  0
   20.1468   -9.2123  -15.3001 N   0  0  0  0  0  0  0  0  0  0  0  0
   19.6262   -7.9054  -15.0205 C   0  0  1  0  0  0  0  0  0  0  0  0
   18.3982   -7.9352  -14.1587 C   0  0  0  0  0  0  0  0  0  0  0  0
   17.8703   -6.6265  -13.8129 C   0  0  0  0  0  0  0  0  0  0  0  0
   17.9804   -6.1770  -12.6547 O   0  0  0  0  0  0  0  0  0  0  0  0
   20.6668   -6.9825  -14.4974 C   0  0  0  0  0  0  0  0  0  0  0  0
   21.3450   -7.3058  -13.4896 O   0  0  0  0  0  0  0  0  0  0  0  0
   17.2348   -5.8503  -14.7574 O   0  0  0  0  0  0  0  0  0  0  0  0
   23.7399   -5.5070  -16.2257 C   0  0  0  0  0  0  0  0  0  0  0  0
   22.8020   -4.4175  -15.8116 C   0  0  1  0  0  0  0  0  0  0  0  0
   21.9425   -4.0156  -16.8279 O   0  0  0  0  0  0  0  0  0  0  0  0
   21.9294   -4.8073  -14.6297 C   0  0  2  0  0  0  0  0  0  0  0  0
   20.9160   -5.7312  -15.1153 N   0  0  0  0  0  0  0  0  0  0  0  0
   21.3218   -3.5682  -14.1098 C   0  0  0  0  0  0  0  0  0  0  0  0
   22.1111   -2.6508  -13.4539 O   0  0  0  0  0  0  0  0  0  0  0  0
   20.1028   -3.3623  -14.2679 O   0  0  0  0  0  0  0  0  0  0  0  0
  2  1  1  0
  2  3  2  0
  4  5  1  0
  4  2  1  0
  5  6  1  0
  6  7  1  6
  8  6  1  0
  8  9  2  0
 10  8  1  0
 11 10  1  0
 11 12  1  1
 13 12  1  0
 14 13  2  0
 15 11  1  0
 16 15  2  0
 17 13  1  0
 19 20  1  0
 19 18  1  6
 21 19  1  0
 21 22  1  6
 22 15  1  0
 23 24  1  0
 23 21  1  0
 25 23  2  0
M  END
$$$$
