SRL.pdb
     RDKit          3D

 26 25  0  0  1  0  0  0  0  0999 V2000
   11.4772  -19.3682   23.3071 O   0  0  0  0  0  0  0  0  0  0  0  0
   12.7845  -19.0611   22.9424 C   0  0  0  0  0  0  0  0  0  0  0  0
   12.7879  -18.0070   21.8589 C   0  0  2  0  0  0  0  0  0  0  0  0
   14.1559  -17.6102   21.6008 N   0  0  0  0  0  0  0  0  0  0  0  0
   12.0106  -16.7981   22.2985 C   0  0  0  0  0  0  0  0  0  0  0  0
   12.5307  -15.9660   23.0903 O   0  0  0  0  0  0  0  0  0  0  0  0
    7.6282  -13.2676   17.1069 N   0  0  0  0  0  0  0  0  0  0  0  0
    7.7817  -14.3483   17.9997 C   0  0  0  0  0  0  0  0  0  0  0  0
    8.3455  -15.4572   17.6833 N   0  0  0  0  0  0  0  0  0  0  0  0
    7.2811  -14.1855   19.3150 N   0  0  0  0  0  0  0  0  0  0  0  0
    7.6965  -13.0950   20.1509 C   0  0  0  0  0  0  0  0  0  0  0  0
    8.3677  -13.6098   21.4260 C   0  0  0  0  0  0  0  0  0  0  0  0
    9.2237  -14.8086   21.1229 C   0  0  0  0  0  0  0  0  0  0  0  0
    9.9819  -15.3227   22.3278 C   0  0  2  0  0  0  0  0  0  0  0  0
   10.6871  -16.5430   21.8535 N   0  0  0  0  0  0  0  0  0  0  0  0
    9.1206  -15.6935   23.4653 C   0  0  0  0  0  0  0  0  0  0  0  0
    8.7420  -16.9097   23.5379 O   0  0  0  0  0  0  0  0  0  0  0  0
    8.5454  -16.1988   18.3759 C   0  0  0  0  0  0  0  0  0  0  0  0
    8.1536  -11.8264   26.6211 C   0  0  2  0  0  0  0  0  0  0  0  0
    7.2643  -13.0093   26.1809 C   0  0  0  0  0  0  0  0  0  0  0  0
    5.8445  -12.7464   26.6401 C   0  0  0  0  0  0  0  0  0  0  0  0
    7.8282  -14.2964   26.7118 C   0  0  1  0  0  0  0  0  0  0  0  0
    7.8974  -15.3316   25.6474 N   0  0  0  0  0  0  0  0  0  0  0  0
    8.6657  -14.8559   24.4916 C   0  0  0  0  0  0  0  0  0  0  0  0
    6.5659  -15.7834   25.2436 O   0  0  0  0  0  0  0  0  0  0  0  0
    6.1596  -15.5153   23.9088 O   0  0  0  0  0  0  0  0  0  0  0  0
  1  2  1  0
  3  2  1  0
  3  4  1  1
  5  3  1  0
  6  5  2  0
  7  8  1  0
  8 10  1  0
  8  9  2  0
 10 11  1  0
 11 12  1  0
 13 12  1  0
 14 13  1  6
 14 15  1  0
 15  5  1  0
 16 14  1  0
 16 17  2  0
 19 21  1  0
 19 18  1  6
 20 19  1  0
 22 21  1  1
 22 23  1  0
 23 16  1  0
 24 22  1  0
 25 24  1  0
 26 24  2  0
M  END
$$$$
