SRL.pdb
     RDKit          3D

 26 25  0  0  1  0  0  0  0  0999 V2000
   10.2972  -21.9594   24.0902 O   0  0  0  0  0  0  0  0  0  0  0  0
    9.9990  -20.6013   24.1451 C   0  0  0  0  0  0  0  0  0  0  0  0
   10.3371  -19.9412   22.8279 C   0  0  2  0  0  0  0  0  0  0  0  0
   11.7015  -20.2747   22.4778 N   0  0  0  0  0  0  0  0  0  0  0  0
   10.2208  -18.4472   22.9428 C   0  0  0  0  0  0  0  0  0  0  0  0
   11.2254  -17.7584   23.2689 O   0  0  0  0  0  0  0  0  0  0  0  0
    8.1828  -14.8805   18.7964 N   0  0  0  0  0  0  0  0  0  0  0  0
    7.9812  -13.4888   18.9026 C   0  0  0  0  0  0  0  0  0  0  0  0
    8.5187  -12.6304   18.1140 N   0  0  0  0  0  0  0  0  0  0  0  0
    7.1360  -13.0285   19.9422 N   0  0  0  0  0  0  0  0  0  0  0  0
    6.5844  -13.9245   20.9187 C   0  0  0  0  0  0  0  0  0  0  0  0
    7.6427  -14.3297   21.9469 C   0  0  0  0  0  0  0  0  0  0  0  0
    7.8432  -15.8201   21.9362 C   0  0  0  0  0  0  0  0  0  0  0  0
    8.9604  -16.2802   22.8477 C   0  0  2  0  0  0  0  0  0  0  0  0
    9.0043  -17.7589   22.6955 N   0  0  0  0  0  0  0  0  0  0  0  0
    8.7425  -15.9637   24.2710 C   0  0  0  0  0  0  0  0  0  0  0  0
    7.9997  -16.7581   24.9380 O   0  0  0  0  0  0  0  0  0  0  0  0
    8.3670  -11.6120   18.2114 C   0  0  0  0  0  0  0  0  0  0  0  0
   11.6703  -16.5637   28.8744 C   0  0  1  0  0  0  0  0  0  0  0  0
   10.3149  -15.9630   28.4434 C   0  0  0  0  0  0  0  0  0  0  0  0
    9.2041  -16.7194   29.1432 C   0  0  0  0  0  0  0  0  0  0  0  0
   10.1973  -15.9920   26.9461 C   0  0  2  0  0  0  0  0  0  0  0  0
    9.3820  -14.8527   26.4494 N   0  0  0  0  0  0  0  0  0  0  0  0
    9.2652  -14.8794   24.9872 C   0  0  0  0  0  0  0  0  0  0  0  0
    9.9078  -13.5681   26.9114 O   0  0  0  0  0  0  0  0  0  0  0  0
    9.4021  -13.0552   28.1360 O   0  0  0  0  0  0  0  0  0  0  0  0
  1  2  1  0
  3  2  1  0
  3  4  1  1
  5  3  1  0
  6  5  2  0
  7  8  1  0
  8 10  1  0
  8  9  2  0
 10 11  1  0
 11 12  1  0
 13 12  1  0
 14 13  1  6
 14 15  1  0
 15  5  1  0
 16 14  1  0
 16 17  2  0
 19 21  1  0
 19 18  1  1
 20 19  1  0
 22 21  1  1
 22 23  1  0
 23 16  1  0
 24 22  1  0
 25 24  1  0
 26 24  2  0
M  END
$$$$
