SRL.pdb
     RDKit          3D

 26 25  0  0  1  0  0  0  0  0999 V2000
    9.8014  -12.5219   19.2988 O   0  0  0  0  0  0  0  0  0  0  0  0
    9.1467  -13.0232   20.4198 C   0  0  0  0  0  0  0  0  0  0  0  0
    8.2133  -14.1427   20.0192 C   0  0  2  0  0  0  0  0  0  0  0  0
    7.1007  -13.5795   19.2840 N   0  0  0  0  0  0  0  0  0  0  0  0
    7.6801  -14.8444   21.2367 C   0  0  0  0  0  0  0  0  0  0  0  0
    6.7105  -14.3528   21.8754 O   0  0  0  0  0  0  0  0  0  0  0  0
    2.4829  -20.0580   22.2265 N   0  0  0  0  0  0  0  0  0  0  0  0
    2.9145  -19.0172   21.3785 C   0  0  0  0  0  0  0  0  0  0  0  0
    2.1202  -18.1701   20.8316 N   0  0  0  0  0  0  0  0  0  0  0  0
    4.3048  -18.9142   21.1261 N   0  0  0  0  0  0  0  0  0  0  0  0
    5.2381  -18.5849   22.1659 C   0  0  0  0  0  0  0  0  0  0  0  0
    6.6637  -18.5078   21.6153 C   0  0  0  0  0  0  0  0  0  0  0  0
    7.6309  -18.1450   22.7082 C   0  0  0  0  0  0  0  0  0  0  0  0
    7.7057  -16.6564   22.9714 C   0  0  2  0  0  0  0  0  0  0  0  0
    8.2299  -16.0635   21.7124 N   0  0  0  0  0  0  0  0  0  0  0  0
    8.6114  -16.2866   24.0742 C   0  0  0  0  0  0  0  0  0  0  0  0
    9.3152  -15.2333   23.9225 O   0  0  0  0  0  0  0  0  0  0  0  0
    2.4514  -17.4260   20.1942 C   0  0  0  0  0  0  0  0  0  0  0  0
    7.6727  -13.7651   28.8536 C   0  0  1  0  0  0  0  0  0  0  0  0
    8.8096  -14.5982   28.2234 C   0  0  0  0  0  0  0  0  0  0  0  0
   10.0031  -13.6940   27.9918 C   0  0  0  0  0  0  0  0  0  0  0  0
    8.3195  -15.2628   26.9685 C   0  0  2  0  0  0  0  0  0  0  0  0
    9.2637  -16.3179   26.5160 N   0  0  0  0  0  0  0  0  0  0  0  0
    8.7901  -16.9642   25.2870 C   0  0  0  0  0  0  0  0  0  0  0  0
    9.5162  -17.3053   27.5653 O   0  0  0  0  0  0  0  0  0  0  0  0
    8.7319  -18.4899   27.5532 O   0  0  0  0  0  0  0  0  0  0  0  0
  1  2  1  0
  3  2  1  0
  3  4  1  1
  5  3  1  0
  6  5  2  0
  7  8  1  0
  8 10  1  0
  8  9  2  0
 10 11  1  0
 11 12  1  0
 13 12  1  0
 14 13  1  6
 14 15  1  0
 15  5  1  0
 16 14  1  0
 16 17  2  0
 19 21  1  0
 19 18  1  1
 20 19  1  0
 22 21  1  6
 22 23  1  0
 23 16  1  0
 24 22  1  0
 25 24  1  0
 26 24  2  0
M  END
$$$$
