SRL.pdb
     RDKit          3D

 26 25  0  0  1  0  0  0  0  0999 V2000
    9.2909  -11.6028   18.6780 O   0  0  0  0  0  0  0  0  0  0  0  0
    8.7318  -12.2650   19.7668 C   0  0  0  0  0  0  0  0  0  0  0  0
    8.3479  -13.6741   19.3768 C   0  0  2  0  0  0  0  0  0  0  0  0
    7.1304  -13.6246   18.5953 N   0  0  0  0  0  0  0  0  0  0  0  0
    8.1006  -14.5100   20.6012 C   0  0  0  0  0  0  0  0  0  0  0  0
    6.9246  -14.6806   21.0228 O   0  0  0  0  0  0  0  0  0  0  0  0
   11.4706  -21.1158   20.8102 N   0  0  0  0  0  0  0  0  0  0  0  0
   10.3423  -21.1977   21.6521 C   0  0  0  0  0  0  0  0  0  0  0  0
   10.1895  -22.1020   22.5502 N   0  0  0  0  0  0  0  0  0  0  0  0
    9.3302  -20.2204   21.4853 N   0  0  0  0  0  0  0  0  0  0  0  0
    8.7106  -19.5765   22.6086 C   0  0  0  0  0  0  0  0  0  0  0  0
    9.5685  -18.4141   23.1128 C   0  0  0  0  0  0  0  0  0  0  0  0
    9.6636  -17.3378   22.0667 C   0  0  0  0  0  0  0  0  0  0  0  0
    8.8254  -16.1184   22.3847 C   0  0  2  0  0  0  0  0  0  0  0  0
    9.1537  -15.1313   21.3220 N   0  0  0  0  0  0  0  0  0  0  0  0
    9.1229  -15.5106   23.6945 C   0  0  0  0  0  0  0  0  0  0  0  0
   10.3335  -15.1779   23.9215 O   0  0  0  0  0  0  0  0  0  0  0  0
    9.4006  -22.0963   23.2189 C   0  0  0  0  0  0  0  0  0  0  0  0
    8.0458  -11.7701   25.7134 C   0  0  1  0  0  0  0  0  0  0  0  0
    6.9685  -12.8701   25.8291 C   0  0  0  0  0  0  0  0  0  0  0  0
    5.6933  -12.2469   26.3592 C   0  0  0  0  0  0  0  0  0  0  0  0
    7.4775  -13.9941   26.6860 C   0  0  2  0  0  0  0  0  0  0  0  0
    8.6131  -14.6958   26.0322 N   0  0  0  0  0  0  0  0  0  0  0  0
    8.2189  -15.2494   24.7320 C   0  0  0  0  0  0  0  0  0  0  0  0
    9.1786  -15.7327   26.8954 O   0  0  0  0  0  0  0  0  0  0  0  0
    9.8249  -15.3116   28.0885 O   0  0  0  0  0  0  0  0  0  0  0  0
  1  2  1  0
  3  2  1  0
  3  4  1  6
  5  3  1  0
  6  5  2  0
  7  8  1  0
  8 10  1  0
  8  9  2  0
 10 11  1  0
 11 12  1  0
 13 12  1  0
 14 13  1  6
 14 15  1  0
 15  5  1  0
 16 14  1  0
 16 17  2  0
 19 21  1  0
 19 18  1  6
 20 19  1  0
 22 21  1  6
 22 23  1  0
 23 16  1  0
 24 22  1  0
 25 24  1  0
 26 24  2  0
M  END
$$$$
