SRL.pdb
     RDKit          3D

 26 25  0  0  1  0  0  0  0  0999 V2000
    4.5504  -15.6232   20.6442 O   0  0  0  0  0  0  0  0  0  0  0  0
    3.9457  -16.8603   20.8451 C   0  0  0  0  0  0  0  0  0  0  0  0
    4.9602  -17.9682   20.6763 C   0  0  2  0  0  0  0  0  0  0  0  0
    4.3184  -19.2336   20.9633 N   0  0  0  0  0  0  0  0  0  0  0  0
    6.1063  -17.7820   21.6306 C   0  0  0  0  0  0  0  0  0  0  0  0
    6.0525  -18.2806   22.7875 O   0  0  0  0  0  0  0  0  0  0  0  0
   14.1862  -15.6955   21.3915 N   0  0  0  0  0  0  0  0  0  0  0  0
   14.3552  -16.7858   22.2697 C   0  0  0  0  0  0  0  0  0  0  0  0
   15.4357  -17.0096   22.9255 N   0  0  0  0  0  0  0  0  0  0  0  0
   13.2627  -17.6741   22.4263 N   0  0  0  0  0  0  0  0  0  0  0  0
   12.1022  -17.5986   21.5848 C   0  0  0  0  0  0  0  0  0  0  0  0
   10.8676  -17.1934   22.3929 C   0  0  0  0  0  0  0  0  0  0  0  0
    9.6407  -17.2104   21.5234 C   0  0  0  0  0  0  0  0  0  0  0  0
    8.3659  -16.9080   22.2813 C   0  0  2  0  0  0  0  0  0  0  0  0
    7.2741  -17.0543   21.2823 N   0  0  0  0  0  0  0  0  0  0  0  0
    8.3085  -15.5447   22.8394 C   0  0  0  0  0  0  0  0  0  0  0  0
    7.6924  -14.6605   22.1565 O   0  0  0  0  0  0  0  0  0  0  0  0
   15.5289  -17.7905   23.5971 C   0  0  0  0  0  0  0  0  0  0  0  0
    6.9830  -12.0058   25.9655 C   0  0  1  0  0  0  0  0  0  0  0  0
    6.0467  -13.2051   25.7026 C   0  0  0  0  0  0  0  0  0  0  0  0
    5.6483  -13.8107   27.0330 C   0  0  0  0  0  0  0  0  0  0  0  0
    6.7196  -14.1856   24.7848 C   0  0  1  0  0  0  0  0  0  0  0  0
    8.1978  -14.1314   24.9320 N   0  0  0  0  0  0  0  0  0  0  0  0
    8.8562  -15.1013   24.0499 C   0  0  0  0  0  0  0  0  0  0  0  0
    8.6111  -14.3204   26.3225 O   0  0  0  0  0  0  0  0  0  0  0  0
    8.7817  -15.6547   26.7800 O   0  0  0  0  0  0  0  0  0  0  0  0
  1  2  1  0
  3  2  1  0
  3  4  1  1
  5  3  1  0
  6  5  2  0
  7  8  1  0
  8 10  1  0
  8  9  2  0
 10 11  1  0
 11 12  1  0
 13 12  1  0
 14 13  1  6
 14 15  1  0
 15  5  1  0
 16 14  1  0
 16 17  2  0
 19 21  1  0
 19 18  1  1
 20 19  1  0
 22 21  1  6
 22 23  1  0
 23 16  1  0
 24 22  1  0
 25 24  1  0
 26 24  2  0
M  END
$$$$
