SRL.pdb
     RDKit          3D

 26 25  0  0  1  0  0  0  0  0999 V2000
    4.8352  -20.4901   24.4884 O   0  0  0  0  0  0  0  0  0  0  0  0
    6.0870  -19.8880   24.5709 C   0  0  0  0  0  0  0  0  0  0  0  0
    6.8245  -20.0404   23.2602 C   0  0  2  0  0  0  0  0  0  0  0  0
    7.5733  -21.2789   23.2897 N   0  0  0  0  0  0  0  0  0  0  0  0
    7.7849  -18.9016   23.0613 C   0  0  0  0  0  0  0  0  0  0  0  0
    8.9519  -18.9693   23.5341 O   0  0  0  0  0  0  0  0  0  0  0  0
    9.7774  -13.6810   19.0458 N   0  0  0  0  0  0  0  0  0  0  0  0
    8.8252  -12.6652   19.2696 C   0  0  0  0  0  0  0  0  0  0  0  0
    9.1333  -11.4542   19.5632 N   0  0  0  0  0  0  0  0  0  0  0  0
    7.4571  -13.0165   19.1605 N   0  0  0  0  0  0  0  0  0  0  0  0
    6.9838  -14.3254   19.5114 C   0  0  0  0  0  0  0  0  0  0  0  0
    7.4307  -14.7066   20.9244 C   0  0  0  0  0  0  0  0  0  0  0  0
    8.2042  -15.9961   20.9018 C   0  0  0  0  0  0  0  0  0  0  0  0
    8.4008  -16.6001   22.2756 C   0  0  2  0  0  0  0  0  0  0  0  0
    7.4316  -17.7257   22.3492 N   0  0  0  0  0  0  0  0  0  0  0  0
    8.1220  -15.6707   23.3854 C   0  0  0  0  0  0  0  0  0  0  0  0
    6.9032  -15.5286   23.7349 O   0  0  0  0  0  0  0  0  0  0  0  0
    8.4224  -10.7169   19.7062 C   0  0  0  0  0  0  0  0  0  0  0  0
    5.5293  -12.6429   26.6968 C   0  0  1  0  0  0  0  0  0  0  0  0
    7.0143  -13.0654   26.6887 C   0  0  0  0  0  0  0  0  0  0  0  0
    7.8649  -11.8563   27.0209 C   0  0  0  0  0  0  0  0  0  0  0  0
    7.3608  -13.6860   25.3653 C   0  0  2  0  0  0  0  0  0  0  0  0
    8.7388  -14.2430   25.3779 N   0  0  0  0  0  0  0  0  0  0  0  0
    9.0519  -14.9171   24.1130 C   0  0  0  0  0  0  0  0  0  0  0  0
    8.9516  -15.1366   26.5164 O   0  0  0  0  0  0  0  0  0  0  0  0
    8.4878  -16.4741   26.3955 O   0  0  0  0  0  0  0  0  0  0  0  0
  1  2  1  0
  3  2  1  0
  3  4  1  1
  5  3  1  0
  6  5  2  0
  7  8  1  0
  8 10  1  0
  8  9  2  0
 10 11  1  0
 11 12  1  0
 13 12  1  0
 14 13  1  6
 14 15  1  0
 15  5  1  0
 16 14  1  0
 16 17  2  0
 19 21  1  0
 19 18  1  1
 20 19  1  0
 22 21  1  6
 22 23  1  0
 23 16  1  0
 24 22  1  0
 25 24  1  0
 26 24  2  0
M  END
$$$$
