SRL.pdb
     RDKit          3D

 26 25  0  0  1  0  0  0  0  0999 V2000
    7.9189  -21.3374   22.6916 O   0  0  0  0  0  0  0  0  0  0  0  0
    6.6977  -20.9026   23.1976 C   0  0  0  0  0  0  0  0  0  0  0  0
    6.9204  -19.8527   24.2621 C   0  0  2  0  0  0  0  0  0  0  0  0
    5.6335  -19.4177   24.7622 N   0  0  0  0  0  0  0  0  0  0  0  0
    7.6402  -18.6650   23.6874 C   0  0  0  0  0  0  0  0  0  0  0  0
    8.8405  -18.7724   23.3164 O   0  0  0  0  0  0  0  0  0  0  0  0
    9.2957  -14.5350   18.0906 N   0  0  0  0  0  0  0  0  0  0  0  0
    8.5576  -13.3552   18.3182 C   0  0  0  0  0  0  0  0  0  0  0  0
    8.9196  -12.1979   17.8972 N   0  0  0  0  0  0  0  0  0  0  0  0
    7.3521  -13.4701   19.0535 N   0  0  0  0  0  0  0  0  0  0  0  0
    6.9093  -14.7281   19.5846 C   0  0  0  0  0  0  0  0  0  0  0  0
    7.8102  -15.1822   20.7351 C   0  0  0  0  0  0  0  0  0  0  0  0
    6.9816  -15.6793   21.8875 C   0  0  0  0  0  0  0  0  0  0  0  0
    7.8102  -16.2538   23.0163 C   0  0  2  0  0  0  0  0  0  0  0  0
    7.0174  -17.3983   23.5390 N   0  0  0  0  0  0  0  0  0  0  0  0
    8.0533  -15.3104   24.1227 C   0  0  0  0  0  0  0  0  0  0  0  0
    7.5845  -14.1305   23.9967 O   0  0  0  0  0  0  0  0  0  0  0  0
    8.3507  -11.3471   18.0463 C   0  0  0  0  0  0  0  0  0  0  0  0
    8.4287  -12.3045   25.3936 C   0  0  2  0  0  0  0  0  0  0  0  0
    7.2373  -12.7140   26.2862 C   0  0  0  0  0  0  0  0  0  0  0  0
    7.1052  -11.7078   27.4113 C   0  0  0  0  0  0  0  0  0  0  0  0
    7.4250  -14.1229   26.7725 C   0  0  2  0  0  0  0  0  0  0  0  0
    8.7841  -14.6275   26.4440 N   0  0  0  0  0  0  0  0  0  0  0  0
    8.7459  -15.5622   25.3139 C   0  0  0  0  0  0  0  0  0  0  0  0
    9.4323  -15.2345   27.6065 O   0  0  0  0  0  0  0  0  0  0  0  0
   10.4939  -14.5133   28.2160 O   0  0  0  0  0  0  0  0  0  0  0  0
  1  2  1  0
  3  2  1  0
  3  4  1  6
  5  3  1  0
  6  5  2  0
  7  8  1  0
  8 10  1  0
  8  9  2  0
 10 11  1  0
 11 12  1  0
 13 12  1  0
 14 13  1  6
 14 15  1  0
 15  5  1  0
 16 14  1  0
 16 17  2  0
 19 21  1  0
 19 18  1  6
 20 19  1  0
 22 21  1  6
 22 23  1  0
 23 16  1  0
 24 22  1  0
 25 24  1  0
 26 24  2  0
M  END
$$$$
