SRL.pdb
     RDKit          3D

 26 25  0  0  1  0  0  0  0  0999 V2000
   12.5702  -15.5944   19.5010 O   0  0  0  0  0  0  0  0  0  0  0  0
   12.3513  -16.8729   20.0051 C   0  0  0  0  0  0  0  0  0  0  0  0
   11.0614  -17.4354   19.4529 C   0  0  2  0  0  0  0  0  0  0  0  0
   10.7440  -16.7463   18.2202 N   0  0  0  0  0  0  0  0  0  0  0  0
    9.9359  -17.2241   20.4264 C   0  0  0  0  0  0  0  0  0  0  0  0
    9.0381  -16.3740   20.1793 O   0  0  0  0  0  0  0  0  0  0  0  0
   11.6308  -22.3067   24.2857 N   0  0  0  0  0  0  0  0  0  0  0  0
   11.4159  -21.7884   25.5794 C   0  0  0  0  0  0  0  0  0  0  0  0
   12.2635  -21.8944   26.5375 N   0  0  0  0  0  0  0  0  0  0  0  0
   10.1920  -21.1162   25.8191 N   0  0  0  0  0  0  0  0  0  0  0  0
    9.2595  -20.8467   24.7616 C   0  0  0  0  0  0  0  0  0  0  0  0
    9.4435  -19.4273   24.2203 C   0  0  0  0  0  0  0  0  0  0  0  0
    8.4224  -19.1335   23.1561 C   0  0  0  0  0  0  0  0  0  0  0  0
    8.6237  -17.7903   22.4881 C   0  0  2  0  0  0  0  0  0  0  0  0
    9.8338  -17.9541   21.6393 N   0  0  0  0  0  0  0  0  0  0  0  0
    8.8607  -16.6812   23.4299 C   0  0  0  0  0  0  0  0  0  0  0  0
   10.0694  -16.4506   23.7670 O   0  0  0  0  0  0  0  0  0  0  0  0
   12.0858  -21.5166   27.4837 C   0  0  0  0  0  0  0  0  0  0  0  0
    6.8454  -12.7707   27.1797 C   0  0  2  0  0  0  0  0  0  0  0  0
    7.4429  -12.5401   25.7749 C   0  0  0  0  0  0  0  0  0  0  0  0
    6.9312  -11.2179   25.2406 C   0  0  0  0  0  0  0  0  0  0  0  0
    7.1148  -13.7042   24.8839 C   0  0  2  0  0  0  0  0  0  0  0  0
    8.2343  -14.6812   24.8428 N   0  0  0  0  0  0  0  0  0  0  0  0
    7.9010  -15.8375   24.0036 C   0  0  0  0  0  0  0  0  0  0  0  0
    8.6341  -15.1037   26.1851 O   0  0  0  0  0  0  0  0  0  0  0  0
    7.9355  -16.1974   26.7633 O   0  0  0  0  0  0  0  0  0  0  0  0
  1  2  1  0
  3  2  1  0
  3  4  1  6
  5  3  1  0
  6  5  2  0
  7  8  1  0
  8 10  1  0
  8  9  2  0
 10 11  1  0
 11 12  1  0
 13 12  1  0
 14 13  1  1
 14 15  1  0
 15  5  1  0
 16 14  1  0
 16 17  2  0
 19 21  1  0
 19 18  1  1
 20 19  1  0
 22 21  1  6
 22 23  1  0
 23 16  1  0
 24 22  1  0
 25 24  1  0
 26 24  2  0
M  END
$$$$
