SRL.pdb
     RDKit          3D

 26 25  0  0  1  0  0  0  0  0999 V2000
   10.1432  -12.7395   20.3147 O   0  0  0  0  0  0  0  0  0  0  0  0
   10.1321  -13.5611   19.1916 C   0  0  0  0  0  0  0  0  0  0  0  0
    8.7214  -14.0158   18.8943 C   0  0  2  0  0  0  0  0  0  0  0  0
    7.9327  -12.8637   18.5121 N   0  0  0  0  0  0  0  0  0  0  0  0
    8.1021  -14.6406   20.1129 C   0  0  0  0  0  0  0  0  0  0  0  0
    7.1059  -14.0985   20.6638 O   0  0  0  0  0  0  0  0  0  0  0  0
    5.6499  -20.6316   23.5967 N   0  0  0  0  0  0  0  0  0  0  0  0
    6.5763  -20.9265   24.6182 C   0  0  0  0  0  0  0  0  0  0  0  0
    6.2408  -21.3602   25.7787 N   0  0  0  0  0  0  0  0  0  0  0  0
    7.9496  -20.7281   24.3320 N   0  0  0  0  0  0  0  0  0  0  0  0
    8.3819  -20.0343   23.1520 C   0  0  0  0  0  0  0  0  0  0  0  0
    7.8929  -18.5844   23.1615 C   0  0  0  0  0  0  0  0  0  0  0  0
    8.3715  -17.8595   21.9339 C   0  0  0  0  0  0  0  0  0  0  0  0
    7.9115  -16.4189   21.8720 C   0  0  2  0  0  0  0  0  0  0  0  0
    8.5977  -15.8408   20.6860 N   0  0  0  0  0  0  0  0  0  0  0  0
    8.2757  -15.6212   23.0570 C   0  0  0  0  0  0  0  0  0  0  0  0
    9.5082  -15.3272   23.2057 O   0  0  0  0  0  0  0  0  0  0  0  0
    6.9357  -21.6227   26.4983 C   0  0  0  0  0  0  0  0  0  0  0  0
    5.8342  -11.6605   27.1378 C   0  0  1  0  0  0  0  0  0  0  0  0
    7.0929  -12.3209   26.5349 C   0  0  0  0  0  0  0  0  0  0  0  0
    8.0376  -11.2312   26.0705 C   0  0  0  0  0  0  0  0  0  0  0  0
    6.6964  -13.2666   25.4372 C   0  0  2  0  0  0  0  0  0  0  0  0
    7.8193  -14.1713   25.0765 N   0  0  0  0  0  0  0  0  0  0  0  0
    7.4145  -15.1391   24.0509 C   0  0  0  0  0  0  0  0  0  0  0  0
    8.3679  -14.8489   26.2512 O   0  0  0  0  0  0  0  0  0  0  0  0
    7.9493  -16.1850   26.4923 O   0  0  0  0  0  0  0  0  0  0  0  0
  1  2  1  0
  3  2  1  0
  3  4  1  1
  5  3  1  0
  6  5  2  0
  7  8  1  0
  8 10  1  0
  8  9  2  0
 10 11  1  0
 11 12  1  0
 13 12  1  0
 14 13  1  1
 14 15  1  0
 15  5  1  0
 16 14  1  0
 16 17  2  0
 19 21  1  0
 19 18  1  1
 20 19  1  0
 22 21  1  6
 22 23  1  0
 23 16  1  0
 24 22  1  0
 25 24  1  0
 26 24  2  0
M  END
$$$$
