SRL.pdb
     RDKit          3D

 26 25  0  0  1  0  0  0  0  0999 V2000
    7.8495  -14.0726   17.7461 O   0  0  0  0  0  0  0  0  0  0  0  0
    7.5781  -12.8707   18.3927 C   0  0  0  0  0  0  0  0  0  0  0  0
    8.3875  -12.7709   19.6655 C   0  0  2  0  0  0  0  0  0  0  0  0
    9.7919  -12.8843   19.3332 N   0  0  0  0  0  0  0  0  0  0  0  0
    8.0244  -13.8833   20.6086 C   0  0  0  0  0  0  0  0  0  0  0  0
    6.8516  -13.9683   21.0638 O   0  0  0  0  0  0  0  0  0  0  0  0
   12.2989  -19.2018   21.2122 N   0  0  0  0  0  0  0  0  0  0  0  0
   11.3001  -19.8756   21.9451 C   0  0  0  0  0  0  0  0  0  0  0  0
   11.5270  -20.5138   23.0354 N   0  0  0  0  0  0  0  0  0  0  0  0
    9.9783  -19.8363   21.4369 N   0  0  0  0  0  0  0  0  0  0  0  0
    9.6472  -19.0976   20.2515 C   0  0  0  0  0  0  0  0  0  0  0  0
    8.7626  -17.8950   20.5872 C   0  0  0  0  0  0  0  0  0  0  0  0
    9.3522  -17.1096   21.7262 C   0  0  0  0  0  0  0  0  0  0  0  0
    8.5698  -15.8572   22.0577 C   0  0  2  0  0  0  0  0  0  0  0  0
    8.9620  -14.8662   21.0206 N   0  0  0  0  0  0  0  0  0  0  0  0
    8.8767  -15.2912   23.3839 C   0  0  0  0  0  0  0  0  0  0  0  0
   10.0539  -14.8338   23.5645 O   0  0  0  0  0  0  0  0  0  0  0  0
   10.7947  -21.0517   23.5294 C   0  0  0  0  0  0  0  0  0  0  0  0
    8.0834  -11.7038   25.8595 C   0  0  1  0  0  0  0  0  0  0  0  0
    6.9394  -12.7353   25.7555 C   0  0  0  0  0  0  0  0  0  0  0  0
    5.6658  -12.1021   26.2778 C   0  0  0  0  0  0  0  0  0  0  0  0
    7.3176  -13.9917   26.4870 C   0  0  2  0  0  0  0  0  0  0  0  0
    8.4304  -14.6984   25.8001 N   0  0  0  0  0  0  0  0  0  0  0  0
    8.0141  -15.1930   24.4831 C   0  0  0  0  0  0  0  0  0  0  0  0
    8.9731  -15.7811   26.6207 O   0  0  0  0  0  0  0  0  0  0  0  0
    9.6021  -15.4244   27.8437 O   0  0  0  0  0  0  0  0  0  0  0  0
  1  2  1  0
  3  2  1  0
  3  4  1  6
  5  3  1  0
  6  5  2  0
  7  8  1  0
  8 10  1  0
  8  9  2  0
 10 11  1  0
 11 12  1  0
 13 12  1  0
 14 13  1  6
 14 15  1  0
 15  5  1  0
 16 14  1  0
 16 17  2  0
 19 21  1  0
 19 18  1  6
 20 19  1  0
 22 21  1  6
 22 23  1  0
 23 16  1  0
 24 22  1  0
 25 24  1  0
 26 24  2  0
M  END
$$$$
