SRL.pdb
     RDKit          3D

 26 25  0  0  1  0  0  0  0  0999 V2000
    7.6298  -18.9207   26.0333 O   0  0  0  0  0  0  0  0  0  0  0  0
    6.4402  -18.8747   25.3127 C   0  0  0  0  0  0  0  0  0  0  0  0
    6.7073  -19.1497   23.8504 C   0  0  2  0  0  0  0  0  0  0  0  0
    7.3242  -20.4535   23.7279 N   0  0  0  0  0  0  0  0  0  0  0  0
    7.6429  -18.1190   23.2836 C   0  0  0  0  0  0  0  0  0  0  0  0
    8.8578  -18.4017   23.0996 O   0  0  0  0  0  0  0  0  0  0  0  0
    7.5605  -14.9405   16.6631 N   0  0  0  0  0  0  0  0  0  0  0  0
    8.0087  -13.7848   17.3354 C   0  0  0  0  0  0  0  0  0  0  0  0
    7.5440  -12.6088   17.1147 N   0  0  0  0  0  0  0  0  0  0  0  0
    9.0286  -13.9472   18.3053 N   0  0  0  0  0  0  0  0  0  0  0  0
    8.7432  -13.9212   19.7119 C   0  0  0  0  0  0  0  0  0  0  0  0
    7.6406  -14.9222   20.0636 C   0  0  0  0  0  0  0  0  0  0  0  0
    7.3478  -14.8858   21.5383 C   0  0  0  0  0  0  0  0  0  0  0  0
    8.1858  -15.8593   22.3389 C   0  0  2  0  0  0  0  0  0  0  0  0
    7.2126  -16.8115   22.9372 N   0  0  0  0  0  0  0  0  0  0  0  0
    8.9563  -15.2330   23.4285 C   0  0  0  0  0  0  0  0  0  0  0  0
    9.6704  -14.2189   23.1296 O   0  0  0  0  0  0  0  0  0  0  0  0
    7.8550  -11.7775   17.6456 C   0  0  0  0  0  0  0  0  0  0  0  0
    5.9709  -12.5349   27.1126 C   0  0  1  0  0  0  0  0  0  0  0  0
    7.4468  -12.9529   26.9370 C   0  0  0  0  0  0  0  0  0  0  0  0
    8.2808  -11.7077   26.7144 C   0  0  0  0  0  0  0  0  0  0  0  0
    7.5647  -13.9505   25.8201 C   0  0  2  0  0  0  0  0  0  0  0  0
    8.8516  -14.6906   25.8951 N   0  0  0  0  0  0  0  0  0  0  0  0
    8.9944  -15.6248   24.7728 C   0  0  0  0  0  0  0  0  0  0  0  0
    9.0062  -15.3803   27.1759 O   0  0  0  0  0  0  0  0  0  0  0  0
    9.0647  -16.7997   27.1532 O   0  0  0  0  0  0  0  0  0  0  0  0
  1  2  1  0
  3  2  1  0
  3  4  1  1
  5  3  1  0
  6  5  2  0
  7  8  1  0
  8 10  1  0
  8  9  2  0
 10 11  1  0
 11 12  1  0
 13 12  1  0
 14 13  1  1
 14 15  1  0
 15  5  1  0
 16 14  1  0
 16 17  2  0
 19 21  1  0
 19 18  1  1
 20 19  1  0
 22 21  1  6
 22 23  1  0
 23 16  1  0
 24 22  1  0
 25 24  1  0
 26 24  2  0
M  END
$$$$
