SRL.pdb
     RDKit          3D

 26 25  0  0  1  0  0  0  0  0999 V2000
   10.7812  -13.1385   18.4245 O   0  0  0  0  0  0  0  0  0  0  0  0
   10.2629  -13.7931   19.5377 C   0  0  0  0  0  0  0  0  0  0  0  0
    8.8307  -14.2025   19.2799 C   0  0  2  0  0  0  0  0  0  0  0  0
    8.1160  -13.0708   18.7286 N   0  0  0  0  0  0  0  0  0  0  0  0
    8.1629  -14.6162   20.5611 C   0  0  0  0  0  0  0  0  0  0  0  0
    7.2876  -13.8753   21.0853 O   0  0  0  0  0  0  0  0  0  0  0  0
    8.4712  -20.4475   25.9336 N   0  0  0  0  0  0  0  0  0  0  0  0
    7.1140  -20.8159   25.8295 C   0  0  0  0  0  0  0  0  0  0  0  0
    6.4611  -21.3972   26.7694 N   0  0  0  0  0  0  0  0  0  0  0  0
    6.4483  -20.5213   24.6141 N   0  0  0  0  0  0  0  0  0  0  0  0
    7.1330  -19.9190   23.5055 C   0  0  0  0  0  0  0  0  0  0  0  0
    7.1019  -18.3926   23.6090 C   0  0  0  0  0  0  0  0  0  0  0  0
    7.7391  -17.7700   22.3974 C   0  0  0  0  0  0  0  0  0  0  0  0
    7.6592  -16.2585   22.3893 C   0  0  2  0  0  0  0  0  0  0  0  0
    8.4786  -15.8307   21.2244 N   0  0  0  0  0  0  0  0  0  0  0  0
    8.2042  -15.6223   23.6024 C   0  0  0  0  0  0  0  0  0  0  0  0
    9.4705  -15.4809   23.6680 O   0  0  0  0  0  0  0  0  0  0  0  0
    5.4995  -21.7558   26.6413 C   0  0  0  0  0  0  0  0  0  0  0  0
    7.4908  -11.6326   25.6210 C   0  0  1  0  0  0  0  0  0  0  0  0
    6.4451  -12.7117   25.9758 C   0  0  0  0  0  0  0  0  0  0  0  0
    5.3179  -12.0596   26.7503 C   0  0  0  0  0  0  0  0  0  0  0  0
    7.1049  -13.8342   26.7252 C   0  0  2  0  0  0  0  0  0  0  0  0
    8.1113  -14.5265   25.8782 N   0  0  0  0  0  0  0  0  0  0  0  0
    7.4842  -15.1455   24.7052 C   0  0  0  0  0  0  0  0  0  0  0  0
    8.8797  -15.5086   26.6431 O   0  0  0  0  0  0  0  0  0  0  0  0
    9.9566  -15.0261   27.4343 O   0  0  0  0  0  0  0  0  0  0  0  0
  1  2  1  0
  3  2  1  0
  3  4  1  1
  5  3  1  0
  6  5  2  0
  7  8  1  0
  8 10  1  0
  8  9  2  0
 10 11  1  0
 11 12  1  0
 13 12  1  0
 14 13  1  1
 14 15  1  0
 15  5  1  0
 16 14  1  0
 16 17  2  0
 19 21  1  0
 19 18  1  6
 20 19  1  0
 22 21  1  6
 22 23  1  0
 23 16  1  0
 24 22  1  0
 25 24  1  0
 26 24  2  0
M  END
$$$$
