SRL.pdb
     RDKit          3D

 26 25  0  0  1  0  0  0  0  0999 V2000
    9.3002  -12.0036   20.4079 O   0  0  0  0  0  0  0  0  0  0  0  0
    8.0932  -12.0951   19.7215 C   0  0  0  0  0  0  0  0  0  0  0  0
    7.8619  -13.5172   19.2641 C   0  0  2  0  0  0  0  0  0  0  0  0
    6.5757  -13.5897   18.6039 N   0  0  0  0  0  0  0  0  0  0  0  0
    7.8532  -14.4533   20.4399 C   0  0  0  0  0  0  0  0  0  0  0  0
    6.7828  -14.6635   21.0722 O   0  0  0  0  0  0  0  0  0  0  0  0
    9.1115  -21.4397   22.0139 N   0  0  0  0  0  0  0  0  0  0  0  0
    9.8556  -21.4358   23.2117 C   0  0  0  0  0  0  0  0  0  0  0  0
    9.6895  -22.2908   24.1546 N   0  0  0  0  0  0  0  0  0  0  0  0
   10.8372  -20.4262   23.3679 N   0  0  0  0  0  0  0  0  0  0  0  0
   10.9329  -19.3198   22.4584 C   0  0  0  0  0  0  0  0  0  0  0  0
    9.9070  -18.2385   22.8046 C   0  0  0  0  0  0  0  0  0  0  0  0
    9.9347  -17.1391   21.7789 C   0  0  0  0  0  0  0  0  0  0  0  0
    8.9366  -16.0358   22.0570 C   0  0  2  0  0  0  0  0  0  0  0  0
    9.0211  -15.1280   20.8822 N   0  0  0  0  0  0  0  0  0  0  0  0
    9.2288  -15.2547   23.2726 C   0  0  0  0  0  0  0  0  0  0  0  0
    9.4249  -14.0023   23.1279 O   0  0  0  0  0  0  0  0  0  0  0  0
   10.1903  -22.2297   25.0574 C   0  0  0  0  0  0  0  0  0  0  0  0
    8.1886  -12.4067   26.4790 C   0  0  1  0  0  0  0  0  0  0  0  0
    7.2840  -13.0883   25.4297 C   0  0  0  0  0  0  0  0  0  0  0  0
    5.8677  -12.5797   25.6059 C   0  0  0  0  0  0  0  0  0  0  0  0
    7.3953  -14.5813   25.5532 C   0  0  2  0  0  0  0  0  0  0  0  0
    8.8078  -14.9996   25.7518 N   0  0  0  0  0  0  0  0  0  0  0  0
    9.3146  -15.7327   24.5864 C   0  0  0  0  0  0  0  0  0  0  0  0
    8.9742  -15.7809   26.9773 O   0  0  0  0  0  0  0  0  0  0  0  0
    9.2048  -15.0667   28.1837 O   0  0  0  0  0  0  0  0  0  0  0  0
  1  2  1  0
  3  2  1  0
  3  4  1  1
  5  3  1  0
  6  5  2  0
  7  8  1  0
  8 10  1  0
  8  9  2  0
 10 11  1  0
 11 12  1  0
 13 12  1  0
 14 13  1  6
 14 15  1  0
 15  5  1  0
 16 14  1  0
 16 17  2  0
 19 21  1  0
 19 18  1  6
 20 19  1  0
 22 21  1  6
 22 23  1  0
 23 16  1  0
 24 22  1  0
 25 24  1  0
 26 24  2  0
M  END
$$$$
