SRL.pdb
     RDKit          3D

 26 25  0  0  1  0  0  0  0  0999 V2000
    9.9463  -13.2678   20.0781 O   0  0  0  0  0  0  0  0  0  0  0  0
    9.4859  -14.3857   19.3890 C   0  0  0  0  0  0  0  0  0  0  0  0
    7.9830  -14.4902   19.5131 C   0  0  2  0  0  0  0  0  0  0  0  0
    7.3947  -13.2309   19.1087 N   0  0  0  0  0  0  0  0  0  0  0  0
    7.5907  -14.7698   20.9367 C   0  0  0  0  0  0  0  0  0  0  0  0
    7.0453  -13.8692   21.6304 O   0  0  0  0  0  0  0  0  0  0  0  0
    8.8386  -20.6604   26.5953 N   0  0  0  0  0  0  0  0  0  0  0  0
    7.4549  -20.8786   26.7577 C   0  0  0  0  0  0  0  0  0  0  0  0
    6.9566  -21.6380   27.6647 N   0  0  0  0  0  0  0  0  0  0  0  0
    6.5794  -20.2156   25.8627 N   0  0  0  0  0  0  0  0  0  0  0  0
    7.0175  -19.7686   24.5709 C   0  0  0  0  0  0  0  0  0  0  0  0
    6.9400  -18.2441   24.4657 C   0  0  0  0  0  0  0  0  0  0  0  0
    7.3400  -17.7906   23.0887 C   0  0  0  0  0  0  0  0  0  0  0  0
    7.2397  -16.2923   22.8995 C   0  0  2  0  0  0  0  0  0  0  0  0
    7.8105  -16.0302   21.5515 N   0  0  0  0  0  0  0  0  0  0  0  0
    8.0021  -15.5099   23.8894 C   0  0  0  0  0  0  0  0  0  0  0  0
    9.2658  -15.4397   23.7291 O   0  0  0  0  0  0  0  0  0  0  0  0
    5.9544  -21.8920   27.6907 C   0  0  0  0  0  0  0  0  0  0  0  0
    7.3916  -11.3496   24.9145 C   0  0  2  0  0  0  0  0  0  0  0  0
    6.5671  -12.2833   25.8268 C   0  0  0  0  0  0  0  0  0  0  0  0
    5.5747  -11.4464   26.6082 C   0  0  0  0  0  0  0  0  0  0  0  0
    7.4881  -13.0812   26.7053 C   0  0  2  0  0  0  0  0  0  0  0  0
    8.3207  -14.0148   25.9024 N   0  0  0  0  0  0  0  0  0  0  0  0
    7.4938  -14.8226   24.9990 C   0  0  0  0  0  0  0  0  0  0  0  0
    9.1549  -14.8645   26.7522 O   0  0  0  0  0  0  0  0  0  0  0  0
    8.9626  -16.2695   26.6645 O   0  0  0  0  0  0  0  0  0  0  0  0
  1  2  1  0
  3  2  1  0
  3  4  1  1
  5  3  1  0
  6  5  2  0
  7  8  1  0
  8 10  1  0
  8  9  2  0
 10 11  1  0
 11 12  1  0
 13 12  1  0
 14 13  1  1
 14 15  1  0
 15  5  1  0
 16 14  1  0
 16 17  2  0
 19 21  1  0
 19 18  1  6
 20 19  1  0
 22 21  1  6
 22 23  1  0
 23 16  1  0
 24 22  1  0
 25 24  1  0
 26 24  2  0
M  END
$$$$
