ITF.pdb
     RDKit          3D

 27 27  0  0  1  0  0  0  0  0999 V2000
   18.2449  -20.0919  -14.1017 C   0  0  0  0  0  0  0  0  0  0  0  0
   19.4828  -19.2991  -13.8010 C   0  0  0  0  0  0  0  0  0  0  0  0
   20.3726  -20.0160  -12.7702 C   0  0  2  0  0  0  0  0  0  0  0  0
   20.5842  -19.1459  -11.5738 C   0  0  0  0  0  0  0  0  0  0  0  0
   21.6985  -20.3837  -13.4402 C   0  0  2  0  0  0  0  0  0  0  0  0
   21.3071  -21.4418  -14.4023 N   0  0  0  0  0  0  0  0  0  0  0  0
   22.6599  -20.9994  -12.5199 C   0  0  0  0  0  0  0  0  0  0  0  0
   22.4909  -22.1920  -12.1416 O   0  0  0  0  0  0  0  0  0  0  0  0
   24.1266  -23.1061  -12.5837 C   0  0  0  0  0  0  0  0  0  0  0  0
   25.2825  -22.2583  -12.1345 C   0  0  1  0  0  0  0  0  0  0  0  0
   26.0113  -21.7362  -13.1794 O   0  0  0  0  0  0  0  0  0  0  0  0
   24.8133  -21.0935  -11.2421 C   0  0  2  0  0  0  0  0  0  0  0  0
   23.8264  -20.3712  -11.9785 N   0  0  0  0  0  0  0  0  0  0  0  0
   25.9500  -20.3252  -10.7388 C   0  0  0  0  0  0  0  0  0  0  0  0
   26.0113  -19.0657  -10.9723 O   0  0  0  0  0  0  0  0  0  0  0  0
   27.0446  -20.8271   -9.9874 N   0  0  0  0  0  0  0  0  0  0  0  0
   28.2033  -19.9978   -9.6173 C   0  0  1  0  0  0  0  0  0  0  0  0
   27.8157  -18.9668   -8.5998 C   0  0  0  0  0  0  0  0  0  0  0  0
   27.8056  -19.4609   -7.2060 C   0  0  0  0  0  0  0  0  0  0  0  0
   28.9136  -19.3737   -6.3880 C   0  0  0  0  0  0  0  0  0  0  0  0
   28.9094  -19.8274   -5.0825 C   0  0  0  0  0  0  0  0  0  0  0  0
   27.7762  -20.3910   -4.5505 C   0  0  0  0  0  0  0  0  0  0  0  0
   26.6528  -20.4935   -5.3403 C   0  0  0  0  0  0  0  0  0  0  0  0
   26.6658  -20.0385   -6.6405 C   0  0  0  0  0  0  0  0  0  0  0  0
   29.2808  -20.8811   -9.1475 C   0  0  0  0  0  0  0  0  0  0  0  0
   30.5350  -20.3788   -8.8524 O   0  0  0  0  0  0  0  0  0  0  0  0
   29.0830  -22.1124   -9.0045 O   0  0  0  0  0  0  0  0  0  0  0  0
  2  1  1  0
  3  2  1  0
  3  4  1  1
  5  6  1  6
  5  3  1  0
  7  5  1  0
  8  7  2  0
 10  9  1  6
 10 11  1  0
 12 10  1  0
 12 13  1  6
 13  7  1  0
 14 15  2  0
 14 12  1  0
 16 14  1  0
 17 25  1  0
 17 16  1  0
 17 18  1  1
 18 19  1  0
 19 20  2  0
 19 24  1  0
 20 21  1  0
 21 22  2  0
 23 22  1  0
 24 23  2  0
 25 26  1  0
 27 25  2  0
M  END
$$$$
