ITF.pdb
     RDKit          3D

 27 27  0  0  1  0  0  0  0  0999 V2000
   26.0809  -17.1640  -17.0535 C   0  0  0  0  0  0  0  0  0  0  0  0
   26.1127  -15.8226  -16.3819 C   0  0  0  0  0  0  0  0  0  0  0  0
   25.1053  -14.8503  -17.0207 C   0  0  2  0  0  0  0  0  0  0  0  0
   25.3553  -14.7357  -18.4895 C   0  0  0  0  0  0  0  0  0  0  0  0
   25.2241  -13.4939  -16.3220 C   0  0  2  0  0  0  0  0  0  0  0  0
   25.0341  -13.8346  -14.8915 N   0  0  0  0  0  0  0  0  0  0  0  0
   24.1430  -12.5671  -16.6715 C   0  0  0  0  0  0  0  0  0  0  0  0
   24.1657  -11.9668  -17.7820 O   0  0  0  0  0  0  0  0  0  0  0  0
   20.5436  -13.1195  -17.2960 C   0  0  0  0  0  0  0  0  0  0  0  0
   20.6515  -12.0884  -16.2088 C   0  0  1  0  0  0  0  0  0  0  0  0
   20.5126  -12.6156  -14.9446 O   0  0  0  0  0  0  0  0  0  0  0  0
   21.9953  -11.3383  -16.2753 C   0  0  2  0  0  0  0  0  0  0  0  0
   23.0083  -12.2534  -15.8575 N   0  0  0  0  0  0  0  0  0  0  0  0
   21.9240  -10.0661  -15.5598 C   0  0  0  0  0  0  0  0  0  0  0  0
   22.1960  -10.0324  -14.3070 O   0  0  0  0  0  0  0  0  0  0  0  0
   21.5746   -8.8047  -16.1090 N   0  0  0  0  0  0  0  0  0  0  0  0
   21.4457   -7.5881  -15.2902 C   0  0  1  0  0  0  0  0  0  0  0  0
   22.1871   -6.4449  -15.9162 C   0  0  0  0  0  0  0  0  0  0  0  0
   21.9203   -5.1313  -15.2916 C   0  0  0  0  0  0  0  0  0  0  0  0
   21.0036   -4.2423  -15.8144 C   0  0  0  0  0  0  0  0  0  0  0  0
   20.7444   -3.0158  -15.2324 C   0  0  0  0  0  0  0  0  0  0  0  0
   21.4076   -2.6388  -14.0910 C   0  0  0  0  0  0  0  0  0  0  0  0
   22.3294   -3.5027  -13.5433 C   0  0  0  0  0  0  0  0  0  0  0  0
   22.5814   -4.7234  -14.1301 C   0  0  0  0  0  0  0  0  0  0  0  0
   20.0163   -7.3005  -15.1001 C   0  0  0  0  0  0  0  0  0  0  0  0
   19.5426   -6.8118  -13.8963 O   0  0  0  0  0  0  0  0  0  0  0  0
   19.1951   -7.4934  -16.0298 O   0  0  0  0  0  0  0  0  0  0  0  0
  2  1  1  0
  3  2  1  0
  3  4  1  6
  5  6  1  1
  5  3  1  0
  7  5  1  0
  8  7  2  0
 10  9  1  6
 10 11  1  0
 12 10  1  0
 12 13  1  1
 13  7  1  0
 14 15  2  0
 14 12  1  0
 16 14  1  0
 17 25  1  0
 17 16  1  0
 17 18  1  6
 18 19  1  0
 19 20  2  0
 19 24  1  0
 20 21  1  0
 21 22  2  0
 23 22  1  0
 24 23  2  0
 25 26  1  0
 27 25  2  0
M  END
$$$$
