ITF.pdb
     RDKit          3D

 27 27  0  0  1  0  0  0  0  0999 V2000
   17.4436  -16.7773  -18.7385 C   0  0  0  0  0  0  0  0  0  0  0  0
   17.9924  -15.9309  -17.6277 C   0  0  0  0  0  0  0  0  0  0  0  0
   18.2906  -14.4992  -18.1068 C   0  0  2  0  0  0  0  0  0  0  0  0
   19.3175  -14.5190  -19.1922 C   0  0  0  0  0  0  0  0  0  0  0  0
   18.7549  -13.6690  -16.9079 C   0  0  2  0  0  0  0  0  0  0  0  0
   17.6677  -13.8681  -15.9196 N   0  0  0  0  0  0  0  0  0  0  0  0
   18.8009  -12.2297  -17.1846 C   0  0  0  0  0  0  0  0  0  0  0  0
   19.3243  -11.8131  -18.2554 O   0  0  0  0  0  0  0  0  0  0  0  0
   16.2363   -9.6654  -17.8357 C   0  0  0  0  0  0  0  0  0  0  0  0
   17.0368   -9.1870  -16.6581 C   0  0  1  0  0  0  0  0  0  0  0  0
   16.4358   -9.4535  -15.4485 O   0  0  0  0  0  0  0  0  0  0  0  0
   18.4464   -9.8084  -16.6454 C   0  0  2  0  0  0  0  0  0  0  0  0
   18.2918  -11.1940  -16.3381 N   0  0  0  0  0  0  0  0  0  0  0  0
   19.3513   -9.0432  -15.7904 C   0  0  0  0  0  0  0  0  0  0  0  0
   19.4781   -9.3695  -14.5566 O   0  0  0  0  0  0  0  0  0  0  0  0
   20.1443   -7.9316  -16.1781 N   0  0  0  0  0  0  0  0  0  0  0  0
   21.0090   -7.2029  -15.2354 C   0  0  1  0  0  0  0  0  0  0  0  0
   22.4552   -7.4823  -15.5160 C   0  0  0  0  0  0  0  0  0  0  0  0
   22.8457   -8.8986  -15.3464 C   0  0  0  0  0  0  0  0  0  0  0  0
   23.0538   -9.4589  -14.1026 C   0  0  0  0  0  0  0  0  0  0  0  0
   23.4125  -10.7833  -13.9363 C   0  0  0  0  0  0  0  0  0  0  0  0
   23.5757  -11.5974  -15.0296 C   0  0  0  0  0  0  0  0  0  0  0  0
   23.3758  -11.0695  -16.2856 C   0  0  0  0  0  0  0  0  0  0  0  0
   23.0184   -9.7483  -16.4421 C   0  0  0  0  0  0  0  0  0  0  0  0
   20.6830   -5.7712  -15.3113 C   0  0  0  0  0  0  0  0  0  0  0  0
   21.2288   -4.8686  -14.4169 O   0  0  0  0  0  0  0  0  0  0  0  0
   19.9004   -5.3384  -16.1921 O   0  0  0  0  0  0  0  0  0  0  0  0
  2  1  1  0
  3  2  1  0
  3  4  1  6
  5  6  1  1
  5  3  1  0
  7  5  1  0
  8  7  2  0
 10  9  1  6
 10 11  1  0
 12 10  1  0
 12 13  1  1
 13  7  1  0
 14 15  2  0
 14 12  1  0
 16 14  1  0
 17 25  1  0
 17 16  1  0
 17 18  1  6
 18 19  1  0
 19 20  2  0
 19 24  1  0
 20 21  1  0
 21 22  2  0
 23 22  1  0
 24 23  2  0
 25 26  1  0
 27 25  2  0
M  END
$$$$
