ITF.pdb
     RDKit          3D

 27 27  0  0  1  0  0  0  0  0999 V2000
   31.7069  -22.8569  -10.7021 C   0  0  0  0  0  0  0  0  0  0  0  0
   31.6267  -21.9194  -11.8710 C   0  0  0  0  0  0  0  0  0  0  0  0
   30.2163  -21.3210  -12.0157 C   0  0  2  0  0  0  0  0  0  0  0  0
   29.1954  -22.4102  -12.0822 C   0  0  0  0  0  0  0  0  0  0  0  0
   30.1840  -20.4422  -13.2681 C   0  0  2  0  0  0  0  0  0  0  0  0
   31.1183  -19.3414  -12.9309 N   0  0  0  0  0  0  0  0  0  0  0  0
   28.8784  -19.8168  -13.5018 C   0  0  0  0  0  0  0  0  0  0  0  0
   28.4557  -18.9313  -12.7072 O   0  0  0  0  0  0  0  0  0  0  0  0
   24.8875  -18.7879  -16.1879 C   0  0  0  0  0  0  0  0  0  0  0  0
   26.3029  -19.2735  -16.0561 C   0  0  1  0  0  0  0  0  0  0  0  0
   27.2346  -18.3530  -16.4804 O   0  0  0  0  0  0  0  0  0  0  0  0
   26.6324  -19.6605  -14.6018 C   0  0  2  0  0  0  0  0  0  0  0  0
   27.9877  -20.1089  -14.5833 N   0  0  0  0  0  0  0  0  0  0  0  0
   25.6303  -20.5763  -14.0609 C   0  0  0  0  0  0  0  0  0  0  0  0
   25.7809  -21.8398  -14.2203 O   0  0  0  0  0  0  0  0  0  0  0  0
   24.4564  -20.2202  -13.3467 N   0  0  0  0  0  0  0  0  0  0  0  0
   23.5601  -21.2181  -12.7401 C   0  0  1  0  0  0  0  0  0  0  0  0
   24.2258  -21.8946  -11.5792 C   0  0  0  0  0  0  0  0  0  0  0  0
   24.6468  -20.9762  -10.4992 C   0  0  0  0  0  0  0  0  0  0  0  0
   25.7323  -20.1346  -10.6327 C   0  0  0  0  0  0  0  0  0  0  0  0
   26.1276  -19.2691   -9.6302 C   0  0  0  0  0  0  0  0  0  0  0  0
   25.4352  -19.2215   -8.4457 C   0  0  0  0  0  0  0  0  0  0  0  0
   24.3468  -20.0486   -8.2798 C   0  0  0  0  0  0  0  0  0  0  0  0
   23.9597  -20.9082   -9.2844 C   0  0  0  0  0  0  0  0  0  0  0  0
   22.3039  -20.5527  -12.3643 C   0  0  0  0  0  0  0  0  0  0  0  0
   21.2712  -21.2609  -11.7773 O   0  0  0  0  0  0  0  0  0  0  0  0
   22.1434  -19.3248  -12.5695 O   0  0  0  0  0  0  0  0  0  0  0  0
  2  1  1  0
  3  2  1  0
  3  4  1  6
  5  6  1  1
  5  3  1  0
  7  5  1  0
  8  7  2  0
 10  9  1  1
 10 11  1  0
 12 10  1  0
 12 13  1  6
 13  7  1  0
 14 15  2  0
 14 12  1  0
 16 14  1  0
 17 25  1  0
 17 16  1  0
 17 18  1  1
 18 19  1  0
 19 20  2  0
 19 24  1  0
 20 21  1  0
 21 22  2  0
 23 22  1  0
 24 23  2  0
 25 26  1  0
 27 25  2  0
M  END
$$$$
