ITF.pdb
     RDKit          3D

 27 27  0  0  1  0  0  0  0  0999 V2000
   25.4021  -21.1161   -7.6768 C   0  0  0  0  0  0  0  0  0  0  0  0
   26.3454  -20.4423   -8.6295 C   0  0  0  0  0  0  0  0  0  0  0  0
   26.1700  -20.9727  -10.0634 C   0  0  2  0  0  0  0  0  0  0  0  0
   27.5021  -21.1510  -10.7166 C   0  0  0  0  0  0  0  0  0  0  0  0
   25.2877  -19.9946  -10.8423 C   0  0  2  0  0  0  0  0  0  0  0  0
   23.9476  -20.1989  -10.2418 N   0  0  0  0  0  0  0  0  0  0  0  0
   25.1590  -20.3372  -12.2623 C   0  0  0  0  0  0  0  0  0  0  0  0
   26.1147  -20.1028  -13.0533 O   0  0  0  0  0  0  0  0  0  0  0  0
   24.8980  -23.4969  -13.9757 C   0  0  0  0  0  0  0  0  0  0  0  0
   23.7228  -22.7011  -14.4677 C   0  0  1  0  0  0  0  0  0  0  0  0
   22.5409  -23.0376  -13.8470 O   0  0  0  0  0  0  0  0  0  0  0  0
   23.9512  -21.1884  -14.2860 C   0  0  2  0  0  0  0  0  0  0  0  0
   24.0180  -20.9394  -12.8819 N   0  0  0  0  0  0  0  0  0  0  0  0
   22.9716  -20.4134  -15.0445 C   0  0  0  0  0  0  0  0  0  0  0  0
   21.9075  -19.9997  -14.4604 O   0  0  0  0  0  0  0  0  0  0  0  0
   23.0596  -20.0453  -16.4126 N   0  0  0  0  0  0  0  0  0  0  0  0
   22.0155  -19.2641  -17.0957 C   0  0  1  0  0  0  0  0  0  0  0  0
   22.5403  -18.6764  -18.3715 C   0  0  0  0  0  0  0  0  0  0  0  0
   21.5488  -17.8828  -19.1291 C   0  0  0  0  0  0  0  0  0  0  0  0
   20.7538  -18.4426  -20.1083 C   0  0  0  0  0  0  0  0  0  0  0  0
   19.8206  -17.7085  -20.8158 C   0  0  0  0  0  0  0  0  0  0  0  0
   19.6548  -16.3702  -20.5582 C   0  0  0  0  0  0  0  0  0  0  0  0
   20.4326  -15.7802  -19.5871 C   0  0  0  0  0  0  0  0  0  0  0  0
   21.3603  -16.5196  -18.8867 C   0  0  0  0  0  0  0  0  0  0  0  0
   20.8465  -20.1301  -17.3091 C   0  0  0  0  0  0  0  0  0  0  0  0
   19.5644  -19.6635  -17.0834 O   0  0  0  0  0  0  0  0  0  0  0  0
   20.9896  -21.3138  -17.7016 O   0  0  0  0  0  0  0  0  0  0  0  0
  2  1  1  0
  3  2  1  0
  3  4  1  6
  5  6  1  1
  5  3  1  0
  7  5  1  0
  8  7  2  0
 10  9  1  1
 10 11  1  0
 12 10  1  0
 12 13  1  1
 13  7  1  0
 14 15  2  0
 14 12  1  0
 16 14  1  0
 17 25  1  0
 17 16  1  0
 17 18  1  6
 18 19  1  0
 19 20  2  0
 19 24  1  0
 20 21  1  0
 21 22  2  0
 23 22  1  0
 24 23  2  0
 25 26  1  0
 27 25  2  0
M  END
$$$$
