ITF.pdb
     RDKit          3D

 27 27  0  0  1  0  0  0  0  0999 V2000
   17.5694  -15.2819  -19.6909 C   0  0  0  0  0  0  0  0  0  0  0  0
   16.9707  -14.0524  -20.3086 C   0  0  0  0  0  0  0  0  0  0  0  0
   17.6419  -12.7732  -19.7783 C   0  0  2  0  0  0  0  0  0  0  0  0
   17.4875  -12.6837  -18.2947 C   0  0  0  0  0  0  0  0  0  0  0  0
   17.0190  -11.5659  -20.4828 C   0  0  2  0  0  0  0  0  0  0  0  0
   17.3696  -11.7891  -21.9060 N   0  0  0  0  0  0  0  0  0  0  0  0
   17.6372  -10.2920  -20.1016 C   0  0  0  0  0  0  0  0  0  0  0  0
   18.7666   -9.9776  -20.5703 O   0  0  0  0  0  0  0  0  0  0  0  0
   16.4977   -6.8208  -20.5901 C   0  0  0  0  0  0  0  0  0  0  0  0
   16.8157   -6.9435  -19.1271 C   0  0  1  0  0  0  0  0  0  0  0  0
   15.6974   -7.1013  -18.3397 O   0  0  0  0  0  0  0  0  0  0  0  0
   17.7694   -8.1223  -18.8550 C   0  0  2  0  0  0  0  0  0  0  0  0
   17.0758   -9.3162  -19.2178 N   0  0  0  0  0  0  0  0  0  0  0  0
   18.3069   -8.0619  -17.4974 C   0  0  0  0  0  0  0  0  0  0  0  0
   17.8335   -8.8434  -16.5975 O   0  0  0  0  0  0  0  0  0  0  0  0
   19.3377   -7.2038  -17.0327 N   0  0  0  0  0  0  0  0  0  0  0  0
   19.8004   -7.1994  -15.6352 C   0  0  1  0  0  0  0  0  0  0  0  0
   21.2332   -7.6330  -15.5482 C   0  0  0  0  0  0  0  0  0  0  0  0
   21.7856   -7.6373  -14.1764 C   0  0  0  0  0  0  0  0  0  0  0  0
   22.3152   -6.5036  -13.5945 C   0  0  0  0  0  0  0  0  0  0  0  0
   22.8272   -6.4987  -12.3108 C   0  0  0  0  0  0  0  0  0  0  0  0
   22.8234   -7.6488  -11.5611 C   0  0  0  0  0  0  0  0  0  0  0  0
   22.3023   -8.7982  -12.1121 C   0  0  0  0  0  0  0  0  0  0  0  0
   21.7939   -8.7939  -13.3924 C   0  0  0  0  0  0  0  0  0  0  0  0
   19.5784   -5.8593  -15.0722 C   0  0  0  0  0  0  0  0  0  0  0  0
   19.4365   -5.6745  -13.7091 O   0  0  0  0  0  0  0  0  0  0  0  0
   19.5132   -4.8533  -15.8202 O   0  0  0  0  0  0  0  0  0  0  0  0
  2  1  1  0
  3  2  1  0
  3  4  1  1
  5  6  1  6
  5  3  1  0
  7  5  1  0
  8  7  2  0
 10  9  1  6
 10 11  1  0
 12 10  1  0
 12 13  1  1
 13  7  1  0
 14 15  2  0
 14 12  1  0
 16 14  1  0
 17 25  1  0
 17 16  1  0
 17 18  1  6
 18 19  1  0
 19 20  2  0
 19 24  1  0
 20 21  1  0
 21 22  2  0
 23 22  1  0
 24 23  2  0
 25 26  1  0
 27 25  2  0
M  END
$$$$
