ITF.pdb
     RDKit          3D

 27 27  0  0  1  0  0  0  0  0999 V2000
   15.8248  -11.6784  -16.5956 C   0  0  0  0  0  0  0  0  0  0  0  0
   17.1411  -12.2997  -16.2309 C   0  0  0  0  0  0  0  0  0  0  0  0
   17.9922  -12.5873  -17.4803 C   0  0  2  0  0  0  0  0  0  0  0  0
   17.2511  -13.4854  -18.4169 C   0  0  0  0  0  0  0  0  0  0  0  0
   19.3185  -13.2084  -17.0363 C   0  0  2  0  0  0  0  0  0  0  0  0
   18.8899  -14.3857  -16.2435 N   0  0  0  0  0  0  0  0  0  0  0  0
   20.0804  -12.3518  -16.1220 C   0  0  0  0  0  0  0  0  0  0  0  0
   19.9013  -12.4486  -14.8759 O   0  0  0  0  0  0  0  0  0  0  0  0
   23.5189  -12.1423  -15.1761 C   0  0  0  0  0  0  0  0  0  0  0  0
   23.1796  -10.7452  -15.6116 C   0  0  1  0  0  0  0  0  0  0  0  0
   23.6222  -10.4497  -16.8814 O   0  0  0  0  0  0  0  0  0  0  0  0
   21.6612  -10.4913  -15.5571 C   0  0  2  0  0  0  0  0  0  0  0  0
   21.0537  -11.3733  -16.5012 N   0  0  0  0  0  0  0  0  0  0  0  0
   21.3599   -9.0685  -15.6996 C   0  0  0  0  0  0  0  0  0  0  0  0
   20.9504   -8.6218  -16.8298 O   0  0  0  0  0  0  0  0  0  0  0  0
   21.4702   -8.0750  -14.6917 N   0  0  0  0  0  0  0  0  0  0  0  0
   21.3020   -6.6388  -14.9677 C   0  0  1  0  0  0  0  0  0  0  0  0
   20.6312   -5.9512  -13.8163 C   0  0  0  0  0  0  0  0  0  0  0  0
   20.4386   -4.4971  -14.0042 C   0  0  0  0  0  0  0  0  0  0  0  0
   21.3879   -3.5743  -13.6149 C   0  0  0  0  0  0  0  0  0  0  0  0
   21.2175   -2.2144  -13.7933 C   0  0  0  0  0  0  0  0  0  0  0  0
   20.0719   -1.7322  -14.3764 C   0  0  0  0  0  0  0  0  0  0  0  0
   19.1041   -2.6265  -14.7763 C   0  0  0  0  0  0  0  0  0  0  0  0
   19.2824   -3.9804  -14.5947 C   0  0  0  0  0  0  0  0  0  0  0  0
   22.6188   -6.0647  -15.2817 C   0  0  0  0  0  0  0  0  0  0  0  0
   22.7636   -5.1216  -16.2827 O   0  0  0  0  0  0  0  0  0  0  0  0
   23.6407   -6.4204  -14.6454 O   0  0  0  0  0  0  0  0  0  0  0  0
  2  1  1  0
  3  2  1  0
  3  4  1  6
  5  6  1  1
  5  3  1  0
  7  5  1  0
  8  7  2  0
 10  9  1  6
 10 11  1  0
 12 10  1  0
 12 13  1  6
 13  7  1  0
 14 15  2  0
 14 12  1  0
 16 14  1  0
 17 25  1  0
 17 16  1  0
 17 18  1  1
 18 19  1  0
 19 20  2  0
 19 24  1  0
 20 21  1  0
 21 22  2  0
 23 22  1  0
 24 23  2  0
 25 26  1  0
 27 25  2  0
M  END
$$$$
