ITF.pdb
     RDKit          3D

 27 27  0  0  1  0  0  0  0  0999 V2000
   25.3431  -14.6798  -14.7712 C   0  0  0  0  0  0  0  0  0  0  0  0
   25.3777  -16.0009  -15.4818 C   0  0  0  0  0  0  0  0  0  0  0  0
   26.7715  -16.6478  -15.3980 C   0  0  2  0  0  0  0  0  0  0  0  0
   27.6067  -16.2327  -16.5655 C   0  0  0  0  0  0  0  0  0  0  0  0
   26.6026  -18.1677  -15.3390 C   0  0  2  0  0  0  0  0  0  0  0  0
   25.7114  -18.4520  -16.4893 N   0  0  0  0  0  0  0  0  0  0  0  0
   25.8882  -18.6238  -14.1424 C   0  0  0  0  0  0  0  0  0  0  0  0
   24.6303  -18.7300  -14.1649 O   0  0  0  0  0  0  0  0  0  0  0  0
   26.0893  -21.8382  -12.9129 C   0  0  0  0  0  0  0  0  0  0  0  0
   25.0713  -20.8490  -12.4213 C   0  0  1  0  0  0  0  0  0  0  0  0
   24.2240  -21.3695  -11.4691 O   0  0  0  0  0  0  0  0  0  0  0  0
   25.7437  -19.5927  -11.8359 C   0  0  2  0  0  0  0  0  0  0  0  0
   26.4855  -18.9826  -12.8922 N   0  0  0  0  0  0  0  0  0  0  0  0
   26.4805  -19.9106  -10.6146 C   0  0  0  0  0  0  0  0  0  0  0  0
   27.6664  -20.3907  -10.7018 O   0  0  0  0  0  0  0  0  0  0  0  0
   26.0214  -19.7441   -9.2818 N   0  0  0  0  0  0  0  0  0  0  0  0
   26.8497  -20.0667   -8.1083 C   0  0  1  0  0  0  0  0  0  0  0  0
   26.7161  -19.0071   -7.0558 C   0  0  0  0  0  0  0  0  0  0  0  0
   27.5579  -19.2273   -5.8600 C   0  0  0  0  0  0  0  0  0  0  0  0
   28.6305  -18.4136   -5.5572 C   0  0  0  0  0  0  0  0  0  0  0  0
   29.4175  -18.6095   -4.4381 C   0  0  0  0  0  0  0  0  0  0  0  0
   29.1478  -19.6436   -3.5762 C   0  0  0  0  0  0  0  0  0  0  0  0
   28.0844  -20.4747   -3.8493 C   0  0  0  0  0  0  0  0  0  0  0  0
   27.3052  -20.2720   -4.9672 C   0  0  0  0  0  0  0  0  0  0  0  0
   26.4716  -21.4012   -7.6204 C   0  0  0  0  0  0  0  0  0  0  0  0
   27.4284  -22.2900   -7.1652 O   0  0  0  0  0  0  0  0  0  0  0  0
   25.2692  -21.7613   -7.6073 O   0  0  0  0  0  0  0  0  0  0  0  0
  2  1  1  0
  3  2  1  0
  3  4  1  6
  5  6  1  6
  5  3  1  0
  7  5  1  0
  8  7  2  0
 10  9  1  1
 10 11  1  0
 12 10  1  0
 12 13  1  6
 13  7  1  0
 14 15  2  0
 14 12  1  0
 16 14  1  0
 17 25  1  0
 17 16  1  0
 17 18  1  1
 18 19  1  0
 19 20  2  0
 19 24  1  0
 20 21  1  0
 21 22  2  0
 23 22  1  0
 24 23  2  0
 25 26  1  0
 27 25  2  0
M  END
$$$$
