ITF.pdb
     RDKit          3D

 27 27  0  0  1  0  0  0  0  0999 V2000
   17.3039  -17.7838  -19.7078 C   0  0  0  0  0  0  0  0  0  0  0  0
   17.7646  -16.9690  -18.5350 C   0  0  0  0  0  0  0  0  0  0  0  0
   18.4314  -15.6584  -18.9886 C   0  0  2  0  0  0  0  0  0  0  0  0
   19.5303  -15.9449  -19.9598 C   0  0  0  0  0  0  0  0  0  0  0  0
   18.9510  -14.9207  -17.7525 C   0  0  2  0  0  0  0  0  0  0  0  0
   17.7477  -14.8163  -16.8925 N   0  0  0  0  0  0  0  0  0  0  0  0
   19.3750  -13.5458  -18.0357 C   0  0  0  0  0  0  0  0  0  0  0  0
   20.5781  -13.3099  -18.3375 O   0  0  0  0  0  0  0  0  0  0  0  0
   17.8384  -10.9405  -20.4690 C   0  0  0  0  0  0  0  0  0  0  0  0
   17.9767  -10.3357  -19.1010 C   0  0  1  0  0  0  0  0  0  0  0  0
   16.7975  -10.3246  -18.3904 O   0  0  0  0  0  0  0  0  0  0  0  0
   19.0391  -11.0731  -18.2639 C   0  0  2  0  0  0  0  0  0  0  0  0
   18.5375  -12.3855  -18.0104 N   0  0  0  0  0  0  0  0  0  0  0  0
   19.4319  -10.2838  -17.0984 C   0  0  0  0  0  0  0  0  0  0  0  0
   18.8979  -10.5341  -15.9596 O   0  0  0  0  0  0  0  0  0  0  0  0
   20.3771   -9.2252  -17.0729 N   0  0  0  0  0  0  0  0  0  0  0  0
   20.5734   -8.3613  -15.8971 C   0  0  1  0  0  0  0  0  0  0  0  0
   22.0100   -7.9498  -15.7737 C   0  0  0  0  0  0  0  0  0  0  0  0
   22.2191   -6.6813  -15.0428 C   0  0  0  0  0  0  0  0  0  0  0  0
   22.4427   -5.4861  -15.6954 C   0  0  0  0  0  0  0  0  0  0  0  0
   22.6324   -4.2958  -15.0192 C   0  0  0  0  0  0  0  0  0  0  0  0
   22.6034   -4.2686  -13.6468 C   0  0  0  0  0  0  0  0  0  0  0  0
   22.3827   -5.4443  -12.9646 C   0  0  0  0  0  0  0  0  0  0  0  0
   22.1945   -6.6262  -13.6468 C   0  0  0  0  0  0  0  0  0  0  0  0
   19.6616   -7.2126  -16.0022 C   0  0  0  0  0  0  0  0  0  0  0  0
   19.0726   -6.6661  -14.8766 O   0  0  0  0  0  0  0  0  0  0  0  0
   19.3988   -6.7037  -17.1192 O   0  0  0  0  0  0  0  0  0  0  0  0
  2  1  1  0
  3  2  1  0
  3  4  1  6
  5  6  1  1
  5  3  1  0
  7  5  1  0
  8  7  2  0
 10  9  1  6
 10 11  1  0
 12 10  1  0
 12 13  1  1
 13  7  1  0
 14 15  2  0
 14 12  1  0
 16 14  1  0
 17 25  1  0
 17 16  1  0
 17 18  1  6
 18 19  1  0
 19 20  2  0
 19 24  1  0
 20 21  1  0
 21 22  2  0
 23 22  1  0
 24 23  2  0
 25 26  1  0
 27 25  2  0
M  END
$$$$
