ITF.pdb
     RDKit          3D

 27 27  0  0  1  0  0  0  0  0999 V2000
   17.7522  -15.3126  -17.9845 C   0  0  0  0  0  0  0  0  0  0  0  0
   17.8532  -14.3177  -16.8658 C   0  0  0  0  0  0  0  0  0  0  0  0
   18.5037  -13.0054  -17.3378 C   0  0  2  0  0  0  0  0  0  0  0  0
   19.8526  -13.2760  -17.9212 C   0  0  0  0  0  0  0  0  0  0  0  0
   18.5871  -12.0455  -16.1488 C   0  0  2  0  0  0  0  0  0  0  0  0
   17.1671  -11.8641  -15.7627 N   0  0  0  0  0  0  0  0  0  0  0  0
   19.0875  -10.7162  -16.5132 C   0  0  0  0  0  0  0  0  0  0  0  0
   20.2888  -10.5756  -16.8754 O   0  0  0  0  0  0  0  0  0  0  0  0
   17.7322   -8.0258  -19.0035 C   0  0  0  0  0  0  0  0  0  0  0  0
   17.8925   -7.4393  -17.6299 C   0  0  1  0  0  0  0  0  0  0  0  0
   16.7120   -7.3793  -16.9239 O   0  0  0  0  0  0  0  0  0  0  0  0
   18.9159   -8.2322  -16.7949 C   0  0  2  0  0  0  0  0  0  0  0  0
   18.3300   -9.5019  -16.5074 N   0  0  0  0  0  0  0  0  0  0  0  0
   19.3816   -7.4499  -15.6518 C   0  0  0  0  0  0  0  0  0  0  0  0
   18.6135   -7.3017  -14.6355 O   0  0  0  0  0  0  0  0  0  0  0  0
   20.6395   -6.8049  -15.5237 N   0  0  0  0  0  0  0  0  0  0  0  0
   20.9815   -5.9474  -14.3771 C   0  0  1  0  0  0  0  0  0  0  0  0
   21.4547   -6.7730  -13.2183 C   0  0  0  0  0  0  0  0  0  0  0  0
   22.3102   -7.9186  -13.5962 C   0  0  0  0  0  0  0  0  0  0  0  0
   23.3261   -7.8022  -14.5228 C   0  0  0  0  0  0  0  0  0  0  0  0
   24.1335   -8.8668  -14.8760 C   0  0  0  0  0  0  0  0  0  0  0  0
   23.9428  -10.0990  -14.3014 C   0  0  0  0  0  0  0  0  0  0  0  0
   22.9372  -10.2495  -13.3728 C   0  0  0  0  0  0  0  0  0  0  0  0
   22.1371   -9.1828  -13.0266 C   0  0  0  0  0  0  0  0  0  0  0  0
   21.9781   -4.9579  -14.8127 C   0  0  0  0  0  0  0  0  0  0  0  0
   22.5373   -5.0196  -16.0760 O   0  0  0  0  0  0  0  0  0  0  0  0
   22.3421   -4.0345  -14.0441 O   0  0  0  0  0  0  0  0  0  0  0  0
  2  1  1  0
  3  2  1  0
  3  4  1  1
  5  6  1  6
  5  3  1  0
  7  5  1  0
  8  7  2  0
 10  9  1  6
 10 11  1  0
 12 10  1  0
 12 13  1  1
 13  7  1  0
 14 15  2  0
 14 12  1  0
 16 14  1  0
 17 25  1  0
 17 16  1  0
 17 18  1  1
 18 19  1  0
 19 20  2  0
 19 24  1  0
 20 21  1  0
 21 22  2  0
 23 22  1  0
 24 23  2  0
 25 26  1  0
 27 25  2  0
M  END
$$$$
