ITF.pdb
     RDKit          3D

 27 27  0  0  1  0  0  0  0  0999 V2000
   24.2540  -19.1552  -16.6196 C   0  0  0  0  0  0  0  0  0  0  0  0
   23.8034  -19.7904  -15.3370 C   0  0  0  0  0  0  0  0  0  0  0  0
   23.3016  -21.2268  -15.5672 C   0  0  2  0  0  0  0  0  0  0  0  0
   21.9399  -21.2080  -16.1823 C   0  0  0  0  0  0  0  0  0  0  0  0
   23.3036  -21.9663  -14.2273 C   0  0  2  0  0  0  0  0  0  0  0  0
   22.3883  -21.1518  -13.3923 N   0  0  0  0  0  0  0  0  0  0  0  0
   24.6065  -21.9405  -13.5549 C   0  0  0  0  0  0  0  0  0  0  0  0
   25.5616  -22.6289  -14.0110 O   0  0  0  0  0  0  0  0  0  0  0  0
   27.4299  -20.6232  -13.9142 C   0  0  0  0  0  0  0  0  0  0  0  0
   27.0968  -20.1784  -12.5186 C   0  0  1  0  0  0  0  0  0  0  0  0
   26.4442  -18.9669  -12.4760 O   0  0  0  0  0  0  0  0  0  0  0  0
   26.2300  -21.2209  -11.7870 C   0  0  2  0  0  0  0  0  0  0  0  0
   24.9342  -21.1839  -12.3851 N   0  0  0  0  0  0  0  0  0  0  0  0
   26.2906  -21.0329  -10.3391 C   0  0  0  0  0  0  0  0  0  0  0  0
   25.2141  -20.7727   -9.6925 O   0  0  0  0  0  0  0  0  0  0  0  0
   27.4501  -21.1076   -9.5238 N   0  0  0  0  0  0  0  0  0  0  0  0
   27.4306  -20.8084   -8.0825 C   0  0  1  0  0  0  0  0  0  0  0  0
   28.8255  -20.7063   -7.5418 C   0  0  0  0  0  0  0  0  0  0  0  0
   28.9005  -20.2798   -6.1278 C   0  0  0  0  0  0  0  0  0  0  0  0
   29.0956  -18.9620   -5.7677 C   0  0  0  0  0  0  0  0  0  0  0  0
   29.1603  -18.5552   -4.4485 C   0  0  0  0  0  0  0  0  0  0  0  0
   29.0292  -19.4725   -3.4354 C   0  0  0  0  0  0  0  0  0  0  0  0
   28.8336  -20.7963   -3.7603 C   0  0  0  0  0  0  0  0  0  0  0  0
   28.7703  -21.1929   -5.0781 C   0  0  0  0  0  0  0  0  0  0  0  0
   26.6486  -19.5816   -7.8691 C   0  0  0  0  0  0  0  0  0  0  0  0
   25.7454  -19.4857   -6.8263 O   0  0  0  0  0  0  0  0  0  0  0  0
   26.7859  -18.5940   -8.6316 O   0  0  0  0  0  0  0  0  0  0  0  0
  2  1  1  0
  3  2  1  0
  3  4  1  1
  5  6  1  1
  5  3  1  0
  7  5  1  0
  8  7  2  0
 10  9  1  6
 10 11  1  0
 12 10  1  0
 12 13  1  6
 13  7  1  0
 14 15  2  0
 14 12  1  0
 16 14  1  0
 17 25  1  0
 17 16  1  0
 17 18  1  6
 18 19  1  0
 19 20  2  0
 19 24  1  0
 20 21  1  0
 21 22  2  0
 23 22  1  0
 24 23  2  0
 25 26  1  0
 27 25  2  0
M  END
$$$$
