ITF.pdb
     RDKit          3D

 27 27  0  0  1  0  0  0  0  0999 V2000
   13.6466  -11.0641  -15.9852 C   0  0  0  0  0  0  0  0  0  0  0  0
   14.9938  -10.8614  -15.3563 C   0  0  0  0  0  0  0  0  0  0  0  0
   16.1291  -11.1912  -16.3414 C   0  0  2  0  0  0  0  0  0  0  0  0
   16.1140  -12.6463  -16.6814 C   0  0  0  0  0  0  0  0  0  0  0  0
   17.4600  -10.7744  -15.7112 C   0  0  2  0  0  0  0  0  0  0  0  0
   17.4234  -11.4316  -14.3825 N   0  0  0  0  0  0  0  0  0  0  0  0
   17.5521   -9.3335  -15.4552 C   0  0  0  0  0  0  0  0  0  0  0  0
   17.6724   -8.5310  -16.4225 O   0  0  0  0  0  0  0  0  0  0  0  0
   15.1845   -6.8096  -14.2262 C   0  0  0  0  0  0  0  0  0  0  0  0
   16.3653   -6.8014  -13.2976 C   0  0  1  0  0  0  0  0  0  0  0  0
   16.1749   -7.5684  -12.1702 O   0  0  0  0  0  0  0  0  0  0  0  0
   17.6425   -7.2912  -14.0062 C   0  0  2  0  0  0  0  0  0  0  0  0
   17.5162   -8.7037  -14.1705 N   0  0  0  0  0  0  0  0  0  0  0  0
   18.8411   -6.8146  -13.3194 C   0  0  0  0  0  0  0  0  0  0  0  0
   19.2355   -7.4107  -12.2546 O   0  0  0  0  0  0  0  0  0  0  0  0
   19.6601   -5.7217  -13.7064 N   0  0  0  0  0  0  0  0  0  0  0  0
   20.9636   -5.4432  -13.0816 C   0  0  1  0  0  0  0  0  0  0  0  0
   21.9028   -6.5961  -13.2747 C   0  0  0  0  0  0  0  0  0  0  0  0
   22.1553   -6.9451  -14.6895 C   0  0  0  0  0  0  0  0  0  0  0  0
   22.9080   -6.1412  -15.5210 C   0  0  0  0  0  0  0  0  0  0  0  0
   23.1534   -6.4643  -16.8422 C   0  0  0  0  0  0  0  0  0  0  0  0
   22.6431   -7.6212  -17.3769 C   0  0  0  0  0  0  0  0  0  0  0  0
   21.8872   -8.4461  -16.5740 C   0  0  0  0  0  0  0  0  0  0  0  0
   21.6476   -8.1162  -15.2581 C   0  0  0  0  0  0  0  0  0  0  0  0
   21.4887   -4.1856  -13.6336 C   0  0  0  0  0  0  0  0  0  0  0  0
   20.8425   -3.5391  -14.6713 O   0  0  0  0  0  0  0  0  0  0  0  0
   22.5372   -3.6722  -13.1722 O   0  0  0  0  0  0  0  0  0  0  0  0
  2  1  1  0
  3  2  1  0
  3  4  1  1
  5  6  1  1
  5  3  1  0
  7  5  1  0
  8  7  2  0
 10  9  1  6
 10 11  1  0
 12 10  1  0
 12 13  1  1
 13  7  1  0
 14 15  2  0
 14 12  1  0
 16 14  1  0
 17 25  1  0
 17 16  1  0
 17 18  1  6
 18 19  1  0
 19 20  2  0
 19 24  1  0
 20 21  1  0
 21 22  2  0
 23 22  1  0
 24 23  2  0
 25 26  1  0
 27 25  2  0
M  END
$$$$
