ITF.pdb
     RDKit          3D

 27 27  0  0  1  0  0  0  0  0999 V2000
   17.6547  -14.1720  -19.8635 C   0  0  0  0  0  0  0  0  0  0  0  0
   18.9907  -13.9412  -19.2207 C   0  0  0  0  0  0  0  0  0  0  0  0
   18.9495  -12.7458  -18.2525 C   0  0  2  0  0  0  0  0  0  0  0  0
   18.5127  -11.5109  -18.9718 C   0  0  0  0  0  0  0  0  0  0  0  0
   20.3365  -12.5731  -17.6292 C   0  0  2  0  0  0  0  0  0  0  0  0
   20.4967  -13.8043  -16.8187 N   0  0  0  0  0  0  0  0  0  0  0  0
   20.4123  -11.4495  -16.6901 C   0  0  0  0  0  0  0  0  0  0  0  0
   19.6951  -11.4507  -15.6510 O   0  0  0  0  0  0  0  0  0  0  0  0
   23.1094  -10.3030  -14.5800 C   0  0  0  0  0  0  0  0  0  0  0  0
   22.6798   -9.0832  -15.3441 C   0  0  1  0  0  0  0  0  0  0  0  0
   23.5057   -8.7884  -16.4055 O   0  0  0  0  0  0  0  0  0  0  0  0
   21.2415   -9.2294  -15.8761 C   0  0  2  0  0  0  0  0  0  0  0  0
   21.2507  -10.2972  -16.8236 N   0  0  0  0  0  0  0  0  0  0  0  0
   20.7183   -7.9456  -16.3386 C   0  0  0  0  0  0  0  0  0  0  0  0
   20.6491   -7.7107  -17.5974 O   0  0  0  0  0  0  0  0  0  0  0  0
   20.2554   -6.8781  -15.5256 N   0  0  0  0  0  0  0  0  0  0  0  0
   19.7877   -5.5981  -16.0826 C   0  0  1  0  0  0  0  0  0  0  0  0
   18.3355   -5.6763  -16.4478 C   0  0  0  0  0  0  0  0  0  0  0  0
   17.7428   -4.3876  -16.8660 C   0  0  0  0  0  0  0  0  0  0  0  0
   18.1480   -3.7297  -18.0094 C   0  0  0  0  0  0  0  0  0  0  0  0
   17.5941   -2.5284  -18.4098 C   0  0  0  0  0  0  0  0  0  0  0  0
   16.6021   -1.9422  -17.6634 C   0  0  0  0  0  0  0  0  0  0  0  0
   16.1746   -2.5725  -16.5162 C   0  0  0  0  0  0  0  0  0  0  0  0
   16.7322   -3.7698  -16.1246 C   0  0  0  0  0  0  0  0  0  0  0  0
   20.0712   -4.5324  -15.1100 C   0  0  0  0  0  0  0  0  0  0  0  0
   20.3082   -3.2347  -15.5251 O   0  0  0  0  0  0  0  0  0  0  0  0
   20.1036   -4.7801  -13.8798 O   0  0  0  0  0  0  0  0  0  0  0  0
  2  1  1  0
  3  2  1  0
  3  4  1  6
  5  6  1  1
  5  3  1  0
  7  5  1  0
  8  7  2  0
 10  9  1  6
 10 11  1  0
 12 10  1  0
 12 13  1  6
 13  7  1  0
 14 15  2  0
 14 12  1  0
 16 14  1  0
 17 25  1  0
 17 16  1  0
 17 18  1  1
 18 19  1  0
 19 20  2  0
 19 24  1  0
 20 21  1  0
 21 22  2  0
 23 22  1  0
 24 23  2  0
 25 26  1  0
 27 25  2  0
M  END
$$$$
