ITF.pdb
     RDKit          3D

 27 27  0  0  1  0  0  0  0  0999 V2000
   15.6506  -23.4345    2.5224 C   0  0  0  0  0  0  0  0  0  0  0  0
   15.2486  -22.0034    2.7268 C   0  0  0  0  0  0  0  0  0  0  0  0
   16.2257  -21.2737    3.6654 C   0  0  2  0  0  0  0  0  0  0  0  0
   16.3158  -21.9865    4.9757 C   0  0  0  0  0  0  0  0  0  0  0  0
   15.7488  -19.8303    3.8416 C   0  0  2  0  0  0  0  0  0  0  0  0
   15.7864  -19.2926    2.4604 N   0  0  0  0  0  0  0  0  0  0  0  0
   16.6734  -19.0081    4.6286 C   0  0  0  0  0  0  0  0  0  0  0  0
   17.9002  -19.3045    4.6659 O   0  0  0  0  0  0  0  0  0  0  0  0
   17.4924  -15.1271    7.6634 C   0  0  0  0  0  0  0  0  0  0  0  0
   16.5722  -15.9198    6.7795 C   0  0  1  0  0  0  0  0  0  0  0  0
   16.1260  -15.2118    5.6862 O   0  0  0  0  0  0  0  0  0  0  0  0
   17.2467  -17.2106    6.2777 C   0  0  2  0  0  0  0  0  0  0  0  0
   16.3257  -17.8496    5.3936 N   0  0  0  0  0  0  0  0  0  0  0  0
   17.7485  -18.0102    7.3932 C   0  0  0  0  0  0  0  0  0  0  0  0
   17.0903  -19.0430    7.7737 O   0  0  0  0  0  0  0  0  0  0  0  0
   18.9312  -17.7715    8.1409 N   0  0  0  0  0  0  0  0  0  0  0  0
   19.3711  -18.6503    9.2371 C   0  0  1  0  0  0  0  0  0  0  0  0
   20.7598  -19.1577    8.9870 C   0  0  0  0  0  0  0  0  0  0  0  0
   21.7985  -18.1051    8.9697 C   0  0  0  0  0  0  0  0  0  0  0  0
   22.2740  -17.5621    7.7935 C   0  0  0  0  0  0  0  0  0  0  0  0
   23.2398  -16.5737    7.7700 C   0  0  0  0  0  0  0  0  0  0  0  0
   23.7656  -16.0934    8.9437 C   0  0  0  0  0  0  0  0  0  0  0  0
   23.3131  -16.6141   10.1355 C   0  0  0  0  0  0  0  0  0  0  0  0
   22.3500  -17.5991   10.1496 C   0  0  0  0  0  0  0  0  0  0  0  0
   19.2566  -17.9125   10.5038 C   0  0  0  0  0  0  0  0  0  0  0  0
   19.3180  -18.5704   11.7187 O   0  0  0  0  0  0  0  0  0  0  0  0
   19.1004  -16.6670   10.5076 O   0  0  0  0  0  0  0  0  0  0  0  0
  2  1  1  0
  3  2  1  0
  3  4  1  1
  5  6  1  6
  5  3  1  0
  7  5  1  0
  8  7  2  0
 10  9  1  6
 10 11  1  0
 12 10  1  0
 12 13  1  1
 13  7  1  0
 14 15  2  0
 14 12  1  0
 16 14  1  0
 17 25  1  0
 17 16  1  0
 17 18  1  6
 18 19  1  0
 19 20  2  0
 19 24  1  0
 20 21  1  0
 21 22  2  0
 23 22  1  0
 24 23  2  0
 25 26  1  0
 27 25  2  0
M  END
$$$$
