ITF.pdb
     RDKit          3D

 27 27  0  0  1  0  0  0  0  0999 V2000
   13.5719  -14.5418  -15.5354 C   0  0  0  0  0  0  0  0  0  0  0  0
   14.7359  -13.6449  -15.8389 C   0  0  0  0  0  0  0  0  0  0  0  0
   15.1389  -12.8117  -14.6094 C   0  0  2  0  0  0  0  0  0  0  0  0
   13.9607  -12.0554  -14.0869 C   0  0  0  0  0  0  0  0  0  0  0  0
   16.2792  -11.8719  -15.0078 C   0  0  2  0  0  0  0  0  0  0  0  0
   17.3950  -12.8029  -15.3021 N   0  0  0  0  0  0  0  0  0  0  0  0
   16.7355  -11.0176  -13.9068 C   0  0  0  0  0  0  0  0  0  0  0  0
   17.2680  -11.5388  -12.8875 O   0  0  0  0  0  0  0  0  0  0  0  0
   19.2135   -8.2345  -13.8814 C   0  0  0  0  0  0  0  0  0  0  0  0
   17.9650   -7.6980  -13.2411 C   0  0  1  0  0  0  0  0  0  0  0  0
   17.2180   -6.9079  -14.0857 O   0  0  0  0  0  0  0  0  0  0  0  0
   17.0656   -8.8352  -12.7206 C   0  0  2  0  0  0  0  0  0  0  0  0
   16.6435   -9.5903  -13.8563 N   0  0  0  0  0  0  0  0  0  0  0  0
   16.0135   -8.3170  -11.8487 C   0  0  0  0  0  0  0  0  0  0  0  0
   14.8634   -8.0418  -12.3449 O   0  0  0  0  0  0  0  0  0  0  0  0
   16.1148   -8.0706  -10.4545 N   0  0  0  0  0  0  0  0  0  0  0  0
   15.0938   -7.3236   -9.7017 C   0  0  1  0  0  0  0  0  0  0  0  0
   15.0259   -7.7999   -8.2815 C   0  0  0  0  0  0  0  0  0  0  0  0
   14.0120   -7.1091   -7.4557 C   0  0  0  0  0  0  0  0  0  0  0  0
   12.6939   -7.5160   -7.4187 C   0  0  0  0  0  0  0  0  0  0  0  0
   11.7425   -6.8793   -6.6443 C   0  0  0  0  0  0  0  0  0  0  0  0
   12.0904   -5.7987   -5.8722 C   0  0  0  0  0  0  0  0  0  0  0  0
   13.3979   -5.3667   -5.8863 C   0  0  0  0  0  0  0  0  0  0  0  0
   14.3397   -6.0074   -6.6612 C   0  0  0  0  0  0  0  0  0  0  0  0
   15.3930   -5.8877   -9.8045 C   0  0  0  0  0  0  0  0  0  0  0  0
   14.3781   -4.9560   -9.9243 O   0  0  0  0  0  0  0  0  0  0  0  0
   16.5793   -5.4778   -9.7854 O   0  0  0  0  0  0  0  0  0  0  0  0
  2  1  1  0
  3  2  1  0
  3  4  1  6
  5  6  1  1
  5  3  1  0
  7  5  1  0
  8  7  2  0
 10  9  1  6
 10 11  1  0
 12 10  1  0
 12 13  1  6
 13  7  1  0
 14 15  2  0
 14 12  1  0
 16 14  1  0
 17 25  1  0
 17 16  1  0
 17 18  1  1
 18 19  1  0
 19 20  2  0
 19 24  1  0
 20 21  1  0
 21 22  2  0
 23 22  1  0
 24 23  2  0
 25 26  1  0
 27 25  2  0
M  END
$$$$
