WPA.pdb
     RDKit          3D

 27 29  0  0  1  0  0  0  0  0999 V2000
   20.7112  -12.4541  -17.2069 N   0  0  0  0  0  0  0  0  0  0  0  0
   19.8642  -11.3176  -17.1224 C   0  0  1  0  0  0  0  0  0  0  0  0
   18.7715  -11.4360  -16.0920 C   0  0  0  0  0  0  0  0  0  0  0  0
   17.8341  -12.5400  -16.3658 C   0  0  0  0  0  0  0  0  0  0  0  0
   18.1114  -13.8686  -16.5747 C   0  0  0  0  0  0  0  0  0  0  0  0
   16.9549  -14.5028  -16.7847 N   0  0  0  0  0  0  0  0  0  0  0  0
   15.9436  -13.6459  -16.7214 C   0  0  0  0  0  0  0  0  0  0  0  0
   14.5640  -13.7643  -16.8607 C   0  0  0  0  0  0  0  0  0  0  0  0
   13.7378  -12.6691  -16.7403 C   0  0  0  0  0  0  0  0  0  0  0  0
   14.2581  -11.4236  -16.4777 C   0  0  0  0  0  0  0  0  0  0  0  0
   15.6196  -11.3054  -16.3399 C   0  0  0  0  0  0  0  0  0  0  0  0
   16.4678  -12.4149  -16.4610 C   0  0  0  0  0  0  0  0  0  0  0  0
   20.6439  -10.0712  -16.9736 C   0  0  0  0  0  0  0  0  0  0  0  0
   21.7297  -10.1174  -16.2876 O   0  0  0  0  0  0  0  0  0  0  0  0
   20.2993   -8.8077  -17.5263 N   0  0  0  0  0  0  0  0  0  0  0  0
   19.1499   -8.5410  -18.3556 C   0  0  0  0  0  0  0  0  0  0  0  0
   19.3390   -7.1134  -18.8797 C   0  0  0  0  0  0  0  0  0  0  0  0
   20.8380   -6.8573  -18.6366 C   0  0  0  0  0  0  0  0  0  0  0  0
   21.0244   -7.6024  -17.3425 C   0  0  1  0  0  0  0  0  0  0  0  0
   20.4773   -6.7317  -16.2661 C   0  0  0  0  0  0  0  0  0  0  0  0
   19.2343   -6.6555  -16.1106 O   0  0  0  0  0  0  0  0  0  0  0  0
   21.9448   -5.3604  -13.1049 C   0  0  0  0  0  0  0  0  0  0  0  0
   20.8782   -5.4056  -14.1495 C   0  0  2  0  0  0  0  0  0  0  0  0
   21.3169   -5.9802  -15.4045 N   0  0  0  0  0  0  0  0  0  0  0  0
   20.3953   -4.0256  -14.4406 C   0  0  0  0  0  0  0  0  0  0  0  0
   20.6910   -3.4319  -15.5077 O   0  0  0  0  0  0  0  0  0  0  0  0
   19.5868   -3.3327  -13.5281 O   0  0  0  0  0  0  0  0  0  0  0  0
  2  1  1  1
  2 13  1  0
  3  2  1  0
  4  3  1  0
  4  5  2  0
  6  5  1  0
  7  6  1  0
  8  7  2  0
  9  8  1  0
 10  9  2  0
 10 11  1  0
 11 12  2  0
 12  7  1  0
 12  4  1  0
 13 14  2  0
 15 13  1  0
 15 16  1  0
 17 16  1  0
 18 17  1  0
 19 18  1  0
 19 15  1  0
 19 20  1  1
 21 20  2  0
 23 22  1  1
 23 24  1  0
 24 20  1  0
 25 23  1  0
 25 27  1  0
 26 25  2  0
M  END
$$$$
