WPA.pdb
     RDKit          3D

 27 29  0  0  1  0  0  0  0  0999 V2000
   24.1940  -20.3652  -10.7513 N   0  0  0  0  0  0  0  0  0  0  0  0
   25.5615  -20.2729  -11.1225 C   0  0  1  0  0  0  0  0  0  0  0  0
   26.4943  -21.0715  -10.2497 C   0  0  0  0  0  0  0  0  0  0  0  0
   26.5056  -20.6184   -8.8472 C   0  0  0  0  0  0  0  0  0  0  0  0
   25.4477  -20.2286   -8.0633 C   0  0  0  0  0  0  0  0  0  0  0  0
   25.9254  -19.9002   -6.8600 N   0  0  0  0  0  0  0  0  0  0  0  0
   27.2426  -20.0596   -6.8302 C   0  0  0  0  0  0  0  0  0  0  0  0
   28.2191  -19.8693   -5.8571 C   0  0  0  0  0  0  0  0  0  0  0  0
   29.5469  -20.1241   -6.1189 C   0  0  0  0  0  0  0  0  0  0  0  0
   29.9438  -20.5756   -7.3556 C   0  0  0  0  0  0  0  0  0  0  0  0
   28.9809  -20.7639   -8.3170 C   0  0  0  0  0  0  0  0  0  0  0  0
   27.6272  -20.5070   -8.0589 C   0  0  0  0  0  0  0  0  0  0  0  0
   25.7530  -20.5598  -12.5594 C   0  0  0  0  0  0  0  0  0  0  0  0
   24.7627  -21.0538  -13.2129 O   0  0  0  0  0  0  0  0  0  0  0  0
   26.9480  -20.3375  -13.2962 N   0  0  0  0  0  0  0  0  0  0  0  0
   28.2423  -20.0514  -12.7277 C   0  0  0  0  0  0  0  0  0  0  0  0
   29.1394  -19.6700  -13.9103 C   0  0  0  0  0  0  0  0  0  0  0  0
   28.1213  -19.3479  -15.0199 C   0  0  0  0  0  0  0  0  0  0  0  0
   27.0631  -20.3719  -14.7097 C   0  0  1  0  0  0  0  0  0  0  0  0
   27.5588  -21.6718  -15.2395 C   0  0  0  0  0  0  0  0  0  0  0  0
   28.7124  -22.0597  -14.9332 O   0  0  0  0  0  0  0  0  0  0  0  0
   26.1453  -24.8517  -16.4205 C   0  0  0  0  0  0  0  0  0  0  0  0
   27.1868  -23.7914  -16.5691 C   0  0  2  0  0  0  0  0  0  0  0  0
   26.7681  -22.4926  -16.0839 N   0  0  0  0  0  0  0  0  0  0  0  0
   27.5450  -23.6311  -18.0073 C   0  0  0  0  0  0  0  0  0  0  0  0
   27.3372  -22.5573  -18.6256 O   0  0  0  0  0  0  0  0  0  0  0  0
   28.1317  -24.6800  -18.7298 O   0  0  0  0  0  0  0  0  0  0  0  0
  2  1  1  1
  2 13  1  0
  3  2  1  0
  4  3  1  0
  4  5  2  0
  6  5  1  0
  7  6  1  0
  8  7  2  0
  9  8  1  0
 10  9  2  0
 10 11  1  0
 11 12  2  0
 12  7  1  0
 12  4  1  0
 13 14  2  0
 15 13  1  0
 15 16  1  0
 17 16  1  0
 18 17  1  0
 19 18  1  0
 19 15  1  0
 19 20  1  1
 21 20  2  0
 23 22  1  6
 23 24  1  0
 24 20  1  0
 25 23  1  0
 25 27  1  0
 26 25  2  0
M  END
$$$$
