WPA.pdb
     RDKit          3D

 27 29  0  0  1  0  0  0  0  0999 V2000
   24.0661  -20.2165  -11.3046 N   0  0  0  0  0  0  0  0  0  0  0  0
   25.4535  -20.2487  -11.6051 C   0  0  1  0  0  0  0  0  0  0  0  0
   26.2616  -21.1422  -10.7005 C   0  0  0  0  0  0  0  0  0  0  0  0
   26.1729  -20.7607   -9.2795 C   0  0  0  0  0  0  0  0  0  0  0  0
   25.0511  -20.5810   -8.5082 C   0  0  0  0  0  0  0  0  0  0  0  0
   25.4466  -20.2392   -7.2791 N   0  0  0  0  0  0  0  0  0  0  0  0
   26.7715  -20.1897   -7.2206 C   0  0  0  0  0  0  0  0  0  0  0  0
   27.6859  -19.8942   -6.2139 C   0  0  0  0  0  0  0  0  0  0  0  0
   29.0422  -19.9230   -6.4507 C   0  0  0  0  0  0  0  0  0  0  0  0
   29.5302  -20.2465   -7.6949 C   0  0  0  0  0  0  0  0  0  0  0  0
   28.6287  -20.5383   -8.6893 C   0  0  0  0  0  0  0  0  0  0  0  0
   27.2466  -20.5113   -8.4570 C   0  0  0  0  0  0  0  0  0  0  0  0
   25.6913  -20.5344  -13.0353 C   0  0  0  0  0  0  0  0  0  0  0  0
   24.7725  -21.1526  -13.6875 O   0  0  0  0  0  0  0  0  0  0  0  0
   26.8587  -20.1846  -13.7668 N   0  0  0  0  0  0  0  0  0  0  0  0
   28.0383  -19.5636  -13.2161 C   0  0  0  0  0  0  0  0  0  0  0  0
   28.9076  -19.1845  -14.4199 C   0  0  0  0  0  0  0  0  0  0  0  0
   27.9095  -19.2390  -15.5913 C   0  0  0  0  0  0  0  0  0  0  0  0
   27.0567  -20.3996  -15.1549 C   0  0  1  0  0  0  0  0  0  0  0  0
   27.8260  -21.6354  -15.4666 C   0  0  0  0  0  0  0  0  0  0  0  0
   28.6122  -22.1021  -14.6069 O   0  0  0  0  0  0  0  0  0  0  0  0
   26.1264  -24.1222  -16.1644 C   0  0  0  0  0  0  0  0  0  0  0  0
   27.3980  -23.7187  -16.8361 C   0  0  2  0  0  0  0  0  0  0  0  0
   27.7010  -22.3081  -16.7090 N   0  0  0  0  0  0  0  0  0  0  0  0
   27.3203  -24.0242  -18.2931 C   0  0  0  0  0  0  0  0  0  0  0  0
   27.9852  -24.9562  -18.8106 O   0  0  0  0  0  0  0  0  0  0  0  0
   26.4965  -23.2776  -19.1477 O   0  0  0  0  0  0  0  0  0  0  0  0
  2  1  1  1
  2 13  1  0
  3  2  1  0
  4  3  1  0
  4  5  2  0
  6  5  1  0
  7  6  1  0
  8  7  2  0
  9  8  1  0
 10  9  2  0
 10 11  1  0
 11 12  2  0
 12  7  1  0
 12  4  1  0
 13 14  2  0
 15 13  1  0
 15 16  1  0
 17 16  1  0
 18 17  1  0
 19 18  1  0
 19 15  1  0
 19 20  1  1
 21 20  2  0
 23 22  1  1
 23 24  1  0
 24 20  1  0
 25 23  1  0
 25 27  1  0
 26 25  2  0
M  END
$$$$
