WPA.pdb
     RDKit          3D

 27 29  0  0  1  0  0  0  0  0999 V2000
   22.0119  -19.2788  -13.8633 N   0  0  0  0  0  0  0  0  0  0  0  0
   23.0440  -20.0355  -13.2481 C   0  0  1  0  0  0  0  0  0  0  0  0
   22.6773  -21.4701  -12.9702 C   0  0  0  0  0  0  0  0  0  0  0  0
   21.6430  -21.6125  -11.9297 C   0  0  0  0  0  0  0  0  0  0  0  0
   20.3198  -21.9490  -12.0762 C   0  0  0  0  0  0  0  0  0  0  0  0
   19.7604  -21.9585  -10.8634 N   0  0  0  0  0  0  0  0  0  0  0  0
   20.6606  -21.6438   -9.9405 C   0  0  0  0  0  0  0  0  0  0  0  0
   20.6212  -21.5087   -8.5559 C   0  0  0  0  0  0  0  0  0  0  0  0
   21.7453  -21.1608   -7.8404 C   0  0  0  0  0  0  0  0  0  0  0  0
   22.9420  -20.9368   -8.4796 C   0  0  0  0  0  0  0  0  0  0  0  0
   22.9822  -21.0699   -9.8462 C   0  0  0  0  0  0  0  0  0  0  0  0
   21.8428  -21.4236  -10.5821 C   0  0  0  0  0  0  0  0  0  0  0  0
   24.3180  -19.9144  -13.9869 C   0  0  0  0  0  0  0  0  0  0  0  0
   24.2965  -19.3388  -15.1358 O   0  0  0  0  0  0  0  0  0  0  0  0
   25.5831  -20.3825  -13.5386 N   0  0  0  0  0  0  0  0  0  0  0  0
   25.8180  -21.1382  -12.3328 C   0  0  0  0  0  0  0  0  0  0  0  0
   27.3409  -21.2038  -12.1747 C   0  0  0  0  0  0  0  0  0  0  0  0
   27.8284  -20.0746  -13.1014 C   0  0  0  0  0  0  0  0  0  0  0  0
   26.8178  -20.1914  -14.2104 C   0  0  1  0  0  0  0  0  0  0  0  0
   27.2323  -21.3523  -15.0450 C   0  0  0  0  0  0  0  0  0  0  0  0
   26.9648  -22.5150  -14.6554 O   0  0  0  0  0  0  0  0  0  0  0  0
   28.0934  -21.4866  -18.7119 C   0  0  0  0  0  0  0  0  0  0  0  0
   27.8247  -22.1140  -17.3833 C   0  0  2  0  0  0  0  0  0  0  0  0
   27.9237  -21.1897  -16.2727 N   0  0  0  0  0  0  0  0  0  0  0  0
   28.8032  -23.2106  -17.1337 C   0  0  0  0  0  0  0  0  0  0  0  0
   29.7485  -23.0812  -16.3162 O   0  0  0  0  0  0  0  0  0  0  0  0
   28.7053  -24.4370  -17.8065 O   0  0  0  0  0  0  0  0  0  0  0  0
  2  1  1  6
  2 13  1  0
  3  2  1  0
  4  3  1  0
  4  5  2  0
  6  5  1  0
  7  6  1  0
  8  7  2  0
  9  8  1  0
 10  9  2  0
 10 11  1  0
 11 12  2  0
 12  7  1  0
 12  4  1  0
 13 14  2  0
 15 13  1  0
 15 16  1  0
 17 16  1  0
 18 17  1  0
 19 18  1  0
 19 15  1  0
 19 20  1  6
 21 20  2  0
 23 22  1  6
 23 24  1  0
 24 20  1  0
 25 23  1  0
 25 27  1  0
 26 25  2  0
M  END
$$$$
