WPA.pdb
     RDKit          3D

 27 29  0  0  1  0  0  0  0  0999 V2000
   25.5996  -21.7278  -18.6830 N   0  0  0  0  0  0  0  0  0  0  0  0
   25.0947  -20.9971  -17.5751 C   0  0  1  0  0  0  0  0  0  0  0  0
   23.6241  -21.2005  -17.3186 C   0  0  0  0  0  0  0  0  0  0  0  0
   23.0704  -20.2504  -16.3371 C   0  0  0  0  0  0  0  0  0  0  0  0
   22.6640  -18.9537  -16.5338 C   0  0  0  0  0  0  0  0  0  0  0  0
   22.2313  -18.4756  -15.3641 N   0  0  0  0  0  0  0  0  0  0  0  0
   22.3394  -19.4031  -14.4211 C   0  0  0  0  0  0  0  0  0  0  0  0
   22.0436  -19.4409  -13.0618 C   0  0  0  0  0  0  0  0  0  0  0  0
   22.2685  -20.5751  -12.3136 C   0  0  0  0  0  0  0  0  0  0  0  0
   22.7939  -21.7055  -12.8942 C   0  0  0  0  0  0  0  0  0  0  0  0
   23.0863  -21.6694  -14.2358 C   0  0  0  0  0  0  0  0  0  0  0  0
   22.8606  -20.5192  -15.0047 C   0  0  0  0  0  0  0  0  0  0  0  0
   25.9119  -21.2172  -16.3637 C   0  0  0  0  0  0  0  0  0  0  0  0
   26.2398  -22.4243  -16.0686 O   0  0  0  0  0  0  0  0  0  0  0  0
   26.3751  -20.2033  -15.4817 N   0  0  0  0  0  0  0  0  0  0  0  0
   26.1390  -18.7886  -15.6332 C   0  0  0  0  0  0  0  0  0  0  0  0
   27.0186  -18.1063  -14.5799 C   0  0  0  0  0  0  0  0  0  0  0  0
   28.0264  -19.2107  -14.2108 C   0  0  0  0  0  0  0  0  0  0  0  0
   27.1354  -20.4199  -14.3039 C   0  0  1  0  0  0  0  0  0  0  0  0
   26.3190  -20.4453  -13.0593 C   0  0  0  0  0  0  0  0  0  0  0  0
   25.3071  -19.7079  -12.9739 O   0  0  0  0  0  0  0  0  0  0  0  0
   26.3556  -22.3881   -9.7797 C   0  0  0  0  0  0  0  0  0  0  0  0
   25.8474  -21.3782  -10.7558 C   0  0  2  0  0  0  0  0  0  0  0  0
   26.6467  -21.2788  -11.9595 N   0  0  0  0  0  0  0  0  0  0  0  0
   25.8297  -20.0277  -10.1247 C   0  0  0  0  0  0  0  0  0  0  0  0
   24.9492  -19.6978   -9.2914 O   0  0  0  0  0  0  0  0  0  0  0  0
   26.8021  -19.0675  -10.4391 O   0  0  0  0  0  0  0  0  0  0  0  0
  2  1  1  6
  2 13  1  0
  3  2  1  0
  4  3  1  0
  4  5  2  0
  6  5  1  0
  7  6  1  0
  8  7  2  0
  9  8  1  0
 10  9  2  0
 10 11  1  0
 11 12  2  0
 12  7  1  0
 12  4  1  0
 13 14  2  0
 15 13  1  0
 15 16  1  0
 17 16  1  0
 18 17  1  0
 19 18  1  0
 19 15  1  0
 19 20  1  1
 21 20  2  0
 23 22  1  1
 23 24  1  0
 24 20  1  0
 25 23  1  0
 25 27  1  0
 26 25  2  0
M  END
$$$$
