CFF.pdb
     RDKit          3D

 29 30  0  0  1  0  0  0  0  0999 V2000
   26.3718  -15.8292  -18.7666 N   0  0  0  0  0  0  0  0  0  0  0  0
   26.5695  -17.2032  -18.3516 C   0  0  1  0  0  0  0  0  0  0  0  0
   28.0599  -17.4418  -18.2728 C   0  0  0  0  0  0  0  0  0  0  0  0
   28.3530  -19.1555  -17.7562 S   0  0  0  0  0  0  0  0  0  0  0  0
   25.9008  -17.3922  -17.0501 C   0  0  0  0  0  0  0  0  0  0  0  0
   26.3623  -16.9444  -15.9654 O   0  0  0  0  0  0  0  0  0  0  0  0
   24.6762  -18.1050  -16.9574 N   0  0  0  0  0  0  0  0  0  0  0  0
   24.0268  -18.3487  -15.6762 C   0  0  1  0  0  0  0  0  0  0  0  0
   22.6100  -17.8991  -15.6756 C   0  0  0  0  0  0  0  0  0  0  0  0
   21.9230  -18.1201  -14.3868 C   0  0  0  0  0  0  0  0  0  0  0  0
   21.3137  -19.3575  -14.1443 C   0  0  0  0  0  0  0  0  0  0  0  0
   20.6728  -19.6450  -12.9610 C   0  0  0  0  0  0  0  0  0  0  0  0
   20.6194  -18.6910  -11.9666 C   0  0  0  0  0  0  0  0  0  0  0  0
   21.2219  -17.4664  -12.2051 C   0  0  0  0  0  0  0  0  0  0  0  0
   21.8604  -17.1772  -13.3816 C   0  0  0  0  0  0  0  0  0  0  0  0
   24.1710  -19.7514  -15.2556 C   0  0  0  0  0  0  0  0  0  0  0  0
   23.9018  -20.6597  -16.0782 O   0  0  0  0  0  0  0  0  0  0  0  0
   24.6081  -20.0788  -13.9395 N   0  0  0  0  0  0  0  0  0  0  0  0
   24.7544  -21.4603  -13.5437 C   0  0  1  0  0  0  0  0  0  0  0  0
   25.9912  -21.5987  -12.7154 C   0  0  0  0  0  0  0  0  0  0  0  0
   25.8389  -21.0698  -11.3606 C   0  0  0  0  0  0  0  0  0  0  0  0
   25.3344  -21.7850  -10.3187 C   0  0  0  0  0  0  0  0  0  0  0  0
   25.2184  -21.2278   -9.0545 C   0  0  0  0  0  0  0  0  0  0  0  0
   25.6073  -19.9309   -8.7995 C   0  0  0  0  0  0  0  0  0  0  0  0
   26.1207  -19.2076   -9.8667 C   0  0  0  0  0  0  0  0  0  0  0  0
   26.2361  -19.7567  -11.1165 C   0  0  0  0  0  0  0  0  0  0  0  0
   23.5575  -21.9659  -12.8638 C   0  0  0  0  0  0  0  0  0  0  0  0
   23.2104  -23.1685  -12.8255 O   0  0  0  0  0  0  0  0  0  0  0  0
   22.7271  -21.0468  -12.2011 O   0  0  0  0  0  0  0  0  0  0  0  0
  2  1  1  1
  3  2  1  0
  4  3  1  0
  5  2  1  0
  5  6  2  0
  7  5  1  0
  8  7  1  0
  8  9  1  6
 10 11  2  0
 10  9  1  0
 12 11  1  0
 13 12  2  0
 14 13  1  0
 14 15  2  0
 15 10  1  0
 16  8  1  0
 17 16  2  0
 18 16  1  0
 19 20  1  1
 19 18  1  0
 21 20  1  0
 22 21  2  0
 23 22  1  0
 24 25  1  0
 24 23  2  0
 25 26  2  0
 26 21  1  0
 27 29  1  0
 27 19  1  0
 28 27  2  0
M  END
$$$$
