CFF.pdb
     RDKit          3D

 29 30  0  0  1  0  0  0  0  0999 V2000
   24.8936  -34.0803  -13.5486 N   0  0  0  0  0  0  0  0  0  0  0  0
   24.0112  -34.2254  -12.4087 C   0  0  1  0  0  0  0  0  0  0  0  0
   23.9324  -35.6991  -12.0824 C   0  0  0  0  0  0  0  0  0  0  0  0
   25.5884  -36.2908  -11.6384 S   0  0  0  0  0  0  0  0  0  0  0  0
   24.5639  -33.4321  -11.2942 C   0  0  0  0  0  0  0  0  0  0  0  0
   25.6047  -32.7277  -11.3979 O   0  0  0  0  0  0  0  0  0  0  0  0
   23.9331  -33.4257  -10.0221 N   0  0  0  0  0  0  0  0  0  0  0  0
   24.4573  -32.6423   -8.9111 C   0  0  1  0  0  0  0  0  0  0  0  0
   23.3718  -32.0560   -8.0821 C   0  0  0  0  0  0  0  0  0  0  0  0
   22.5689  -31.0420   -8.7955 C   0  0  0  0  0  0  0  0  0  0  0  0
   21.2399  -31.3356   -9.1253 C   0  0  0  0  0  0  0  0  0  0  0  0
   20.4238  -30.4351   -9.7709 C   0  0  0  0  0  0  0  0  0  0  0  0
   20.9167  -29.1934  -10.1129 C   0  0  0  0  0  0  0  0  0  0  0  0
   22.2313  -28.9016   -9.7871 C   0  0  0  0  0  0  0  0  0  0  0  0
   23.0460  -29.7954   -9.1447 C   0  0  0  0  0  0  0  0  0  0  0  0
   25.4193  -33.4164   -8.1108 C   0  0  0  0  0  0  0  0  0  0  0  0
   25.4035  -34.6684   -8.1917 O   0  0  0  0  0  0  0  0  0  0  0  0
   26.3544  -32.7621   -7.2576 N   0  0  0  0  0  0  0  0  0  0  0  0
   27.2813  -33.5357   -6.4645 C   0  0  1  0  0  0  0  0  0  0  0  0
   28.5772  -32.7957   -6.3749 C   0  0  0  0  0  0  0  0  0  0  0  0
   29.6165  -33.5389   -5.6636 C   0  0  0  0  0  0  0  0  0  0  0  0
   29.6858  -33.6385   -4.3083 C   0  0  0  0  0  0  0  0  0  0  0  0
   30.6953  -34.3621   -3.6922 C   0  0  0  0  0  0  0  0  0  0  0  0
   31.6682  -35.0088   -4.4226 C   0  0  0  0  0  0  0  0  0  0  0  0
   31.5911  -34.9026   -5.8041 C   0  0  0  0  0  0  0  0  0  0  0  0
   30.5943  -34.1882   -6.4145 C   0  0  0  0  0  0  0  0  0  0  0  0
   26.7290  -33.8728   -5.1486 C   0  0  0  0  0  0  0  0  0  0  0  0
   26.2805  -33.0417   -4.3264 O   0  0  0  0  0  0  0  0  0  0  0  0
   26.6926  -35.2240   -4.7655 O   0  0  0  0  0  0  0  0  0  0  0  0
  2  1  1  6
  3  2  1  0
  4  3  1  0
  5  2  1  0
  5  6  2  0
  7  5  1  0
  8  7  1  0
  8  9  1  1
 10 11  2  0
 10  9  1  0
 12 11  1  0
 13 12  2  0
 14 13  1  0
 14 15  2  0
 15 10  1  0
 16  8  1  0
 17 16  2  0
 18 16  1  0
 19 20  1  1
 19 18  1  0
 21 20  1  0
 22 21  2  0
 23 22  1  0
 24 25  1  0
 24 23  2  0
 25 26  2  0
 26 21  1  0
 27 29  1  0
 27 19  1  0
 28 27  2  0
M  END
$$$$
