CFF.pdb
     RDKit          3D

 29 30  0  0  1  0  0  0  0  0999 V2000
   23.8636  -12.5591  -19.6476 N   0  0  0  0  0  0  0  0  0  0  0  0
   23.1183  -11.3877  -20.0615 C   0  0  1  0  0  0  0  0  0  0  0  0
   21.6707  -11.7991  -20.2023 C   0  0  0  0  0  0  0  0  0  0  0  0
   21.0790  -12.4187  -18.6037 S   0  0  0  0  0  0  0  0  0  0  0  0
   23.3072  -10.3374  -19.0426 C   0  0  0  0  0  0  0  0  0  0  0  0
   23.5648  -10.5869  -17.8337 O   0  0  0  0  0  0  0  0  0  0  0  0
   23.2049   -8.9634  -19.3857 N   0  0  0  0  0  0  0  0  0  0  0  0
   23.4029   -7.9105  -18.3982 C   0  0  1  0  0  0  0  0  0  0  0  0
   23.9475   -6.6696  -19.0090 C   0  0  0  0  0  0  0  0  0  0  0  0
   24.0976   -5.5577  -18.0483 C   0  0  0  0  0  0  0  0  0  0  0  0
   23.0834   -4.5964  -17.9569 C   0  0  0  0  0  0  0  0  0  0  0  0
   23.1421   -3.5439  -17.0723 C   0  0  0  0  0  0  0  0  0  0  0  0
   24.2327   -3.4160  -16.2379 C   0  0  0  0  0  0  0  0  0  0  0  0
   25.2368   -4.3665  -16.3273 C   0  0  0  0  0  0  0  0  0  0  0  0
   25.1813   -5.4150  -17.2065 C   0  0  0  0  0  0  0  0  0  0  0  0
   22.1791   -7.6629  -17.6197 C   0  0  0  0  0  0  0  0  0  0  0  0
   21.0771   -7.6348  -18.2190 O   0  0  0  0  0  0  0  0  0  0  0  0
   22.2376   -7.4581  -16.2109 N   0  0  0  0  0  0  0  0  0  0  0  0
   21.0381   -7.1414  -15.4709 C   0  0  1  0  0  0  0  0  0  0  0  0
   20.4671   -8.4042  -14.9103 C   0  0  0  0  0  0  0  0  0  0  0  0
   21.2909   -8.9889  -13.8530 C   0  0  0  0  0  0  0  0  0  0  0  0
   22.3757   -9.7771  -14.0841 C   0  0  0  0  0  0  0  0  0  0  0  0
   23.1198  -10.2996  -13.0375 C   0  0  0  0  0  0  0  0  0  0  0  0
   22.7942  -10.0444  -11.7232 C   0  0  0  0  0  0  0  0  0  0  0  0
   21.6867   -9.2400  -11.4952 C   0  0  0  0  0  0  0  0  0  0  0  0
   20.9504   -8.7229  -12.5283 C   0  0  0  0  0  0  0  0  0  0  0  0
   21.2801   -6.1236  -14.4433 C   0  0  0  0  0  0  0  0  0  0  0  0
   22.4061   -5.8218  -13.9860 O   0  0  0  0  0  0  0  0  0  0  0  0
   20.1781   -5.4255  -13.9218 O   0  0  0  0  0  0  0  0  0  0  0  0
  2  1  1  1
  3  2  1  0
  4  3  1  0
  5  2  1  0
  5  6  2  0
  7  5  1  0
  8  7  1  0
  8  9  1  6
 10 11  2  0
 10  9  1  0
 12 11  1  0
 13 12  2  0
 14 13  1  0
 14 15  2  0
 15 10  1  0
 16  8  1  0
 17 16  2  0
 18 16  1  0
 19 20  1  1
 19 18  1  0
 21 20  1  0
 22 21  2  0
 23 22  1  0
 24 25  1  0
 24 23  2  0
 25 26  2  0
 26 21  1  0
 27 29  1  0
 27 19  1  0
 28 27  2  0
M  END
$$$$
