CFF.pdb
     RDKit          3D

 29 30  0  0  1  0  0  0  0  0999 V2000
   24.9566  -12.6474  -19.7068 N   0  0  0  0  0  0  0  0  0  0  0  0
   24.2998  -11.3566  -19.7495 C   0  0  1  0  0  0  0  0  0  0  0  0
   23.0038  -11.5335  -20.5067 C   0  0  0  0  0  0  0  0  0  0  0  0
   23.3768  -11.7241  -22.2714 S   0  0  0  0  0  0  0  0  0  0  0  0
   24.0825  -10.9041  -18.3621 C   0  0  0  0  0  0  0  0  0  0  0  0
   23.5144  -11.6115  -17.4863 O   0  0  0  0  0  0  0  0  0  0  0  0
   24.5140   -9.6191  -17.9394 N   0  0  0  0  0  0  0  0  0  0  0  0
   24.2483   -9.1258  -16.5944 C   0  0  1  0  0  0  0  0  0  0  0  0
   25.5013   -8.8150  -15.8577 C   0  0  0  0  0  0  0  0  0  0  0  0
   26.4443   -9.9502  -15.7953 C   0  0  0  0  0  0  0  0  0  0  0  0
   26.1926  -10.9948  -14.8971 C   0  0  0  0  0  0  0  0  0  0  0  0
   27.0134  -12.0947  -14.7959 C   0  0  0  0  0  0  0  0  0  0  0  0
   28.1291  -12.1877  -15.6011 C   0  0  0  0  0  0  0  0  0  0  0  0
   28.3793  -11.1550  -16.4902 C   0  0  0  0  0  0  0  0  0  0  0  0
   27.5644  -10.0592  -16.5933 C   0  0  0  0  0  0  0  0  0  0  0  0
   23.3102   -7.9923  -16.6102 C   0  0  0  0  0  0  0  0  0  0  0  0
   23.6380   -6.9451  -17.2187 O   0  0  0  0  0  0  0  0  0  0  0  0
   22.0511   -8.0760  -15.9485 N   0  0  0  0  0  0  0  0  0  0  0  0
   21.1552   -6.9428  -15.9424 C   0  0  1  0  0  0  0  0  0  0  0  0
   19.8849   -7.3258  -16.6313 C   0  0  0  0  0  0  0  0  0  0  0  0
   20.0262   -7.4305  -18.0830 C   0  0  0  0  0  0  0  0  0  0  0  0
   20.2675   -8.5973  -18.7401 C   0  0  0  0  0  0  0  0  0  0  0  0
   20.3878   -8.6323  -20.1208 C   0  0  0  0  0  0  0  0  0  0  0  0
   20.2688   -7.4916  -20.8843 C   0  0  0  0  0  0  0  0  0  0  0  0
   20.0229   -6.3054  -20.2074 C   0  0  0  0  0  0  0  0  0  0  0  0
   19.9037   -6.2691  -18.8432 C   0  0  0  0  0  0  0  0  0  0  0  0
   20.9322   -6.4271  -14.5879 C   0  0  0  0  0  0  0  0  0  0  0  0
   21.3534   -6.9655  -13.5387 O   0  0  0  0  0  0  0  0  0  0  0  0
   20.1932   -5.2418  -14.4376 O   0  0  0  0  0  0  0  0  0  0  0  0
  2  1  1  1
  3  2  1  0
  4  3  1  0
  5  2  1  0
  5  6  2  0
  7  5  1  0
  8  7  1  0
  8  9  1  6
 10 11  2  0
 10  9  1  0
 12 11  1  0
 13 12  2  0
 14 13  1  0
 14 15  2  0
 15 10  1  0
 16  8  1  0
 17 16  2  0
 18 16  1  0
 19 20  1  1
 19 18  1  0
 21 20  1  0
 22 21  2  0
 23 22  1  0
 24 25  1  0
 24 23  2  0
 25 26  2  0
 26 21  1  0
 27 29  1  0
 27 19  1  0
 28 27  2  0
M  END
$$$$
