CFF.pdb
     RDKit          3D

 29 30  0  0  1  0  0  0  0  0999 V2000
   23.9480   -8.0068  -22.7545 N   0  0  0  0  0  0  0  0  0  0  0  0
   22.5878   -7.8593  -22.2780 C   0  0  1  0  0  0  0  0  0  0  0  0
   22.1096   -9.2261  -21.8448 C   0  0  0  0  0  0  0  0  0  0  0  0
   21.5046  -10.1241  -23.2999 S   0  0  0  0  0  0  0  0  0  0  0  0
   22.5913   -6.8876  -21.1677 C   0  0  0  0  0  0  0  0  0  0  0  0
   23.5496   -6.7696  -20.3566 O   0  0  0  0  0  0  0  0  0  0  0  0
   21.4878   -6.0193  -20.9567 N   0  0  0  0  0  0  0  0  0  0  0  0
   21.4968   -5.0107  -19.9052 C   0  0  1  0  0  0  0  0  0  0  0  0
   20.6611   -3.8327  -20.2564 C   0  0  0  0  0  0  0  0  0  0  0  0
   20.6848   -2.7682  -19.2327 C   0  0  0  0  0  0  0  0  0  0  0  0
   19.6041   -2.6496  -18.3499 C   0  0  0  0  0  0  0  0  0  0  0  0
   19.5632   -1.6969  -17.3577 C   0  0  0  0  0  0  0  0  0  0  0  0
   20.6167   -0.8188  -17.2133 C   0  0  0  0  0  0  0  0  0  0  0  0
   21.6865   -0.9352  -18.0860 C   0  0  0  0  0  0  0  0  0  0  0  0
   21.7302   -1.8820  -19.0743 C   0  0  0  0  0  0  0  0  0  0  0  0
   21.1349   -5.5872  -18.6007 C   0  0  0  0  0  0  0  0  0  0  0  0
   20.1765   -6.3949  -18.5419 O   0  0  0  0  0  0  0  0  0  0  0  0
   21.8557   -5.2387  -17.4220 N   0  0  0  0  0  0  0  0  0  0  0  0
   21.5113   -5.8389  -16.1540 C   0  0  1  0  0  0  0  0  0  0  0  0
   22.7273   -6.4942  -15.5821 C   0  0  0  0  0  0  0  0  0  0  0  0
   22.4602   -7.2201  -14.3410 C   0  0  0  0  0  0  0  0  0  0  0  0
   22.3947   -8.5764  -14.2539 C   0  0  0  0  0  0  0  0  0  0  0  0
   22.1412   -9.2070  -13.0455 C   0  0  0  0  0  0  0  0  0  0  0  0
   21.9452   -8.4904  -11.8852 C   0  0  0  0  0  0  0  0  0  0  0  0
   22.0133   -7.1077  -11.9817 C   0  0  0  0  0  0  0  0  0  0  0  0
   22.2638   -6.4831  -13.1749 C   0  0  0  0  0  0  0  0  0  0  0  0
   20.9044   -4.8704  -15.2353 C   0  0  0  0  0  0  0  0  0  0  0  0
   21.3605   -3.7293  -14.9946 O   0  0  0  0  0  0  0  0  0  0  0  0
   19.7230   -5.2329  -14.5671 O   0  0  0  0  0  0  0  0  0  0  0  0
  2  1  1  1
  3  2  1  0
  4  3  1  0
  5  2  1  0
  5  6  2  0
  7  5  1  0
  8  7  1  0
  8  9  1  6
 10 11  2  0
 10  9  1  0
 12 11  1  0
 13 12  2  0
 14 13  1  0
 14 15  2  0
 15 10  1  0
 16  8  1  0
 17 16  2  0
 18 16  1  0
 19 20  1  1
 19 18  1  0
 21 20  1  0
 22 21  2  0
 23 22  1  0
 24 25  1  0
 24 23  2  0
 25 26  2  0
 26 21  1  0
 27 29  1  0
 27 19  1  0
 28 27  2  0
M  END
$$$$
