CFF.pdb
     RDKit          3D

 29 30  0  0  1  0  0  0  0  0999 V2000
   18.3410  -10.9579  -13.0606 N   0  0  0  0  0  0  0  0  0  0  0  0
   17.7639   -9.6320  -13.1504 C   0  0  1  0  0  0  0  0  0  0  0  0
   16.3244   -9.7936  -13.5818 C   0  0  0  0  0  0  0  0  0  0  0  0
   16.2868  -10.2865  -15.3269 S   0  0  0  0  0  0  0  0  0  0  0  0
   17.8852   -8.9861  -11.8294 C   0  0  0  0  0  0  0  0  0  0  0  0
   17.8155   -9.6205  -10.7419 O   0  0  0  0  0  0  0  0  0  0  0  0
   18.0912   -7.5855  -11.7200 N   0  0  0  0  0  0  0  0  0  0  0  0
   18.2176   -6.9287  -10.4256 C   0  0  1  0  0  0  0  0  0  0  0  0
   19.5911   -6.4087  -10.1968 C   0  0  0  0  0  0  0  0  0  0  0  0
   20.2712   -5.9780  -11.4352 C   0  0  0  0  0  0  0  0  0  0  0  0
   20.0411   -4.6858  -11.9233 C   0  0  0  0  0  0  0  0  0  0  0  0
   20.6533   -4.2060  -13.0585 C   0  0  0  0  0  0  0  0  0  0  0  0
   21.5285   -5.0142  -13.7532 C   0  0  0  0  0  0  0  0  0  0  0  0
   21.7571   -6.2930  -13.2714 C   0  0  0  0  0  0  0  0  0  0  0  0
   21.1495   -6.7733  -12.1421 C   0  0  0  0  0  0  0  0  0  0  0  0
   17.1876   -5.8940  -10.2420 C   0  0  0  0  0  0  0  0  0  0  0  0
   16.7326   -5.3079  -11.2538 O   0  0  0  0  0  0  0  0  0  0  0  0
   16.7113   -5.5591   -8.9414 N   0  0  0  0  0  0  0  0  0  0  0  0
   15.6222   -4.6233   -8.7838 C   0  0  1  0  0  0  0  0  0  0  0  0
   14.7669   -5.0637   -7.6395 C   0  0  0  0  0  0  0  0  0  0  0  0
   13.9618   -6.2459   -7.9440 C   0  0  0  0  0  0  0  0  0  0  0  0
   14.4482   -7.5167   -7.9422 C   0  0  0  0  0  0  0  0  0  0  0  0
   13.6323   -8.5984   -8.2363 C   0  0  0  0  0  0  0  0  0  0  0  0
   12.2990   -8.4339   -8.5421 C   0  0  0  0  0  0  0  0  0  0  0  0
   11.8101   -7.1353   -8.5422 C   0  0  0  0  0  0  0  0  0  0  0  0
   12.6149   -6.0654   -8.2517 C   0  0  0  0  0  0  0  0  0  0  0  0
   16.1003   -3.2449   -8.6363 C   0  0  0  0  0  0  0  0  0  0  0  0
   15.3636   -2.2336   -8.5847 O   0  0  0  0  0  0  0  0  0  0  0  0
   17.4846   -3.0240   -8.5447 O   0  0  0  0  0  0  0  0  0  0  0  0
  2  1  1  1
  3  2  1  0
  4  3  1  0
  5  2  1  0
  5  6  2  0
  7  5  1  0
  8  7  1  0
  8  9  1  6
 10 11  2  0
 10  9  1  0
 12 11  1  0
 13 12  2  0
 14 13  1  0
 14 15  2  0
 15 10  1  0
 16  8  1  0
 17 16  2  0
 18 16  1  0
 19 20  1  1
 19 18  1  0
 21 20  1  0
 22 21  2  0
 23 22  1  0
 24 25  1  0
 24 23  2  0
 25 26  2  0
 26 21  1  0
 27 29  1  0
 27 19  1  0
 28 27  2  0
M  END
$$$$
