CFF.pdb
     RDKit          3D

 29 30  0  0  1  0  0  0  0  0999 V2000
   27.7445  -22.3294  -15.7054 N   0  0  0  0  0  0  0  0  0  0  0  0
   28.0264  -21.1062  -14.9819 C   0  0  1  0  0  0  0  0  0  0  0  0
   27.3217  -19.9809  -15.7041 C   0  0  0  0  0  0  0  0  0  0  0  0
   27.8078  -18.4046  -14.9501 S   0  0  0  0  0  0  0  0  0  0  0  0
   27.5486  -21.2701  -13.5957 C   0  0  0  0  0  0  0  0  0  0  0  0
   26.5007  -21.9050  -13.2972 O   0  0  0  0  0  0  0  0  0  0  0  0
   28.2649  -20.7061  -12.5071 N   0  0  0  0  0  0  0  0  0  0  0  0
   27.7680  -20.7855  -11.1398 C   0  0  1  0  0  0  0  0  0  0  0  0
   28.7554  -20.2663  -10.1575 C   0  0  0  0  0  0  0  0  0  0  0  0
   28.2332  -20.1992   -8.7775 C   0  0  0  0  0  0  0  0  0  0  0  0
   28.6169  -21.1819   -7.8566 C   0  0  0  0  0  0  0  0  0  0  0  0
   28.1885  -21.1751   -6.5488 C   0  0  0  0  0  0  0  0  0  0  0  0
   27.3501  -20.1707   -6.1125 C   0  0  0  0  0  0  0  0  0  0  0  0
   26.9698  -19.1978   -7.0226 C   0  0  0  0  0  0  0  0  0  0  0  0
   27.3944  -19.2018   -8.3245 C   0  0  0  0  0  0  0  0  0  0  0  0
   26.4511  -20.1429  -11.0054 C   0  0  0  0  0  0  0  0  0  0  0  0
   26.2648  -19.0274  -11.5487 O   0  0  0  0  0  0  0  0  0  0  0  0
   25.4025  -20.7707  -10.2729 N   0  0  0  0  0  0  0  0  0  0  0  0
   24.0593  -20.2421  -10.3267 C   0  0  1  0  0  0  0  0  0  0  0  0
   23.4978  -20.4838  -11.6909 C   0  0  0  0  0  0  0  0  0  0  0  0
   22.1046  -20.0597  -11.8235 C   0  0  0  0  0  0  0  0  0  0  0  0
   21.0454  -20.7756  -11.3576 C   0  0  0  0  0  0  0  0  0  0  0  0
   19.7458  -20.3176  -11.5110 C   0  0  0  0  0  0  0  0  0  0  0  0
   19.4717  -19.1226  -12.1394 C   0  0  0  0  0  0  0  0  0  0  0  0
   20.5567  -18.3980  -12.6121 C   0  0  0  0  0  0  0  0  0  0  0  0
   21.8415  -18.8491  -12.4613 C   0  0  0  0  0  0  0  0  0  0  0  0
   23.2124  -20.7865   -9.2605 C   0  0  0  0  0  0  0  0  0  0  0  0
   22.0698  -20.3652   -8.9686 O   0  0  0  0  0  0  0  0  0  0  0  0
   23.7034  -21.8609   -8.5001 O   0  0  0  0  0  0  0  0  0  0  0  0
  2  1  1  6
  3  2  1  0
  4  3  1  0
  5  2  1  0
  5  6  2  0
  7  5  1  0
  8  7  1  0
  8  9  1  1
 10 11  2  0
 10  9  1  0
 12 11  1  0
 13 12  2  0
 14 13  1  0
 14 15  2  0
 15 10  1  0
 16  8  1  0
 17 16  2  0
 18 16  1  0
 19 20  1  6
 19 18  1  0
 21 20  1  0
 22 21  2  0
 23 22  1  0
 24 25  1  0
 24 23  2  0
 25 26  2  0
 26 21  1  0
 27 29  1  0
 27 19  1  0
 28 27  2  0
M  END
$$$$
