CFF.pdb
     RDKit          3D

 29 30  0  0  1  0  0  0  0  0999 V2000
   28.6235  -22.3718  -17.8570 N   0  0  0  0  0  0  0  0  0  0  0  0
   28.2541  -21.1087  -17.2510 C   0  0  1  0  0  0  0  0  0  0  0  0
   27.4586  -20.3315  -18.2745 C   0  0  0  0  0  0  0  0  0  0  0  0
   26.9506  -18.7505  -17.5453 S   0  0  0  0  0  0  0  0  0  0  0  0
   27.4741  -21.3934  -16.0314 C   0  0  0  0  0  0  0  0  0  0  0  0
   26.6314  -22.3283  -15.9535 O   0  0  0  0  0  0  0  0  0  0  0  0
   27.6410  -20.6078  -14.8605 N   0  0  0  0  0  0  0  0  0  0  0  0
   26.8254  -20.8211  -13.6722 C   0  0  1  0  0  0  0  0  0  0  0  0
   27.4891  -20.3136  -12.4428 C   0  0  0  0  0  0  0  0  0  0  0  0
   26.6797  -20.4928  -11.2203 C   0  0  0  0  0  0  0  0  0  0  0  0
   25.8882  -19.4303  -10.7669 C   0  0  0  0  0  0  0  0  0  0  0  0
   25.0922  -19.5280   -9.6486 C   0  0  0  0  0  0  0  0  0  0  0  0
   25.0610  -20.7086   -8.9365 C   0  0  0  0  0  0  0  0  0  0  0  0
   25.8436  -21.7607   -9.3840 C   0  0  0  0  0  0  0  0  0  0  0  0
   26.6367  -21.6665  -10.4965 C   0  0  0  0  0  0  0  0  0  0  0  0
   25.4688  -20.2773  -13.8433 C   0  0  0  0  0  0  0  0  0  0  0  0
   25.3339  -19.1401  -14.3560 O   0  0  0  0  0  0  0  0  0  0  0  0
   24.3253  -21.0236  -13.4363 N   0  0  0  0  0  0  0  0  0  0  0  0
   22.9968  -20.5351  -13.7248 C   0  0  1  0  0  0  0  0  0  0  0  0
   22.8317  -20.4266  -15.2066 C   0  0  0  0  0  0  0  0  0  0  0  0
   21.5049  -19.9585  -15.6054 C   0  0  0  0  0  0  0  0  0  0  0  0
   21.1656  -18.6458  -15.7194 C   0  0  0  0  0  0  0  0  0  0  0  0
   19.8898  -18.2648  -16.1061 C   0  0  0  0  0  0  0  0  0  0  0  0
   18.9143  -19.1953  -16.3903 C   0  0  0  0  0  0  0  0  0  0  0  0
   19.2675  -20.5321  -16.2717 C   0  0  0  0  0  0  0  0  0  0  0  0
   20.5277  -20.9102  -15.8898 C   0  0  0  0  0  0  0  0  0  0  0  0
   21.9602  -21.3615  -13.0980 C   0  0  0  0  0  0  0  0  0  0  0  0
   21.9794  -22.6123  -13.0413 O   0  0  0  0  0  0  0  0  0  0  0  0
   20.8565  -20.7189  -12.5129 O   0  0  0  0  0  0  0  0  0  0  0  0
  2  1  1  6
  3  2  1  0
  4  3  1  0
  5  2  1  0
  5  6  2  0
  7  5  1  0
  8  7  1  0
  8  9  1  1
 10 11  2  0
 10  9  1  0
 12 11  1  0
 13 12  2  0
 14 13  1  0
 14 15  2  0
 15 10  1  0
 16  8  1  0
 17 16  2  0
 18 16  1  0
 19 20  1  6
 19 18  1  0
 21 20  1  0
 22 21  2  0
 23 22  1  0
 24 25  1  0
 24 23  2  0
 25 26  2  0
 26 21  1  0
 27 29  1  0
 27 19  1  0
 28 27  2  0
M  END
$$$$
