CFF.pdb
     RDKit          3D

 29 30  0  0  1  0  0  0  0  0999 V2000
   28.5371  -21.8146  -14.4769 N   0  0  0  0  0  0  0  0  0  0  0  0
   28.6588  -20.7498  -13.5020 C   0  0  1  0  0  0  0  0  0  0  0  0
   27.8700  -19.5694  -14.0207 C   0  0  0  0  0  0  0  0  0  0  0  0
   28.8891  -18.6626  -15.2160 S   0  0  0  0  0  0  0  0  0  0  0  0
   28.1441  -21.2456  -12.2112 C   0  0  0  0  0  0  0  0  0  0  0  0
   27.1374  -21.9986  -12.1129 O   0  0  0  0  0  0  0  0  0  0  0  0
   28.7749  -20.8884  -10.9903 N   0  0  0  0  0  0  0  0  0  0  0  0
   28.0275  -20.7829   -9.7442 C   0  0  1  0  0  0  0  0  0  0  0  0
   28.8282  -20.1442   -8.6670 C   0  0  0  0  0  0  0  0  0  0  0  0
   28.1339  -20.1017   -7.3640 C   0  0  0  0  0  0  0  0  0  0  0  0
   27.6103  -18.8841   -6.9118 C   0  0  0  0  0  0  0  0  0  0  0  0
   26.9334  -18.7696   -5.7191 C   0  0  0  0  0  0  0  0  0  0  0  0
   26.7552  -19.8850   -4.9278 C   0  0  0  0  0  0  0  0  0  0  0  0
   27.2728  -21.0902   -5.3740 C   0  0  0  0  0  0  0  0  0  0  0  0
   27.9468  -21.2074   -6.5603 C   0  0  0  0  0  0  0  0  0  0  0  0
   26.7295  -20.1201   -9.9472 C   0  0  0  0  0  0  0  0  0  0  0  0
   26.7096  -18.9737  -10.4569 O   0  0  0  0  0  0  0  0  0  0  0  0
   25.5139  -20.7630   -9.5739 N   0  0  0  0  0  0  0  0  0  0  0  0
   24.2620  -20.3534  -10.1668 C   0  0  1  0  0  0  0  0  0  0  0  0
   24.3733  -20.4574  -11.6540 C   0  0  0  0  0  0  0  0  0  0  0  0
   23.1345  -20.1112  -12.3497 C   0  0  0  0  0  0  0  0  0  0  0  0
   22.1129  -20.9848  -12.5612 C   0  0  0  0  0  0  0  0  0  0  0  0
   20.9602  -20.5946  -13.2254 C   0  0  0  0  0  0  0  0  0  0  0  0
   20.7999  -19.3105  -13.6983 C   0  0  0  0  0  0  0  0  0  0  0  0
   21.8457  -18.4252  -13.4790 C   0  0  0  0  0  0  0  0  0  0  0  0
   22.9854  -18.8091  -12.8229 C   0  0  0  0  0  0  0  0  0  0  0  0
   23.1268  -21.1101   -9.6292 C   0  0  0  0  0  0  0  0  0  0  0  0
   23.1470  -22.3314   -9.3534 O   0  0  0  0  0  0  0  0  0  0  0  0
   21.9189  -20.4302   -9.4004 O   0  0  0  0  0  0  0  0  0  0  0  0
  2  1  1  6
  3  2  1  0
  4  3  1  0
  5  2  1  0
  5  6  2  0
  7  5  1  0
  8  7  1  0
  8  9  1  1
 10 11  2  0
 10  9  1  0
 12 11  1  0
 13 12  2  0
 14 13  1  0
 14 15  2  0
 15 10  1  0
 16  8  1  0
 17 16  2  0
 18 16  1  0
 19 20  1  6
 19 18  1  0
 21 20  1  0
 22 21  2  0
 23 22  1  0
 24 25  1  0
 24 23  2  0
 25 26  2  0
 26 21  1  0
 27 29  1  0
 27 19  1  0
 28 27  2  0
M  END
$$$$
