CFF.pdb
     RDKit          3D

 29 30  0  0  1  0  0  0  0  0999 V2000
   29.0805  -20.4236  -18.4022 N   0  0  0  0  0  0  0  0  0  0  0  0
   28.3247  -21.2627  -17.4946 C   0  0  1  0  0  0  0  0  0  0  0  0
   29.1974  -22.4442  -17.1383 C   0  0  0  0  0  0  0  0  0  0  0  0
   28.3005  -23.5054  -15.9725 S   0  0  0  0  0  0  0  0  0  0  0  0
   27.9629  -20.4554  -16.3139 C   0  0  0  0  0  0  0  0  0  0  0  0
   28.7977  -19.7672  -15.6660 O   0  0  0  0  0  0  0  0  0  0  0  0
   26.6245  -20.4158  -15.8414 N   0  0  0  0  0  0  0  0  0  0  0  0
   26.2721  -19.7520  -14.5932 C   0  0  1  0  0  0  0  0  0  0  0  0
   25.4424  -18.5401  -14.8219 C   0  0  0  0  0  0  0  0  0  0  0  0
   26.1891  -17.4228  -15.4351 C   0  0  0  0  0  0  0  0  0  0  0  0
   26.7971  -16.4739  -14.6038 C   0  0  0  0  0  0  0  0  0  0  0  0
   27.5260  -15.4174  -15.1000 C   0  0  0  0  0  0  0  0  0  0  0  0
   27.6731  -15.2728  -16.4636 C   0  0  0  0  0  0  0  0  0  0  0  0
   27.0720  -16.2109  -17.2871 C   0  0  0  0  0  0  0  0  0  0  0  0
   26.3461  -17.2633  -16.7964 C   0  0  0  0  0  0  0  0  0  0  0  0
   25.6511  -20.6862  -13.6410 C   0  0  0  0  0  0  0  0  0  0  0  0
   24.7654  -21.4722  -14.0560 O   0  0  0  0  0  0  0  0  0  0  0  0
   26.0438  -20.7031  -12.2714 N   0  0  0  0  0  0  0  0  0  0  0  0
   25.3787  -21.5782  -11.3342 C   0  0  1  0  0  0  0  0  0  0  0  0
   26.3931  -22.1353  -10.3878 C   0  0  0  0  0  0  0  0  0  0  0  0
   26.8649  -21.1572   -9.4083 C   0  0  0  0  0  0  0  0  0  0  0  0
   28.1063  -21.1786   -8.8516 C   0  0  0  0  0  0  0  0  0  0  0  0
   28.4964  -20.2194   -7.9297 C   0  0  0  0  0  0  0  0  0  0  0  0
   27.6474  -19.2071   -7.5389 C   0  0  0  0  0  0  0  0  0  0  0  0
   26.3831  -19.1918   -8.1107 C   0  0  0  0  0  0  0  0  0  0  0  0
   25.9960  -20.1388   -9.0218 C   0  0  0  0  0  0  0  0  0  0  0  0
   24.2713  -20.9061  -10.6469 C   0  0  0  0  0  0  0  0  0  0  0  0
   24.1149  -19.6652  -10.5854 O   0  0  0  0  0  0  0  0  0  0  0  0
   23.3049  -21.6978  -10.0044 O   0  0  0  0  0  0  0  0  0  0  0  0
  2  1  1  6
  3  2  1  0
  4  3  1  0
  5  2  1  0
  5  6  2  0
  7  5  1  0
  8  7  1  0
  8  9  1  6
 10 11  2  0
 10  9  1  0
 12 11  1  0
 13 12  2  0
 14 13  1  0
 14 15  2  0
 15 10  1  0
 16  8  1  0
 17 16  2  0
 18 16  1  0
 19 20  1  1
 19 18  1  0
 21 20  1  0
 22 21  2  0
 23 22  1  0
 24 25  1  0
 24 23  2  0
 25 26  2  0
 26 21  1  0
 27 29  1  0
 27 19  1  0
 28 27  2  0
M  END
$$$$
