CFF.pdb
     RDKit          3D

 29 30  0  0  1  0  0  0  0  0999 V2000
   20.6490   -3.1977  -20.9735 N   0  0  0  0  0  0  0  0  0  0  0  0
   19.8219   -3.7703  -19.9309 C   0  0  1  0  0  0  0  0  0  0  0  0
   18.9986   -4.8708  -20.5600 C   0  0  0  0  0  0  0  0  0  0  0  0
   18.0323   -5.6940  -19.2646 S   0  0  0  0  0  0  0  0  0  0  0  0
   20.7079   -4.2722  -18.8632 C   0  0  0  0  0  0  0  0  0  0  0  0
   21.7928   -4.8728  -19.0919 O   0  0  0  0  0  0  0  0  0  0  0  0
   20.3706   -4.0972  -17.4951 N   0  0  0  0  0  0  0  0  0  0  0  0
   21.2594   -4.5317  -16.4254 C   0  0  1  0  0  0  0  0  0  0  0  0
   21.6831   -3.4004  -15.5595 C   0  0  0  0  0  0  0  0  0  0  0  0
   22.6221   -2.4721  -16.2216 C   0  0  0  0  0  0  0  0  0  0  0  0
   22.1368   -1.2595  -16.7268 C   0  0  0  0  0  0  0  0  0  0  0  0
   22.9531   -0.3353  -17.3379 C   0  0  0  0  0  0  0  0  0  0  0  0
   24.3011   -0.5970  -17.4657 C   0  0  0  0  0  0  0  0  0  0  0  0
   24.7825   -1.7963  -16.9663 C   0  0  0  0  0  0  0  0  0  0  0  0
   23.9728   -2.7179  -16.3577 C   0  0  0  0  0  0  0  0  0  0  0  0
   20.6751   -5.6406  -15.6547 C   0  0  0  0  0  0  0  0  0  0  0  0
   19.4951   -5.5338  -15.2419 O   0  0  0  0  0  0  0  0  0  0  0  0
   21.4304   -6.8170  -15.3788 N   0  0  0  0  0  0  0  0  0  0  0  0
   20.8084   -7.9446  -14.7244 C   0  0  1  0  0  0  0  0  0  0  0  0
   21.2753   -9.2039  -15.3809 C   0  0  0  0  0  0  0  0  0  0  0  0
   22.7068   -9.4471  -15.2072 C   0  0  0  0  0  0  0  0  0  0  0  0
   23.2309  -10.2198  -14.2175 C   0  0  0  0  0  0  0  0  0  0  0  0
   24.5990  -10.4156  -14.1075 C   0  0  0  0  0  0  0  0  0  0  0  0
   25.4836   -9.8384  -14.9922 C   0  0  0  0  0  0  0  0  0  0  0  0
   24.9419   -9.0516  -15.9988 C   0  0  0  0  0  0  0  0  0  0  0  0
   23.5903   -8.8572  -16.1088 C   0  0  0  0  0  0  0  0  0  0  0  0
   21.0454   -7.9383  -13.2773 C   0  0  0  0  0  0  0  0  0  0  0  0
   20.4896   -8.7048  -12.4577 O   0  0  0  0  0  0  0  0  0  0  0  0
   21.9611   -7.0101  -12.7542 O   0  0  0  0  0  0  0  0  0  0  0  0
  2  1  1  6
  3  2  1  0
  4  3  1  0
  5  2  1  0
  5  6  2  0
  7  5  1  0
  8  7  1  0
  8  9  1  1
 10 11  2  0
 10  9  1  0
 12 11  1  0
 13 12  2  0
 14 13  1  0
 14 15  2  0
 15 10  1  0
 16  8  1  0
 17 16  2  0
 18 16  1  0
 19 20  1  6
 19 18  1  0
 21 20  1  0
 22 21  2  0
 23 22  1  0
 24 25  1  0
 24 23  2  0
 25 26  2  0
 26 21  1  0
 27 29  1  0
 27 19  1  0
 28 27  2  0
M  END
$$$$
