CFF.pdb
     RDKit          3D

 29 30  0  0  1  0  0  0  0  0999 V2000
   25.1390  -15.6893  -15.9583 N   0  0  0  0  0  0  0  0  0  0  0  0
   24.8102  -14.8193  -17.0692 C   0  0  1  0  0  0  0  0  0  0  0  0
   23.3111  -14.6264  -17.0641 C   0  0  0  0  0  0  0  0  0  0  0  0
   22.5103  -16.2514  -17.1518 S   0  0  0  0  0  0  0  0  0  0  0  0
   25.5405  -13.5496  -16.8920 C   0  0  0  0  0  0  0  0  0  0  0  0
   25.6938  -12.9920  -15.7714 O   0  0  0  0  0  0  0  0  0  0  0  0
   26.1184  -12.8810  -18.0033 N   0  0  0  0  0  0  0  0  0  0  0  0
   26.8116  -11.6080  -17.8556 C   0  0  1  0  0  0  0  0  0  0  0  0
   27.8590  -11.4206  -18.8936 C   0  0  0  0  0  0  0  0  0  0  0  0
   28.5571  -10.1225  -18.7976 C   0  0  0  0  0  0  0  0  0  0  0  0
   29.6279   -9.9905  -17.9048 C   0  0  0  0  0  0  0  0  0  0  0  0
   30.3396   -8.8200  -17.7741 C   0  0  0  0  0  0  0  0  0  0  0  0
   29.9990   -7.7269  -18.5429 C   0  0  0  0  0  0  0  0  0  0  0  0
   28.9398   -7.8561  -19.4266 C   0  0  0  0  0  0  0  0  0  0  0  0
   28.2297   -9.0195  -19.5590 C   0  0  0  0  0  0  0  0  0  0  0  0
   25.8667  -10.4813  -17.8015 C   0  0  0  0  0  0  0  0  0  0  0  0
   24.9512  -10.4189  -18.6573 O   0  0  0  0  0  0  0  0  0  0  0  0
   25.9837   -9.4764  -16.7982 N   0  0  0  0  0  0  0  0  0  0  0  0
   24.9908   -8.4324  -16.6943 C   0  0  1  0  0  0  0  0  0  0  0  0
   24.4616   -8.4045  -15.2964 C   0  0  0  0  0  0  0  0  0  0  0  0
   23.0810   -8.8756  -15.1940 C   0  0  0  0  0  0  0  0  0  0  0  0
   22.5807   -9.5305  -14.1113 C   0  0  0  0  0  0  0  0  0  0  0  0
   21.2596   -9.9494  -14.0726 C   0  0  0  0  0  0  0  0  0  0  0  0
   20.3997   -9.7217  -15.1248 C   0  0  0  0  0  0  0  0  0  0  0  0
   20.9169   -9.0534  -16.2255 C   0  0  0  0  0  0  0  0  0  0  0  0
   22.2220   -8.6388  -16.2652 C   0  0  0  0  0  0  0  0  0  0  0  0
   25.5136   -7.1329  -17.1284 C   0  0  0  0  0  0  0  0  0  0  0  0
   24.8090   -6.1606  -17.4839 O   0  0  0  0  0  0  0  0  0  0  0  0
   26.9059   -6.9474  -17.1535 O   0  0  0  0  0  0  0  0  0  0  0  0
  2  1  1  1
  3  2  1  0
  4  3  1  0
  5  2  1  0
  5  6  2  0
  7  5  1  0
  8  7  1  0
  8  9  1  6
 10 11  2  0
 10  9  1  0
 12 11  1  0
 13 12  2  0
 14 13  1  0
 14 15  2  0
 15 10  1  0
 16  8  1  0
 17 16  2  0
 18 16  1  0
 19 20  1  1
 19 18  1  0
 21 20  1  0
 22 21  2  0
 23 22  1  0
 24 25  1  0
 24 23  2  0
 25 26  2  0
 26 21  1  0
 27 29  1  0
 27 19  1  0
 28 27  2  0
M  END
$$$$
