CMS.pdb
     RDKit          3D

 21 20  0  0  1  0  0  0  0  0999 V2000
   20.9919  -14.1989  -16.8642 N   0  0  0  0  0  0  0  0  0  0  0  0
   21.4000  -13.1015  -17.7060 C   0  0  1  0  0  0  0  0  0  0  0  0
   20.2820  -12.7773  -18.6483 C   0  0  0  0  0  0  0  0  0  0  0  0
   19.9578  -14.1355  -19.8068 S   0  0  0  0  0  0  0  0  0  0  0  0
   21.7302  -11.8812  -16.8805 C   0  0  0  0  0  0  0  0  0  0  0  0
   20.9158  -11.6302  -15.9751 O   0  0  0  0  0  0  0  0  0  0  0  0
   27.8681  -12.5984  -14.8834 C   0  0  0  0  0  0  0  0  0  0  0  0
   27.2798  -11.1149  -15.7266 S   0  0  0  0  0  0  0  0  0  0  0  0
   25.4713  -11.1490  -15.7224 C   0  0  0  0  0  0  0  0  0  0  0  0
   24.8942   -9.9299  -16.3910 C   0  0  0  0  0  0  0  0  0  0  0  0
   23.3819   -9.9934  -16.4377 C   0  0  2  0  0  0  0  0  0  0  0  0
   22.8748  -11.1218  -17.1496 N   0  0  0  0  0  0  0  0  0  0  0  0
   22.7308   -8.7101  -16.7296 C   0  0  0  0  0  0  0  0  0  0  0  0
   22.6410   -8.2722  -17.9288 O   0  0  0  0  0  0  0  0  0  0  0  0
   19.1949   -5.7425  -16.1364 O   0  0  0  0  0  0  0  0  0  0  0  0
   19.9213   -6.8763  -15.7843 C   0  0  0  0  0  0  0  0  0  0  0  0
   21.3983   -6.7038  -16.0721 C   0  0  2  0  0  0  0  0  0  0  0  0
   22.1621   -7.8710  -15.7348 N   0  0  0  0  0  0  0  0  0  0  0  0
   21.9104   -5.4701  -15.4435 C   0  0  0  0  0  0  0  0  0  0  0  0
   21.7844   -4.2009  -15.9713 O   0  0  0  0  0  0  0  0  0  0  0  0
   22.5073   -5.5870  -14.3421 O   0  0  0  0  0  0  0  0  0  0  0  0
  2  3  1  0
  2  1  1  1
  4  3  1  0
  5  2  1  0
  5 12  1  0
  6  5  2  0
  7  8  1  0
  8  9  1  0
  9 10  1  0
 11 10  1  6
 11 12  1  0
 13 14  2  0
 13 11  1  0
 16 15  1  0
 17 18  1  0
 17 16  1  1
 18 13  1  0
 19 17  1  0
 20 19  1  0
 21 19  2  0
M  END
$$$$
