CMS.pdb
     RDKit          3D

 21 20  0  0  1  0  0  0  0  0999 V2000
   21.5976  -12.2141  -18.8485 N   0  0  0  0  0  0  0  0  0  0  0  0
   20.5981  -11.3409  -18.2846 C   0  0  1  0  0  0  0  0  0  0  0  0
   19.4759  -12.1767  -17.7508 C   0  0  0  0  0  0  0  0  0  0  0  0
   18.9376  -13.4307  -18.9463 S   0  0  0  0  0  0  0  0  0  0  0  0
   21.1777  -10.5065  -17.1677 C   0  0  0  0  0  0  0  0  0  0  0  0
   20.4603  -10.4223  -16.1557 O   0  0  0  0  0  0  0  0  0  0  0  0
   27.6427  -10.4708  -15.6976 C   0  0  0  0  0  0  0  0  0  0  0  0
   26.2877  -11.6308  -15.9738 S   0  0  0  0  0  0  0  0  0  0  0  0
   24.7442  -10.8080  -15.5130 C   0  0  0  0  0  0  0  0  0  0  0  0
   24.5967   -9.4808  -16.2080 C   0  0  0  0  0  0  0  0  0  0  0  0
   23.1391   -9.0981  -16.3570 C   0  0  2  0  0  0  0  0  0  0  0  0
   22.4288   -9.8942  -17.3052 N   0  0  0  0  0  0  0  0  0  0  0  0
   22.8975   -7.6516  -16.4308 C   0  0  0  0  0  0  0  0  0  0  0  0
   23.2676   -6.9708  -17.4493 O   0  0  0  0  0  0  0  0  0  0  0  0
   19.7163   -5.8366  -14.6465 O   0  0  0  0  0  0  0  0  0  0  0  0
   20.4206   -5.3072  -15.7239 C   0  0  0  0  0  0  0  0  0  0  0  0
   21.9123   -5.5232  -15.5749 C   0  0  2  0  0  0  0  0  0  0  0  0
   22.2515   -6.9076  -15.4079 N   0  0  0  0  0  0  0  0  0  0  0  0
   22.4603   -4.6565  -14.5129 C   0  0  0  0  0  0  0  0  0  0  0  0
   22.4174   -3.2768  -14.5157 O   0  0  0  0  0  0  0  0  0  0  0  0
   23.0078   -5.2209  -13.5309 O   0  0  0  0  0  0  0  0  0  0  0  0
  2  3  1  0
  2  1  1  1
  4  3  1  0
  5  2  1  0
  5 12  1  0
  6  5  2  0
  7  8  1  0
  8  9  1  0
  9 10  1  0
 11 10  1  6
 11 12  1  0
 13 14  2  0
 13 11  1  0
 16 15  1  0
 17 18  1  0
 17 16  1  1
 18 13  1  0
 19 17  1  0
 20 19  1  0
 21 19  2  0
M  END
$$$$
