CMS.pdb
     RDKit          3D

 21 20  0  0  1  0  0  0  0  0999 V2000
   17.5877  -11.6660  -17.4946 N   0  0  0  0  0  0  0  0  0  0  0  0
   18.5268  -10.7745  -18.1291 C   0  0  1  0  0  0  0  0  0  0  0  0
   17.7670   -9.6581  -18.7768 C   0  0  0  0  0  0  0  0  0  0  0  0
   16.8681  -10.2167  -20.2505 S   0  0  0  0  0  0  0  0  0  0  0  0
   19.4954  -10.2037  -17.1213 C   0  0  0  0  0  0  0  0  0  0  0  0
   18.9746   -9.8201  -16.0593 O   0  0  0  0  0  0  0  0  0  0  0  0
   27.0108   -9.9922  -14.7998 C   0  0  0  0  0  0  0  0  0  0  0  0
   25.8478  -10.6821  -15.9954 S   0  0  0  0  0  0  0  0  0  0  0  0
   24.2920   -9.7706  -15.8525 C   0  0  0  0  0  0  0  0  0  0  0  0
   23.2391  -10.3268  -16.7736 C   0  0  0  0  0  0  0  0  0  0  0  0
   21.9155   -9.6151  -16.5878 C   0  0  2  0  0  0  0  0  0  0  0  0
   20.8644  -10.1319  -17.4036 N   0  0  0  0  0  0  0  0  0  0  0  0
   22.0178   -8.1514  -16.5314 C   0  0  0  0  0  0  0  0  0  0  0  0
   22.2278   -7.4623  -17.5893 O   0  0  0  0  0  0  0  0  0  0  0  0
   20.0932   -5.4619  -16.8253 O   0  0  0  0  0  0  0  0  0  0  0  0
   20.5281   -5.3709  -15.5064 C   0  0  0  0  0  0  0  0  0  0  0  0
   21.9111   -5.9637  -15.3332 C   0  0  2  0  0  0  0  0  0  0  0  0
   21.8960   -7.3987  -15.3332 N   0  0  0  0  0  0  0  0  0  0  0  0
   22.5799   -5.3876  -14.1499 C   0  0  0  0  0  0  0  0  0  0  0  0
   23.1093   -4.1147  -14.0805 O   0  0  0  0  0  0  0  0  0  0  0  0
   22.6733   -6.1145  -13.1273 O   0  0  0  0  0  0  0  0  0  0  0  0
  2  3  1  0
  2  1  1  1
  4  3  1  0
  5  2  1  0
  5 12  1  0
  6  5  2  0
  7  8  1  0
  8  9  1  0
  9 10  1  0
 11 10  1  6
 11 12  1  0
 13 14  2  0
 13 11  1  0
 16 15  1  0
 17 18  1  0
 17 16  1  1
 18 13  1  0
 19 17  1  0
 20 19  1  0
 21 19  2  0
M  END
$$$$
