CMS.pdb
     RDKit          3D

 21 20  0  0  1  0  0  0  0  0999 V2000
   22.8416  -21.4358  -13.5457 N   0  0  0  0  0  0  0  0  0  0  0  0
   21.6167  -20.9341  -14.1178 C   0  0  1  0  0  0  0  0  0  0  0  0
   20.4633  -21.4586  -13.3193 C   0  0  0  0  0  0  0  0  0  0  0  0
   19.8541  -23.0396  -13.9681 S   0  0  0  0  0  0  0  0  0  0  0  0
   21.5921  -19.4245  -14.1029 C   0  0  0  0  0  0  0  0  0  0  0  0
   22.0671  -18.9070  -13.0770 O   0  0  0  0  0  0  0  0  0  0  0  0
   22.8481  -13.0189  -18.1967 C   0  0  0  0  0  0  0  0  0  0  0  0
   22.9880  -14.8135  -18.0631 S   0  0  0  0  0  0  0  0  0  0  0  0
   21.9869  -15.3494  -16.6552 C   0  0  0  0  0  0  0  0  0  0  0  0
   21.9654  -16.8496  -16.5316 C   0  0  0  0  0  0  0  0  0  0  0  0
   21.0668  -17.2942  -15.3967 C   0  0  2  0  0  0  0  0  0  0  0  0
   21.0658  -18.7054  -15.1822 N   0  0  0  0  0  0  0  0  0  0  0  0
   19.7497  -16.6454  -15.3775 C   0  0  0  0  0  0  0  0  0  0  0  0
   18.8018  -17.0516  -16.1353 O   0  0  0  0  0  0  0  0  0  0  0  0
   16.6065  -13.5174  -13.3589 O   0  0  0  0  0  0  0  0  0  0  0  0
   17.9234  -13.9638  -13.4196 C   0  0  0  0  0  0  0  0  0  0  0  0
   18.1365  -14.9156  -14.5783 C   0  0  2  0  0  0  0  0  0  0  0  0
   19.4260  -15.5444  -14.5407 N   0  0  0  0  0  0  0  0  0  0  0  0
   17.8523  -14.2446  -15.8622 C   0  0  0  0  0  0  0  0  0  0  0  0
   16.6413  -14.2802  -16.5236 O   0  0  0  0  0  0  0  0  0  0  0  0
   18.7872  -13.5906  -16.3923 O   0  0  0  0  0  0  0  0  0  0  0  0
  2  3  1  0
  2  1  1  1
  4  3  1  0
  5  2  1  0
  5 12  1  0
  6  5  2  0
  7  8  1  0
  8  9  1  0
  9 10  1  0
 11 10  1  6
 11 12  1  0
 13 14  2  0
 13 11  1  0
 16 15  1  0
 17 18  1  0
 17 16  1  1
 18 13  1  0
 19 17  1  0
 20 19  1  0
 21 19  2  0
M  END
$$$$
