CMS.pdb
     RDKit          3D

 21 20  0  0  1  0  0  0  0  0999 V2000
   17.7831  -14.3985  -16.4995 N   0  0  0  0  0  0  0  0  0  0  0  0
   18.6008  -13.5772  -17.3575 C   0  0  1  0  0  0  0  0  0  0  0  0
   17.7067  -12.8050  -18.2779 C   0  0  0  0  0  0  0  0  0  0  0  0
   16.7760  -13.8952  -19.3901 S   0  0  0  0  0  0  0  0  0  0  0  0
   19.4378  -12.6161  -16.5478 C   0  0  0  0  0  0  0  0  0  0  0  0
   18.8892  -12.1911  -15.5160 O   0  0  0  0  0  0  0  0  0  0  0  0
   26.7174  -10.0111  -15.0531 C   0  0  0  0  0  0  0  0  0  0  0  0
   25.7271  -11.2390  -15.9302 S   0  0  0  0  0  0  0  0  0  0  0  0
   23.9905  -10.7481  -15.8078 C   0  0  0  0  0  0  0  0  0  0  0  0
   23.0888  -11.7266  -16.5119 C   0  0  0  0  0  0  0  0  0  0  0  0
   21.6329  -11.3376  -16.3620 C   0  0  2  0  0  0  0  0  0  0  0  0
   20.7256  -12.2600  -16.9646 N   0  0  0  0  0  0  0  0  0  0  0  0
   21.3571   -9.9170  -16.6108 C   0  0  0  0  0  0  0  0  0  0  0  0
   21.3964   -9.4337  -17.7952 O   0  0  0  0  0  0  0  0  0  0  0  0
   19.2608   -7.3814  -13.9960 O   0  0  0  0  0  0  0  0  0  0  0  0
   19.3774   -7.1906  -15.3696 C   0  0  0  0  0  0  0  0  0  0  0  0
   20.7410   -7.6115  -15.8772 C   0  0  2  0  0  0  0  0  0  0  0  0
   21.0327   -8.9866  -15.5880 N   0  0  0  0  0  0  0  0  0  0  0  0
   21.7836   -6.6815  -15.4005 C   0  0  0  0  0  0  0  0  0  0  0  0
   21.7824   -5.3168  -15.6072 O   0  0  0  0  0  0  0  0  0  0  0  0
   22.7463   -7.1729  -14.7565 O   0  0  0  0  0  0  0  0  0  0  0  0
  2  3  1  0
  2  1  1  1
  4  3  1  0
  5  2  1  0
  5 12  1  0
  6  5  2  0
  7  8  1  0
  8  9  1  0
  9 10  1  0
 11 10  1  6
 11 12  1  0
 13 14  2  0
 13 11  1  0
 16 15  1  0
 17 18  1  0
 17 16  1  1
 18 13  1  0
 19 17  1  0
 20 19  1  0
 21 19  2  0
M  END
$$$$
