CMS.pdb
     RDKit          3D

 21 20  0  0  1  0  0  0  0  0999 V2000
   18.2804  -23.0743  -13.7356 N   0  0  0  0  0  0  0  0  0  0  0  0
   19.1921  -23.4823  -12.6955 C   0  0  1  0  0  0  0  0  0  0  0  0
   19.6789  -22.2616  -11.9772 C   0  0  0  0  0  0  0  0  0  0  0  0
   18.3598  -21.4718  -11.0140 S   0  0  0  0  0  0  0  0  0  0  0  0
   18.5124  -24.4053  -11.7127 C   0  0  0  0  0  0  0  0  0  0  0  0
   17.2995  -24.1867  -11.5480 O   0  0  0  0  0  0  0  0  0  0  0  0
   21.2261  -30.1596   -9.0099 C   0  0  0  0  0  0  0  0  0  0  0  0
   19.4578  -30.3222   -9.3332 S   0  0  0  0  0  0  0  0  0  0  0  0
   18.7165  -28.6755   -9.2303 C   0  0  0  0  0  0  0  0  0  0  0  0
   19.3666  -27.7159  -10.1909 C   0  0  0  0  0  0  0  0  0  0  0  0
   18.7780  -26.3266  -10.0618 C   0  0  2  0  0  0  0  0  0  0  0  0
   19.2313  -25.4141  -11.0614 N   0  0  0  0  0  0  0  0  0  0  0  0
   18.7499  -25.8061   -8.6891 C   0  0  0  0  0  0  0  0  0  0  0  0
   19.7732  -25.2310   -8.1792 O   0  0  0  0  0  0  0  0  0  0  0  0
   16.2553  -24.4036   -4.7673 O   0  0  0  0  0  0  0  0  0  0  0  0
   16.2318  -24.9497   -6.0472 C   0  0  0  0  0  0  0  0  0  0  0  0
   17.6194  -25.3401   -6.5124 C   0  0  2  0  0  0  0  0  0  0  0  0
   17.6177  -25.8944   -7.8362 N   0  0  0  0  0  0  0  0  0  0  0  0
   18.2765  -26.2100   -5.5169 C   0  0  0  0  0  0  0  0  0  0  0  0
   19.0717  -25.7664   -4.4795 O   0  0  0  0  0  0  0  0  0  0  0  0
   18.0965  -27.4505   -5.6244 O   0  0  0  0  0  0  0  0  0  0  0  0
  2  3  1  0
  2  1  1  6
  4  3  1  0
  5  2  1  0
  5 12  1  0
  6  5  2  0
  7  8  1  0
  8  9  1  0
  9 10  1  0
 11 10  1  1
 11 12  1  0
 13 14  2  0
 13 11  1  0
 16 15  1  0
 17 18  1  0
 17 16  1  1
 18 13  1  0
 19 17  1  0
 20 19  1  0
 21 19  2  0
M  END
$$$$
