CMS.pdb
     RDKit          3D

 21 20  0  0  1  0  0  0  0  0999 V2000
   27.2888  -24.7438  -16.7218 N   0  0  0  0  0  0  0  0  0  0  0  0
   27.0853  -23.3349  -16.4916 C   0  0  1  0  0  0  0  0  0  0  0  0
   26.6097  -22.7040  -17.7639 C   0  0  0  0  0  0  0  0  0  0  0  0
   27.9486  -22.5322  -18.9761 S   0  0  0  0  0  0  0  0  0  0  0  0
   26.0615  -23.1073  -15.4053 C   0  0  0  0  0  0  0  0  0  0  0  0
   25.1503  -23.9523  -15.3647 O   0  0  0  0  0  0  0  0  0  0  0  0
   24.1569  -20.9596   -8.6117 C   0  0  0  0  0  0  0  0  0  0  0  0
   25.3905  -21.3242   -9.8778 S   0  0  0  0  0  0  0  0  0  0  0  0
   24.9795  -20.3616  -11.3530 C   0  0  0  0  0  0  0  0  0  0  0  0
   25.9188  -20.6644  -12.4898 C   0  0  0  0  0  0  0  0  0  0  0  0
   25.2981  -21.6371  -13.4706 C   0  0  2  0  0  0  0  0  0  0  0  0
   26.1701  -22.0167  -14.5349 N   0  0  0  0  0  0  0  0  0  0  0  0
   23.9215  -21.3077  -13.8609 C   0  0  0  0  0  0  0  0  0  0  0  0
   23.6672  -20.2853  -14.5875 O   0  0  0  0  0  0  0  0  0  0  0  0
   21.2353  -24.0405  -14.6933 O   0  0  0  0  0  0  0  0  0  0  0  0
   20.5878  -22.9946  -14.0423 C   0  0  0  0  0  0  0  0  0  0  0  0
   21.4688  -21.7661  -13.9480 C   0  0  2  0  0  0  0  0  0  0  0  0
   22.7889  -22.0736  -13.4763 N   0  0  0  0  0  0  0  0  0  0  0  0
   20.8023  -20.7064  -13.1657 C   0  0  0  0  0  0  0  0  0  0  0  0
   19.6521  -20.0451  -13.5467 O   0  0  0  0  0  0  0  0  0  0  0  0
   21.3243  -20.3829  -12.0677 O   0  0  0  0  0  0  0  0  0  0  0  0
  2  3  1  0
  2  1  1  6
  4  3  1  0
  5  2  1  0
  5 12  1  0
  6  5  2  0
  7  8  1  0
  8  9  1  0
  9 10  1  0
 11 10  1  6
 11 12  1  0
 13 14  2  0
 13 11  1  0
 16 15  1  0
 17 18  1  0
 17 16  1  1
 18 13  1  0
 19 17  1  0
 20 19  1  0
 21 19  2  0
M  END
$$$$
