CMS.pdb
     RDKit          3D

 21 20  0  0  1  0  0  0  0  0999 V2000
   18.6081  -24.4897  -13.5426 N   0  0  0  0  0  0  0  0  0  0  0  0
   19.0051  -24.1277  -12.2044 C   0  0  1  0  0  0  0  0  0  0  0  0
   18.5388  -22.7320  -11.9260 C   0  0  0  0  0  0  0  0  0  0  0  0
   19.6194  -21.4918  -12.6912 S   0  0  0  0  0  0  0  0  0  0  0  0
   18.4038  -25.0697  -11.1891 C   0  0  0  0  0  0  0  0  0  0  0  0
   17.1613  -25.1164  -11.1954 O   0  0  0  0  0  0  0  0  0  0  0  0
   22.1904  -29.5990  -10.6658 C   0  0  0  0  0  0  0  0  0  0  0  0
   20.4991  -30.2208  -10.5622 S   0  0  0  0  0  0  0  0  0  0  0  0
   19.3842  -28.7987  -10.4803 C   0  0  0  0  0  0  0  0  0  0  0  0
   19.6170  -27.9852   -9.2352 C   0  0  0  0  0  0  0  0  0  0  0  0
   18.8335  -26.6898   -9.2713 C   0  0  2  0  0  0  0  0  0  0  0  0
   19.2203  -25.8123  -10.3284 N   0  0  0  0  0  0  0  0  0  0  0  0
   18.6426  -26.0610   -7.9582 C   0  0  0  0  0  0  0  0  0  0  0  0
   19.5306  -25.2842   -7.4620 O   0  0  0  0  0  0  0  0  0  0  0  0
   15.9427  -23.7204   -5.4259 O   0  0  0  0  0  0  0  0  0  0  0  0
   15.9424  -25.0948   -5.6448 C   0  0  0  0  0  0  0  0  0  0  0  0
   17.3436  -25.6235   -5.8715 C   0  0  2  0  0  0  0  0  0  0  0  0
   17.4901  -26.2559   -7.1515 N   0  0  0  0  0  0  0  0  0  0  0  0
   17.7648  -26.4810   -4.7460 C   0  0  0  0  0  0  0  0  0  0  0  0
   18.4143  -26.0370   -3.6118 O   0  0  0  0  0  0  0  0  0  0  0  0
   17.5112  -27.7104   -4.8291 O   0  0  0  0  0  0  0  0  0  0  0  0
  2  3  1  0
  2  1  1  6
  4  3  1  0
  5  2  1  0
  5 12  1  0
  6  5  2  0
  7  8  1  0
  8  9  1  0
  9 10  1  0
 11 10  1  1
 11 12  1  0
 13 14  2  0
 13 11  1  0
 16 15  1  0
 17 18  1  0
 17 16  1  1
 18 13  1  0
 19 17  1  0
 20 19  1  0
 21 19  2  0
M  END
$$$$
