CMS.pdb
     RDKit          3D

 21 20  0  0  1  0  0  0  0  0999 V2000
   18.0774  -12.8093  -16.1736 N   0  0  0  0  0  0  0  0  0  0  0  0
   18.3363  -11.4649  -16.6263 C   0  0  1  0  0  0  0  0  0  0  0  0
   17.1106  -10.6358  -16.3955 C   0  0  0  0  0  0  0  0  0  0  0  0
   15.7040  -11.2178  -17.3826 S   0  0  0  0  0  0  0  0  0  0  0  0
   19.5003  -10.8582  -15.8800 C   0  0  0  0  0  0  0  0  0  0  0  0
   19.5552  -11.1541  -14.6736 O   0  0  0  0  0  0  0  0  0  0  0  0
   26.3330  -10.6561  -14.5271 C   0  0  0  0  0  0  0  0  0  0  0  0
   25.5976  -10.1384  -16.0920 S   0  0  0  0  0  0  0  0  0  0  0  0
   24.0365   -9.3010  -15.7266 C   0  0  0  0  0  0  0  0  0  0  0  0
   22.8823   -9.9443  -16.4479 C   0  0  0  0  0  0  0  0  0  0  0  0
   21.5592   -9.3632  -15.9951 C   0  0  2  0  0  0  0  0  0  0  0  0
   20.4209  -10.0331  -16.5361 N   0  0  0  0  0  0  0  0  0  0  0  0
   21.5043   -7.8960  -16.0138 C   0  0  0  0  0  0  0  0  0  0  0  0
   21.3192   -7.2555  -17.1063 O   0  0  0  0  0  0  0  0  0  0  0  0
   19.8146   -3.9059  -14.7324 O   0  0  0  0  0  0  0  0  0  0  0  0
   19.9907   -5.2862  -14.7018 C   0  0  0  0  0  0  0  0  0  0  0  0
   21.4444   -5.6671  -14.8906 C   0  0  2  0  0  0  0  0  0  0  0  0
   21.6476   -7.0874  -14.8551 N   0  0  0  0  0  0  0  0  0  0  0  0
   22.3028   -4.9315  -13.9412 C   0  0  0  0  0  0  0  0  0  0  0  0
   22.7297   -3.6290  -14.1047 O   0  0  0  0  0  0  0  0  0  0  0  0
   22.6723   -5.5404  -12.9041 O   0  0  0  0  0  0  0  0  0  0  0  0
  2  3  1  0
  2  1  1  1
  4  3  1  0
  5  2  1  0
  5 12  1  0
  6  5  2  0
  7  8  1  0
  8  9  1  0
  9 10  1  0
 11 10  1  6
 11 12  1  0
 13 14  2  0
 13 11  1  0
 16 15  1  0
 17 18  1  0
 17 16  1  1
 18 13  1  0
 19 17  1  0
 20 19  1  0
 21 19  2  0
M  END
$$$$
