CMS.pdb
     RDKit          3D

 21 20  0  0  1  0  0  0  0  0999 V2000
   22.9234  -12.7173  -18.5644 N   0  0  0  0  0  0  0  0  0  0  0  0
   23.4566  -11.5079  -17.9879 C   0  0  1  0  0  0  0  0  0  0  0  0
   23.9835  -10.6418  -19.0903 C   0  0  0  0  0  0  0  0  0  0  0  0
   22.6469   -9.8398  -20.0187 S   0  0  0  0  0  0  0  0  0  0  0  0
   22.3911  -10.7573  -17.2257 C   0  0  0  0  0  0  0  0  0  0  0  0
   21.2295  -10.9600  -17.6203 O   0  0  0  0  0  0  0  0  0  0  0  0
   21.4261   -9.4381  -10.6695 C   0  0  0  0  0  0  0  0  0  0  0  0
   22.7567  -10.3253  -11.5064 S   0  0  0  0  0  0  0  0  0  0  0  0
   22.3482  -10.4160  -13.2662 C   0  0  0  0  0  0  0  0  0  0  0  0
   22.3064   -9.0487  -13.8948 C   0  0  0  0  0  0  0  0  0  0  0  0
   21.8691   -9.1233  -15.3427 C   0  0  2  0  0  0  0  0  0  0  0  0
   22.7309   -9.9101  -16.1646 N   0  0  0  0  0  0  0  0  0  0  0  0
   21.4414   -7.8395  -15.9129 C   0  0  0  0  0  0  0  0  0  0  0  0
   22.2973   -6.9678  -16.2942 O   0  0  0  0  0  0  0  0  0  0  0  0
   17.9881   -5.0354  -17.8719 O   0  0  0  0  0  0  0  0  0  0  0  0
   18.3138   -6.2444  -17.2642 C   0  0  0  0  0  0  0  0  0  0  0  0
   19.7056   -6.2115  -16.6678 C   0  0  2  0  0  0  0  0  0  0  0  0
   20.0815   -7.4677  -16.0844 N   0  0  0  0  0  0  0  0  0  0  0  0
   19.8476   -5.0721  -15.7400 C   0  0  0  0  0  0  0  0  0  0  0  0
   20.3278   -3.8248  -16.0849 O   0  0  0  0  0  0  0  0  0  0  0  0
   19.5039   -5.2541  -14.5435 O   0  0  0  0  0  0  0  0  0  0  0  0
  2  3  1  0
  2  1  1  6
  4  3  1  0
  5  2  1  0
  5 12  1  0
  6  5  2  0
  7  8  1  0
  8  9  1  0
  9 10  1  0
 11 10  1  1
 11 12  1  0
 13 14  2  0
 13 11  1  0
 16 15  1  0
 17 18  1  0
 17 16  1  1
 18 13  1  0
 19 17  1  0
 20 19  1  0
 21 19  2  0
M  END
$$$$
