VKP.pdb
     RDKit          3D

 24 24  0  0  1  0  0  0  0  0999 V2000
   12.5965  -19.2660   23.2992 C   0  0  0  0  0  0  0  0  0  0  0  0
   11.8299  -18.0773   23.8410 C   0  0  2  0  0  0  0  0  0  0  0  0
   10.6718  -18.6371   24.6470 C   0  0  0  0  0  0  0  0  0  0  0  0
   11.3355  -17.2800   22.6639 C   0  0  2  0  0  0  0  0  0  0  0  0
   12.4898  -16.9170   21.8650 N   0  0  0  0  0  0  0  0  0  0  0  0
   10.5870  -16.0629   23.1027 C   0  0  0  0  0  0  0  0  0  0  0  0
   11.1111  -15.2124   23.8735 O   0  0  0  0  0  0  0  0  0  0  0  0
    9.2698  -15.7992   22.6859 N   0  0  0  0  0  0  0  0  0  0  0  0
    8.5557  -14.5487   23.1485 C   0  0  1  0  0  0  0  0  0  0  0  0
    7.6625  -14.2827   21.9838 C   0  0  0  0  0  0  0  0  0  0  0  0
    8.0774  -13.5068   20.8155 C   0  0  0  0  0  0  0  0  0  0  0  0
    7.7409  -13.9714   19.4576 C   0  0  0  0  0  0  0  0  0  0  0  0
    8.4939  -13.0895   18.4355 C   0  0  0  0  0  0  0  0  0  0  0  0
    8.1221  -13.5058   17.1105 N   0  0  0  0  0  0  0  0  0  0  0  0
    7.8959  -14.8421   24.4147 C   0  0  0  0  0  0  0  0  0  0  0  0
    7.4818  -16.0175   24.5722 O   0  0  0  0  0  0  0  0  0  0  0  0
    7.7146  -13.9030   25.4488 N   0  0  0  0  0  0  0  0  0  0  0  0
    8.3456  -12.6036   25.4080 C   0  0  0  0  0  0  0  0  0  0  0  0
    7.3755  -11.7101   26.1143 C   0  0  0  0  0  0  0  0  0  0  0  0
    6.3516  -12.5839   26.7576 C   0  0  0  0  0  0  0  0  0  0  0  0
    6.9876  -14.0034   26.6484 C   0  0  1  0  0  0  0  0  0  0  0  0
    5.8981  -14.9648   26.7559 C   0  0  0  0  0  0  0  0  0  0  0  0
    5.5456  -15.4995   27.8033 O   0  0  0  0  0  0  0  0  0  0  0  0
    5.2168  -15.2907   25.5782 O   0  0  0  0  0  0  0  0  0  0  0  0
  2  1  1  6
  2  3  1  0
  4  5  1  6
  4  2  1  0
  6  4  1  0
  7  6  2  0
  8  6  1  0
  9 10  1  6
  9  8  1  0
 10 11  1  0
 11 12  1  0
 13 14  1  0
 13 12  1  0
 15  9  1  0
 16 15  2  0
 17 15  1  0
 18 17  1  0
 19 20  1  0
 19 18  1  0
 20 21  1  0
 21 17  1  0
 22 24  1  0
 21 22  1  6
 23 22  2  0
M  END
$$$$
