VKP.pdb
     RDKit          3D

 24 24  0  0  1  0  0  0  0  0999 V2000
    7.6520  -12.5703   20.1278 C   0  0  0  0  0  0  0  0  0  0  0  0
    8.8141  -13.5308   19.9817 C   0  0  2  0  0  0  0  0  0  0  0  0
    9.4076  -13.2895   18.6055 C   0  0  0  0  0  0  0  0  0  0  0  0
    8.2667  -14.9281   20.0983 C   0  0  2  0  0  0  0  0  0  0  0  0
    7.3912  -15.1515   18.9644 N   0  0  0  0  0  0  0  0  0  0  0  0
    7.5319  -15.1224   21.3854 C   0  0  0  0  0  0  0  0  0  0  0  0
    6.3263  -15.4946   21.4032 O   0  0  0  0  0  0  0  0  0  0  0  0
    8.1360  -14.9037   22.6366 N   0  0  0  0  0  0  0  0  0  0  0  0
    7.4511  -15.3551   23.9074 C   0  0  1  0  0  0  0  0  0  0  0  0
    7.4950  -16.8372   23.7443 C   0  0  0  0  0  0  0  0  0  0  0  0
    7.0687  -17.7716   24.7855 C   0  0  0  0  0  0  0  0  0  0  0  0
    7.2219  -19.2244   24.5877 C   0  0  0  0  0  0  0  0  0  0  0  0
    6.6337  -19.9528   25.8177 C   0  0  0  0  0  0  0  0  0  0  0  0
    6.6425  -21.3671   25.5593 N   0  0  0  0  0  0  0  0  0  0  0  0
    8.1863  -14.8080   25.0409 C   0  0  0  0  0  0  0  0  0  0  0  0
    9.2106  -15.4391   25.4023 O   0  0  0  0  0  0  0  0  0  0  0  0
    7.8237  -13.6319   25.7261 N   0  0  0  0  0  0  0  0  0  0  0  0
    6.8517  -12.7108   25.1830 C   0  0  0  0  0  0  0  0  0  0  0  0
    6.1840  -12.1375   26.3928 C   0  0  0  0  0  0  0  0  0  0  0  0
    6.9784  -12.5601   27.5828 C   0  0  0  0  0  0  0  0  0  0  0  0
    8.2905  -13.1124   26.9467 C   0  0  1  0  0  0  0  0  0  0  0  0
    8.8945  -14.0035   27.9285 C   0  0  0  0  0  0  0  0  0  0  0  0
    9.6729  -13.6425   28.8067 O   0  0  0  0  0  0  0  0  0  0  0  0
    8.5552  -15.3587   27.8536 O   0  0  0  0  0  0  0  0  0  0  0  0
  2  1  1  6
  2  3  1  0
  4  5  1  6
  4  2  1  0
  6  4  1  0
  7  6  2  0
  8  6  1  0
  9 10  1  1
  9  8  1  0
 10 11  1  0
 11 12  1  0
 13 14  1  0
 13 12  1  0
 15  9  1  0
 16 15  2  0
 17 15  1  0
 18 17  1  0
 19 20  1  0
 19 18  1  0
 20 21  1  0
 21 17  1  0
 22 24  1  0
 21 22  1  1
 23 22  2  0
M  END
$$$$
