VKP.pdb
     RDKit          3D

 24 24  0  0  1  0  0  0  0  0999 V2000
    7.3065  -12.7225   20.1638 C   0  0  0  0  0  0  0  0  0  0  0  0
    8.5687  -13.5514   20.0450 C   0  0  2  0  0  0  0  0  0  0  0  0
    9.1039  -13.3303   18.6419 C   0  0  0  0  0  0  0  0  0  0  0  0
    8.1886  -14.9920   20.2593 C   0  0  2  0  0  0  0  0  0  0  0  0
    7.3142  -15.3809   19.1701 N   0  0  0  0  0  0  0  0  0  0  0  0
    7.5160  -15.1901   21.5794 C   0  0  0  0  0  0  0  0  0  0  0  0
    6.2955  -15.5017   21.6540 O   0  0  0  0  0  0  0  0  0  0  0  0
    8.1979  -15.0419   22.8006 N   0  0  0  0  0  0  0  0  0  0  0  0
    7.5491  -15.4718   24.0975 C   0  0  1  0  0  0  0  0  0  0  0  0
    7.4407  -16.9446   23.8879 C   0  0  0  0  0  0  0  0  0  0  0  0
    6.9617  -17.8679   24.9161 C   0  0  0  0  0  0  0  0  0  0  0  0
    6.9863  -19.3225   24.6779 C   0  0  0  0  0  0  0  0  0  0  0  0
    6.4866  -20.0382   25.9536 C   0  0  0  0  0  0  0  0  0  0  0  0
    6.5469  -21.4580   25.7351 N   0  0  0  0  0  0  0  0  0  0  0  0
    8.3991  -15.0370   25.1989 C   0  0  0  0  0  0  0  0  0  0  0  0
    9.3745  -15.7768   25.4805 O   0  0  0  0  0  0  0  0  0  0  0  0
    8.1956  -13.8542   25.9364 N   0  0  0  0  0  0  0  0  0  0  0  0
    7.3494  -12.7923   25.4420 C   0  0  0  0  0  0  0  0  0  0  0  0
    6.7671  -12.1895   26.6813 C   0  0  0  0  0  0  0  0  0  0  0  0
    7.5050  -12.7624   27.8447 C   0  0  0  0  0  0  0  0  0  0  0  0
    8.7313  -13.4525   27.1731 C   0  0  1  0  0  0  0  0  0  0  0  0
    9.2184  -14.4558   28.1106 C   0  0  0  0  0  0  0  0  0  0  0  0
    8.8947  -15.6399   28.0897 O   0  0  0  0  0  0  0  0  0  0  0  0
   10.1149  -14.0265   29.0952 O   0  0  0  0  0  0  0  0  0  0  0  0
  2  1  1  6
  2  3  1  0
  4  5  1  6
  4  2  1  0
  6  4  1  0
  7  6  2  0
  8  6  1  0
  9 10  1  6
  9  8  1  0
 10 11  1  0
 11 12  1  0
 13 14  1  0
 13 12  1  0
 15  9  1  0
 16 15  2  0
 17 15  1  0
 18 17  1  0
 19 20  1  0
 19 18  1  0
 20 21  1  0
 21 17  1  0
 22 24  1  0
 21 22  1  1
 23 22  2  0
M  END
$$$$
