VKP.pdb
     RDKit          3D

 24 24  0  0  1  0  0  0  0  0999 V2000
   13.5075  -20.3541   19.8408 C   0  0  0  0  0  0  0  0  0  0  0  0
   12.6396  -19.1207   19.9800 C   0  0  2  0  0  0  0  0  0  0  0  0
   12.3747  -18.9402   21.4637 C   0  0  0  0  0  0  0  0  0  0  0  0
   11.3608  -19.3772   19.2285 C   0  0  2  0  0  0  0  0  0  0  0  0
   11.7055  -19.5835   17.8354 N   0  0  0  0  0  0  0  0  0  0  0  0
   10.4011  -18.2410   19.3775 C   0  0  0  0  0  0  0  0  0  0  0  0
   10.6380  -17.1107   18.8688 O   0  0  0  0  0  0  0  0  0  0  0  0
    9.1922  -18.3657   20.0855 N   0  0  0  0  0  0  0  0  0  0  0  0
    8.2109  -17.2158   20.1345 C   0  0  1  0  0  0  0  0  0  0  0  0
    6.9147  -17.9498   20.2131 C   0  0  0  0  0  0  0  0  0  0  0  0
    6.2214  -18.4810   19.0399 C   0  0  0  0  0  0  0  0  0  0  0  0
    5.8508  -19.9064   18.9784 C   0  0  0  0  0  0  0  0  0  0  0  0
    5.3293  -20.2180   17.5571 C   0  0  0  0  0  0  0  0  0  0  0  0
    5.0140  -21.6188   17.4822 N   0  0  0  0  0  0  0  0  0  0  0  0
    8.5482  -16.3766   21.2776 C   0  0  0  0  0  0  0  0  0  0  0  0
    8.8738  -16.9727   22.3343 O   0  0  0  0  0  0  0  0  0  0  0  0
    8.5401  -14.9682   21.2552 N   0  0  0  0  0  0  0  0  0  0  0  0
    8.6362  -14.2322   20.0153 C   0  0  0  0  0  0  0  0  0  0  0  0
    7.8365  -12.9935   20.2692 C   0  0  0  0  0  0  0  0  0  0  0  0
    7.5328  -12.9504   21.7292 C   0  0  0  0  0  0  0  0  0  0  0  0
    8.4781  -14.0442   22.3135 C   0  0  1  0  0  0  0  0  0  0  0  0
    7.9158  -14.4490   23.5953 C   0  0  0  0  0  0  0  0  0  0  0  0
    7.0525  -15.3110   23.7328 O   0  0  0  0  0  0  0  0  0  0  0  0
    8.4023  -13.8036   24.7373 O   0  0  0  0  0  0  0  0  0  0  0  0
  2  1  1  1
  2  3  1  0
  4  5  1  6
  4  2  1  0
  6  4  1  0
  7  6  2  0
  8  6  1  0
  9 10  1  1
  9  8  1  0
 10 11  1  0
 11 12  1  0
 13 14  1  0
 13 12  1  0
 15  9  1  0
 16 15  2  0
 17 15  1  0
 18 17  1  0
 19 20  1  0
 19 18  1  0
 20 21  1  0
 21 17  1  0
 22 24  1  0
 21 22  1  1
 23 22  2  0
M  END
$$$$
