VKP.pdb
     RDKit          3D

 24 24  0  0  1  0  0  0  0  0999 V2000
    9.4283  -12.8791   20.5635 C   0  0  0  0  0  0  0  0  0  0  0  0
    8.4288  -13.4657   19.5882 C   0  0  2  0  0  0  0  0  0  0  0  0
    7.1629  -12.6372   19.7115 C   0  0  0  0  0  0  0  0  0  0  0  0
    8.1830  -14.8944   19.9931 C   0  0  2  0  0  0  0  0  0  0  0  0
    7.3855  -15.5134   18.9524 N   0  0  0  0  0  0  0  0  0  0  0  0
    7.4907  -14.9772   21.3153 C   0  0  0  0  0  0  0  0  0  0  0  0
    6.2410  -15.1334   21.3932 O   0  0  0  0  0  0  0  0  0  0  0  0
    8.1855  -14.8866   22.5348 N   0  0  0  0  0  0  0  0  0  0  0  0
    7.5584  -15.3958   23.8135 C   0  0  1  0  0  0  0  0  0  0  0  0
    7.4978  -16.8606   23.5382 C   0  0  0  0  0  0  0  0  0  0  0  0
    6.8869  -17.8241   24.4533 C   0  0  0  0  0  0  0  0  0  0  0  0
    7.0323  -19.2714   24.2135 C   0  0  0  0  0  0  0  0  0  0  0  0
    6.3451  -20.0328   25.3699 C   0  0  0  0  0  0  0  0  0  0  0  0
    6.4555  -21.4440   25.1179 N   0  0  0  0  0  0  0  0  0  0  0  0
    8.3993  -14.9827   24.9301 C   0  0  0  0  0  0  0  0  0  0  0  0
    9.4447  -15.6522   25.1225 O   0  0  0  0  0  0  0  0  0  0  0  0
    8.1139  -13.8923   25.7748 N   0  0  0  0  0  0  0  0  0  0  0  0
    7.2344  -12.8241   25.3578 C   0  0  0  0  0  0  0  0  0  0  0  0
    6.5820  -12.3785   26.6283 C   0  0  0  0  0  0  0  0  0  0  0  0
    7.3070  -13.0340   27.7555 C   0  0  0  0  0  0  0  0  0  0  0  0
    8.5874  -13.5960   27.0655 C   0  0  1  0  0  0  0  0  0  0  0  0
    9.0906  -14.6674   27.9151 C   0  0  0  0  0  0  0  0  0  0  0  0
    8.8496  -15.8591   27.7446 O   0  0  0  0  0  0  0  0  0  0  0  0
    9.9018  -14.2983   28.9935 O   0  0  0  0  0  0  0  0  0  0  0  0
  2  1  1  1
  2  3  1  0
  4  5  1  6
  4  2  1  0
  6  4  1  0
  7  6  2  0
  8  6  1  0
  9 10  1  6
  9  8  1  0
 10 11  1  0
 11 12  1  0
 13 14  1  0
 13 12  1  0
 15  9  1  0
 16 15  2  0
 17 15  1  0
 18 17  1  0
 19 20  1  0
 19 18  1  0
 20 21  1  0
 21 17  1  0
 22 24  1  0
 21 22  1  1
 23 22  2  0
M  END
$$$$
