VKP.pdb
     RDKit          3D

 24 24  0  0  1  0  0  0  0  0999 V2000
    7.3310  -12.6763   20.2286 C   0  0  0  0  0  0  0  0  0  0  0  0
    8.4609  -13.6807   20.1358 C   0  0  2  0  0  0  0  0  0  0  0  0
    9.0079  -13.5907   18.7226 C   0  0  0  0  0  0  0  0  0  0  0  0
    7.8818  -15.0433   20.4069 C   0  0  2  0  0  0  0  0  0  0  0  0
    6.8390  -15.2787   19.4274 N   0  0  0  0  0  0  0  0  0  0  0  0
    7.3396  -15.1410   21.7964 C   0  0  0  0  0  0  0  0  0  0  0  0
    6.1224  -14.9175   22.0433 O   0  0  0  0  0  0  0  0  0  0  0  0
    8.1466  -15.4839   22.8962 N   0  0  0  0  0  0  0  0  0  0  0  0
    7.5422  -15.6262   24.2753 C   0  0  1  0  0  0  0  0  0  0  0  0
    7.6314  -17.1017   24.4752 C   0  0  0  0  0  0  0  0  0  0  0  0
    7.2796  -17.7637   25.7310 C   0  0  0  0  0  0  0  0  0  0  0  0
    7.4987  -19.2123   25.8938 C   0  0  0  0  0  0  0  0  0  0  0  0
    7.0166  -19.6273   27.3026 C   0  0  0  0  0  0  0  0  0  0  0  0
    7.2243  -21.0414   27.4592 N   0  0  0  0  0  0  0  0  0  0  0  0
    8.3122  -14.8016   25.1982 C   0  0  0  0  0  0  0  0  0  0  0  0
    9.5137  -15.1251   25.3705 O   0  0  0  0  0  0  0  0  0  0  0  0
    7.7952  -13.6823   25.8794 N   0  0  0  0  0  0  0  0  0  0  0  0
    6.6922  -12.9165   25.3453 C   0  0  0  0  0  0  0  0  0  0  0  0
    5.9683  -12.4318   26.5616 C   0  0  0  0  0  0  0  0  0  0  0  0
    6.8342  -12.7227   27.7413 C   0  0  0  0  0  0  0  0  0  0  0  0
    8.2018  -13.0877   27.0872 C   0  0  1  0  0  0  0  0  0  0  0  0
    8.9433  -13.8719   28.0660 C   0  0  0  0  0  0  0  0  0  0  0  0
    8.9797  -15.0989   28.0879 O   0  0  0  0  0  0  0  0  0  0  0  0
    9.6573  -13.1657   29.0401 O   0  0  0  0  0  0  0  0  0  0  0  0
  2  1  1  6
  2  3  1  0
  4  5  1  6
  4  2  1  0
  6  4  1  0
  7  6  2  0
  8  6  1  0
  9 10  1  1
  9  8  1  0
 10 11  1  0
 11 12  1  0
 13 14  1  0
 13 12  1  0
 15  9  1  0
 16 15  2  0
 17 15  1  0
 18 17  1  0
 19 20  1  0
 19 18  1  0
 20 21  1  0
 21 17  1  0
 22 24  1  0
 21 22  1  1
 23 22  2  0
M  END
$$$$
