VKP.pdb
     RDKit          3D

 24 24  0  0  1  0  0  0  0  0999 V2000
    8.5624  -13.1553   18.5225 C   0  0  0  0  0  0  0  0  0  0  0  0
    7.6999  -13.4868   19.7226 C   0  0  2  0  0  0  0  0  0  0  0  0
    7.9819  -12.4231   20.7682 C   0  0  0  0  0  0  0  0  0  0  0  0
    8.1077  -14.8502   20.2130 C   0  0  2  0  0  0  0  0  0  0  0  0
    7.6611  -15.8201   19.2321 N   0  0  0  0  0  0  0  0  0  0  0  0
    7.5249  -15.1451   21.5576 C   0  0  0  0  0  0  0  0  0  0  0  0
    6.3002  -15.4153   21.6972 O   0  0  0  0  0  0  0  0  0  0  0  0
    8.3002  -15.1384   22.7311 N   0  0  0  0  0  0  0  0  0  0  0  0
    7.6538  -15.3756   24.0778 C   0  0  1  0  0  0  0  0  0  0  0  0
    7.6594  -16.8660   24.1385 C   0  0  0  0  0  0  0  0  0  0  0  0
    7.2534  -17.6221   25.3228 C   0  0  0  0  0  0  0  0  0  0  0  0
    7.4044  -19.0881   25.3560 C   0  0  0  0  0  0  0  0  0  0  0  0
    6.7872  -19.6163   26.6710 C   0  0  0  0  0  0  0  0  0  0  0  0
    6.8993  -21.0496   26.6858 N   0  0  0  0  0  0  0  0  0  0  0  0
    8.4426  -14.6850   25.0904 C   0  0  0  0  0  0  0  0  0  0  0  0
    9.5889  -15.1454   25.3188 O   0  0  0  0  0  0  0  0  0  0  0  0
    8.0020  -13.5500   25.7988 N   0  0  0  0  0  0  0  0  0  0  0  0
    6.9994  -12.6627   25.2549 C   0  0  0  0  0  0  0  0  0  0  0  0
    6.2705  -12.1608   26.4611 C   0  0  0  0  0  0  0  0  0  0  0  0
    7.0527  -12.5790   27.6607 C   0  0  0  0  0  0  0  0  0  0  0  0
    8.4082  -13.0452   27.0469 C   0  0  1  0  0  0  0  0  0  0  0  0
    9.0298  -13.9343   28.0194 C   0  0  0  0  0  0  0  0  0  0  0  0
    8.9076  -15.1560   28.0198 O   0  0  0  0  0  0  0  0  0  0  0  0
    9.8162  -13.3421   29.0135 O   0  0  0  0  0  0  0  0  0  0  0  0
  2  1  1  6
  2  3  1  0
  4  5  1  6
  4  2  1  0
  6  4  1  0
  7  6  2  0
  8  6  1  0
  9 10  1  1
  9  8  1  0
 10 11  1  0
 11 12  1  0
 13 14  1  0
 13 12  1  0
 15  9  1  0
 16 15  2  0
 17 15  1  0
 18 17  1  0
 19 20  1  0
 19 18  1  0
 20 21  1  0
 21 17  1  0
 22 24  1  0
 21 22  1  1
 23 22  2  0
M  END
$$$$
