VKP.pdb
     RDKit          3D

 24 24  0  0  1  0  0  0  0  0999 V2000
    7.2733  -12.6903   20.2869 C   0  0  0  0  0  0  0  0  0  0  0  0
    8.5039  -13.5592   20.1293 C   0  0  2  0  0  0  0  0  0  0  0  0
    9.0156  -13.3368   18.7176 C   0  0  0  0  0  0  0  0  0  0  0  0
    8.0803  -14.9891   20.3333 C   0  0  2  0  0  0  0  0  0  0  0  0
    7.1386  -15.3210   19.2820 N   0  0  0  0  0  0  0  0  0  0  0  0
    7.4672  -15.1913   21.6814 C   0  0  0  0  0  0  0  0  0  0  0  0
    6.2341  -15.0071   21.8759 O   0  0  0  0  0  0  0  0  0  0  0  0
    8.2217  -15.5942   22.7979 N   0  0  0  0  0  0  0  0  0  0  0  0
    7.5817  -15.6766   24.1658 C   0  0  1  0  0  0  0  0  0  0  0  0
    7.6350  -17.1459   24.4178 C   0  0  0  0  0  0  0  0  0  0  0  0
    7.2152  -17.7594   25.6774 C   0  0  0  0  0  0  0  0  0  0  0  0
    7.4017  -19.2049   25.8979 C   0  0  0  0  0  0  0  0  0  0  0  0
    6.8162  -19.5709   27.2808 C   0  0  0  0  0  0  0  0  0  0  0  0
    6.9803  -20.9843   27.4877 N   0  0  0  0  0  0  0  0  0  0  0  0
    8.3467  -14.8365   25.0788 C   0  0  0  0  0  0  0  0  0  0  0  0
    9.5472  -15.1574   25.2635 O   0  0  0  0  0  0  0  0  0  0  0  0
    7.8263  -13.7056   25.7379 N   0  0  0  0  0  0  0  0  0  0  0  0
    6.6938  -12.9791   25.2107 C   0  0  0  0  0  0  0  0  0  0  0  0
    5.9941  -12.4687   26.4307 C   0  0  0  0  0  0  0  0  0  0  0  0
    6.8980  -12.7039   27.5941 C   0  0  0  0  0  0  0  0  0  0  0  0
    8.2541  -13.0638   26.9138 C   0  0  1  0  0  0  0  0  0  0  0  0
    9.0381  -13.8009   27.8961 C   0  0  0  0  0  0  0  0  0  0  0  0
    9.1081  -15.0255   27.9502 O   0  0  0  0  0  0  0  0  0  0  0  0
    9.7543  -13.0495   28.8341 O   0  0  0  0  0  0  0  0  0  0  0  0
  2  1  1  6
  2  3  1  0
  4  5  1  6
  4  2  1  0
  6  4  1  0
  7  6  2  0
  8  6  1  0
  9 10  1  1
  9  8  1  0
 10 11  1  0
 11 12  1  0
 13 14  1  0
 13 12  1  0
 15  9  1  0
 16 15  2  0
 17 15  1  0
 18 17  1  0
 19 20  1  0
 19 18  1  0
 20 21  1  0
 21 17  1  0
 22 24  1  0
 21 22  1  1
 23 22  2  0
M  END
$$$$
