VKP.pdb
     RDKit          3D

 24 24  0  0  1  0  0  0  0  0999 V2000
    6.5399  -14.0243   19.5548 C   0  0  0  0  0  0  0  0  0  0  0  0
    7.7797  -13.1771   19.7526 C   0  0  2  0  0  0  0  0  0  0  0  0
    8.3635  -12.9316   18.3730 C   0  0  0  0  0  0  0  0  0  0  0  0
    8.7340  -13.9611   20.6130 C   0  0  2  0  0  0  0  0  0  0  0  0
    9.0286  -15.2014   19.9221 N   0  0  0  0  0  0  0  0  0  0  0  0
    8.1576  -14.2287   21.9659 C   0  0  0  0  0  0  0  0  0  0  0  0
    7.7764  -13.2873   22.7148 O   0  0  0  0  0  0  0  0  0  0  0  0
    8.0088  -15.5310   22.4759 N   0  0  0  0  0  0  0  0  0  0  0  0
    7.3927  -15.7544   23.8390 C   0  0  1  0  0  0  0  0  0  0  0  0
    7.2384  -17.2380   23.8428 C   0  0  0  0  0  0  0  0  0  0  0  0
    6.8331  -17.9992   25.0241 C   0  0  0  0  0  0  0  0  0  0  0  0
    6.8085  -19.4726   24.9858 C   0  0  0  0  0  0  0  0  0  0  0  0
    6.3585  -19.9930   26.3700 C   0  0  0  0  0  0  0  0  0  0  0  0
    6.4321  -21.4289   26.3651 N   0  0  0  0  0  0  0  0  0  0  0  0
    8.2902  -15.1958   24.8424 C   0  0  0  0  0  0  0  0  0  0  0  0
    9.3367  -15.8474   25.0838 O   0  0  0  0  0  0  0  0  0  0  0  0
    8.0567  -13.9879   25.5285 N   0  0  0  0  0  0  0  0  0  0  0  0
    7.2676  -12.9278   24.9438 C   0  0  0  0  0  0  0  0  0  0  0  0
    6.6099  -12.2781   26.1201 C   0  0  0  0  0  0  0  0  0  0  0  0
    7.2525  -12.8271   27.3496 C   0  0  0  0  0  0  0  0  0  0  0  0
    8.5105  -13.5574   26.7880 C   0  0  1  0  0  0  0  0  0  0  0  0
    8.9111  -14.5394   27.7871 C   0  0  0  0  0  0  0  0  0  0  0  0
    8.6162  -15.7305   27.7462 O   0  0  0  0  0  0  0  0  0  0  0  0
    9.6837  -14.0798   28.8591 O   0  0  0  0  0  0  0  0  0  0  0  0
  2  1  1  6
  2  3  1  0
  4  5  1  6
  4  2  1  0
  6  4  1  0
  7  6  2  0
  8  6  1  0
  9 10  1  1
  9  8  1  0
 10 11  1  0
 11 12  1  0
 13 14  1  0
 13 12  1  0
 15  9  1  0
 16 15  2  0
 17 15  1  0
 18 17  1  0
 19 20  1  0
 19 18  1  0
 20 21  1  0
 21 17  1  0
 22 24  1  0
 21 22  1  1
 23 22  2  0
M  END
$$$$
