TFP.pdb
     RDKit          3D

 26 27  0  0  1  0  0  0  0  0999 V2000
   26.5155  -18.9157  -16.9330 C   0  0  0  0  0  0  0  0  0  0  0  0
   27.2090  -20.0916  -17.6266 C   0  0  1  0  0  0  0  0  0  0  0  0
   27.7828  -19.6784  -18.8084 O   0  0  0  0  0  0  0  0  0  0  0  0
   28.1990  -20.6499  -16.6350 C   0  0  2  0  0  0  0  0  0  0  0  0
   28.8685  -21.8190  -17.2066 N   0  0  0  0  0  0  0  0  0  0  0  0
   27.6347  -21.0400  -15.3476 C   0  0  0  0  0  0  0  0  0  0  0  0
   26.9558  -22.1173  -15.2093 O   0  0  0  0  0  0  0  0  0  0  0  0
   27.7663  -20.2974  -14.1286 N   0  0  0  0  0  0  0  0  0  0  0  0
   27.0394  -20.6363  -12.9248 C   0  0  1  0  0  0  0  0  0  0  0  0
   27.8486  -20.0130  -11.7989 C   0  0  0  0  0  0  0  0  0  0  0  0
   27.2639  -20.1270  -10.4725 C   0  0  0  0  0  0  0  0  0  0  0  0
   27.5743  -21.1892   -9.6477 C   0  0  0  0  0  0  0  0  0  0  0  0
   26.9989  -21.2214   -8.4004 C   0  0  0  0  0  0  0  0  0  0  0  0
   26.1289  -20.2374   -7.9474 C   0  0  0  0  0  0  0  0  0  0  0  0
   25.8253  -19.1834   -8.7752 C   0  0  0  0  0  0  0  0  0  0  0  0
   26.3975  -19.1459  -10.0230 C   0  0  0  0  0  0  0  0  0  0  0  0
   25.6246  -20.3220  -12.8920 C   0  0  0  0  0  0  0  0  0  0  0  0
   25.3230  -19.1108  -13.2821 O   0  0  0  0  0  0  0  0  0  0  0  0
   24.5084  -21.0704  -12.5192 N   0  0  0  0  0  0  0  0  0  0  0  0
   24.4591  -22.3908  -11.9463 C   0  0  0  0  0  0  0  0  0  0  0  0
   23.5072  -23.0696  -12.9521 C   0  0  0  0  0  0  0  0  0  0  0  0
   22.4648  -21.9744  -13.1280 C   0  0  0  0  0  0  0  0  0  0  0  0
   23.0906  -20.7004  -12.6288 C   0  0  1  0  0  0  0  0  0  0  0  0
   22.5290  -20.3051  -11.3163 C   0  0  0  0  0  0  0  0  0  0  0  0
   21.3537  -19.5557  -11.1789 O   0  0  0  0  0  0  0  0  0  0  0  0
   23.0853  -20.6261  -10.2356 O   0  0  0  0  0  0  0  0  0  0  0  0
  2  1  1  1
  3  2  1  0
  4  6  1  0
  4  2  1  0
  4  5  1  6
  6  8  1  0
  7  6  2  0
  8  9  1  0
  9 10  1  1
 11 16  1  0
 11 10  1  0
 12 11  2  0
 13 14  2  0
 13 12  1  0
 14 15  1  0
 15 16  2  0
 17 18  2  0
 17  9  1  0
 19 17  1  0
 20 21  1  0
 20 19  1  0
 21 22  1  0
 22 23  1  0
 23 19  1  0
 23 24  1  1
 25 24  1  0
 26 24  2  0
M  END
$$$$
