TFP.pdb
     RDKit          3D

 26 27  0  0  1  0  0  0  0  0999 V2000
   22.7699  -21.6364  -12.7752 C   0  0  0  0  0  0  0  0  0  0  0  0
   24.1198  -21.5737  -12.0553 C   0  0  1  0  0  0  0  0  0  0  0  0
   25.1039  -22.1404  -12.8345 O   0  0  0  0  0  0  0  0  0  0  0  0
   24.3649  -20.1212  -11.7311 C   0  0  2  0  0  0  0  0  0  0  0  0
   24.5646  -19.3635  -12.9672 N   0  0  0  0  0  0  0  0  0  0  0  0
   25.5045  -19.8642  -10.8575 C   0  0  0  0  0  0  0  0  0  0  0  0
   26.6151  -19.4183  -11.3140 O   0  0  0  0  0  0  0  0  0  0  0  0
   25.5209  -20.0689   -9.4389 N   0  0  0  0  0  0  0  0  0  0  0  0
   26.7354  -20.0130   -8.6552 C   0  0  1  0  0  0  0  0  0  0  0  0
   26.2627  -19.7763   -7.2299 C   0  0  0  0  0  0  0  0  0  0  0  0
   27.3164  -19.6270   -6.2392 C   0  0  0  0  0  0  0  0  0  0  0  0
   27.7350  -20.7004   -5.4794 C   0  0  0  0  0  0  0  0  0  0  0  0
   28.7486  -20.4897   -4.5761 C   0  0  0  0  0  0  0  0  0  0  0  0
   29.3576  -19.2528   -4.4034 C   0  0  0  0  0  0  0  0  0  0  0  0
   28.9346  -18.1895   -5.1641 C   0  0  0  0  0  0  0  0  0  0  0  0
   27.9218  -18.3943   -6.0686 C   0  0  0  0  0  0  0  0  0  0  0  0
   27.6723  -21.1095   -8.8022 C   0  0  0  0  0  0  0  0  0  0  0  0
   27.1209  -22.2886   -8.9278 O   0  0  0  0  0  0  0  0  0  0  0  0
   29.0660  -21.1512   -8.8349 N   0  0  0  0  0  0  0  0  0  0  0  0
   30.0052  -20.0851   -8.5992 C   0  0  0  0  0  0  0  0  0  0  0  0
   30.8297  -20.1801   -9.8991 C   0  0  0  0  0  0  0  0  0  0  0  0
   30.9813  -21.6898  -10.0203 C   0  0  0  0  0  0  0  0  0  0  0  0
   29.9321  -22.3004   -9.1315 C   0  0  1  0  0  0  0  0  0  0  0  0
   30.5329  -22.8606   -7.8987 C   0  0  0  0  0  0  0  0  0  0  0  0
   31.3431  -24.0032   -7.8907 O   0  0  0  0  0  0  0  0  0  0  0  0
   30.3460  -22.3324   -6.7733 O   0  0  0  0  0  0  0  0  0  0  0  0
  2  1  1  6
  3  2  1  0
  4  6  1  0
  4  2  1  0
  4  5  1  6
  6  8  1  0
  7  6  2  0
  8  9  1  0
  9 10  1  1
 11 16  1  0
 11 10  1  0
 12 11  2  0
 13 14  2  0
 13 12  1  0
 14 15  1  0
 15 16  2  0
 17 18  2  0
 17  9  1  0
 19 17  1  0
 20 21  1  0
 20 19  1  0
 21 22  1  0
 22 23  1  0
 23 19  1  0
 23 24  1  1
 25 24  1  0
 26 24  2  0
M  END
$$$$
