TFP.pdb
     RDKit          3D

 26 27  0  0  1  0  0  0  0  0999 V2000
   27.5807  -19.6022  -12.1871 C   0  0  0  0  0  0  0  0  0  0  0  0
   26.1096  -19.9989  -12.3396 C   0  0  1  0  0  0  0  0  0  0  0  0
   25.7952  -20.1665  -13.6700 O   0  0  0  0  0  0  0  0  0  0  0  0
   25.9133  -21.2425  -11.5092 C   0  0  2  0  0  0  0  0  0  0  0  0
   24.5301  -21.7058  -11.6282 N   0  0  0  0  0  0  0  0  0  0  0  0
   26.2172  -21.0954  -10.0901 C   0  0  0  0  0  0  0  0  0  0  0  0
   25.3965  -20.5370   -9.2805 O   0  0  0  0  0  0  0  0  0  0  0  0
   27.4214  -21.5405   -9.4524 N   0  0  0  0  0  0  0  0  0  0  0  0
   27.7175  -21.2663   -8.0634 C   0  0  1  0  0  0  0  0  0  0  0  0
   28.9545  -22.0971   -7.7628 C   0  0  0  0  0  0  0  0  0  0  0  0
   29.5171  -21.9211   -6.4336 C   0  0  0  0  0  0  0  0  0  0  0  0
   30.5532  -21.0368   -6.2116 C   0  0  0  0  0  0  0  0  0  0  0  0
   31.0218  -20.9084   -4.9264 C   0  0  0  0  0  0  0  0  0  0  0  0
   30.4971  -21.6264   -3.8588 C   0  0  0  0  0  0  0  0  0  0  0  0
   29.4656  -22.5046   -4.0889 C   0  0  0  0  0  0  0  0  0  0  0  0
   28.9932  -22.6371   -5.3715 C   0  0  0  0  0  0  0  0  0  0  0  0
   27.8181  -19.8754   -7.6673 C   0  0  0  0  0  0  0  0  0  0  0  0
   28.2690  -19.0723   -8.5957 O   0  0  0  0  0  0  0  0  0  0  0  0
   27.5246  -19.2194   -6.4721 N   0  0  0  0  0  0  0  0  0  0  0  0
   27.0028  -19.7687   -5.2473 C   0  0  0  0  0  0  0  0  0  0  0  0
   25.7827  -18.8455   -5.0534 C   0  0  0  0  0  0  0  0  0  0  0  0
   26.3963  -17.4987   -5.4090 C   0  0  0  0  0  0  0  0  0  0  0  0
   27.6647  -17.7896   -6.1642 C   0  0  1  0  0  0  0  0  0  0  0  0
   28.8591  -17.5282   -5.3279 C   0  0  0  0  0  0  0  0  0  0  0  0
   29.4179  -16.2543   -5.1648 O   0  0  0  0  0  0  0  0  0  0  0  0
   29.4466  -18.4507   -4.7078 O   0  0  0  0  0  0  0  0  0  0  0  0
  2  1  1  6
  3  2  1  0
  4  6  1  0
  4  2  1  0
  4  5  1  1
  6  8  1  0
  7  6  2  0
  8  9  1  0
  9 10  1  6
 11 16  1  0
 11 10  1  0
 12 11  2  0
 13 14  2  0
 13 12  1  0
 14 15  1  0
 15 16  2  0
 17 18  2  0
 17  9  1  0
 19 17  1  0
 20 21  1  0
 20 19  1  0
 21 22  1  0
 22 23  1  0
 23 19  1  0
 23 24  1  1
 25 24  1  0
 26 24  2  0
M  END
$$$$
