TFP.pdb
     RDKit          3D

 26 27  0  0  1  0  0  0  0  0999 V2000
   25.4302  -18.3310  -12.4992 C   0  0  0  0  0  0  0  0  0  0  0  0
   25.6465  -19.7738  -12.9640 C   0  0  1  0  0  0  0  0  0  0  0  0
   26.8431  -19.8849  -13.6368 O   0  0  0  0  0  0  0  0  0  0  0  0
   25.5621  -20.6381  -11.7308 C   0  0  2  0  0  0  0  0  0  0  0  0
   24.2720  -20.4357  -11.0701 N   0  0  0  0  0  0  0  0  0  0  0  0
   26.6125  -20.4146  -10.7435 C   0  0  0  0  0  0  0  0  0  0  0  0
   27.8531  -20.5107  -11.0475 O   0  0  0  0  0  0  0  0  0  0  0  0
   26.3950  -20.0724   -9.3686 N   0  0  0  0  0  0  0  0  0  0  0  0
   27.4675  -20.0085   -8.4001 C   0  0  1  0  0  0  0  0  0  0  0  0
   26.8598  -19.3005   -7.1999 C   0  0  0  0  0  0  0  0  0  0  0  0
   27.7638  -19.0772   -6.0831 C   0  0  0  0  0  0  0  0  0  0  0  0
   28.5921  -17.9738   -6.0487 C   0  0  0  0  0  0  0  0  0  0  0  0
   29.4060  -17.8175   -4.9528 C   0  0  0  0  0  0  0  0  0  0  0  0
   29.4241  -18.7175   -3.8944 C   0  0  0  0  0  0  0  0  0  0  0  0
   28.5961  -19.8133   -3.9369 C   0  0  0  0  0  0  0  0  0  0  0  0
   27.7804  -19.9747   -5.0298 C   0  0  0  0  0  0  0  0  0  0  0  0
   28.1515  -21.2467   -8.0833 C   0  0  0  0  0  0  0  0  0  0  0  0
   27.4204  -22.3239   -8.2065 O   0  0  0  0  0  0  0  0  0  0  0  0
   29.4549  -21.5152   -7.6660 N   0  0  0  0  0  0  0  0  0  0  0  0
   30.5207  -20.5877   -7.3866 C   0  0  0  0  0  0  0  0  0  0  0  0
   31.6128  -21.1698   -8.3071 C   0  0  0  0  0  0  0  0  0  0  0  0
   31.4344  -22.6578   -8.0403 C   0  0  0  0  0  0  0  0  0  0  0  0
   30.0757  -22.8232   -7.4155 C   0  0  1  0  0  0  0  0  0  0  0  0
   30.1827  -23.1052   -5.9652 C   0  0  0  0  0  0  0  0  0  0  0  0
   30.6307  -24.3293   -5.4525 O   0  0  0  0  0  0  0  0  0  0  0  0
   29.8726  -22.2471   -5.1003 O   0  0  0  0  0  0  0  0  0  0  0  0
  2  1  1  1
  3  2  1  0
  4  6  1  0
  4  2  1  0
  4  5  1  1
  6  8  1  0
  7  6  2  0
  8  9  1  0
  9 10  1  1
 11 16  1  0
 11 10  1  0
 12 11  2  0
 13 14  2  0
 13 12  1  0
 14 15  1  0
 15 16  2  0
 17 18  2  0
 17  9  1  0
 19 17  1  0
 20 21  1  0
 20 19  1  0
 21 22  1  0
 22 23  1  0
 23 19  1  0
 23 24  1  1
 25 24  1  0
 26 24  2  0
M  END
$$$$
