TFP.pdb
     RDKit          3D

 26 27  0  0  1  0  0  0  0  0999 V2000
   27.8264  -18.0093  -19.4435 C   0  0  0  0  0  0  0  0  0  0  0  0
   27.1145  -18.8339  -18.3675 C   0  0  1  0  0  0  0  0  0  0  0  0
   26.1257  -19.6072  -18.9343 O   0  0  0  0  0  0  0  0  0  0  0  0
   28.1825  -19.6347  -17.6654 C   0  0  2  0  0  0  0  0  0  0  0  0
   28.8082  -20.5623  -18.6088 N   0  0  0  0  0  0  0  0  0  0  0  0
   27.7245  -20.4052  -16.5146 C   0  0  0  0  0  0  0  0  0  0  0  0
   27.1348  -21.5340  -16.6521 O   0  0  0  0  0  0  0  0  0  0  0  0
   27.8729  -20.0113  -15.1444 N   0  0  0  0  0  0  0  0  0  0  0  0
   27.0442  -20.5423  -14.0844 C   0  0  1  0  0  0  0  0  0  0  0  0
   27.6969  -20.0499  -12.8028 C   0  0  0  0  0  0  0  0  0  0  0  0
   26.9299  -20.2693  -11.5872 C   0  0  0  0  0  0  0  0  0  0  0  0
   26.0704  -19.3031  -11.1048 C   0  0  0  0  0  0  0  0  0  0  0  0
   25.3638  -19.5872   -9.9613 C   0  0  0  0  0  0  0  0  0  0  0  0
   25.4823  -20.7946   -9.2838 C   0  0  0  0  0  0  0  0  0  0  0  0
   26.3403  -21.7509   -9.7711 C   0  0  0  0  0  0  0  0  0  0  0  0
   27.0493  -21.4724  -10.9138 C   0  0  0  0  0  0  0  0  0  0  0  0
   25.6187  -20.2915  -14.1663 C   0  0  0  0  0  0  0  0  0  0  0  0
   25.2956  -19.0769  -14.5276 O   0  0  0  0  0  0  0  0  0  0  0  0
   24.5106  -21.1049  -13.9303 N   0  0  0  0  0  0  0  0  0  0  0  0
   24.4760  -22.4712  -13.4764 C   0  0  0  0  0  0  0  0  0  0  0  0
   23.6127  -23.0895  -14.5949 C   0  0  0  0  0  0  0  0  0  0  0  0
   22.5428  -22.0169  -14.7427 C   0  0  0  0  0  0  0  0  0  0  0  0
   23.0893  -20.7721  -14.0979 C   0  0  1  0  0  0  0  0  0  0  0  0
   22.4348  -20.5112  -12.7948 C   0  0  0  0  0  0  0  0  0  0  0  0
   21.3494  -19.6392  -12.6422 O   0  0  0  0  0  0  0  0  0  0  0  0
   22.8238  -21.0676  -11.7367 O   0  0  0  0  0  0  0  0  0  0  0  0
  2  1  1  6
  3  2  1  0
  4  6  1  0
  4  2  1  0
  4  5  1  6
  6  8  1  0
  7  6  2  0
  8  9  1  0
  9 10  1  1
 11 16  1  0
 11 10  1  0
 12 11  2  0
 13 14  2  0
 13 12  1  0
 14 15  1  0
 15 16  2  0
 17 18  2  0
 17  9  1  0
 19 17  1  0
 20 21  1  0
 20 19  1  0
 21 22  1  0
 22 23  1  0
 23 19  1  0
 23 24  1  1
 25 24  1  0
 26 24  2  0
M  END
$$$$
