TFP.pdb
     RDKit          3D

 26 27  0  0  1  0  0  0  0  0999 V2000
   24.1803  -22.0240  -11.5741 C   0  0  0  0  0  0  0  0  0  0  0  0
   24.5733  -21.0834  -12.7166 C   0  0  1  0  0  0  0  0  0  0  0  0
   23.5702  -21.0308  -13.6589 O   0  0  0  0  0  0  0  0  0  0  0  0
   24.8823  -19.7489  -12.0853 C   0  0  2  0  0  0  0  0  0  0  0  0
   25.1819  -18.7647  -13.1263 N   0  0  0  0  0  0  0  0  0  0  0  0
   25.9914  -19.7526  -11.1379 C   0  0  0  0  0  0  0  0  0  0  0  0
   27.2100  -19.6944  -11.5283 O   0  0  0  0  0  0  0  0  0  0  0  0
   25.8600  -19.8177   -9.7120 N   0  0  0  0  0  0  0  0  0  0  0  0
   26.9976  -19.9415   -8.8272 C   0  0  1  0  0  0  0  0  0  0  0  0
   26.4561  -19.5838   -7.4525 C   0  0  0  0  0  0  0  0  0  0  0  0
   27.4400  -19.5528   -6.3825 C   0  0  0  0  0  0  0  0  0  0  0  0
   27.7548  -20.6940   -5.6730 C   0  0  0  0  0  0  0  0  0  0  0  0
   28.7079  -20.5940   -4.6884 C   0  0  0  0  0  0  0  0  0  0  0  0
   29.3558  -19.4025   -4.3865 C   0  0  0  0  0  0  0  0  0  0  0  0
   29.0362  -18.2711   -5.0978 C   0  0  0  0  0  0  0  0  0  0  0  0
   28.0843  -18.3652   -6.0832 C   0  0  0  0  0  0  0  0  0  0  0  0
   27.7435  -21.1838   -8.8735 C   0  0  0  0  0  0  0  0  0  0  0  0
   27.0125  -22.2565   -9.0320 O   0  0  0  0  0  0  0  0  0  0  0  0
   29.1072  -21.4602   -8.7795 N   0  0  0  0  0  0  0  0  0  0  0  0
   30.1806  -20.5804   -8.3947 C   0  0  0  0  0  0  0  0  0  0  0  0
   31.1055  -20.7577   -9.6160 C   0  0  0  0  0  0  0  0  0  0  0  0
   31.0177  -22.2645   -9.8125 C   0  0  0  0  0  0  0  0  0  0  0  0
   29.7975  -22.7259   -9.0627 C   0  0  1  0  0  0  0  0  0  0  0  0
   30.1699  -23.4329   -7.8153 C   0  0  0  0  0  0  0  0  0  0  0  0
   30.7592  -24.7035   -7.7999 O   0  0  0  0  0  0  0  0  0  0  0  0
   29.9745  -22.9228   -6.6829 O   0  0  0  0  0  0  0  0  0  0  0  0
  2  1  1  1
  3  2  1  0
  4  6  1  0
  4  2  1  0
  4  5  1  6
  6  8  1  0
  7  6  2  0
  8  9  1  0
  9 10  1  1
 11 16  1  0
 11 10  1  0
 12 11  2  0
 13 14  2  0
 13 12  1  0
 14 15  1  0
 15 16  2  0
 17 18  2  0
 17  9  1  0
 19 17  1  0
 20 21  1  0
 20 19  1  0
 21 22  1  0
 22 23  1  0
 23 19  1  0
 23 24  1  1
 25 24  1  0
 26 24  2  0
M  END
$$$$
