TFP.pdb
     RDKit          3D

 26 27  0  0  1  0  0  0  0  0999 V2000
   25.5926  -20.3799  -19.7471 C   0  0  0  0  0  0  0  0  0  0  0  0
   26.3945  -19.1799  -19.2355 C   0  0  1  0  0  0  0  0  0  0  0  0
   25.5562  -18.2638  -18.6398 O   0  0  0  0  0  0  0  0  0  0  0  0
   27.4463  -19.7326  -18.3065 C   0  0  2  0  0  0  0  0  0  0  0  0
   28.2754  -20.7061  -19.0184 N   0  0  0  0  0  0  0  0  0  0  0  0
   26.9339  -20.3750  -17.1013 C   0  0  0  0  0  0  0  0  0  0  0  0
   26.4396  -21.5565  -17.1268 O   0  0  0  0  0  0  0  0  0  0  0  0
   26.9220  -19.7884  -15.7935 N   0  0  0  0  0  0  0  0  0  0  0  0
   26.2181  -20.3810  -14.6774 C   0  0  1  0  0  0  0  0  0  0  0  0
   26.8933  -19.8007  -13.4452 C   0  0  0  0  0  0  0  0  0  0  0  0
   26.3339  -20.2208  -12.1705 C   0  0  0  0  0  0  0  0  0  0  0  0
   26.9037  -21.2498  -11.4487 C   0  0  0  0  0  0  0  0  0  0  0  0
   26.3327  -21.5800  -10.2434 C   0  0  0  0  0  0  0  0  0  0  0  0
   25.2188  -20.9242   -9.7336 C   0  0  0  0  0  0  0  0  0  0  0  0
   24.6578  -19.9008  -10.4590 C   0  0  0  0  0  0  0  0  0  0  0  0
   25.2244  -19.5664  -11.6644 C   0  0  0  0  0  0  0  0  0  0  0  0
   24.7720  -20.2782  -14.6736 C   0  0  0  0  0  0  0  0  0  0  0  0
   24.3010  -19.1563  -15.1525 O   0  0  0  0  0  0  0  0  0  0  0  0
   23.7730  -21.1551  -14.2516 N   0  0  0  0  0  0  0  0  0  0  0  0
   23.9113  -22.4457  -13.6276 C   0  0  0  0  0  0  0  0  0  0  0  0
   23.0474  -23.2873  -14.5887 C   0  0  0  0  0  0  0  0  0  0  0  0
   21.8635  -22.3513  -14.7872 C   0  0  0  0  0  0  0  0  0  0  0  0
   22.3168  -20.9852  -14.3491 C   0  0  1  0  0  0  0  0  0  0  0  0
   21.7239  -20.6165  -13.0426 C   0  0  0  0  0  0  0  0  0  0  0  0
   20.4772  -19.9911  -12.9147 O   0  0  0  0  0  0  0  0  0  0  0  0
   22.3168  -20.8490  -11.9586 O   0  0  0  0  0  0  0  0  0  0  0  0
  2  1  1  1
  3  2  1  0
  4  6  1  0
  4  2  1  0
  4  5  1  6
  6  8  1  0
  7  6  2  0
  8  9  1  0
  9 10  1  1
 11 16  1  0
 11 10  1  0
 12 11  2  0
 13 14  2  0
 13 12  1  0
 14 15  1  0
 15 16  2  0
 17 18  2  0
 17  9  1  0
 19 17  1  0
 20 21  1  0
 20 19  1  0
 21 22  1  0
 22 23  1  0
 23 19  1  0
 23 24  1  1
 25 24  1  0
 26 24  2  0
M  END
$$$$
