TFP.pdb
     RDKit          3D

 26 27  0  0  1  0  0  0  0  0999 V2000
   18.9546  -20.9773  -17.3941 C   0  0  0  0  0  0  0  0  0  0  0  0
   20.3755  -20.7463  -16.8721 C   0  0  1  0  0  0  0  0  0  0  0  0
   21.1435  -20.1287  -17.8342 O   0  0  0  0  0  0  0  0  0  0  0  0
   20.2396  -19.9472  -15.6001 C   0  0  2  0  0  0  0  0  0  0  0  0
   19.6395  -18.6451  -15.8936 N   0  0  0  0  0  0  0  0  0  0  0  0
   21.4851  -19.7153  -14.8771 C   0  0  0  0  0  0  0  0  0  0  0  0
   22.0971  -18.5914  -14.9344 O   0  0  0  0  0  0  0  0  0  0  0  0
   22.1496  -20.6760  -14.0465 N   0  0  0  0  0  0  0  0  0  0  0  0
   23.4770  -20.4625  -13.5128 C   0  0  1  0  0  0  0  0  0  0  0  0
   23.5112  -21.2774  -12.2299 C   0  0  0  0  0  0  0  0  0  0  0  0
   24.7500  -21.1983  -11.4727 C   0  0  0  0  0  0  0  0  0  0  0  0
   25.9050  -21.7959  -11.9348 C   0  0  0  0  0  0  0  0  0  0  0  0
   27.0427  -21.6637  -11.1760 C   0  0  0  0  0  0  0  0  0  0  0  0
   27.0707  -20.9603   -9.9781 C   0  0  0  0  0  0  0  0  0  0  0  0
   25.9162  -20.3684   -9.5254 C   0  0  0  0  0  0  0  0  0  0  0  0
   24.7759  -20.4972  -10.2798 C   0  0  0  0  0  0  0  0  0  0  0  0
   24.5969  -20.6975  -14.4028 C   0  0  0  0  0  0  0  0  0  0  0  0
   24.4322  -21.6873  -15.2415 O   0  0  0  0  0  0  0  0  0  0  0  0
   25.8324  -20.0651  -14.5390 N   0  0  0  0  0  0  0  0  0  0  0  0
   26.4918  -19.1691  -13.6243 C   0  0  0  0  0  0  0  0  0  0  0  0
   26.7458  -17.9791  -14.5719 C   0  0  0  0  0  0  0  0  0  0  0  0
   27.2101  -18.7150  -15.8209 C   0  0  0  0  0  0  0  0  0  0  0  0
   26.7736  -20.1464  -15.6643 C   0  0  1  0  0  0  0  0  0  0  0  0
   27.9229  -21.0263  -15.3492 C   0  0  0  0  0  0  0  0  0  0  0  0
   28.7993  -21.5222  -16.3228 O   0  0  0  0  0  0  0  0  0  0  0  0
   28.1793  -21.3821  -14.1710 O   0  0  0  0  0  0  0  0  0  0  0  0
  2  1  1  6
  3  2  1  0
  4  6  1  0
  4  2  1  0
  4  5  1  6
  6  8  1  0
  7  6  2  0
  8  9  1  0
  9 10  1  1
 11 16  1  0
 11 10  1  0
 12 11  2  0
 13 14  2  0
 13 12  1  0
 14 15  1  0
 15 16  2  0
 17 18  2  0
 17  9  1  0
 19 17  1  0
 20 21  1  0
 20 19  1  0
 21 22  1  0
 22 23  1  0
 23 19  1  0
 23 24  1  1
 25 24  1  0
 26 24  2  0
M  END
$$$$
