TFP.pdb
     RDKit          3D

 26 27  0  0  1  0  0  0  0  0999 V2000
   26.8448  -16.8178  -19.8948 C   0  0  0  0  0  0  0  0  0  0  0  0
   26.2918  -17.8273  -18.8850 C   0  0  1  0  0  0  0  0  0  0  0  0
   25.5645  -18.8014  -19.5324 O   0  0  0  0  0  0  0  0  0  0  0  0
   27.4776  -18.3630  -18.1221 C   0  0  2  0  0  0  0  0  0  0  0  0
   28.3706  -19.0807  -19.0326 N   0  0  0  0  0  0  0  0  0  0  0  0
   27.1515  -19.2560  -17.0157 C   0  0  0  0  0  0  0  0  0  0  0  0
   26.8129  -20.4756  -17.2128 O   0  0  0  0  0  0  0  0  0  0  0  0
   27.1706  -18.8946  -15.6288 N   0  0  0  0  0  0  0  0  0  0  0  0
   26.5544  -19.7052  -14.6014 C   0  0  1  0  0  0  0  0  0  0  0  0
   27.2527  -19.2924  -13.3157 C   0  0  0  0  0  0  0  0  0  0  0  0
   26.6969  -19.8542  -12.0952 C   0  0  0  0  0  0  0  0  0  0  0  0
   27.1287  -21.0730  -11.6127 C   0  0  0  0  0  0  0  0  0  0  0  0
   26.5726  -21.5328  -10.4435 C   0  0  0  0  0  0  0  0  0  0  0  0
   25.6056  -20.8247   -9.7406 C   0  0  0  0  0  0  0  0  0  0  0  0
   25.1814  -19.6120  -10.2282 C   0  0  0  0  0  0  0  0  0  0  0  0
   25.7338  -19.1474  -11.3965 C   0  0  0  0  0  0  0  0  0  0  0  0
   25.1066  -19.6965  -14.5272 C   0  0  0  0  0  0  0  0  0  0  0  0
   24.5574  -18.5185  -14.6708 O   0  0  0  0  0  0  0  0  0  0  0  0
   24.1740  -20.7143  -14.3285 N   0  0  0  0  0  0  0  0  0  0  0  0
   24.4066  -22.1114  -14.0673 C   0  0  0  0  0  0  0  0  0  0  0  0
   23.5559  -22.7269  -15.1969 C   0  0  0  0  0  0  0  0  0  0  0  0
   22.3154  -21.8482  -15.1184 C   0  0  0  0  0  0  0  0  0  0  0  0
   22.7080  -20.6172  -14.3474 C   0  0  1  0  0  0  0  0  0  0  0  0
   22.1442  -20.6394  -12.9777 C   0  0  0  0  0  0  0  0  0  0  0  0
   21.0382  -19.8720  -12.5906 O   0  0  0  0  0  0  0  0  0  0  0  0
   22.6351  -21.3605  -12.0724 O   0  0  0  0  0  0  0  0  0  0  0  0
  2  1  1  6
  3  2  1  0
  4  6  1  0
  4  2  1  0
  4  5  1  6
  6  8  1  0
  7  6  2  0
  8  9  1  0
  9 10  1  1
 11 16  1  0
 11 10  1  0
 12 11  2  0
 13 14  2  0
 13 12  1  0
 14 15  1  0
 15 16  2  0
 17 18  2  0
 17  9  1  0
 19 17  1  0
 20 21  1  0
 20 19  1  0
 21 22  1  0
 22 23  1  0
 23 19  1  0
 23 24  1  1
 25 24  1  0
 26 24  2  0
M  END
$$$$
