TFP.pdb
     RDKit          3D

 26 27  0  0  1  0  0  0  0  0999 V2000
   24.9366  -22.5397  -11.7301 C   0  0  0  0  0  0  0  0  0  0  0  0
   24.7946  -21.3475  -12.6805 C   0  0  1  0  0  0  0  0  0  0  0  0
   23.7107  -21.5251  -13.5114 O   0  0  0  0  0  0  0  0  0  0  0  0
   24.6977  -20.1176  -11.8127 C   0  0  2  0  0  0  0  0  0  0  0  0
   24.5694  -18.9261  -12.6528 N   0  0  0  0  0  0  0  0  0  0  0  0
   25.8205  -19.9087  -10.9052 C   0  0  0  0  0  0  0  0  0  0  0  0
   26.9894  -19.6133  -11.3378 O   0  0  0  0  0  0  0  0  0  0  0  0
   25.7566  -20.0027   -9.4763 N   0  0  0  0  0  0  0  0  0  0  0  0
   26.9338  -19.9598   -8.6368 C   0  0  1  0  0  0  0  0  0  0  0  0
   26.4019  -19.6655   -7.2435 C   0  0  0  0  0  0  0  0  0  0  0  0
   27.4107  -19.5363   -6.2044 C   0  0  0  0  0  0  0  0  0  0  0  0
   27.8409  -20.6364   -5.4905 C   0  0  0  0  0  0  0  0  0  0  0  0
   28.8106  -20.4422   -4.5367 C   0  0  0  0  0  0  0  0  0  0  0  0
   29.3648  -19.1963   -4.2698 C   0  0  0  0  0  0  0  0  0  0  0  0
   28.9306  -18.1065   -4.9853 C   0  0  0  0  0  0  0  0  0  0  0  0
   27.9615  -18.2946   -5.9400 C   0  0  0  0  0  0  0  0  0  0  0  0
   27.8413  -21.0882   -8.7066 C   0  0  0  0  0  0  0  0  0  0  0  0
   27.2587  -22.2550   -8.8040 O   0  0  0  0  0  0  0  0  0  0  0  0
   29.2333  -21.1718   -8.6886 N   0  0  0  0  0  0  0  0  0  0  0  0
   30.1955  -20.1291   -8.4412 C   0  0  0  0  0  0  0  0  0  0  0  0
   31.0619  -20.2760   -9.7086 C   0  0  0  0  0  0  0  0  0  0  0  0
   31.1719  -21.7918   -9.7937 C   0  0  0  0  0  0  0  0  0  0  0  0
   30.0741  -22.3521   -8.9307 C   0  0  1  0  0  0  0  0  0  0  0  0
   30.6141  -22.9035   -7.6663 C   0  0  0  0  0  0  0  0  0  0  0  0
   30.3294  -22.3581   -6.4079 O   0  0  0  0  0  0  0  0  0  0  0  0
   31.3698  -23.9081   -7.6526 O   0  0  0  0  0  0  0  0  0  0  0  0
  2  1  1  1
  3  2  1  0
  4  6  1  0
  4  2  1  0
  4  5  1  6
  6  8  1  0
  7  6  2  0
  8  9  1  0
  9 10  1  1
 11 16  1  0
 11 10  1  0
 12 11  2  0
 13 14  2  0
 13 12  1  0
 14 15  1  0
 15 16  2  0
 17 18  2  0
 17  9  1  0
 19 17  1  0
 20 21  1  0
 20 19  1  0
 21 22  1  0
 22 23  1  0
 23 19  1  0
 23 24  1  1
 25 24  1  0
 26 24  2  0
M  END
$$$$
