TFP.pdb
     RDKit          3D

 26 27  0  0  1  0  0  0  0  0999 V2000
   18.9009  -18.3975  -23.2044 C   0  0  0  0  0  0  0  0  0  0  0  0
   18.2171  -18.3230  -21.8364 C   0  0  1  0  0  0  0  0  0  0  0  0
   18.1795  -19.5697  -21.2524 O   0  0  0  0  0  0  0  0  0  0  0  0
   18.9793  -17.2998  -21.0320 C   0  0  2  0  0  0  0  0  0  0  0  0
   20.3612  -17.7442  -20.8453 N   0  0  0  0  0  0  0  0  0  0  0  0
   18.4213  -17.0030  -19.7173 C   0  0  0  0  0  0  0  0  0  0  0  0
   18.9221  -17.4968  -18.6467 O   0  0  0  0  0  0  0  0  0  0  0  0
   17.2913  -16.1561  -19.4713 N   0  0  0  0  0  0  0  0  0  0  0  0
   16.8225  -15.8461  -18.1385 C   0  0  1  0  0  0  0  0  0  0  0  0
   16.8349  -14.3276  -18.0700 C   0  0  0  0  0  0  0  0  0  0  0  0
   18.1478  -13.7092  -18.1599 C   0  0  0  0  0  0  0  0  0  0  0  0
   18.6347  -13.2467  -19.3656 C   0  0  0  0  0  0  0  0  0  0  0  0
   19.8754  -12.6564  -19.3717 C   0  0  0  0  0  0  0  0  0  0  0  0
   20.6451  -12.5108  -18.2241 C   0  0  0  0  0  0  0  0  0  0  0  0
   20.1525  -12.9741  -17.0279 C   0  0  0  0  0  0  0  0  0  0  0  0
   18.9130  -13.5651  -17.0158 C   0  0  0  0  0  0  0  0  0  0  0  0
   15.5777  -16.4557  -17.7133 C   0  0  0  0  0  0  0  0  0  0  0  0
   14.6367  -16.4710  -18.6212 O   0  0  0  0  0  0  0  0  0  0  0  0
   15.1839  -17.0354  -16.5075 N   0  0  0  0  0  0  0  0  0  0  0  0
   15.9161  -17.1285  -15.2708 C   0  0  0  0  0  0  0  0  0  0  0  0
   15.8317  -18.6509  -15.0388 C   0  0  0  0  0  0  0  0  0  0  0  0
   14.3766  -18.9059  -15.4059 C   0  0  0  0  0  0  0  0  0  0  0  0
   13.9169  -17.7119  -16.1978 C   0  0  1  0  0  0  0  0  0  0  0  0
   13.0215  -16.8476  -15.3942 C   0  0  0  0  0  0  0  0  0  0  0  0
   11.6876  -17.1723  -15.1167 O   0  0  0  0  0  0  0  0  0  0  0  0
   13.4163  -15.7572  -14.9088 O   0  0  0  0  0  0  0  0  0  0  0  0
  2  1  1  6
  3  2  1  0
  4  6  1  0
  4  2  1  0
  4  5  1  1
  6  8  1  0
  7  6  2  0
  8  9  1  0
  9 10  1  6
 11 16  1  0
 11 10  1  0
 12 11  2  0
 13 14  2  0
 13 12  1  0
 14 15  1  0
 15 16  2  0
 17 18  2  0
 17  9  1  0
 19 17  1  0
 20 21  1  0
 20 19  1  0
 21 22  1  0
 22 23  1  0
 23 19  1  0
 23 24  1  1
 25 24  1  0
 26 24  2  0
M  END
$$$$
