TFP.pdb
     RDKit          3D

 26 27  0  0  1  0  0  0  0  0999 V2000
   24.2564  -19.7202  -13.6468 C   0  0  0  0  0  0  0  0  0  0  0  0
   24.3958  -20.3034  -12.2379 C   0  0  1  0  0  0  0  0  0  0  0  0
   23.5723  -21.3973  -12.0899 O   0  0  0  0  0  0  0  0  0  0  0  0
   25.8589  -20.6161  -12.0469 C   0  0  2  0  0  0  0  0  0  0  0  0
   26.2354  -21.7583  -12.8809 N   0  0  0  0  0  0  0  0  0  0  0  0
   26.2564  -20.9112  -10.6748 C   0  0  0  0  0  0  0  0  0  0  0  0
   26.3401  -22.1141  -10.2424 O   0  0  0  0  0  0  0  0  0  0  0  0
   26.5899  -19.9322   -9.6824 N   0  0  0  0  0  0  0  0  0  0  0  0
   26.8321  -20.2739   -8.2979 C   0  0  1  0  0  0  0  0  0  0  0  0
   27.7942  -19.2069   -7.8012 C   0  0  0  0  0  0  0  0  0  0  0  0
   28.2048  -19.3340   -6.4121 C   0  0  0  0  0  0  0  0  0  0  0  0
   27.6020  -18.5859   -5.4213 C   0  0  0  0  0  0  0  0  0  0  0  0
   28.0282  -18.7724   -4.1285 C   0  0  0  0  0  0  0  0  0  0  0  0
   29.0295  -19.6739   -3.7889 C   0  0  0  0  0  0  0  0  0  0  0  0
   29.6242  -20.4148   -4.7818 C   0  0  0  0  0  0  0  0  0  0  0  0
   29.2022  -20.2325   -6.0758 C   0  0  0  0  0  0  0  0  0  0  0  0
   25.6732  -20.4778   -7.4511 C   0  0  0  0  0  0  0  0  0  0  0  0
   24.6388  -19.7354   -7.7494 O   0  0  0  0  0  0  0  0  0  0  0  0
   25.4450  -21.3226   -6.3651 N   0  0  0  0  0  0  0  0  0  0  0  0
   26.3837  -22.1555   -5.6585 C   0  0  0  0  0  0  0  0  0  0  0  0
   25.6529  -23.5095   -5.7645 C   0  0  0  0  0  0  0  0  0  0  0  0
   24.2237  -23.0756   -5.4709 C   0  0  0  0  0  0  0  0  0  0  0  0
   24.1768  -21.5851   -5.6712 C   0  0  1  0  0  0  0  0  0  0  0  0
   24.1087  -20.8714   -4.3749 C   0  0  0  0  0  0  0  0  0  0  0  0
   22.9317  -20.7534   -3.6247 O   0  0  0  0  0  0  0  0  0  0  0  0
   25.1204  -20.3237   -3.8680 O   0  0  0  0  0  0  0  0  0  0  0  0
  2  1  1  6
  3  2  1  0
  4  6  1  0
  4  2  1  0
  4  5  1  6
  6  8  1  0
  7  6  2  0
  8  9  1  0
  9 10  1  1
 11 16  1  0
 11 10  1  0
 12 11  2  0
 13 14  2  0
 13 12  1  0
 14 15  1  0
 15 16  2  0
 17 18  2  0
 17  9  1  0
 19 17  1  0
 20 21  1  0
 20 19  1  0
 21 22  1  0
 22 23  1  0
 23 19  1  0
 23 24  1  1
 25 24  1  0
 26 24  2  0
M  END
$$$$
