TFP.pdb
     RDKit          3D

 26 27  0  0  1  0  0  0  0  0999 V2000
   28.2485  -17.6445  -18.8618 C   0  0  0  0  0  0  0  0  0  0  0  0
   27.3786  -18.4501  -17.8928 C   0  0  1  0  0  0  0  0  0  0  0  0
   26.3616  -19.0806  -18.5747 O   0  0  0  0  0  0  0  0  0  0  0  0
   28.3048  -19.3985  -17.1733 C   0  0  2  0  0  0  0  0  0  0  0  0
   28.9121  -20.3223  -18.1322 N   0  0  0  0  0  0  0  0  0  0  0  0
   27.6839  -20.1907  -16.1176 C   0  0  0  0  0  0  0  0  0  0  0  0
   27.2663  -21.3832  -16.3284 O   0  0  0  0  0  0  0  0  0  0  0  0
   27.4744  -19.7514  -14.7694 N   0  0  0  0  0  0  0  0  0  0  0  0
   26.6567  -20.4833  -13.8270 C   0  0  1  0  0  0  0  0  0  0  0  0
   27.2581  -20.1648  -12.4677 C   0  0  0  0  0  0  0  0  0  0  0  0
   26.3939  -20.4214  -11.3269 C   0  0  0  0  0  0  0  0  0  0  0  0
   25.0654  -20.7520  -11.5016 C   0  0  0  0  0  0  0  0  0  0  0  0
   24.3135  -20.9996  -10.3786 C   0  0  0  0  0  0  0  0  0  0  0  0
   24.8358  -20.9299   -9.0929 C   0  0  0  0  0  0  0  0  0  0  0  0
   26.1595  -20.6000   -8.9281 C   0  0  0  0  0  0  0  0  0  0  0  0
   26.9158  -20.3514  -10.0471 C   0  0  0  0  0  0  0  0  0  0  0  0
   25.2214  -20.2960  -13.9068 C   0  0  0  0  0  0  0  0  0  0  0  0
   24.8365  -19.0514  -14.0207 O   0  0  0  0  0  0  0  0  0  0  0  0
   24.1575  -21.1976  -13.8842 N   0  0  0  0  0  0  0  0  0  0  0  0
   24.1777  -22.6081  -13.5941 C   0  0  0  0  0  0  0  0  0  0  0  0
   23.4768  -23.1388  -14.8613 C   0  0  0  0  0  0  0  0  0  0  0  0
   22.3516  -22.1232  -15.0003 C   0  0  0  0  0  0  0  0  0  0  0  0
   22.7394  -20.9340  -14.1642 C   0  0  1  0  0  0  0  0  0  0  0  0
   21.9418  -20.8716  -12.9175 C   0  0  0  0  0  0  0  0  0  0  0  0
   20.7642  -20.1229  -12.7965 O   0  0  0  0  0  0  0  0  0  0  0  0
   22.2833  -21.4979  -11.8822 O   0  0  0  0  0  0  0  0  0  0  0  0
  2  1  1  6
  3  2  1  0
  4  6  1  0
  4  2  1  0
  4  5  1  6
  6  8  1  0
  7  6  2  0
  8  9  1  0
  9 10  1  1
 11 16  1  0
 11 10  1  0
 12 11  2  0
 13 14  2  0
 13 12  1  0
 14 15  1  0
 15 16  2  0
 17 18  2  0
 17  9  1  0
 19 17  1  0
 20 21  1  0
 20 19  1  0
 21 22  1  0
 22 23  1  0
 23 19  1  0
 23 24  1  1
 25 24  1  0
 26 24  2  0
M  END
$$$$
