TFP.pdb
     RDKit          3D

 26 27  0  0  1  0  0  0  0  0999 V2000
   24.6931  -40.0946  -11.0625 C   0  0  0  0  0  0  0  0  0  0  0  0
   25.8537  -40.3841  -12.0185 C   0  0  1  0  0  0  0  0  0  0  0  0
   25.5351  -41.4322  -12.8533 O   0  0  0  0  0  0  0  0  0  0  0  0
   26.1401  -39.0947  -12.7468 C   0  0  2  0  0  0  0  0  0  0  0  0
   27.3375  -39.2474  -13.5743 N   0  0  0  0  0  0  0  0  0  0  0  0
   26.3306  -37.9283  -11.8918 C   0  0  0  0  0  0  0  0  0  0  0  0
   27.4523  -37.6877  -11.3220 O   0  0  0  0  0  0  0  0  0  0  0  0
   25.3279  -36.9473  -11.5970 N   0  0  0  0  0  0  0  0  0  0  0  0
   25.5542  -35.8486  -10.6838 C   0  0  1  0  0  0  0  0  0  0  0  0
   24.6780  -34.7238  -11.2111 C   0  0  0  0  0  0  0  0  0  0  0  0
   24.6581  -33.5160  -10.4017 C   0  0  0  0  0  0  0  0  0  0  0  0
   23.5212  -33.1381   -9.7166 C   0  0  0  0  0  0  0  0  0  0  0  0
   23.5812  -31.9951   -8.9565 C   0  0  0  0  0  0  0  0  0  0  0  0
   24.7289  -31.2184   -8.8549 C   0  0  0  0  0  0  0  0  0  0  0  0
   25.8563  -31.6020   -9.5404 C   0  0  0  0  0  0  0  0  0  0  0  0
   25.8021  -32.7436  -10.3018 C   0  0  0  0  0  0  0  0  0  0  0  0
   25.3971  -36.1180   -9.2680 C   0  0  0  0  0  0  0  0  0  0  0  0
   24.4215  -36.9364   -8.9707 O   0  0  0  0  0  0  0  0  0  0  0  0
   26.0933  -35.6667   -8.1470 N   0  0  0  0  0  0  0  0  0  0  0  0
   27.1166  -34.6564   -8.0680 C   0  0  0  0  0  0  0  0  0  0  0  0
   28.2216  -35.4676   -7.3613 C   0  0  0  0  0  0  0  0  0  0  0  0
   27.3985  -36.1965   -6.3086 C   0  0  0  0  0  0  0  0  0  0  0  0
   25.9639  -36.1210   -6.7557 C   0  0  1  0  0  0  0  0  0  0  0  0
   25.1970  -35.1533   -5.9371 C   0  0  0  0  0  0  0  0  0  0  0  0
   24.8920  -35.3630   -4.5862 O   0  0  0  0  0  0  0  0  0  0  0  0
   24.7710  -34.0725   -6.4177 O   0  0  0  0  0  0  0  0  0  0  0  0
  2  1  1  1
  3  2  1  0
  4  6  1  0
  4  2  1  0
  4  5  1  1
  6  8  1  0
  7  6  2  0
  8  9  1  0
  9 10  1  6
 11 16  1  0
 11 10  1  0
 12 11  2  0
 13 14  2  0
 13 12  1  0
 14 15  1  0
 15 16  2  0
 17 18  2  0
 17  9  1  0
 19 17  1  0
 20 21  1  0
 20 19  1  0
 21 22  1  0
 22 23  1  0
 23 19  1  0
 23 24  1  1
 25 24  1  0
 26 24  2  0
M  END
$$$$
