TFP.pdb
     RDKit          3D

 26 27  0  0  1  0  0  0  0  0999 V2000
   20.8640  -10.0282  -22.8661 C   0  0  0  0  0  0  0  0  0  0  0  0
   20.5071   -9.0753  -21.7218 C   0  0  1  0  0  0  0  0  0  0  0  0
   19.2355   -8.5755  -21.8951 O   0  0  0  0  0  0  0  0  0  0  0  0
   20.6820   -9.8568  -20.4437 C   0  0  2  0  0  0  0  0  0  0  0  0
   19.7981  -11.0232  -20.4501 N   0  0  0  0  0  0  0  0  0  0  0  0
   20.4278   -9.1072  -19.2184 C   0  0  0  0  0  0  0  0  0  0  0  0
   19.2897   -9.1428  -18.6316 O   0  0  0  0  0  0  0  0  0  0  0  0
   21.3813   -8.2739  -18.5466 N   0  0  0  0  0  0  0  0  0  0  0  0
   21.0540   -7.5089  -17.3635 C   0  0  1  0  0  0  0  0  0  0  0  0
   22.0535   -7.9735  -16.3166 C   0  0  0  0  0  0  0  0  0  0  0  0
   21.9707   -7.2987  -15.0313 C   0  0  0  0  0  0  0  0  0  0  0  0
   22.5003   -6.0364  -14.8557 C   0  0  0  0  0  0  0  0  0  0  0  0
   22.3683   -5.4523  -13.6191 C   0  0  0  0  0  0  0  0  0  0  0  0
   21.7301   -6.0784  -12.5554 C   0  0  0  0  0  0  0  0  0  0  0  0
   21.2056   -7.3352  -12.7391 C   0  0  0  0  0  0  0  0  0  0  0  0
   21.3346   -7.9239  -13.9730 C   0  0  0  0  0  0  0  0  0  0  0  0
   20.9615   -6.0693  -17.5074 C   0  0  0  0  0  0  0  0  0  0  0  0
   21.8899   -5.5324  -18.2557 O   0  0  0  0  0  0  0  0  0  0  0  0
   20.0632   -5.1337  -16.9948 N   0  0  0  0  0  0  0  0  0  0  0  0
   18.9765   -5.3391  -16.0722 C   0  0  0  0  0  0  0  0  0  0  0  0
   17.8266   -4.7172  -16.8904 C   0  0  0  0  0  0  0  0  0  0  0  0
   18.5126   -3.4681  -17.4254 C   0  0  0  0  0  0  0  0  0  0  0  0
   19.9929   -3.6938  -17.2788 C   0  0  1  0  0  0  0  0  0  0  0  0
   20.5502   -2.8922  -16.1647 C   0  0  0  0  0  0  0  0  0  0  0  0
   21.2157   -1.6743  -16.3535 O   0  0  0  0  0  0  0  0  0  0  0  0
   20.4546   -3.2669  -14.9684 O   0  0  0  0  0  0  0  0  0  0  0  0
  2  1  1  6
  3  2  1  0
  4  6  1  0
  4  2  1  0
  4  5  1  6
  6  8  1  0
  7  6  2  0
  8  9  1  0
  9 10  1  1
 11 16  1  0
 11 10  1  0
 12 11  2  0
 13 14  2  0
 13 12  1  0
 14 15  1  0
 15 16  2  0
 17 18  2  0
 17  9  1  0
 19 17  1  0
 20 21  1  0
 20 19  1  0
 21 22  1  0
 22 23  1  0
 23 19  1  0
 23 24  1  1
 25 24  1  0
 26 24  2  0
M  END
$$$$
