QNS.pdb
     RDKit          3D

 24 23  0  0  1  0  0  0  0  0999 V2000
   16.1489  -12.1021  -14.4494 N   0  0  0  0  0  0  0  0  0  0  0  0
   16.4034  -12.2987  -15.8506 C   0  0  0  0  0  0  0  0  0  0  0  0
   16.1352  -13.4279  -16.3294 O   0  0  0  0  0  0  0  0  0  0  0  0
   16.9515  -11.1854  -16.6254 C   0  0  0  0  0  0  0  0  0  0  0  0
   17.2279   -9.9343  -15.8401 C   0  0  0  0  0  0  0  0  0  0  0  0
   18.6624   -9.5406  -15.8516 C   0  0  2  0  0  0  0  0  0  0  0  0
   19.4339  -10.5944  -15.2108 N   0  0  0  0  0  0  0  0  0  0  0  0
   18.9124   -8.2452  -15.1585 C   0  0  0  0  0  0  0  0  0  0  0  0
   17.9435   -7.6338  -14.6461 O   0  0  0  0  0  0  0  0  0  0  0  0
   20.1361   -7.5973  -11.9256 N   0  0  0  0  0  0  0  0  0  0  0  0
   21.4389   -7.1396  -12.2199 C   0  0  0  0  0  0  0  0  0  0  0  0
   22.3269   -7.3511  -11.3583 O   0  0  0  0  0  0  0  0  0  0  0  0
   21.6609   -6.4555  -13.4997 C   0  0  0  0  0  0  0  0  0  0  0  0
   20.4490   -6.4081  -14.3879 C   0  0  2  0  0  0  0  0  0  0  0  0
   20.1856   -7.6663  -15.0466 N   0  0  0  0  0  0  0  0  0  0  0  0
   20.5293   -5.2832  -15.3675 C   0  0  0  0  0  0  0  0  0  0  0  0
   21.3740   -5.2707  -16.2983 O   0  0  0  0  0  0  0  0  0  0  0  0
   17.9607   -1.8798  -15.1828 O   0  0  0  0  0  0  0  0  0  0  0  0
   18.4265   -2.3393  -16.4118 C   0  0  0  0  0  0  0  0  0  0  0  0
   19.7030   -3.1226  -16.2986 C   0  0  2  0  0  0  0  0  0  0  0  0
   19.6471   -4.1582  -15.2979 N   0  0  0  0  0  0  0  0  0  0  0  0
   20.7954   -2.1562  -16.0056 C   0  0  0  0  0  0  0  0  0  0  0  0
   21.5325   -2.2647  -14.9872 O   0  0  0  0  0  0  0  0  0  0  0  0
   21.0224   -1.1043  -16.8627 O   0  0  0  0  0  0  0  0  0  0  0  0
  1  2  1  0
  2  3  2  0
  4  2  1  0
  4  5  1  0
  6  8  1  0
  6  5  1  0
  6  7  1  1
  8 15  1  0
  9  8  2  0
 11 10  1  0
 12 11  2  0
 14 13  1  6
 13 11  1  0
 15 14  1  0
 16 21  1  0
 16 14  1  0
 17 16  2  0
 19 18  1  0
 20 19  1  1
 20 21  1  0
 22 24  1  0
 22 20  1  0
 23 22  2  0
M  END
$$$$
