QNS.pdb
     RDKit          3D

 24 23  0  0  1  0  0  0  0  0999 V2000
   22.3468   -7.3122  -11.4004 N   0  0  0  0  0  0  0  0  0  0  0  0
   21.3976   -6.4362  -12.0316 C   0  0  0  0  0  0  0  0  0  0  0  0
   21.8316   -5.3454  -12.4768 O   0  0  0  0  0  0  0  0  0  0  0  0
   20.0008   -6.8626  -12.1174 C   0  0  0  0  0  0  0  0  0  0  0  0
   19.7084   -8.2164  -11.5342 C   0  0  0  0  0  0  0  0  0  0  0  0
   18.3521   -8.7215  -11.8779 C   0  0  2  0  0  0  0  0  0  0  0  0
   18.2312   -8.7656  -13.3270 N   0  0  0  0  0  0  0  0  0  0  0  0
   17.2605   -7.8808  -11.3100 C   0  0  0  0  0  0  0  0  0  0  0  0
   16.5977   -7.1445  -12.0805 O   0  0  0  0  0  0  0  0  0  0  0  0
   13.7365   -5.7041   -8.3015 N   0  0  0  0  0  0  0  0  0  0  0  0
   13.8632   -7.0549   -7.9109 C   0  0  0  0  0  0  0  0  0  0  0  0
   12.9689   -7.5195   -7.1625 O   0  0  0  0  0  0  0  0  0  0  0  0
   15.0200   -7.8133   -8.4025 C   0  0  0  0  0  0  0  0  0  0  0  0
   15.8819   -7.0558   -9.3738 C   0  0  2  0  0  0  0  0  0  0  0  0
   16.9303   -7.8679   -9.9464 N   0  0  0  0  0  0  0  0  0  0  0  0
   16.4278   -5.8058   -8.7651 C   0  0  0  0  0  0  0  0  0  0  0  0
   17.5480   -5.7775   -8.1955 O   0  0  0  0  0  0  0  0  0  0  0  0
   18.1060   -1.9584   -9.8037 O   0  0  0  0  0  0  0  0  0  0  0  0
   17.3793   -3.1430   -9.8881 C   0  0  0  0  0  0  0  0  0  0  0  0
   16.4023   -3.3123   -8.7600 C   0  0  2  0  0  0  0  0  0  0  0  0
   15.7031   -4.5719   -8.7983 N   0  0  0  0  0  0  0  0  0  0  0  0
   15.4495   -2.1714   -8.8196 C   0  0  0  0  0  0  0  0  0  0  0  0
   14.5066   -2.1273   -9.6569 O   0  0  0  0  0  0  0  0  0  0  0  0
   15.5871   -1.1223   -7.9403 O   0  0  0  0  0  0  0  0  0  0  0  0
  1  2  1  0
  2  3  2  0
  4  2  1  0
  4  5  1  0
  6  8  1  0
  6  5  1  0
  6  7  1  6
  8 15  1  0
  9  8  2  0
 11 10  1  0
 12 11  2  0
 14 13  1  1
 13 11  1  0
 15 14  1  0
 16 21  1  0
 16 14  1  0
 17 16  2  0
 19 18  1  0
 20 19  1  6
 20 21  1  0
 22 24  1  0
 22 20  1  0
 23 22  2  0
M  END
$$$$
