QNS.pdb
     RDKit          3D

 24 23  0  0  1  0  0  0  0  0999 V2000
   15.5481   -7.9983  -16.5963 N   0  0  0  0  0  0  0  0  0  0  0  0
   15.3055   -9.2104  -17.3304 C   0  0  0  0  0  0  0  0  0  0  0  0
   14.8045   -9.0966  -18.4760 O   0  0  0  0  0  0  0  0  0  0  0  0
   15.6531  -10.4876  -16.7074 C   0  0  0  0  0  0  0  0  0  0  0  0
   16.2190  -10.3889  -15.3187 C   0  0  0  0  0  0  0  0  0  0  0  0
   17.6733  -10.0767  -15.2999 C   0  0  2  0  0  0  0  0  0  0  0  0
   18.4115  -11.3094  -15.5278 N   0  0  0  0  0  0  0  0  0  0  0  0
   18.1157   -9.4582  -14.0182 C   0  0  0  0  0  0  0  0  0  0  0  0
   17.7711   -9.9917  -12.9357 O   0  0  0  0  0  0  0  0  0  0  0  0
   20.4642   -6.6289  -10.4390 N   0  0  0  0  0  0  0  0  0  0  0  0
   21.1607   -6.3592  -11.6372 C   0  0  0  0  0  0  0  0  0  0  0  0
   22.1707   -5.6182  -11.5564 O   0  0  0  0  0  0  0  0  0  0  0  0
   20.6596   -6.9582  -12.8803 C   0  0  0  0  0  0  0  0  0  0  0  0
   19.3568   -7.6921  -12.7256 C   0  0  2  0  0  0  0  0  0  0  0  0
   18.9048   -8.2997  -13.9557 N   0  0  0  0  0  0  0  0  0  0  0  0
   18.3027   -6.8202  -12.1257 C   0  0  0  0  0  0  0  0  0  0  0  0
   17.9007   -5.7745  -12.6956 O   0  0  0  0  0  0  0  0  0  0  0  0
   15.6273   -8.0323   -9.1281 O   0  0  0  0  0  0  0  0  0  0  0  0
   15.4481   -6.8873   -9.8996 C   0  0  0  0  0  0  0  0  0  0  0  0
   16.7430   -6.2245  -10.2735 C   0  0  2  0  0  0  0  0  0  0  0  0
   17.6937   -7.1299  -10.8680 N   0  0  0  0  0  0  0  0  0  0  0  0
   17.2978   -5.6017   -9.0417 C   0  0  0  0  0  0  0  0  0  0  0  0
   18.4448   -5.8900   -8.6018 O   0  0  0  0  0  0  0  0  0  0  0  0
   16.5488   -4.6797   -8.3478 O   0  0  0  0  0  0  0  0  0  0  0  0
  1  2  1  0
  2  3  2  0
  4  2  1  0
  4  5  1  0
  6  8  1  0
  6  5  1  0
  6  7  1  1
  8 15  1  0
  9  8  2  0
 11 10  1  0
 12 11  2  0
 14 13  1  6
 13 11  1  0
 15 14  1  0
 16 21  1  0
 16 14  1  0
 17 16  2  0
 19 18  1  0
 20 19  1  1
 20 21  1  0
 22 24  1  0
 22 20  1  0
 23 22  2  0
M  END
$$$$
