QNS.pdb
     RDKit          3D

 24 23  0  0  1  0  0  0  0  0999 V2000
   15.4449  -11.7926  -13.9421 N   0  0  0  0  0  0  0  0  0  0  0  0
   15.6584  -12.4387  -15.2085 C   0  0  0  0  0  0  0  0  0  0  0  0
   14.7247  -13.1500  -15.6541 O   0  0  0  0  0  0  0  0  0  0  0  0
   16.9338  -12.2308  -15.8942 C   0  0  0  0  0  0  0  0  0  0  0  0
   17.8534  -11.2342  -15.2464 C   0  0  0  0  0  0  0  0  0  0  0  0
   17.9700   -9.9627  -16.0097 C   0  0  2  0  0  0  0  0  0  0  0  0
   18.5187  -10.2632  -17.3231 N   0  0  0  0  0  0  0  0  0  0  0  0
   18.8296   -8.9549  -15.3269 C   0  0  0  0  0  0  0  0  0  0  0  0
   19.3108   -9.2301  -14.2009 O   0  0  0  0  0  0  0  0  0  0  0  0
   21.8620   -6.8979  -13.2190 N   0  0  0  0  0  0  0  0  0  0  0  0
   22.3141   -7.6579  -14.3197 C   0  0  0  0  0  0  0  0  0  0  0  0
   23.3336   -8.3686  -14.1431 O   0  0  0  0  0  0  0  0  0  0  0  0
   21.5676   -7.5643  -15.5803 C   0  0  0  0  0  0  0  0  0  0  0  0
   20.2380   -6.8740  -15.4558 C   0  0  2  0  0  0  0  0  0  0  0  0
   19.1332   -7.7019  -15.8806 N   0  0  0  0  0  0  0  0  0  0  0  0
   20.2356   -5.5552  -16.1571 C   0  0  0  0  0  0  0  0  0  0  0  0
   19.9953   -5.4563  -17.3870 O   0  0  0  0  0  0  0  0  0  0  0  0
   17.5652   -2.1180  -15.6410 O   0  0  0  0  0  0  0  0  0  0  0  0
   18.2726   -3.3117  -15.5261 C   0  0  0  0  0  0  0  0  0  0  0  0
   19.7472   -3.1430  -15.7560 C   0  0  2  0  0  0  0  0  0  0  0  0
   20.5073   -4.3323  -15.4647 N   0  0  0  0  0  0  0  0  0  0  0  0
   20.2020   -2.0009  -14.9183 C   0  0  0  0  0  0  0  0  0  0  0  0
   19.7780   -0.8260  -15.0977 O   0  0  0  0  0  0  0  0  0  0  0  0
   21.1140   -2.2156  -13.9110 O   0  0  0  0  0  0  0  0  0  0  0  0
  1  2  1  0
  2  3  2  0
  4  2  1  0
  4  5  1  0
  6  8  1  0
  6  5  1  0
  6  7  1  6
  8 15  1  0
  9  8  2  0
 11 10  1  0
 12 11  2  0
 14 13  1  6
 13 11  1  0
 15 14  1  0
 16 21  1  0
 16 14  1  0
 17 16  2  0
 19 18  1  0
 20 19  1  1
 20 21  1  0
 22 24  1  0
 22 20  1  0
 23 22  2  0
M  END
$$$$
