QNS.pdb
     RDKit          3D

 24 23  0  0  1  0  0  0  0  0999 V2000
   23.2372  -11.1486  -20.2751 N   0  0  0  0  0  0  0  0  0  0  0  0
   22.8412  -12.4924  -19.9526 C   0  0  0  0  0  0  0  0  0  0  0  0
   23.4332  -13.4240  -20.5510 O   0  0  0  0  0  0  0  0  0  0  0  0
   21.7865  -12.6921  -18.9587 C   0  0  0  0  0  0  0  0  0  0  0  0
   21.1660  -11.4327  -18.4227 C   0  0  0  0  0  0  0  0  0  0  0  0
   20.1356  -11.6855  -17.3800 C   0  0  2  0  0  0  0  0  0  0  0  0
   19.0278  -12.4026  -17.9922 N   0  0  0  0  0  0  0  0  0  0  0  0
   19.6327  -10.4331  -16.7479 C   0  0  0  0  0  0  0  0  0  0  0  0
   18.8129   -9.7217  -17.3781 O   0  0  0  0  0  0  0  0  0  0  0  0
   17.1945   -7.0466  -13.4589 N   0  0  0  0  0  0  0  0  0  0  0  0
   18.2739   -7.8078  -12.9598 C   0  0  0  0  0  0  0  0  0  0  0  0
   18.8368   -7.3872  -11.9197 O   0  0  0  0  0  0  0  0  0  0  0  0
   18.6578   -9.0250  -13.6851 C   0  0  0  0  0  0  0  0  0  0  0  0
   19.5738   -8.7805  -14.8518 C   0  0  2  0  0  0  0  0  0  0  0  0
   20.0303  -10.0018  -15.4734 N   0  0  0  0  0  0  0  0  0  0  0  0
   20.7176   -7.8961  -14.4765 C   0  0  0  0  0  0  0  0  0  0  0  0
   21.8920   -8.3332  -14.3783 O   0  0  0  0  0  0  0  0  0  0  0  0
   23.4356   -4.7256  -15.6415 O   0  0  0  0  0  0  0  0  0  0  0  0
   22.4090   -5.6626  -15.5607 C   0  0  0  0  0  0  0  0  0  0  0  0
   21.6557   -5.5955  -14.2630 C   0  0  2  0  0  0  0  0  0  0  0  0
   20.5364   -6.5018  -14.2084 N   0  0  0  0  0  0  0  0  0  0  0  0
   21.2118   -4.1879  -14.0767 C   0  0  0  0  0  0  0  0  0  0  0  0
   20.1438   -3.7480  -14.5845 O   0  0  0  0  0  0  0  0  0  0  0  0
   21.9793   -3.3249  -13.3292 O   0  0  0  0  0  0  0  0  0  0  0  0
  1  2  1  0
  2  3  2  0
  4  2  1  0
  4  5  1  0
  6  8  1  0
  6  5  1  0
  6  7  1  6
  8 15  1  0
  9  8  2  0
 11 10  1  0
 12 11  2  0
 14 13  1  1
 13 11  1  0
 15 14  1  0
 16 21  1  0
 16 14  1  0
 17 16  2  0
 19 18  1  0
 20 19  1  6
 20 21  1  0
 22 24  1  0
 22 20  1  0
 23 22  2  0
M  END
$$$$
