QNS.pdb
     RDKit          3D

 24 23  0  0  1  0  0  0  0  0999 V2000
   17.0784  -13.5451  -13.9581 N   0  0  0  0  0  0  0  0  0  0  0  0
   16.2978  -13.5230  -15.1652 C   0  0  0  0  0  0  0  0  0  0  0  0
   15.2244  -14.1743  -15.1661 O   0  0  0  0  0  0  0  0  0  0  0  0
   16.7936  -12.7522  -16.3054 C   0  0  0  0  0  0  0  0  0  0  0  0
   18.0727  -12.0016  -16.0625 C   0  0  0  0  0  0  0  0  0  0  0  0
   18.0199  -10.5891  -16.5261 C   0  0  2  0  0  0  0  0  0  0  0  0
   17.7467  -10.5837  -17.9550 N   0  0  0  0  0  0  0  0  0  0  0  0
   19.2815   -9.8436  -16.2549 C   0  0  0  0  0  0  0  0  0  0  0  0
   19.7160   -9.7929  -15.0786 O   0  0  0  0  0  0  0  0  0  0  0  0
   23.5899   -7.0712  -16.6971 N   0  0  0  0  0  0  0  0  0  0  0  0
   23.2017   -7.3262  -18.0304 C   0  0  0  0  0  0  0  0  0  0  0  0
   23.9821   -6.9430  -18.9358 O   0  0  0  0  0  0  0  0  0  0  0  0
   21.9257   -8.0145  -18.2615 C   0  0  0  0  0  0  0  0  0  0  0  0
   21.1966   -8.3933  -17.0026 C   0  0  2  0  0  0  0  0  0  0  0  0
   20.0173   -9.1886  -17.2540 N   0  0  0  0  0  0  0  0  0  0  0  0
   20.8816   -7.1951  -16.1682 C   0  0  0  0  0  0  0  0  0  0  0  0
   19.8885   -6.4619  -16.4051 O   0  0  0  0  0  0  0  0  0  0  0  0
   20.6307   -7.1524  -12.3918 O   0  0  0  0  0  0  0  0  0  0  0  0
   21.3880   -6.0381  -12.7426 C   0  0  0  0  0  0  0  0  0  0  0  0
   21.3114   -5.7155  -14.2075 C   0  0  2  0  0  0  0  0  0  0  0  0
   21.6954   -6.8178  -15.0527 N   0  0  0  0  0  0  0  0  0  0  0  0
   22.1778   -4.5307  -14.4496 C   0  0  0  0  0  0  0  0  0  0  0  0
   23.1490   -4.5625  -15.2545 O   0  0  0  0  0  0  0  0  0  0  0  0
   21.9255   -3.3545  -13.7822 O   0  0  0  0  0  0  0  0  0  0  0  0
  1  2  1  0
  2  3  2  0
  4  2  1  0
  4  5  1  0
  6  8  1  0
  6  5  1  0
  6  7  1  6
  8 15  1  0
  9  8  2  0
 11 10  1  0
 12 11  2  0
 14 13  1  6
 13 11  1  0
 15 14  1  0
 16 21  1  0
 16 14  1  0
 17 16  2  0
 19 18  1  0
 20 19  1  1
 20 21  1  0
 22 24  1  0
 22 20  1  0
 23 22  2  0
M  END
$$$$
