QNS.pdb
     RDKit          3D

 24 23  0  0  1  0  0  0  0  0999 V2000
   12.9492  -11.8448  -16.5765 N   0  0  0  0  0  0  0  0  0  0  0  0
   14.0462  -12.6911  -16.1927 C   0  0  0  0  0  0  0  0  0  0  0  0
   14.0045  -13.8890  -16.5663 O   0  0  0  0  0  0  0  0  0  0  0  0
   15.1322  -12.1134  -15.4009 C   0  0  0  0  0  0  0  0  0  0  0  0
   14.9499  -10.6708  -15.0215 C   0  0  0  0  0  0  0  0  0  0  0  0
   16.2357   -9.9578  -14.7952 C   0  0  2  0  0  0  0  0  0  0  0  0
   17.1382  -10.8509  -14.0850 N   0  0  0  0  0  0  0  0  0  0  0  0
   16.0689   -8.6955  -14.0208 C   0  0  0  0  0  0  0  0  0  0  0  0
   15.2095   -7.8616  -14.3967 O   0  0  0  0  0  0  0  0  0  0  0  0
   16.6224   -4.8833  -10.5822 N   0  0  0  0  0  0  0  0  0  0  0  0
   16.8810   -6.0873   -9.8916 C   0  0  0  0  0  0  0  0  0  0  0  0
   16.9878   -6.0180   -8.6428 O   0  0  0  0  0  0  0  0  0  0  0  0
   17.0053   -7.3228  -10.6747 C   0  0  0  0  0  0  0  0  0  0  0  0
   16.7086   -7.1534  -12.1387 C   0  0  2  0  0  0  0  0  0  0  0  0
   16.8284   -8.3858  -12.8825 N   0  0  0  0  0  0  0  0  0  0  0  0
   17.5338   -6.0655  -12.7443 C   0  0  0  0  0  0  0  0  0  0  0  0
   18.7899   -6.1124  -12.7575 O   0  0  0  0  0  0  0  0  0  0  0  0
   17.7926   -5.0207  -16.1084 O   0  0  0  0  0  0  0  0  0  0  0  0
   17.5545   -3.8151  -15.4541 C   0  0  0  0  0  0  0  0  0  0  0  0
   17.7579   -3.9048  -13.9687 C   0  0  2  0  0  0  0  0  0  0  0  0
   16.9370   -4.9103  -13.3426 N   0  0  0  0  0  0  0  0  0  0  0  0
   17.4811   -2.5591  -13.3982 C   0  0  0  0  0  0  0  0  0  0  0  0
   16.5111   -2.3466  -12.6196 O   0  0  0  0  0  0  0  0  0  0  0  0
   18.2997   -1.5013  -13.7198 O   0  0  0  0  0  0  0  0  0  0  0  0
  1  2  1  0
  2  3  2  0
  4  2  1  0
  4  5  1  0
  6  8  1  0
  6  5  1  0
  6  7  1  1
  8 15  1  0
  9  8  2  0
 11 10  1  0
 12 11  2  0
 14 13  1  1
 13 11  1  0
 15 14  1  0
 16 21  1  0
 16 14  1  0
 17 16  2  0
 19 18  1  0
 20 19  1  6
 20 21  1  0
 22 24  1  0
 22 20  1  0
 23 22  2  0
M  END
$$$$
