QNS.pdb
     RDKit          3D

 24 23  0  0  1  0  0  0  0  0999 V2000
   15.5227  -12.6908  -13.4818 N   0  0  0  0  0  0  0  0  0  0  0  0
   15.8534  -12.7311  -14.8803 C   0  0  0  0  0  0  0  0  0  0  0  0
   15.9813  -13.8635  -15.4070 O   0  0  0  0  0  0  0  0  0  0  0  0
   16.0180  -11.4666  -15.5974 C   0  0  0  0  0  0  0  0  0  0  0  0
   15.8112  -10.2298  -14.7691 C   0  0  0  0  0  0  0  0  0  0  0  0
   16.1891   -8.9790  -15.4801 C   0  0  2  0  0  0  0  0  0  0  0  0
   16.5574   -9.3194  -16.8457 N   0  0  0  0  0  0  0  0  0  0  0  0
   17.3155   -8.2577  -14.8229 C   0  0  0  0  0  0  0  0  0  0  0  0
   17.1890   -7.8936  -13.6285 O   0  0  0  0  0  0  0  0  0  0  0  0
   21.7304   -5.9265  -13.6991 N   0  0  0  0  0  0  0  0  0  0  0  0
   22.0371   -7.1154  -14.3963 C   0  0  0  0  0  0  0  0  0  0  0  0
   23.2433   -7.4608  -14.4337 O   0  0  0  0  0  0  0  0  0  0  0  0
   20.9348   -7.8562  -15.0219 C   0  0  0  0  0  0  0  0  0  0  0  0
   19.5935   -7.1914  -14.8848 C   0  0  2  0  0  0  0  0  0  0  0  0
   18.5223   -7.9607  -15.4741 N   0  0  0  0  0  0  0  0  0  0  0  0
   19.6169   -5.7932  -15.4098 C   0  0  0  0  0  0  0  0  0  0  0  0
   19.9772   -5.5298  -16.5849 O   0  0  0  0  0  0  0  0  0  0  0  0
   16.7465   -3.1929  -15.1091 O   0  0  0  0  0  0  0  0  0  0  0  0
   17.9405   -2.5889  -14.7246 C   0  0  0  0  0  0  0  0  0  0  0  0
   19.1538   -3.3548  -15.1686 C   0  0  2  0  0  0  0  0  0  0  0  0
   19.2296   -4.6775  -14.6011 N   0  0  0  0  0  0  0  0  0  0  0  0
   20.3493   -2.5484  -14.8032 C   0  0  0  0  0  0  0  0  0  0  0  0
   20.4780   -1.3427  -15.1525 O   0  0  0  0  0  0  0  0  0  0  0  0
   21.3562   -3.1207  -14.0609 O   0  0  0  0  0  0  0  0  0  0  0  0
  1  2  1  0
  2  3  2  0
  4  2  1  0
  4  5  1  0
  6  8  1  0
  6  5  1  0
  6  7  1  6
  8 15  1  0
  9  8  2  0
 11 10  1  0
 12 11  2  0
 14 13  1  6
 13 11  1  0
 15 14  1  0
 16 21  1  0
 16 14  1  0
 17 16  2  0
 19 18  1  0
 20 19  1  1
 20 21  1  0
 22 24  1  0
 22 20  1  0
 23 22  2  0
M  END
$$$$
