QNS.pdb
     RDKit          3D

 24 23  0  0  1  0  0  0  0  0999 V2000
   16.8314  -13.0491  -13.6348 N   0  0  0  0  0  0  0  0  0  0  0  0
   15.9523  -12.8969  -14.7621 C   0  0  0  0  0  0  0  0  0  0  0  0
   14.7436  -13.1899  -14.5905 O   0  0  0  0  0  0  0  0  0  0  0  0
   16.5109  -12.4151  -16.0254 C   0  0  0  0  0  0  0  0  0  0  0  0
   17.9635  -12.0328  -15.9780 C   0  0  0  0  0  0  0  0  0  0  0  0
   18.4322  -11.3581  -17.2182 C   0  0  2  0  0  0  0  0  0  0  0  0
   18.5685  -12.3603  -18.2638 N   0  0  0  0  0  0  0  0  0  0  0  0
   19.7287  -10.6465  -17.0350 C   0  0  0  0  0  0  0  0  0  0  0  0
   20.7972  -11.2990  -17.1227 O   0  0  0  0  0  0  0  0  0  0  0  0
   24.0697   -7.7247  -18.6524 N   0  0  0  0  0  0  0  0  0  0  0  0
   23.3175   -8.0677  -17.5079 C   0  0  0  0  0  0  0  0  0  0  0  0
   23.8056   -7.7651  -16.3917 O   0  0  0  0  0  0  0  0  0  0  0  0
   22.0307   -8.7472  -17.7019 C   0  0  0  0  0  0  0  0  0  0  0  0
   21.0645   -8.5670  -16.5644 C   0  0  2  0  0  0  0  0  0  0  0  0
   19.8203   -9.2723  -16.7670 N   0  0  0  0  0  0  0  0  0  0  0  0
   20.8326   -7.1223  -16.2641 C   0  0  0  0  0  0  0  0  0  0  0  0
   20.2492   -6.3595  -17.0752 O   0  0  0  0  0  0  0  0  0  0  0  0
   19.1233   -4.0301  -13.3634 O   0  0  0  0  0  0  0  0  0  0  0  0
   19.5448   -5.2852  -13.7938 C   0  0  0  0  0  0  0  0  0  0  0  0
   20.7823   -5.2281  -14.6430 C   0  0  2  0  0  0  0  0  0  0  0  0
   21.2631   -6.5290  -15.0346 N   0  0  0  0  0  0  0  0  0  0  0  0
   21.8174   -4.4861  -13.8743 C   0  0  0  0  0  0  0  0  0  0  0  0
   22.8763   -5.0387  -13.4676 O   0  0  0  0  0  0  0  0  0  0  0  0
   21.6294   -3.1534  -13.5892 O   0  0  0  0  0  0  0  0  0  0  0  0
  1  2  1  0
  2  3  2  0
  4  2  1  0
  4  5  1  0
  6  8  1  0
  6  5  1  0
  6  7  1  6
  8 15  1  0
  9  8  2  0
 11 10  1  0
 12 11  2  0
 14 13  1  6
 13 11  1  0
 15 14  1  0
 16 21  1  0
 16 14  1  0
 17 16  2  0
 19 18  1  0
 20 19  1  1
 20 21  1  0
 22 24  1  0
 22 20  1  0
 23 22  2  0
M  END
$$$$
