QNS.pdb
     RDKit          3D

 24 23  0  0  1  0  0  0  0  0999 V2000
   17.9988  -12.3037  -15.6740 N   0  0  0  0  0  0  0  0  0  0  0  0
   16.7885  -12.9391  -15.2286 C   0  0  0  0  0  0  0  0  0  0  0  0
   16.5692  -14.1058  -15.6373 O   0  0  0  0  0  0  0  0  0  0  0  0
   15.8966  -12.1984  -14.3364 C   0  0  0  0  0  0  0  0  0  0  0  0
   16.3838  -10.8357  -13.9316 C   0  0  0  0  0  0  0  0  0  0  0  0
   15.4401  -10.1198  -13.0318 C   0  0  2  0  0  0  0  0  0  0  0  0
   14.1798   -9.9401  -13.7360 N   0  0  0  0  0  0  0  0  0  0  0  0
   15.9577   -8.7952  -12.5863 C   0  0  0  0  0  0  0  0  0  0  0  0
   15.7170   -7.7822  -13.2871 O   0  0  0  0  0  0  0  0  0  0  0  0
   18.1389   -4.9027  -10.0917 N   0  0  0  0  0  0  0  0  0  0  0  0
   17.4900   -5.7142   -9.1357 C   0  0  0  0  0  0  0  0  0  0  0  0
   17.4264   -5.2743   -7.9618 O   0  0  0  0  0  0  0  0  0  0  0  0
   16.9409   -7.0020   -9.5776 C   0  0  0  0  0  0  0  0  0  0  0  0
   17.2775   -7.3568  -10.9991 C   0  0  2  0  0  0  0  0  0  0  0  0
   16.7072   -8.6176  -11.4136 N   0  0  0  0  0  0  0  0  0  0  0  0
   18.7508   -7.3159  -11.2416 C   0  0  0  0  0  0  0  0  0  0  0  0
   19.4940   -8.2978  -10.9893 O   0  0  0  0  0  0  0  0  0  0  0  0
   22.0723   -7.3497  -14.0166 O   0  0  0  0  0  0  0  0  0  0  0  0
   20.8083   -7.2869  -13.4363 C   0  0  0  0  0  0  0  0  0  0  0  0
   20.7116   -6.2500  -12.3540 C   0  0  2  0  0  0  0  0  0  0  0  0
   19.3954   -6.1545  -11.7749 N   0  0  0  0  0  0  0  0  0  0  0  0
   21.1310   -4.9498  -12.9427 C   0  0  0  0  0  0  0  0  0  0  0  0
   20.3033   -4.1461  -13.4537 O   0  0  0  0  0  0  0  0  0  0  0  0
   22.4607   -4.5970  -12.9376 O   0  0  0  0  0  0  0  0  0  0  0  0
  1  2  1  0
  2  3  2  0
  4  2  1  0
  4  5  1  0
  6  8  1  0
  6  5  1  0
  6  7  1  6
  8 15  1  0
  9  8  2  0
 11 10  1  0
 12 11  2  0
 14 13  1  1
 13 11  1  0
 15 14  1  0
 16 21  1  0
 16 14  1  0
 17 16  2  0
 19 18  1  0
 20 19  1  6
 20 21  1  0
 22 24  1  0
 22 20  1  0
 23 22  2  0
M  END
$$$$
