QNS.pdb
     RDKit          3D

 24 23  0  0  1  0  0  0  0  0999 V2000
   17.9241  -13.3178  -15.6082 N   0  0  0  0  0  0  0  0  0  0  0  0
   17.7883  -13.1074  -17.0238 C   0  0  0  0  0  0  0  0  0  0  0  0
   17.5456  -14.1149  -17.7327 O   0  0  0  0  0  0  0  0  0  0  0  0
   17.9379  -11.7496  -17.5473 C   0  0  0  0  0  0  0  0  0  0  0  0
   18.1497  -10.6836  -16.5094 C   0  0  0  0  0  0  0  0  0  0  0  0
   19.5706  -10.2613  -16.3852 C   0  0  2  0  0  0  0  0  0  0  0  0
   20.3254  -11.3546  -15.7924 N   0  0  0  0  0  0  0  0  0  0  0  0
   19.7387   -9.0319  -15.5598 C   0  0  0  0  0  0  0  0  0  0  0  0
   19.2940   -9.0229  -14.3862 O   0  0  0  0  0  0  0  0  0  0  0  0
   21.1687   -4.3638  -13.8739 N   0  0  0  0  0  0  0  0  0  0  0  0
   22.2636   -5.2187  -14.1266 C   0  0  0  0  0  0  0  0  0  0  0  0
   23.3796   -4.8673  -13.6718 O   0  0  0  0  0  0  0  0  0  0  0  0
   22.0223   -6.4457  -14.8955 C   0  0  0  0  0  0  0  0  0  0  0  0
   20.5771   -6.6820  -15.2356 C   0  0  2  0  0  0  0  0  0  0  0  0
   20.3738   -7.8720  -16.0287 N   0  0  0  0  0  0  0  0  0  0  0  0
   19.9608   -5.4830  -15.8788 C   0  0  0  0  0  0  0  0  0  0  0  0
   20.2372   -5.1445  -17.0574 O   0  0  0  0  0  0  0  0  0  0  0  0
   16.2131   -4.4287  -15.4434 O   0  0  0  0  0  0  0  0  0  0  0  0
   16.9978   -3.2790  -15.4152 C   0  0  0  0  0  0  0  0  0  0  0  0
   18.4149   -3.5266  -15.8468 C   0  0  2  0  0  0  0  0  0  0  0  0
   19.0212   -4.6548  -15.1860 N   0  0  0  0  0  0  0  0  0  0  0  0
   19.1846   -2.2801  -15.5881 C   0  0  0  0  0  0  0  0  0  0  0  0
   20.2495   -2.2769  -14.9111 O   0  0  0  0  0  0  0  0  0  0  0  0
   18.7344   -1.0836  -16.0964 O   0  0  0  0  0  0  0  0  0  0  0  0
  1  2  1  0
  2  3  2  0
  4  2  1  0
  4  5  1  0
  6  8  1  0
  6  5  1  0
  6  7  1  1
  8 15  1  0
  9  8  2  0
 11 10  1  0
 12 11  2  0
 14 13  1  6
 13 11  1  0
 15 14  1  0
 16 21  1  0
 16 14  1  0
 17 16  2  0
 19 18  1  0
 20 19  1  1
 20 21  1  0
 22 24  1  0
 22 20  1  0
 23 22  2  0
M  END
$$$$
