QNS.pdb
     RDKit          3D

 24 23  0  0  1  0  0  0  0  0999 V2000
   16.1967  -12.8962  -17.7679 N   0  0  0  0  0  0  0  0  0  0  0  0
   17.1289  -13.4546  -16.8267 C   0  0  0  0  0  0  0  0  0  0  0  0
   17.5112  -14.6333  -17.0285 O   0  0  0  0  0  0  0  0  0  0  0  0
   17.5716  -12.6266  -15.7048 C   0  0  0  0  0  0  0  0  0  0  0  0
   16.8920  -11.2913  -15.5880 C   0  0  0  0  0  0  0  0  0  0  0  0
   17.3493  -10.5024  -14.4127 C   0  0  2  0  0  0  0  0  0  0  0  0
   18.1559  -11.3662  -13.5644 N   0  0  0  0  0  0  0  0  0  0  0  0
   16.2205   -9.9364  -13.6212 C   0  0  0  0  0  0  0  0  0  0  0  0
   15.3847   -9.1985  -14.1974 O   0  0  0  0  0  0  0  0  0  0  0  0
   13.1634  -11.3548  -12.6104 N   0  0  0  0  0  0  0  0  0  0  0  0
   13.4094  -11.5567  -11.2348 C   0  0  0  0  0  0  0  0  0  0  0  0
   12.8225  -12.5205  -10.6850 O   0  0  0  0  0  0  0  0  0  0  0  0
   14.3248  -10.6346  -10.5515 C   0  0  0  0  0  0  0  0  0  0  0  0
   14.9702   -9.6258  -11.4601 C   0  0  2  0  0  0  0  0  0  0  0  0
   16.0399  -10.1865  -12.2524 N   0  0  0  0  0  0  0  0  0  0  0  0
   15.4216   -8.4174  -10.7070 C   0  0  0  0  0  0  0  0  0  0  0  0
   16.6105   -8.2786  -10.3231 O   0  0  0  0  0  0  0  0  0  0  0  0
   16.0185   -5.7360   -7.4208 O   0  0  0  0  0  0  0  0  0  0  0  0
   15.5592   -6.7710   -8.2309 C   0  0  0  0  0  0  0  0  0  0  0  0
   14.9408   -6.2835   -9.5098 C   0  0  2  0  0  0  0  0  0  0  0  0
   14.5229   -7.3519  -10.3820 N   0  0  0  0  0  0  0  0  0  0  0  0
   15.9368   -5.4056  -10.1810 C   0  0  0  0  0  0  0  0  0  0  0  0
   16.4930   -5.7290  -11.2665 O   0  0  0  0  0  0  0  0  0  0  0  0
   16.2733   -4.1988   -9.6130 O   0  0  0  0  0  0  0  0  0  0  0  0
  1  2  1  0
  2  3  2  0
  4  2  1  0
  4  5  1  0
  6  8  1  0
  6  5  1  0
  6  7  1  1
  8 15  1  0
  9  8  2  0
 11 10  1  0
 12 11  2  0
 14 13  1  1
 13 11  1  0
 15 14  1  0
 16 21  1  0
 16 14  1  0
 17 16  2  0
 19 18  1  0
 20 19  1  1
 20 21  1  0
 22 24  1  0
 22 20  1  0
 23 22  2  0
M  END
$$$$
