QNS.pdb
     RDKit          3D

 24 23  0  0  1  0  0  0  0  0999 V2000
   28.1483  -20.4262  -15.9781 N   0  0  0  0  0  0  0  0  0  0  0  0
   27.2157  -20.0274  -16.9969 C   0  0  0  0  0  0  0  0  0  0  0  0
   27.6048  -20.0945  -18.1888 O   0  0  0  0  0  0  0  0  0  0  0  0
   25.8858  -19.5740  -16.5898 C   0  0  0  0  0  0  0  0  0  0  0  0
   25.6792  -19.4475  -15.1066 C   0  0  0  0  0  0  0  0  0  0  0  0
   25.1386  -20.6852  -14.4831 C   0  0  2  0  0  0  0  0  0  0  0  0
   25.8200  -21.8301  -15.0672 N   0  0  0  0  0  0  0  0  0  0  0  0
   23.6670  -20.8308  -14.6678 C   0  0  0  0  0  0  0  0  0  0  0  0
   23.2408  -21.5586  -15.5972 O   0  0  0  0  0  0  0  0  0  0  0  0
   18.6038  -20.8747  -14.0680 N   0  0  0  0  0  0  0  0  0  0  0  0
   19.0953  -20.3492  -12.8532 C   0  0  0  0  0  0  0  0  0  0  0  0
   18.2680  -20.1927  -11.9222 O   0  0  0  0  0  0  0  0  0  0  0  0
   20.5247  -20.0263  -12.7653 C   0  0  0  0  0  0  0  0  0  0  0  0
   21.2930  -20.2960  -14.0289 C   0  0  2  0  0  0  0  0  0  0  0  0
   22.7226  -20.1917  -13.8503 N   0  0  0  0  0  0  0  0  0  0  0  0
   20.8176  -19.4375  -15.1551 C   0  0  0  0  0  0  0  0  0  0  0  0
   21.1818  -18.2408  -15.2789 O   0  0  0  0  0  0  0  0  0  0  0  0
   18.8551  -19.1480  -19.5958 O   0  0  0  0  0  0  0  0  0  0  0  0
   19.0417  -19.9154  -18.4493 C   0  0  0  0  0  0  0  0  0  0  0  0
   19.5711  -19.1190  -17.2912 C   0  0  2  0  0  0  0  0  0  0  0  0
   19.9206  -19.9330  -16.1544 N   0  0  0  0  0  0  0  0  0  0  0  0
   18.5351  -18.1145  -16.9294 C   0  0  0  0  0  0  0  0  0  0  0  0
   17.6344  -18.3554  -16.0792 O   0  0  0  0  0  0  0  0  0  0  0  0
   18.5453  -16.8780  -17.5324 O   0  0  0  0  0  0  0  0  0  0  0  0
  1  2  1  0
  2  3  2  0
  4  2  1  0
  4  5  1  0
  6  8  1  0
  6  5  1  0
  6  7  1  6
  8 15  1  0
  9  8  2  0
 11 10  1  0
 12 11  2  0
 14 13  1  1
 13 11  1  0
 15 14  1  0
 16 21  1  0
 16 14  1  0
 17 16  2  0
 19 18  1  0
 20 19  1  6
 20 21  1  0
 22 24  1  0
 22 20  1  0
 23 22  2  0
M  END
$$$$
