QNS.pdb
     RDKit          3D

 24 23  0  0  1  0  0  0  0  0999 V2000
   26.9546  -14.9991  -17.4807 N   0  0  0  0  0  0  0  0  0  0  0  0
   26.0240  -14.3883  -16.5710 C   0  0  0  0  0  0  0  0  0  0  0  0
   25.2794  -13.4881  -17.0307 O   0  0  0  0  0  0  0  0  0  0  0  0
   25.9997  -14.8467  -15.1819 C   0  0  0  0  0  0  0  0  0  0  0  0
   27.0742  -15.8309  -14.8141 C   0  0  0  0  0  0  0  0  0  0  0  0
   26.9149  -17.1494  -15.4842 C   0  0  2  0  0  0  0  0  0  0  0  0
   25.7141  -17.1065  -16.3044 N   0  0  0  0  0  0  0  0  0  0  0  0
   26.8216  -18.2812  -14.5192 C   0  0  0  0  0  0  0  0  0  0  0  0
   27.7020  -18.3970  -13.6322 O   0  0  0  0  0  0  0  0  0  0  0  0
   25.6992  -22.2408  -11.6358 N   0  0  0  0  0  0  0  0  0  0  0  0
   25.7570  -20.9081  -11.1731 C   0  0  0  0  0  0  0  0  0  0  0  0
   25.8344  -20.7371   -9.9320 O   0  0  0  0  0  0  0  0  0  0  0  0
   25.7229  -19.8273  -12.1661 C   0  0  0  0  0  0  0  0  0  0  0  0
   25.6504  -20.3047  -13.5897 C   0  0  2  0  0  0  0  0  0  0  0  0
   25.7923  -19.2342  -14.5491 N   0  0  0  0  0  0  0  0  0  0  0  0
   24.4131  -21.1034  -13.8392 C   0  0  0  0  0  0  0  0  0  0  0  0
   24.4411  -22.3548  -13.9542 O   0  0  0  0  0  0  0  0  0  0  0  0
   20.9645  -21.4341  -11.8941 O   0  0  0  0  0  0  0  0  0  0  0  0
   21.6512  -22.1293  -12.8858 C   0  0  0  0  0  0  0  0  0  0  0  0
   21.9398  -21.2893  -14.0970 C   0  0  2  0  0  0  0  0  0  0  0  0
   23.1279  -20.4851  -13.9606 N   0  0  0  0  0  0  0  0  0  0  0  0
   20.7452  -20.4381  -14.3450 C   0  0  0  0  0  0  0  0  0  0  0  0
   19.5916  -20.9273  -14.4935 O   0  0  0  0  0  0  0  0  0  0  0  0
   20.8857  -19.0716  -14.4176 O   0  0  0  0  0  0  0  0  0  0  0  0
  1  2  1  0
  2  3  2  0
  4  2  1  0
  4  5  1  0
  6  8  1  0
  6  5  1  0
  6  7  1  1
  8 15  1  0
  9  8  2  0
 11 10  1  0
 12 11  2  0
 14 13  1  1
 13 11  1  0
 15 14  1  0
 16 21  1  0
 16 14  1  0
 17 16  2  0
 19 18  1  0
 20 19  1  1
 20 21  1  0
 22 24  1  0
 22 20  1  0
 23 22  2  0
M  END
$$$$
