QNS.pdb
     RDKit          3D

 24 23  0  0  1  0  0  0  0  0999 V2000
   14.6998  -13.0567  -10.0388 N   0  0  0  0  0  0  0  0  0  0  0  0
   14.2011  -12.7944  -11.3614 C   0  0  0  0  0  0  0  0  0  0  0  0
   13.6012  -13.7307  -11.9445 O   0  0  0  0  0  0  0  0  0  0  0  0
   14.4185  -11.4691  -11.9415 C   0  0  0  0  0  0  0  0  0  0  0  0
   15.0931  -10.4774  -11.0360 C   0  0  0  0  0  0  0  0  0  0  0  0
   16.5770  -10.5799  -11.0575 C   0  0  2  0  0  0  0  0  0  0  0  0
   16.9879  -11.5229  -10.0287 N   0  0  0  0  0  0  0  0  0  0  0  0
   17.2508   -9.2697  -10.8333 C   0  0  0  0  0  0  0  0  0  0  0  0
   17.3899   -8.8516   -9.6581 O   0  0  0  0  0  0  0  0  0  0  0  0
   21.4773   -7.7044  -11.5143 N   0  0  0  0  0  0  0  0  0  0  0  0
   20.6196   -7.8220  -12.6296 C   0  0  0  0  0  0  0  0  0  0  0  0
   20.9099   -8.6946  -13.4840 O   0  0  0  0  0  0  0  0  0  0  0  0
   19.4607   -6.9246  -12.7107 C   0  0  0  0  0  0  0  0  0  0  0  0
   18.3999   -7.1983  -11.6812 C   0  0  2  0  0  0  0  0  0  0  0  0
   17.7430   -8.4700  -11.8758 N   0  0  0  0  0  0  0  0  0  0  0  0
   17.4138   -6.0796  -11.5972 C   0  0  0  0  0  0  0  0  0  0  0  0
   16.5629   -5.8738  -12.4992 O   0  0  0  0  0  0  0  0  0  0  0  0
   16.9026   -3.6785   -8.1018 O   0  0  0  0  0  0  0  0  0  0  0  0
   15.8883   -3.8783   -9.0343 C   0  0  0  0  0  0  0  0  0  0  0  0
   16.4084   -4.1237  -10.4218 C   0  0  2  0  0  0  0  0  0  0  0  0
   17.3857   -5.1811  -10.4834 N   0  0  0  0  0  0  0  0  0  0  0  0
   16.9774   -2.8420  -10.9184 C   0  0  0  0  0  0  0  0  0  0  0  0
   18.1685   -2.7488  -11.3242 O   0  0  0  0  0  0  0  0  0  0  0  0
   16.1926   -1.7123  -10.9427 O   0  0  0  0  0  0  0  0  0  0  0  0
  1  2  1  0
  2  3  2  0
  4  2  1  0
  4  5  1  0
  6  8  1  0
  6  5  1  0
  6  7  1  1
  8 15  1  0
  9  8  2  0
 11 10  1  0
 12 11  2  0
 14 13  1  6
 13 11  1  0
 15 14  1  0
 16 21  1  0
 16 14  1  0
 17 16  2  0
 19 18  1  0
 20 19  1  1
 20 21  1  0
 22 24  1  0
 22 20  1  0
 23 22  2  0
M  END
$$$$
