QNS.pdb
     RDKit          3D

 24 23  0  0  1  0  0  0  0  0999 V2000
   13.0824  -11.6484  -17.9280 N   0  0  0  0  0  0  0  0  0  0  0  0
   13.9409  -12.4689  -17.1177 C   0  0  0  0  0  0  0  0  0  0  0  0
   14.1291  -13.6510  -17.4964 O   0  0  0  0  0  0  0  0  0  0  0  0
   14.5371  -11.8850  -15.9161 C   0  0  0  0  0  0  0  0  0  0  0  0
   16.0221  -11.6637  -15.9817 C   0  0  0  0  0  0  0  0  0  0  0  0
   16.5717  -11.0132  -14.7620 C   0  0  2  0  0  0  0  0  0  0  0  0
   15.4827  -10.8087  -13.8193 N   0  0  0  0  0  0  0  0  0  0  0  0
   17.2354   -9.7104  -15.0503 C   0  0  0  0  0  0  0  0  0  0  0  0
   18.2600   -9.6980  -15.7749 O   0  0  0  0  0  0  0  0  0  0  0  0
   15.9443   -3.6717  -15.1989 N   0  0  0  0  0  0  0  0  0  0  0  0
   16.8036   -4.7877  -15.2966 C   0  0  0  0  0  0  0  0  0  0  0  0
   17.9457   -4.5890  -15.7781 O   0  0  0  0  0  0  0  0  0  0  0  0
   16.3059   -6.0886  -14.8328 C   0  0  0  0  0  0  0  0  0  0  0  0
   17.3154   -7.1989  -14.9230 C   0  0  2  0  0  0  0  0  0  0  0  0
   16.7718   -8.4842  -14.5501 N   0  0  0  0  0  0  0  0  0  0  0  0
   18.5521   -6.8815  -14.1479 C   0  0  0  0  0  0  0  0  0  0  0  0
   18.6392   -7.1040  -12.9138 O   0  0  0  0  0  0  0  0  0  0  0  0
   23.0967   -7.2710  -13.6806 O   0  0  0  0  0  0  0  0  0  0  0  0
   21.8740   -7.3783  -14.3377 C   0  0  0  0  0  0  0  0  0  0  0  0
   20.9556   -6.2232  -14.0582 C   0  0  2  0  0  0  0  0  0  0  0  0
   19.7055   -6.3061  -14.7704 N   0  0  0  0  0  0  0  0  0  0  0  0
   21.6873   -4.9762  -14.4085 C   0  0  0  0  0  0  0  0  0  0  0  0
   22.3794   -4.3440  -13.5638 O   0  0  0  0  0  0  0  0  0  0  0  0
   21.6175   -4.4829  -15.6909 O   0  0  0  0  0  0  0  0  0  0  0  0
  1  2  1  0
  2  3  2  0
  4  2  1  0
  4  5  1  0
  6  8  1  0
  6  5  1  0
  6  7  1  1
  8 15  1  0
  9  8  2  0
 11 10  1  0
 12 11  2  0
 14 13  1  1
 13 11  1  0
 15 14  1  0
 16 21  1  0
 16 14  1  0
 17 16  2  0
 19 18  1  0
 20 19  1  6
 20 21  1  0
 22 24  1  0
 22 20  1  0
 23 22  2  0
M  END
$$$$
