QNS.pdb
     RDKit          3D

 24 23  0  0  1  0  0  0  0  0999 V2000
   16.0980  -10.1739  -19.2073 N   0  0  0  0  0  0  0  0  0  0  0  0
   15.9669  -10.5467  -17.8251 C   0  0  0  0  0  0  0  0  0  0  0  0
   14.9408  -10.1512  -17.2191 O   0  0  0  0  0  0  0  0  0  0  0  0
   17.0226  -11.3549  -17.2149 C   0  0  0  0  0  0  0  0  0  0  0  0
   17.5098  -10.8681  -15.8792 C   0  0  0  0  0  0  0  0  0  0  0  0
   18.9615  -10.5436  -15.8682 C   0  0  2  0  0  0  0  0  0  0  0  0
   19.7113  -11.7899  -15.8367 N   0  0  0  0  0  0  0  0  0  0  0  0
   19.3554   -9.6931  -14.7095 C   0  0  0  0  0  0  0  0  0  0  0  0
   19.4665  -10.2231  -13.5773 O   0  0  0  0  0  0  0  0  0  0  0  0
   22.0770   -6.3414  -11.7721 N   0  0  0  0  0  0  0  0  0  0  0  0
   21.7229   -5.7662  -13.0119 C   0  0  0  0  0  0  0  0  0  0  0  0
   21.8217   -4.5188  -13.1120 O   0  0  0  0  0  0  0  0  0  0  0  0
   21.2687   -6.6583  -14.0857 C   0  0  0  0  0  0  0  0  0  0  0  0
   20.0698   -7.4906  -13.7254 C   0  0  2  0  0  0  0  0  0  0  0  0
   19.6114   -8.3178  -14.8173 N   0  0  0  0  0  0  0  0  0  0  0  0
   18.9645   -6.6517  -13.1723 C   0  0  0  0  0  0  0  0  0  0  0  0
   18.2040   -5.9801  -13.9143 O   0  0  0  0  0  0  0  0  0  0  0  0
   18.5201   -5.9084   -9.0463 O   0  0  0  0  0  0  0  0  0  0  0  0
   17.3518   -6.0125   -9.7964 C   0  0  0  0  0  0  0  0  0  0  0  0
   17.5824   -5.8249  -11.2686 C   0  0  2  0  0  0  0  0  0  0  0  0
   18.7126   -6.5681  -11.7658 N   0  0  0  0  0  0  0  0  0  0  0  0
   17.7540   -4.3673  -11.5114 C   0  0  0  0  0  0  0  0  0  0  0  0
   18.7875   -3.8952  -12.0601 O   0  0  0  0  0  0  0  0  0  0  0  0
   16.7629   -3.4921  -11.1314 O   0  0  0  0  0  0  0  0  0  0  0  0
  1  2  1  0
  2  3  2  0
  4  2  1  0
  4  5  1  0
  6  8  1  0
  6  5  1  0
  6  7  1  1
  8 15  1  0
  9  8  2  0
 11 10  1  0
 12 11  2  0
 14 13  1  6
 13 11  1  0
 15 14  1  0
 16 21  1  0
 16 14  1  0
 17 16  2  0
 19 18  1  0
 20 19  1  1
 20 21  1  0
 22 24  1  0
 22 20  1  0
 23 22  2  0
M  END
$$$$
