QNS.pdb
     RDKit          3D

 24 23  0  0  1  0  0  0  0  0999 V2000
   17.4126  -13.1016  -14.0225 N   0  0  0  0  0  0  0  0  0  0  0  0
   16.7708  -13.0937  -15.3089 C   0  0  0  0  0  0  0  0  0  0  0  0
   16.3841  -14.1982  -15.7636 O   0  0  0  0  0  0  0  0  0  0  0  0
   16.6078  -11.8159  -16.0021 C   0  0  0  0  0  0  0  0  0  0  0  0
   17.1351  -10.6167  -15.2656 C   0  0  0  0  0  0  0  0  0  0  0  0
   16.0794   -9.8705  -14.5297 C   0  0  2  0  0  0  0  0  0  0  0  0
   15.0324   -9.5059  -15.4717 N   0  0  0  0  0  0  0  0  0  0  0  0
   16.5979   -8.6450  -13.8588 C   0  0  0  0  0  0  0  0  0  0  0  0
   16.5505   -7.5509  -14.4718 O   0  0  0  0  0  0  0  0  0  0  0  0
   17.2476   -5.1706   -9.5438 N   0  0  0  0  0  0  0  0  0  0  0  0
   18.0251   -6.3359   -9.7200 C   0  0  0  0  0  0  0  0  0  0  0  0
   19.1911   -6.3204   -9.2554 O   0  0  0  0  0  0  0  0  0  0  0  0
   17.4211   -7.4720  -10.4268 C   0  0  0  0  0  0  0  0  0  0  0  0
   17.6774   -7.4789  -11.9081 C   0  0  2  0  0  0  0  0  0  0  0  0
   17.1420   -8.6485  -12.5655 N   0  0  0  0  0  0  0  0  0  0  0  0
   19.1271   -7.2929  -12.2160 C   0  0  0  0  0  0  0  0  0  0  0  0
   19.8923   -8.2672  -12.4289 O   0  0  0  0  0  0  0  0  0  0  0  0
   22.1637   -6.1278  -15.0495 O   0  0  0  0  0  0  0  0  0  0  0  0
   20.9685   -6.3539  -14.3723 C   0  0  0  0  0  0  0  0  0  0  0  0
   20.9714   -5.7972  -12.9773 C   0  0  2  0  0  0  0  0  0  0  0  0
   19.7227   -5.9932  -12.2849 N   0  0  0  0  0  0  0  0  0  0  0  0
   21.3061   -4.3510  -13.0745 C   0  0  0  0  0  0  0  0  0  0  0  0
   22.4884   -3.9262  -12.9565 O   0  0  0  0  0  0  0  0  0  0  0  0
   20.3058   -3.4339  -13.3000 O   0  0  0  0  0  0  0  0  0  0  0  0
  1  2  1  0
  2  3  2  0
  4  2  1  0
  4  5  1  0
  6  8  1  0
  6  5  1  0
  6  7  1  6
  8 15  1  0
  9  8  2  0
 11 10  1  0
 12 11  2  0
 14 13  1  1
 13 11  1  0
 15 14  1  0
 16 21  1  0
 16 14  1  0
 17 16  2  0
 19 18  1  0
 20 19  1  6
 20 21  1  0
 22 24  1  0
 22 20  1  0
 23 22  2  0
M  END
$$$$
