EGF.pdb
     RDKit          3D

 25 25  0  0  1  0  0  0  0  0999 V2000
    5.7602  -15.4861   20.5736 N   0  0  0  0  0  0  0  0  0  0  0  0
    7.0914  -15.9972   20.5535 C   0  0  1  0  0  0  0  0  0  0  0  0
    7.8429  -15.5651   19.3235 C   0  0  0  0  0  0  0  0  0  0  0  0
    7.2856  -14.3139   18.7203 C   0  0  0  0  0  0  0  0  0  0  0  0
    8.0324  -13.9749   17.5083 C   0  0  0  0  0  0  0  0  0  0  0  0
    8.9041  -14.7618   17.0662 O   0  0  0  0  0  0  0  0  0  0  0  0
    7.8453  -15.6869   21.8015 C   0  0  0  0  0  0  0  0  0  0  0  0
    7.3670  -14.8695   22.6188 O   0  0  0  0  0  0  0  0  0  0  0  0
    7.8180  -12.7839   16.7966 O   0  0  0  0  0  0  0  0  0  0  0  0
    9.0947  -16.2831   22.1083 N   0  0  0  0  0  0  0  0  0  0  0  0
   10.1871  -15.6082   22.7300 C   0  0  0  0  0  0  0  0  0  0  0  0
   10.1530  -15.6941   24.2166 C   0  0  0  0  0  0  0  0  0  0  0  0
   11.1640  -15.3072   24.8490 O   0  0  0  0  0  0  0  0  0  0  0  0
    9.0309  -16.1919   24.9284 N   0  0  0  0  0  0  0  0  0  0  0  0
    9.0292  -16.3670   26.3817 C   0  0  1  0  0  0  0  0  0  0  0  0
    7.7474  -15.9397   26.9912 C   0  0  0  0  0  0  0  0  0  0  0  0
    7.5925  -14.4794   26.9272 C   0  0  0  0  0  0  0  0  0  0  0  0
    6.4129  -13.9386   26.4024 C   0  0  0  0  0  0  0  0  0  0  0  0
    6.1977  -12.5781   26.3421 C   0  0  0  0  0  0  0  0  0  0  0  0
    7.1698  -11.6911   26.8119 C   0  0  0  0  0  0  0  0  0  0  0  0
    8.3250  -12.2073   27.3263 C   0  0  0  0  0  0  0  0  0  0  0  0
    8.5125  -13.5534   27.3744 C   0  0  0  0  0  0  0  0  0  0  0  0
    9.3890  -17.7260   26.7685 C   0  0  0  0  0  0  0  0  0  0  0  0
    9.3364  -18.6765   25.9579 O   0  0  0  0  0  0  0  0  0  0  0  0
    9.8151  -18.0675   28.0591 O   0  0  0  0  0  0  0  0  0  0  0  0
  2  1  1  1
  2  3  1  0
  2  7  1  0
  3  4  1  0
  4  5  1  0
  5  6  2  0
  5  9  1  0
  7 10  1  0
  7  8  2  0
 10 11  1  0
 11 12  1  0
 12 14  1  0
 13 12  2  0
 14 15  1  0
 15 23  1  0
 16 17  1  0
 15 16  1  6
 17 22  2  0
 18 19  2  0
 18 17  1  0
 19 20  1  0
 20 21  2  0
 22 21  1  0
 23 24  2  0
 23 25  1  0
M  END
$$$$
