EGF.pdb
     RDKit          3D

 25 25  0  0  1  0  0  0  0  0999 V2000
    9.5355  -14.2518   19.3424 N   0  0  0  0  0  0  0  0  0  0  0  0
    8.4923  -13.6030   20.0668 C   0  0  1  0  0  0  0  0  0  0  0  0
    7.3625  -13.1775   19.1686 C   0  0  0  0  0  0  0  0  0  0  0  0
    7.8348  -12.7555   17.8126 C   0  0  0  0  0  0  0  0  0  0  0  0
    8.1663  -13.9370   17.0154 C   0  0  0  0  0  0  0  0  0  0  0  0
    7.6225  -15.0392   17.2686 O   0  0  0  0  0  0  0  0  0  0  0  0
    8.0080  -14.4090   21.2233 C   0  0  0  0  0  0  0  0  0  0  0  0
    7.1632  -13.9155   22.0029 O   0  0  0  0  0  0  0  0  0  0  0  0
    9.0851  -13.8997   15.9545 O   0  0  0  0  0  0  0  0  0  0  0  0
    8.4665  -15.7253   21.4835 N   0  0  0  0  0  0  0  0  0  0  0  0
    8.0846  -16.5116   22.6109 C   0  0  0  0  0  0  0  0  0  0  0  0
    8.8179  -16.1409   23.8532 C   0  0  0  0  0  0  0  0  0  0  0  0
    9.9487  -15.6136   23.7307 O   0  0  0  0  0  0  0  0  0  0  0  0
    8.2859  -16.3619   25.1501 N   0  0  0  0  0  0  0  0  0  0  0  0
    8.9948  -15.9795   26.3724 C   0  0  1  0  0  0  0  0  0  0  0  0
    8.1032  -15.3000   27.3421 C   0  0  0  0  0  0  0  0  0  0  0  0
    7.5990  -14.0313   26.7975 C   0  0  0  0  0  0  0  0  0  0  0  0
    6.2627  -13.9443   26.3901 C   0  0  0  0  0  0  0  0  0  0  0  0
    5.7247  -12.7742   25.8978 C   0  0  0  0  0  0  0  0  0  0  0  0
    6.5153  -11.6269   25.7920 C   0  0  0  0  0  0  0  0  0  0  0  0
    7.8208  -11.6998   26.1866 C   0  0  0  0  0  0  0  0  0  0  0  0
    8.3271  -12.8663   26.6688 C   0  0  0  0  0  0  0  0  0  0  0  0
    9.6932  -17.1089   26.9746 C   0  0  0  0  0  0  0  0  0  0  0  0
   10.4065  -16.9744   27.9927 O   0  0  0  0  0  0  0  0  0  0  0  0
    9.6205  -18.4131   26.4672 O   0  0  0  0  0  0  0  0  0  0  0  0
  2  1  1  6
  2  3  1  0
  2  7  1  0
  3  4  1  0
  4  5  1  0
  5  6  2  0
  5  9  1  0
  7 10  1  0
  7  8  2  0
 10 11  1  0
 11 12  1  0
 12 14  1  0
 13 12  2  0
 14 15  1  0
 15 23  1  0
 16 17  1  0
 15 16  1  1
 17 22  2  0
 18 19  2  0
 18 17  1  0
 19 20  1  0
 20 21  2  0
 22 21  1  0
 23 24  2  0
 23 25  1  0
M  END
$$$$
