EGF.pdb
     RDKit          3D

 25 25  0  0  1  0  0  0  0  0999 V2000
   10.2724  -16.0584   19.5153 N   0  0  0  0  0  0  0  0  0  0  0  0
    9.1363  -15.2725   19.8694 C   0  0  1  0  0  0  0  0  0  0  0  0
    8.0511  -15.3496   18.8297 C   0  0  0  0  0  0  0  0  0  0  0  0
    8.5940  -15.4024   17.4361 C   0  0  0  0  0  0  0  0  0  0  0  0
    7.4894  -15.4412   16.4770 C   0  0  0  0  0  0  0  0  0  0  0  0
    7.2771  -14.4612   15.7226 O   0  0  0  0  0  0  0  0  0  0  0  0
    8.6217  -15.5871   21.2325 C   0  0  0  0  0  0  0  0  0  0  0  0
    7.6540  -14.9375   21.6870 O   0  0  0  0  0  0  0  0  0  0  0  0
    6.6331  -16.5470   16.3545 O   0  0  0  0  0  0  0  0  0  0  0  0
    9.1856  -16.6012   22.0475 N   0  0  0  0  0  0  0  0  0  0  0  0
    8.6636  -17.0147   23.3091 C   0  0  0  0  0  0  0  0  0  0  0  0
    9.3789  -16.4020   24.4630 C   0  0  0  0  0  0  0  0  0  0  0  0
   10.5495  -15.9937   24.2767 O   0  0  0  0  0  0  0  0  0  0  0  0
    8.7872  -16.2680   25.7458 N   0  0  0  0  0  0  0  0  0  0  0  0
    9.4892  -15.6707   26.8831 C   0  0  1  0  0  0  0  0  0  0  0  0
    8.5879  -14.8433   27.7198 C   0  0  0  0  0  0  0  0  0  0  0  0
    7.9553  -13.7813   26.9247 C   0  0  0  0  0  0  0  0  0  0  0  0
    6.6404  -13.9529   26.4763 C   0  0  0  0  0  0  0  0  0  0  0  0
    5.9843  -12.9812   25.7509 C   0  0  0  0  0  0  0  0  0  0  0  0
    6.6281  -11.7805   25.4407 C   0  0  0  0  0  0  0  0  0  0  0  0
    7.9113  -11.6018   25.8730 C   0  0  0  0  0  0  0  0  0  0  0  0
    8.5362  -12.5760   26.5870 C   0  0  0  0  0  0  0  0  0  0  0  0
   10.1992  -16.6700   27.6725 C   0  0  0  0  0  0  0  0  0  0  0  0
   10.0198  -17.8951   27.4984 O   0  0  0  0  0  0  0  0  0  0  0  0
   11.1238  -16.3403   28.6727 O   0  0  0  0  0  0  0  0  0  0  0  0
  2  1  1  6
  2  3  1  0
  2  7  1  0
  3  4  1  0
  4  5  1  0
  5  6  2  0
  5  9  1  0
  7 10  1  0
  7  8  2  0
 10 11  1  0
 11 12  1  0
 12 14  1  0
 13 12  2  0
 14 15  1  0
 15 23  1  0
 16 17  1  0
 15 16  1  1
 17 22  2  0
 18 19  2  0
 18 17  1  0
 19 20  1  0
 20 21  2  0
 22 21  1  0
 23 24  2  0
 23 25  1  0
M  END
$$$$
