EGF.pdb
     RDKit          3D

 25 25  0  0  1  0  0  0  0  0999 V2000
    9.4683  -16.6496   18.3163 N   0  0  0  0  0  0  0  0  0  0  0  0
    8.0440  -16.7005   18.2667 C   0  0  1  0  0  0  0  0  0  0  0  0
    7.5497  -17.8312   17.4056 C   0  0  0  0  0  0  0  0  0  0  0  0
    8.4390  -18.0882   16.2296 C   0  0  0  0  0  0  0  0  0  0  0  0
    7.9205  -19.2169   15.4558 C   0  0  0  0  0  0  0  0  0  0  0  0
    6.9066  -19.0697   14.7314 O   0  0  0  0  0  0  0  0  0  0  0  0
    7.4219  -16.7221   19.6212 C   0  0  0  0  0  0  0  0  0  0  0  0
    6.1807  -16.8404   19.7234 O   0  0  0  0  0  0  0  0  0  0  0  0
    8.5147  -20.4887   15.4831 O   0  0  0  0  0  0  0  0  0  0  0  0
    8.1818  -16.6134   20.8134 N   0  0  0  0  0  0  0  0  0  0  0  0
    7.6571  -16.7767   22.1300 C   0  0  0  0  0  0  0  0  0  0  0  0
    8.6930  -16.6322   23.1905 C   0  0  0  0  0  0  0  0  0  0  0  0
    9.8003  -17.1909   23.0076 O   0  0  0  0  0  0  0  0  0  0  0  0
    8.4700  -15.8943   24.3818 N   0  0  0  0  0  0  0  0  0  0  0  0
    9.4996  -15.7158   25.4070 C   0  0  1  0  0  0  0  0  0  0  0  0
    9.7719  -14.2841   25.6773 C   0  0  0  0  0  0  0  0  0  0  0  0
    8.5408  -13.5732   26.0509 C   0  0  0  0  0  0  0  0  0  0  0  0
    8.3431  -13.2017   27.3859 C   0  0  0  0  0  0  0  0  0  0  0  0
    7.2224  -12.5090   27.7922 C   0  0  0  0  0  0  0  0  0  0  0  0
    6.2399  -12.1550   26.8639 C   0  0  0  0  0  0  0  0  0  0  0  0
    6.4220  -12.5120   25.5583 C   0  0  0  0  0  0  0  0  0  0  0  0
    7.5365  -13.1952   25.1834 C   0  0  0  0  0  0  0  0  0  0  0  0
    9.1880  -16.4500   26.6275 C   0  0  0  0  0  0  0  0  0  0  0  0
    8.0720  -16.9845   26.8072 O   0  0  0  0  0  0  0  0  0  0  0  0
   10.1011  -16.6115   27.6783 O   0  0  0  0  0  0  0  0  0  0  0  0
  2  1  1  1
  2  3  1  0
  2  7  1  0
  3  4  1  0
  4  5  1  0
  5  6  2  0
  5  9  1  0
  7 10  1  0
  7  8  2  0
 10 11  1  0
 11 12  1  0
 12 14  1  0
 13 12  2  0
 14 15  1  0
 15 23  1  0
 16 17  1  0
 15 16  1  1
 17 22  2  0
 18 19  2  0
 18 17  1  0
 19 20  1  0
 20 21  2  0
 22 21  1  0
 23 24  2  0
 23 25  1  0
M  END
$$$$
