EGF.pdb
     RDKit          3D

 25 25  0  0  1  0  0  0  0  0999 V2000
    8.6320  -18.3689   20.1467 N   0  0  0  0  0  0  0  0  0  0  0  0
    7.6169  -17.4274   19.8046 C   0  0  1  0  0  0  0  0  0  0  0  0
    6.2979  -18.0964   19.5268 C   0  0  0  0  0  0  0  0  0  0  0  0
    6.4564  -19.4086   18.8248 C   0  0  0  0  0  0  0  0  0  0  0  0
    5.1392  -19.9854   18.5530 C   0  0  0  0  0  0  0  0  0  0  0  0
    4.1016  -19.3880   18.9284 O   0  0  0  0  0  0  0  0  0  0  0  0
    7.4837  -16.3348   20.8099 C   0  0  0  0  0  0  0  0  0  0  0  0
    6.5575  -16.3843   21.6493 O   0  0  0  0  0  0  0  0  0  0  0  0
    4.9728  -21.2042   17.8763 O   0  0  0  0  0  0  0  0  0  0  0  0
    8.3695  -15.2286   20.8588 N   0  0  0  0  0  0  0  0  0  0  0  0
    8.3246  -14.1935   21.8394 C   0  0  0  0  0  0  0  0  0  0  0  0
    8.7440  -14.6556   23.1919 C   0  0  0  0  0  0  0  0  0  0  0  0
    9.9248  -14.4303   23.5477 O   0  0  0  0  0  0  0  0  0  0  0  0
    7.8638  -15.3316   24.0761 N   0  0  0  0  0  0  0  0  0  0  0  0
    8.2636  -15.7592   25.4178 C   0  0  1  0  0  0  0  0  0  0  0  0
    7.2124  -15.4823   26.4254 C   0  0  0  0  0  0  0  0  0  0  0  0
    6.9872  -14.0371   26.5709 C   0  0  0  0  0  0  0  0  0  0  0  0
    7.9388  -13.2603   27.2420 C   0  0  0  0  0  0  0  0  0  0  0  0
    7.7972  -11.8964   27.3859 C   0  0  0  0  0  0  0  0  0  0  0  0
    6.6801  -11.2458   26.8556 C   0  0  0  0  0  0  0  0  0  0  0  0
    5.7449  -11.9936   26.1986 C   0  0  0  0  0  0  0  0  0  0  0  0
    5.9083  -13.3376   26.0704 C   0  0  0  0  0  0  0  0  0  0  0  0
    8.6870  -17.1542   25.4429 C   0  0  0  0  0  0  0  0  0  0  0  0
    9.1240  -17.6906   26.4843 O   0  0  0  0  0  0  0  0  0  0  0  0
    8.6377  -17.9898   24.3189 O   0  0  0  0  0  0  0  0  0  0  0  0
  2  1  1  1
  2  3  1  0
  2  7  1  0
  3  4  1  0
  4  5  1  0
  5  6  2  0
  5  9  1  0
  7 10  1  0
  7  8  2  0
 10 11  1  0
 11 12  1  0
 12 14  1  0
 13 12  2  0
 14 15  1  0
 15 23  1  0
 16 17  1  0
 15 16  1  1
 17 22  2  0
 18 19  2  0
 18 17  1  0
 19 20  1  0
 20 21  2  0
 22 21  1  0
 23 24  2  0
 23 25  1  0
M  END
$$$$
