EGF.pdb
     RDKit          3D

 25 25  0  0  1  0  0  0  0  0999 V2000
    6.7819  -16.3752   20.2180 N   0  0  0  0  0  0  0  0  0  0  0  0
    7.9513  -17.1914   20.2101 C   0  0  1  0  0  0  0  0  0  0  0  0
    8.4142  -17.4999   18.8119 C   0  0  0  0  0  0  0  0  0  0  0  0
    7.3458  -17.2694   17.7896 C   0  0  0  0  0  0  0  0  0  0  0  0
    7.8407  -17.6453   16.4647 C   0  0  0  0  0  0  0  0  0  0  0  0
    7.6058  -18.7898   16.0072 O   0  0  0  0  0  0  0  0  0  0  0  0
    9.0499  -16.6300   21.0467 C   0  0  0  0  0  0  0  0  0  0  0  0
   10.1097  -17.2806   21.1831 O   0  0  0  0  0  0  0  0  0  0  0  0
    8.5841  -16.7685   15.6586 O   0  0  0  0  0  0  0  0  0  0  0  0
    8.9475  -15.3771   21.7029 N   0  0  0  0  0  0  0  0  0  0  0  0
    9.9487  -14.8199   22.5528 C   0  0  0  0  0  0  0  0  0  0  0  0
    9.7822  -15.2106   23.9805 C   0  0  0  0  0  0  0  0  0  0  0  0
   10.6741  -14.8638   24.7904 O   0  0  0  0  0  0  0  0  0  0  0  0
    8.6644  -15.9508   24.4455 N   0  0  0  0  0  0  0  0  0  0  0  0
    8.4653  -16.2809   25.8577 C   0  0  1  0  0  0  0  0  0  0  0  0
    7.1622  -15.7891   26.3647 C   0  0  0  0  0  0  0  0  0  0  0  0
    7.0898  -14.3224   26.3016 C   0  0  0  0  0  0  0  0  0  0  0  0
    6.3362  -13.7172   25.2891 C   0  0  0  0  0  0  0  0  0  0  0  0
    6.2077  -12.3477   25.1947 C   0  0  0  0  0  0  0  0  0  0  0  0
    6.8380  -11.5168   26.1245 C   0  0  0  0  0  0  0  0  0  0  0  0
    7.5761  -12.0960   27.1171 C   0  0  0  0  0  0  0  0  0  0  0  0
    7.6870  -13.4496   27.1879 C   0  0  0  0  0  0  0  0  0  0  0  0
    8.6477  -17.7041   26.1168 C   0  0  0  0  0  0  0  0  0  0  0  0
    8.6010  -18.1733   27.2748 O   0  0  0  0  0  0  0  0  0  0  0  0
    8.8859  -18.6426   25.1037 O   0  0  0  0  0  0  0  0  0  0  0  0
  2  1  1  6
  2  3  1  0
  2  7  1  0
  3  4  1  0
  4  5  1  0
  5  6  2  0
  5  9  1  0
  7 10  1  0
  7  8  2  0
 10 11  1  0
 11 12  1  0
 12 14  1  0
 13 12  2  0
 14 15  1  0
 15 23  1  0
 16 17  1  0
 15 16  1  6
 17 22  2  0
 18 19  2  0
 18 17  1  0
 19 20  1  0
 20 21  2  0
 22 21  1  0
 23 24  2  0
 23 25  1  0
M  END
$$$$
