EGF.pdb
     RDKit          3D

 25 25  0  0  1  0  0  0  0  0999 V2000
    7.6616  -18.7183   22.0481 N   0  0  0  0  0  0  0  0  0  0  0  0
    8.1523  -17.9389   20.9591 C   0  0  1  0  0  0  0  0  0  0  0  0
    7.0526  -17.1760   20.2712 C   0  0  0  0  0  0  0  0  0  0  0  0
    7.4739  -16.6368   18.9402 C   0  0  0  0  0  0  0  0  0  0  0  0
    7.4827  -17.7151   17.9510 C   0  0  0  0  0  0  0  0  0  0  0  0
    6.5009  -18.4910   17.8579 O   0  0  0  0  0  0  0  0  0  0  0  0
    9.2825  -17.0499   21.3517 C   0  0  0  0  0  0  0  0  0  0  0  0
   10.0609  -16.6232   20.4701 O   0  0  0  0  0  0  0  0  0  0  0  0
    8.5610  -17.9317   17.0783 O   0  0  0  0  0  0  0  0  0  0  0  0
    9.5186  -16.6609   22.6946 N   0  0  0  0  0  0  0  0  0  0  0  0
   10.5816  -15.8099   23.1200 C   0  0  0  0  0  0  0  0  0  0  0  0
   10.5904  -15.5823   24.5919 C   0  0  0  0  0  0  0  0  0  0  0  0
   11.5504  -14.9401   25.0796 O   0  0  0  0  0  0  0  0  0  0  0  0
    9.5635  -16.0613   25.4460 N   0  0  0  0  0  0  0  0  0  0  0  0
    9.6030  -15.8987   26.9002 C   0  0  1  0  0  0  0  0  0  0  0  0
    8.2900  -15.4838   27.4487 C   0  0  0  0  0  0  0  0  0  0  0  0
    7.7880  -14.2823   26.7669 C   0  0  0  0  0  0  0  0  0  0  0  0
    6.7603  -14.4088   25.8251 C   0  0  0  0  0  0  0  0  0  0  0  0
    6.2290  -13.3158   25.1737 C   0  0  0  0  0  0  0  0  0  0  0  0
    6.7128  -12.0331   25.4435 C   0  0  0  0  0  0  0  0  0  0  0  0
    7.7156  -11.8974   26.3607 C   0  0  0  0  0  0  0  0  0  0  0  0
    8.2224  -12.9916   26.9894 C   0  0  0  0  0  0  0  0  0  0  0  0
   10.1208  -17.0865   27.5687 C   0  0  0  0  0  0  0  0  0  0  0  0
   10.2830  -18.1663   26.9595 O   0  0  0  0  0  0  0  0  0  0  0  0
   10.4718  -17.1102   28.9252 O   0  0  0  0  0  0  0  0  0  0  0  0
  2  1  1  1
  2  3  1  0
  2  7  1  0
  3  4  1  0
  4  5  1  0
  5  6  2  0
  5  9  1  0
  7 10  1  0
  7  8  2  0
 10 11  1  0
 11 12  1  0
 12 14  1  0
 13 12  2  0
 14 15  1  0
 15 23  1  0
 16 17  1  0
 15 16  1  1
 17 22  2  0
 18 19  2  0
 18 17  1  0
 19 20  1  0
 20 21  2  0
 22 21  1  0
 23 24  2  0
 23 25  1  0
M  END
$$$$
