EGF.pdb
     RDKit          3D

 25 25  0  0  1  0  0  0  0  0999 V2000
    7.9557  -13.2436   18.3028 N   0  0  0  0  0  0  0  0  0  0  0  0
    8.0421  -14.6655   18.2349 C   0  0  1  0  0  0  0  0  0  0  0  0
    9.4244  -15.1293   17.8625 C   0  0  0  0  0  0  0  0  0  0  0  0
    9.4278  -16.0099   16.6524 C   0  0  0  0  0  0  0  0  0  0  0  0
   10.7537  -15.9933   16.0334 C   0  0  0  0  0  0  0  0  0  0  0  0
   11.5673  -16.9201   16.2648 O   0  0  0  0  0  0  0  0  0  0  0  0
    7.5489  -15.3314   19.4740 C   0  0  0  0  0  0  0  0  0  0  0  0
    7.4822  -16.5799   19.5134 O   0  0  0  0  0  0  0  0  0  0  0  0
   11.1729  -14.9671   15.1717 O   0  0  0  0  0  0  0  0  0  0  0  0
    7.1470  -14.6055   20.6239 N   0  0  0  0  0  0  0  0  0  0  0  0
    6.5674  -15.1865   21.7909 C   0  0  0  0  0  0  0  0  0  0  0  0
    7.5811  -15.5820   22.8080 C   0  0  0  0  0  0  0  0  0  0  0  0
    8.7748  -15.6807   22.4376 O   0  0  0  0  0  0  0  0  0  0  0  0
    7.2443  -15.8463   24.1608 N   0  0  0  0  0  0  0  0  0  0  0  0
    8.2457  -16.1772   25.1760 C   0  0  1  0  0  0  0  0  0  0  0  0
    9.0410  -14.9929   25.5784 C   0  0  0  0  0  0  0  0  0  0  0  0
    8.1710  -13.8409   25.8547 C   0  0  0  0  0  0  0  0  0  0  0  0
    7.9208  -12.9125   24.8374 C   0  0  0  0  0  0  0  0  0  0  0  0
    7.0914  -11.8276   25.0275 C   0  0  0  0  0  0  0  0  0  0  0  0
    6.4700  -11.6257   26.2625 C   0  0  0  0  0  0  0  0  0  0  0  0
    6.7067  -12.5251   27.2628 C   0  0  0  0  0  0  0  0  0  0  0  0
    7.5290  -13.5871   27.0494 C   0  0  0  0  0  0  0  0  0  0  0  0
    7.6555  -16.8521   26.3258 C   0  0  0  0  0  0  0  0  0  0  0  0
    6.4188  -16.9969   26.4403 O   0  0  0  0  0  0  0  0  0  0  0  0
    8.4165  -17.3829   27.3759 O   0  0  0  0  0  0  0  0  0  0  0  0
  2  1  1  1
  2  3  1  0
  2  7  1  0
  3  4  1  0
  4  5  1  0
  5  6  2  0
  5  9  1  0
  7 10  1  0
  7  8  2  0
 10 11  1  0
 11 12  1  0
 12 14  1  0
 13 12  2  0
 14 15  1  0
 15 23  1  0
 16 17  1  0
 15 16  1  1
 17 22  2  0
 18 19  2  0
 18 17  1  0
 19 20  1  0
 20 21  2  0
 22 21  1  0
 23 24  2  0
 23 25  1  0
M  END
$$$$
