EGF.pdb
     RDKit          3D

 25 25  0  0  1  0  0  0  0  0999 V2000
    9.9058  -15.7299   16.8171 N   0  0  0  0  0  0  0  0  0  0  0  0
   10.1725  -16.3423   18.0772 C   0  0  1  0  0  0  0  0  0  0  0  0
   11.6462  -16.3974   18.3767 C   0  0  0  0  0  0  0  0  0  0  0  0
   12.2739  -15.0395   18.4216 C   0  0  0  0  0  0  0  0  0  0  0  0
   13.6961  -15.1635   18.7432 C   0  0  0  0  0  0  0  0  0  0  0  0
   14.2105  -16.2982   18.8924 O   0  0  0  0  0  0  0  0  0  0  0  0
    9.4027  -15.7215   19.1925 C   0  0  0  0  0  0  0  0  0  0  0  0
    8.4643  -14.9380   18.9274 O   0  0  0  0  0  0  0  0  0  0  0  0
   14.5362  -14.0492   18.8974 O   0  0  0  0  0  0  0  0  0  0  0  0
    9.6889  -15.9816   20.5568 N   0  0  0  0  0  0  0  0  0  0  0  0
    8.8021  -15.7083   21.6403 C   0  0  0  0  0  0  0  0  0  0  0  0
    9.4405  -15.8893   22.9737 C   0  0  0  0  0  0  0  0  0  0  0  0
   10.5718  -16.4281   23.0131 O   0  0  0  0  0  0  0  0  0  0  0  0
    8.8191  -15.4781   24.1814 N   0  0  0  0  0  0  0  0  0  0  0  0
    9.5280  -15.4333   25.4613 C   0  0  1  0  0  0  0  0  0  0  0  0
    9.5762  -14.0620   26.0218 C   0  0  0  0  0  0  0  0  0  0  0  0
    8.2266  -13.4923   26.1420 C   0  0  0  0  0  0  0  0  0  0  0  0
    7.9245  -12.6728   27.2358 C   0  0  0  0  0  0  0  0  0  0  0  0
    6.6857  -12.0872   27.3886 C   0  0  0  0  0  0  0  0  0  0  0  0
    5.6845  -12.3020   26.4379 C   0  0  0  0  0  0  0  0  0  0  0  0
    5.9678  -13.0999   25.3662 C   0  0  0  0  0  0  0  0  0  0  0  0
    7.1979  -13.6657   25.2389 C   0  0  0  0  0  0  0  0  0  0  0  0
    8.9896  -16.3932   26.4177 C   0  0  0  0  0  0  0  0  0  0  0  0
    9.5507  -16.6165   27.5125 O   0  0  0  0  0  0  0  0  0  0  0  0
    7.8193  -17.1290   26.1879 O   0  0  0  0  0  0  0  0  0  0  0  0
  2  1  1  6
  2  3  1  0
  2  7  1  0
  3  4  1  0
  4  5  1  0
  5  6  2  0
  5  9  1  0
  7 10  1  0
  7  8  2  0
 10 11  1  0
 11 12  1  0
 12 14  1  0
 13 12  2  0
 14 15  1  0
 15 23  1  0
 16 17  1  0
 15 16  1  1
 17 22  2  0
 18 19  2  0
 18 17  1  0
 19 20  1  0
 20 21  2  0
 22 21  1  0
 23 24  2  0
 23 25  1  0
M  END
$$$$
