EGF.pdb
     RDKit          3D

 25 25  0  0  1  0  0  0  0  0999 V2000
    6.7703  -18.3647   20.7605 N   0  0  0  0  0  0  0  0  0  0  0  0
    8.1363  -18.3372   20.3518 C   0  0  1  0  0  0  0  0  0  0  0  0
    8.2836  -18.5153   18.8648 C   0  0  0  0  0  0  0  0  0  0  0  0
    7.4283  -17.5662   18.0854 C   0  0  0  0  0  0  0  0  0  0  0  0
    7.6796  -17.7367   16.6539 C   0  0  0  0  0  0  0  0  0  0  0  0
    6.8357  -18.3215   15.9327 O   0  0  0  0  0  0  0  0  0  0  0  0
    8.8582  -17.1277   20.8396 C   0  0  0  0  0  0  0  0  0  0  0  0
   10.0823  -17.0105   20.6093 O   0  0  0  0  0  0  0  0  0  0  0  0
    8.8466  -17.2674   16.0301 O   0  0  0  0  0  0  0  0  0  0  0  0
    8.2133  -16.0914   21.5613 N   0  0  0  0  0  0  0  0  0  0  0  0
    8.8314  -14.8669   21.9534 C   0  0  0  0  0  0  0  0  0  0  0  0
    9.2706  -14.8672   23.3766 C   0  0  0  0  0  0  0  0  0  0  0  0
   10.0740  -13.9767   23.7418 O   0  0  0  0  0  0  0  0  0  0  0  0
    8.8161  -15.8277   24.3171 N   0  0  0  0  0  0  0  0  0  0  0  0
    9.2815  -15.8592   25.7046 C   0  0  1  0  0  0  0  0  0  0  0  0
    8.1745  -15.6455   26.6668 C   0  0  0  0  0  0  0  0  0  0  0  0
    7.6323  -14.2840   26.5549 C   0  0  0  0  0  0  0  0  0  0  0  0
    8.3570  -13.2125   27.0900 C   0  0  0  0  0  0  0  0  0  0  0  0
    7.9139  -11.9106   26.9916 C   0  0  0  0  0  0  0  0  0  0  0  0
    6.7094  -11.6250   26.3438 C   0  0  0  0  0  0  0  0  0  0  0  0
    5.9935  -12.6624   25.8177 C   0  0  0  0  0  0  0  0  0  0  0  0
    6.4527  -13.9378   25.9283 C   0  0  0  0  0  0  0  0  0  0  0  0
   10.0332  -17.0729   26.0011 C   0  0  0  0  0  0  0  0  0  0  0  0
   10.4902  -17.3015   27.1422 O   0  0  0  0  0  0  0  0  0  0  0  0
   10.2979  -18.0625   25.0449 O   0  0  0  0  0  0  0  0  0  0  0  0
  2  1  1  6
  2  3  1  0
  2  7  1  0
  3  4  1  0
  4  5  1  0
  5  6  2  0
  5  9  1  0
  7 10  1  0
  7  8  2  0
 10 11  1  0
 11 12  1  0
 12 14  1  0
 13 12  2  0
 14 15  1  0
 15 23  1  0
 16 17  1  0
 15 16  1  1
 17 22  2  0
 18 19  2  0
 18 17  1  0
 19 20  1  0
 20 21  2  0
 22 21  1  0
 23 24  2  0
 23 25  1  0
M  END
$$$$
