EGF.pdb
     RDKit          3D

 25 25  0  0  1  0  0  0  0  0999 V2000
    8.7099  -13.4470   19.5202 N   0  0  0  0  0  0  0  0  0  0  0  0
    7.5268  -14.2130   19.3018 C   0  0  1  0  0  0  0  0  0  0  0  0
    7.5168  -14.8600   17.9433 C   0  0  0  0  0  0  0  0  0  0  0  0
    8.8624  -15.3804   17.5453 C   0  0  0  0  0  0  0  0  0  0  0  0
    8.7475  -16.1492   16.3054 C   0  0  0  0  0  0  0  0  0  0  0  0
    7.6294  -16.2885   15.7533 O   0  0  0  0  0  0  0  0  0  0  0  0
    7.2729  -15.2011   20.3886 C   0  0  0  0  0  0  0  0  0  0  0  0
    6.2832  -15.9618   20.3058 O   0  0  0  0  0  0  0  0  0  0  0  0
    9.8526  -16.7544   15.6861 O   0  0  0  0  0  0  0  0  0  0  0  0
    8.1117  -15.3197   21.5256 N   0  0  0  0  0  0  0  0  0  0  0  0
    7.9178  -16.2547   22.5854 C   0  0  0  0  0  0  0  0  0  0  0  0
    8.7377  -15.9463   23.7900 C   0  0  0  0  0  0  0  0  0  0  0  0
    9.9146  -15.5523   23.6122 O   0  0  0  0  0  0  0  0  0  0  0  0
    8.2375  -16.0819   25.1109 N   0  0  0  0  0  0  0  0  0  0  0  0
    9.0557  -15.8265   26.2976 C   0  0  1  0  0  0  0  0  0  0  0  0
    8.2935  -15.1238   27.3570 C   0  0  0  0  0  0  0  0  0  0  0  0
    7.6810  -13.8921   26.8391 C   0  0  0  0  0  0  0  0  0  0  0  0
    8.4498  -12.7249   26.7632 C   0  0  0  0  0  0  0  0  0  0  0  0
    7.9397  -11.5466   26.2606 C   0  0  0  0  0  0  0  0  0  0  0  0
    6.6194  -11.4891   25.8070 C   0  0  0  0  0  0  0  0  0  0  0  0
    5.8596  -12.6220   25.8760 C   0  0  0  0  0  0  0  0  0  0  0  0
    6.3867  -13.7716   26.3761 C   0  0  0  0  0  0  0  0  0  0  0  0
    9.6875  -17.0418   26.7973 C   0  0  0  0  0  0  0  0  0  0  0  0
   10.4909  -17.0197   27.7551 O   0  0  0  0  0  0  0  0  0  0  0  0
    9.4472  -18.3099   26.2514 O   0  0  0  0  0  0  0  0  0  0  0  0
  2  1  1  1
  2  3  1  0
  2  7  1  0
  3  4  1  0
  4  5  1  0
  5  6  2  0
  5  9  1  0
  7 10  1  0
  7  8  2  0
 10 11  1  0
 11 12  1  0
 12 14  1  0
 13 12  2  0
 14 15  1  0
 15 23  1  0
 16 17  1  0
 15 16  1  1
 17 22  2  0
 18 19  2  0
 18 17  1  0
 19 20  1  0
 20 21  2  0
 22 21  1  0
 23 24  2  0
 23 25  1  0
M  END
$$$$
