EGF.pdb
     RDKit          3D

 25 25  0  0  1  0  0  0  0  0999 V2000
   10.0406  -13.0749   19.4402 N   0  0  0  0  0  0  0  0  0  0  0  0
    8.6337  -13.2857   19.3394 C   0  0  1  0  0  0  0  0  0  0  0  0
    8.2272  -13.7277   17.9596 C   0  0  0  0  0  0  0  0  0  0  0  0
    8.9861  -14.9312   17.4955 C   0  0  0  0  0  0  0  0  0  0  0  0
    8.5676  -15.2860   16.1389 C   0  0  0  0  0  0  0  0  0  0  0  0
    8.7876  -16.4385   15.6942 O   0  0  0  0  0  0  0  0  0  0  0  0
    8.1130  -14.2040   20.3918 C   0  0  0  0  0  0  0  0  0  0  0  0
    6.8790  -14.2798   20.5828 O   0  0  0  0  0  0  0  0  0  0  0  0
    7.9157  -14.3797   15.2876 O   0  0  0  0  0  0  0  0  0  0  0  0
    8.9626  -15.0053   21.1960 N   0  0  0  0  0  0  0  0  0  0  0  0
    8.5116  -15.9562   22.1591 C   0  0  0  0  0  0  0  0  0  0  0  0
    8.9866  -15.6562   23.5385 C   0  0  0  0  0  0  0  0  0  0  0  0
   10.0258  -14.9662   23.6631 O   0  0  0  0  0  0  0  0  0  0  0  0
    8.3112  -16.1192   24.6975 N   0  0  0  0  0  0  0  0  0  0  0  0
    8.8360  -15.9253   26.0502 C   0  0  1  0  0  0  0  0  0  0  0  0
    7.7935  -15.4418   26.9864 C   0  0  0  0  0  0  0  0  0  0  0  0
    7.2880  -14.1230   26.5794 C   0  0  0  0  0  0  0  0  0  0  0  0
    6.0762  -14.0392   25.8838 C   0  0  0  0  0  0  0  0  0  0  0  0
    5.5372  -12.8296   25.5002 C   0  0  0  0  0  0  0  0  0  0  0  0
    6.2000  -11.6372   25.8023 C   0  0  0  0  0  0  0  0  0  0  0  0
    7.3833  -11.7065   26.4808 C   0  0  0  0  0  0  0  0  0  0  0  0
    7.8936  -12.9125   26.8478 C   0  0  0  0  0  0  0  0  0  0  0  0
    9.5065  -17.1188   26.5522 C   0  0  0  0  0  0  0  0  0  0  0  0
    9.4127  -18.2207   25.9687 O   0  0  0  0  0  0  0  0  0  0  0  0
   10.2961  -17.1238   27.7098 O   0  0  0  0  0  0  0  0  0  0  0  0
  2  1  1  6
  2  3  1  0
  2  7  1  0
  3  4  1  0
  4  5  1  0
  5  6  2  0
  5  9  1  0
  7 10  1  0
  7  8  2  0
 10 11  1  0
 11 12  1  0
 12 14  1  0
 13 12  2  0
 14 15  1  0
 15 23  1  0
 16 17  1  0
 15 16  1  1
 17 22  2  0
 18 19  2  0
 18 17  1  0
 19 20  1  0
 20 21  2  0
 22 21  1  0
 23 24  2  0
 23 25  1  0
M  END
$$$$
