EGF.pdb
     RDKit          3D

 25 25  0  0  1  0  0  0  0  0999 V2000
    7.2785  -18.1663   18.4167 N   0  0  0  0  0  0  0  0  0  0  0  0
    8.4525  -18.8914   18.0567 C   0  0  1  0  0  0  0  0  0  0  0  0
    8.6313  -18.9702   16.5646 C   0  0  0  0  0  0  0  0  0  0  0  0
    8.5055  -17.6351   15.9001 C   0  0  0  0  0  0  0  0  0  0  0  0
    8.7469  -17.7739   14.4635 C   0  0  0  0  0  0  0  0  0  0  0  0
    8.9827  -18.9040   13.9718 O   0  0  0  0  0  0  0  0  0  0  0  0
    9.6763  -18.3779   18.7355 C   0  0  0  0  0  0  0  0  0  0  0  0
   10.7441  -19.0232   18.6438 O   0  0  0  0  0  0  0  0  0  0  0  0
    8.7277  -16.6793   13.5845 O   0  0  0  0  0  0  0  0  0  0  0  0
    9.6855  -17.1770   19.4894 N   0  0  0  0  0  0  0  0  0  0  0  0
   10.8041  -16.6893   20.2284 C   0  0  0  0  0  0  0  0  0  0  0  0
   10.4770  -16.3953   21.6515 C   0  0  0  0  0  0  0  0  0  0  0  0
   11.3780  -15.9010   22.3695 O   0  0  0  0  0  0  0  0  0  0  0  0
    9.1988  -16.6529   22.2113 N   0  0  0  0  0  0  0  0  0  0  0  0
    8.7710  -16.0980   23.4966 C   0  0  1  0  0  0  0  0  0  0  0  0
    7.4521  -15.4284   23.4012 C   0  0  0  0  0  0  0  0  0  0  0  0
    7.4034  -14.5184   22.2480 C   0  0  0  0  0  0  0  0  0  0  0  0
    7.9855  -13.2497   22.3522 C   0  0  0  0  0  0  0  0  0  0  0  0
    7.9964  -12.3630   21.2965 C   0  0  0  0  0  0  0  0  0  0  0  0
    7.4161  -12.7164   20.0756 C   0  0  0  0  0  0  0  0  0  0  0  0
    6.8450  -13.9519   19.9620 C   0  0  0  0  0  0  0  0  0  0  0  0
    6.8477  -14.8081   21.0187 C   0  0  0  0  0  0  0  0  0  0  0  0
    8.7983  -17.0965   24.5587 C   0  0  0  0  0  0  0  0  0  0  0  0
    9.0615  -18.2967   24.3270 O   0  0  0  0  0  0  0  0  0  0  0  0
    8.5359  -16.7936   25.9016 O   0  0  0  0  0  0  0  0  0  0  0  0
  2  1  1  6
  2  3  1  0
  2  7  1  0
  3  4  1  0
  4  5  1  0
  5  6  2  0
  5  9  1  0
  7 10  1  0
  7  8  2  0
 10 11  1  0
 11 12  1  0
 12 14  1  0
 13 12  2  0
 14 15  1  0
 15 23  1  0
 16 17  1  0
 15 16  1  6
 17 22  2  0
 18 19  2  0
 18 17  1  0
 19 20  1  0
 20 21  2  0
 22 21  1  0
 23 24  2  0
 23 25  1  0
M  END
$$$$
