ESP.pdb
     RDKit          3D

 23 23  0  0  1  0  0  0  0  0999 V2000
   15.3694  -10.6138  -17.5026 N   0  0  0  0  0  0  0  0  0  0  0  0
   16.3295  -10.3035  -16.4723 C   0  0  1  0  0  0  0  0  0  0  0  0
   17.0275  -11.5564  -15.9955 C   0  0  0  0  0  0  0  0  0  0  0  0
   15.9459  -12.5415  -15.6041 C   0  0  0  0  0  0  0  0  0  0  0  0
   16.5170  -13.8008  -15.0706 C   0  0  0  0  0  0  0  0  0  0  0  0
   16.9006  -13.7859  -13.8698 O   0  0  0  0  0  0  0  0  0  0  0  0
   17.2687   -9.2513  -16.9132 C   0  0  0  0  0  0  0  0  0  0  0  0
   17.7810   -9.2120  -18.0558 O   0  0  0  0  0  0  0  0  0  0  0  0
   16.6505  -14.9631  -15.7957 O   0  0  0  0  0  0  0  0  0  0  0  0
   16.8808   -5.5652  -15.6044 O   0  0  0  0  0  0  0  0  0  0  0  0
   17.7505   -5.8858  -16.6272 C   0  0  0  0  0  0  0  0  0  0  0  0
   18.5440   -7.1540  -16.3377 C   0  0  2  0  0  0  0  0  0  0  0  0
   17.6162   -8.2318  -16.0130 N   0  0  0  0  0  0  0  0  0  0  0  0
   19.3529   -6.8851  -15.1249 C   0  0  0  0  0  0  0  0  0  0  0  0
   18.8157   -7.1510  -14.0001 O   0  0  0  0  0  0  0  0  0  0  0  0
   20.6590   -6.3653  -15.1005 N   0  0  0  0  0  0  0  0  0  0  0  0
   21.3451   -5.8382  -16.2901 C   0  0  0  0  0  0  0  0  0  0  0  0
   22.7905   -6.2663  -16.0718 C   0  0  0  0  0  0  0  0  0  0  0  0
   22.8980   -6.7038  -14.6362 C   0  0  0  0  0  0  0  0  0  0  0  0
   21.6210   -6.1646  -14.0435 C   0  0  1  0  0  0  0  0  0  0  0  0
   21.8386   -4.7251  -13.7285 C   0  0  0  0  0  0  0  0  0  0  0  0
   21.2776   -3.7758  -14.5467 O   0  0  0  0  0  0  0  0  0  0  0  0
   22.5153   -4.3640  -12.7431 O   0  0  0  0  0  0  0  0  0  0  0  0
  2  1  1  6
  2  7  1  0
  3  2  1  0
  4  5  1  0
  4  3  1  0
  5  6  2  0
  7 13  1  0
  7  8  2  0
  9  5  1  0
 10 11  1  0
 12 11  1  1
 13 12  1  0
 14 16  1  0
 14 12  1  0
 15 14  2  0
 16 17  1  0
 17 18  1  0
 19 18  1  0
 20 21  1  6
 20 16  1  0
 20 19  1  0
 21 22  1  0
 23 21  2  0
M  END
$$$$
