ESP.pdb
     RDKit          3D

 23 23  0  0  1  0  0  0  0  0999 V2000
   13.5495   -9.6447  -10.0493 N   0  0  0  0  0  0  0  0  0  0  0  0
   14.8817   -9.7862  -10.5830 C   0  0  1  0  0  0  0  0  0  0  0  0
   14.9090  -10.8150  -11.6899 C   0  0  0  0  0  0  0  0  0  0  0  0
   16.3582  -10.9897  -12.0933 C   0  0  0  0  0  0  0  0  0  0  0  0
   16.5135  -12.0137  -13.1536 C   0  0  0  0  0  0  0  0  0  0  0  0
   17.1726  -11.6780  -14.1744 O   0  0  0  0  0  0  0  0  0  0  0  0
   15.4365   -8.4799  -10.9947 C   0  0  0  0  0  0  0  0  0  0  0  0
   15.0662   -7.8596  -12.0182 O   0  0  0  0  0  0  0  0  0  0  0  0
   15.9900  -13.2851  -13.0899 O   0  0  0  0  0  0  0  0  0  0  0  0
   16.5339   -5.4802   -8.4449 O   0  0  0  0  0  0  0  0  0  0  0  0
   17.5592   -5.9691   -9.2292 C   0  0  0  0  0  0  0  0  0  0  0  0
   17.0515   -6.6036  -10.5181 C   0  0  2  0  0  0  0  0  0  0  0  0
   16.4349   -7.8880  -10.2052 N   0  0  0  0  0  0  0  0  0  0  0  0
   18.2418   -6.8764  -11.3585 C   0  0  0  0  0  0  0  0  0  0  0  0
   18.7673   -8.0334  -11.2598 O   0  0  0  0  0  0  0  0  0  0  0  0
   18.8440   -5.9772  -12.2562 N   0  0  0  0  0  0  0  0  0  0  0  0
   18.3646   -4.6036  -12.4730 C   0  0  0  0  0  0  0  0  0  0  0  0
   18.5978   -4.3889  -13.9629 C   0  0  0  0  0  0  0  0  0  0  0  0
   19.4928   -5.5069  -14.4244 C   0  0  0  0  0  0  0  0  0  0  0  0
   19.9969   -6.0692  -13.1195 C   0  0  1  0  0  0  0  0  0  0  0  0
   21.1280   -5.2141  -12.6631 C   0  0  0  0  0  0  0  0  0  0  0  0
   20.9136   -4.3221  -11.6415 O   0  0  0  0  0  0  0  0  0  0  0  0
   22.2599   -5.2898  -13.1849 O   0  0  0  0  0  0  0  0  0  0  0  0
  2  1  1  6
  2  7  1  0
  3  2  1  0
  4  5  1  0
  4  3  1  0
  5  6  2  0
  7 13  1  0
  7  8  2  0
  9  5  1  0
 10 11  1  0
 12 11  1  1
 13 12  1  0
 14 16  1  0
 14 12  1  0
 15 14  2  0
 16 17  1  0
 17 18  1  0
 19 18  1  0
 20 21  1  1
 20 16  1  0
 20 19  1  0
 21 22  1  0
 23 21  2  0
M  END
$$$$
