ESP.pdb
     RDKit          3D

 23 23  0  0  1  0  0  0  0  0999 V2000
   18.6541  -12.2847  -18.2164 N   0  0  0  0  0  0  0  0  0  0  0  0
   19.7877  -11.5720  -17.6810 C   0  0  1  0  0  0  0  0  0  0  0  0
   20.9901  -11.7218  -18.5844 C   0  0  0  0  0  0  0  0  0  0  0  0
   21.2374  -13.2071  -18.7462 C   0  0  0  0  0  0  0  0  0  0  0  0
   22.3524  -13.4793  -19.6839 C   0  0  0  0  0  0  0  0  0  0  0  0
   22.0425  -13.6926  -20.8871 O   0  0  0  0  0  0  0  0  0  0  0  0
   19.4500  -10.1615  -17.3979 C   0  0  0  0  0  0  0  0  0  0  0  0
   19.3790   -9.2741  -18.2792 O   0  0  0  0  0  0  0  0  0  0  0  0
   23.6806  -13.5124  -19.3246 O   0  0  0  0  0  0  0  0  0  0  0  0
   18.5960   -9.2947  -13.4505 O   0  0  0  0  0  0  0  0  0  0  0  0
   18.0948   -8.4148  -14.3886 C   0  0  0  0  0  0  0  0  0  0  0  0
   18.9176   -8.4036  -15.6710 C   0  0  2  0  0  0  0  0  0  0  0  0
   19.1919   -9.7790  -16.0722 N   0  0  0  0  0  0  0  0  0  0  0  0
   20.2168   -7.7709  -15.3403 C   0  0  0  0  0  0  0  0  0  0  0  0
   21.2206   -8.5451  -15.2078 O   0  0  0  0  0  0  0  0  0  0  0  0
   20.4448   -6.3952  -15.1609 N   0  0  0  0  0  0  0  0  0  0  0  0
   19.3857   -5.3785  -15.2515 C   0  0  0  0  0  0  0  0  0  0  0  0
   20.0970   -4.1974  -15.8991 C   0  0  0  0  0  0  0  0  0  0  0  0
   21.5712   -4.4891  -15.8252 C   0  0  0  0  0  0  0  0  0  0  0  0
   21.6208   -5.6248  -14.8348 C   0  0  1  0  0  0  0  0  0  0  0  0
   21.5638   -5.0376  -13.4671 C   0  0  0  0  0  0  0  0  0  0  0  0
   22.7073   -4.5015  -12.9283 O   0  0  0  0  0  0  0  0  0  0  0  0
   20.5062   -5.0215  -12.8034 O   0  0  0  0  0  0  0  0  0  0  0  0
  2  1  1  6
  2  7  1  0
  3  2  1  0
  4  5  1  0
  4  3  1  0
  5  6  2  0
  7 13  1  0
  7  8  2  0
  9  5  1  0
 10 11  1  0
 12 11  1  1
 13 12  1  0
 14 16  1  0
 14 12  1  0
 15 14  2  0
 16 17  1  0
 17 18  1  0
 19 18  1  0
 20 21  1  1
 20 16  1  0
 20 19  1  0
 21 22  1  0
 23 21  2  0
M  END
$$$$
