ESP.pdb
     RDKit          3D

 23 23  0  0  1  0  0  0  0  0999 V2000
   17.4705  -14.9319  -17.3321 N   0  0  0  0  0  0  0  0  0  0  0  0
   17.2638  -13.6104  -16.7934 C   0  0  1  0  0  0  0  0  0  0  0  0
   16.7369  -13.6847  -15.3788 C   0  0  0  0  0  0  0  0  0  0  0  0
   15.4286  -14.4452  -15.4353 C   0  0  0  0  0  0  0  0  0  0  0  0
   14.9242  -14.7718  -14.0805 C   0  0  0  0  0  0  0  0  0  0  0  0
   15.7654  -15.2175  -13.2541 O   0  0  0  0  0  0  0  0  0  0  0  0
   18.4839  -12.7853  -16.9128 C   0  0  0  0  0  0  0  0  0  0  0  0
   19.6196  -13.1681  -16.5480 O   0  0  0  0  0  0  0  0  0  0  0  0
   13.6162  -14.6199  -13.6797 O   0  0  0  0  0  0  0  0  0  0  0  0
   18.0192   -8.7529  -18.1184 O   0  0  0  0  0  0  0  0  0  0  0  0
   19.1409   -9.4485  -18.5222 C   0  0  0  0  0  0  0  0  0  0  0  0
   19.5042  -10.5723  -17.5594 C   0  0  2  0  0  0  0  0  0  0  0  0
   18.3810  -11.4982  -17.4636 N   0  0  0  0  0  0  0  0  0  0  0  0
   19.6819   -9.9518  -16.2249 C   0  0  0  0  0  0  0  0  0  0  0  0
   18.6920  -10.0078  -15.4240 O   0  0  0  0  0  0  0  0  0  0  0  0
   20.8425   -9.3084  -15.7601 N   0  0  0  0  0  0  0  0  0  0  0  0
   21.9978   -9.0001  -16.6166 C   0  0  0  0  0  0  0  0  0  0  0  0
   23.1838   -9.2153  -15.6853 C   0  0  0  0  0  0  0  0  0  0  0  0
   22.6264   -9.2987  -14.2902 C   0  0  0  0  0  0  0  0  0  0  0  0
   21.2258   -8.7726  -14.4760 C   0  0  1  0  0  0  0  0  0  0  0  0
   21.2949   -7.2847  -14.4700 C   0  0  0  0  0  0  0  0  0  0  0  0
   21.4582   -6.6340  -13.2720 O   0  0  0  0  0  0  0  0  0  0  0  0
   21.2086   -6.6195  -15.5233 O   0  0  0  0  0  0  0  0  0  0  0  0
  2  1  1  1
  2  7  1  0
  3  2  1  0
  4  5  1  0
  4  3  1  0
  5  6  2  0
  7 13  1  0
  7  8  2  0
  9  5  1  0
 10 11  1  0
 12 11  1  6
 13 12  1  0
 14 16  1  0
 14 12  1  0
 15 14  2  0
 16 17  1  0
 17 18  1  0
 19 18  1  0
 20 21  1  6
 20 16  1  0
 20 19  1  0
 21 22  1  0
 23 21  2  0
M  END
$$$$
