ESP.pdb
     RDKit          3D

 23 23  0  0  1  0  0  0  0  0999 V2000
   22.8528  -19.3170  -17.5061 N   0  0  0  0  0  0  0  0  0  0  0  0
   23.6661  -20.4971  -17.6649 C   0  0  1  0  0  0  0  0  0  0  0  0
   24.0745  -20.6761  -19.1090 C   0  0  0  0  0  0  0  0  0  0  0  0
   23.6808  -19.4088  -19.8386 C   0  0  0  0  0  0  0  0  0  0  0  0
   22.2340  -19.3867  -20.1593 C   0  0  0  0  0  0  0  0  0  0  0  0
   21.6083  -18.3270  -19.8857 O   0  0  0  0  0  0  0  0  0  0  0  0
   24.8158  -20.4855  -16.7366 C   0  0  0  0  0  0  0  0  0  0  0  0
   25.6167  -21.4405  -16.6111 O   0  0  0  0  0  0  0  0  0  0  0  0
   21.5469  -20.4354  -20.7274 O   0  0  0  0  0  0  0  0  0  0  0  0
   26.9072  -17.1226  -15.3510 O   0  0  0  0  0  0  0  0  0  0  0  0
   26.1982  -17.8555  -14.4206 C   0  0  0  0  0  0  0  0  0  0  0  0
   26.0012  -19.3038  -14.8513 C   0  0  2  0  0  0  0  0  0  0  0  0
   25.0362  -19.3479  -15.9443 N   0  0  0  0  0  0  0  0  0  0  0  0
   25.3982  -20.0146  -13.6987 C   0  0  0  0  0  0  0  0  0  0  0  0
   24.1403  -20.2169  -13.7370 O   0  0  0  0  0  0  0  0  0  0  0  0
   26.0858  -20.4882  -12.5674 N   0  0  0  0  0  0  0  0  0  0  0  0
   27.4622  -20.0940  -12.2304 C   0  0  0  0  0  0  0  0  0  0  0  0
   28.0530  -21.3711  -11.6472 C   0  0  0  0  0  0  0  0  0  0  0  0
   26.8975  -22.2965  -11.3782 C   0  0  0  0  0  0  0  0  0  0  0  0
   25.7151  -21.3672  -11.4844 C   0  0  1  0  0  0  0  0  0  0  0  0
   25.5798  -20.6536  -10.1839 C   0  0  0  0  0  0  0  0  0  0  0  0
   24.9468  -21.2875   -9.1434 O   0  0  0  0  0  0  0  0  0  0  0  0
   26.0265  -19.4992  -10.0193 O   0  0  0  0  0  0  0  0  0  0  0  0
  2  1  1  6
  2  7  1  0
  3  2  1  0
  4  5  1  0
  4  3  1  0
  5  6  2  0
  7 13  1  0
  7  8  2  0
  9  5  1  0
 10 11  1  0
 12 11  1  1
 13 12  1  0
 14 16  1  0
 14 12  1  0
 15 14  2  0
 16 17  1  0
 17 18  1  0
 19 18  1  0
 20 21  1  1
 20 16  1  0
 20 19  1  0
 21 22  1  0
 23 21  2  0
M  END
$$$$
