ESP.pdb
     RDKit          3D

 23 23  0  0  1  0  0  0  0  0999 V2000
   20.1646  -11.2582  -17.5998 N   0  0  0  0  0  0  0  0  0  0  0  0
   18.8750  -10.6341  -17.4363 C   0  0  1  0  0  0  0  0  0  0  0  0
   17.8272  -11.6584  -17.0658 C   0  0  0  0  0  0  0  0  0  0  0  0
   18.4643  -12.5975  -16.0630 C   0  0  0  0  0  0  0  0  0  0  0  0
   17.5405  -13.6867  -15.6668 C   0  0  0  0  0  0  0  0  0  0  0  0
   16.3145  -13.3986  -15.6108 O   0  0  0  0  0  0  0  0  0  0  0  0
   18.9416   -9.5056  -16.4845 C   0  0  0  0  0  0  0  0  0  0  0  0
   17.9547   -8.7985  -16.1756 O   0  0  0  0  0  0  0  0  0  0  0  0
   17.9355  -14.9696  -15.3622 O   0  0  0  0  0  0  0  0  0  0  0  0
   21.6737   -7.6449  -12.9247 O   0  0  0  0  0  0  0  0  0  0  0  0
   21.4986   -8.5443  -13.9571 C   0  0  0  0  0  0  0  0  0  0  0  0
   20.3331   -8.1671  -14.8633 C   0  0  2  0  0  0  0  0  0  0  0  0
   20.1724   -9.1962  -15.8846 N   0  0  0  0  0  0  0  0  0  0  0  0
   20.7169   -6.9131  -15.5544 C   0  0  0  0  0  0  0  0  0  0  0  0
   21.3942   -7.0276  -16.6280 O   0  0  0  0  0  0  0  0  0  0  0  0
   20.4012   -5.6084  -15.1359 N   0  0  0  0  0  0  0  0  0  0  0  0
   19.6863   -5.3076  -13.8862 C   0  0  0  0  0  0  0  0  0  0  0  0
   18.8170   -4.1156  -14.2653 C   0  0  0  0  0  0  0  0  0  0  0  0
   19.3339   -3.6076  -15.5838 C   0  0  0  0  0  0  0  0  0  0  0  0
   20.6671   -4.3031  -15.6914 C   0  0  1  0  0  0  0  0  0  0  0  0
   21.6516   -3.5251  -14.8887 C   0  0  0  0  0  0  0  0  0  0  0  0
   22.0631   -4.0264  -13.6785 O   0  0  0  0  0  0  0  0  0  0  0  0
   22.1086   -2.4342  -15.2890 O   0  0  0  0  0  0  0  0  0  0  0  0
  2  1  1  1
  2  7  1  0
  3  2  1  0
  4  5  1  0
  4  3  1  0
  5  6  2  0
  7 13  1  0
  7  8  2  0
  9  5  1  0
 10 11  1  0
 12 11  1  1
 13 12  1  0
 14 16  1  0
 14 12  1  0
 15 14  2  0
 16 17  1  0
 17 18  1  0
 19 18  1  0
 20 21  1  1
 20 16  1  0
 20 19  1  0
 21 22  1  0
 23 21  2  0
M  END
$$$$
