ESP.pdb
     RDKit          3D

 23 23  0  0  1  0  0  0  0  0999 V2000
   19.7475  -12.9162  -17.5875 N   0  0  0  0  0  0  0  0  0  0  0  0
   20.4467  -11.6634  -17.7321 C   0  0  1  0  0  0  0  0  0  0  0  0
   20.3216  -11.1399  -19.1445 C   0  0  0  0  0  0  0  0  0  0  0  0
   21.1061  -12.0811  -20.0344 C   0  0  0  0  0  0  0  0  0  0  0  0
   21.1189  -11.6217  -21.4435 C   0  0  0  0  0  0  0  0  0  0  0  0
   22.0095  -10.7877  -21.7602 O   0  0  0  0  0  0  0  0  0  0  0  0
   20.0124  -10.6854  -16.7129 C   0  0  0  0  0  0  0  0  0  0  0  0
   18.8297  -10.5766  -16.3144 O   0  0  0  0  0  0  0  0  0  0  0  0
   20.2322  -12.0443  -22.4076 O   0  0  0  0  0  0  0  0  0  0  0  0
   20.5389  -10.0853  -13.0173 O   0  0  0  0  0  0  0  0  0  0  0  0
   21.3516   -9.3001  -13.8101 C   0  0  0  0  0  0  0  0  0  0  0  0
   20.6603   -8.8631  -15.0957 C   0  0  2  0  0  0  0  0  0  0  0  0
   20.9666   -9.8232  -16.1505 N   0  0  0  0  0  0  0  0  0  0  0  0
   21.2643   -7.5671  -15.4870 C   0  0  0  0  0  0  0  0  0  0  0  0
   22.2388   -7.6069  -16.3075 O   0  0  0  0  0  0  0  0  0  0  0  0
   20.8603   -6.2974  -15.0381 N   0  0  0  0  0  0  0  0  0  0  0  0
   19.7763   -6.0872  -14.0664 C   0  0  0  0  0  0  0  0  0  0  0  0
   19.1148   -4.8071  -14.5603 C   0  0  0  0  0  0  0  0  0  0  0  0
   20.0559   -4.1946  -15.5618 C   0  0  0  0  0  0  0  0  0  0  0  0
   21.3301   -4.9600  -15.3095 C   0  0  1  0  0  0  0  0  0  0  0  0
   22.0087   -4.3391  -14.1379 C   0  0  0  0  0  0  0  0  0  0  0  0
   22.7394   -3.1921  -14.3270 O   0  0  0  0  0  0  0  0  0  0  0  0
   21.9285   -4.8346  -12.9945 O   0  0  0  0  0  0  0  0  0  0  0  0
  2  1  1  6
  2  7  1  0
  3  2  1  0
  4  5  1  0
  4  3  1  0
  5  6  2  0
  7 13  1  0
  7  8  2  0
  9  5  1  0
 10 11  1  0
 12 11  1  1
 13 12  1  0
 14 16  1  0
 14 12  1  0
 15 14  2  0
 16 17  1  0
 17 18  1  0
 19 18  1  0
 20 21  1  1
 20 16  1  0
 20 19  1  0
 21 22  1  0
 23 21  2  0
M  END
$$$$
