ESP.pdb
     RDKit          3D

 23 23  0  0  1  0  0  0  0  0999 V2000
   27.1843  -21.7251  -18.5913 N   0  0  0  0  0  0  0  0  0  0  0  0
   27.9333  -22.6166  -17.7406 C   0  0  1  0  0  0  0  0  0  0  0  0
   29.2957  -22.9011  -18.3301 C   0  0  0  0  0  0  0  0  0  0  0  0
   29.9774  -21.5637  -18.5299 C   0  0  0  0  0  0  0  0  0  0  0  0
   31.3195  -21.7170  -19.1398 C   0  0  0  0  0  0  0  0  0  0  0  0
   31.8112  -20.6965  -19.6928 O   0  0  0  0  0  0  0  0  0  0  0  0
   27.9984  -22.1078  -16.3548 C   0  0  0  0  0  0  0  0  0  0  0  0
   28.5085  -22.7447  -15.4044 O   0  0  0  0  0  0  0  0  0  0  0  0
   32.0460  -22.8860  -19.1378 O   0  0  0  0  0  0  0  0  0  0  0  0
   26.0847  -18.5020  -15.7317 O   0  0  0  0  0  0  0  0  0  0  0  0
   27.0500  -18.8160  -14.7963 C   0  0  0  0  0  0  0  0  0  0  0  0
   27.3172  -20.3142  -14.7192 C   0  0  2  0  0  0  0  0  0  0  0  0
   27.4628  -20.8415  -16.0715 N   0  0  0  0  0  0  0  0  0  0  0  0
   26.1071  -20.9348  -14.1294 C   0  0  0  0  0  0  0  0  0  0  0  0
   25.4019  -21.6702  -14.8953 O   0  0  0  0  0  0  0  0  0  0  0  0
   25.6660  -20.7889  -12.8024 N   0  0  0  0  0  0  0  0  0  0  0  0
   26.2611  -19.8399  -11.8491 C   0  0  0  0  0  0  0  0  0  0  0  0
   26.1989  -20.5950  -10.5276 C   0  0  0  0  0  0  0  0  0  0  0  0
   25.2795  -21.7662  -10.7437 C   0  0  0  0  0  0  0  0  0  0  0  0
   24.6048  -21.4049  -12.0426 C   0  0  1  0  0  0  0  0  0  0  0  0
   23.4960  -20.4603  -11.7312 C   0  0  0  0  0  0  0  0  0  0  0  0
   23.6560  -19.1296  -12.0297 O   0  0  0  0  0  0  0  0  0  0  0  0
   22.4305  -20.8485  -11.2084 O   0  0  0  0  0  0  0  0  0  0  0  0
  2  1  1  6
  2  7  1  0
  3  2  1  0
  4  5  1  0
  4  3  1  0
  5  6  2  0
  7 13  1  0
  7  8  2  0
  9  5  1  0
 10 11  1  0
 12 11  1  6
 13 12  1  0
 14 16  1  0
 14 12  1  0
 15 14  2  0
 16 17  1  0
 17 18  1  0
 19 18  1  0
 20 21  1  1
 20 16  1  0
 20 19  1  0
 21 22  1  0
 23 21  2  0
M  END
$$$$
