ESP.pdb
     RDKit          3D

 23 23  0  0  1  0  0  0  0  0999 V2000
   24.0496  -21.8782  -19.0011 N   0  0  0  0  0  0  0  0  0  0  0  0
   25.4785  -22.0275  -18.8766 C   0  0  1  0  0  0  0  0  0  0  0  0
   26.1923  -21.3055  -19.9962 C   0  0  0  0  0  0  0  0  0  0  0  0
   26.0671  -19.8228  -19.7146 C   0  0  0  0  0  0  0  0  0  0  0  0
   27.3572  -19.2351  -19.2822 C   0  0  0  0  0  0  0  0  0  0  0  0
   27.3188  -18.4378  -18.3065 O   0  0  0  0  0  0  0  0  0  0  0  0
   25.9459  -21.6193  -17.5354 C   0  0  0  0  0  0  0  0  0  0  0  0
   26.9579  -22.1015  -16.9761 O   0  0  0  0  0  0  0  0  0  0  0  0
   28.5712  -19.5036  -19.8726 O   0  0  0  0  0  0  0  0  0  0  0  0
   23.7427  -18.6157  -15.4943 O   0  0  0  0  0  0  0  0  0  0  0  0
   25.1121  -18.7174  -15.3532 C   0  0  0  0  0  0  0  0  0  0  0  0
   25.6071  -20.1493  -15.5154 C   0  0  2  0  0  0  0  0  0  0  0  0
   25.2265  -20.6373  -16.8364 N   0  0  0  0  0  0  0  0  0  0  0  0
   24.8826  -20.9684  -14.5147 C   0  0  0  0  0  0  0  0  0  0  0  0
   24.0680  -21.8412  -14.9612 O   0  0  0  0  0  0  0  0  0  0  0  0
   25.0121  -20.8730  -13.1179 N   0  0  0  0  0  0  0  0  0  0  0  0
   25.8632  -19.8778  -12.4479 C   0  0  0  0  0  0  0  0  0  0  0  0
   26.4103  -20.6435  -11.2501 C   0  0  0  0  0  0  0  0  0  0  0  0
   25.5847  -21.8951  -11.1253 C   0  0  0  0  0  0  0  0  0  0  0  0
   24.4102  -21.5913  -12.0203 C   0  0  1  0  0  0  0  0  0  0  0  0
   23.4507  -20.7578  -11.2436 C   0  0  0  0  0  0  0  0  0  0  0  0
   22.6036  -21.3755  -10.3570 O   0  0  0  0  0  0  0  0  0  0  0  0
   23.3997  -19.5175  -11.3792 O   0  0  0  0  0  0  0  0  0  0  0  0
  2  1  1  1
  2  7  1  0
  3  2  1  0
  4  5  1  0
  4  3  1  0
  5  6  2  0
  7 13  1  0
  7  8  2  0
  9  5  1  0
 10 11  1  0
 12 11  1  6
 13 12  1  0
 14 16  1  0
 14 12  1  0
 15 14  2  0
 16 17  1  0
 17 18  1  0
 19 18  1  0
 20 21  1  1
 20 16  1  0
 20 19  1  0
 21 22  1  0
 23 21  2  0
M  END
$$$$
