ESP.pdb
     RDKit          3D

 23 23  0  0  1  0  0  0  0  0999 V2000
   19.4032  -11.3404  -16.0637 N   0  0  0  0  0  0  0  0  0  0  0  0
   18.2461  -10.5163  -16.3116 C   0  0  1  0  0  0  0  0  0  0  0  0
   16.9732  -11.2821  -16.0327 C   0  0  0  0  0  0  0  0  0  0  0  0
   17.0724  -12.5914  -16.7871 C   0  0  0  0  0  0  0  0  0  0  0  0
   17.2442  -13.7424  -15.8692 C   0  0  0  0  0  0  0  0  0  0  0  0
   16.6395  -13.6824  -14.7647 O   0  0  0  0  0  0  0  0  0  0  0  0
   18.3269   -9.2405  -15.5703 C   0  0  0  0  0  0  0  0  0  0  0  0
   17.4253   -8.3709  -15.5842 O   0  0  0  0  0  0  0  0  0  0  0  0
   18.0107  -14.8513  -16.1469 O   0  0  0  0  0  0  0  0  0  0  0  0
   21.8080   -8.6762  -13.4512 O   0  0  0  0  0  0  0  0  0  0  0  0
   20.7203   -7.9710  -12.9768 C   0  0  0  0  0  0  0  0  0  0  0  0
   19.6663   -7.7380  -14.0523 C   0  0  2  0  0  0  0  0  0  0  0  0
   19.4717   -8.9734  -14.8031 N   0  0  0  0  0  0  0  0  0  0  0  0
   20.2252   -6.7337  -14.9886 C   0  0  0  0  0  0  0  0  0  0  0  0
   20.7739   -7.1751  -16.0510 O   0  0  0  0  0  0  0  0  0  0  0  0
   20.2044   -5.3388  -14.8140 N   0  0  0  0  0  0  0  0  0  0  0  0
   19.5862   -4.6748  -13.6562 C   0  0  0  0  0  0  0  0  0  0  0  0
   18.9912   -3.4102  -14.2619 C   0  0  0  0  0  0  0  0  0  0  0  0
   19.5904   -3.2668  -15.6346 C   0  0  0  0  0  0  0  0  0  0  0  0
   20.7401   -4.2407  -15.5824 C   0  0  1  0  0  0  0  0  0  0  0  0
   21.8790   -3.5632  -14.9022 C   0  0  0  0  0  0  0  0  0  0  0  0
   22.7044   -2.7523  -15.6414 O   0  0  0  0  0  0  0  0  0  0  0  0
   22.0987   -3.7146  -13.6823 O   0  0  0  0  0  0  0  0  0  0  0  0
  2  1  1  1
  2  7  1  0
  3  2  1  0
  4  5  1  0
  4  3  1  0
  5  6  2  0
  7 13  1  0
  7  8  2  0
  9  5  1  0
 10 11  1  0
 12 11  1  1
 13 12  1  0
 14 16  1  0
 14 12  1  0
 15 14  2  0
 16 17  1  0
 17 18  1  0
 19 18  1  0
 20 21  1  1
 20 16  1  0
 20 19  1  0
 21 22  1  0
 23 21  2  0
M  END
$$$$
