ESP.pdb
     RDKit          3D

 23 23  0  0  1  0  0  0  0  0999 V2000
   15.4260  -21.4123    1.0259 N   0  0  0  0  0  0  0  0  0  0  0  0
   15.1762  -20.6652    2.2337 C   0  0  1  0  0  0  0  0  0  0  0  0
   14.3208  -21.4636    3.1904 C   0  0  0  0  0  0  0  0  0  0  0  0
   13.3641  -22.2816    2.3484 C   0  0  0  0  0  0  0  0  0  0  0  0
   12.2146  -22.7733    3.1443 C   0  0  0  0  0  0  0  0  0  0  0  0
   12.1543  -22.3972    4.3460 O   0  0  0  0  0  0  0  0  0  0  0  0
   16.4369  -20.1925    2.8429 C   0  0  0  0  0  0  0  0  0  0  0  0
   17.5429  -20.7566    2.6762 O   0  0  0  0  0  0  0  0  0  0  0  0
   11.2283  -23.6007    2.6575 O   0  0  0  0  0  0  0  0  0  0  0  0
   15.9385  -17.0907    5.3573 O   0  0  0  0  0  0  0  0  0  0  0  0
   17.2404  -17.1353    4.9005 C   0  0  0  0  0  0  0  0  0  0  0  0
   17.5959  -18.4869    4.2933 C   0  0  2  0  0  0  0  0  0  0  0  0
   16.4099  -19.0488    3.6564 N   0  0  0  0  0  0  0  0  0  0  0  0
   17.9593  -19.3797    5.4194 C   0  0  0  0  0  0  0  0  0  0  0  0
   17.1299  -20.2997    5.7197 O   0  0  0  0  0  0  0  0  0  0  0  0
   19.1355  -19.3067    6.1862 N   0  0  0  0  0  0  0  0  0  0  0  0
   20.1697  -18.2793    5.9901 C   0  0  0  0  0  0  0  0  0  0  0  0
   21.4634  -19.0379    6.2568 C   0  0  0  0  0  0  0  0  0  0  0  0
   21.0744  -20.3367    6.9092 C   0  0  0  0  0  0  0  0  0  0  0  0
   19.6396  -20.0811    7.2949 C   0  0  1  0  0  0  0  0  0  0  0  0
   19.6420  -19.3199    8.5753 C   0  0  0  0  0  0  0  0  0  0  0  0
   19.8099  -20.0054    9.7531 O   0  0  0  0  0  0  0  0  0  0  0  0
   19.4961  -18.0800    8.6019 O   0  0  0  0  0  0  0  0  0  0  0  0
  2  1  1  6
  2  7  1  0
  3  2  1  0
  4  5  1  0
  4  3  1  0
  5  6  2  0
  7 13  1  0
  7  8  2  0
  9  5  1  0
 10 11  1  0
 12 11  1  1
 13 12  1  0
 14 16  1  0
 14 12  1  0
 15 14  2  0
 16 17  1  0
 17 18  1  0
 19 18  1  0
 20 21  1  1
 20 16  1  0
 20 19  1  0
 21 22  1  0
 23 21  2  0
M  END
$$$$
