ESP.pdb
     RDKit          3D

 23 23  0  0  1  0  0  0  0  0999 V2000
   16.9408  -12.6418  -16.3625 N   0  0  0  0  0  0  0  0  0  0  0  0
   17.6266  -11.6100  -17.1004 C   0  0  1  0  0  0  0  0  0  0  0  0
   16.6984  -10.4539  -17.3937 C   0  0  0  0  0  0  0  0  0  0  0  0
   16.1704   -9.9638  -16.0616 C   0  0  0  0  0  0  0  0  0  0  0  0
   16.1460   -8.4836  -15.9914 C   0  0  0  0  0  0  0  0  0  0  0  0
   15.6467   -7.8771  -16.9773 O   0  0  0  0  0  0  0  0  0  0  0  0
   18.8679  -11.1946  -16.4145 C   0  0  0  0  0  0  0  0  0  0  0  0
   19.0506  -11.3077  -15.1804 O   0  0  0  0  0  0  0  0  0  0  0  0
   16.6276   -7.7468  -14.9333 O   0  0  0  0  0  0  0  0  0  0  0  0
   22.6999  -11.1125  -18.2428 O   0  0  0  0  0  0  0  0  0  0  0  0
   22.1696   -9.9454  -17.7308 C   0  0  0  0  0  0  0  0  0  0  0  0
   21.1789  -10.2046  -16.6025 C   0  0  2  0  0  0  0  0  0  0  0  0
   19.9098  -10.6404  -17.1747 N   0  0  0  0  0  0  0  0  0  0  0  0
   20.9402   -8.9026  -15.9352 C   0  0  0  0  0  0  0  0  0  0  0  0
   19.9832   -8.1896  -16.3826 O   0  0  0  0  0  0  0  0  0  0  0  0
   21.6711   -8.3819  -14.8528 N   0  0  0  0  0  0  0  0  0  0  0  0
   22.8847   -9.0144  -14.3138 C   0  0  0  0  0  0  0  0  0  0  0  0
   22.7708   -8.7577  -12.8167 C   0  0  0  0  0  0  0  0  0  0  0  0
   21.6959   -7.7201  -12.6382 C   0  0  0  0  0  0  0  0  0  0  0  0
   21.5230   -7.1973  -14.0417 C   0  0  1  0  0  0  0  0  0  0  0  0
   22.5952   -6.1930  -14.2877 C   0  0  0  0  0  0  0  0  0  0  0  0
   22.4781   -4.9472  -13.7225 O   0  0  0  0  0  0  0  0  0  0  0  0
   23.5923   -6.4567  -14.9917 O   0  0  0  0  0  0  0  0  0  0  0  0
  2  1  1  1
  2  7  1  0
  3  2  1  0
  4  5  1  0
  4  3  1  0
  5  6  2  0
  7 13  1  0
  7  8  2  0
  9  5  1  0
 10 11  1  0
 12 11  1  6
 13 12  1  0
 14 16  1  0
 14 12  1  0
 15 14  2  0
 16 17  1  0
 17 18  1  0
 19 18  1  0
 20 21  1  6
 20 16  1  0
 20 19  1  0
 21 22  1  0
 23 21  2  0
M  END
$$$$
