VPH.pdb
     RDKit          3D

 25 26  0  0  1  0  0  0  0  0999 V2000
   19.6010  -16.3483  -18.5113 C   0  0  0  0  0  0  0  0  0  0  0  0
   19.9370  -15.1480  -17.6811 C   0  0  2  0  0  0  0  0  0  0  0  0
   20.6524  -14.1415  -18.5554 C   0  0  0  0  0  0  0  0  0  0  0  0
   20.8218  -15.4867  -16.4979 C   0  0  2  0  0  0  0  0  0  0  0  0
   20.0505  -16.4028  -15.6090 N   0  0  0  0  0  0  0  0  0  0  0  0
   21.0437  -14.2329  -15.7331 C   0  0  0  0  0  0  0  0  0  0  0  0
   20.0533  -13.9210  -14.9569 O   0  0  0  0  0  0  0  0  0  0  0  0
   22.1851  -13.4177  -15.7884 N   0  0  0  0  0  0  0  0  0  0  0  0
   23.3167  -13.5555  -16.6245 C   0  0  0  0  0  0  0  0  0  0  0  0
   24.4569  -13.0498  -15.7452 C   0  0  0  0  0  0  0  0  0  0  0  0
   23.8198  -12.6529  -14.4557 C   0  0  0  0  0  0  0  0  0  0  0  0
   22.4176  -12.2761  -14.9655 C   0  0  1  0  0  0  0  0  0  0  0  0
   22.4254  -11.0487  -15.7553 C   0  0  0  0  0  0  0  0  0  0  0  0
   22.6042  -11.0217  -16.9763 O   0  0  0  0  0  0  0  0  0  0  0  0
   22.2160   -9.7916  -15.0998 N   0  0  0  0  0  0  0  0  0  0  0  0
   21.3499   -8.7572  -15.6496 C   0  0  1  0  0  0  0  0  0  0  0  0
   19.9602   -9.4098  -15.6565 C   0  0  0  0  0  0  0  0  0  0  0  0
   18.9494   -8.4632  -16.1225 C   0  0  0  0  0  0  0  0  0  0  0  0
   18.0114   -7.8395  -15.3384 C   0  0  0  0  0  0  0  0  0  0  0  0
   17.2853   -7.0650  -16.1766 N   0  0  0  0  0  0  0  0  0  0  0  0
   17.7635   -7.2133  -17.4178 C   0  0  0  0  0  0  0  0  0  0  0  0
   18.7858   -8.0699  -17.3966 N   0  0  0  0  0  0  0  0  0  0  0  0
   21.3939   -7.6088  -14.7372 C   0  0  0  0  0  0  0  0  0  0  0  0
   21.2389   -6.4551  -15.1816 O   0  0  0  0  0  0  0  0  0  0  0  0
   21.6046   -7.7913  -13.3942 O   0  0  0  0  0  0  0  0  0  0  0  0
  2  1  1  6
  2  3  1  0
  4  2  1  0
  4  5  1  1
  6  4  1  0
  6  7  2  0
  8  6  1  0
  9  8  1  0
 10  9  1  0
 10 11  1  0
 11 12  1  0
 12  8  1  0
 12 13  1  6
 14 13  2  0
 15 13  1  0
 16 17  1  1
 16 15  1  0
 18 17  1  0
 19 18  2  0
 20 21  1  0
 20 19  1  0
 21 22  2  0
 22 18  1  0
 23 25  1  0
 23 16  1  0
 24 23  2  0
M  END
$$$$
