VPH.pdb
     RDKit          3D

 25 26  0  0  1  0  0  0  0  0999 V2000
   28.6827  -18.5005  -16.2291 C   0  0  0  0  0  0  0  0  0  0  0  0
   27.4671  -19.1334  -15.6255 C   0  0  2  0  0  0  0  0  0  0  0  0
   26.7710  -18.1090  -14.7564 C   0  0  0  0  0  0  0  0  0  0  0  0
   27.8000  -20.3477  -14.7816 C   0  0  2  0  0  0  0  0  0  0  0  0
   28.4449  -21.3520  -15.6760 N   0  0  0  0  0  0  0  0  0  0  0  0
   26.5165  -20.9404  -14.3261 C   0  0  0  0  0  0  0  0  0  0  0  0
   26.0568  -21.8507  -15.1266 O   0  0  0  0  0  0  0  0  0  0  0  0
   25.8153  -20.6043  -13.1574 N   0  0  0  0  0  0  0  0  0  0  0  0
   26.1503  -19.6318  -12.1875 C   0  0  0  0  0  0  0  0  0  0  0  0
   25.6420  -20.2525  -10.8893 C   0  0  0  0  0  0  0  0  0  0  0  0
   25.0386  -21.5593  -11.2819 C   0  0  0  0  0  0  0  0  0  0  0  0
   24.6068  -21.2230  -12.7201 C   0  0  1  0  0  0  0  0  0  0  0  0
   23.4893  -20.2849  -12.7592 C   0  0  0  0  0  0  0  0  0  0  0  0
   23.5708  -19.1078  -12.3966 O   0  0  0  0  0  0  0  0  0  0  0  0
   22.2157  -20.7311  -13.2414 N   0  0  0  0  0  0  0  0  0  0  0  0
   21.2545  -19.8295  -13.8623 C   0  0  1  0  0  0  0  0  0  0  0  0
   20.9308  -20.5066  -15.2018 C   0  0  0  0  0  0  0  0  0  0  0  0
   19.9995  -19.6917  -15.9786 C   0  0  0  0  0  0  0  0  0  0  0  0
   19.4433  -18.5035  -15.5755 C   0  0  0  0  0  0  0  0  0  0  0  0
   18.6450  -18.1056  -16.5924 N   0  0  0  0  0  0  0  0  0  0  0  0
   18.7144  -19.0154  -17.5715 C   0  0  0  0  0  0  0  0  0  0  0  0
   19.5434  -19.9942  -17.2054 N   0  0  0  0  0  0  0  0  0  0  0  0
   20.0722  -19.7735  -12.9950 C   0  0  0  0  0  0  0  0  0  0  0  0
   19.8254  -20.7159  -12.2183 O   0  0  0  0  0  0  0  0  0  0  0  0
   19.2313  -18.6903  -13.0295 O   0  0  0  0  0  0  0  0  0  0  0  0
  2  1  1  1
  2  3  1  0
  4  2  1  0
  4  5  1  6
  6  4  1  0
  6  7  2  0
  8  6  1  0
  9  8  1  0
 10  9  1  0
 10 11  1  0
 11 12  1  0
 12  8  1  0
 12 13  1  1
 14 13  2  0
 15 13  1  0
 16 17  1  6
 16 15  1  0
 18 17  1  0
 19 18  2  0
 20 21  1  0
 20 19  1  0
 21 22  2  0
 22 18  1  0
 23 25  1  0
 23 16  1  0
 24 23  2  0
M  END
$$$$
