VPH.pdb
     RDKit          3D

 25 26  0  0  1  0  0  0  0  0999 V2000
   25.3767   -6.9356  -18.0302 C   0  0  0  0  0  0  0  0  0  0  0  0
   26.5626   -7.8051  -17.7467 C   0  0  2  0  0  0  0  0  0  0  0  0
   27.7880   -7.1654  -18.3622 C   0  0  0  0  0  0  0  0  0  0  0  0
   26.4064   -9.2050  -18.3065 C   0  0  2  0  0  0  0  0  0  0  0  0
   26.2934   -9.0850  -19.7888 N   0  0  0  0  0  0  0  0  0  0  0  0
   25.1088   -9.7385  -17.8190 C   0  0  0  0  0  0  0  0  0  0  0  0
   24.1916   -9.7778  -18.7344 O   0  0  0  0  0  0  0  0  0  0  0  0
   24.8293  -10.1796  -16.5160 N   0  0  0  0  0  0  0  0  0  0  0  0
   25.7213  -10.3035  -15.4262 C   0  0  0  0  0  0  0  0  0  0  0  0
   25.1791  -11.5164  -14.6752 C   0  0  0  0  0  0  0  0  0  0  0  0
   23.9817  -11.9604  -15.4467 C   0  0  0  0  0  0  0  0  0  0  0  0
   23.5516  -10.6135  -16.0539 C   0  0  1  0  0  0  0  0  0  0  0  0
   23.0142   -9.6989  -15.0513 C   0  0  0  0  0  0  0  0  0  0  0  0
   23.7087   -8.9157  -14.3972 O   0  0  0  0  0  0  0  0  0  0  0  0
   21.6045   -9.6906  -14.7935 N   0  0  0  0  0  0  0  0  0  0  0  0
   20.8403   -8.4573  -14.6620 C   0  0  1  0  0  0  0  0  0  0  0  0
   21.0280   -7.7646  -16.0193 C   0  0  0  0  0  0  0  0  0  0  0  0
   20.2380   -6.5373  -16.0843 C   0  0  0  0  0  0  0  0  0  0  0  0
   19.4370   -6.0440  -15.0848 C   0  0  0  0  0  0  0  0  0  0  0  0
   18.8954   -4.9050  -15.5737 N   0  0  0  0  0  0  0  0  0  0  0  0
   19.3493   -4.7158  -16.8184 C   0  0  0  0  0  0  0  0  0  0  0  0
   20.1747   -5.7122  -17.1426 N   0  0  0  0  0  0  0  0  0  0  0  0
   19.4369   -8.8247  -14.4415 C   0  0  0  0  0  0  0  0  0  0  0  0
   18.9274   -9.7549  -15.0954 O   0  0  0  0  0  0  0  0  0  0  0  0
   18.6755   -8.1527  -13.5194 O   0  0  0  0  0  0  0  0  0  0  0  0
  2  1  1  6
  2  3  1  0
  4  2  1  0
  4  5  1  6
  6  4  1  0
  6  7  2  0
  8  6  1  0
  9  8  1  0
 10  9  1  0
 10 11  1  0
 11 12  1  0
 12  8  1  0
 12 13  1  1
 14 13  2  0
 15 13  1  0
 16 17  1  6
 16 15  1  0
 18 17  1  0
 19 18  2  0
 20 21  1  0
 20 19  1  0
 21 22  2  0
 22 18  1  0
 23 25  1  0
 23 16  1  0
 24 23  2  0
M  END
$$$$
