VPH.pdb
     RDKit          3D

 25 26  0  0  1  0  0  0  0  0999 V2000
   17.2251  -17.9777    4.0381 C   0  0  0  0  0  0  0  0  0  0  0  0
   17.3391  -18.9488    2.9038 C   0  0  2  0  0  0  0  0  0  0  0  0
   16.8146  -18.2876    1.6480 C   0  0  0  0  0  0  0  0  0  0  0  0
   16.5593  -20.2254    3.1485 C   0  0  2  0  0  0  0  0  0  0  0  0
   15.1297  -19.8472    3.3427 N   0  0  0  0  0  0  0  0  0  0  0  0
   17.0307  -20.7967    4.4359 C   0  0  0  0  0  0  0  0  0  0  0  0
   16.1176  -20.8156    5.3560 O   0  0  0  0  0  0  0  0  0  0  0  0
   18.3171  -21.2908    4.7034 N   0  0  0  0  0  0  0  0  0  0  0  0
   19.3711  -21.5214    3.7899 C   0  0  0  0  0  0  0  0  0  0  0  0
   20.0747  -22.7411    4.3784 C   0  0  0  0  0  0  0  0  0  0  0  0
   19.3183  -23.0769    5.6200 C   0  0  0  0  0  0  0  0  0  0  0  0
   18.7952  -21.6780    5.9902 C   0  0  1  0  0  0  0  0  0  0  0  0
   19.8598  -20.7901    6.4471 C   0  0  0  0  0  0  0  0  0  0  0  0
   20.7561  -20.3626    5.7140 O   0  0  0  0  0  0  0  0  0  0  0  0
   19.8882  -20.3772    7.8191 N   0  0  0  0  0  0  0  0  0  0  0  0
   20.9106  -19.4832    8.3462 C   0  0  1  0  0  0  0  0  0  0  0  0
   20.6125  -18.1424    7.6601 C   0  0  0  0  0  0  0  0  0  0  0  0
   19.2264  -17.7427    7.8918 C   0  0  0  0  0  0  0  0  0  0  0  0
   18.2575  -18.5120    8.4861 C   0  0  0  0  0  0  0  0  0  0  0  0
   17.1352  -17.7569    8.4866 N   0  0  0  0  0  0  0  0  0  0  0  0
   17.4124  -16.5786    7.9159 C   0  0  0  0  0  0  0  0  0  0  0  0
   18.6940  -16.5586    7.5466 N   0  0  0  0  0  0  0  0  0  0  0  0
   20.7170  -19.3927    9.7980 C   0  0  0  0  0  0  0  0  0  0  0  0
   19.8225  -20.0624   10.3491 O   0  0  0  0  0  0  0  0  0  0  0  0
   21.5133  -18.5753   10.5591 O   0  0  0  0  0  0  0  0  0  0  0  0
  2  1  1  1
  2  3  1  0
  4  2  1  0
  4  5  1  1
  6  4  1  0
  6  7  2  0
  8  6  1  0
  9  8  1  0
 10  9  1  0
 10 11  1  0
 11 12  1  0
 12  8  1  0
 12 13  1  6
 14 13  2  0
 15 13  1  0
 16 17  1  6
 16 15  1  0
 18 17  1  0
 19 18  2  0
 20 21  1  0
 20 19  1  0
 21 22  2  0
 22 18  1  0
 23 25  1  0
 23 16  1  0
 24 23  2  0
M  END
$$$$
