VPH.pdb
     RDKit          3D

 25 26  0  0  1  0  0  0  0  0999 V2000
   19.0377  -20.9618  -12.9266 C   0  0  0  0  0  0  0  0  0  0  0  0
   20.1343  -19.9777  -12.6588 C   0  0  2  0  0  0  0  0  0  0  0  0
   20.1708  -18.9757  -13.7920 C   0  0  0  0  0  0  0  0  0  0  0  0
   21.4942  -20.6372  -12.5432 C   0  0  2  0  0  0  0  0  0  0  0  0
   21.7036  -21.4518  -13.7748 N   0  0  0  0  0  0  0  0  0  0  0  0
   21.4335  -21.5890  -11.4045 C   0  0  0  0  0  0  0  0  0  0  0  0
   21.3913  -22.8311  -11.7732 O   0  0  0  0  0  0  0  0  0  0  0  0
   21.4241  -21.2533  -10.0415 N   0  0  0  0  0  0  0  0  0  0  0  0
   21.4502  -19.9652   -9.4594 C   0  0  0  0  0  0  0  0  0  0  0  0
   22.2507  -20.1835   -8.1785 C   0  0  0  0  0  0  0  0  0  0  0  0
   22.5964  -21.6349   -8.1672 C   0  0  0  0  0  0  0  0  0  0  0  0
   21.4048  -22.1907   -8.9666 C   0  0  1  0  0  0  0  0  0  0  0  0
   20.1521  -22.1138   -8.2214 C   0  0  0  0  0  0  0  0  0  0  0  0
   19.3967  -21.1381   -8.2515 O   0  0  0  0  0  0  0  0  0  0  0  0
   19.7547  -23.2201   -7.4017 N   0  0  0  0  0  0  0  0  0  0  0  0
   18.4151  -23.3373   -6.8413 C   0  0  1  0  0  0  0  0  0  0  0  0
   17.5025  -23.3513   -8.0759 C   0  0  0  0  0  0  0  0  0  0  0  0
   17.5978  -24.6325   -8.7718 C   0  0  0  0  0  0  0  0  0  0  0  0
   18.7456  -25.3614   -8.9585 C   0  0  0  0  0  0  0  0  0  0  0  0
   18.3755  -26.4620   -9.6523 N   0  0  0  0  0  0  0  0  0  0  0  0
   17.0575  -26.4025   -9.8770 C   0  0  0  0  0  0  0  0  0  0  0  0
   16.5693  -25.2830   -9.3407 N   0  0  0  0  0  0  0  0  0  0  0  0
   18.3466  -24.6102   -6.1145 C   0  0  0  0  0  0  0  0  0  0  0  0
   19.3188  -25.3892   -6.1313 O   0  0  0  0  0  0  0  0  0  0  0  0
   17.2190  -24.9542   -5.4132 O   0  0  0  0  0  0  0  0  0  0  0  0
  2  1  1  6
  2  3  1  0
  4  2  1  0
  4  5  1  6
  6  4  1  0
  6  7  2  0
  8  6  1  0
  9  8  1  0
 10  9  1  0
 10 11  1  0
 11 12  1  0
 12  8  1  0
 12 13  1  1
 14 13  2  0
 15 13  1  0
 16 17  1  6
 16 15  1  0
 18 17  1  0
 19 18  2  0
 20 21  1  0
 20 19  1  0
 21 22  2  0
 22 18  1  0
 23 25  1  0
 23 16  1  0
 24 23  2  0
M  END
$$$$
