VPH.pdb
     RDKit          3D

 25 26  0  0  1  0  0  0  0  0999 V2000
   25.5667  -17.3594  -15.5853 C   0  0  0  0  0  0  0  0  0  0  0  0
   26.7712  -17.6539  -14.7456 C   0  0  2  0  0  0  0  0  0  0  0  0
   27.7942  -16.5617  -14.9695 C   0  0  0  0  0  0  0  0  0  0  0  0
   27.4010  -18.9918  -15.0782 C   0  0  2  0  0  0  0  0  0  0  0  0
   27.6343  -19.0237  -16.5509 N   0  0  0  0  0  0  0  0  0  0  0  0
   26.3966  -20.0446  -14.7800 C   0  0  0  0  0  0  0  0  0  0  0  0
   25.9840  -20.6762  -15.8343 O   0  0  0  0  0  0  0  0  0  0  0  0
   25.8998  -20.3826  -13.5114 N   0  0  0  0  0  0  0  0  0  0  0  0
   26.2047  -19.7852  -12.2668 C   0  0  0  0  0  0  0  0  0  0  0  0
   26.1329  -20.9600  -11.2954 C   0  0  0  0  0  0  0  0  0  0  0  0
   25.7687  -22.1436  -12.1277 C   0  0  0  0  0  0  0  0  0  0  0  0
   24.9802  -21.4402  -13.2463 C   0  0  1  0  0  0  0  0  0  0  0  0
   23.6984  -20.9208  -12.7798 C   0  0  0  0  0  0  0  0  0  0  0  0
   23.5249  -20.4315  -11.6599 O   0  0  0  0  0  0  0  0  0  0  0  0
   22.5623  -20.9702  -13.6519 N   0  0  0  0  0  0  0  0  0  0  0  0
   21.2138  -20.6565  -13.1989 C   0  0  1  0  0  0  0  0  0  0  0  0
   20.9465  -19.2627  -13.7847 C   0  0  0  0  0  0  0  0  0  0  0  0
   21.6775  -19.0818  -15.0367 C   0  0  0  0  0  0  0  0  0  0  0  0
   21.8900  -20.0471  -15.9891 C   0  0  0  0  0  0  0  0  0  0  0  0
   22.6117  -19.4503  -16.9652 N   0  0  0  0  0  0  0  0  0  0  0  0
   22.8277  -18.1758  -16.6186 C   0  0  0  0  0  0  0  0  0  0  0  0
   22.2586  -17.9383  -15.4359 N   0  0  0  0  0  0  0  0  0  0  0  0
   20.3074  -21.6577  -13.7728 C   0  0  0  0  0  0  0  0  0  0  0  0
   20.7523  -22.5314  -14.5415 O   0  0  0  0  0  0  0  0  0  0  0  0
   18.9693  -21.6428  -13.4713 O   0  0  0  0  0  0  0  0  0  0  0  0
  2  1  1  6
  2  3  1  0
  4  2  1  0
  4  5  1  6
  6  4  1  0
  6  7  2  0
  8  6  1  0
  9  8  1  0
 10  9  1  0
 10 11  1  0
 11 12  1  0
 12  8  1  0
 12 13  1  1
 14 13  2  0
 15 13  1  0
 16 17  1  6
 16 15  1  0
 18 17  1  0
 19 18  2  0
 20 21  1  0
 20 19  1  0
 21 22  2  0
 22 18  1  0
 23 25  1  0
 23 16  1  0
 24 23  2  0
M  END
$$$$
