VPH.pdb
     RDKit          3D

 25 26  0  0  1  0  0  0  0  0999 V2000
   25.9120  -18.0856  -15.9095 C   0  0  0  0  0  0  0  0  0  0  0  0
   27.0344  -18.1138  -14.9184 C   0  0  2  0  0  0  0  0  0  0  0  0
   28.0369  -17.0446  -15.2942 C   0  0  0  0  0  0  0  0  0  0  0  0
   27.7401  -19.4545  -14.8747 C   0  0  2  0  0  0  0  0  0  0  0  0
   28.1409  -19.7958  -16.2702 N   0  0  0  0  0  0  0  0  0  0  0  0
   26.7421  -20.4709  -14.4542 C   0  0  0  0  0  0  0  0  0  0  0  0
   26.5308  -21.3858  -15.3480 O   0  0  0  0  0  0  0  0  0  0  0  0
   26.0593  -20.5065  -13.2282 N   0  0  0  0  0  0  0  0  0  0  0  0
   26.1778  -19.6156  -12.1368 C   0  0  0  0  0  0  0  0  0  0  0  0
   25.9554  -20.5213  -10.9288 C   0  0  0  0  0  0  0  0  0  0  0  0
   25.7136  -21.8823  -11.4902 C   0  0  0  0  0  0  0  0  0  0  0  0
   25.1049  -21.4966  -12.8499 C   0  0  1  0  0  0  0  0  0  0  0  0
   23.7705  -20.9203  -12.7173 C   0  0  0  0  0  0  0  0  0  0  0  0
   23.5597  -19.7557  -12.3668 O   0  0  0  0  0  0  0  0  0  0  0  0
   22.6245  -21.7315  -13.0044 N   0  0  0  0  0  0  0  0  0  0  0  0
   21.3786  -21.1737  -13.5132 C   0  0  1  0  0  0  0  0  0  0  0  0
   21.2235  -21.8258  -14.8946 C   0  0  0  0  0  0  0  0  0  0  0  0
   21.8299  -20.9908  -15.9289 C   0  0  0  0  0  0  0  0  0  0  0  0
   21.5502  -19.6668  -16.1583 C   0  0  0  0  0  0  0  0  0  0  0  0
   22.3262  -19.3012  -17.2042 N   0  0  0  0  0  0  0  0  0  0  0  0
   23.0465  -20.3601  -17.5928 C   0  0  0  0  0  0  0  0  0  0  0  0
   22.7498  -21.4036  -16.8166 N   0  0  0  0  0  0  0  0  0  0  0  0
   20.3024  -21.5875  -12.6056 C   0  0  0  0  0  0  0  0  0  0  0  0
   20.4151  -22.6381  -11.9454 O   0  0  0  0  0  0  0  0  0  0  0  0
   19.1681  -20.8273  -12.4749 O   0  0  0  0  0  0  0  0  0  0  0  0
  2  1  1  6
  2  3  1  0
  4  2  1  0
  4  5  1  6
  6  4  1  0
  6  7  2  0
  8  6  1  0
  9  8  1  0
 10  9  1  0
 10 11  1  0
 11 12  1  0
 12  8  1  0
 12 13  1  1
 14 13  2  0
 15 13  1  0
 16 17  1  6
 16 15  1  0
 18 17  1  0
 19 18  2  0
 20 21  1  0
 20 19  1  0
 21 22  2  0
 22 18  1  0
 23 25  1  0
 23 16  1  0
 24 23  2  0
M  END
$$$$
