VPH.pdb
     RDKit          3D

 25 26  0  0  1  0  0  0  0  0999 V2000
   26.3808  -19.3088  -15.8907 C   0  0  0  0  0  0  0  0  0  0  0  0
   27.3401  -19.2942  -14.7408 C   0  0  2  0  0  0  0  0  0  0  0  0
   28.6545  -18.7148  -15.2162 C   0  0  0  0  0  0  0  0  0  0  0  0
   27.5905  -20.6770  -14.1727 C   0  0  2  0  0  0  0  0  0  0  0  0
   28.0099  -21.5564  -15.3019 N   0  0  0  0  0  0  0  0  0  0  0  0
   26.2900  -21.2002  -13.6817 C   0  0  0  0  0  0  0  0  0  0  0  0
   25.8524  -22.2132  -14.3621 O   0  0  0  0  0  0  0  0  0  0  0  0
   25.5526  -20.7042  -12.5950 N   0  0  0  0  0  0  0  0  0  0  0  0
   25.8974  -19.6555  -11.7119 C   0  0  0  0  0  0  0  0  0  0  0  0
   25.2866  -20.1067  -10.3881 C   0  0  0  0  0  0  0  0  0  0  0  0
   24.6242  -21.4116  -10.6791 C   0  0  0  0  0  0  0  0  0  0  0  0
   24.2875  -21.2045  -12.1663 C   0  0  1  0  0  0  0  0  0  0  0  0
   23.2335  -20.2144  -12.3643 C   0  0  0  0  0  0  0  0  0  0  0  0
   23.4499  -19.0206  -12.5914 O   0  0  0  0  0  0  0  0  0  0  0  0
   21.8626  -20.6263  -12.2960 N   0  0  0  0  0  0  0  0  0  0  0  0
   20.9113  -20.3600  -13.3667 C   0  0  1  0  0  0  0  0  0  0  0  0
   21.4149  -21.2294  -14.5276 C   0  0  0  0  0  0  0  0  0  0  0  0
   22.1373  -20.4167  -15.5035 C   0  0  0  0  0  0  0  0  0  0  0  0
   22.3550  -19.0642  -15.4182 C   0  0  0  0  0  0  0  0  0  0  0  0
   23.0509  -18.7313  -16.5293 N   0  0  0  0  0  0  0  0  0  0  0  0
   23.2469  -19.8366  -17.2581 C   0  0  0  0  0  0  0  0  0  0  0  0
   22.6900  -20.8779  -16.6378 N   0  0  0  0  0  0  0  0  0  0  0  0
   19.5891  -20.8001  -12.9069 C   0  0  0  0  0  0  0  0  0  0  0  0
   19.4689  -21.8850  -12.3061 O   0  0  0  0  0  0  0  0  0  0  0  0
   18.4784  -20.0273  -13.1319 O   0  0  0  0  0  0  0  0  0  0  0  0
  2  1  1  6
  2  3  1  0
  4  2  1  0
  4  5  1  6
  6  4  1  0
  6  7  2  0
  8  6  1  0
  9  8  1  0
 10  9  1  0
 10 11  1  0
 11 12  1  0
 12  8  1  0
 12 13  1  1
 14 13  2  0
 15 13  1  0
 16 17  1  6
 16 15  1  0
 18 17  1  0
 19 18  2  0
 20 21  1  0
 20 19  1  0
 21 22  2  0
 22 18  1  0
 23 25  1  0
 23 16  1  0
 24 23  2  0
M  END
$$$$
