VPH.pdb
     RDKit          3D

 25 26  0  0  1  0  0  0  0  0999 V2000
   15.5578   -9.5887  -14.2326 C   0  0  0  0  0  0  0  0  0  0  0  0
   16.8623   -9.5520  -14.9671 C   0  0  2  0  0  0  0  0  0  0  0  0
   16.6467  -10.0997  -16.3610 C   0  0  0  0  0  0  0  0  0  0  0  0
   17.9408  -10.3666  -14.2812 C   0  0  2  0  0  0  0  0  0  0  0  0
   17.4273  -11.7594  -14.1372 N   0  0  0  0  0  0  0  0  0  0  0  0
   18.1038   -9.8252  -12.9077 C   0  0  0  0  0  0  0  0  0  0  0  0
   17.7194  -10.6468  -11.9814 O   0  0  0  0  0  0  0  0  0  0  0  0
   18.6184   -8.5642  -12.5680 N   0  0  0  0  0  0  0  0  0  0  0  0
   19.1843   -7.5925  -13.4249 C   0  0  0  0  0  0  0  0  0  0  0  0
   20.2534   -6.9441  -12.5498 C   0  0  0  0  0  0  0  0  0  0  0  0
   20.1663   -7.6400  -11.2329 C   0  0  0  0  0  0  0  0  0  0  0  0
   18.6785   -8.0325  -11.2458 C   0  0  1  0  0  0  0  0  0  0  0  0
   17.7983   -6.8773  -11.1007 C   0  0  0  0  0  0  0  0  0  0  0  0
   17.5243   -6.1054  -12.0241 O   0  0  0  0  0  0  0  0  0  0  0  0
   17.2066   -6.6023   -9.8247 N   0  0  0  0  0  0  0  0  0  0  0  0
   16.1679   -5.5970   -9.6443 C   0  0  1  0  0  0  0  0  0  0  0  0
   15.4721   -6.0200   -8.3426 C   0  0  0  0  0  0  0  0  0  0  0  0
   14.5249   -7.1037   -8.5942 C   0  0  0  0  0  0  0  0  0  0  0  0
   14.2739   -7.6842   -9.8123 C   0  0  0  0  0  0  0  0  0  0  0  0
   13.3319   -8.6279   -9.5847 N   0  0  0  0  0  0  0  0  0  0  0  0
   13.0246   -8.6196   -8.2821 C   0  0  0  0  0  0  0  0  0  0  0  0
   13.7512   -7.6874   -7.6639 N   0  0  0  0  0  0  0  0  0  0  0  0
   16.8293   -4.2956   -9.4954 C   0  0  0  0  0  0  0  0  0  0  0  0
   18.0165   -4.2404   -9.1215 O   0  0  0  0  0  0  0  0  0  0  0  0
   16.1524   -3.1332   -9.7643 O   0  0  0  0  0  0  0  0  0  0  0  0
  2  1  1  1
  2  3  1  0
  4  2  1  0
  4  5  1  1
  6  4  1  0
  6  7  2  0
  8  6  1  0
  9  8  1  0
 10  9  1  0
 10 11  1  0
 11 12  1  0
 12  8  1  0
 12 13  1  6
 14 13  2  0
 15 13  1  0
 16 17  1  1
 16 15  1  0
 18 17  1  0
 19 18  2  0
 20 21  1  0
 20 19  1  0
 21 22  2  0
 22 18  1  0
 23 25  1  0
 23 16  1  0
 24 23  2  0
M  END
$$$$
