VPH.pdb
     RDKit          3D

 25 26  0  0  1  0  0  0  0  0999 V2000
   18.2668  -10.1067  -17.9877 C   0  0  0  0  0  0  0  0  0  0  0  0
   19.3193  -11.1721  -17.9836 C   0  0  2  0  0  0  0  0  0  0  0  0
   18.9961  -12.1737  -19.0707 C   0  0  0  0  0  0  0  0  0  0  0  0
   19.4077  -11.8994  -16.6568 C   0  0  2  0  0  0  0  0  0  0  0  0
   18.0426  -12.4034  -16.3300 N   0  0  0  0  0  0  0  0  0  0  0  0
   19.7539  -10.8947  -15.6191 C   0  0  0  0  0  0  0  0  0  0  0  0
   18.7470  -10.5519  -14.8779 O   0  0  0  0  0  0  0  0  0  0  0  0
   21.0206  -10.3312  -15.3989 N   0  0  0  0  0  0  0  0  0  0  0  0
   22.2117  -10.5490  -16.1286 C   0  0  0  0  0  0  0  0  0  0  0  0
   23.2941  -10.4454  -15.0576 C   0  0  0  0  0  0  0  0  0  0  0  0
   22.5696  -10.1567  -13.7856 C   0  0  0  0  0  0  0  0  0  0  0  0
   21.3414   -9.4206  -14.3489 C   0  0  1  0  0  0  0  0  0  0  0  0
   21.6783   -8.1026  -14.8777 C   0  0  0  0  0  0  0  0  0  0  0  0
   22.1571   -7.9174  -16.0002 O   0  0  0  0  0  0  0  0  0  0  0  0
   21.4498   -6.9426  -14.0676 N   0  0  0  0  0  0  0  0  0  0  0  0
   21.5492   -5.5882  -14.5948 C   0  0  1  0  0  0  0  0  0  0  0  0
   20.1140   -5.0516  -14.4964 C   0  0  0  0  0  0  0  0  0  0  0  0
   19.2696   -5.6485  -15.5286 C   0  0  0  0  0  0  0  0  0  0  0  0
   19.3726   -5.4247  -16.8789 C   0  0  0  0  0  0  0  0  0  0  0  0
   18.3973   -6.1667  -17.4516 N   0  0  0  0  0  0  0  0  0  0  0  0
   17.7306   -6.8134  -16.4881 C   0  0  0  0  0  0  0  0  0  0  0  0
   18.2576   -6.5027  -15.3028 N   0  0  0  0  0  0  0  0  0  0  0  0
   22.4591   -4.8369  -13.7225 C   0  0  0  0  0  0  0  0  0  0  0  0
   22.7309   -5.2702  -12.5864 O   0  0  0  0  0  0  0  0  0  0  0  0
   23.0168   -3.6572  -14.1454 O   0  0  0  0  0  0  0  0  0  0  0  0
  2  1  1  1
  2  3  1  0
  4  2  1  0
  4  5  1  1
  6  4  1  0
  6  7  2  0
  8  6  1  0
  9  8  1  0
 10  9  1  0
 10 11  1  0
 11 12  1  0
 12  8  1  0
 12 13  1  6
 14 13  2  0
 15 13  1  0
 16 17  1  1
 16 15  1  0
 18 17  1  0
 19 18  2  0
 20 21  1  0
 20 19  1  0
 21 22  2  0
 22 18  1  0
 23 25  1  0
 23 16  1  0
 24 23  2  0
M  END
$$$$
