ACP.pdb
     RDKit          3D

 19 19  0  0  1  0  0  0  0  0999 V2000
    8.7608  -16.5812   21.1529 C   0  0  0  0  0  0  0  0  0  0  0  0
    8.0595  -15.2860   21.3967 C   0  0  2  0  0  0  0  0  0  0  0  0
    8.5210  -14.3485   20.3679 N   0  0  0  0  0  0  0  0  0  0  0  0
    8.3097  -14.6968   22.7142 C   0  0  0  0  0  0  0  0  0  0  0  0
    9.3350  -14.0051   22.9855 O   0  0  0  0  0  0  0  0  0  0  0  0
    7.3965  -14.8608   23.8087 N   0  0  0  0  0  0  0  0  0  0  0  0
    7.7095  -14.4611   25.1221 C   0  0  1  0  0  0  0  0  0  0  0  0
    6.4461  -14.2833   25.9836 C   0  0  0  0  0  0  0  0  0  0  0  0
    5.9545  -12.5431   25.9920 S   0  0  0  0  0  0  0  0  0  0  0  0
    8.7305  -15.1886   25.8468 C   0  0  0  0  0  0  0  0  0  0  0  0
    9.0058  -16.4026   25.4966 O   0  0  0  0  0  0  0  0  0  0  0  0
    9.4747  -14.6994   26.9194 N   0  0  0  0  0  0  0  0  0  0  0  0
    9.3644  -13.4111   27.5434 C   0  0  0  0  0  0  0  0  0  0  0  0
    9.9297  -13.6719   28.9505 C   0  0  0  0  0  0  0  0  0  0  0  0
   11.1272  -14.5234   28.6068 C   0  0  0  0  0  0  0  0  0  0  0  0
   10.5252  -15.4766   27.6091 C   0  0  1  0  0  0  0  0  0  0  0  0
    9.9606  -16.6474   28.2846 C   0  0  0  0  0  0  0  0  0  0  0  0
    8.7139  -16.7703   28.3703 O   0  0  0  0  0  0  0  0  0  0  0  0
   10.7686  -17.6249   28.8327 O   0  0  0  0  0  0  0  0  0  0  0  0
  2  1  1  1
  2  3  1  0
  4  2  1  0
  5  4  2  0
  6  4  1  0
  7  8  1  1
  7  6  1  0
  9  8  1  0
 10 12  1  0
 10  7  1  0
 11 10  2  0
 12 16  1  0
 13 14  1  0
 13 12  1  0
 14 15  1  0
 15 16  1  0
 16 17  1  1
 17 18  2  0
 17 19  1  0
M  END
$$$$
