ACP.pdb
     RDKit          3D

 19 19  0  0  1  0  0  0  0  0999 V2000
    9.3116  -17.7516   21.5366 C   0  0  0  0  0  0  0  0  0  0  0  0
    8.9304  -16.3141   21.4055 C   0  0  2  0  0  0  0  0  0  0  0  0
    9.7747  -15.7412   20.3523 N   0  0  0  0  0  0  0  0  0  0  0  0
    9.1038  -15.5244   22.6269 C   0  0  0  0  0  0  0  0  0  0  0  0
   10.1859  -14.9428   22.9336 O   0  0  0  0  0  0  0  0  0  0  0  0
    8.0438  -15.3477   23.5777 N   0  0  0  0  0  0  0  0  0  0  0  0
    8.2263  -14.6682   24.7974 C   0  0  1  0  0  0  0  0  0  0  0  0
    6.8948  -14.1475   25.3683 C   0  0  0  0  0  0  0  0  0  0  0  0
    6.2000  -15.3702   26.5052 S   0  0  0  0  0  0  0  0  0  0  0  0
    9.0215  -15.2960   25.8320 C   0  0  0  0  0  0  0  0  0  0  0  0
    9.2192  -16.5730   25.7852 O   0  0  0  0  0  0  0  0  0  0  0  0
    9.6181  -14.6444   26.9104 N   0  0  0  0  0  0  0  0  0  0  0  0
    9.4580  -13.2713   27.2984 C   0  0  0  0  0  0  0  0  0  0  0  0
    9.8071  -13.3045   28.7966 C   0  0  0  0  0  0  0  0  0  0  0  0
   11.0155  -14.2081   28.7722 C   0  0  0  0  0  0  0  0  0  0  0  0
   10.5348  -15.3064   27.8617 C   0  0  1  0  0  0  0  0  0  0  0  0
    9.8442  -16.3487   28.6247 C   0  0  0  0  0  0  0  0  0  0  0  0
    8.5945  -16.4458   28.5479 O   0  0  0  0  0  0  0  0  0  0  0  0
   10.5357  -17.2323   29.4309 O   0  0  0  0  0  0  0  0  0  0  0  0
  2  1  1  1
  2  3  1  0
  4  2  1  0
  5  4  2  0
  6  4  1  0
  7  8  1  1
  7  6  1  0
  9  8  1  0
 10 12  1  0
 10  7  1  0
 11 10  2  0
 12 16  1  0
 13 14  1  0
 13 12  1  0
 14 15  1  0
 15 16  1  0
 16 17  1  1
 17 18  2  0
 17 19  1  0
M  END
$$$$
