ACP.pdb
     RDKit          3D

 19 19  0  0  1  0  0  0  0  0999 V2000
    8.5482  -12.4884   19.6726 C   0  0  0  0  0  0  0  0  0  0  0  0
    8.2204  -13.9374   19.8206 C   0  0  2  0  0  0  0  0  0  0  0  0
    7.3706  -14.3028   18.6828 N   0  0  0  0  0  0  0  0  0  0  0  0
    7.5176  -14.2790   21.0595 C   0  0  0  0  0  0  0  0  0  0  0  0
    6.2881  -14.0451   21.2511 O   0  0  0  0  0  0  0  0  0  0  0  0
    8.1805  -14.9153   22.1616 N   0  0  0  0  0  0  0  0  0  0  0  0
    7.5338  -15.1778   23.3846 C   0  0  1  0  0  0  0  0  0  0  0  0
    7.0349  -16.6318   23.4686 C   0  0  0  0  0  0  0  0  0  0  0  0
    6.5369  -17.0077   25.1659 S   0  0  0  0  0  0  0  0  0  0  0  0
    8.1862  -14.7838   24.6159 C   0  0  0  0  0  0  0  0  0  0  0  0
    9.3034  -15.3465   24.9435 O   0  0  0  0  0  0  0  0  0  0  0  0
    7.7200  -13.8265   25.5158 N   0  0  0  0  0  0  0  0  0  0  0  0
    6.5278  -13.0338   25.4079 C   0  0  0  0  0  0  0  0  0  0  0  0
    6.2322  -12.6736   26.8743 C   0  0  0  0  0  0  0  0  0  0  0  0
    7.6226  -12.3380   27.3554 C   0  0  0  0  0  0  0  0  0  0  0  0
    8.4112  -13.4818   26.7755 C   0  0  1  0  0  0  0  0  0  0  0  0
    8.4305  -14.6198   27.6977 C   0  0  0  0  0  0  0  0  0  0  0  0
    7.6573  -15.5893   27.4996 O   0  0  0  0  0  0  0  0  0  0  0  0
    9.2816  -14.6540   28.7854 O   0  0  0  0  0  0  0  0  0  0  0  0
  2  1  1  1
  2  3  1  0
  4  2  1  0
  5  4  2  0
  6  4  1  0
  7  8  1  1
  7  6  1  0
  9  8  1  0
 10 12  1  0
 10  7  1  0
 11 10  2  0
 12 16  1  0
 13 14  1  0
 13 12  1  0
 14 15  1  0
 15 16  1  0
 16 17  1  1
 17 18  2  0
 17 19  1  0
M  END
$$$$
