ACP.pdb
     RDKit          3D

 19 19  0  0  1  0  0  0  0  0999 V2000
    8.6433  -12.5224   19.6557 C   0  0  0  0  0  0  0  0  0  0  0  0
    8.1524  -13.9251   19.7979 C   0  0  2  0  0  0  0  0  0  0  0  0
    7.2087  -14.1621   18.7008 N   0  0  0  0  0  0  0  0  0  0  0  0
    7.4771  -14.2081   21.0666 C   0  0  0  0  0  0  0  0  0  0  0  0
    6.2749  -13.8890   21.3031 O   0  0  0  0  0  0  0  0  0  0  0  0
    8.1378  -14.8796   22.1489 N   0  0  0  0  0  0  0  0  0  0  0  0
    7.5027  -15.1408   23.3782 C   0  0  1  0  0  0  0  0  0  0  0  0
    7.0180  -16.5988   23.4745 C   0  0  0  0  0  0  0  0  0  0  0  0
    6.4929  -16.9555   25.1678 S   0  0  0  0  0  0  0  0  0  0  0  0
    8.1605  -14.7333   24.6022 C   0  0  0  0  0  0  0  0  0  0  0  0
    9.3158  -15.2362   24.8926 O   0  0  0  0  0  0  0  0  0  0  0  0
    7.6613  -13.8226   25.5322 N   0  0  0  0  0  0  0  0  0  0  0  0
    6.4175  -13.1078   25.4739 C   0  0  0  0  0  0  0  0  0  0  0  0
    6.1447  -12.7904   26.9545 C   0  0  0  0  0  0  0  0  0  0  0  0
    7.5247  -12.3722   27.3996 C   0  0  0  0  0  0  0  0  0  0  0  0
    8.3674  -13.4530   26.7765 C   0  0  1  0  0  0  0  0  0  0  0  0
    8.4889  -14.6013   27.6778 C   0  0  0  0  0  0  0  0  0  0  0  0
    7.7659  -15.6113   27.4932 O   0  0  0  0  0  0  0  0  0  0  0  0
    9.3831  -14.6019   28.7310 O   0  0  0  0  0  0  0  0  0  0  0  0
  2  1  1  1
  2  3  1  0
  4  2  1  0
  5  4  2  0
  6  4  1  0
  7  8  1  1
  7  6  1  0
  9  8  1  0
 10 12  1  0
 10  7  1  0
 11 10  2  0
 12 16  1  0
 13 14  1  0
 13 12  1  0
 14 15  1  0
 15 16  1  0
 16 17  1  1
 17 18  2  0
 17 19  1  0
M  END
$$$$
