ACP.pdb
     RDKit          3D

 19 19  0  0  1  0  0  0  0  0999 V2000
    6.4748  -20.0032   25.1058 C   0  0  0  0  0  0  0  0  0  0  0  0
    7.6116  -19.5613   24.2447 C   0  0  2  0  0  0  0  0  0  0  0  0
    8.7064  -20.5131   24.4586 N   0  0  0  0  0  0  0  0  0  0  0  0
    8.1019  -18.2108   24.5297 C   0  0  0  0  0  0  0  0  0  0  0  0
    8.8328  -17.9297   25.5247 O   0  0  0  0  0  0  0  0  0  0  0  0
    7.7872  -17.0918   23.6884 N   0  0  0  0  0  0  0  0  0  0  0  0
    8.1781  -15.7758   24.0014 C   0  0  1  0  0  0  0  0  0  0  0  0
    8.5023  -14.9583   22.7378 C   0  0  0  0  0  0  0  0  0  0  0  0
    6.9959  -14.7132   21.7678 S   0  0  0  0  0  0  0  0  0  0  0  0
    7.3631  -15.0070   24.9189 C   0  0  0  0  0  0  0  0  0  0  0  0
    6.0875  -15.2158   24.9531 O   0  0  0  0  0  0  0  0  0  0  0  0
    7.8266  -14.0319   25.8009 N   0  0  0  0  0  0  0  0  0  0  0  0
    9.1656  -13.5276   25.9202 C   0  0  0  0  0  0  0  0  0  0  0  0
    8.9451  -12.1383   26.5435 C   0  0  0  0  0  0  0  0  0  0  0  0
    7.8998  -12.4703   27.5800 C   0  0  0  0  0  0  0  0  0  0  0  0
    6.9644  -13.3352   26.7779 C   0  0  1  0  0  0  0  0  0  0  0  0
    5.9519  -12.5192   26.1036 C   0  0  0  0  0  0  0  0  0  0  0  0
    6.0538  -12.3015   24.8711 O   0  0  0  0  0  0  0  0  0  0  0  0
    4.8824  -11.9801   26.7923 O   0  0  0  0  0  0  0  0  0  0  0  0
  2  1  1  1
  2  3  1  0
  4  2  1  0
  5  4  2  0
  6  4  1  0
  7  8  1  6
  7  6  1  0
  9  8  1  0
 10 12  1  0
 10  7  1  0
 11 10  2  0
 12 16  1  0
 13 14  1  0
 13 12  1  0
 14 15  1  0
 15 16  1  0
 16 17  1  6
 17 18  2  0
 17 19  1  0
M  END
$$$$
