ACP.pdb
     RDKit          3D

 19 19  0  0  1  0  0  0  0  0999 V2000
    9.4581  -13.3944   19.9850 C   0  0  0  0  0  0  0  0  0  0  0  0
    8.2668  -14.2924   20.0438 C   0  0  2  0  0  0  0  0  0  0  0  0
    7.3015  -13.7887   19.0616 N   0  0  0  0  0  0  0  0  0  0  0  0
    7.6143  -14.3530   21.3539 C   0  0  0  0  0  0  0  0  0  0  0  0
    6.7525  -13.5112   21.7434 O   0  0  0  0  0  0  0  0  0  0  0  0
    7.9067  -15.3875   22.3043 N   0  0  0  0  0  0  0  0  0  0  0  0
    7.4048  -15.3708   23.6198 C   0  0  1  0  0  0  0  0  0  0  0  0
    6.9459  -16.7677   24.0759 C   0  0  0  0  0  0  0  0  0  0  0  0
    5.7850  -17.4514   22.8697 S   0  0  0  0  0  0  0  0  0  0  0  0
    8.1823  -14.7196   24.6534 C   0  0  0  0  0  0  0  0  0  0  0  0
    9.4315  -15.0254   24.7873 O   0  0  0  0  0  0  0  0  0  0  0  0
    7.7083  -13.7629   25.5499 N   0  0  0  0  0  0  0  0  0  0  0  0
    6.4418  -13.0874   25.5175 C   0  0  0  0  0  0  0  0  0  0  0  0
    6.2428  -12.6798   26.9878 C   0  0  0  0  0  0  0  0  0  0  0  0
    7.6320  -12.1960   27.3241 C   0  0  0  0  0  0  0  0  0  0  0  0
    8.4713  -13.2926   26.7246 C   0  0  1  0  0  0  0  0  0  0  0  0
    8.6783  -14.3749   27.6898 C   0  0  0  0  0  0  0  0  0  0  0  0
    9.5041  -14.2214   28.6232 O   0  0  0  0  0  0  0  0  0  0  0  0
    7.9848  -15.5664   27.5990 O   0  0  0  0  0  0  0  0  0  0  0  0
  2  1  1  1
  2  3  1  0
  4  2  1  0
  5  4  2  0
  6  4  1  0
  7  8  1  1
  7  6  1  0
  9  8  1  0
 10 12  1  0
 10  7  1  0
 11 10  2  0
 12 16  1  0
 13 14  1  0
 13 12  1  0
 14 15  1  0
 15 16  1  0
 16 17  1  1
 17 18  2  0
 17 19  1  0
M  END
$$$$
