ACP.pdb
     RDKit          3D

 19 19  0  0  1  0  0  0  0  0999 V2000
    8.8741  -17.0149   21.4407 C   0  0  0  0  0  0  0  0  0  0  0  0
    8.5561  -15.5562   21.4446 C   0  0  2  0  0  0  0  0  0  0  0  0
    9.4358  -14.9231   20.4569 N   0  0  0  0  0  0  0  0  0  0  0  0
    8.7495  -14.8945   22.7370 C   0  0  0  0  0  0  0  0  0  0  0  0
    9.8887  -14.6149   23.2139 O   0  0  0  0  0  0  0  0  0  0  0  0
    7.6458  -14.5068   23.5680 N   0  0  0  0  0  0  0  0  0  0  0  0
    7.8163  -14.0547   24.8906 C   0  0  1  0  0  0  0  0  0  0  0  0
    6.5104  -13.4857   25.4746 C   0  0  0  0  0  0  0  0  0  0  0  0
    6.6418  -13.3841   27.2753 S   0  0  0  0  0  0  0  0  0  0  0  0
    8.4728  -14.9241   25.8446 C   0  0  0  0  0  0  0  0  0  0  0  0
    8.2487  -16.1966   25.7935 O   0  0  0  0  0  0  0  0  0  0  0  0
    9.3531  -14.5184   26.8466 N   0  0  0  0  0  0  0  0  0  0  0  0
    9.5678  -13.1848   27.3332 C   0  0  0  0  0  0  0  0  0  0  0  0
   10.1155  -13.4301   28.7499 C   0  0  0  0  0  0  0  0  0  0  0  0
   11.0700  -14.5667   28.4773 C   0  0  0  0  0  0  0  0  0  0  0  0
   10.2244  -15.4471   27.5962 C   0  0  1  0  0  0  0  0  0  0  0  0
    9.4341  -16.3818   28.4010 C   0  0  0  0  0  0  0  0  0  0  0  0
    8.1850  -16.2600   28.4412 O   0  0  0  0  0  0  0  0  0  0  0  0
   10.0308  -17.3990   29.1207 O   0  0  0  0  0  0  0  0  0  0  0  0
  2  1  1  1
  2  3  1  0
  4  2  1  0
  5  4  2  0
  6  4  1  0
  7  8  1  1
  7  6  1  0
  9  8  1  0
 10 12  1  0
 10  7  1  0
 11 10  2  0
 12 16  1  0
 13 14  1  0
 13 12  1  0
 14 15  1  0
 15 16  1  0
 16 17  1  1
 17 18  2  0
 17 19  1  0
M  END
$$$$
