ACP.pdb
     RDKit          3D

 19 19  0  0  1  0  0  0  0  0999 V2000
    7.5497  -16.2865   21.1705 C   0  0  0  0  0  0  0  0  0  0  0  0
    7.5690  -14.8000   21.3069 C   0  0  2  0  0  0  0  0  0  0  0  0
    8.4440  -14.2839   20.2493 N   0  0  0  0  0  0  0  0  0  0  0  0
    8.0580  -14.3135   22.5990 C   0  0  0  0  0  0  0  0  0  0  0  0
    9.2721  -14.0340   22.8249 O   0  0  0  0  0  0  0  0  0  0  0  0
    7.1836  -14.1128   23.7189 N   0  0  0  0  0  0  0  0  0  0  0  0
    7.6536  -13.7109   24.9839 C   0  0  1  0  0  0  0  0  0  0  0  0
    6.5629  -12.9926   25.7989 C   0  0  0  0  0  0  0  0  0  0  0  0
    5.9175  -14.1074   27.0682 S   0  0  0  0  0  0  0  0  0  0  0  0
    8.3599  -14.6742   25.8026 C   0  0  0  0  0  0  0  0  0  0  0  0
    8.1501  -15.9357   25.6114 O   0  0  0  0  0  0  0  0  0  0  0  0
    9.2755  -14.3729   26.8098 N   0  0  0  0  0  0  0  0  0  0  0  0
    9.4920  -13.1020   27.4417 C   0  0  0  0  0  0  0  0  0  0  0  0
   10.1015  -13.5021   28.7966 C   0  0  0  0  0  0  0  0  0  0  0  0
   11.0593  -14.5809   28.3538 C   0  0  0  0  0  0  0  0  0  0  0  0
   10.1899  -15.3670   27.4091 C   0  0  1  0  0  0  0  0  0  0  0  0
    9.4467  -16.4043   28.1285 C   0  0  0  0  0  0  0  0  0  0  0  0
    8.2041  -16.2897   28.2690 O   0  0  0  0  0  0  0  0  0  0  0  0
   10.0809  -17.5111   28.6591 O   0  0  0  0  0  0  0  0  0  0  0  0
  2  1  1  1
  2  3  1  0
  4  2  1  0
  5  4  2  0
  6  4  1  0
  7  8  1  1
  7  6  1  0
  9  8  1  0
 10 12  1  0
 10  7  1  0
 11 10  2  0
 12 16  1  0
 13 14  1  0
 13 12  1  0
 14 15  1  0
 15 16  1  0
 16 17  1  1
 17 18  2  0
 17 19  1  0
M  END
$$$$
