ACP.pdb
     RDKit          3D

 19 19  0  0  1  0  0  0  0  0999 V2000
   11.6793  -18.2962   16.5106 C   0  0  0  0  0  0  0  0  0  0  0  0
   10.3600  -18.2466   15.8136 C   0  0  2  0  0  0  0  0  0  0  0  0
   10.6181  -17.8080   14.4383 N   0  0  0  0  0  0  0  0  0  0  0  0
    9.3847  -17.3377   16.4204 C   0  0  0  0  0  0  0  0  0  0  0  0
    8.3398  -16.9388   15.8269 O   0  0  0  0  0  0  0  0  0  0  0  0
    9.5434  -16.8276   17.7521 N   0  0  0  0  0  0  0  0  0  0  0  0
    8.4477  -16.5462   18.5906 C   0  0  1  0  0  0  0  0  0  0  0  0
    7.5191  -17.7639   18.7483 C   0  0  0  0  0  0  0  0  0  0  0  0
    6.2237  -17.3900   19.9534 S   0  0  0  0  0  0  0  0  0  0  0  0
    8.6943  -15.9155   19.8706 C   0  0  0  0  0  0  0  0  0  0  0  0
    9.2745  -16.5953   20.8050 O   0  0  0  0  0  0  0  0  0  0  0  0
    8.3609  -14.6057   20.2122 N   0  0  0  0  0  0  0  0  0  0  0  0
    7.5212  -13.6992   19.4810 C   0  0  0  0  0  0  0  0  0  0  0  0
    7.0411  -12.7311   20.5764 C   0  0  0  0  0  0  0  0  0  0  0  0
    8.3294  -12.5197   21.3333 C   0  0  0  0  0  0  0  0  0  0  0  0
    8.8357  -13.9335   21.4394 C   0  0  1  0  0  0  0  0  0  0  0  0
    8.3065  -14.5860   22.6394 C   0  0  0  0  0  0  0  0  0  0  0  0
    7.3564  -15.4002   22.5324 O   0  0  0  0  0  0  0  0  0  0  0  0
    8.8284  -14.3275   23.8922 O   0  0  0  0  0  0  0  0  0  0  0  0
  2  1  1  1
  2  3  1  0
  4  2  1  0
  5  4  2  0
  6  4  1  0
  7  8  1  1
  7  6  1  0
  9  8  1  0
 10 12  1  0
 10  7  1  0
 11 10  2  0
 12 16  1  0
 13 14  1  0
 13 12  1  0
 14 15  1  0
 15 16  1  0
 16 17  1  1
 17 18  2  0
 17 19  1  0
M  END
$$$$
