ACP.pdb
     RDKit          3D

 19 19  0  0  1  0  0  0  0  0999 V2000
    8.5672  -19.8761   17.1276 C   0  0  0  0  0  0  0  0  0  0  0  0
    7.1894  -19.3492   17.3573 C   0  0  2  0  0  0  0  0  0  0  0  0
    6.6155  -19.0611   16.0389 N   0  0  0  0  0  0  0  0  0  0  0  0
    7.1308  -18.1321   18.1703 C   0  0  0  0  0  0  0  0  0  0  0  0
    7.0874  -16.9662   17.6784 O   0  0  0  0  0  0  0  0  0  0  0  0
    7.1154  -18.1731   19.6045 N   0  0  0  0  0  0  0  0  0  0  0  0
    7.0734  -17.0084   20.3947 C   0  0  1  0  0  0  0  0  0  0  0  0
    6.5579  -17.2985   21.8160 C   0  0  0  0  0  0  0  0  0  0  0  0
    6.6420  -15.7925   22.8135 S   0  0  0  0  0  0  0  0  0  0  0  0
    8.2395  -16.1508   20.4333 C   0  0  0  0  0  0  0  0  0  0  0  0
    9.3940  -16.6706   20.6962 O   0  0  0  0  0  0  0  0  0  0  0  0
    8.2481  -14.7751   20.2075 N   0  0  0  0  0  0  0  0  0  0  0  0
    7.1149  -13.9143   20.0167 C   0  0  0  0  0  0  0  0  0  0  0  0
    7.6659  -12.5393   20.4328 C   0  0  0  0  0  0  0  0  0  0  0  0
    9.0208  -12.5796   19.7696 C   0  0  0  0  0  0  0  0  0  0  0  0
    9.4814  -13.9640   20.1407 C   0  0  1  0  0  0  0  0  0  0  0  0
   10.1779  -13.9518   21.4293 C   0  0  0  0  0  0  0  0  0  0  0  0
   11.3372  -13.4747   21.5010 O   0  0  0  0  0  0  0  0  0  0  0  0
    9.5890  -14.4543   22.5736 O   0  0  0  0  0  0  0  0  0  0  0  0
  2  1  1  6
  2  3  1  0
  4  2  1  0
  5  4  2  0
  6  4  1  0
  7  8  1  1
  7  6  1  0
  9  8  1  0
 10 12  1  0
 10  7  1  0
 11 10  2  0
 12 16  1  0
 13 14  1  0
 13 12  1  0
 14 15  1  0
 15 16  1  0
 16 17  1  1
 17 18  2  0
 17 19  1  0
M  END
$$$$
