ACP.pdb
     RDKit          3D

 19 19  0  0  1  0  0  0  0  0999 V2000
    7.7021  -20.2097   23.3761 C   0  0  0  0  0  0  0  0  0  0  0  0
    6.4649  -19.4914   23.8031 C   0  0  2  0  0  0  0  0  0  0  0  0
    5.3281  -20.2158   23.2259 N   0  0  0  0  0  0  0  0  0  0  0  0
    6.3952  -18.0922   23.3755 C   0  0  0  0  0  0  0  0  0  0  0  0
    5.7332  -17.7027   22.3689 O   0  0  0  0  0  0  0  0  0  0  0  0
    7.0799  -17.0451   24.0781 N   0  0  0  0  0  0  0  0  0  0  0  0
    7.2343  -15.7510   23.5450 C   0  0  1  0  0  0  0  0  0  0  0  0
    7.4638  -14.7007   24.6470 C   0  0  0  0  0  0  0  0  0  0  0  0
    8.9063  -15.1606   25.6358 S   0  0  0  0  0  0  0  0  0  0  0  0
    8.1568  -15.5562   22.4459 C   0  0  0  0  0  0  0  0  0  0  0  0
    9.1837  -16.3351   22.3414 O   0  0  0  0  0  0  0  0  0  0  0  0
    8.0490  -14.5834   21.4532 N   0  0  0  0  0  0  0  0  0  0  0  0
    7.0556  -13.5524   21.3449 C   0  0  0  0  0  0  0  0  0  0  0  0
    7.7708  -12.4871   20.4957 C   0  0  0  0  0  0  0  0  0  0  0  0
    8.4263  -13.3648   19.4578 C   0  0  0  0  0  0  0  0  0  0  0  0
    8.9925  -14.4591   20.3228 C   0  0  1  0  0  0  0  0  0  0  0  0
   10.3360  -14.1092   20.7901 C   0  0  0  0  0  0  0  0  0  0  0  0
   10.5019  -13.7497   21.9818 O   0  0  0  0  0  0  0  0  0  0  0  0
   11.4308  -14.1648   19.9492 O   0  0  0  0  0  0  0  0  0  0  0  0
  2  1  1  6
  2  3  1  0
  4  2  1  0
  5  4  2  0
  6  4  1  0
  7  8  1  1
  7  6  1  0
  9  8  1  0
 10 12  1  0
 10  7  1  0
 11 10  2  0
 12 16  1  0
 13 14  1  0
 13 12  1  0
 14 15  1  0
 15 16  1  0
 16 17  1  1
 17 18  2  0
 17 19  1  0
M  END
$$$$
