ACP.pdb
     RDKit          3D

 19 19  0  0  1  0  0  0  0  0999 V2000
    9.6211  -17.5532   21.6012 C   0  0  0  0  0  0  0  0  0  0  0  0
    9.1983  -16.1254   21.4940 C   0  0  2  0  0  0  0  0  0  0  0  0
   10.1342  -15.4692   20.5754 N   0  0  0  0  0  0  0  0  0  0  0  0
    9.1964  -15.3941   22.7631 C   0  0  0  0  0  0  0  0  0  0  0  0
   10.2272  -14.8468   23.2541 O   0  0  0  0  0  0  0  0  0  0  0  0
    8.0084  -15.2403   23.5529 N   0  0  0  0  0  0  0  0  0  0  0  0
    8.0250  -14.6777   24.8436 C   0  0  1  0  0  0  0  0  0  0  0  0
    6.6111  -14.3028   25.3236 C   0  0  0  0  0  0  0  0  0  0  0  0
    6.6812  -13.7327   27.0383 S   0  0  0  0  0  0  0  0  0  0  0  0
    8.7625  -15.3556   25.8893 C   0  0  0  0  0  0  0  0  0  0  0  0
    8.7986  -16.6481   25.8967 O   0  0  0  0  0  0  0  0  0  0  0  0
    9.4634  -14.7385   26.9244 N   0  0  0  0  0  0  0  0  0  0  0  0
    9.3842  -13.3652   27.3357 C   0  0  0  0  0  0  0  0  0  0  0  0
    9.8453  -13.4285   28.8023 C   0  0  0  0  0  0  0  0  0  0  0  0
   11.0141  -14.3747   28.6771 C   0  0  0  0  0  0  0  0  0  0  0  0
   10.4251  -15.4442   27.7965 C   0  0  1  0  0  0  0  0  0  0  0  0
    9.7569  -16.4698   28.6011 C   0  0  0  0  0  0  0  0  0  0  0  0
    8.5062  -16.5730   28.5564 O   0  0  0  0  0  0  0  0  0  0  0  0
   10.4708  -17.3309   29.4120 O   0  0  0  0  0  0  0  0  0  0  0  0
  2  1  1  1
  2  3  1  0
  4  2  1  0
  5  4  2  0
  6  4  1  0
  7  8  1  1
  7  6  1  0
  9  8  1  0
 10 12  1  0
 10  7  1  0
 11 10  2  0
 12 16  1  0
 13 14  1  0
 13 12  1  0
 14 15  1  0
 15 16  1  0
 16 17  1  1
 17 18  2  0
 17 19  1  0
M  END
$$$$
