WLS.pdb
     RDKit          3D

 29 30  0  0  1  0  0  0  0  0999 V2000
    6.7149  -17.5433   24.5737 N   0  0  0  0  0  0  0  0  0  0  0  0
    7.1657  -16.2266   24.1667 C   0  0  1  0  0  0  0  0  0  0  0  0
    8.1732  -15.7614   25.1974 C   0  0  0  0  0  0  0  0  0  0  0  0
    7.5267  -15.1266   26.3740 C   0  0  0  0  0  0  0  0  0  0  0  0
    7.1961  -15.6996   27.5898 C   0  0  0  0  0  0  0  0  0  0  0  0
    6.6317  -14.7355   28.3357 N   0  0  0  0  0  0  0  0  0  0  0  0
    6.5774  -13.5817   27.6812 C   0  0  0  0  0  0  0  0  0  0  0  0
    6.0994  -12.3247   28.0123 C   0  0  0  0  0  0  0  0  0  0  0  0
    6.2058  -11.3387   27.0730 C   0  0  0  0  0  0  0  0  0  0  0  0
    6.7612  -11.5453   25.8311 C   0  0  0  0  0  0  0  0  0  0  0  0
    7.2351  -12.7839   25.4977 C   0  0  0  0  0  0  0  0  0  0  0  0
    7.1409  -13.7955   26.4240 C   0  0  0  0  0  0  0  0  0  0  0  0
    7.9400  -16.3638   22.8818 C   0  0  0  0  0  0  0  0  0  0  0  0
    8.4192  -17.4703   22.5267 O   0  0  0  0  0  0  0  0  0  0  0  0
    7.6980  -12.1913   19.0324 C   0  0  0  0  0  0  0  0  0  0  0  0
    7.6029  -13.6182   19.5625 C   0  0  2  0  0  0  0  0  0  0  0  0
    6.5892  -13.7214   20.6614 C   0  0  0  0  0  0  0  0  0  0  0  0
    8.9449  -14.1117   20.0246 C   0  0  0  0  0  0  0  0  0  0  0  0
    8.9226  -15.3869   20.8017 C   0  0  2  0  0  0  0  0  0  0  0  0
    8.1543  -15.2503   22.0304 N   0  0  0  0  0  0  0  0  0  0  0  0
   10.2473  -15.9526   21.0398 C   0  0  0  0  0  0  0  0  0  0  0  0
   10.9379  -16.4113   20.1060 O   0  0  0  0  0  0  0  0  0  0  0  0
   11.6563  -16.8326   24.8428 O   0  0  0  0  0  0  0  0  0  0  0  0
   12.6274  -16.2750   24.0119 C   0  0  0  0  0  0  0  0  0  0  0  0
   12.1772  -16.5132   22.5861 C   0  0  2  0  0  0  0  0  0  0  0  0
   10.8499  -16.0253   22.3393 N   0  0  0  0  0  0  0  0  0  0  0  0
   12.2676  -17.9552   22.3242 C   0  0  0  0  0  0  0  0  0  0  0  0
   11.2225  -18.5942   22.0581 O   0  0  0  0  0  0  0  0  0  0  0  0
   13.4671  -18.6423   22.3595 O   0  0  0  0  0  0  0  0  0  0  0  0
  2  1  1  1
  2 13  1  0
  3  2  1  0
  4  3  1  0
  4 12  1  0
  5  6  1  0
  5  4  2  0
  6  7  1  0
  7 12  2  0
  7  8  1  0
  8  9  2  0
  9 10  1  0
 11 10  2  0
 12 11  1  0
 13 14  2  0
 16 18  1  0
 16 15  1  1
 17 16  1  0
 19 18  1  1
 19 21  1  0
 20 19  1  0
 20 13  1  0
 21 22  2  0
 23 24  1  0
 25 24  1  1
 25 27  1  0
 26 25  1  0
 26 21  1  0
 27 28  2  0
 27 29  1  0
M  END
$$$$
