WLS.pdb
     RDKit          3D

 29 30  0  0  1  0  0  0  0  0999 V2000
    6.7789  -18.9623   26.1263 N   0  0  0  0  0  0  0  0  0  0  0  0
    7.4178  -17.6843   26.3732 C   0  0  1  0  0  0  0  0  0  0  0  0
    8.9065  -17.9421   26.4778 C   0  0  0  0  0  0  0  0  0  0  0  0
    9.4688  -17.4921   27.7765 C   0  0  0  0  0  0  0  0  0  0  0  0
    9.7944  -18.2537   28.8854 C   0  0  0  0  0  0  0  0  0  0  0  0
   10.2672  -17.4076   29.8154 N   0  0  0  0  0  0  0  0  0  0  0  0
   10.2674  -16.1539   29.3790 C   0  0  0  0  0  0  0  0  0  0  0  0
   10.6496  -14.9509   29.9490 C   0  0  0  0  0  0  0  0  0  0  0  0
   10.5109  -13.8201   29.1951 C   0  0  0  0  0  0  0  0  0  0  0  0
   10.0139  -13.8327   27.9121 C   0  0  0  0  0  0  0  0  0  0  0  0
    9.6347  -15.0170   27.3433 C   0  0  0  0  0  0  0  0  0  0  0  0
    9.7633  -16.1711   28.0791 C   0  0  0  0  0  0  0  0  0  0  0  0
    7.2448  -16.8206   25.1510 C   0  0  0  0  0  0  0  0  0  0  0  0
    6.7781  -17.2918   24.0832 O   0  0  0  0  0  0  0  0  0  0  0  0
    5.0988  -13.4244   25.5857 C   0  0  0  0  0  0  0  0  0  0  0  0
    6.5385  -12.9243   25.6433 C   0  0  2  0  0  0  0  0  0  0  0  0
    6.5931  -11.4711   26.0050 C   0  0  0  0  0  0  0  0  0  0  0  0
    7.2498  -13.1795   24.3444 C   0  0  0  0  0  0  0  0  0  0  0  0
    7.4201  -14.6184   23.9825 C   0  0  2  0  0  0  0  0  0  0  0  0
    7.6022  -15.4486   25.1640 N   0  0  0  0  0  0  0  0  0  0  0  0
    8.4542  -14.8529   22.9789 C   0  0  0  0  0  0  0  0  0  0  0  0
    8.3600  -14.3870   21.8242 O   0  0  0  0  0  0  0  0  0  0  0  0
   11.9962  -16.4981   24.0810 O   0  0  0  0  0  0  0  0  0  0  0  0
   12.0574  -15.8067   22.8716 C   0  0  0  0  0  0  0  0  0  0  0  0
   10.6711  -15.8558   22.2651 C   0  0  2  0  0  0  0  0  0  0  0  0
    9.6379  -15.6217   23.2338 N   0  0  0  0  0  0  0  0  0  0  0  0
   10.5093  -17.1679   21.6262 C   0  0  0  0  0  0  0  0  0  0  0  0
    9.6121  -17.9408   22.0373 O   0  0  0  0  0  0  0  0  0  0  0  0
   11.3121  -17.5892   20.5820 O   0  0  0  0  0  0  0  0  0  0  0  0
  2  1  1  6
  2 13  1  0
  3  2  1  0
  4  3  1  0
  4 12  1  0
  5  6  1  0
  5  4  2  0
  6  7  1  0
  7 12  2  0
  7  8  1  0
  8  9  2  0
  9 10  1  0
 11 10  2  0
 12 11  1  0
 13 14  2  0
 16 18  1  0
 16 15  1  6
 17 16  1  0
 19 18  1  1
 19 21  1  0
 20 19  1  0
 20 13  1  0
 21 22  2  0
 23 24  1  0
 25 24  1  1
 25 27  1  0
 26 25  1  0
 26 21  1  0
 27 28  2  0
 27 29  1  0
M  END
$$$$
