WLS.pdb
     RDKit          3D

 29 30  0  0  1  0  0  0  0  0999 V2000
    7.2424  -19.2092   26.5300 N   0  0  0  0  0  0  0  0  0  0  0  0
    7.9124  -17.9403   26.7384 C   0  0  1  0  0  0  0  0  0  0  0  0
    9.3673  -18.2458   27.0275 C   0  0  0  0  0  0  0  0  0  0  0  0
    9.8149  -17.6873   28.3287 C   0  0  0  0  0  0  0  0  0  0  0  0
   10.1713  -18.3656   29.4813 C   0  0  0  0  0  0  0  0  0  0  0  0
   10.5032  -17.4377   30.3941 N   0  0  0  0  0  0  0  0  0  0  0  0
   10.3842  -16.2090   29.9057 C   0  0  0  0  0  0  0  0  0  0  0  0
   10.6031  -14.9502   30.4402 C   0  0  0  0  0  0  0  0  0  0  0  0
   10.3746  -13.8711   29.6344 C   0  0  0  0  0  0  0  0  0  0  0  0
    9.9424  -13.9873   28.3332 C   0  0  0  0  0  0  0  0  0  0  0  0
    9.7243  -15.2271   27.7992 C   0  0  0  0  0  0  0  0  0  0  0  0
    9.9462  -16.3312   28.5877 C   0  0  0  0  0  0  0  0  0  0  0  0
    7.9124  -17.1816   25.4369 C   0  0  0  0  0  0  0  0  0  0  0  0
    7.8436  -17.7821   24.3347 O   0  0  0  0  0  0  0  0  0  0  0  0
    5.6185  -13.5047   25.3954 C   0  0  0  0  0  0  0  0  0  0  0  0
    7.0979  -13.1766   25.5680 C   0  0  2  0  0  0  0  0  0  0  0  0
    7.2978  -11.7250   25.8821 C   0  0  0  0  0  0  0  0  0  0  0  0
    7.8834  -13.5736   24.3500 C   0  0  0  0  0  0  0  0  0  0  0  0
    8.0482  -15.0442   24.1487 C   0  0  2  0  0  0  0  0  0  0  0  0
    7.9901  -15.7661   25.4113 N   0  0  0  0  0  0  0  0  0  0  0  0
    9.2261  -15.4009   23.3632 C   0  0  0  0  0  0  0  0  0  0  0  0
   10.3097  -14.7959   23.5014 O   0  0  0  0  0  0  0  0  0  0  0  0
    8.9465  -18.3713   20.6095 O   0  0  0  0  0  0  0  0  0  0  0  0
   10.2519  -18.2675   21.0886 C   0  0  0  0  0  0  0  0  0  0  0  0
   10.3997  -16.8765   21.6676 C   0  0  2  0  0  0  0  0  0  0  0  0
    9.2331  -16.4539   22.3895 N   0  0  0  0  0  0  0  0  0  0  0  0
   10.6959  -15.9604   20.5590 C   0  0  0  0  0  0  0  0  0  0  0  0
   11.7535  -16.1160   19.9041 O   0  0  0  0  0  0  0  0  0  0  0  0
    9.8500  -14.9253   20.2050 O   0  0  0  0  0  0  0  0  0  0  0  0
  2  1  1  6
  2 13  1  0
  3  2  1  0
  4  3  1  0
  4 12  1  0
  5  6  1  0
  5  4  2  0
  6  7  1  0
  7 12  2  0
  7  8  1  0
  8  9  2  0
  9 10  1  0
 11 10  2  0
 12 11  1  0
 13 14  2  0
 16 18  1  0
 16 15  1  6
 17 16  1  0
 19 18  1  1
 19 21  1  0
 20 19  1  0
 20 13  1  0
 21 22  2  0
 23 24  1  0
 25 24  1  6
 25 27  1  0
 26 25  1  0
 26 21  1  0
 27 28  2  0
 27 29  1  0
M  END
$$$$
