WLS.pdb
     RDKit          3D

 29 30  0  0  1  0  0  0  0  0999 V2000
    6.9449  -18.3626   24.6648 N   0  0  0  0  0  0  0  0  0  0  0  0
    7.0749  -16.9632   24.3077 C   0  0  1  0  0  0  0  0  0  0  0  0
    7.7018  -16.2567   25.4916 C   0  0  0  0  0  0  0  0  0  0  0  0
    6.9014  -15.0900   25.9429 C   0  0  0  0  0  0  0  0  0  0  0  0
    5.5301  -14.9961   26.1053 C   0  0  0  0  0  0  0  0  0  0  0  0
    5.2714  -13.7483   26.5300 N   0  0  0  0  0  0  0  0  0  0  0  0
    6.3840  -13.0342   26.6514 C   0  0  0  0  0  0  0  0  0  0  0  0
    6.6364  -11.7305   27.0450 C   0  0  0  0  0  0  0  0  0  0  0  0
    7.9366  -11.3117   27.0538 C   0  0  0  0  0  0  0  0  0  0  0  0
    8.9866  -12.1241   26.6923 C   0  0  0  0  0  0  0  0  0  0  0  0
    8.7445  -13.4123   26.3027 C   0  0  0  0  0  0  0  0  0  0  0  0
    7.4450  -13.8607   26.2842 C   0  0  0  0  0  0  0  0  0  0  0  0
    8.0806  -16.8471   23.1922 C   0  0  0  0  0  0  0  0  0  0  0  0
    8.6668  -17.8619   22.7375 O   0  0  0  0  0  0  0  0  0  0  0  0
    6.8984  -14.4840   19.8238 C   0  0  0  0  0  0  0  0  0  0  0  0
    7.7899  -13.6406   20.7295 C   0  0  2  0  0  0  0  0  0  0  0  0
    7.8011  -12.2064   20.2951 C   0  0  0  0  0  0  0  0  0  0  0  0
    9.1856  -14.1954   20.7794 C   0  0  0  0  0  0  0  0  0  0  0  0
    9.3303  -15.4937   21.5032 C   0  0  2  0  0  0  0  0  0  0  0  0
    8.3997  -15.5905   22.6181 N   0  0  0  0  0  0  0  0  0  0  0  0
   10.7023  -15.7935   21.9025 C   0  0  0  0  0  0  0  0  0  0  0  0
   11.6399  -15.7768   21.0779 O   0  0  0  0  0  0  0  0  0  0  0  0
   11.4360  -17.1548   25.6672 O   0  0  0  0  0  0  0  0  0  0  0  0
   12.5680  -16.5230   25.1535 C   0  0  0  0  0  0  0  0  0  0  0  0
   12.4063  -16.4842   23.6486 C   0  0  2  0  0  0  0  0  0  0  0  0
   11.0759  -16.1244   23.2471 N   0  0  0  0  0  0  0  0  0  0  0  0
   12.7775  -17.8049   23.1253 C   0  0  0  0  0  0  0  0  0  0  0  0
   11.9444  -18.4482   22.4445 O   0  0  0  0  0  0  0  0  0  0  0  0
   14.0176  -18.3725   23.3545 O   0  0  0  0  0  0  0  0  0  0  0  0
  2  1  1  1
  2 13  1  0
  3  2  1  0
  4  3  1  0
  4 12  1  0
  5  6  1  0
  5  4  2  0
  6  7  1  0
  7 12  2  0
  7  8  1  0
  8  9  2  0
  9 10  1  0
 11 10  2  0
 12 11  1  0
 13 14  2  0
 16 18  1  0
 16 15  1  6
 17 16  1  0
 19 18  1  1
 19 21  1  0
 20 19  1  0
 20 13  1  0
 21 22  2  0
 23 24  1  0
 25 24  1  1
 25 27  1  0
 26 25  1  0
 26 21  1  0
 27 28  2  0
 27 29  1  0
M  END
$$$$
