WLS.pdb
     RDKit          3D

 29 30  0  0  1  0  0  0  0  0999 V2000
    7.2180  -18.7062   25.3232 N   0  0  0  0  0  0  0  0  0  0  0  0
    6.9333  -17.3303   24.9648 C   0  0  1  0  0  0  0  0  0  0  0  0
    7.5810  -16.4522   26.0150 C   0  0  0  0  0  0  0  0  0  0  0  0
    6.8069  -15.2109   26.2704 C   0  0  0  0  0  0  0  0  0  0  0  0
    5.4336  -15.0376   26.2796 C   0  0  0  0  0  0  0  0  0  0  0  0
    5.2049  -13.7435   26.5576 N   0  0  0  0  0  0  0  0  0  0  0  0
    6.3384  -13.0736   26.7276 C   0  0  0  0  0  0  0  0  0  0  0  0
    6.6236  -11.7508   27.0228 C   0  0  0  0  0  0  0  0  0  0  0  0
    7.9380  -11.3944   27.1283 C   0  0  0  0  0  0  0  0  0  0  0  0
    8.9713  -12.2864   26.9550 C   0  0  0  0  0  0  0  0  0  0  0  0
    8.6968  -13.5938   26.6634 C   0  0  0  0  0  0  0  0  0  0  0  0
    7.3823  -13.9808   26.5512 C   0  0  0  0  0  0  0  0  0  0  0  0
    7.6513  -17.0142   23.6787 C   0  0  0  0  0  0  0  0  0  0  0  0
    8.6050  -17.7265   23.2748 O   0  0  0  0  0  0  0  0  0  0  0  0
    7.8938  -12.3784   19.4896 C   0  0  0  0  0  0  0  0  0  0  0  0
    8.2870  -13.7998   19.8787 C   0  0  2  0  0  0  0  0  0  0  0  0
    7.9276  -14.7758   18.7998 C   0  0  0  0  0  0  0  0  0  0  0  0
    7.6601  -14.1932   21.1865 C   0  0  0  0  0  0  0  0  0  0  0  0
    8.0359  -15.5473   21.6921 C   0  0  2  0  0  0  0  0  0  0  0  0
    7.2759  -15.9035   22.8812 N   0  0  0  0  0  0  0  0  0  0  0  0
    9.4726  -15.7251   21.8821 C   0  0  0  0  0  0  0  0  0  0  0  0
   10.1077  -15.0525   22.7209 O   0  0  0  0  0  0  0  0  0  0  0  0
   11.2360  -19.0648   21.0368 O   0  0  0  0  0  0  0  0  0  0  0  0
   12.1362  -18.1683   21.6114 C   0  0  0  0  0  0  0  0  0  0  0  0
   11.6829  -16.7775   21.2211 C   0  0  2  0  0  0  0  0  0  0  0  0
   10.2542  -16.6679   21.1356 N   0  0  0  0  0  0  0  0  0  0  0  0
   12.3163  -16.4446   19.9390 C   0  0  0  0  0  0  0  0  0  0  0  0
   11.5921  -16.1938   18.9470 O   0  0  0  0  0  0  0  0  0  0  0  0
   13.6891  -16.3963   19.7796 O   0  0  0  0  0  0  0  0  0  0  0  0
  2  1  1  1
  2 13  1  0
  3  2  1  0
  4  3  1  0
  4 12  1  0
  5  6  1  0
  5  4  2  0
  6  7  1  0
  7 12  2  0
  7  8  1  0
  8  9  2  0
  9 10  1  0
 11 10  2  0
 12 11  1  0
 13 14  2  0
 16 18  1  0
 16 15  1  6
 17 16  1  0
 19 18  1  1
 19 21  1  0
 20 19  1  0
 20 13  1  0
 21 22  2  0
 23 24  1  0
 25 24  1  6
 25 27  1  0
 26 25  1  0
 26 21  1  0
 27 28  2  0
 27 29  1  0
M  END
$$$$
