WLS.pdb
     RDKit          3D

 29 30  0  0  1  0  0  0  0  0999 V2000
    6.0175  -17.7186   24.7091 N   0  0  0  0  0  0  0  0  0  0  0  0
    6.8954  -16.5670   24.6332 C   0  0  1  0  0  0  0  0  0  0  0  0
    8.0270  -16.8030   25.6116 C   0  0  0  0  0  0  0  0  0  0  0  0
    8.2041  -15.6705   26.5557 C   0  0  0  0  0  0  0  0  0  0  0  0
    8.8943  -15.6478   27.7552 C   0  0  0  0  0  0  0  0  0  0  0  0
    8.7744  -14.4053   28.2516 N   0  0  0  0  0  0  0  0  0  0  0  0
    8.0538  -13.6283   27.4519 C   0  0  0  0  0  0  0  0  0  0  0  0
    7.6585  -12.3027   27.5211 C   0  0  0  0  0  0  0  0  0  0  0  0
    6.9011  -11.8130   26.4952 C   0  0  0  0  0  0  0  0  0  0  0  0
    6.5231  -12.5757   25.4141 C   0  0  0  0  0  0  0  0  0  0  0  0
    6.9100  -13.8851   25.3395 C   0  0  0  0  0  0  0  0  0  0  0  0
    7.6731  -14.4047   26.3583 C   0  0  0  0  0  0  0  0  0  0  0  0
    7.5394  -16.5473   23.2714 C   0  0  0  0  0  0  0  0  0  0  0  0
    7.5844  -17.5819   22.5588 O   0  0  0  0  0  0  0  0  0  0  0  0
    6.4748  -14.3901   19.7827 C   0  0  0  0  0  0  0  0  0  0  0  0
    7.3476  -13.4925   20.6537 C   0  0  2  0  0  0  0  0  0  0  0  0
    7.3875  -12.0928   20.1198 C   0  0  0  0  0  0  0  0  0  0  0  0
    8.7350  -14.0545   20.7858 C   0  0  0  0  0  0  0  0  0  0  0  0
    8.8251  -15.3752   21.4771 C   0  0  2  0  0  0  0  0  0  0  0  0
    8.1161  -15.3624   22.7482 N   0  0  0  0  0  0  0  0  0  0  0  0
   10.1901  -15.8754   21.6121 C   0  0  0  0  0  0  0  0  0  0  0  0
   10.9414  -15.9957   20.6220 O   0  0  0  0  0  0  0  0  0  0  0  0
   11.8417  -15.8108   25.1351 O   0  0  0  0  0  0  0  0  0  0  0  0
   12.5433  -16.8134   24.4665 C   0  0  0  0  0  0  0  0  0  0  0  0
   12.0987  -16.7728   23.0199 C   0  0  2  0  0  0  0  0  0  0  0  0
   10.7662  -16.2609   22.8677 N   0  0  0  0  0  0  0  0  0  0  0  0
   12.2067  -18.1343   22.4810 C   0  0  0  0  0  0  0  0  0  0  0  0
   11.1728  -18.7126   22.0711 O   0  0  0  0  0  0  0  0  0  0  0  0
   13.4110  -18.8100   22.4068 O   0  0  0  0  0  0  0  0  0  0  0  0
  2  1  1  6
  2 13  1  0
  3  2  1  0
  4  3  1  0
  4 12  1  0
  5  6  1  0
  5  4  2  0
  6  7  1  0
  7 12  2  0
  7  8  1  0
  8  9  2  0
  9 10  1  0
 11 10  2  0
 12 11  1  0
 13 14  2  0
 16 18  1  0
 16 15  1  6
 17 16  1  0
 19 18  1  1
 19 21  1  0
 20 19  1  0
 20 13  1  0
 21 22  2  0
 23 24  1  0
 25 24  1  1
 25 27  1  0
 26 25  1  0
 26 21  1  0
 27 28  2  0
 27 29  1  0
M  END
$$$$
