WLS.pdb
     RDKit          3D

 29 30  0  0  1  0  0  0  0  0999 V2000
    6.5528  -17.5888   25.0268 N   0  0  0  0  0  0  0  0  0  0  0  0
    7.0648  -16.3677   24.4356 C   0  0  1  0  0  0  0  0  0  0  0  0
    8.2122  -15.8977   25.3051 C   0  0  0  0  0  0  0  0  0  0  0  0
    7.7529  -15.0693   26.4489 C   0  0  0  0  0  0  0  0  0  0  0  0
    7.5306  -15.4560   27.7592 C   0  0  0  0  0  0  0  0  0  0  0  0
    7.1237  -14.3630   28.4255 N   0  0  0  0  0  0  0  0  0  0  0  0
    7.0697  -13.3001   27.6319 C   0  0  0  0  0  0  0  0  0  0  0  0
    6.7190  -11.9767   27.8410 C   0  0  0  0  0  0  0  0  0  0  0  0
    6.7793  -11.1286   26.7718 C   0  0  0  0  0  0  0  0  0  0  0  0
    7.1692  -11.5344   25.5162 C   0  0  0  0  0  0  0  0  0  0  0  0
    7.5169  -12.8396   25.3028 C   0  0  0  0  0  0  0  0  0  0  0  0
    7.4654  -13.7155   26.3611 C   0  0  0  0  0  0  0  0  0  0  0  0
    7.6823  -16.7052   23.1037 C   0  0  0  0  0  0  0  0  0  0  0  0
    8.0219  -17.8829   22.8245 O   0  0  0  0  0  0  0  0  0  0  0  0
    6.9980  -13.4725   21.3008 C   0  0  0  0  0  0  0  0  0  0  0  0
    8.2268  -13.5620   20.4018 C   0  0  2  0  0  0  0  0  0  0  0  0
    8.1605  -12.5572   19.2920 C   0  0  0  0  0  0  0  0  0  0  0  0
    8.3947  -14.9519   19.8557 C   0  0  0  0  0  0  0  0  0  0  0  0
    8.5951  -16.0198   20.8803 C   0  0  2  0  0  0  0  0  0  0  0  0
    7.9013  -15.7068   22.1210 N   0  0  0  0  0  0  0  0  0  0  0  0
    9.9964  -16.3635   21.1037 C   0  0  0  0  0  0  0  0  0  0  0  0
   10.7929  -15.5514   21.6188 O   0  0  0  0  0  0  0  0  0  0  0  0
   13.4590  -19.7629   21.2515 O   0  0  0  0  0  0  0  0  0  0  0  0
   12.1079  -19.5231   21.0034 C   0  0  0  0  0  0  0  0  0  0  0  0
   11.9134  -18.0220   21.0366 C   0  0  2  0  0  0  0  0  0  0  0  0
   10.5594  -17.6361   20.7566 N   0  0  0  0  0  0  0  0  0  0  0  0
   12.8432  -17.4295   20.0669 C   0  0  0  0  0  0  0  0  0  0  0  0
   12.4120  -17.0777   18.9437 O   0  0  0  0  0  0  0  0  0  0  0  0
   14.1851  -17.2424   20.3439 O   0  0  0  0  0  0  0  0  0  0  0  0
  2  1  1  1
  2 13  1  0
  3  2  1  0
  4  3  1  0
  4 12  1  0
  5  6  1  0
  5  4  2  0
  6  7  1  0
  7 12  2  0
  7  8  1  0
  8  9  2  0
  9 10  1  0
 11 10  2  0
 12 11  1  0
 13 14  2  0
 16 18  1  0
 16 15  1  6
 17 16  1  0
 19 18  1  6
 19 21  1  0
 20 19  1  0
 20 13  1  0
 21 22  2  0
 23 24  1  0
 25 24  1  6
 25 27  1  0
 26 25  1  0
 26 21  1  0
 27 28  2  0
 27 29  1  0
M  END
$$$$
