WLS.pdb
     RDKit          3D

 29 30  0  0  1  0  0  0  0  0999 V2000
    7.1868  -18.9767   25.9445 N   0  0  0  0  0  0  0  0  0  0  0  0
    7.7206  -17.6327   25.8375 C   0  0  1  0  0  0  0  0  0  0  0  0
    9.2072  -17.7196   26.1132 C   0  0  0  0  0  0  0  0  0  0  0  0
    9.5750  -17.1274   27.4245 C   0  0  0  0  0  0  0  0  0  0  0  0
    9.8838  -17.7764   28.6074 C   0  0  0  0  0  0  0  0  0  0  0  0
   10.1492  -16.8247   29.5175 N   0  0  0  0  0  0  0  0  0  0  0  0
   10.0318  -15.6082   28.9991 C   0  0  0  0  0  0  0  0  0  0  0  0
   10.1977  -14.3353   29.5191 C   0  0  0  0  0  0  0  0  0  0  0  0
    9.9907  -13.2765   28.6811 C   0  0  0  0  0  0  0  0  0  0  0  0
    9.6296  -13.4262   27.3618 C   0  0  0  0  0  0  0  0  0  0  0  0
    9.4641  -14.6801   26.8420 C   0  0  0  0  0  0  0  0  0  0  0  0
    9.6659  -15.7643   27.6628 C   0  0  0  0  0  0  0  0  0  0  0  0
    7.6035  -17.1859   24.4036 C   0  0  0  0  0  0  0  0  0  0  0  0
    7.5586  -18.0203   23.4645 O   0  0  0  0  0  0  0  0  0  0  0  0
    7.1902  -14.5141   20.1472 C   0  0  0  0  0  0  0  0  0  0  0  0
    7.2376  -13.3733   21.1584 C   0  0  2  0  0  0  0  0  0  0  0  0
    8.3416  -12.4117   20.8389 C   0  0  0  0  0  0  0  0  0  0  0  0
    7.3757  -13.9002   22.5589 C   0  0  0  0  0  0  0  0  0  0  0  0
    7.4750  -15.3859   22.6745 C   0  0  2  0  0  0  0  0  0  0  0  0
    7.5402  -15.8104   24.0652 N   0  0  0  0  0  0  0  0  0  0  0  0
    8.5455  -15.9671   21.8697 C   0  0  0  0  0  0  0  0  0  0  0  0
    8.3197  -16.4693   20.7489 O   0  0  0  0  0  0  0  0  0  0  0  0
   12.5786  -16.0212   19.8268 O   0  0  0  0  0  0  0  0  0  0  0  0
   11.5638  -15.4226   20.5727 C   0  0  0  0  0  0  0  0  0  0  0  0
   10.9960  -16.4915   21.4821 C   0  0  2  0  0  0  0  0  0  0  0  0
    9.9153  -16.0070   22.2932 N   0  0  0  0  0  0  0  0  0  0  0  0
   12.0941  -17.0001   22.3135 C   0  0  0  0  0  0  0  0  0  0  0  0
   12.0200  -16.8861   23.5597 O   0  0  0  0  0  0  0  0  0  0  0  0
   13.2152  -17.6041   21.7743 O   0  0  0  0  0  0  0  0  0  0  0  0
  2  1  1  6
  2 13  1  0
  3  2  1  0
  4  3  1  0
  4 12  1  0
  5  6  1  0
  5  4  2  0
  6  7  1  0
  7 12  2  0
  7  8  1  0
  8  9  2  0
  9 10  1  0
 11 10  2  0
 12 11  1  0
 13 14  2  0
 16 18  1  0
 16 15  1  6
 17 16  1  0
 19 18  1  1
 19 21  1  0
 20 19  1  0
 20 13  1  0
 21 22  2  0
 23 24  1  0
 25 24  1  1
 25 27  1  0
 26 25  1  0
 26 21  1  0
 27 28  2  0
 27 29  1  0
M  END
$$$$
