WLS.pdb
     RDKit          3D

 29 30  0  0  1  0  0  0  0  0999 V2000
    9.8632  -16.2108   25.3250 N   0  0  0  0  0  0  0  0  0  0  0  0
    8.7290  -17.0475   24.9845 C   0  0  1  0  0  0  0  0  0  0  0  0
    7.6672  -16.8107   26.0382 C   0  0  0  0  0  0  0  0  0  0  0  0
    7.6127  -15.3933   26.4779 C   0  0  0  0  0  0  0  0  0  0  0  0
    6.6195  -14.4570   26.2483 C   0  0  0  0  0  0  0  0  0  0  0  0
    7.0132  -13.3167   26.8392 N   0  0  0  0  0  0  0  0  0  0  0  0
    8.1923  -13.4572   27.4329 C   0  0  0  0  0  0  0  0  0  0  0  0
    8.9991  -12.5947   28.1565 C   0  0  0  0  0  0  0  0  0  0  0  0
   10.1805  -13.0847   28.6361 C   0  0  0  0  0  0  0  0  0  0  0  0
   10.5912  -14.3817   28.4301 C   0  0  0  0  0  0  0  0  0  0  0  0
    9.7996  -15.2385   27.7166 C   0  0  0  0  0  0  0  0  0  0  0  0
    8.6047  -14.7722   27.2218 C   0  0  0  0  0  0  0  0  0  0  0  0
    8.1346  -16.5436   23.6952 C   0  0  0  0  0  0  0  0  0  0  0  0
    7.1433  -17.1115   23.1710 O   0  0  0  0  0  0  0  0  0  0  0  0
    8.0300  -12.0022   19.5329 C   0  0  0  0  0  0  0  0  0  0  0  0
    7.8562  -13.4761   19.8845 C   0  0  2  0  0  0  0  0  0  0  0  0
    6.4140  -13.8797   19.8292 C   0  0  0  0  0  0  0  0  0  0  0  0
    8.4459  -13.7815   21.2326 C   0  0  0  0  0  0  0  0  0  0  0  0
    8.4845  -15.2288   21.5988 C   0  0  2  0  0  0  0  0  0  0  0  0
    8.6729  -15.4129   23.0303 N   0  0  0  0  0  0  0  0  0  0  0  0
    9.4365  -16.0080   20.8126 C   0  0  0  0  0  0  0  0  0  0  0  0
    9.1206  -16.5047   19.7113 O   0  0  0  0  0  0  0  0  0  0  0  0
   13.2873  -15.4457   19.5528 O   0  0  0  0  0  0  0  0  0  0  0  0
   13.1449  -16.3817   20.5765 C   0  0  0  0  0  0  0  0  0  0  0  0
   11.7550  -16.9679   20.4476 C   0  0  2  0  0  0  0  0  0  0  0  0
   10.7842  -16.2605   21.2335 N   0  0  0  0  0  0  0  0  0  0  0  0
   11.8275  -18.3802   20.8428 C   0  0  0  0  0  0  0  0  0  0  0  0
   11.0903  -18.7938   21.7685 O   0  0  0  0  0  0  0  0  0  0  0  0
   12.6820  -19.2792   20.2314 O   0  0  0  0  0  0  0  0  0  0  0  0
  2  1  1  1
  2 13  1  0
  3  2  1  0
  4  3  1  0
  4 12  1  0
  5  6  1  0
  5  4  2  0
  6  7  1  0
  7 12  2  0
  7  8  1  0
  8  9  2  0
  9 10  1  0
 11 10  2  0
 12 11  1  0
 13 14  2  0
 16 18  1  0
 16 15  1  1
 17 16  1  0
 19 18  1  1
 19 21  1  0
 20 19  1  0
 20 13  1  0
 21 22  2  0
 23 24  1  0
 25 24  1  1
 25 27  1  0
 26 25  1  0
 26 21  1  0
 27 28  2  0
 27 29  1  0
M  END
$$$$
