WLS.pdb
     RDKit          3D

 29 30  0  0  1  0  0  0  0  0999 V2000
    6.6706  -17.4239   25.1065 N   0  0  0  0  0  0  0  0  0  0  0  0
    7.1976  -16.1655   24.6151 C   0  0  1  0  0  0  0  0  0  0  0  0
    8.3617  -15.7899   25.5080 C   0  0  0  0  0  0  0  0  0  0  0  0
    7.9695  -14.8385   26.5787 C   0  0  0  0  0  0  0  0  0  0  0  0
    7.8397  -15.0741   27.9365 C   0  0  0  0  0  0  0  0  0  0  0  0
    7.4648  -13.9140   28.5004 N   0  0  0  0  0  0  0  0  0  0  0  0
    7.3449  -12.9490   27.5966 C   0  0  0  0  0  0  0  0  0  0  0  0
    6.9926  -11.6120   27.6773 C   0  0  0  0  0  0  0  0  0  0  0  0
    6.9712  -10.8912   26.5171 C   0  0  0  0  0  0  0  0  0  0  0  0
    7.2815  -11.4359   25.2922 C   0  0  0  0  0  0  0  0  0  0  0  0
    7.6301  -12.7553   25.2054 C   0  0  0  0  0  0  0  0  0  0  0  0
    7.6601  -13.5049   26.3574 C   0  0  0  0  0  0  0  0  0  0  0  0
    7.7957  -16.3986   23.2523 C   0  0  0  0  0  0  0  0  0  0  0  0
    7.8318  -17.5489   22.7465 O   0  0  0  0  0  0  0  0  0  0  0  0
    6.3732  -14.4878   19.8582 C   0  0  0  0  0  0  0  0  0  0  0  0
    7.5184  -13.6333   20.3915 C   0  0  2  0  0  0  0  0  0  0  0  0
    7.5976  -12.3223   19.6699 C   0  0  0  0  0  0  0  0  0  0  0  0
    8.8252  -14.3704   20.3070 C   0  0  0  0  0  0  0  0  0  0  0  0
    8.9403  -15.5681   21.1916 C   0  0  2  0  0  0  0  0  0  0  0  0
    8.3379  -15.3296   22.4949 N   0  0  0  0  0  0  0  0  0  0  0  0
   10.2996  -16.0898   21.2995 C   0  0  0  0  0  0  0  0  0  0  0  0
   10.9534  -16.4207   20.2884 O   0  0  0  0  0  0  0  0  0  0  0  0
   11.7732  -16.8520   24.9524 O   0  0  0  0  0  0  0  0  0  0  0  0
   12.8502  -16.6509   24.0898 C   0  0  0  0  0  0  0  0  0  0  0  0
   12.3140  -16.7743   22.6793 C   0  0  2  0  0  0  0  0  0  0  0  0
   10.9798  -16.2605   22.5507 N   0  0  0  0  0  0  0  0  0  0  0  0
   12.3733  -18.1919   22.3013 C   0  0  0  0  0  0  0  0  0  0  0  0
   11.3126  -18.7888   22.0011 O   0  0  0  0  0  0  0  0  0  0  0  0
   13.5601  -18.9008   22.2626 O   0  0  0  0  0  0  0  0  0  0  0  0
  2  1  1  1
  2 13  1  0
  3  2  1  0
  4  3  1  0
  4 12  1  0
  5  6  1  0
  5  4  2  0
  6  7  1  0
  7 12  2  0
  7  8  1  0
  8  9  2  0
  9 10  1  0
 11 10  2  0
 12 11  1  0
 13 14  2  0
 16 18  1  0
 16 15  1  6
 17 16  1  0
 19 18  1  6
 19 21  1  0
 20 19  1  0
 20 13  1  0
 21 22  2  0
 23 24  1  0
 25 24  1  1
 25 27  1  0
 26 25  1  0
 26 21  1  0
 27 28  2  0
 27 29  1  0
M  END
$$$$
