WLS.pdb
     RDKit          3D

 29 30  0  0  1  0  0  0  0  0999 V2000
    6.4112  -18.0440   24.8419 N   0  0  0  0  0  0  0  0  0  0  0  0
    6.9145  -16.7137   24.5599 C   0  0  1  0  0  0  0  0  0  0  0  0
    7.9299  -16.3835   25.6340 C   0  0  0  0  0  0  0  0  0  0  0  0
    7.3938  -15.4410   26.6487 C   0  0  0  0  0  0  0  0  0  0  0  0
    6.7825  -15.7302   27.8563 C   0  0  0  0  0  0  0  0  0  0  0  0
    6.4685  -14.5553   28.4267 N   0  0  0  0  0  0  0  0  0  0  0  0
    6.8369  -13.5307   27.6671 C   0  0  0  0  0  0  0  0  0  0  0  0
    6.7363  -12.1571   27.8129 C   0  0  0  0  0  0  0  0  0  0  0  0
    7.2341  -11.3752   26.8094 C   0  0  0  0  0  0  0  0  0  0  0  0
    7.8217  -11.8939   25.6785 C   0  0  0  0  0  0  0  0  0  0  0  0
    7.9243  -13.2491   25.5282 C   0  0  0  0  0  0  0  0  0  0  0  0
    7.4316  -14.0604   26.5227 C   0  0  0  0  0  0  0  0  0  0  0  0
    7.6941  -16.7619   23.2717 C   0  0  0  0  0  0  0  0  0  0  0  0
    8.0013  -17.8581   22.7387 O   0  0  0  0  0  0  0  0  0  0  0  0
    6.5393  -14.4471   19.6968 C   0  0  0  0  0  0  0  0  0  0  0  0
    7.4938  -13.6310   20.5624 C   0  0  2  0  0  0  0  0  0  0  0  0
    7.6374  -12.2335   20.0410 C   0  0  0  0  0  0  0  0  0  0  0  0
    8.8337  -14.3031   20.6677 C   0  0  0  0  0  0  0  0  0  0  0  0
    8.8301  -15.6287   21.3556 C   0  0  2  0  0  0  0  0  0  0  0  0
    8.1073  -15.5737   22.6177 N   0  0  0  0  0  0  0  0  0  0  0  0
   10.1584  -16.2157   21.5059 C   0  0  0  0  0  0  0  0  0  0  0  0
   10.9688  -15.7868   22.3537 O   0  0  0  0  0  0  0  0  0  0  0  0
   10.9544  -19.6927   19.6601 O   0  0  0  0  0  0  0  0  0  0  0  0
   11.8430  -19.4429   20.7052 C   0  0  0  0  0  0  0  0  0  0  0  0
   11.9083  -17.9402   20.8785 C   0  0  2  0  0  0  0  0  0  0  0  0
   10.6297  -17.3104   20.7081 N   0  0  0  0  0  0  0  0  0  0  0  0
   12.8860  -17.4214   19.9137 C   0  0  0  0  0  0  0  0  0  0  0  0
   14.0773  -17.8052   19.9851 O   0  0  0  0  0  0  0  0  0  0  0  0
   12.5442  -16.5200   18.9223 O   0  0  0  0  0  0  0  0  0  0  0  0
  2  1  1  1
  2 13  1  0
  3  2  1  0
  4  3  1  0
  4 12  1  0
  5  6  1  0
  5  4  2  0
  6  7  1  0
  7 12  2  0
  7  8  1  0
  8  9  2  0
  9 10  1  0
 11 10  2  0
 12 11  1  0
 13 14  2  0
 16 18  1  0
 16 15  1  6
 17 16  1  0
 19 18  1  1
 19 21  1  0
 20 19  1  0
 20 13  1  0
 21 22  2  0
 23 24  1  0
 25 24  1  6
 25 27  1  0
 26 25  1  0
 26 21  1  0
 27 28  2  0
 27 29  1  0
M  END
$$$$
