QMM.pdb
     RDKit          3D

 26 25  0  0  1  0  0  0  0  0999 V2000
    7.1244  -19.5315   17.1376 N   0  0  0  0  0  0  0  0  0  0  0  0
    6.6805  -20.5657   18.0196 C   0  0  0  0  0  0  0  0  0  0  0  0
    5.5904  -21.1059   17.7279 O   0  0  0  0  0  0  0  0  0  0  0  0
    7.4432  -20.9766   19.2030 C   0  0  0  0  0  0  0  0  0  0  0  0
    8.6978  -20.1860   19.3894 C   0  0  0  0  0  0  0  0  0  0  0  0
    8.8033  -19.6142   20.7577 C   0  0  2  0  0  0  0  0  0  0  0  0
    7.6010  -19.6113   21.5227 N   0  0  0  0  0  0  0  0  0  0  0  0
    9.3968  -18.2590   20.7564 C   0  0  0  0  0  0  0  0  0  0  0  0
   10.5516  -18.1327   20.2326 O   0  0  0  0  0  0  0  0  0  0  0  0
    6.7427  -11.8810   21.8384 C   0  0  0  0  0  0  0  0  0  0  0  0
    7.6124  -12.2141   20.2738 S   0  0  0  0  0  0  0  0  0  0  0  0
    8.9909  -13.3614   20.6499 C   0  0  0  0  0  0  0  0  0  0  0  0
    8.3723  -14.7290   20.8170 C   0  0  0  0  0  0  0  0  0  0  0  0
    9.4075  -15.7866   21.1563 C   0  0  2  0  0  0  0  0  0  0  0  0
    8.8185  -17.0957   21.2743 N   0  0  0  0  0  0  0  0  0  0  0  0
   10.1084  -15.3483   22.3722 C   0  0  0  0  0  0  0  0  0  0  0  0
   10.7332  -14.2680   22.3867 O   0  0  0  0  0  0  0  0  0  0  0  0
    6.5345  -12.1479   26.7189 C   0  0  0  0  0  0  0  0  0  0  0  0
    7.8134  -13.1442   25.8983 S   0  0  0  0  0  0  0  0  0  0  0  0
    7.1666  -14.8224   25.5938 C   0  0  0  0  0  0  0  0  0  0  0  0
    7.9505  -15.3978   24.4460 C   0  0  0  0  0  0  0  0  0  0  0  0
    9.3774  -15.6885   24.7624 C   0  0  2  0  0  0  0  0  0  0  0  0
   10.1022  -16.1198   23.5533 N   0  0  0  0  0  0  0  0  0  0  0  0
    9.6066  -16.7102   25.7927 C   0  0  0  0  0  0  0  0  0  0  0  0
   10.2738  -17.8766   25.4774 O   0  0  0  0  0  0  0  0  0  0  0  0
    9.2073  -16.5440   26.9553 O   0  0  0  0  0  0  0  0  0  0  0  0
  1  2  1  0
  2  3  2  0
  4  2  1  0
  4  5  1  0
  6  5  1  0
  6  7  1  6
  8  6  1  0
  8  9  2  0
 11 10  1  0
 12 11  1  0
 12 13  1  0
 14 13  1  1
 14 15  1  0
 15  8  1  0
 16 14  1  0
 17 16  2  0
 19 18  1  0
 19 20  1  0
 20 21  1  0
 22 23  1  0
 22 21  1  6
 23 16  1  0
 24 22  1  0
 25 24  1  0
 26 24  2  0
M  END
$$$$
