QMM.pdb
     RDKit          3D

 26 25  0  0  1  0  0  0  0  0999 V2000
   12.2473  -17.8397   16.9494 N   0  0  0  0  0  0  0  0  0  0  0  0
   10.8576  -17.7908   16.6164 C   0  0  0  0  0  0  0  0  0  0  0  0
   10.5435  -18.2597   15.4998 O   0  0  0  0  0  0  0  0  0  0  0  0
    9.8486  -17.2229   17.5166 C   0  0  0  0  0  0  0  0  0  0  0  0
   10.4155  -16.8037   18.8345 C   0  0  0  0  0  0  0  0  0  0  0  0
    9.6651  -17.3846   19.9790 C   0  0  2  0  0  0  0  0  0  0  0  0
    8.3084  -17.7335   19.7176 N   0  0  0  0  0  0  0  0  0  0  0  0
    9.7374  -16.5347   21.1880 C   0  0  0  0  0  0  0  0  0  0  0  0
   10.8467  -15.9530   21.4217 O   0  0  0  0  0  0  0  0  0  0  0  0
    6.1570  -11.9939   26.5084 C   0  0  0  0  0  0  0  0  0  0  0  0
    5.9913  -13.2303   25.1822 S   0  0  0  0  0  0  0  0  0  0  0  0
    7.6711  -13.8630   24.8136 C   0  0  0  0  0  0  0  0  0  0  0  0
    7.5214  -14.8146   23.6505 C   0  0  0  0  0  0  0  0  0  0  0  0
    8.8420  -15.4558   23.2633 C   0  0  2  0  0  0  0  0  0  0  0  0
    8.7084  -16.3033   22.1064 N   0  0  0  0  0  0  0  0  0  0  0  0
    9.3588  -16.1583   24.4471 C   0  0  0  0  0  0  0  0  0  0  0  0
    8.9226  -17.2870   24.7525 O   0  0  0  0  0  0  0  0  0  0  0  0
   10.5638  -12.8728   29.3509 C   0  0  0  0  0  0  0  0  0  0  0  0
   11.1710  -14.3795   30.1649 S   0  0  0  0  0  0  0  0  0  0  0  0
   11.0505  -15.7817   29.0044 C   0  0  0  0  0  0  0  0  0  0  0  0
   10.8183  -15.2046   27.6348 C   0  0  0  0  0  0  0  0  0  0  0  0
   10.7596  -16.2182   26.5439 C   0  0  2  0  0  0  0  0  0  0  0  0
   10.3536  -15.5928   25.2722 N   0  0  0  0  0  0  0  0  0  0  0  0
    9.8566  -17.3534   26.7765 C   0  0  0  0  0  0  0  0  0  0  0  0
   10.3679  -18.5862   27.1283 O   0  0  0  0  0  0  0  0  0  0  0  0
    8.6283  -17.2248   26.6614 O   0  0  0  0  0  0  0  0  0  0  0  0
  1  2  1  0
  2  3  2  0
  4  2  1  0
  4  5  1  0
  6  5  1  0
  6  7  1  6
  8  6  1  0
  8  9  2  0
 11 10  1  0
 12 11  1  0
 12 13  1  0
 14 13  1  1
 14 15  1  0
 15  8  1  0
 16 14  1  0
 17 16  2  0
 19 18  1  0
 19 20  1  0
 20 21  1  0
 22 23  1  0
 22 21  1  1
 23 16  1  0
 24 22  1  0
 25 24  1  0
 26 24  2  0
M  END
$$$$
