QMM.pdb
     RDKit          3D

 26 25  0  0  1  0  0  0  0  0999 V2000
    9.7275  -15.6632   16.5076 N   0  0  0  0  0  0  0  0  0  0  0  0
    8.6021  -16.5068   16.7653 C   0  0  0  0  0  0  0  0  0  0  0  0
    7.9143  -16.8243   15.7696 O   0  0  0  0  0  0  0  0  0  0  0  0
    8.2577  -16.9759   18.1115 C   0  0  0  0  0  0  0  0  0  0  0  0
    9.1564  -16.4199   19.1684 C   0  0  0  0  0  0  0  0  0  0  0  0
    9.1593  -17.2542   20.3991 C   0  0  2  0  0  0  0  0  0  0  0  0
    8.0657  -18.1572   20.5383 N   0  0  0  0  0  0  0  0  0  0  0  0
    9.2950  -16.4421   21.6284 C   0  0  0  0  0  0  0  0  0  0  0  0
   10.3260  -15.6990   21.7209 O   0  0  0  0  0  0  0  0  0  0  0  0
    6.6077  -12.0492   24.1919 C   0  0  0  0  0  0  0  0  0  0  0  0
    6.3864  -12.9203   25.7754 S   0  0  0  0  0  0  0  0  0  0  0  0
    7.5187  -14.3611   25.7679 C   0  0  0  0  0  0  0  0  0  0  0  0
    7.3237  -15.0482   24.4373 C   0  0  0  0  0  0  0  0  0  0  0  0
    8.6194  -15.6282   23.8986 C   0  0  2  0  0  0  0  0  0  0  0  0
    8.4040  -16.4063   22.7058 N   0  0  0  0  0  0  0  0  0  0  0  0
    9.2525  -16.3876   24.9867 C   0  0  0  0  0  0  0  0  0  0  0  0
    8.6278  -17.2980   25.5686 O   0  0  0  0  0  0  0  0  0  0  0  0
   10.0553  -14.6045   30.4327 C   0  0  0  0  0  0  0  0  0  0  0  0
   10.1998  -13.4127   29.0688 S   0  0  0  0  0  0  0  0  0  0  0  0
   10.7932  -14.2755   27.5752 C   0  0  0  0  0  0  0  0  0  0  0  0
   10.6262  -15.7503   27.8196 C   0  0  0  0  0  0  0  0  0  0  0  0
   11.0916  -16.6145   26.6982 C   0  0  2  0  0  0  0  0  0  0  0  0
   10.5718  -16.1217   25.4097 N   0  0  0  0  0  0  0  0  0  0  0  0
   10.7309  -18.0352   26.7962 C   0  0  0  0  0  0  0  0  0  0  0  0
   11.7102  -18.9881   26.9914 O   0  0  0  0  0  0  0  0  0  0  0  0
    9.5490  -18.4006   26.7058 O   0  0  0  0  0  0  0  0  0  0  0  0
  1  2  1  0
  2  3  2  0
  4  2  1  0
  4  5  1  0
  6  5  1  0
  6  7  1  1
  8  6  1  0
  8  9  2  0
 11 10  1  0
 12 11  1  0
 12 13  1  0
 14 13  1  1
 14 15  1  0
 15  8  1  0
 16 14  1  0
 17 16  2  0
 19 18  1  0
 19 20  1  0
 20 21  1  0
 22 23  1  0
 22 21  1  1
 23 16  1  0
 24 22  1  0
 25 24  1  0
 26 24  2  0
M  END
$$$$
