QMM.pdb
     RDKit          3D

 26 25  0  0  1  0  0  0  0  0999 V2000
    9.3501  -20.3830   21.2309 N   0  0  0  0  0  0  0  0  0  0  0  0
    9.7004  -20.1358   19.8669 C   0  0  0  0  0  0  0  0  0  0  0  0
   10.2689  -21.0750   19.2669 O   0  0  0  0  0  0  0  0  0  0  0  0
    9.4220  -18.8606   19.1980 C   0  0  0  0  0  0  0  0  0  0  0  0
    8.5961  -17.9350   20.0317 C   0  0  0  0  0  0  0  0  0  0  0  0
    9.1191  -16.5434   20.0118 C   0  0  2  0  0  0  0  0  0  0  0  0
   10.3030  -16.3371   19.2460 N   0  0  0  0  0  0  0  0  0  0  0  0
    9.3031  -15.9927   21.3727 C   0  0  0  0  0  0  0  0  0  0  0  0
   10.4989  -15.8988   21.8029 O   0  0  0  0  0  0  0  0  0  0  0  0
    6.4212  -11.8595   27.4558 C   0  0  0  0  0  0  0  0  0  0  0  0
    6.0872  -12.7052   25.8782 S   0  0  0  0  0  0  0  0  0  0  0  0
    7.5917  -13.6550   25.4397 C   0  0  0  0  0  0  0  0  0  0  0  0
    7.3312  -14.2605   24.0809 C   0  0  0  0  0  0  0  0  0  0  0  0
    8.5437  -14.9991   23.5426 C   0  0  2  0  0  0  0  0  0  0  0  0
    8.2944  -15.5629   22.2409 N   0  0  0  0  0  0  0  0  0  0  0  0
    8.9378  -15.9976   24.5473 C   0  0  0  0  0  0  0  0  0  0  0  0
    8.3757  -17.1111   24.5859 O   0  0  0  0  0  0  0  0  0  0  0  0
    9.8963  -13.6099   29.8702 C   0  0  0  0  0  0  0  0  0  0  0  0
   10.4749  -14.2027   28.2531 S   0  0  0  0  0  0  0  0  0  0  0  0
   11.2578  -15.8377   28.4556 C   0  0  0  0  0  0  0  0  0  0  0  0
   11.7119  -16.2834   27.0925 C   0  0  0  0  0  0  0  0  0  0  0  0
   10.6240  -16.8260   26.2306 C   0  0  2  0  0  0  0  0  0  0  0  0
    9.9522  -15.7403   25.4934 N   0  0  0  0  0  0  0  0  0  0  0  0
    9.5791  -17.5882   26.9271 C   0  0  0  0  0  0  0  0  0  0  0  0
    8.2678  -17.1588   26.8938 O   0  0  0  0  0  0  0  0  0  0  0  0
    9.8549  -18.6232   27.5528 O   0  0  0  0  0  0  0  0  0  0  0  0
  1  2  1  0
  2  3  2  0
  4  2  1  0
  4  5  1  0
  6  5  1  0
  6  7  1  1
  8  6  1  0
  8  9  2  0
 11 10  1  0
 12 11  1  0
 12 13  1  0
 14 13  1  1
 14 15  1  0
 15  8  1  0
 16 14  1  0
 17 16  2  0
 19 18  1  0
 19 20  1  0
 20 21  1  0
 22 23  1  0
 22 21  1  1
 23 16  1  0
 24 22  1  0
 25 24  1  0
 26 24  2  0
M  END
$$$$
