QMM.pdb
     RDKit          3D

 26 25  0  0  1  0  0  0  0  0999 V2000
    8.4290  -12.9945   16.9097 N   0  0  0  0  0  0  0  0  0  0  0  0
    7.7583  -13.9537   17.7310 C   0  0  0  0  0  0  0  0  0  0  0  0
    6.8281  -14.5885   17.1861 O   0  0  0  0  0  0  0  0  0  0  0  0
    8.1232  -14.1873   19.1322 C   0  0  0  0  0  0  0  0  0  0  0  0
    9.4614  -14.8354   19.2841 C   0  0  0  0  0  0  0  0  0  0  0  0
    9.4532  -15.9058   20.3159 C   0  0  2  0  0  0  0  0  0  0  0  0
    8.4467  -16.9034   20.1660 N   0  0  0  0  0  0  0  0  0  0  0  0
    9.4145  -15.3609   21.6908 C   0  0  0  0  0  0  0  0  0  0  0  0
   10.3007  -14.4981   21.9973 O   0  0  0  0  0  0  0  0  0  0  0  0
    7.6930  -11.1686   26.4458 C   0  0  0  0  0  0  0  0  0  0  0  0
    6.5019  -12.3858   25.8014 S   0  0  0  0  0  0  0  0  0  0  0  0
    7.3057  -14.0306   25.8820 C   0  0  0  0  0  0  0  0  0  0  0  0
    7.2337  -14.6078   24.4883 C   0  0  0  0  0  0  0  0  0  0  0  0
    8.5639  -15.1863   24.0401 C   0  0  2  0  0  0  0  0  0  0  0  0
    8.5010  -15.6974   22.6950 N   0  0  0  0  0  0  0  0  0  0  0  0
    8.9664  -16.1948   25.0313 C   0  0  0  0  0  0  0  0  0  0  0  0
    8.2718  -17.2158   25.2118 O   0  0  0  0  0  0  0  0  0  0  0  0
    9.4245  -13.4687   28.7130 C   0  0  0  0  0  0  0  0  0  0  0  0
    9.8935  -14.6896   29.9742 S   0  0  0  0  0  0  0  0  0  0  0  0
   10.7743  -16.0729   29.1755 C   0  0  0  0  0  0  0  0  0  0  0  0
    9.8427  -16.6582   28.1497 C   0  0  0  0  0  0  0  0  0  0  0  0
   10.4976  -17.0163   26.8599 C   0  0  2  0  0  0  0  0  0  0  0  0
   10.1366  -16.0507   25.8060 N   0  0  0  0  0  0  0  0  0  0  0  0
   10.1943  -18.3571   26.3417 C   0  0  0  0  0  0  0  0  0  0  0  0
   11.1140  -19.3775   26.4757 O   0  0  0  0  0  0  0  0  0  0  0  0
    9.1146  -18.5937   25.7787 O   0  0  0  0  0  0  0  0  0  0  0  0
  1  2  1  0
  2  3  2  0
  4  2  1  0
  4  5  1  0
  6  5  1  0
  6  7  1  6
  8  6  1  0
  8  9  2  0
 11 10  1  0
 12 11  1  0
 12 13  1  0
 14 13  1  1
 14 15  1  0
 15  8  1  0
 16 14  1  0
 17 16  2  0
 19 18  1  0
 19 20  1  0
 20 21  1  0
 22 23  1  0
 22 21  1  1
 23 16  1  0
 24 22  1  0
 25 24  1  0
 26 24  2  0
M  END
$$$$
