QMM.pdb
     RDKit          3D

 26 25  0  0  1  0  0  0  0  0999 V2000
    8.4190  -18.4563   16.9213 N   0  0  0  0  0  0  0  0  0  0  0  0
    7.2424  -17.9147   17.5271 C   0  0  0  0  0  0  0  0  0  0  0  0
    6.1855  -18.0216   16.8663 O   0  0  0  0  0  0  0  0  0  0  0  0
    7.2581  -17.2644   18.8416 C   0  0  0  0  0  0  0  0  0  0  0  0
    8.6321  -17.1542   19.4193 C   0  0  0  0  0  0  0  0  0  0  0  0
    8.6694  -17.5347   20.8561 C   0  0  2  0  0  0  0  0  0  0  0  0
    7.5485  -18.2761   21.3303 N   0  0  0  0  0  0  0  0  0  0  0  0
    8.9080  -16.3720   21.7394 C   0  0  0  0  0  0  0  0  0  0  0  0
    9.9540  -15.6795   21.5157 O   0  0  0  0  0  0  0  0  0  0  0  0
    5.3657  -11.1322   25.4209 C   0  0  0  0  0  0  0  0  0  0  0  0
    5.9502  -12.7053   26.1275 S   0  0  0  0  0  0  0  0  0  0  0  0
    7.5115  -13.1403   25.2724 C   0  0  0  0  0  0  0  0  0  0  0  0
    7.1785  -14.2709   24.3282 C   0  0  0  0  0  0  0  0  0  0  0  0
    8.4168  -14.8393   23.6584 C   0  0  2  0  0  0  0  0  0  0  0  0
    8.1001  -15.9527   22.8012 N   0  0  0  0  0  0  0  0  0  0  0  0
    9.3817  -15.1714   24.7169 C   0  0  0  0  0  0  0  0  0  0  0  0
    9.7111  -14.3151   25.5630 O   0  0  0  0  0  0  0  0  0  0  0  0
   11.7032  -14.6736   29.8421 C   0  0  0  0  0  0  0  0  0  0  0  0
   10.1190  -15.4557   29.4179 S   0  0  0  0  0  0  0  0  0  0  0  0
   10.4367  -17.0193   28.5338 C   0  0  0  0  0  0  0  0  0  0  0  0
    9.7475  -16.9223   27.2003 C   0  0  0  0  0  0  0  0  0  0  0  0
   10.6725  -16.8937   26.0323 C   0  0  2  0  0  0  0  0  0  0  0  0
    9.9645  -16.4523   24.8169 N   0  0  0  0  0  0  0  0  0  0  0  0
   11.3331  -18.1660   25.7111 C   0  0  0  0  0  0  0  0  0  0  0  0
   12.2729  -18.6967   26.5714 O   0  0  0  0  0  0  0  0  0  0  0  0
   11.0601  -18.7807   24.6688 O   0  0  0  0  0  0  0  0  0  0  0  0
  1  2  1  0
  2  3  2  0
  4  2  1  0
  4  5  1  0
  6  5  1  0
  6  7  1  1
  8  6  1  0
  8  9  2  0
 11 10  1  0
 12 11  1  0
 12 13  1  0
 14 13  1  1
 14 15  1  0
 15  8  1  0
 16 14  1  0
 17 16  2  0
 19 18  1  0
 19 20  1  0
 20 21  1  0
 22 23  1  0
 22 21  1  1
 23 16  1  0
 24 22  1  0
 25 24  1  0
 26 24  2  0
M  END
$$$$
