QMM.pdb
     RDKit          3D

 26 25  0  0  1  0  0  0  0  0999 V2000
    9.1235  -12.5075   17.5364 N   0  0  0  0  0  0  0  0  0  0  0  0
    8.2952  -13.6179   17.1823 C   0  0  0  0  0  0  0  0  0  0  0  0
    8.1144  -13.7999   15.9578 O   0  0  0  0  0  0  0  0  0  0  0  0
    7.6820  -14.4974   18.1831 C   0  0  0  0  0  0  0  0  0  0  0  0
    8.0038  -14.0948   19.5860 C   0  0  0  0  0  0  0  0  0  0  0  0
    8.2594  -15.2682   20.4625 C   0  0  2  0  0  0  0  0  0  0  0  0
    7.2326  -16.2559   20.4910 N   0  0  0  0  0  0  0  0  0  0  0  0
    8.6087  -14.8719   21.8445 C   0  0  0  0  0  0  0  0  0  0  0  0
    9.7550  -14.3449   22.0239 O   0  0  0  0  0  0  0  0  0  0  0  0
    5.0717  -12.2248   27.0614 C   0  0  0  0  0  0  0  0  0  0  0  0
    6.8513  -11.9032   26.8492 S   0  0  0  0  0  0  0  0  0  0  0  0
    7.6510  -13.5034   26.4520 C   0  0  0  0  0  0  0  0  0  0  0  0
    7.1949  -13.8728   25.0605 C   0  0  0  0  0  0  0  0  0  0  0  0
    8.2380  -14.6857   24.3145 C   0  0  2  0  0  0  0  0  0  0  0  0
    7.8067  -15.0177   22.9809 N   0  0  0  0  0  0  0  0  0  0  0  0
    8.5559  -15.8623   25.1369 C   0  0  0  0  0  0  0  0  0  0  0  0
    7.7007  -16.7515   25.3250 O   0  0  0  0  0  0  0  0  0  0  0  0
   11.9289  -16.8865   22.5946 C   0  0  0  0  0  0  0  0  0  0  0  0
   12.1582  -18.5063   23.3851 S   0  0  0  0  0  0  0  0  0  0  0  0
   10.8549  -18.7558   24.6368 C   0  0  0  0  0  0  0  0  0  0  0  0
   11.2673  -17.9906   25.8645 C   0  0  0  0  0  0  0  0  0  0  0  0
   10.1610  -17.2346   26.5165 C   0  0  2  0  0  0  0  0  0  0  0  0
    9.8217  -16.0304   25.7367 N   0  0  0  0  0  0  0  0  0  0  0  0
   10.4129  -16.8002   27.8971 C   0  0  0  0  0  0  0  0  0  0  0  0
   10.5834  -17.7346   28.8986 O   0  0  0  0  0  0  0  0  0  0  0  0
   10.4760  -15.5952   28.1848 O   0  0  0  0  0  0  0  0  0  0  0  0
  1  2  1  0
  2  3  2  0
  4  2  1  0
  4  5  1  0
  6  5  1  0
  6  7  1  1
  8  6  1  0
  8  9  2  0
 11 10  1  0
 12 11  1  0
 12 13  1  0
 14 13  1  1
 14 15  1  0
 15  8  1  0
 16 14  1  0
 17 16  2  0
 19 18  1  0
 19 20  1  0
 20 21  1  0
 22 23  1  0
 22 21  1  6
 23 16  1  0
 24 22  1  0
 25 24  1  0
 26 24  2  0
M  END
$$$$
