QMM.pdb
     RDKit          3D

 26 25  0  0  1  0  0  0  0  0999 V2000
    9.4234  -18.1914   16.7259 N   0  0  0  0  0  0  0  0  0  0  0  0
    8.3404  -17.4719   17.3208 C   0  0  0  0  0  0  0  0  0  0  0  0
    7.6604  -16.7631   16.5458 O   0  0  0  0  0  0  0  0  0  0  0  0
    8.0351  -17.5452   18.7535 C   0  0  0  0  0  0  0  0  0  0  0  0
    8.9451  -18.4702   19.4951 C   0  0  0  0  0  0  0  0  0  0  0  0
    8.6982  -18.4452   20.9611 C   0  0  2  0  0  0  0  0  0  0  0  0
    7.3876  -18.8210   21.3754 N   0  0  0  0  0  0  0  0  0  0  0  0
    9.0605  -17.1464   21.5700 C   0  0  0  0  0  0  0  0  0  0  0  0
   10.2285  -16.6984   21.3272 O   0  0  0  0  0  0  0  0  0  0  0  0
    5.8360  -13.4714   26.1673 C   0  0  0  0  0  0  0  0  0  0  0  0
    6.4507  -12.2829   24.9324 S   0  0  0  0  0  0  0  0  0  0  0  0
    7.9406  -13.0196   24.1610 C   0  0  0  0  0  0  0  0  0  0  0  0
    7.5172  -14.3630   23.6161 C   0  0  0  0  0  0  0  0  0  0  0  0
    8.6736  -15.1100   22.9757 C   0  0  2  0  0  0  0  0  0  0  0  0
    8.2492  -16.3555   22.3900 N   0  0  0  0  0  0  0  0  0  0  0  0
    9.7193  -15.2694   23.9968 C   0  0  0  0  0  0  0  0  0  0  0  0
   10.4267  -14.2981   24.3339 O   0  0  0  0  0  0  0  0  0  0  0  0
   10.2905  -12.9934   28.6492 C   0  0  0  0  0  0  0  0  0  0  0  0
    9.6870  -14.5735   29.3131 S   0  0  0  0  0  0  0  0  0  0  0  0
   10.4217  -15.9462   28.3626 C   0  0  0  0  0  0  0  0  0  0  0  0
    9.8169  -15.9054   26.9859 C   0  0  0  0  0  0  0  0  0  0  0  0
   10.6226  -16.5985   25.9412 C   0  0  2  0  0  0  0  0  0  0  0  0
    9.9607  -16.5083   24.6270 N   0  0  0  0  0  0  0  0  0  0  0  0
   10.9014  -18.0193   26.1895 C   0  0  0  0  0  0  0  0  0  0  0  0
   11.9615  -18.3886   26.9927 O   0  0  0  0  0  0  0  0  0  0  0  0
   10.1946  -18.9053   25.6854 O   0  0  0  0  0  0  0  0  0  0  0  0
  1  2  1  0
  2  3  2  0
  4  2  1  0
  4  5  1  0
  6  5  1  0
  6  7  1  6
  8  6  1  0
  8  9  2  0
 11 10  1  0
 12 11  1  0
 12 13  1  0
 14 13  1  1
 14 15  1  0
 15  8  1  0
 16 14  1  0
 17 16  2  0
 19 18  1  0
 19 20  1  0
 20 21  1  0
 22 23  1  0
 22 21  1  1
 23 16  1  0
 24 22  1  0
 25 24  1  0
 26 24  2  0
M  END
$$$$
