QMM.pdb
     RDKit          3D

 26 25  0  0  1  0  0  0  0  0999 V2000
    7.5537  -18.4150   17.2036 N   0  0  0  0  0  0  0  0  0  0  0  0
    7.6092  -16.9997   17.0076 C   0  0  0  0  0  0  0  0  0  0  0  0
    7.2846  -16.5894   15.8711 O   0  0  0  0  0  0  0  0  0  0  0  0
    8.0252  -16.0712   18.0640 C   0  0  0  0  0  0  0  0  0  0  0  0
    9.3561  -16.4161   18.6501 C   0  0  0  0  0  0  0  0  0  0  0  0
    9.2301  -17.2004   19.9069 C   0  0  2  0  0  0  0  0  0  0  0  0
    8.0289  -17.9539   20.0495 N   0  0  0  0  0  0  0  0  0  0  0  0
    9.4433  -16.3690   21.1121 C   0  0  0  0  0  0  0  0  0  0  0  0
   10.5542  -15.7510   21.2005 O   0  0  0  0  0  0  0  0  0  0  0  0
    6.4817  -11.6231   25.9472 C   0  0  0  0  0  0  0  0  0  0  0  0
    6.3721  -13.4403   25.9102 S   0  0  0  0  0  0  0  0  0  0  0  0
    7.9640  -14.0692   25.2559 C   0  0  0  0  0  0  0  0  0  0  0  0
    7.6274  -14.8854   24.0306 C   0  0  0  0  0  0  0  0  0  0  0  0
    8.8655  -15.4754   23.3793 C   0  0  2  0  0  0  0  0  0  0  0  0
    8.5468  -16.1911   22.1707 N   0  0  0  0  0  0  0  0  0  0  0  0
    9.5466  -16.3018   24.3868 C   0  0  0  0  0  0  0  0  0  0  0  0
    9.0444  -17.3803   24.7637 O   0  0  0  0  0  0  0  0  0  0  0  0
   10.3886  -13.1839   29.0538 C   0  0  0  0  0  0  0  0  0  0  0  0
   10.6693  -14.7510   29.9294 S   0  0  0  0  0  0  0  0  0  0  0  0
   11.2158  -16.0182   28.7365 C   0  0  0  0  0  0  0  0  0  0  0  0
   10.8618  -15.5161   27.3634 C   0  0  0  0  0  0  0  0  0  0  0  0
   11.2335  -16.4425   26.2569 C   0  0  2  0  0  0  0  0  0  0  0  0
   10.7766  -15.9142   24.9586 N   0  0  0  0  0  0  0  0  0  0  0  0
   10.7179  -17.8132   26.3727 C   0  0  0  0  0  0  0  0  0  0  0  0
   11.5914  -18.8785   26.4588 O   0  0  0  0  0  0  0  0  0  0  0  0
    9.4978  -18.0356   26.3948 O   0  0  0  0  0  0  0  0  0  0  0  0
  1  2  1  0
  2  3  2  0
  4  2  1  0
  4  5  1  0
  6  5  1  0
  6  7  1  1
  8  6  1  0
  8  9  2  0
 11 10  1  0
 12 11  1  0
 12 13  1  0
 14 13  1  1
 14 15  1  0
 15  8  1  0
 16 14  1  0
 17 16  2  0
 19 18  1  0
 19 20  1  0
 20 21  1  0
 22 23  1  0
 22 21  1  1
 23 16  1  0
 24 22  1  0
 25 24  1  0
 26 24  2  0
M  END
$$$$
