QMM.pdb
     RDKit          3D

 26 25  0  0  1  0  0  0  0  0999 V2000
   12.3942  -16.6309   17.6875 N   0  0  0  0  0  0  0  0  0  0  0  0
   11.2159  -17.4359   17.5979 C   0  0  0  0  0  0  0  0  0  0  0  0
   11.3802  -18.6062   17.1869 O   0  0  0  0  0  0  0  0  0  0  0  0
    9.8859  -16.9330   17.9570 C   0  0  0  0  0  0  0  0  0  0  0  0
    9.8526  -16.2883   19.3050 C   0  0  0  0  0  0  0  0  0  0  0  0
    9.6636  -17.2794   20.3970 C   0  0  2  0  0  0  0  0  0  0  0  0
    8.4644  -18.0470   20.3368 N   0  0  0  0  0  0  0  0  0  0  0  0
    9.7990  -16.6703   21.7385 C   0  0  0  0  0  0  0  0  0  0  0  0
   10.7934  -15.8957   21.9255 O   0  0  0  0  0  0  0  0  0  0  0  0
    6.6787  -11.6243   24.8059 C   0  0  0  0  0  0  0  0  0  0  0  0
    7.0066  -13.2814   25.4854 S   0  0  0  0  0  0  0  0  0  0  0  0
    7.3985  -14.3818   24.0736 C   0  0  0  0  0  0  0  0  0  0  0  0
    7.8011  -15.7101   24.6688 C   0  0  0  0  0  0  0  0  0  0  0  0
    9.1180  -16.2132   24.1050 C   0  0  2  0  0  0  0  0  0  0  0  0
    8.9439  -16.8586   22.8292 N   0  0  0  0  0  0  0  0  0  0  0  0
    9.7338  -17.0801   25.1204 C   0  0  0  0  0  0  0  0  0  0  0  0
    9.2065  -18.1694   25.4251 O   0  0  0  0  0  0  0  0  0  0  0  0
    8.8576  -13.0076   28.4219 C   0  0  0  0  0  0  0  0  0  0  0  0
   10.1913  -13.8109   29.3586 S   0  0  0  0  0  0  0  0  0  0  0  0
   11.1983  -14.8243   28.2244 C   0  0  0  0  0  0  0  0  0  0  0  0
   10.5333  -16.1698   28.1236 C   0  0  0  0  0  0  0  0  0  0  0  0
   11.1946  -17.1114   27.1766 C   0  0  2  0  0  0  0  0  0  0  0  0
   10.9275  -16.7203   25.7805 N   0  0  0  0  0  0  0  0  0  0  0  0
   10.8134  -18.5237   27.3115 C   0  0  0  0  0  0  0  0  0  0  0  0
    9.5669  -18.9488   26.8984 O   0  0  0  0  0  0  0  0  0  0  0  0
   11.5991  -19.3526   27.7957 O   0  0  0  0  0  0  0  0  0  0  0  0
  1  2  1  0
  2  3  2  0
  4  2  1  0
  4  5  1  0
  6  5  1  0
  6  7  1  1
  8  6  1  0
  8  9  2  0
 11 10  1  0
 12 11  1  0
 12 13  1  0
 14 13  1  1
 14 15  1  0
 15  8  1  0
 16 14  1  0
 17 16  2  0
 19 18  1  0
 19 20  1  0
 20 21  1  0
 22 23  1  0
 22 21  1  1
 23 16  1  0
 24 22  1  0
 25 24  1  0
 26 24  2  0
M  END
$$$$
