QMM.pdb
     RDKit          3D

 26 25  0  0  1  0  0  0  0  0999 V2000
    7.9902  -12.6246   18.7655 N   0  0  0  0  0  0  0  0  0  0  0  0
    8.1299  -13.7179   17.8546 C   0  0  0  0  0  0  0  0  0  0  0  0
    7.1908  -13.8811   17.0442 O   0  0  0  0  0  0  0  0  0  0  0  0
    9.2957  -14.6077   17.8608 C   0  0  0  0  0  0  0  0  0  0  0  0
   10.0219  -14.6054   19.1672 C   0  0  0  0  0  0  0  0  0  0  0  0
    9.7350  -15.8225   19.9714 C   0  0  2  0  0  0  0  0  0  0  0  0
    8.6107  -16.5914   19.5525 N   0  0  0  0  0  0  0  0  0  0  0  0
    9.6273  -15.5284   21.4174 C   0  0  0  0  0  0  0  0  0  0  0  0
   10.5791  -14.8668   21.9465 O   0  0  0  0  0  0  0  0  0  0  0  0
    6.4165  -12.1879   26.7781 C   0  0  0  0  0  0  0  0  0  0  0  0
    6.7452  -12.9778   25.1709 S   0  0  0  0  0  0  0  0  0  0  0  0
    6.9178  -14.7770   25.4728 C   0  0  0  0  0  0  0  0  0  0  0  0
    7.0432  -15.4259   24.1149 C   0  0  0  0  0  0  0  0  0  0  0  0
    8.4857  -15.4964   23.6464 C   0  0  2  0  0  0  0  0  0  0  0  0
    8.5831  -15.9043   22.2684 N   0  0  0  0  0  0  0  0  0  0  0  0
    9.2105  -16.3801   24.5712 C   0  0  0  0  0  0  0  0  0  0  0  0
    9.1228  -17.6200   24.4596 O   0  0  0  0  0  0  0  0  0  0  0  0
   10.0513  -13.6416   29.3876 C   0  0  0  0  0  0  0  0  0  0  0  0
   11.1267  -13.3299   27.9566 S   0  0  0  0  0  0  0  0  0  0  0  0
   12.0428  -14.8534   27.5480 C   0  0  0  0  0  0  0  0  0  0  0  0
   11.1091  -16.0088   27.7847 C   0  0  0  0  0  0  0  0  0  0  0  0
   10.7288  -16.7529   26.5508 C   0  0  2  0  0  0  0  0  0  0  0  0
   10.0221  -15.8691   25.6058 N   0  0  0  0  0  0  0  0  0  0  0  0
    9.8812  -17.9353   26.7551 C   0  0  0  0  0  0  0  0  0  0  0  0
   10.4366  -19.1987   26.7379 O   0  0  0  0  0  0  0  0  0  0  0  0
    8.6609  -17.8197   26.9449 O   0  0  0  0  0  0  0  0  0  0  0  0
  1  2  1  0
  2  3  2  0
  4  2  1  0
  4  5  1  0
  6  5  1  0
  6  7  1  6
  8  6  1  0
  8  9  2  0
 11 10  1  0
 12 11  1  0
 12 13  1  0
 14 13  1  1
 14 15  1  0
 15  8  1  0
 16 14  1  0
 17 16  2  0
 19 18  1  0
 19 20  1  0
 20 21  1  0
 22 23  1  0
 22 21  1  1
 23 16  1  0
 24 22  1  0
 25 24  1  0
 26 24  2  0
M  END
$$$$
