QMM.pdb
     RDKit          3D

 26 25  0  0  1  0  0  0  0  0999 V2000
    8.3830  -12.7632   16.7475 N   0  0  0  0  0  0  0  0  0  0  0  0
    8.0404  -14.1375   16.9437 C   0  0  0  0  0  0  0  0  0  0  0  0
    7.8366  -14.8063   15.9061 O   0  0  0  0  0  0  0  0  0  0  0  0
    7.9250  -14.7409   18.2754 C   0  0  0  0  0  0  0  0  0  0  0  0
    9.2186  -14.7494   19.0239 C   0  0  0  0  0  0  0  0  0  0  0  0
    9.2902  -15.8604   20.0092 C   0  0  2  0  0  0  0  0  0  0  0  0
    8.3729  -16.9315   19.8034 N   0  0  0  0  0  0  0  0  0  0  0  0
    9.1916  -15.3807   21.4054 C   0  0  0  0  0  0  0  0  0  0  0  0
   10.1114  -14.6003   21.8161 O   0  0  0  0  0  0  0  0  0  0  0  0
    6.4353  -11.8367   26.7346 C   0  0  0  0  0  0  0  0  0  0  0  0
    6.7173  -12.7348   25.1760 S   0  0  0  0  0  0  0  0  0  0  0  0
    6.5690  -14.5240   25.5432 C   0  0  0  0  0  0  0  0  0  0  0  0
    6.7009  -15.2418   24.2210 C   0  0  0  0  0  0  0  0  0  0  0  0
    8.1013  -15.1268   23.6458 C   0  0  2  0  0  0  0  0  0  0  0  0
    8.1881  -15.6979   22.3264 N   0  0  0  0  0  0  0  0  0  0  0  0
    9.0290  -15.7365   24.6098 C   0  0  0  0  0  0  0  0  0  0  0  0
    9.2964  -16.9538   24.5463 O   0  0  0  0  0  0  0  0  0  0  0  0
   11.0261  -15.1422   31.9632 C   0  0  0  0  0  0  0  0  0  0  0  0
   11.2696  -14.2315   30.4099 S   0  0  0  0  0  0  0  0  0  0  0  0
   11.3095  -15.4115   29.0195 C   0  0  0  0  0  0  0  0  0  0  0  0
   10.5839  -14.7669   27.8702 C   0  0  0  0  0  0  0  0  0  0  0  0
   10.5240  -15.6014   26.6371 C   0  0  2  0  0  0  0  0  0  0  0  0
    9.6449  -14.9807   25.6294 N   0  0  0  0  0  0  0  0  0  0  0  0
   10.0609  -16.9829   26.8242 C   0  0  0  0  0  0  0  0  0  0  0  0
    8.7122  -17.2535   26.9386 O   0  0  0  0  0  0  0  0  0  0  0  0
   10.8677  -17.9233   26.8824 O   0  0  0  0  0  0  0  0  0  0  0  0
  1  2  1  0
  2  3  2  0
  4  2  1  0
  4  5  1  0
  6  5  1  0
  6  7  1  6
  8  6  1  0
  8  9  2  0
 11 10  1  0
 12 11  1  0
 12 13  1  0
 14 13  1  1
 14 15  1  0
 15  8  1  0
 16 14  1  0
 17 16  2  0
 19 18  1  0
 19 20  1  0
 20 21  1  0
 22 23  1  0
 22 21  1  1
 23 16  1  0
 24 22  1  0
 25 24  1  0
 26 24  2  0
M  END
$$$$
