QMM.pdb
     RDKit          3D

 26 25  0  0  1  0  0  0  0  0999 V2000
   11.1798  -17.7612   16.8935 N   0  0  0  0  0  0  0  0  0  0  0  0
    9.8021  -18.0793   17.1059 C   0  0  0  0  0  0  0  0  0  0  0  0
    9.0951  -18.1727   16.0779 O   0  0  0  0  0  0  0  0  0  0  0  0
    9.2346  -18.2814   18.4431 C   0  0  0  0  0  0  0  0  0  0  0  0
   10.2326  -18.0722   19.5359 C   0  0  0  0  0  0  0  0  0  0  0  0
    9.6333  -18.2479   20.8851 C   0  0  2  0  0  0  0  0  0  0  0  0
    8.2938  -18.7336   20.9098 N   0  0  0  0  0  0  0  0  0  0  0  0
    9.7352  -17.0234   21.7092 C   0  0  0  0  0  0  0  0  0  0  0  0
   10.8731  -16.4522   21.7600 O   0  0  0  0  0  0  0  0  0  0  0  0
    6.4693  -11.6448   26.4406 C   0  0  0  0  0  0  0  0  0  0  0  0
    6.3462  -13.2477   25.5857 S   0  0  0  0  0  0  0  0  0  0  0  0
    7.6903  -13.3067   24.3415 C   0  0  0  0  0  0  0  0  0  0  0  0
    7.5293  -14.6142   23.6033 C   0  0  0  0  0  0  0  0  0  0  0  0
    8.8664  -15.2175   23.2115 C   0  0  2  0  0  0  0  0  0  0  0  0
    8.7059  -16.4251   22.4432 N   0  0  0  0  0  0  0  0  0  0  0  0
    9.6465  -15.4066   24.4433 C   0  0  0  0  0  0  0  0  0  0  0  0
   10.4045  -14.5051   24.8559 O   0  0  0  0  0  0  0  0  0  0  0  0
    9.5197  -13.1464   29.2111 C   0  0  0  0  0  0  0  0  0  0  0  0
   10.1680  -14.5838   28.3083 S   0  0  0  0  0  0  0  0  0  0  0  0
    8.8683  -15.8584   28.1918 C   0  0  0  0  0  0  0  0  0  0  0  0
    9.5004  -17.0817   27.5860 C   0  0  0  0  0  0  0  0  0  0  0  0
   10.3767  -16.8025   26.4134 C   0  0  2  0  0  0  0  0  0  0  0  0
    9.5700  -16.5969   25.1967 N   0  0  0  0  0  0  0  0  0  0  0  0
   11.3741  -17.8353   26.1028 C   0  0  0  0  0  0  0  0  0  0  0  0
   12.3683  -18.1358   27.0118 O   0  0  0  0  0  0  0  0  0  0  0  0
   11.3407  -18.4504   25.0262 O   0  0  0  0  0  0  0  0  0  0  0  0
  1  2  1  0
  2  3  2  0
  4  2  1  0
  4  5  1  0
  6  5  1  0
  6  7  1  6
  8  6  1  0
  8  9  2  0
 11 10  1  0
 12 11  1  0
 12 13  1  0
 14 13  1  1
 14 15  1  0
 15  8  1  0
 16 14  1  0
 17 16  2  0
 19 18  1  0
 19 20  1  0
 20 21  1  0
 22 23  1  0
 22 21  1  1
 23 16  1  0
 24 22  1  0
 25 24  1  0
 26 24  2  0
M  END
$$$$
