QMM.pdb
     RDKit          3D

 26 25  0  0  1  0  0  0  0  0999 V2000
    8.4425  -13.2458   15.5436 N   0  0  0  0  0  0  0  0  0  0  0  0
    7.9228  -14.0362   16.6159 C   0  0  0  0  0  0  0  0  0  0  0  0
    7.4927  -15.1691   16.3047 O   0  0  0  0  0  0  0  0  0  0  0  0
    7.8838  -13.5595   18.0023 C   0  0  0  0  0  0  0  0  0  0  0  0
    9.1423  -13.8528   18.7534 C   0  0  0  0  0  0  0  0  0  0  0  0
    9.0023  -15.0350   19.6440 C   0  0  2  0  0  0  0  0  0  0  0  0
    7.8305  -15.8223   19.4494 N   0  0  0  0  0  0  0  0  0  0  0  0
    9.1327  -14.6798   21.0744 C   0  0  0  0  0  0  0  0  0  0  0  0
   10.0837  -13.8933   21.3917 O   0  0  0  0  0  0  0  0  0  0  0  0
    6.8512  -11.1194   26.0291 C   0  0  0  0  0  0  0  0  0  0  0  0
    6.2066  -12.8165   26.1695 S   0  0  0  0  0  0  0  0  0  0  0  0
    7.5437  -13.9529   25.6415 C   0  0  0  0  0  0  0  0  0  0  0  0
    7.3250  -14.2120   24.1698 C   0  0  0  0  0  0  0  0  0  0  0  0
    8.5520  -14.8125   23.5070 C   0  0  2  0  0  0  0  0  0  0  0  0
    8.3158  -15.1213   22.1202 N   0  0  0  0  0  0  0  0  0  0  0  0
    8.9625  -15.9775   24.3046 C   0  0  0  0  0  0  0  0  0  0  0  0
    8.1197  -16.8231   24.6680 O   0  0  0  0  0  0  0  0  0  0  0  0
   10.2844  -13.0001   28.7992 C   0  0  0  0  0  0  0  0  0  0  0  0
    9.7277  -14.5816   29.4994 S   0  0  0  0  0  0  0  0  0  0  0  0
   10.3699  -15.9512   28.4800 C   0  0  0  0  0  0  0  0  0  0  0  0
   10.1600  -15.5684   27.0405 C   0  0  0  0  0  0  0  0  0  0  0  0
   10.6769  -16.5639   26.0594 C   0  0  2  0  0  0  0  0  0  0  0  0
   10.3055  -16.1827   24.6846 N   0  0  0  0  0  0  0  0  0  0  0  0
   10.2301  -17.9488   26.2610 C   0  0  0  0  0  0  0  0  0  0  0  0
   11.1525  -18.9490   26.4927 O   0  0  0  0  0  0  0  0  0  0  0  0
    9.0251  -18.2413   26.2264 O   0  0  0  0  0  0  0  0  0  0  0  0
  1  2  1  0
  2  3  2  0
  4  2  1  0
  4  5  1  0
  6  5  1  0
  6  7  1  1
  8  6  1  0
  8  9  2  0
 11 10  1  0
 12 11  1  0
 12 13  1  0
 14 13  1  1
 14 15  1  0
 15  8  1  0
 16 14  1  0
 17 16  2  0
 19 18  1  0
 19 20  1  0
 20 21  1  0
 22 23  1  0
 22 21  1  1
 23 16  1  0
 24 22  1  0
 25 24  1  0
 26 24  2  0
M  END
$$$$
