QMM.pdb
     RDKit          3D

 26 25  0  0  1  0  0  0  0  0999 V2000
    8.3128  -13.0059   17.0232 N   0  0  0  0  0  0  0  0  0  0  0  0
    7.8698  -14.3619   17.1206 C   0  0  0  0  0  0  0  0  0  0  0  0
    7.6282  -14.9399   16.0376 O   0  0  0  0  0  0  0  0  0  0  0  0
    7.6983  -15.0471   18.4059 C   0  0  0  0  0  0  0  0  0  0  0  0
    8.8597  -15.9189   18.7595 C   0  0  0  0  0  0  0  0  0  0  0  0
    8.6803  -16.5871   20.0755 C   0  0  2  0  0  0  0  0  0  0  0  0
    7.4040  -17.1796   20.3009 N   0  0  0  0  0  0  0  0  0  0  0  0
    9.0253  -15.6998   21.2080 C   0  0  0  0  0  0  0  0  0  0  0  0
   10.2227  -15.2670   21.2611 O   0  0  0  0  0  0  0  0  0  0  0  0
    6.1871  -12.9259   27.4945 C   0  0  0  0  0  0  0  0  0  0  0  0
    6.0900  -12.2539   25.8051 S   0  0  0  0  0  0  0  0  0  0  0  0
    7.6503  -12.6963   24.9519 C   0  0  0  0  0  0  0  0  0  0  0  0
    7.2916  -13.7459   23.9270 C   0  0  0  0  0  0  0  0  0  0  0  0
    8.5170  -14.2934   23.2171 C   0  0  2  0  0  0  0  0  0  0  0  0
    8.1685  -15.2854   22.2328 N   0  0  0  0  0  0  0  0  0  0  0  0
    9.4420  -14.7899   24.2465 C   0  0  0  0  0  0  0  0  0  0  0  0
   10.1201  -13.9914   24.9248 O   0  0  0  0  0  0  0  0  0  0  0  0
   10.8439  -13.6561   28.6992 C   0  0  0  0  0  0  0  0  0  0  0  0
   10.2028  -15.2116   29.3856 S   0  0  0  0  0  0  0  0  0  0  0  0
   10.4755  -16.5575   28.1850 C   0  0  0  0  0  0  0  0  0  0  0  0
    9.7071  -16.2041   26.9410 C   0  0  0  0  0  0  0  0  0  0  0  0
   10.3454  -16.6625   25.6748 C   0  0  2  0  0  0  0  0  0  0  0  0
    9.5971  -16.1681   24.5048 N   0  0  0  0  0  0  0  0  0  0  0  0
   10.4810  -18.1171   25.5195 C   0  0  0  0  0  0  0  0  0  0  0  0
   11.2816  -18.8358   26.3841 O   0  0  0  0  0  0  0  0  0  0  0  0
    9.8830  -18.7202   24.6154 O   0  0  0  0  0  0  0  0  0  0  0  0
  1  2  1  0
  2  3  2  0
  4  2  1  0
  4  5  1  0
  6  5  1  0
  6  7  1  1
  8  6  1  0
  8  9  2  0
 11 10  1  0
 12 11  1  0
 12 13  1  0
 14 13  1  1
 14 15  1  0
 15  8  1  0
 16 14  1  0
 17 16  2  0
 19 18  1  0
 19 20  1  0
 20 21  1  0
 22 23  1  0
 22 21  1  1
 23 16  1  0
 24 22  1  0
 25 24  1  0
 26 24  2  0
M  END
$$$$
