LRE.pdb
     RDKit          3D

 29 28  0  0  1  0  0  0  0  0999 V2000
    7.6750  -12.1073   27.4990 C   0  0  0  0  0  0  0  0  0  0  0  0
    6.6226  -12.4964   26.4561 C   0  0  2  0  0  0  0  0  0  0  0  0
    5.3789  -11.6554   26.6292 C   0  0  0  0  0  0  0  0  0  0  0  0
    6.2168  -13.9496   26.6956 C   0  0  0  0  0  0  0  0  0  0  0  0
    7.4245  -14.7870   26.4399 C   0  0  2  0  0  0  0  0  0  0  0  0
    8.6193  -14.0204   26.5934 N   0  0  0  0  0  0  0  0  0  0  0  0
    7.2799  -15.4242   25.1078 C   0  0  0  0  0  0  0  0  0  0  0  0
    6.6377  -16.4928   25.0361 O   0  0  0  0  0  0  0  0  0  0  0  0
    8.2758  -12.3781   18.5435 N   0  0  0  0  0  0  0  0  0  0  0  0
    8.5378  -13.5390   17.7143 C   0  0  0  0  0  0  0  0  0  0  0  0
    9.1704  -13.3663   16.6416 N   0  0  0  0  0  0  0  0  0  0  0  0
    8.0916  -14.7936   18.1239 N   0  0  0  0  0  0  0  0  0  0  0  0
    7.1953  -15.0794   19.1971 C   0  0  0  0  0  0  0  0  0  0  0  0
    7.7483  -15.9003   20.3202 C   0  0  0  0  0  0  0  0  0  0  0  0
    7.7136  -15.0580   21.5848 C   0  0  0  0  0  0  0  0  0  0  0  0
    8.1323  -15.7906   22.8294 C   0  0  2  0  0  0  0  0  0  0  0  0
    7.8312  -14.8788   23.9334 N   0  0  0  0  0  0  0  0  0  0  0  0
    9.6161  -15.9432   22.7221 C   0  0  0  0  0  0  0  0  0  0  0  0
   10.3766  -15.1200   23.2556 O   0  0  0  0  0  0  0  0  0  0  0  0
    9.3461  -14.0354   15.9199 N   0  0  0  0  0  0  0  0  0  0  0  0
   10.1396  -17.0335   22.0083 C   0  0  2  0  0  0  0  0  0  0  0  0
   11.5057  -17.5378   22.2987 C   0  0  0  0  0  0  0  0  0  0  0  0
   11.4638  -17.9795   23.7208 C   0  0  0  0  0  0  0  0  0  0  0  0
   12.6955  -18.7317   24.0944 C   0  0  0  0  0  0  0  0  0  0  0  0
   12.6100  -19.2212   25.4832 O   0  0  0  0  0  0  0  0  0  0  0  0
   13.5855  -19.9260   25.9305 C   0  0  0  0  0  0  0  0  0  0  0  0
   11.7819  -18.6032   21.3217 O   0  0  0  0  0  0  0  0  0  0  0  0
   10.9349  -19.4921   21.0493 O   0  0  0  0  0  0  0  0  0  0  0  0
   11.5582  -18.9807   26.3386 O   0  0  0  0  0  0  0  0  0  0  0  0
  2  1  1  1
  2  3  1  0
  2  4  1  0
  5  6  1  6
  5  4  1  0
  7  5  1  0
  8  7  2  0
 10  9  1  0
 10 12  1  0
 11 10  2  0
 13 12  1  0
 13 14  1  0
 14 15  1  0
 16 15  1  6
 16 17  1  0
 17  7  1  0
 18 16  1  0
 18 19  2  0
 20 18  1  0
 21 20  1  0
 21 22  1  6
 23 24  1  0
 23 22  1  0
 24 25  2  0
 26 21  1  0
 27 26  2  0
 28 24  1  0
 29 26  1  0
M  END
$$$$
