LRE.pdb
     RDKit          3D

 29 28  0  0  1  0  0  0  0  0999 V2000
    9.1958  -21.2694   16.3362 C   0  0  0  0  0  0  0  0  0  0  0  0
   10.7156  -21.4595   16.3598 C   0  0  2  0  0  0  0  0  0  0  0  0
   11.0578  -22.9011   16.6580 C   0  0  0  0  0  0  0  0  0  0  0  0
   11.2917  -20.6184   17.4976 C   0  0  0  0  0  0  0  0  0  0  0  0
   10.9969  -19.1917   17.1772 C   0  0  2  0  0  0  0  0  0  0  0  0
   11.6959  -18.7769   16.0034 N   0  0  0  0  0  0  0  0  0  0  0  0
   11.2887  -18.3713   18.3785 C   0  0  0  0  0  0  0  0  0  0  0  0
   12.4491  -17.9322   18.5204 O   0  0  0  0  0  0  0  0  0  0  0  0
    7.1008  -11.2611   20.2032 N   0  0  0  0  0  0  0  0  0  0  0  0
    7.7593  -12.5455   20.0590 C   0  0  0  0  0  0  0  0  0  0  0  0
    8.7667  -12.6104   19.3096 N   0  0  0  0  0  0  0  0  0  0  0  0
    7.2676  -13.6531   20.7462 N   0  0  0  0  0  0  0  0  0  0  0  0
    8.0252  -14.7323   21.2922 C   0  0  0  0  0  0  0  0  0  0  0  0
    8.7718  -15.5803   20.3100 C   0  0  0  0  0  0  0  0  0  0  0  0
    9.4259  -16.7220   21.0703 C   0  0  0  0  0  0  0  0  0  0  0  0
   10.7155  -17.2087   20.4694 C   0  0  2  0  0  0  0  0  0  0  0  0
   10.3207  -18.0704   19.3548 N   0  0  0  0  0  0  0  0  0  0  0  0
   11.3548  -18.0516   21.5264 C   0  0  0  0  0  0  0  0  0  0  0  0
   10.8580  -19.1413   21.8526 O   0  0  0  0  0  0  0  0  0  0  0  0
    9.3083  -13.4188   19.0805 N   0  0  0  0  0  0  0  0  0  0  0  0
   12.5285  -17.5933   22.1466 C   0  0  2  0  0  0  0  0  0  0  0  0
   13.2172  -18.4268   23.1645 C   0  0  0  0  0  0  0  0  0  0  0  0
   14.6716  -18.2401   22.9015 C   0  0  0  0  0  0  0  0  0  0  0  0
   15.5041  -18.9595   23.9076 C   0  0  0  0  0  0  0  0  0  0  0  0
   16.9392  -18.8209   23.5962 O   0  0  0  0  0  0  0  0  0  0  0  0
   17.2639  -18.1240   22.5680 C   0  0  0  0  0  0  0  0  0  0  0  0
   12.7553  -17.9577   24.4808 O   0  0  0  0  0  0  0  0  0  0  0  0
   13.1100  -18.5188   25.5491 O   0  0  0  0  0  0  0  0  0  0  0  0
   17.9606  -19.3866   24.3261 O   0  0  0  0  0  0  0  0  0  0  0  0
  2  1  1  1
  2  3  1  0
  2  4  1  0
  5  6  1  6
  5  4  1  0
  7  5  1  0
  8  7  2  0
 10  9  1  0
 10 12  1  0
 11 10  2  0
 13 12  1  0
 13 14  1  0
 14 15  1  0
 16 15  1  1
 16 17  1  0
 17  7  1  0
 18 16  1  0
 18 19  2  0
 20 18  1  0
 21 20  1  0
 21 22  1  6
 23 24  1  0
 23 22  1  0
 24 25  2  0
 26 21  1  0
 27 26  2  0
 28 24  1  0
 29 26  1  0
M  END
$$$$
