LRE.pdb
     RDKit          3D

 29 28  0  0  1  0  0  0  0  0999 V2000
    5.2464  -12.3893   26.1774 C   0  0  0  0  0  0  0  0  0  0  0  0
    6.2874  -13.0181   27.1089 C   0  0  2  0  0  0  0  0  0  0  0  0
    7.1240  -11.9414   27.7608 C   0  0  0  0  0  0  0  0  0  0  0  0
    7.2347  -13.8740   26.2698 C   0  0  0  0  0  0  0  0  0  0  0  0
    6.4048  -14.9234   25.6103 C   0  0  2  0  0  0  0  0  0  0  0  0
    6.1141  -15.9885   26.5157 N   0  0  0  0  0  0  0  0  0  0  0  0
    7.0933  -15.3541   24.3686 C   0  0  0  0  0  0  0  0  0  0  0  0
    7.7204  -16.4337   24.3906 O   0  0  0  0  0  0  0  0  0  0  0  0
    9.2051  -14.3276   15.1659 N   0  0  0  0  0  0  0  0  0  0  0  0
    8.5600  -14.4444   16.4597 C   0  0  0  0  0  0  0  0  0  0  0  0
    7.8798  -15.4769   16.6879 N   0  0  0  0  0  0  0  0  0  0  0  0
    8.7118  -13.4277   17.3999 N   0  0  0  0  0  0  0  0  0  0  0  0
    8.0623  -13.3237   18.6665 C   0  0  0  0  0  0  0  0  0  0  0  0
    8.4566  -14.3352   19.6973 C   0  0  0  0  0  0  0  0  0  0  0  0
    7.6214  -14.0922   20.9436 C   0  0  0  0  0  0  0  0  0  0  0  0
    7.8158  -15.1143   22.0292 C   0  0  2  0  0  0  0  0  0  0  0  0
    7.0685  -14.6031   23.1785 N   0  0  0  0  0  0  0  0  0  0  0  0
    9.2758  -15.0812   22.3511 C   0  0  0  0  0  0  0  0  0  0  0  0
    9.7475  -14.1750   23.0562 O   0  0  0  0  0  0  0  0  0  0  0  0
    7.3566  -15.6958   17.5111 N   0  0  0  0  0  0  0  0  0  0  0  0
   10.1089  -16.0919   21.8444 C   0  0  2  0  0  0  0  0  0  0  0  0
   11.4725  -16.2917   22.3973 C   0  0  0  0  0  0  0  0  0  0  0  0
   11.3225  -17.3564   23.4284 C   0  0  0  0  0  0  0  0  0  0  0  0
   12.6479  -17.8212   23.9285 C   0  0  0  0  0  0  0  0  0  0  0  0
   12.4827  -18.8391   24.9831 O   0  0  0  0  0  0  0  0  0  0  0  0
   11.2883  -19.2022   25.2827 C   0  0  0  0  0  0  0  0  0  0  0  0
   12.3441  -16.6388   21.2633 O   0  0  0  0  0  0  0  0  0  0  0  0
   11.8884  -17.1360   20.2018 O   0  0  0  0  0  0  0  0  0  0  0  0
   13.5164  -19.4299   25.6748 O   0  0  0  0  0  0  0  0  0  0  0  0
  2  1  1  6
  2  3  1  0
  2  4  1  0
  5  6  1  1
  5  4  1  0
  7  5  1  0
  8  7  2  0
 10  9  1  0
 10 12  1  0
 11 10  2  0
 13 12  1  0
 13 14  1  0
 14 15  1  0
 16 15  1  6
 16 17  1  0
 17  7  1  0
 18 16  1  0
 18 19  2  0
 20 18  1  0
 21 20  1  0
 21 22  1  1
 23 24  1  0
 23 22  1  0
 24 25  2  0
 26 21  1  0
 27 26  2  0
 28 24  1  0
 29 26  1  0
M  END
$$$$
