LRE.pdb
     RDKit          3D

 29 28  0  0  1  0  0  0  0  0999 V2000
    5.5890  -12.5597   25.8293 C   0  0  0  0  0  0  0  0  0  0  0  0
    6.2924  -13.3450   26.9406 C   0  0  2  0  0  0  0  0  0  0  0  0
    7.0817  -12.4071   27.8246 C   0  0  0  0  0  0  0  0  0  0  0  0
    7.2940  -14.3030   26.2979 C   0  0  0  0  0  0  0  0  0  0  0  0
    6.5393  -15.1200   25.3039 C   0  0  2  0  0  0  0  0  0  0  0  0
    5.9188  -16.2425   25.9313 N   0  0  0  0  0  0  0  0  0  0  0  0
    7.4585  -15.4765   24.1952 C   0  0  0  0  0  0  0  0  0  0  0  0
    8.0972  -16.5459   24.2845 O   0  0  0  0  0  0  0  0  0  0  0  0
    8.7802  -15.3786   17.2748 N   0  0  0  0  0  0  0  0  0  0  0  0
    8.0472  -14.2486   16.7368 C   0  0  0  0  0  0  0  0  0  0  0  0
    7.6537  -14.3151   15.5445 N   0  0  0  0  0  0  0  0  0  0  0  0
    7.8003  -13.1399   17.5434 N   0  0  0  0  0  0  0  0  0  0  0  0
    7.9263  -13.0639   18.9629 C   0  0  0  0  0  0  0  0  0  0  0  0
    8.4096  -14.3021   19.6515 C   0  0  0  0  0  0  0  0  0  0  0  0
    8.7289  -13.9482   21.0946 C   0  0  0  0  0  0  0  0  0  0  0  0
    8.6124  -15.0988   22.0556 C   0  0  2  0  0  0  0  0  0  0  0  0
    7.6381  -14.6669   23.0581 N   0  0  0  0  0  0  0  0  0  0  0  0
    9.9542  -15.2123   22.7061 C   0  0  0  0  0  0  0  0  0  0  0  0
   10.3559  -14.3330   23.4847 O   0  0  0  0  0  0  0  0  0  0  0  0
    7.1667  -13.6168   15.0205 N   0  0  0  0  0  0  0  0  0  0  0  0
   10.7561  -16.3303   22.4244 C   0  0  2  0  0  0  0  0  0  0  0  0
   12.0612  -16.5127   23.1088 C   0  0  0  0  0  0  0  0  0  0  0  0
   11.8821  -17.7107   23.9761 C   0  0  0  0  0  0  0  0  0  0  0  0
   13.1773  -18.1549   24.5660 C   0  0  0  0  0  0  0  0  0  0  0  0
   12.9977  -19.3859   25.3585 O   0  0  0  0  0  0  0  0  0  0  0  0
   11.8077  -19.8528   25.4774 C   0  0  0  0  0  0  0  0  0  0  0  0
   13.0783  -16.6516   22.0541 O   0  0  0  0  0  0  0  0  0  0  0  0
   12.7758  -16.9728   20.8764 O   0  0  0  0  0  0  0  0  0  0  0  0
   14.0132  -20.0734   25.9846 O   0  0  0  0  0  0  0  0  0  0  0  0
  2  1  1  6
  2  3  1  0
  2  4  1  0
  5  6  1  1
  5  4  1  0
  7  5  1  0
  8  7  2  0
 10  9  1  0
 10 12  1  0
 11 10  2  0
 13 12  1  0
 13 14  1  0
 14 15  1  0
 16 15  1  6
 16 17  1  0
 17  7  1  0
 18 16  1  0
 18 19  2  0
 20 18  1  0
 21 20  1  0
 21 22  1  1
 23 24  1  0
 23 22  1  0
 24 25  2  0
 26 21  1  0
 27 26  2  0
 28 24  1  0
 29 26  1  0
M  END
$$$$
