LRE.pdb
     RDKit          3D

 29 28  0  0  1  0  0  0  0  0999 V2000
    5.7022  -12.6112   26.2969 C   0  0  0  0  0  0  0  0  0  0  0  0
    6.7801  -13.2631   27.1684 C   0  0  2  0  0  0  0  0  0  0  0  0
    7.6843  -12.2063   27.7599 C   0  0  0  0  0  0  0  0  0  0  0  0
    7.6506  -14.1504   26.2802 C   0  0  0  0  0  0  0  0  0  0  0  0
    6.7445  -15.1457   25.6373 C   0  0  2  0  0  0  0  0  0  0  0  0
    6.4759  -16.2362   26.5190 N   0  0  0  0  0  0  0  0  0  0  0  0
    7.3367  -15.5483   24.3379 C   0  0  0  0  0  0  0  0  0  0  0  0
    7.9239  -16.6488   24.2774 O   0  0  0  0  0  0  0  0  0  0  0  0
    8.6496  -14.5045   15.0555 N   0  0  0  0  0  0  0  0  0  0  0  0
    8.1325  -14.5707   16.4090 C   0  0  0  0  0  0  0  0  0  0  0  0
    7.4759  -15.5906   16.7398 N   0  0  0  0  0  0  0  0  0  0  0  0
    8.3763  -13.5212   17.2921 N   0  0  0  0  0  0  0  0  0  0  0  0
    7.8896  -13.3900   18.6273 C   0  0  0  0  0  0  0  0  0  0  0  0
    8.3801  -14.4043   19.6130 C   0  0  0  0  0  0  0  0  0  0  0  0
    7.6233  -14.2040   20.9156 C   0  0  0  0  0  0  0  0  0  0  0  0
    7.9103  -15.2418   21.9653 C   0  0  2  0  0  0  0  0  0  0  0  0
    7.2642  -14.7487   23.1819 N   0  0  0  0  0  0  0  0  0  0  0  0
    9.3926  -15.2114   22.1613 C   0  0  0  0  0  0  0  0  0  0  0  0
    9.9401  -14.2329   22.6937 O   0  0  0  0  0  0  0  0  0  0  0  0
    7.0122  -15.7652   17.6080 N   0  0  0  0  0  0  0  0  0  0  0  0
   10.1594  -16.3078   21.7344 C   0  0  2  0  0  0  0  0  0  0  0  0
   11.6170  -16.3615   22.0130 C   0  0  0  0  0  0  0  0  0  0  0  0
   11.8731  -17.7525   22.4809 C   0  0  0  0  0  0  0  0  0  0  0  0
   11.3350  -17.9735   23.8536 C   0  0  0  0  0  0  0  0  0  0  0  0
   11.6386  -19.3388   24.3222 O   0  0  0  0  0  0  0  0  0  0  0  0
   12.8640  -19.7210   24.2986 C   0  0  0  0  0  0  0  0  0  0  0  0
   12.3021  -15.9860   20.7657 O   0  0  0  0  0  0  0  0  0  0  0  0
   11.6930  -15.9142   19.6677 O   0  0  0  0  0  0  0  0  0  0  0  0
   10.7034  -20.2384   24.7826 O   0  0  0  0  0  0  0  0  0  0  0  0
  2  1  1  6
  2  3  1  0
  2  4  1  0
  5  6  1  1
  5  4  1  0
  7  5  1  0
  8  7  2  0
 10  9  1  0
 10 12  1  0
 11 10  2  0
 13 12  1  0
 13 14  1  0
 14 15  1  0
 16 15  1  6
 16 17  1  0
 17  7  1  0
 18 16  1  0
 18 19  2  0
 20 18  1  0
 21 20  1  0
 21 22  1  1
 23 24  1  0
 23 22  1  0
 24 25  2  0
 26 21  1  0
 27 26  2  0
 28 24  1  0
 29 26  1  0
M  END
$$$$
