LRE.pdb
     RDKit          3D

 29 28  0  0  1  0  0  0  0  0999 V2000
    5.9853  -12.2335   25.0617 C   0  0  0  0  0  0  0  0  0  0  0  0
    6.1678  -12.9102   26.4238 C   0  0  2  0  0  0  0  0  0  0  0  0
    6.8593  -11.9716   27.3856 C   0  0  0  0  0  0  0  0  0  0  0  0
    7.0823  -14.1209   26.2449 C   0  0  0  0  0  0  0  0  0  0  0  0
    6.4439  -15.0020   25.2246 C   0  0  2  0  0  0  0  0  0  0  0  0
    5.5907  -15.9651   25.8434 N   0  0  0  0  0  0  0  0  0  0  0  0
    7.5119  -15.5918   24.3802 C   0  0  0  0  0  0  0  0  0  0  0  0
    7.9861  -16.6955   24.7214 O   0  0  0  0  0  0  0  0  0  0  0  0
    8.8719  -14.9578   15.8898 N   0  0  0  0  0  0  0  0  0  0  0  0
    7.8951  -14.2293   16.6766 C   0  0  0  0  0  0  0  0  0  0  0  0
    7.3922  -13.1908   16.1771 N   0  0  0  0  0  0  0  0  0  0  0  0
    7.5441  -14.6942   17.9421 N   0  0  0  0  0  0  0  0  0  0  0  0
    8.1142  -14.3033   19.1906 C   0  0  0  0  0  0  0  0  0  0  0  0
    8.8575  -15.3650   19.9400 C   0  0  0  0  0  0  0  0  0  0  0  0
    9.3124  -14.7788   21.2663 C   0  0  0  0  0  0  0  0  0  0  0  0
    9.0444  -15.6572   22.4569 C   0  0  2  0  0  0  0  0  0  0  0  0
    8.0071  -14.9646   23.2217 N   0  0  0  0  0  0  0  0  0  0  0  0
   10.3122  -15.6512   23.2502 C   0  0  0  0  0  0  0  0  0  0  0  0
   10.6846  -14.6241   23.8393 O   0  0  0  0  0  0  0  0  0  0  0  0
    6.6854  -12.6030   16.5697 N   0  0  0  0  0  0  0  0  0  0  0  0
   11.0779  -16.8264   23.3207 C   0  0  1  0  0  0  0  0  0  0  0  0
   12.3562  -16.8481   24.0761 C   0  0  0  0  0  0  0  0  0  0  0  0
   11.9947  -17.3259   25.4400 C   0  0  0  0  0  0  0  0  0  0  0  0
   11.4552  -18.7153   25.4054 C   0  0  0  0  0  0  0  0  0  0  0  0
   11.2740  -19.2415   26.7714 O   0  0  0  0  0  0  0  0  0  0  0  0
   10.1566  -19.8086   27.0510 C   0  0  0  0  0  0  0  0  0  0  0  0
   13.2752  -17.7235   23.3308 O   0  0  0  0  0  0  0  0  0  0  0  0
   12.8799  -18.4516   22.3846 O   0  0  0  0  0  0  0  0  0  0  0  0
   12.2152  -19.1682   27.7738 O   0  0  0  0  0  0  0  0  0  0  0  0
  2  1  1  6
  2  3  1  0
  2  4  1  0
  5  6  1  1
  5  4  1  0
  7  5  1  0
  8  7  2  0
 10  9  1  0
 10 12  1  0
 11 10  2  0
 13 12  1  0
 13 14  1  0
 14 15  1  0
 16 15  1  6
 16 17  1  0
 17  7  1  0
 18 16  1  0
 18 19  2  0
 20 18  1  0
 21 20  1  0
 21 22  1  1
 23 24  1  0
 23 22  1  0
 24 25  2  0
 26 21  1  0
 27 26  2  0
 28 24  1  0
 29 26  1  0
M  END
$$$$
