LRE.pdb
     RDKit          3D

 29 28  0  0  1  0  0  0  0  0999 V2000
    6.8357  -11.9141   24.3817 C   0  0  0  0  0  0  0  0  0  0  0  0
    6.4601  -12.6962   25.6442 C   0  0  2  0  0  0  0  0  0  0  0  0
    6.7028  -11.8519   26.8740 C   0  0  0  0  0  0  0  0  0  0  0  0
    7.3759  -13.9144   25.7502 C   0  0  0  0  0  0  0  0  0  0  0  0
    6.7389  -15.0082   24.9609 C   0  0  2  0  0  0  0  0  0  0  0  0
    5.7533  -15.6905   25.7367 N   0  0  0  0  0  0  0  0  0  0  0  0
    7.8091  -15.8883   24.4305 C   0  0  0  0  0  0  0  0  0  0  0  0
    8.1818  -16.8485   25.1366 O   0  0  0  0  0  0  0  0  0  0  0  0
    8.4463  -14.1463   17.4642 N   0  0  0  0  0  0  0  0  0  0  0  0
    7.5488  -13.4664   18.3785 C   0  0  0  0  0  0  0  0  0  0  0  0
    7.0483  -12.3737   18.0095 N   0  0  0  0  0  0  0  0  0  0  0  0
    7.2678  -14.0349   19.6189 N   0  0  0  0  0  0  0  0  0  0  0  0
    7.9059  -15.1658   20.2111 C   0  0  0  0  0  0  0  0  0  0  0  0
    9.2025  -14.9024   20.9115 C   0  0  0  0  0  0  0  0  0  0  0  0
    9.7894  -16.2371   21.3402 C   0  0  0  0  0  0  0  0  0  0  0  0
    9.4127  -16.6616   22.7327 C   0  0  2  0  0  0  0  0  0  0  0  0
    8.4152  -15.6874   23.1762 N   0  0  0  0  0  0  0  0  0  0  0  0
   10.6521  -16.4881   23.5513 C   0  0  0  0  0  0  0  0  0  0  0  0
   11.0685  -15.3540   23.8358 O   0  0  0  0  0  0  0  0  0  0  0  0
    6.4607  -11.7603   18.5366 N   0  0  0  0  0  0  0  0  0  0  0  0
   11.3407  -17.6285   23.9960 C   0  0  1  0  0  0  0  0  0  0  0  0
   12.5070  -17.4971   24.9056 C   0  0  0  0  0  0  0  0  0  0  0  0
   12.2741  -18.4975   25.9846 C   0  0  0  0  0  0  0  0  0  0  0  0
   13.4446  -18.5907   26.9032 C   0  0  0  0  0  0  0  0  0  0  0  0
   13.3667  -19.8100   27.7296 O   0  0  0  0  0  0  0  0  0  0  0  0
   12.2387  -20.0936   28.2731 C   0  0  0  0  0  0  0  0  0  0  0  0
   13.7101  -17.7272   24.0897 O   0  0  0  0  0  0  0  0  0  0  0  0
   13.6774  -18.4094   23.0336 O   0  0  0  0  0  0  0  0  0  0  0  0
   14.4169  -20.6689   27.9651 O   0  0  0  0  0  0  0  0  0  0  0  0
  2  1  1  6
  2  3  1  0
  2  4  1  0
  5  6  1  1
  5  4  1  0
  7  5  1  0
  8  7  2  0
 10  9  1  0
 10 12  1  0
 11 10  2  0
 13 12  1  0
 13 14  1  0
 14 15  1  0
 16 15  1  6
 16 17  1  0
 17  7  1  0
 18 16  1  0
 18 19  2  0
 20 18  1  0
 21 20  1  0
 21 22  1  1
 23 24  1  0
 23 22  1  0
 24 25  2  0
 26 21  1  0
 27 26  2  0
 28 24  1  0
 29 26  1  0
M  END
$$$$
