LRE.pdb
     RDKit          3D

 29 28  0  0  1  0  0  0  0  0999 V2000
    9.4024  -13.0851   19.7648 C   0  0  0  0  0  0  0  0  0  0  0  0
    7.9970  -13.4195   19.2555 C   0  0  2  0  0  0  0  0  0  0  0  0
    7.1837  -12.1556   19.0965 C   0  0  0  0  0  0  0  0  0  0  0  0
    7.2918  -14.2760   20.3058 C   0  0  0  0  0  0  0  0  0  0  0  0
    8.2065  -15.4090   20.6297 C   0  0  2  0  0  0  0  0  0  0  0  0
    8.2096  -16.3786   19.5817 N   0  0  0  0  0  0  0  0  0  0  0  0
    7.8280  -15.9523   21.9574 C   0  0  0  0  0  0  0  0  0  0  0  0
    7.7072  -15.1495   22.9063 O   0  0  0  0  0  0  0  0  0  0  0  0
    6.1735  -23.2098   25.7158 N   0  0  0  0  0  0  0  0  0  0  0  0
    6.1552  -22.2752   26.8250 C   0  0  0  0  0  0  0  0  0  0  0  0
    6.4268  -22.7154   27.9710 N   0  0  0  0  0  0  0  0  0  0  0  0
    5.8457  -20.9368   26.5936 N   0  0  0  0  0  0  0  0  0  0  0  0
    5.8955  -20.2457   25.3459 C   0  0  0  0  0  0  0  0  0  0  0  0
    7.2603  -19.9765   24.7928 C   0  0  0  0  0  0  0  0  0  0  0  0
    7.1003  -19.2327   23.4772 C   0  0  0  0  0  0  0  0  0  0  0  0
    7.3587  -17.7540   23.5655 C   0  0  2  0  0  0  0  0  0  0  0  0
    7.6015  -17.3220   22.1888 N   0  0  0  0  0  0  0  0  0  0  0  0
    8.6281  -17.6168   24.3440 C   0  0  0  0  0  0  0  0  0  0  0  0
    9.7036  -18.0237   23.8766 O   0  0  0  0  0  0  0  0  0  0  0  0
    6.5749  -22.1910   28.8090 N   0  0  0  0  0  0  0  0  0  0  0  0
    8.5877  -17.0195   25.6144 C   0  0  2  0  0  0  0  0  0  0  0  0
    9.8319  -16.8509   26.4073 C   0  0  0  0  0  0  0  0  0  0  0  0
    9.5394  -15.7440   27.3604 C   0  0  0  0  0  0  0  0  0  0  0  0
   10.6632  -15.5384   28.3182 C   0  0  0  0  0  0  0  0  0  0  0  0
   10.3275  -14.4939   29.3040 O   0  0  0  0  0  0  0  0  0  0  0  0
   10.4113  -13.2686   28.9299 C   0  0  0  0  0  0  0  0  0  0  0  0
   10.1178  -18.1530   27.0309 O   0  0  0  0  0  0  0  0  0  0  0  0
    9.2016  -18.9524   27.3523 O   0  0  0  0  0  0  0  0  0  0  0  0
    9.9318  -14.7343   30.6008 O   0  0  0  0  0  0  0  0  0  0  0  0
  2  1  1  1
  2  3  1  0
  2  4  1  0
  5  6  1  6
  5  4  1  0
  7  5  1  0
  8  7  2  0
 10  9  1  0
 10 12  1  0
 11 10  2  0
 13 12  1  0
 13 14  1  0
 14 15  1  0
 16 15  1  6
 16 17  1  0
 17  7  1  0
 18 16  1  0
 18 19  2  0
 20 18  1  0
 21 20  1  0
 21 22  1  1
 23 24  1  0
 23 22  1  0
 24 25  2  0
 26 21  1  0
 27 26  2  0
 28 24  1  0
 29 26  1  0
M  END
$$$$
