LRE.pdb
     RDKit          3D

 29 28  0  0  1  0  0  0  0  0999 V2000
    4.8129  -11.7008   26.5326 C   0  0  0  0  0  0  0  0  0  0  0  0
    6.0755  -12.5251   26.8025 C   0  0  2  0  0  0  0  0  0  0  0  0
    7.1153  -11.6769   27.4979 C   0  0  0  0  0  0  0  0  0  0  0  0
    6.6708  -12.9531   25.4622 C   0  0  0  0  0  0  0  0  0  0  0  0
    7.7584  -13.9294   25.7604 C   0  0  2  0  0  0  0  0  0  0  0  0
    9.0419  -13.3569   25.5086 N   0  0  0  0  0  0  0  0  0  0  0  0
    7.4909  -15.1758   25.0013 C   0  0  0  0  0  0  0  0  0  0  0  0
    6.4668  -15.8294   25.2901 O   0  0  0  0  0  0  0  0  0  0  0  0
    8.8465  -13.3674   17.5955 N   0  0  0  0  0  0  0  0  0  0  0  0
    8.2308  -13.0460   18.8688 C   0  0  0  0  0  0  0  0  0  0  0  0
    8.5408  -11.9568   19.4150 N   0  0  0  0  0  0  0  0  0  0  0  0
    7.3252  -13.9367   19.4410 N   0  0  0  0  0  0  0  0  0  0  0  0
    7.6158  -15.2149   20.0053 C   0  0  0  0  0  0  0  0  0  0  0  0
    7.6552  -15.2847   21.5001 C   0  0  0  0  0  0  0  0  0  0  0  0
    8.0062  -16.7086   21.8991 C   0  0  0  0  0  0  0  0  0  0  0  0
    8.0319  -16.9482   23.3833 C   0  0  2  0  0  0  0  0  0  0  0  0
    8.3357  -15.6468   23.9789 N   0  0  0  0  0  0  0  0  0  0  0  0
    9.1880  -17.8671   23.6189 C   0  0  0  0  0  0  0  0  0  0  0  0
    9.2683  -18.9495   23.0168 O   0  0  0  0  0  0  0  0  0  0  0  0
    8.2236  -11.6002   20.2934 N   0  0  0  0  0  0  0  0  0  0  0  0
   10.1850  -17.4881   24.5325 C   0  0  1  0  0  0  0  0  0  0  0  0
   11.3230  -18.3961   24.8249 C   0  0  0  0  0  0  0  0  0  0  0  0
   12.5415  -17.6295   24.4414 C   0  0  0  0  0  0  0  0  0  0  0  0
   12.4561  -17.1375   23.0367 C   0  0  0  0  0  0  0  0  0  0  0  0
   13.7191  -16.4938   22.6289 O   0  0  0  0  0  0  0  0  0  0  0  0
   14.6501  -16.3928   23.5071 C   0  0  0  0  0  0  0  0  0  0  0  0
   11.2299  -18.7485   26.2508 O   0  0  0  0  0  0  0  0  0  0  0  0
   10.3429  -18.2640   26.9993 O   0  0  0  0  0  0  0  0  0  0  0  0
   13.9752  -15.9892   21.3736 O   0  0  0  0  0  0  0  0  0  0  0  0
  2  1  1  6
  2  3  1  0
  2  4  1  0
  5  6  1  6
  5  4  1  0
  7  5  1  0
  8  7  2  0
 10  9  1  0
 10 12  1  0
 11 10  2  0
 13 12  1  0
 13 14  1  0
 14 15  1  0
 16 15  1  6
 16 17  1  0
 17  7  1  0
 18 16  1  0
 18 19  2  0
 20 18  1  0
 21 20  1  0
 21 22  1  6
 23 24  1  0
 23 22  1  0
 24 25  2  0
 26 21  1  0
 27 26  2  0
 28 24  1  0
 29 26  1  0
M  END
$$$$
