LRE.pdb
     RDKit          3D

 29 28  0  0  1  0  0  0  0  0999 V2000
    6.1045  -12.9803   25.9601 C   0  0  0  0  0  0  0  0  0  0  0  0
    6.7267  -13.6206   27.2049 C   0  0  2  0  0  0  0  0  0  0  0  0
    7.6768  -12.6526   27.8715 C   0  0  0  0  0  0  0  0  0  0  0  0
    7.5530  -14.8287   26.7670 C   0  0  0  0  0  0  0  0  0  0  0  0
    6.7297  -15.5847   25.7793 C   0  0  2  0  0  0  0  0  0  0  0  0
    6.0852  -16.6986   26.3977 N   0  0  0  0  0  0  0  0  0  0  0  0
    7.5931  -15.9462   24.6281 C   0  0  0  0  0  0  0  0  0  0  0  0
    8.2859  -16.9813   24.7176 O   0  0  0  0  0  0  0  0  0  0  0  0
    9.0771  -12.1658   17.8653 N   0  0  0  0  0  0  0  0  0  0  0  0
    8.0925  -13.2182   17.7013 C   0  0  0  0  0  0  0  0  0  0  0  0
    8.3178  -14.1072   16.8413 N   0  0  0  0  0  0  0  0  0  0  0  0
    6.9446  -13.2173   18.4906 N   0  0  0  0  0  0  0  0  0  0  0  0
    6.8690  -13.4357   19.8990 C   0  0  0  0  0  0  0  0  0  0  0  0
    7.3351  -14.7718   20.3873 C   0  0  0  0  0  0  0  0  0  0  0  0
    8.4999  -14.5492   21.3379 C   0  0  0  0  0  0  0  0  0  0  0  0
    8.6211  -15.5833   22.4228 C   0  0  2  0  0  0  0  0  0  0  0  0
    7.6623  -15.1779   23.4509 N   0  0  0  0  0  0  0  0  0  0  0  0
   10.0052  -15.4289   22.9678 C   0  0  0  0  0  0  0  0  0  0  0  0
   10.2310  -14.6527   23.9096 O   0  0  0  0  0  0  0  0  0  0  0  0
    7.7163  -14.8551   16.5616 N   0  0  0  0  0  0  0  0  0  0  0  0
   11.0493  -16.1763   22.3988 C   0  0  2  0  0  0  0  0  0  0  0  0
   12.2846  -16.4559   23.1740 C   0  0  0  0  0  0  0  0  0  0  0  0
   11.8369  -17.2660   24.3413 C   0  0  0  0  0  0  0  0  0  0  0  0
   12.9964  -17.8194   25.0975 C   0  0  0  0  0  0  0  0  0  0  0  0
   12.5383  -18.6052   26.2587 O   0  0  0  0  0  0  0  0  0  0  0  0
   12.9985  -18.2885   27.4147 C   0  0  0  0  0  0  0  0  0  0  0  0
   13.2144  -17.1385   22.2599 O   0  0  0  0  0  0  0  0  0  0  0  0
   14.4600  -17.1052   22.4308 O   0  0  0  0  0  0  0  0  0  0  0  0
   11.6531  -19.6580   26.1961 O   0  0  0  0  0  0  0  0  0  0  0  0
  2  1  1  6
  2  3  1  0
  2  4  1  0
  5  6  1  1
  5  4  1  0
  7  5  1  0
  8  7  2  0
 10  9  1  0
 10 12  1  0
 11 10  2  0
 13 12  1  0
 13 14  1  0
 14 15  1  0
 16 15  1  6
 16 17  1  0
 17  7  1  0
 18 16  1  0
 18 19  2  0
 20 18  1  0
 21 20  1  0
 21 22  1  1
 23 24  1  0
 23 22  1  0
 24 25  2  0
 26 21  1  0
 27 26  2  0
 28 24  1  0
 29 26  1  0
M  END
$$$$
