LRE.pdb
     RDKit          3D

 29 28  0  0  1  0  0  0  0  0999 V2000
    5.9278  -13.5606   26.3664 C   0  0  0  0  0  0  0  0  0  0  0  0
    6.8355  -13.7845   27.5799 C   0  0  2  0  0  0  0  0  0  0  0  0
    7.7757  -12.6139   27.7528 C   0  0  0  0  0  0  0  0  0  0  0  0
    7.6993  -15.0171   27.3183 C   0  0  0  0  0  0  0  0  0  0  0  0
    6.8838  -15.9531   26.4912 C   0  0  2  0  0  0  0  0  0  0  0  0
    6.6790  -17.1909   27.1728 N   0  0  0  0  0  0  0  0  0  0  0  0
    7.5316  -16.0919   25.1637 C   0  0  0  0  0  0  0  0  0  0  0  0
    8.5667  -16.7861   25.0865 O   0  0  0  0  0  0  0  0  0  0  0  0
    8.5822  -13.4374   16.0423 N   0  0  0  0  0  0  0  0  0  0  0  0
    8.3438  -13.2638   17.4624 C   0  0  0  0  0  0  0  0  0  0  0  0
    9.0851  -12.4664   18.0913 N   0  0  0  0  0  0  0  0  0  0  0  0
    7.3147  -13.9710   18.0802 N   0  0  0  0  0  0  0  0  0  0  0  0
    6.9551  -13.9360   19.4608 C   0  0  0  0  0  0  0  0  0  0  0  0
    7.7740  -14.7884   20.3796 C   0  0  0  0  0  0  0  0  0  0  0  0
    7.1063  -14.7906   21.7449 C   0  0  0  0  0  0  0  0  0  0  0  0
    7.7289  -15.7327   22.7379 C   0  0  2  0  0  0  0  0  0  0  0  0
    7.0319  -15.4794   23.9992 N   0  0  0  0  0  0  0  0  0  0  0  0
    9.1495  -15.2859   22.8749 C   0  0  0  0  0  0  0  0  0  0  0  0
    9.4226  -14.2050   23.4205 O   0  0  0  0  0  0  0  0  0  0  0  0
    9.1375  -12.3296   19.0802 N   0  0  0  0  0  0  0  0  0  0  0  0
   10.1737  -16.1079   22.3772 C   0  0  2  0  0  0  0  0  0  0  0  0
   11.5973  -15.7161   22.5347 C   0  0  0  0  0  0  0  0  0  0  0  0
   12.1749  -16.7166   23.4752 C   0  0  0  0  0  0  0  0  0  0  0  0
   13.6309  -16.4819   23.6939 C   0  0  0  0  0  0  0  0  0  0  0  0
   14.1939  -17.4944   24.6069 O   0  0  0  0  0  0  0  0  0  0  0  0
   13.4018  -18.3967   25.0617 C   0  0  0  0  0  0  0  0  0  0  0  0
   12.1884  -15.7119   21.1868 O   0  0  0  0  0  0  0  0  0  0  0  0
   13.3258  -15.2252   20.9606 O   0  0  0  0  0  0  0  0  0  0  0  0
   15.5091  -17.5440   25.0116 O   0  0  0  0  0  0  0  0  0  0  0  0
  2  1  1  6
  2  3  1  0
  2  4  1  0
  5  6  1  1
  5  4  1  0
  7  5  1  0
  8  7  2  0
 10  9  1  0
 10 12  1  0
 11 10  2  0
 13 12  1  0
 13 14  1  0
 14 15  1  0
 16 15  1  6
 16 17  1  0
 17  7  1  0
 18 16  1  0
 18 19  2  0
 20 18  1  0
 21 20  1  0
 21 22  1  6
 23 24  1  0
 23 22  1  0
 24 25  2  0
 26 21  1  0
 27 26  2  0
 28 24  1  0
 29 26  1  0
M  END
$$$$
