LRE.pdb
     RDKit          3D

 29 28  0  0  1  0  0  0  0  0999 V2000
    6.6195  -16.7503   18.7154 C   0  0  0  0  0  0  0  0  0  0  0  0
    7.4064  -15.6704   17.9663 C   0  0  2  0  0  0  0  0  0  0  0  0
    8.1085  -16.2701   16.7698 C   0  0  0  0  0  0  0  0  0  0  0  0
    8.4908  -15.1282   18.8958 C   0  0  0  0  0  0  0  0  0  0  0  0
    7.7966  -14.5304   20.0730 C   0  0  2  0  0  0  0  0  0  0  0  0
    7.2196  -13.2679   19.7387 N   0  0  0  0  0  0  0  0  0  0  0  0
    8.7537  -14.4788   21.2055 C   0  0  0  0  0  0  0  0  0  0  0  0
    9.4605  -13.4568   21.3293 O   0  0  0  0  0  0  0  0  0  0  0  0
   10.9803  -14.1663   28.3569 N   0  0  0  0  0  0  0  0  0  0  0  0
    9.9442  -15.0556   28.8462 C   0  0  0  0  0  0  0  0  0  0  0  0
    9.9946  -15.4128   30.0506 N   0  0  0  0  0  0  0  0  0  0  0  0
    8.9362  -15.4802   27.9834 N   0  0  0  0  0  0  0  0  0  0  0  0
    9.0771  -16.3406   26.8535 C   0  0  0  0  0  0  0  0  0  0  0  0
    9.9329  -15.8306   25.7361 C   0  0  0  0  0  0  0  0  0  0  0  0
    9.0912  -15.7980   24.4712 C   0  0  0  0  0  0  0  0  0  0  0  0
    9.8294  -15.3315   23.2470 C   0  0  2  0  0  0  0  0  0  0  0  0
    8.8960  -15.5243   22.1369 N   0  0  0  0  0  0  0  0  0  0  0  0
   10.9730  -16.2814   23.0849 C   0  0  0  0  0  0  0  0  0  0  0  0
   10.7706  -17.5001   22.9649 O   0  0  0  0  0  0  0  0  0  0  0  0
    9.4503  -16.1186   30.5033 N   0  0  0  0  0  0  0  0  0  0  0  0
   12.2829  -15.7752   23.0695 C   0  0  2  0  0  0  0  0  0  0  0  0
   13.4369  -16.6793   22.8333 C   0  0  0  0  0  0  0  0  0  0  0  0
   14.6006  -15.7759   22.6120 C   0  0  0  0  0  0  0  0  0  0  0  0
   15.8719  -16.5448   22.4890 C   0  0  0  0  0  0  0  0  0  0  0  0
   17.0013  -15.6458   22.1860 O   0  0  0  0  0  0  0  0  0  0  0  0
   16.7331  -14.5003   21.6718 C   0  0  0  0  0  0  0  0  0  0  0  0
   13.5403  -17.5534   24.0129 O   0  0  0  0  0  0  0  0  0  0  0  0
   13.9731  -18.7315   23.9321 O   0  0  0  0  0  0  0  0  0  0  0  0
   18.3265  -15.9440   22.4116 O   0  0  0  0  0  0  0  0  0  0  0  0
  2  1  1  1
  2  3  1  0
  2  4  1  0
  5  6  1  6
  5  4  1  0
  7  5  1  0
  8  7  2  0
 10  9  1  0
 10 12  1  0
 11 10  2  0
 13 12  1  0
 13 14  1  0
 14 15  1  0
 16 15  1  1
 16 17  1  0
 17  7  1  0
 18 16  1  0
 18 19  2  0
 20 18  1  0
 21 20  1  0
 21 22  1  6
 23 24  1  0
 23 22  1  0
 24 25  2  0
 26 21  1  0
 27 26  2  0
 28 24  1  0
 29 26  1  0
M  END
$$$$
