LRE.pdb
     RDKit          3D

 29 28  0  0  1  0  0  0  0  0999 V2000
    5.9039  -12.2094   25.5426 C   0  0  0  0  0  0  0  0  0  0  0  0
    6.3455  -13.0401   26.7515 C   0  0  2  0  0  0  0  0  0  0  0  0
    7.1519  -12.1886   27.7048 C   0  0  0  0  0  0  0  0  0  0  0  0
    7.2656  -14.1573   26.2620 C   0  0  0  0  0  0  0  0  0  0  0  0
    6.5019  -14.9362   25.2446 C   0  0  2  0  0  0  0  0  0  0  0  0
    5.5945  -15.8431   25.8713 N   0  0  0  0  0  0  0  0  0  0  0  0
    7.4704  -15.5849   24.3267 C   0  0  0  0  0  0  0  0  0  0  0  0
    7.7725  -16.7774   24.5412 O   0  0  0  0  0  0  0  0  0  0  0  0
    8.6580  -12.5422   16.4263 N   0  0  0  0  0  0  0  0  0  0  0  0
    8.0584  -13.8622   16.4684 C   0  0  0  0  0  0  0  0  0  0  0  0
    7.7018  -14.3824   15.3808 N   0  0  0  0  0  0  0  0  0  0  0  0
    7.8997  -14.5085   17.6923 N   0  0  0  0  0  0  0  0  0  0  0  0
    8.6076  -14.2437   18.9029 C   0  0  0  0  0  0  0  0  0  0  0  0
    8.2283  -15.0774   20.0871 C   0  0  0  0  0  0  0  0  0  0  0  0
    9.2349  -14.8134   21.1947 C   0  0  0  0  0  0  0  0  0  0  0  0
    9.0333  -15.6497   22.4280 C   0  0  2  0  0  0  0  0  0  0  0  0
    8.0564  -14.9178   23.2348 N   0  0  0  0  0  0  0  0  0  0  0  0
   10.3496  -15.6374   23.1376 C   0  0  0  0  0  0  0  0  0  0  0  0
   10.7812  -14.5932   23.6515 O   0  0  0  0  0  0  0  0  0  0  0  0
    7.2908  -15.2825   15.2383 N   0  0  0  0  0  0  0  0  0  0  0  0
   11.0931  -16.8262   23.2159 C   0  0  2  0  0  0  0  0  0  0  0  0
   12.4420  -16.8314   23.8369 C   0  0  0  0  0  0  0  0  0  0  0  0
   12.5592  -18.1589   24.5027 C   0  0  0  0  0  0  0  0  0  0  0  0
   12.1400  -18.0906   25.9318 C   0  0  0  0  0  0  0  0  0  0  0  0
   12.0769  -19.4398   26.5246 O   0  0  0  0  0  0  0  0  0  0  0  0
   13.1790  -20.0823   26.6689 C   0  0  0  0  0  0  0  0  0  0  0  0
   13.4089  -16.5880   22.7543 O   0  0  0  0  0  0  0  0  0  0  0  0
   13.0882  -16.6831   21.5419 O   0  0  0  0  0  0  0  0  0  0  0  0
   10.9208  -20.0655   26.9343 O   0  0  0  0  0  0  0  0  0  0  0  0
  2  1  1  6
  2  3  1  0
  2  4  1  0
  5  6  1  1
  5  4  1  0
  7  5  1  0
  8  7  2  0
 10  9  1  0
 10 12  1  0
 11 10  2  0
 13 12  1  0
 13 14  1  0
 14 15  1  0
 16 15  1  6
 16 17  1  0
 17  7  1  0
 18 16  1  0
 18 19  2  0
 20 18  1  0
 21 20  1  0
 21 22  1  1
 23 24  1  0
 23 22  1  0
 24 25  2  0
 26 21  1  0
 27 26  2  0
 28 24  1  0
 29 26  1  0
M  END
$$$$
