LRE.pdb
     RDKit          3D

 29 28  0  0  1  0  0  0  0  0999 V2000
    5.3826  -12.3808   25.6632 C   0  0  0  0  0  0  0  0  0  0  0  0
    6.3518  -12.9029   26.7283 C   0  0  2  0  0  0  0  0  0  0  0  0
    7.1974  -11.7713   27.2657 C   0  0  0  0  0  0  0  0  0  0  0  0
    7.3044  -13.8996   26.0702 C   0  0  0  0  0  0  0  0  0  0  0  0
    6.4835  -15.0691   25.6419 C   0  0  2  0  0  0  0  0  0  0  0  0
    5.8089  -15.6549   26.7556 N   0  0  0  0  0  0  0  0  0  0  0  0
    7.3586  -16.0098   24.8999 C   0  0  0  0  0  0  0  0  0  0  0  0
    8.0277  -16.8320   25.5598 O   0  0  0  0  0  0  0  0  0  0  0  0
    7.4363  -12.6847   19.9158 N   0  0  0  0  0  0  0  0  0  0  0  0
    8.5260  -13.0339   19.0245 C   0  0  0  0  0  0  0  0  0  0  0  0
    9.2812  -12.1106   18.6271 N   0  0  0  0  0  0  0  0  0  0  0  0
    8.7053  -14.3614   18.6420 N   0  0  0  0  0  0  0  0  0  0  0  0
    8.2948  -15.5257   19.3580 C   0  0  0  0  0  0  0  0  0  0  0  0
    8.5207  -15.5064   20.8378 C   0  0  0  0  0  0  0  0  0  0  0  0
    8.1205  -16.8620   21.3962 C   0  0  0  0  0  0  0  0  0  0  0  0
    8.3367  -17.0111   22.8768 C   0  0  2  0  0  0  0  0  0  0  0  0
    7.4641  -16.0134   23.4964 N   0  0  0  0  0  0  0  0  0  0  0  0
    9.7602  -16.6187   23.1134 C   0  0  0  0  0  0  0  0  0  0  0  0
   10.0734  -15.4251   23.2465 O   0  0  0  0  0  0  0  0  0  0  0  0
   10.0366  -12.1751   17.9756 N   0  0  0  0  0  0  0  0  0  0  0  0
   10.7412  -17.6213   23.1838 C   0  0  1  0  0  0  0  0  0  0  0  0
   12.1472  -17.2774   23.5151 C   0  0  0  0  0  0  0  0  0  0  0  0
   12.5420  -18.2383   24.5829 C   0  0  0  0  0  0  0  0  0  0  0  0
   11.8329  -17.9522   25.8627 C   0  0  0  0  0  0  0  0  0  0  0  0
   12.2221  -18.9202   26.9055 O   0  0  0  0  0  0  0  0  0  0  0  0
   12.9777  -19.8993   26.5611 C   0  0  0  0  0  0  0  0  0  0  0  0
   12.9163  -17.3827   22.2646 O   0  0  0  0  0  0  0  0  0  0  0  0
   12.4046  -17.8243   21.2040 O   0  0  0  0  0  0  0  0  0  0  0  0
   11.8329  -18.8541   28.2246 O   0  0  0  0  0  0  0  0  0  0  0  0
  2  1  1  6
  2  3  1  0
  2  4  1  0
  5  6  1  1
  5  4  1  0
  7  5  1  0
  8  7  2  0
 10  9  1  0
 10 12  1  0
 11 10  2  0
 13 12  1  0
 13 14  1  0
 14 15  1  0
 16 15  1  6
 16 17  1  0
 17  7  1  0
 18 16  1  0
 18 19  2  0
 20 18  1  0
 21 20  1  0
 21 22  1  6
 23 24  1  0
 23 22  1  0
 24 25  2  0
 26 21  1  0
 27 26  2  0
 28 24  1  0
 29 26  1  0
M  END
$$$$
