LRE.pdb
     RDKit          3D

 29 28  0  0  1  0  0  0  0  0999 V2000
    5.2853  -13.0933   26.1021 C   0  0  0  0  0  0  0  0  0  0  0  0
    6.3297  -13.4357   27.1692 C   0  0  2  0  0  0  0  0  0  0  0  0
    7.0674  -12.1884   27.5981 C   0  0  0  0  0  0  0  0  0  0  0  0
    7.3630  -14.3766   26.5519 C   0  0  0  0  0  0  0  0  0  0  0  0
    6.6098  -15.3902   25.7579 C   0  0  2  0  0  0  0  0  0  0  0  0
    6.3958  -16.5790   26.5191 N   0  0  0  0  0  0  0  0  0  0  0  0
    7.3270  -15.6106   24.4779 C   0  0  0  0  0  0  0  0  0  0  0  0
    8.1427  -16.5543   24.4183 O   0  0  0  0  0  0  0  0  0  0  0  0
    9.3554  -15.2093   17.6378 N   0  0  0  0  0  0  0  0  0  0  0  0
    8.5918  -14.2284   16.8904 C   0  0  0  0  0  0  0  0  0  0  0  0
    8.5392  -14.3504   15.6402 N   0  0  0  0  0  0  0  0  0  0  0  0
    7.9452  -13.1967   17.5674 N   0  0  0  0  0  0  0  0  0  0  0  0
    7.9129  -12.9810   18.9778 C   0  0  0  0  0  0  0  0  0  0  0  0
    8.3164  -14.1409   19.8339 C   0  0  0  0  0  0  0  0  0  0  0  0
    7.6098  -14.0102   21.1730 C   0  0  0  0  0  0  0  0  0  0  0  0
    7.8642  -15.1484   22.1221 C   0  0  2  0  0  0  0  0  0  0  0  0
    7.1273  -14.8078   23.3393 N   0  0  0  0  0  0  0  0  0  0  0  0
    9.3294  -15.1014   22.4174 C   0  0  0  0  0  0  0  0  0  0  0  0
    9.8104  -14.1722   23.0852 O   0  0  0  0  0  0  0  0  0  0  0  0
    8.0541  -13.7685   14.9880 N   0  0  0  0  0  0  0  0  0  0  0  0
   10.1567  -16.1256   21.9285 C   0  0  2  0  0  0  0  0  0  0  0  0
   11.6006  -16.1567   22.2738 C   0  0  0  0  0  0  0  0  0  0  0  0
   11.7611  -17.3347   23.1715 C   0  0  0  0  0  0  0  0  0  0  0  0
   13.1992  -17.6328   23.4276 C   0  0  0  0  0  0  0  0  0  0  0  0
   13.3440  -18.8434   24.2577 O   0  0  0  0  0  0  0  0  0  0  0  0
   12.3266  -19.2258   24.9410 C   0  0  0  0  0  0  0  0  0  0  0  0
   12.3396  -16.2344   21.0033 O   0  0  0  0  0  0  0  0  0  0  0  0
   13.5511  -15.9079   20.9173 O   0  0  0  0  0  0  0  0  0  0  0  0
   14.4928  -19.5960   24.3574 O   0  0  0  0  0  0  0  0  0  0  0  0
  2  1  1  6
  2  3  1  0
  2  4  1  0
  5  6  1  1
  5  4  1  0
  7  5  1  0
  8  7  2  0
 10  9  1  0
 10 12  1  0
 11 10  2  0
 13 12  1  0
 13 14  1  0
 14 15  1  0
 16 15  1  6
 16 17  1  0
 17  7  1  0
 18 16  1  0
 18 19  2  0
 20 18  1  0
 21 20  1  0
 21 22  1  1
 23 24  1  0
 23 22  1  0
 24 25  2  0
 26 21  1  0
 27 26  2  0
 28 24  1  0
 29 26  1  0
M  END
$$$$
