LRE.pdb
     RDKit          3D

 29 28  0  0  1  0  0  0  0  0999 V2000
    5.9653  -12.4791   26.5141 C   0  0  0  0  0  0  0  0  0  0  0  0
    6.9731  -13.3042   27.3203 C   0  0  2  0  0  0  0  0  0  0  0  0
    7.9793  -12.3947   27.9870 C   0  0  0  0  0  0  0  0  0  0  0  0
    7.7492  -14.1990   26.3554 C   0  0  0  0  0  0  0  0  0  0  0  0
    6.7558  -15.0995   25.7017 C   0  0  2  0  0  0  0  0  0  0  0  0
    6.4186  -16.1932   26.5554 N   0  0  0  0  0  0  0  0  0  0  0  0
    7.2904  -15.5055   24.3786 C   0  0  0  0  0  0  0  0  0  0  0  0
    7.7783  -16.6498   24.2698 O   0  0  0  0  0  0  0  0  0  0  0  0
    7.3043  -15.2462   16.8360 N   0  0  0  0  0  0  0  0  0  0  0  0
    8.3010  -14.2398   16.5236 C   0  0  0  0  0  0  0  0  0  0  0  0
    8.8780  -14.3081   15.4086 N   0  0  0  0  0  0  0  0  0  0  0  0
    8.5848  -13.2395   17.4507 N   0  0  0  0  0  0  0  0  0  0  0  0
    8.0823  -13.1333   18.7823 C   0  0  0  0  0  0  0  0  0  0  0  0
    8.5122  -14.2017   19.7388 C   0  0  0  0  0  0  0  0  0  0  0  0
    7.7103  -14.0415   21.0199 C   0  0  0  0  0  0  0  0  0  0  0  0
    7.9493  -15.1202   22.0399 C   0  0  2  0  0  0  0  0  0  0  0  0
    7.2699  -14.6621   23.2521 N   0  0  0  0  0  0  0  0  0  0  0  0
    9.4245  -15.1175   22.2847 C   0  0  0  0  0  0  0  0  0  0  0  0
    9.9514  -14.2213   22.9628 O   0  0  0  0  0  0  0  0  0  0  0  0
    9.5982  -13.7121   15.0543 N   0  0  0  0  0  0  0  0  0  0  0  0
   10.2086  -16.1457   21.7364 C   0  0  2  0  0  0  0  0  0  0  0  0
   11.6577  -16.2353   22.0476 C   0  0  0  0  0  0  0  0  0  0  0  0
   11.8306  -17.5524   22.7218 C   0  0  0  0  0  0  0  0  0  0  0  0
   13.2128  -17.7134   23.2570 C   0  0  0  0  0  0  0  0  0  0  0  0
   13.3861  -19.0438   23.8698 O   0  0  0  0  0  0  0  0  0  0  0  0
   12.4767  -19.4535   24.6782 C   0  0  0  0  0  0  0  0  0  0  0  0
   12.3762  -16.0877   20.7716 O   0  0  0  0  0  0  0  0  0  0  0  0
   11.8594  -16.4216   19.6746 O   0  0  0  0  0  0  0  0  0  0  0  0
   14.4546  -19.8818   23.6415 O   0  0  0  0  0  0  0  0  0  0  0  0
  2  1  1  6
  2  3  1  0
  2  4  1  0
  5  6  1  1
  5  4  1  0
  7  5  1  0
  8  7  2  0
 10  9  1  0
 10 12  1  0
 11 10  2  0
 13 12  1  0
 13 14  1  0
 14 15  1  0
 16 15  1  6
 16 17  1  0
 17  7  1  0
 18 16  1  0
 18 19  2  0
 20 18  1  0
 21 20  1  0
 21 22  1  6
 23 24  1  0
 23 22  1  0
 24 25  2  0
 26 21  1  0
 27 26  2  0
 28 24  1  0
 29 26  1  0
M  END
$$$$
