LRE.pdb
     RDKit          3D

 29 28  0  0  1  0  0  0  0  0999 V2000
    7.8469  -12.5550   27.6893 C   0  0  0  0  0  0  0  0  0  0  0  0
    6.8625  -12.6075   26.5168 C   0  0  2  0  0  0  0  0  0  0  0  0
    5.6795  -11.7064   26.7863 C   0  0  0  0  0  0  0  0  0  0  0  0
    6.3225  -14.0319   26.4006 C   0  0  0  0  0  0  0  0  0  0  0  0
    7.4378  -14.8803   25.8891 C   0  0  2  0  0  0  0  0  0  0  0  0
    8.7038  -14.3551   26.2891 N   0  0  0  0  0  0  0  0  0  0  0  0
    7.2791  -15.0285   24.4214 C   0  0  0  0  0  0  0  0  0  0  0  0
    6.4188  -15.8312   24.0032 O   0  0  0  0  0  0  0  0  0  0  0  0
    8.3329  -12.9538   16.5873 N   0  0  0  0  0  0  0  0  0  0  0  0
    8.0945  -14.3836   16.5375 C   0  0  0  0  0  0  0  0  0  0  0  0
    8.4793  -15.0100   15.5174 N   0  0  0  0  0  0  0  0  0  0  0  0
    7.4592  -15.0142   17.6049 N   0  0  0  0  0  0  0  0  0  0  0  0
    7.2966  -14.5083   18.9295 C   0  0  0  0  0  0  0  0  0  0  0  0
    8.5371  -14.4271   19.7636 C   0  0  0  0  0  0  0  0  0  0  0  0
    8.1415  -13.9706   21.1582 C   0  0  0  0  0  0  0  0  0  0  0  0
    8.4182  -14.9760   22.2416 C   0  0  2  0  0  0  0  0  0  0  0  0
    8.0507  -14.3082   23.4905 N   0  0  0  0  0  0  0  0  0  0  0  0
    9.8991  -15.1834   22.2243 C   0  0  0  0  0  0  0  0  0  0  0  0
   10.6429  -14.4913   22.9374 O   0  0  0  0  0  0  0  0  0  0  0  0
    8.4643  -15.9976   15.3635 N   0  0  0  0  0  0  0  0  0  0  0  0
   10.4391  -16.1747   21.3889 C   0  0  2  0  0  0  0  0  0  0  0  0
   11.8959  -16.4616   21.4049 C   0  0  0  0  0  0  0  0  0  0  0  0
   12.1887  -16.9133   22.7940 C   0  0  0  0  0  0  0  0  0  0  0  0
   12.6402  -18.3339   22.8213 C   0  0  0  0  0  0  0  0  0  0  0  0
   12.4817  -18.9086   24.1704 O   0  0  0  0  0  0  0  0  0  0  0  0
   13.4646  -18.7951   24.9886 C   0  0  0  0  0  0  0  0  0  0  0  0
   12.1429  -17.4649   20.3568 O   0  0  0  0  0  0  0  0  0  0  0  0
   13.3066  -17.7851   20.0032 O   0  0  0  0  0  0  0  0  0  0  0  0
   11.3561  -19.5622   24.6197 O   0  0  0  0  0  0  0  0  0  0  0  0
  2  1  1  1
  2  3  1  0
  2  4  1  0
  5  6  1  6
  5  4  1  0
  7  5  1  0
  8  7  2  0
 10  9  1  0
 10 12  1  0
 11 10  2  0
 13 12  1  0
 13 14  1  0
 14 15  1  0
 16 15  1  6
 16 17  1  0
 17  7  1  0
 18 16  1  0
 18 19  2  0
 20 18  1  0
 21 20  1  0
 21 22  1  1
 23 24  1  0
 23 22  1  0
 24 25  2  0
 26 21  1  0
 27 26  2  0
 28 24  1  0
 29 26  1  0
M  END
$$$$
