LRE.pdb
     RDKit          3D

 29 28  0  0  1  0  0  0  0  0999 V2000
    5.7049  -12.2435   26.7650 C   0  0  0  0  0  0  0  0  0  0  0  0
    6.8462  -12.9183   27.5322 C   0  0  2  0  0  0  0  0  0  0  0  0
    7.8239  -11.8810   28.0343 C   0  0  0  0  0  0  0  0  0  0  0  0
    7.6103  -13.8233   26.5673 C   0  0  0  0  0  0  0  0  0  0  0  0
    6.5946  -14.5150   25.7218 C   0  0  2  0  0  0  0  0  0  0  0  0
    5.8830  -15.4953   26.4776 N   0  0  0  0  0  0  0  0  0  0  0  0
    7.2745  -15.0534   24.5181 C   0  0  0  0  0  0  0  0  0  0  0  0
    8.0833  -15.9922   24.6727 O   0  0  0  0  0  0  0  0  0  0  0  0
    9.4759  -15.4545   16.7991 N   0  0  0  0  0  0  0  0  0  0  0  0
    8.6015  -14.3498   16.4544 C   0  0  0  0  0  0  0  0  0  0  0  0
    8.5360  -14.0046   15.2472 N   0  0  0  0  0  0  0  0  0  0  0  0
    7.8676  -13.7139   17.4533 N   0  0  0  0  0  0  0  0  0  0  0  0
    7.0774  -14.3342   18.4670 C   0  0  0  0  0  0  0  0  0  0  0  0
    7.8293  -15.0035   19.5752 C   0  0  0  0  0  0  0  0  0  0  0  0
    7.3739  -14.3958   20.8916 C   0  0  0  0  0  0  0  0  0  0  0  0
    7.7333  -15.2064   22.1060 C   0  0  2  0  0  0  0  0  0  0  0  0
    7.0473  -14.5545   23.2218 N   0  0  0  0  0  0  0  0  0  0  0  0
    9.2083  -15.0317   22.2797 C   0  0  0  0  0  0  0  0  0  0  0  0
    9.6703  -13.9747   22.7377 O   0  0  0  0  0  0  0  0  0  0  0  0
    8.0015  -13.2580   14.8520 N   0  0  0  0  0  0  0  0  0  0  0  0
   10.0668  -16.0826   21.9173 C   0  0  2  0  0  0  0  0  0  0  0  0
   11.5325  -15.9625   22.1226 C   0  0  0  0  0  0  0  0  0  0  0  0
   11.9410  -17.2402   22.7706 C   0  0  0  0  0  0  0  0  0  0  0  0
   11.3988  -17.3467   24.1552 C   0  0  0  0  0  0  0  0  0  0  0  0
   11.5651  -18.7153   24.6797 O   0  0  0  0  0  0  0  0  0  0  0  0
   10.5969  -19.5418   24.5132 C   0  0  0  0  0  0  0  0  0  0  0  0
   12.1279  -15.7149   20.7996 O   0  0  0  0  0  0  0  0  0  0  0  0
   11.4734  -15.8670   19.7364 O   0  0  0  0  0  0  0  0  0  0  0  0
   12.6835  -19.1744   25.3388 O   0  0  0  0  0  0  0  0  0  0  0  0
  2  1  1  6
  2  3  1  0
  2  4  1  0
  5  6  1  1
  5  4  1  0
  7  5  1  0
  8  7  2  0
 10  9  1  0
 10 12  1  0
 11 10  2  0
 13 12  1  0
 13 14  1  0
 14 15  1  0
 16 15  1  6
 16 17  1  0
 17  7  1  0
 18 16  1  0
 18 19  2  0
 20 18  1  0
 21 20  1  0
 21 22  1  1
 23 24  1  0
 23 22  1  0
 24 25  2  0
 26 21  1  0
 27 26  2  0
 28 24  1  0
 29 26  1  0
M  END
$$$$
