FSI.pdb
     RDKit          3D

 26 26  0  0  1  0  0  0  0  0999 V2000
    6.0199  -18.0856   20.2668 N   0  0  0  0  0  0  0  0  0  0  0  0
    6.8248  -17.0255   20.8357 C   0  0  1  0  0  0  0  0  0  0  0  0
    6.0770  -15.7280   20.6329 C   0  0  0  0  0  0  0  0  0  0  0  0
    7.0895  -14.6531   20.3888 C   0  0  0  0  0  0  0  0  0  0  0  0
    6.8489  -13.3222   20.6018 C   0  0  0  0  0  0  0  0  0  0  0  0
    7.8021  -12.3429   20.3681 C   0  0  0  0  0  0  0  0  0  0  0  0
    9.0366  -12.7172   19.9050 C   0  0  0  0  0  0  0  0  0  0  0  0
    9.3232  -14.0417   19.6766 C   0  0  0  0  0  0  0  0  0  0  0  0
    8.3614  -14.9920   19.9163 C   0  0  0  0  0  0  0  0  0  0  0  0
    7.0615  -17.3285   22.2587 C   0  0  0  0  0  0  0  0  0  0  0  0
    6.0864  -17.6161   22.9910 O   0  0  0  0  0  0  0  0  0  0  0  0
   10.6327  -18.5707   23.5182 O   0  0  0  0  0  0  0  0  0  0  0  0
    9.5005  -18.8391   24.3153 C   0  0  0  0  0  0  0  0  0  0  0  0
    8.6259  -17.6028   24.2411 C   0  0  2  0  0  0  0  0  0  0  0  0
    8.3483  -17.3163   22.8674 N   0  0  0  0  0  0  0  0  0  0  0  0
    9.3355  -16.5293   24.9541 C   0  0  0  0  0  0  0  0  0  0  0  0
   10.2003  -15.8820   24.3168 O   0  0  0  0  0  0  0  0  0  0  0  0
    6.8199  -12.9782   27.2559 C   0  0  0  0  0  0  0  0  0  0  0  0
    8.1914  -13.2510   26.7275 C   0  0  0  0  0  0  0  0  0  0  0  0
    9.0872  -14.0394   27.6075 C   0  0  2  0  0  0  0  0  0  0  0  0
    9.9550  -13.0726   28.3871 C   0  0  0  0  0  0  0  0  0  0  0  0
    9.8520  -15.1504   26.9964 C   0  0  2  0  0  0  0  0  0  0  0  0
    9.1209  -16.1635   26.3154 N   0  0  0  0  0  0  0  0  0  0  0  0
   10.7992  -15.6789   28.0024 C   0  0  0  0  0  0  0  0  0  0  0  0
   11.7687  -14.9589   28.3398 O   0  0  0  0  0  0  0  0  0  0  0  0
   10.6702  -16.9190   28.5857 O   0  0  0  0  0  0  0  0  0  0  0  0
  2  1  1  1
  2 10  1  0
  3  2  1  0
  3  4  1  0
  4  5  2  0
  4  9  1  0
  5  6  1  0
  6  7  2  0
  8  7  1  0
  9  8  2  0
 10 11  2  0
 12 13  1  0
 14 13  1  6
 14 16  1  0
 15 14  1  0
 15 10  1  0
 16 23  1  0
 16 17  2  0
 18 19  1  0
 19 20  1  0
 20 22  1  0
 20 21  1  6
 22 24  1  0
 22 23  1  1
 24 25  2  0
 24 26  1  0
M  END
$$$$
