FSI.pdb
     RDKit          3D

 26 26  0  0  1  0  0  0  0  0999 V2000
    7.2782  -18.2648   18.6824 N   0  0  0  0  0  0  0  0  0  0  0  0
    7.6860  -17.0260   19.3105 C   0  0  1  0  0  0  0  0  0  0  0  0
    6.8446  -15.9182   18.7200 C   0  0  0  0  0  0  0  0  0  0  0  0
    7.2962  -14.6290   19.3317 C   0  0  0  0  0  0  0  0  0  0  0  0
    6.7334  -14.0844   20.4548 C   0  0  0  0  0  0  0  0  0  0  0  0
    7.1677  -12.8878   21.0041 C   0  0  0  0  0  0  0  0  0  0  0  0
    8.2016  -12.2192   20.4020 C   0  0  0  0  0  0  0  0  0  0  0  0
    8.7971  -12.7279   19.2727 C   0  0  0  0  0  0  0  0  0  0  0  0
    8.3481  -13.9152   18.7489 C   0  0  0  0  0  0  0  0  0  0  0  0
    7.5089  -17.1587   20.7679 C   0  0  0  0  0  0  0  0  0  0  0  0
    6.3738  -17.4336   21.2215 O   0  0  0  0  0  0  0  0  0  0  0  0
   10.6081  -18.0218   23.1497 O   0  0  0  0  0  0  0  0  0  0  0  0
    9.2947  -18.3011   23.5810 C   0  0  0  0  0  0  0  0  0  0  0  0
    8.4418  -17.1313   23.1304 C   0  0  2  0  0  0  0  0  0  0  0  0
    8.5616  -16.9928   21.7117 N   0  0  0  0  0  0  0  0  0  0  0  0
    8.8848  -15.9550   23.8950 C   0  0  0  0  0  0  0  0  0  0  0  0
    9.8487  -15.2951   23.4385 O   0  0  0  0  0  0  0  0  0  0  0  0
    5.8406  -12.5049   27.4876 C   0  0  0  0  0  0  0  0  0  0  0  0
    6.6447  -13.6570   26.9770 C   0  0  0  0  0  0  0  0  0  0  0  0
    7.8682  -13.3139   26.2129 C   0  0  2  0  0  0  0  0  0  0  0  0
    7.4581  -12.4931   25.0072 C   0  0  0  0  0  0  0  0  0  0  0  0
    8.8059  -14.4113   25.8824 C   0  0  2  0  0  0  0  0  0  0  0  0
    8.3070  -15.5025   25.1175 N   0  0  0  0  0  0  0  0  0  0  0  0
    9.5006  -14.8256   27.1211 C   0  0  0  0  0  0  0  0  0  0  0  0
    9.3606  -16.0086   27.5121 O   0  0  0  0  0  0  0  0  0  0  0  0
   10.2914  -13.9792   27.8648 O   0  0  0  0  0  0  0  0  0  0  0  0
  2  1  1  6
  2 10  1  0
  3  2  1  0
  3  4  1  0
  4  5  2  0
  4  9  1  0
  5  6  1  0
  6  7  2  0
  8  7  1  0
  9  8  2  0
 10 11  2  0
 12 13  1  0
 14 13  1  1
 14 16  1  0
 15 14  1  0
 15 10  1  0
 16 23  1  0
 16 17  2  0
 18 19  1  0
 19 20  1  0
 20 22  1  0
 20 21  1  6
 22 24  1  0
 22 23  1  1
 24 25  2  0
 24 26  1  0
M  END
$$$$
