FSI.pdb
     RDKit          3D

 26 26  0  0  1  0  0  0  0  0999 V2000
    7.8393  -15.1277   19.8827 N   0  0  0  0  0  0  0  0  0  0  0  0
    7.9777  -14.6348   21.2367 C   0  0  1  0  0  0  0  0  0  0  0  0
    6.6931  -13.9242   21.5956 C   0  0  0  0  0  0  0  0  0  0  0  0
    6.7594  -13.5714   23.0485 C   0  0  0  0  0  0  0  0  0  0  0  0
    6.2417  -14.3563   24.0439 C   0  0  0  0  0  0  0  0  0  0  0  0
    6.3140  -14.0091   25.3842 C   0  0  0  0  0  0  0  0  0  0  0  0
    6.9271  -12.8337   25.7319 C   0  0  0  0  0  0  0  0  0  0  0  0
    7.4611  -12.0139   24.7667 C   0  0  0  0  0  0  0  0  0  0  0  0
    7.3764  -12.3811   23.4463 C   0  0  0  0  0  0  0  0  0  0  0  0
    8.2626  -15.7766   22.1245 C   0  0  0  0  0  0  0  0  0  0  0  0
    7.4048  -16.6814   22.2482 O   0  0  0  0  0  0  0  0  0  0  0  0
   10.6215  -19.1242   24.0057 O   0  0  0  0  0  0  0  0  0  0  0  0
   10.6117  -18.0116   23.1390 C   0  0  0  0  0  0  0  0  0  0  0  0
    9.7515  -16.9583   23.8095 C   0  0  2  0  0  0  0  0  0  0  0  0
    9.4703  -15.9224   22.8639 N   0  0  0  0  0  0  0  0  0  0  0  0
   10.4776  -16.5070   25.0068 C   0  0  0  0  0  0  0  0  0  0  0  0
   11.5453  -15.8723   24.8335 O   0  0  0  0  0  0  0  0  0  0  0  0
    9.5777  -12.7688   28.2945 C   0  0  0  0  0  0  0  0  0  0  0  0
   10.1676  -13.9021   27.5182 C   0  0  0  0  0  0  0  0  0  0  0  0
   10.3710  -15.1689   28.2614 C   0  0  2  0  0  0  0  0  0  0  0  0
   11.2323  -14.8736   29.4724 C   0  0  0  0  0  0  0  0  0  0  0  0
   10.8237  -16.3529   27.4959 C   0  0  2  0  0  0  0  0  0  0  0  0
   10.0662  -16.7335   26.3531 N   0  0  0  0  0  0  0  0  0  0  0  0
   11.0626  -17.4630   28.4442 C   0  0  0  0  0  0  0  0  0  0  0  0
   10.1851  -18.3526   28.5489 O   0  0  0  0  0  0  0  0  0  0  0  0
   12.1974  -17.5684   29.2160 O   0  0  0  0  0  0  0  0  0  0  0  0
  2  1  1  6
  2 10  1  0
  3  2  1  0
  3  4  1  0
  4  5  2  0
  4  9  1  0
  5  6  1  0
  6  7  2  0
  8  7  1  0
  9  8  2  0
 10 11  2  0
 12 13  1  0
 14 13  1  6
 14 16  1  0
 15 14  1  0
 15 10  1  0
 16 23  1  0
 16 17  2  0
 18 19  1  0
 19 20  1  0
 20 22  1  0
 20 21  1  1
 22 24  1  0
 22 23  1  6
 24 25  2  0
 24 26  1  0
M  END
$$$$
