FSI.pdb
     RDKit          3D

 26 26  0  0  1  0  0  0  0  0999 V2000
    5.7450  -17.6981   23.4268 N   0  0  0  0  0  0  0  0  0  0  0  0
    6.5258  -16.6023   23.9607 C   0  0  1  0  0  0  0  0  0  0  0  0
    6.0180  -16.3193   25.3556 C   0  0  0  0  0  0  0  0  0  0  0  0
    6.5735  -14.9965   25.7819 C   0  0  0  0  0  0  0  0  0  0  0  0
    5.9432  -13.8018   25.5583 C   0  0  0  0  0  0  0  0  0  0  0  0
    6.4769  -12.5874   25.9616 C   0  0  0  0  0  0  0  0  0  0  0  0
    7.6840  -12.5773   26.6107 C   0  0  0  0  0  0  0  0  0  0  0  0
    8.3530  -13.7523   26.8569 C   0  0  0  0  0  0  0  0  0  0  0  0
    7.8024  -14.9416   26.4471 C   0  0  0  0  0  0  0  0  0  0  0  0
    7.9486  -16.9872   23.9411 C   0  0  0  0  0  0  0  0  0  0  0  0
    8.3204  -17.9811   24.6072 O   0  0  0  0  0  0  0  0  0  0  0  0
   10.4875  -16.1101   20.9806 O   0  0  0  0  0  0  0  0  0  0  0  0
   11.0460  -15.6997   22.2089 C   0  0  0  0  0  0  0  0  0  0  0  0
   10.3569  -16.5179   23.2834 C   0  0  2  0  0  0  0  0  0  0  0  0
    8.9467  -16.2921   23.2015 N   0  0  0  0  0  0  0  0  0  0  0  0
   10.9595  -16.1351   24.5698 C   0  0  0  0  0  0  0  0  0  0  0  0
   11.9259  -15.3361   24.5433 O   0  0  0  0  0  0  0  0  0  0  0  0
    9.7035  -12.6850   27.8981 C   0  0  0  0  0  0  0  0  0  0  0  0
   10.4805  -13.7477   27.1896 C   0  0  0  0  0  0  0  0  0  0  0  0
   10.4828  -15.0886   27.8224 C   0  0  2  0  0  0  0  0  0  0  0  0
   10.9953  -14.9415   29.2406 C   0  0  0  0  0  0  0  0  0  0  0  0
   11.1218  -16.2002   27.0814 C   0  0  2  0  0  0  0  0  0  0  0  0
   10.5343  -16.6002   25.8488 N   0  0  0  0  0  0  0  0  0  0  0  0
   11.3502  -17.3210   28.0196 C   0  0  0  0  0  0  0  0  0  0  0  0
   12.1066  -17.1282   29.0009 O   0  0  0  0  0  0  0  0  0  0  0  0
   10.7753  -18.5627   27.8698 O   0  0  0  0  0  0  0  0  0  0  0  0
  2  1  1  1
  2 10  1  0
  3  2  1  0
  3  4  1  0
  4  5  2  0
  4  9  1  0
  5  6  1  0
  6  7  2  0
  8  7  1  0
  9  8  2  0
 10 11  2  0
 12 13  1  0
 14 13  1  6
 14 16  1  0
 15 14  1  0
 15 10  1  0
 16 23  1  0
 16 17  2  0
 18 19  1  0
 19 20  1  0
 20 22  1  0
 20 21  1  1
 22 24  1  0
 22 23  1  6
 24 25  2  0
 24 26  1  0
M  END
$$$$
