FSI.pdb
     RDKit          3D

 26 26  0  0  1  0  0  0  0  0999 V2000
    9.3684  -17.9161   19.2782 N   0  0  0  0  0  0  0  0  0  0  0  0
    9.1081  -16.7099   20.0350 C   0  0  1  0  0  0  0  0  0  0  0  0
    7.6586  -16.3411   19.8184 C   0  0  0  0  0  0  0  0  0  0  0  0
    7.5072  -14.8865   20.1369 C   0  0  0  0  0  0  0  0  0  0  0  0
    7.9509  -13.8812   19.3200 C   0  0  0  0  0  0  0  0  0  0  0  0
    7.8004  -12.5396   19.6356 C   0  0  0  0  0  0  0  0  0  0  0  0
    7.1834  -12.2009   20.8117 C   0  0  0  0  0  0  0  0  0  0  0  0
    6.7220  -13.1763   21.6629 C   0  0  0  0  0  0  0  0  0  0  0  0
    6.8834  -14.4978   21.3266 C   0  0  0  0  0  0  0  0  0  0  0  0
    9.4231  -16.9680   21.4517 C   0  0  0  0  0  0  0  0  0  0  0  0
   10.3136  -17.8022   21.7359 O   0  0  0  0  0  0  0  0  0  0  0  0
    7.0443  -15.9817   24.5944 O   0  0  0  0  0  0  0  0  0  0  0  0
    8.3160  -15.3803   24.6957 C   0  0  0  0  0  0  0  0  0  0  0  0
    9.2599  -16.2427   23.8807 C   0  0  2  0  0  0  0  0  0  0  0  0
    8.7710  -16.3199   22.5385 N   0  0  0  0  0  0  0  0  0  0  0  0
    9.3590  -17.5404   24.5665 C   0  0  0  0  0  0  0  0  0  0  0  0
    8.5831  -18.4536   24.1963 O   0  0  0  0  0  0  0  0  0  0  0  0
   12.6922  -22.2246   25.3552 C   0  0  0  0  0  0  0  0  0  0  0  0
   11.7229  -21.3547   26.0893 C   0  0  0  0  0  0  0  0  0  0  0  0
   11.5207  -19.9921   25.5408 C   0  0  2  0  0  0  0  0  0  0  0  0
   12.8695  -19.3055   25.4709 C   0  0  0  0  0  0  0  0  0  0  0  0
   10.4668  -19.1512   26.1531 C   0  0  2  0  0  0  0  0  0  0  0  0
   10.2673  -17.8462   25.6222 N   0  0  0  0  0  0  0  0  0  0  0  0
   10.6423  -19.1722   27.6219 C   0  0  0  0  0  0  0  0  0  0  0  0
   10.5545  -20.2741   28.2138 O   0  0  0  0  0  0  0  0  0  0  0  0
   10.8967  -18.0452   28.3701 O   0  0  0  0  0  0  0  0  0  0  0  0
  2  1  1  6
  2 10  1  0
  3  2  1  0
  3  4  1  0
  4  5  2  0
  4  9  1  0
  5  6  1  0
  6  7  2  0
  8  7  1  0
  9  8  2  0
 10 11  2  0
 12 13  1  0
 14 13  1  1
 14 16  1  0
 15 14  1  0
 15 10  1  0
 16 23  1  0
 16 17  2  0
 18 19  1  0
 19 20  1  0
 20 22  1  0
 20 21  1  1
 22 24  1  0
 22 23  1  6
 24 25  2  0
 24 26  1  0
M  END
$$$$
