FSI.pdb
     RDKit          3D

 26 26  0  0  1  0  0  0  0  0999 V2000
    7.4384  -16.2747   25.4484 N   0  0  0  0  0  0  0  0  0  0  0  0
    6.9412  -16.9186   24.2510 C   0  0  1  0  0  0  0  0  0  0  0  0
    5.9881  -15.9568   23.5798 C   0  0  0  0  0  0  0  0  0  0  0  0
    6.1536  -14.6213   24.2349 C   0  0  0  0  0  0  0  0  0  0  0  0
    5.6458  -14.3139   25.4688 C   0  0  0  0  0  0  0  0  0  0  0  0
    5.8107  -13.0691   26.0566 C   0  0  0  0  0  0  0  0  0  0  0  0
    6.5093  -12.1040   25.3790 C   0  0  0  0  0  0  0  0  0  0  0  0
    7.0371  -12.3674   24.1378 C   0  0  0  0  0  0  0  0  0  0  0  0
    6.8596  -13.6086   23.5779 C   0  0  0  0  0  0  0  0  0  0  0  0
    8.0895  -17.2700   23.3963 C   0  0  0  0  0  0  0  0  0  0  0  0
    8.0344  -18.3089   22.6981 O   0  0  0  0  0  0  0  0  0  0  0  0
   11.1548  -15.2334   22.2045 O   0  0  0  0  0  0  0  0  0  0  0  0
   11.5981  -16.4748   22.7059 C   0  0  0  0  0  0  0  0  0  0  0  0
   10.5789  -16.9023   23.7438 C   0  0  2  0  0  0  0  0  0  0  0  0
    9.2789  -16.4927   23.3093 N   0  0  0  0  0  0  0  0  0  0  0  0
   11.0012  -16.3213   25.0277 C   0  0  0  0  0  0  0  0  0  0  0  0
   11.9076  -15.4549   25.0027 O   0  0  0  0  0  0  0  0  0  0  0  0
    9.3963  -12.8231   28.1508 C   0  0  0  0  0  0  0  0  0  0  0  0
   10.2588  -13.8603   27.5063 C   0  0  0  0  0  0  0  0  0  0  0  0
   10.4309  -15.1272   28.2571 C   0  0  2  0  0  0  0  0  0  0  0  0
   11.1137  -14.8088   29.5717 C   0  0  0  0  0  0  0  0  0  0  0  0
   11.0385  -16.2744   27.5447 C   0  0  2  0  0  0  0  0  0  0  0  0
   10.4635  -16.6643   26.3029 N   0  0  0  0  0  0  0  0  0  0  0  0
   11.1959  -17.3922   28.5010 C   0  0  0  0  0  0  0  0  0  0  0  0
   12.1723  -17.3669   29.2872 O   0  0  0  0  0  0  0  0  0  0  0  0
   10.3261  -18.4567   28.5710 O   0  0  0  0  0  0  0  0  0  0  0  0
  2  1  1  1
  2 10  1  0
  3  2  1  0
  3  4  1  0
  4  5  2  0
  4  9  1  0
  5  6  1  0
  6  7  2  0
  8  7  1  0
  9  8  2  0
 10 11  2  0
 12 13  1  0
 14 13  1  6
 14 16  1  0
 15 14  1  0
 15 10  1  0
 16 23  1  0
 16 17  2  0
 18 19  1  0
 19 20  1  0
 20 22  1  0
 20 21  1  1
 22 24  1  0
 22 23  1  6
 24 25  2  0
 24 26  1  0
M  END
$$$$
