FSI.pdb
     RDKit          3D

 26 26  0  0  1  0  0  0  0  0999 V2000
   10.2624  -17.6534   20.0170 N   0  0  0  0  0  0  0  0  0  0  0  0
    9.6002  -16.5168   20.6211 C   0  0  1  0  0  0  0  0  0  0  0  0
    8.2295  -16.4033   19.9947 C   0  0  0  0  0  0  0  0  0  0  0  0
    7.7807  -14.9826   20.1376 C   0  0  0  0  0  0  0  0  0  0  0  0
    8.0721  -14.0003   19.2295 C   0  0  0  0  0  0  0  0  0  0  0  0
    7.6462  -12.6898   19.3825 C   0  0  0  0  0  0  0  0  0  0  0  0
    6.9032  -12.3594   20.4859 C   0  0  0  0  0  0  0  0  0  0  0  0
    6.5865  -13.3124   21.4240 C   0  0  0  0  0  0  0  0  0  0  0  0
    7.0206  -14.6033   21.2485 C   0  0  0  0  0  0  0  0  0  0  0  0
    9.5429  -16.7278   22.0789 C   0  0  0  0  0  0  0  0  0  0  0  0
   10.6114  -16.8800   22.7152 O   0  0  0  0  0  0  0  0  0  0  0  0
    6.9940  -18.2951   24.6444 O   0  0  0  0  0  0  0  0  0  0  0  0
    6.8713  -16.8923   24.7219 C   0  0  0  0  0  0  0  0  0  0  0  0
    8.1647  -16.3217   24.1737 C   0  0  2  0  0  0  0  0  0  0  0  0
    8.3317  -16.7704   22.8257 N   0  0  0  0  0  0  0  0  0  0  0  0
    9.2401  -16.7345   25.0889 C   0  0  0  0  0  0  0  0  0  0  0  0
   10.0062  -17.6517   24.7083 O   0  0  0  0  0  0  0  0  0  0  0  0
   10.0524  -13.8616   29.8107 C   0  0  0  0  0  0  0  0  0  0  0  0
   10.0321  -15.2886   29.3655 C   0  0  0  0  0  0  0  0  0  0  0  0
   10.9850  -15.6522   28.2894 C   0  0  2  0  0  0  0  0  0  0  0  0
   11.5630  -14.3737   27.7176 C   0  0  0  0  0  0  0  0  0  0  0  0
   10.5235  -16.6016   27.2508 C   0  0  2  0  0  0  0  0  0  0  0  0
    9.4833  -16.1763   26.3782 N   0  0  0  0  0  0  0  0  0  0  0  0
   10.2609  -17.9089   27.8918 C   0  0  0  0  0  0  0  0  0  0  0  0
   11.2129  -18.4905   28.4641 O   0  0  0  0  0  0  0  0  0  0  0  0
    9.0265  -18.5179   27.8913 O   0  0  0  0  0  0  0  0  0  0  0  0
  2  1  1  6
  2 10  1  0
  3  2  1  0
  3  4  1  0
  4  5  2  0
  4  9  1  0
  5  6  1  0
  6  7  2  0
  8  7  1  0
  9  8  2  0
 10 11  2  0
 12 13  1  0
 14 13  1  1
 14 16  1  0
 15 14  1  0
 15 10  1  0
 16 23  1  0
 16 17  2  0
 18 19  1  0
 19 20  1  0
 20 22  1  0
 20 21  1  6
 22 24  1  0
 22 23  1  1
 24 25  2  0
 24 26  1  0
M  END
$$$$
