FSI.pdb
     RDKit          3D

 26 26  0  0  1  0  0  0  0  0999 V2000
    6.9973  -18.3349   19.4564 N   0  0  0  0  0  0  0  0  0  0  0  0
    7.4978  -17.1066   20.0363 C   0  0  1  0  0  0  0  0  0  0  0  0
    6.7179  -15.9649   19.4263 C   0  0  0  0  0  0  0  0  0  0  0  0
    7.2472  -14.6912   20.0073 C   0  0  0  0  0  0  0  0  0  0  0  0
    8.2231  -13.9354   19.4148 C   0  0  0  0  0  0  0  0  0  0  0  0
    8.6991  -12.7583   19.9717 C   0  0  0  0  0  0  0  0  0  0  0  0
    8.1749  -12.3299   21.1634 C   0  0  0  0  0  0  0  0  0  0  0  0
    7.1936  -13.0562   21.7945 C   0  0  0  0  0  0  0  0  0  0  0  0
    6.7395  -14.2185   21.2216 C   0  0  0  0  0  0  0  0  0  0  0  0
    7.3431  -17.1821   21.5003 C   0  0  0  0  0  0  0  0  0  0  0  0
    6.1913  -17.1666   21.9931 O   0  0  0  0  0  0  0  0  0  0  0  0
   10.0346  -19.0270   23.8920 O   0  0  0  0  0  0  0  0  0  0  0  0
    8.6694  -18.8496   24.1986 C   0  0  0  0  0  0  0  0  0  0  0  0
    8.3332  -17.4185   23.8276 C   0  0  2  0  0  0  0  0  0  0  0  0
    8.4357  -17.2740   22.4081 N   0  0  0  0  0  0  0  0  0  0  0  0
    9.2405  -16.5499   24.5937 C   0  0  0  0  0  0  0  0  0  0  0  0
   10.3685  -16.3101   24.1007 O   0  0  0  0  0  0  0  0  0  0  0  0
    7.8692  -12.1301   27.8518 C   0  0  0  0  0  0  0  0  0  0  0  0
    8.2961  -13.2611   26.9723 C   0  0  0  0  0  0  0  0  0  0  0  0
    9.3494  -14.1517   27.5162 C   0  0  2  0  0  0  0  0  0  0  0  0
   10.4343  -13.2854   28.1228 C   0  0  0  0  0  0  0  0  0  0  0  0
    9.8764  -15.2167   26.6326 C   0  0  2  0  0  0  0  0  0  0  0  0
    8.9421  -15.9570   25.8556 N   0  0  0  0  0  0  0  0  0  0  0  0
   10.7979  -16.0666   27.4182 C   0  0  0  0  0  0  0  0  0  0  0  0
   10.3261  -17.0717   28.0008 O   0  0  0  0  0  0  0  0  0  0  0  0
   12.1447  -15.8102   27.5417 O   0  0  0  0  0  0  0  0  0  0  0  0
  2  1  1  6
  2 10  1  0
  3  2  1  0
  3  4  1  0
  4  5  2  0
  4  9  1  0
  5  6  1  0
  6  7  2  0
  8  7  1  0
  9  8  2  0
 10 11  2  0
 12 13  1  0
 14 13  1  6
 14 16  1  0
 15 14  1  0
 15 10  1  0
 16 23  1  0
 16 17  2  0
 18 19  1  0
 19 20  1  0
 20 22  1  0
 20 21  1  6
 22 24  1  0
 22 23  1  1
 24 25  2  0
 24 26  1  0
M  END
$$$$
