FSI.pdb
     RDKit          3D

 26 26  0  0  1  0  0  0  0  0999 V2000
    7.4230  -15.3248   20.1865 N   0  0  0  0  0  0  0  0  0  0  0  0
    7.6749  -14.7179   21.4764 C   0  0  1  0  0  0  0  0  0  0  0  0
    6.4340  -13.9492   21.8675 C   0  0  0  0  0  0  0  0  0  0  0  0
    6.6672  -13.3713   23.2282 C   0  0  0  0  0  0  0  0  0  0  0  0
    6.2111  -13.9457   24.3844 C   0  0  0  0  0  0  0  0  0  0  0  0
    6.4385  -13.3922   25.6350 C   0  0  0  0  0  0  0  0  0  0  0  0
    7.1478  -12.2227   25.7227 C   0  0  0  0  0  0  0  0  0  0  0  0
    7.6251  -11.6102   24.5888 C   0  0  0  0  0  0  0  0  0  0  0  0
    7.3863  -12.1794   23.3622 C   0  0  0  0  0  0  0  0  0  0  0  0
    8.0101  -15.7833   22.4384 C   0  0  0  0  0  0  0  0  0  0  0  0
    7.1012  -16.5414   22.8494 O   0  0  0  0  0  0  0  0  0  0  0  0
   11.4397  -17.5219   22.4332 O   0  0  0  0  0  0  0  0  0  0  0  0
   10.4154  -18.1310   23.1875 C   0  0  0  0  0  0  0  0  0  0  0  0
    9.6879  -17.0080   23.9005 C   0  0  2  0  0  0  0  0  0  0  0  0
    9.3223  -16.0127   22.9403 N   0  0  0  0  0  0  0  0  0  0  0  0
   10.5794  -16.5251   24.9665 C   0  0  0  0  0  0  0  0  0  0  0  0
   11.5932  -15.8711   24.6236 O   0  0  0  0  0  0  0  0  0  0  0  0
    9.8202  -14.5678   30.3942 C   0  0  0  0  0  0  0  0  0  0  0  0
    9.7740  -15.3308   29.1094 C   0  0  0  0  0  0  0  0  0  0  0  0
   10.9567  -15.1963   28.2253 C   0  0  2  0  0  0  0  0  0  0  0  0
   10.8268  -13.8973   27.4562 C   0  0  0  0  0  0  0  0  0  0  0  0
   11.3128  -16.3505   27.3687 C   0  0  2  0  0  0  0  0  0  0  0  0
   10.3856  -16.7411   26.3625 N   0  0  0  0  0  0  0  0  0  0  0  0
   11.7468  -17.4657   28.2386 C   0  0  0  0  0  0  0  0  0  0  0  0
   11.0622  -18.5162   28.2418 O   0  0  0  0  0  0  0  0  0  0  0  0
   12.8621  -17.4083   29.0433 O   0  0  0  0  0  0  0  0  0  0  0  0
  2  1  1  6
  2 10  1  0
  3  2  1  0
  3  4  1  0
  4  5  2  0
  4  9  1  0
  5  6  1  0
  6  7  2  0
  8  7  1  0
  9  8  2  0
 10 11  2  0
 12 13  1  0
 14 13  1  6
 14 16  1  0
 15 14  1  0
 15 10  1  0
 16 23  1  0
 16 17  2  0
 18 19  1  0
 19 20  1  0
 20 22  1  0
 20 21  1  6
 22 24  1  0
 22 23  1  1
 24 25  2  0
 24 26  1  0
M  END
$$$$
