FSI.pdb
     RDKit          3D

 26 26  0  0  1  0  0  0  0  0999 V2000
    7.7401  -17.6665   19.2758 N   0  0  0  0  0  0  0  0  0  0  0  0
    8.0686  -16.4940   20.0588 C   0  0  1  0  0  0  0  0  0  0  0  0
    6.9675  -15.4812   19.8450 C   0  0  0  0  0  0  0  0  0  0  0  0
    7.3661  -14.2212   20.5474 C   0  0  0  0  0  0  0  0  0  0  0  0
    7.1045  -13.9742   21.8685 C   0  0  0  0  0  0  0  0  0  0  0  0
    7.4828  -12.7987   22.4989 C   0  0  0  0  0  0  0  0  0  0  0  0
    8.1455  -11.8423   21.7746 C   0  0  0  0  0  0  0  0  0  0  0  0
    8.4296  -12.0466   20.4456 C   0  0  0  0  0  0  0  0  0  0  0  0
    8.0440  -13.2197   19.8451 C   0  0  0  0  0  0  0  0  0  0  0  0
    8.2046  -16.8959   21.4705 C   0  0  0  0  0  0  0  0  0  0  0  0
    7.2112  -17.3722   22.0671 O   0  0  0  0  0  0  0  0  0  0  0  0
   11.9097  -17.4165   23.1281 O   0  0  0  0  0  0  0  0  0  0  0  0
   10.8054  -18.1663   23.5833 C   0  0  0  0  0  0  0  0  0  0  0  0
    9.6148  -17.2278   23.5571 C   0  0  2  0  0  0  0  0  0  0  0  0
    9.4124  -16.7773   22.2145 N   0  0  0  0  0  0  0  0  0  0  0  0
    9.8915  -16.1532   24.5231 C   0  0  0  0  0  0  0  0  0  0  0  0
   10.6619  -15.2319   24.1618 O   0  0  0  0  0  0  0  0  0  0  0  0
    6.4755  -13.1651   27.4706 C   0  0  0  0  0  0  0  0  0  0  0  0
    7.6055  -13.7811   26.7101 C   0  0  0  0  0  0  0  0  0  0  0  0
    8.7020  -14.3612   27.5224 C   0  0  2  0  0  0  0  0  0  0  0  0
    9.2458  -13.2746   28.4274 C   0  0  0  0  0  0  0  0  0  0  0  0
    9.7602  -15.1169   26.8139 C   0  0  2  0  0  0  0  0  0  0  0  0
    9.3546  -16.0734   25.8416 N   0  0  0  0  0  0  0  0  0  0  0  0
   10.7047  -15.6563   27.8167 C   0  0  0  0  0  0  0  0  0  0  0  0
   10.5930  -16.8601   28.1491 O   0  0  0  0  0  0  0  0  0  0  0  0
   11.6981  -14.9046   28.4022 O   0  0  0  0  0  0  0  0  0  0  0  0
  2  1  1  6
  2 10  1  0
  3  2  1  0
  3  4  1  0
  4  5  2  0
  4  9  1  0
  5  6  1  0
  6  7  2  0
  8  7  1  0
  9  8  2  0
 10 11  2  0
 12 13  1  0
 14 13  1  6
 14 16  1  0
 15 14  1  0
 15 10  1  0
 16 23  1  0
 16 17  2  0
 18 19  1  0
 19 20  1  0
 20 22  1  0
 20 21  1  6
 22 24  1  0
 22 23  1  1
 24 25  2  0
 24 26  1  0
M  END
$$$$
