FSI.pdb
     RDKit          3D

 26 26  0  0  1  0  0  0  0  0999 V2000
    7.8324  -18.1467   18.4332 N   0  0  0  0  0  0  0  0  0  0  0  0
    8.1269  -16.8950   19.0981 C   0  0  1  0  0  0  0  0  0  0  0  0
    7.3060  -15.8188   18.4259 C   0  0  0  0  0  0  0  0  0  0  0  0
    7.5523  -14.5361   19.1566 C   0  0  0  0  0  0  0  0  0  0  0  0
    8.5039  -13.6236   18.7871 C   0  0  0  0  0  0  0  0  0  0  0  0
    8.7153  -12.4412   19.4797 C   0  0  0  0  0  0  0  0  0  0  0  0
    7.9433  -12.1706   20.5794 C   0  0  0  0  0  0  0  0  0  0  0  0
    6.9760  -13.0574   20.9874 C   0  0  0  0  0  0  0  0  0  0  0  0
    6.7867  -14.2213   20.2838 C   0  0  0  0  0  0  0  0  0  0  0  0
    7.8107  -17.0393   20.5306 C   0  0  0  0  0  0  0  0  0  0  0  0
    6.6367  -17.3141   20.8710 O   0  0  0  0  0  0  0  0  0  0  0  0
   10.6282  -18.0620   23.1526 O   0  0  0  0  0  0  0  0  0  0  0  0
    9.2682  -18.2874   23.4501 C   0  0  0  0  0  0  0  0  0  0  0  0
    8.5191  -17.0597   22.9700 C   0  0  2  0  0  0  0  0  0  0  0  0
    8.7686  -16.8848   21.5723 N   0  0  0  0  0  0  0  0  0  0  0  0
    8.9542  -15.9332   23.8102 C   0  0  0  0  0  0  0  0  0  0  0  0
   10.0133  -15.3437   23.4880 O   0  0  0  0  0  0  0  0  0  0  0  0
    5.7866  -12.3989   27.2439 C   0  0  0  0  0  0  0  0  0  0  0  0
    6.5733  -13.5831   26.7816 C   0  0  0  0  0  0  0  0  0  0  0  0
    7.8696  -13.2916   26.1237 C   0  0  2  0  0  0  0  0  0  0  0  0
    7.6019  -12.4086   24.9219 C   0  0  0  0  0  0  0  0  0  0  0  0
    8.7633  -14.4335   25.8236 C   0  0  2  0  0  0  0  0  0  0  0  0
    8.2689  -15.4554   24.9657 N   0  0  0  0  0  0  0  0  0  0  0  0
    9.3161  -14.9456   27.0967 C   0  0  0  0  0  0  0  0  0  0  0  0
    9.0717  -16.1338   27.4138 O   0  0  0  0  0  0  0  0  0  0  0  0
   10.0837  -14.1848   27.9492 O   0  0  0  0  0  0  0  0  0  0  0  0
  2  1  1  6
  2 10  1  0
  3  2  1  0
  3  4  1  0
  4  5  2  0
  4  9  1  0
  5  6  1  0
  6  7  2  0
  8  7  1  0
  9  8  2  0
 10 11  2  0
 12 13  1  0
 14 13  1  1
 14 16  1  0
 15 14  1  0
 15 10  1  0
 16 23  1  0
 16 17  2  0
 18 19  1  0
 19 20  1  0
 20 22  1  0
 20 21  1  6
 22 24  1  0
 22 23  1  1
 24 25  2  0
 24 26  1  0
M  END
$$$$
