FSI.pdb
     RDKit          3D

 26 26  0  0  1  0  0  0  0  0999 V2000
    5.4718  -17.6471   23.7333 N   0  0  0  0  0  0  0  0  0  0  0  0
    6.2415  -16.4734   24.0876 C   0  0  1  0  0  0  0  0  0  0  0  0
    5.6075  -15.8685   25.3189 C   0  0  0  0  0  0  0  0  0  0  0  0
    6.0396  -14.4377   25.3964 C   0  0  0  0  0  0  0  0  0  0  0  0
    7.2879  -14.0021   25.0402 C   0  0  0  0  0  0  0  0  0  0  0  0
    7.6669  -12.6710   25.1208 C   0  0  0  0  0  0  0  0  0  0  0  0
    6.7591  -11.7501   25.5750 C   0  0  0  0  0  0  0  0  0  0  0  0
    5.4943  -12.1413   25.9439 C   0  0  0  0  0  0  0  0  0  0  0  0
    5.1441  -13.4660   25.8542 C   0  0  0  0  0  0  0  0  0  0  0  0
    7.6408  -16.8798   24.3103 C   0  0  0  0  0  0  0  0  0  0  0  0
    7.9056  -17.6628   25.2518 O   0  0  0  0  0  0  0  0  0  0  0  0
   10.6028  -14.9727   22.3737 O   0  0  0  0  0  0  0  0  0  0  0  0
   10.8689  -16.3565   22.4304 C   0  0  0  0  0  0  0  0  0  0  0  0
   10.0828  -16.8922   23.6111 C   0  0  2  0  0  0  0  0  0  0  0  0
    8.7314  -16.4340   23.5114 N   0  0  0  0  0  0  0  0  0  0  0  0
   10.7837  -16.4564   24.8290 C   0  0  0  0  0  0  0  0  0  0  0  0
   11.7397  -15.6560   24.6938 O   0  0  0  0  0  0  0  0  0  0  0  0
   10.7976  -13.1012   27.6489 C   0  0  0  0  0  0  0  0  0  0  0  0
    9.9309  -14.3185   27.6934 C   0  0  0  0  0  0  0  0  0  0  0  0
   10.5503  -15.5428   28.2553 C   0  0  2  0  0  0  0  0  0  0  0  0
   11.4497  -15.1335   29.4038 C   0  0  0  0  0  0  0  0  0  0  0  0
   11.1967  -16.4842   27.3125 C   0  0  2  0  0  0  0  0  0  0  0  0
   10.4648  -16.8715   26.1553 N   0  0  0  0  0  0  0  0  0  0  0  0
   11.7339  -17.6271   28.0830 C   0  0  0  0  0  0  0  0  0  0  0  0
   11.0227  -18.6538   28.1944 O   0  0  0  0  0  0  0  0  0  0  0  0
   12.9727  -17.6203   28.6829 O   0  0  0  0  0  0  0  0  0  0  0  0
  2  1  1  1
  2 10  1  0
  3  2  1  0
  3  4  1  0
  4  5  2  0
  4  9  1  0
  5  6  1  0
  6  7  2  0
  8  7  1  0
  9  8  2  0
 10 11  2  0
 12 13  1  0
 14 13  1  6
 14 16  1  0
 15 14  1  0
 15 10  1  0
 16 23  1  0
 16 17  2  0
 18 19  1  0
 19 20  1  0
 20 22  1  0
 20 21  1  1
 22 24  1  0
 22 23  1  6
 24 25  2  0
 24 26  1  0
M  END
$$$$
