FSI.pdb
     RDKit          3D

 26 26  0  0  1  0  0  0  0  0999 V2000
    6.8119  -17.9237   20.1043 N   0  0  0  0  0  0  0  0  0  0  0  0
    7.3989  -16.7232   20.6606 C   0  0  1  0  0  0  0  0  0  0  0  0
    6.2849  -15.7210   20.8566 C   0  0  0  0  0  0  0  0  0  0  0  0
    6.8967  -14.4564   21.3730 C   0  0  0  0  0  0  0  0  0  0  0  0
    7.6039  -13.5821   20.5918 C   0  0  0  0  0  0  0  0  0  0  0  0
    8.1630  -12.4160   21.0917 C   0  0  0  0  0  0  0  0  0  0  0  0
    8.0041  -12.1223   22.4210 C   0  0  0  0  0  0  0  0  0  0  0  0
    7.3020  -12.9706   23.2434 C   0  0  0  0  0  0  0  0  0  0  0  0
    6.7582  -14.1191   22.7230 C   0  0  0  0  0  0  0  0  0  0  0  0
    8.0764  -17.0736   21.9220 C   0  0  0  0  0  0  0  0  0  0  0  0
    7.3918  -17.4825   22.8884 O   0  0  0  0  0  0  0  0  0  0  0  0
   12.1376  -17.0144   22.0254 O   0  0  0  0  0  0  0  0  0  0  0  0
   11.5299  -18.0002   22.8304 C   0  0  0  0  0  0  0  0  0  0  0  0
   10.1984  -17.4256   23.2732 C   0  0  2  0  0  0  0  0  0  0  0  0
    9.4830  -16.9771   22.1185 N   0  0  0  0  0  0  0  0  0  0  0  0
   10.4897  -16.3697   24.2553 C   0  0  0  0  0  0  0  0  0  0  0  0
   11.1959  -15.4044   23.8778 O   0  0  0  0  0  0  0  0  0  0  0  0
    7.8770  -13.1993   28.1633 C   0  0  0  0  0  0  0  0  0  0  0  0
    8.4998  -14.4454   27.6207 C   0  0  0  0  0  0  0  0  0  0  0  0
    9.8235  -14.2865   26.9718 C   0  0  2  0  0  0  0  0  0  0  0  0
    9.6680  -13.3285   25.8084 C   0  0  0  0  0  0  0  0  0  0  0  0
   10.5725  -15.5152   26.6222 C   0  0  2  0  0  0  0  0  0  0  0  0
   10.0344  -16.3538   25.6064 N   0  0  0  0  0  0  0  0  0  0  0  0
   10.9033  -16.2360   27.8711 C   0  0  0  0  0  0  0  0  0  0  0  0
   10.4625  -17.4006   28.0180 O   0  0  0  0  0  0  0  0  0  0  0  0
   11.6690  -15.6936   28.8781 O   0  0  0  0  0  0  0  0  0  0  0  0
  2  1  1  1
  2 10  1  0
  3  2  1  0
  3  4  1  0
  4  5  2  0
  4  9  1  0
  5  6  1  0
  6  7  2  0
  8  7  1  0
  9  8  2  0
 10 11  2  0
 12 13  1  0
 14 13  1  6
 14 16  1  0
 15 14  1  0
 15 10  1  0
 16 23  1  0
 16 17  2  0
 18 19  1  0
 19 20  1  0
 20 22  1  0
 20 21  1  6
 22 24  1  0
 22 23  1  6
 24 25  2  0
 24 26  1  0
M  END
$$$$
