HPG.pdb
     RDKit          3D

 22 23  0  0  1  0  0  0  0  0999 V2000
   24.7102  -29.7347    3.7230 N   0  0  0  0  0  0  0  0  0  0  0  0
   25.0333  -30.9304    4.4369 C   0  0  1  0  0  0  0  0  0  0  0  0
   23.9240  -31.9662    4.2681 C   0  0  0  0  0  0  0  0  0  0  0  0
   22.6191  -31.3346    4.5966 C   0  0  0  0  0  0  0  0  0  0  0  0
   21.6547  -30.9668    3.6961 C   0  0  0  0  0  0  0  0  0  0  0  0
   20.6398  -30.4378    4.3879 N   0  0  0  0  0  0  0  0  0  0  0  0
   20.9625  -30.4752    5.6793 C   0  0  0  0  0  0  0  0  0  0  0  0
   22.1683  -31.0207    5.8155 N   0  0  0  0  0  0  0  0  0  0  0  0
   26.3572  -31.5135    4.1409 C   0  0  0  0  0  0  0  0  0  0  0  0
   26.7462  -31.4517    2.9086 O   0  0  0  0  0  0  0  0  0  0  0  0
   27.2315  -32.1272    5.0675 N   0  0  0  0  0  0  0  0  0  0  0  0
   27.1005  -32.4362    6.4525 C   0  0  0  0  0  0  0  0  0  0  0  0
   28.4207  -31.9195    7.0058 C   0  0  0  0  0  0  0  0  0  0  0  0
   29.3884  -32.3010    5.9136 C   0  0  0  0  0  0  0  0  0  0  0  0
   28.5686  -32.6012    4.6898 C   0  0  1  0  0  0  0  0  0  0  0  0
   28.6194  -34.0342    4.4047 C   0  0  0  0  0  0  0  0  0  0  0  0
   27.6670  -34.7337    4.8906 O   0  0  0  0  0  0  0  0  0  0  0  0
   29.5897  -34.7181    3.6645 N   0  0  0  0  0  0  0  0  0  0  0  0
   29.5589  -34.7486    2.2170 C   0  0  0  0  0  0  0  0  0  0  0  0
   28.4303  -35.5536    1.7142 C   0  0  0  0  0  0  0  0  0  0  0  0
   28.6141  -36.8351    1.2028 O   0  0  0  0  0  0  0  0  0  0  0  0
   27.2723  -35.0392    1.7612 O   0  0  0  0  0  0  0  0  0  0  0  0
  2  1  1  6
  3  2  1  0
  3  4  1  0
  4  5  2  0
  6  5  1  0
  7  6  1  0
  8  7  2  0
  8  4  1  0
  9 10  2  0
  9  2  1  0
 11  9  1  0
 12 11  1  0
 13 12  1  0
 14 13  1  0
 14 15  1  0
 15 16  1  1
 15 11  1  0
 16 18  1  0
 17 16  2  0
 18 19  1  0
 20 21  1  0
 20 19  1  0
 22 20  2  0
M  END
$$$$
