HPG.pdb
     RDKit          3D

 22 23  0  0  1  0  0  0  0  0999 V2000
   18.9528  -12.8038  -17.1690 N   0  0  0  0  0  0  0  0  0  0  0  0
   19.9649  -11.8058  -17.3226 C   0  0  1  0  0  0  0  0  0  0  0  0
   19.7158  -10.9869  -18.5872 C   0  0  0  0  0  0  0  0  0  0  0  0
   19.7894  -11.8868  -19.7681 C   0  0  0  0  0  0  0  0  0  0  0  0
   20.8342  -12.7142  -20.0844 C   0  0  0  0  0  0  0  0  0  0  0  0
   20.5135  -13.3521  -21.2151 N   0  0  0  0  0  0  0  0  0  0  0  0
   19.3062  -12.9346  -21.5911 C   0  0  0  0  0  0  0  0  0  0  0  0
   18.8572  -12.0406  -20.7140 N   0  0  0  0  0  0  0  0  0  0  0  0
   20.1815  -10.9300  -16.1538 C   0  0  0  0  0  0  0  0  0  0  0  0
   19.1315  -10.6365  -15.4573 O   0  0  0  0  0  0  0  0  0  0  0  0
   21.4156  -10.3867  -15.7279 N   0  0  0  0  0  0  0  0  0  0  0  0
   22.7269  -10.4288  -16.2843 C   0  0  0  0  0  0  0  0  0  0  0  0
   23.5625  -10.7968  -15.0667 C   0  0  0  0  0  0  0  0  0  0  0  0
   22.8910  -10.0023  -13.9746 C   0  0  0  0  0  0  0  0  0  0  0  0
   21.5420   -9.5948  -14.4983 C   0  0  1  0  0  0  0  0  0  0  0  0
   21.5213   -8.1516  -14.7303 C   0  0  0  0  0  0  0  0  0  0  0  0
   21.9301   -7.7653  -15.8776 O   0  0  0  0  0  0  0  0  0  0  0  0
   21.1069   -7.1549  -13.8403 N   0  0  0  0  0  0  0  0  0  0  0  0
   20.8966   -5.7893  -14.2739 C   0  0  0  0  0  0  0  0  0  0  0  0
   22.0362   -4.9241  -13.9170 C   0  0  0  0  0  0  0  0  0  0  0  0
   22.3213   -3.7587  -14.6229 O   0  0  0  0  0  0  0  0  0  0  0  0
   22.7588   -5.2758  -12.9362 O   0  0  0  0  0  0  0  0  0  0  0  0
  2  1  1  1
  3  2  1  0
  3  4  1  0
  4  5  2  0
  6  5  1  0
  7  6  1  0
  8  7  2  0
  8  4  1  0
  9 10  2  0
  9  2  1  0
 11  9  1  0
 12 11  1  0
 13 12  1  0
 14 13  1  0
 14 15  1  0
 15 16  1  6
 15 11  1  0
 16 18  1  0
 17 16  2  0
 18 19  1  0
 20 21  1  0
 20 19  1  0
 22 20  2  0
M  END
$$$$
