HPG.pdb
     RDKit          3D

 22 23  0  0  1  0  0  0  0  0999 V2000
   23.4634  -21.4291  -14.6418 N   0  0  0  0  0  0  0  0  0  0  0  0
   23.1873  -20.5635  -13.5380 C   0  0  1  0  0  0  0  0  0  0  0  0
   22.1302  -19.5313  -13.9238 C   0  0  0  0  0  0  0  0  0  0  0  0
   22.5341  -18.8783  -15.1966 C   0  0  0  0  0  0  0  0  0  0  0  0
   23.7598  -18.3283  -15.4643 C   0  0  0  0  0  0  0  0  0  0  0  0
   23.7201  -17.8461  -16.7110 N   0  0  0  0  0  0  0  0  0  0  0  0
   22.5071  -18.0885  -17.2042 C   0  0  0  0  0  0  0  0  0  0  0  0
   21.7772  -18.7178  -16.2869 N   0  0  0  0  0  0  0  0  0  0  0  0
   22.8391  -21.2356  -12.2703 C   0  0  0  0  0  0  0  0  0  0  0  0
   22.1138  -22.3023  -12.3695 O   0  0  0  0  0  0  0  0  0  0  0  0
   23.2193  -20.8279  -10.9708 N   0  0  0  0  0  0  0  0  0  0  0  0
   23.9166  -19.6822  -10.4889 C   0  0  0  0  0  0  0  0  0  0  0  0
   24.9305  -20.3165   -9.5478 C   0  0  0  0  0  0  0  0  0  0  0  0
   24.1208  -21.4190   -8.9125 C   0  0  0  0  0  0  0  0  0  0  0  0
   22.9072  -21.6219   -9.7761 C   0  0  1  0  0  0  0  0  0  0  0  0
   21.7162  -21.1603   -9.0649 C   0  0  0  0  0  0  0  0  0  0  0  0
   21.3170  -19.9810   -9.3523 O   0  0  0  0  0  0  0  0  0  0  0  0
   20.9721  -21.8626   -8.1108 N   0  0  0  0  0  0  0  0  0  0  0  0
   20.0848  -22.9440   -8.4854 C   0  0  0  0  0  0  0  0  0  0  0  0
   19.3317  -23.4558   -7.3254 C   0  0  0  0  0  0  0  0  0  0  0  0
   18.0239  -23.9172   -7.4460 O   0  0  0  0  0  0  0  0  0  0  0  0
   19.9162  -23.4639   -6.2003 O   0  0  0  0  0  0  0  0  0  0  0  0
  2  1  1  6
  3  2  1  0
  3  4  1  0
  4  5  2  0
  6  5  1  0
  7  6  1  0
  8  7  2  0
  8  4  1  0
  9 10  2  0
  9  2  1  0
 11  9  1  0
 12 11  1  0
 13 12  1  0
 14 13  1  0
 14 15  1  0
 15 16  1  1
 15 11  1  0
 16 18  1  0
 17 16  2  0
 18 19  1  0
 20 21  1  0
 20 19  1  0
 22 20  2  0
M  END
$$$$
