HPG.pdb
     RDKit          3D

 22 23  0  0  1  0  0  0  0  0999 V2000
   26.1849  -20.0266  -10.2092 N   0  0  0  0  0  0  0  0  0  0  0  0
   26.1169  -20.5975  -11.5181 C   0  0  1  0  0  0  0  0  0  0  0  0
   25.0071  -21.6443  -11.5841 C   0  0  0  0  0  0  0  0  0  0  0  0
   23.9948  -21.3420  -10.5383 C   0  0  0  0  0  0  0  0  0  0  0  0
   24.1259  -21.5891   -9.1974 C   0  0  0  0  0  0  0  0  0  0  0  0
   23.0031  -21.1745   -8.6008 N   0  0  0  0  0  0  0  0  0  0  0  0
   22.1980  -20.6845   -9.5415 C   0  0  0  0  0  0  0  0  0  0  0  0
   22.7951  -20.7828  -10.7263 N   0  0  0  0  0  0  0  0  0  0  0  0
   26.0079  -19.6333  -12.6310 C   0  0  0  0  0  0  0  0  0  0  0  0
   25.2139  -18.6296  -12.4418 O   0  0  0  0  0  0  0  0  0  0  0  0
   26.6821  -19.7025  -13.8721 N   0  0  0  0  0  0  0  0  0  0  0  0
   27.5266  -20.6928  -14.4527 C   0  0  0  0  0  0  0  0  0  0  0  0
   28.6859  -19.8461  -14.9576 C   0  0  0  0  0  0  0  0  0  0  0  0
   27.9768  -18.6160  -15.4664 C   0  0  0  0  0  0  0  0  0  0  0  0
   26.5956  -18.6322  -14.8731 C   0  0  1  0  0  0  0  0  0  0  0  0
   25.6135  -18.8954  -15.9236 C   0  0  0  0  0  0  0  0  0  0  0  0
   25.1545  -20.0869  -15.9722 O   0  0  0  0  0  0  0  0  0  0  0  0
   25.1256  -17.9927  -16.8746 N   0  0  0  0  0  0  0  0  0  0  0  0
   24.1220  -17.0043  -16.5386 C   0  0  0  0  0  0  0  0  0  0  0  0
   22.7844  -17.6110  -16.4069 C   0  0  0  0  0  0  0  0  0  0  0  0
   22.0826  -18.0856  -17.5114 O   0  0  0  0  0  0  0  0  0  0  0  0
   22.2847  -17.6895  -15.2442 O   0  0  0  0  0  0  0  0  0  0  0  0
  2  1  1  1
  3  2  1  0
  3  4  1  0
  4  5  2  0
  6  5  1  0
  7  6  1  0
  8  7  2  0
  8  4  1  0
  9 10  2  0
  9  2  1  0
 11  9  1  0
 12 11  1  0
 13 12  1  0
 14 13  1  0
 14 15  1  0
 15 16  1  6
 15 11  1  0
 16 18  1  0
 17 16  2  0
 18 19  1  0
 20 21  1  0
 20 19  1  0
 22 20  2  0
M  END
$$$$
