HPG.pdb
     RDKit          3D

 22 23  0  0  1  0  0  0  0  0999 V2000
   21.4097  -19.6139  -13.8795 N   0  0  0  0  0  0  0  0  0  0  0  0
   22.4665  -20.5718  -13.7832 C   0  0  1  0  0  0  0  0  0  0  0  0
   22.3924  -21.5629  -14.9426 C   0  0  0  0  0  0  0  0  0  0  0  0
   21.0484  -22.1979  -14.9505 C   0  0  0  0  0  0  0  0  0  0  0  0
   20.6732  -23.2945  -14.2204 C   0  0  0  0  0  0  0  0  0  0  0  0
   19.3921  -23.5491  -14.5074 N   0  0  0  0  0  0  0  0  0  0  0  0
   18.9825  -22.6389  -15.3889 C   0  0  0  0  0  0  0  0  0  0  0  0
   19.9866  -21.8108  -15.6647 N   0  0  0  0  0  0  0  0  0  0  0  0
   23.8259  -20.0121  -13.6458 C   0  0  0  0  0  0  0  0  0  0  0  0
   24.0191  -18.8452  -14.1701 O   0  0  0  0  0  0  0  0  0  0  0  0
   24.9259  -20.6245  -13.0019 N   0  0  0  0  0  0  0  0  0  0  0  0
   25.0951  -21.9045  -12.3987 C   0  0  0  0  0  0  0  0  0  0  0  0
   25.7560  -21.5340  -11.0789 C   0  0  0  0  0  0  0  0  0  0  0  0
   26.6824  -20.4190  -11.4950 C   0  0  0  0  0  0  0  0  0  0  0  0
   26.2198  -19.9490  -12.8460 C   0  0  1  0  0  0  0  0  0  0  0  0
   27.2014  -20.3295  -13.8604 C   0  0  0  0  0  0  0  0  0  0  0  0
   27.0589  -21.4947  -14.3650 O   0  0  0  0  0  0  0  0  0  0  0  0
   28.2719  -19.5638  -14.3347 N   0  0  0  0  0  0  0  0  0  0  0  0
   28.0709  -18.4697  -15.2619 C   0  0  0  0  0  0  0  0  0  0  0  0
   27.6948  -18.9555  -16.6025 C   0  0  0  0  0  0  0  0  0  0  0  0
   28.6256  -19.5352  -17.4600 O   0  0  0  0  0  0  0  0  0  0  0  0
   26.4841  -18.8288  -16.9572 O   0  0  0  0  0  0  0  0  0  0  0  0
  2  1  1  6
  3  2  1  0
  3  4  1  0
  4  5  2  0
  6  5  1  0
  7  6  1  0
  8  7  2  0
  8  4  1  0
  9 10  2  0
  9  2  1  0
 11  9  1  0
 12 11  1  0
 13 12  1  0
 14 13  1  0
 14 15  1  0
 15 16  1  6
 15 11  1  0
 16 18  1  0
 17 16  2  0
 18 19  1  0
 20 21  1  0
 20 19  1  0
 22 20  2  0
M  END
$$$$
