HPG.pdb
     RDKit          3D

 22 23  0  0  1  0  0  0  0  0999 V2000
   21.2779  -32.7390  -10.7584 N   0  0  0  0  0  0  0  0  0  0  0  0
   22.3303  -32.2790   -9.9071 C   0  0  1  0  0  0  0  0  0  0  0  0
   21.8248  -31.1665   -8.9912 C   0  0  0  0  0  0  0  0  0  0  0  0
   21.3252  -30.0427   -9.8262 C   0  0  0  0  0  0  0  0  0  0  0  0
   22.0994  -29.1503  -10.5194 C   0  0  0  0  0  0  0  0  0  0  0  0
   21.2745  -28.2999  -11.1397 N   0  0  0  0  0  0  0  0  0  0  0  0
   20.0254  -28.6521  -10.8418 C   0  0  0  0  0  0  0  0  0  0  0  0
   20.0471  -29.7143  -10.0410 N   0  0  0  0  0  0  0  0  0  0  0  0
   23.0336  -33.3249   -9.1380 C   0  0  0  0  0  0  0  0  0  0  0  0
   22.3519  -34.3905   -8.8667 O   0  0  0  0  0  0  0  0  0  0  0  0
   24.3685  -33.2728   -8.6743 N   0  0  0  0  0  0  0  0  0  0  0  0
   25.3387  -32.2291   -8.6549 C   0  0  0  0  0  0  0  0  0  0  0  0
   26.5667  -32.9451   -9.1985 C   0  0  0  0  0  0  0  0  0  0  0  0
   26.4472  -34.3038   -8.5548 C   0  0  0  0  0  0  0  0  0  0  0  0
   25.0325  -34.4301   -8.0621 C   0  0  1  0  0  0  0  0  0  0  0  0
   25.0180  -34.4041   -6.6005 C   0  0  0  0  0  0  0  0  0  0  0  0
   24.9106  -33.2493   -6.0643 O   0  0  0  0  0  0  0  0  0  0  0  0
   25.1087  -35.4967   -5.7314 N   0  0  0  0  0  0  0  0  0  0  0  0
   25.0460  -35.3310   -4.2942 C   0  0  0  0  0  0  0  0  0  0  0  0
   23.6757  -35.5231   -3.7843 C   0  0  0  0  0  0  0  0  0  0  0  0
   23.4296  -36.1101   -2.5463 O   0  0  0  0  0  0  0  0  0  0  0  0
   22.7150  -35.1336   -4.5144 O   0  0  0  0  0  0  0  0  0  0  0  0
  2  1  1  1
  3  2  1  0
  3  4  1  0
  4  5  2  0
  6  5  1  0
  7  6  1  0
  8  7  2  0
  8  4  1  0
  9 10  2  0
  9  2  1  0
 11  9  1  0
 12 11  1  0
 13 12  1  0
 14 13  1  0
 14 15  1  0
 15 16  1  1
 15 11  1  0
 16 18  1  0
 17 16  2  0
 18 19  1  0
 20 21  1  0
 20 19  1  0
 22 20  2  0
M  END
$$$$
