HPG.pdb
     RDKit          3D

 22 23  0  0  1  0  0  0  0  0999 V2000
   25.6956  -19.2419  -17.2986 N   0  0  0  0  0  0  0  0  0  0  0  0
   26.2224  -18.8329  -16.0341 C   0  0  1  0  0  0  0  0  0  0  0  0
   25.7613  -17.4161  -15.6996 C   0  0  0  0  0  0  0  0  0  0  0  0
   25.2884  -16.7553  -16.9444 C   0  0  0  0  0  0  0  0  0  0  0  0
   26.0840  -16.2188  -17.9219 C   0  0  0  0  0  0  0  0  0  0  0  0
   25.2792  -15.7232  -18.8679 N   0  0  0  0  0  0  0  0  0  0  0  0
   24.0213  -15.9444  -18.4909 C   0  0  0  0  0  0  0  0  0  0  0  0
   24.0178  -16.5735  -17.3186 N   0  0  0  0  0  0  0  0  0  0  0  0
   25.9715  -19.7552  -14.9087 C   0  0  0  0  0  0  0  0  0  0  0  0
   24.8641  -20.4226  -14.9528 O   0  0  0  0  0  0  0  0  0  0  0  0
   26.8185  -19.9759  -13.7980 N   0  0  0  0  0  0  0  0  0  0  0  0
   28.0449  -19.3750  -13.3907 C   0  0  0  0  0  0  0  0  0  0  0  0
   28.8886  -20.5981  -13.0618 C   0  0  0  0  0  0  0  0  0  0  0  0
   27.8783  -21.5094  -12.4110 C   0  0  0  0  0  0  0  0  0  0  0  0
   26.5180  -20.9785  -12.7687 C   0  0  1  0  0  0  0  0  0  0  0  0
   25.8815  -20.4180  -11.5779 C   0  0  0  0  0  0  0  0  0  0  0  0
   26.0821  -19.1730  -11.3721 O   0  0  0  0  0  0  0  0  0  0  0  0
   25.0837  -21.0905  -10.6460 N   0  0  0  0  0  0  0  0  0  0  0  0
   24.0919  -20.3946   -9.8529 C   0  0  0  0  0  0  0  0  0  0  0  0
   22.7657  -20.4192  -10.4974 C   0  0  0  0  0  0  0  0  0  0  0  0
   21.6030  -20.6666   -9.7730 O   0  0  0  0  0  0  0  0  0  0  0  0
   22.7132  -20.2060  -11.7462 O   0  0  0  0  0  0  0  0  0  0  0  0
  2  1  1  6
  3  2  1  0
  3  4  1  0
  4  5  2  0
  6  5  1  0
  7  6  1  0
  8  7  2  0
  8  4  1  0
  9 10  2  0
  9  2  1  0
 11  9  1  0
 12 11  1  0
 13 12  1  0
 14 13  1  0
 14 15  1  0
 15 16  1  1
 15 11  1  0
 16 18  1  0
 17 16  2  0
 18 19  1  0
 20 21  1  0
 20 19  1  0
 22 20  2  0
M  END
$$$$
