HPG.pdb
     RDKit          3D

 22 23  0  0  1  0  0  0  0  0999 V2000
   21.8266  -12.3650  -16.3389 N   0  0  0  0  0  0  0  0  0  0  0  0
   21.3190  -11.0664  -16.6547 C   0  0  1  0  0  0  0  0  0  0  0  0
   19.8065  -11.0227  -16.4491 C   0  0  0  0  0  0  0  0  0  0  0  0
   19.1727  -12.0627  -17.3015 C   0  0  0  0  0  0  0  0  0  0  0  0
   19.2934  -12.1705  -18.6617 C   0  0  0  0  0  0  0  0  0  0  0  0
   18.5755  -13.2315  -19.0458 N   0  0  0  0  0  0  0  0  0  0  0  0
   18.0250  -13.7675  -17.9582 C   0  0  0  0  0  0  0  0  0  0  0  0
   18.3841  -13.0607  -16.8897 N   0  0  0  0  0  0  0  0  0  0  0  0
   21.9830   -9.9375  -15.9729 C   0  0  0  0  0  0  0  0  0  0  0  0
   22.2764  -10.1160  -14.7256 O   0  0  0  0  0  0  0  0  0  0  0  0
   22.3250   -8.6919  -16.5483 N   0  0  0  0  0  0  0  0  0  0  0  0
   22.0843   -8.1298  -17.8356 C   0  0  0  0  0  0  0  0  0  0  0  0
   23.4612   -7.5899  -18.1943 C   0  0  0  0  0  0  0  0  0  0  0  0
   23.9426   -7.0550  -16.8688 C   0  0  0  0  0  0  0  0  0  0  0  0
   23.0664   -7.6628  -15.8091 C   0  0  1  0  0  0  0  0  0  0  0  0
   22.2088   -6.6302  -15.2299 C   0  0  0  0  0  0  0  0  0  0  0  0
   21.1238   -6.3883  -15.8599 O   0  0  0  0  0  0  0  0  0  0  0  0
   22.4446   -5.8832  -14.0708 N   0  0  0  0  0  0  0  0  0  0  0  0
   21.4328   -5.0123  -13.5096 C   0  0  0  0  0  0  0  0  0  0  0  0
   21.3714   -3.7217  -14.2206 C   0  0  0  0  0  0  0  0  0  0  0  0
   21.4973   -2.5085  -13.5499 O   0  0  0  0  0  0  0  0  0  0  0  0
   21.1984   -3.7483  -15.4764 O   0  0  0  0  0  0  0  0  0  0  0  0
  2  1  1  1
  3  2  1  0
  3  4  1  0
  4  5  2  0
  6  5  1  0
  7  6  1  0
  8  7  2  0
  8  4  1  0
  9 10  2  0
  9  2  1  0
 11  9  1  0
 12 11  1  0
 13 12  1  0
 14 13  1  0
 14 15  1  0
 15 16  1  6
 15 11  1  0
 16 18  1  0
 17 16  2  0
 18 19  1  0
 20 21  1  0
 20 19  1  0
 22 20  2  0
M  END
$$$$
