HPG.pdb
     RDKit          3D

 22 23  0  0  1  0  0  0  0  0999 V2000
   26.5455  -21.3981  -16.6909 N   0  0  0  0  0  0  0  0  0  0  0  0
   26.9454  -20.5195  -15.6364 C   0  0  1  0  0  0  0  0  0  0  0  0
   26.2454  -19.1695  -15.7754 C   0  0  0  0  0  0  0  0  0  0  0  0
   26.7264  -18.5008  -17.0128 C   0  0  0  0  0  0  0  0  0  0  0  0
   27.9804  -17.9875  -17.2136 C   0  0  0  0  0  0  0  0  0  0  0  0
   28.0117  -17.4746  -18.4483 N   0  0  0  0  0  0  0  0  0  0  0  0
   26.8140  -17.6630  -18.9990 C   0  0  0  0  0  0  0  0  0  0  0  0
   26.0239  -18.2882  -18.1302 N   0  0  0  0  0  0  0  0  0  0  0  0
   26.8024  -21.0563  -14.2684 C   0  0  0  0  0  0  0  0  0  0  0  0
   25.8809  -21.9482  -14.0979 O   0  0  0  0  0  0  0  0  0  0  0  0
   27.5695  -20.6914  -13.1379 N   0  0  0  0  0  0  0  0  0  0  0  0
   28.6110  -19.7369  -12.9510 C   0  0  0  0  0  0  0  0  0  0  0  0
   29.6440  -20.5580  -12.1929 C   0  0  0  0  0  0  0  0  0  0  0  0
   28.7761  -21.3842  -11.2770 C   0  0  0  0  0  0  0  0  0  0  0  0
   27.3773  -21.3170  -11.8238 C   0  0  1  0  0  0  0  0  0  0  0  0
   26.5356  -20.5318  -10.9225 C   0  0  0  0  0  0  0  0  0  0  0  0
   26.4405  -19.2863  -11.1917 O   0  0  0  0  0  0  0  0  0  0  0  0
   25.8289  -20.9911   -9.8059 N   0  0  0  0  0  0  0  0  0  0  0  0
   24.5676  -21.6898   -9.9400 C   0  0  0  0  0  0  0  0  0  0  0  0
   23.4653  -20.7645  -10.2614 C   0  0  0  0  0  0  0  0  0  0  0  0
   22.5914  -20.2976   -9.2837 O   0  0  0  0  0  0  0  0  0  0  0  0
   23.3338  -20.4013  -11.4691 O   0  0  0  0  0  0  0  0  0  0  0  0
  2  1  1  6
  3  2  1  0
  3  4  1  0
  4  5  2  0
  6  5  1  0
  7  6  1  0
  8  7  2  0
  8  4  1  0
  9 10  2  0
  9  2  1  0
 11  9  1  0
 12 11  1  0
 13 12  1  0
 14 13  1  0
 14 15  1  0
 15 16  1  1
 15 11  1  0
 16 18  1  0
 17 16  2  0
 18 19  1  0
 20 21  1  0
 20 19  1  0
 22 20  2  0
M  END
$$$$
