HPG.pdb
     RDKit          3D

 22 23  0  0  1  0  0  0  0  0999 V2000
   25.6713  -17.5284  -16.1851 N   0  0  0  0  0  0  0  0  0  0  0  0
   26.3713  -18.6754  -15.6970 C   0  0  1  0  0  0  0  0  0  0  0  0
   27.8773  -18.4236  -15.7090 C   0  0  0  0  0  0  0  0  0  0  0  0
   28.3597  -18.4447  -17.1149 C   0  0  0  0  0  0  0  0  0  0  0  0
   27.5925  -18.6822  -18.2246 C   0  0  0  0  0  0  0  0  0  0  0  0
   28.3965  -18.6139  -19.2910 N   0  0  0  0  0  0  0  0  0  0  0  0
   29.6263  -18.3422  -18.8585 C   0  0  0  0  0  0  0  0  0  0  0  0
   29.6128  -18.2373  -17.5323 N   0  0  0  0  0  0  0  0  0  0  0  0
   25.9260  -19.1854  -14.3848 C   0  0  0  0  0  0  0  0  0  0  0  0
   25.8002  -18.3072  -13.4432 O   0  0  0  0  0  0  0  0  0  0  0  0
   25.6272  -20.5295  -14.0629 N   0  0  0  0  0  0  0  0  0  0  0  0
   25.6294  -21.7261  -14.8369 C   0  0  0  0  0  0  0  0  0  0  0  0
   24.2916  -22.3405  -14.4511 C   0  0  0  0  0  0  0  0  0  0  0  0
   24.2134  -22.0213  -12.9791 C   0  0  0  0  0  0  0  0  0  0  0  0
   25.2261  -20.9427  -12.7125 C   0  0  1  0  0  0  0  0  0  0  0  0
   26.3265  -21.4881  -11.9195 C   0  0  0  0  0  0  0  0  0  0  0  0
   27.0799  -22.3303  -12.5160 O   0  0  0  0  0  0  0  0  0  0  0  0
   26.6419  -21.1919  -10.5891 N   0  0  0  0  0  0  0  0  0  0  0  0
   25.6123  -21.0033   -9.5884 C   0  0  0  0  0  0  0  0  0  0  0  0
   26.0192  -20.0187   -8.5688 C   0  0  0  0  0  0  0  0  0  0  0  0
   26.2716  -20.3895   -7.2510 O   0  0  0  0  0  0  0  0  0  0  0  0
   26.1344  -18.8089   -8.9304 O   0  0  0  0  0  0  0  0  0  0  0  0
  2  1  1  1
  3  2  1  0
  3  4  1  0
  4  5  2  0
  6  5  1  0
  7  6  1  0
  8  7  2  0
  8  4  1  0
  9 10  2  0
  9  2  1  0
 11  9  1  0
 12 11  1  0
 13 12  1  0
 14 13  1  0
 14 15  1  0
 15 16  1  1
 15 11  1  0
 16 18  1  0
 17 16  2  0
 18 19  1  0
 20 21  1  0
 20 19  1  0
 22 20  2  0
M  END
$$$$
