HPG.pdb
     RDKit          3D

 22 23  0  0  1  0  0  0  0  0999 V2000
   21.8037  -13.7946  -17.2641 N   0  0  0  0  0  0  0  0  0  0  0  0
   22.7250  -12.7741  -17.6560 C   0  0  1  0  0  0  0  0  0  0  0  0
   22.3083  -12.1676  -18.9940 C   0  0  0  0  0  0  0  0  0  0  0  0
   22.1827  -13.2552  -19.9995 C   0  0  0  0  0  0  0  0  0  0  0  0
   23.1873  -14.0916  -20.4087 C   0  0  0  0  0  0  0  0  0  0  0  0
   22.6708  -14.9250  -21.3182 N   0  0  0  0  0  0  0  0  0  0  0  0
   21.3843  -14.6167  -21.4704 C   0  0  0  0  0  0  0  0  0  0  0  0
   21.0783  -13.5992  -20.6698 N   0  0  0  0  0  0  0  0  0  0  0  0
   22.9809  -11.7236  -16.6505 C   0  0  0  0  0  0  0  0  0  0  0  0
   22.0218  -11.4863  -15.8152 O   0  0  0  0  0  0  0  0  0  0  0  0
   24.1630  -10.9595  -16.5153 N   0  0  0  0  0  0  0  0  0  0  0  0
   25.3600  -10.8972  -17.2862 C   0  0  0  0  0  0  0  0  0  0  0  0
   26.4248  -10.9700  -16.2014 C   0  0  0  0  0  0  0  0  0  0  0  0
   25.8147  -10.1303  -15.1072 C   0  0  0  0  0  0  0  0  0  0  0  0
   24.3524   -9.9922  -15.4275 C   0  0  1  0  0  0  0  0  0  0  0  0
   24.0638   -8.6131  -15.8176 C   0  0  0  0  0  0  0  0  0  0  0  0
   24.2108   -8.3419  -17.0576 O   0  0  0  0  0  0  0  0  0  0  0  0
   23.6482   -7.5659  -14.9883 N   0  0  0  0  0  0  0  0  0  0  0  0
   22.8514   -6.4673  -15.4936 C   0  0  0  0  0  0  0  0  0  0  0  0
   21.8113   -6.0620  -14.5301 C   0  0  0  0  0  0  0  0  0  0  0  0
   21.9929   -4.9874  -13.6640 O   0  0  0  0  0  0  0  0  0  0  0  0
   20.7327   -6.7283  -14.5120 O   0  0  0  0  0  0  0  0  0  0  0  0
  2  1  1  1
  3  2  1  0
  3  4  1  0
  4  5  2  0
  6  5  1  0
  7  6  1  0
  8  7  2  0
  8  4  1  0
  9 10  2  0
  9  2  1  0
 11  9  1  0
 12 11  1  0
 13 12  1  0
 14 13  1  0
 14 15  1  0
 15 16  1  6
 15 11  1  0
 16 18  1  0
 17 16  2  0
 18 19  1  0
 20 21  1  0
 20 19  1  0
 22 20  2  0
M  END
$$$$
