HPG.pdb
     RDKit          3D

 22 23  0  0  1  0  0  0  0  0999 V2000
   17.2450  -19.7702    1.7873 N   0  0  0  0  0  0  0  0  0  0  0  0
   16.8366  -19.7316    3.1568 C   0  0  1  0  0  0  0  0  0  0  0  0
   16.5615  -21.1436    3.6691 C   0  0  0  0  0  0  0  0  0  0  0  0
   15.6409  -21.8296    2.7249 C   0  0  0  0  0  0  0  0  0  0  0  0
   14.3932  -21.3967    2.3612 C   0  0  0  0  0  0  0  0  0  0  0  0
   13.8938  -22.2889    1.4994 N   0  0  0  0  0  0  0  0  0  0  0  0
   14.8026  -23.2477    1.3317 C   0  0  0  0  0  0  0  0  0  0  0  0
   15.8715  -22.9753    2.0756 N   0  0  0  0  0  0  0  0  0  0  0  0
   17.7342  -18.9977    4.0710 C   0  0  0  0  0  0  0  0  0  0  0  0
   18.9627  -18.8708    3.6857 O   0  0  0  0  0  0  0  0  0  0  0  0
   17.3820  -18.4263    5.3155 N   0  0  0  0  0  0  0  0  0  0  0  0
   16.1640  -18.4107    6.0552 C   0  0  0  0  0  0  0  0  0  0  0  0
   16.0570  -16.9408    6.4345 C   0  0  0  0  0  0  0  0  0  0  0  0
   17.4929  -16.5898    6.7345 C   0  0  0  0  0  0  0  0  0  0  0  0
   18.3418  -17.6757    6.1343 C   0  0  1  0  0  0  0  0  0  0  0  0
   18.9455  -18.4724    7.2011 C   0  0  0  0  0  0  0  0  0  0  0  0
   18.2001  -19.3750    7.7132 O   0  0  0  0  0  0  0  0  0  0  0  0
   20.2398  -18.3551    7.7191 N   0  0  0  0  0  0  0  0  0  0  0  0
   20.6879  -19.1637    8.8337 C   0  0  0  0  0  0  0  0  0  0  0  0
   20.8464  -20.5787    8.4496 C   0  0  0  0  0  0  0  0  0  0  0  0
   21.5165  -21.4884    9.2626 O   0  0  0  0  0  0  0  0  0  0  0  0
   20.3487  -20.9485    7.3436 O   0  0  0  0  0  0  0  0  0  0  0  0
  2  1  1  6
  3  2  1  0
  3  4  1  0
  4  5  2  0
  6  5  1  0
  7  6  1  0
  8  7  2  0
  8  4  1  0
  9 10  2  0
  9  2  1  0
 11  9  1  0
 12 11  1  0
 13 12  1  0
 14 13  1  0
 14 15  1  0
 15 16  1  1
 15 11  1  0
 16 18  1  0
 17 16  2  0
 18 19  1  0
 20 21  1  0
 20 19  1  0
 22 20  2  0
M  END
$$$$
