HPG.pdb
     RDKit          3D

 22 23  0  0  1  0  0  0  0  0999 V2000
   41.2805   -8.1351   -5.8257 N   0  0  0  0  0  0  0  0  0  0  0  0
   41.6281   -9.3210   -6.5445 C   0  0  1  0  0  0  0  0  0  0  0  0
   40.6602   -9.5419   -7.7047 C   0  0  0  0  0  0  0  0  0  0  0  0
   39.4602  -10.2615   -7.2027 C   0  0  0  0  0  0  0  0  0  0  0  0
   39.2598  -10.6914   -5.9177 C   0  0  0  0  0  0  0  0  0  0  0  0
   38.0646  -11.2899   -5.8761 N   0  0  0  0  0  0  0  0  0  0  0  0
   37.5373  -11.2342   -7.0977 C   0  0  0  0  0  0  0  0  0  0  0  0
   38.3821  -10.6085   -7.9131 N   0  0  0  0  0  0  0  0  0  0  0  0
   43.0312   -9.4062   -6.9965 C   0  0  0  0  0  0  0  0  0  0  0  0
   43.5749   -8.2982   -7.3844 O   0  0  0  0  0  0  0  0  0  0  0  0
   43.8290  -10.5727   -7.0454 N   0  0  0  0  0  0  0  0  0  0  0  0
   43.5778  -11.9248   -6.6718 C   0  0  0  0  0  0  0  0  0  0  0  0
   44.8309  -12.2583   -5.8752 C   0  0  0  0  0  0  0  0  0  0  0  0
   45.9023  -11.5507   -6.6666 C   0  0  0  0  0  0  0  0  0  0  0  0
   45.2044  -10.5620   -7.5585 C   0  0  1  0  0  0  0  0  0  0  0  0
   45.3103  -10.9968   -8.9502 C   0  0  0  0  0  0  0  0  0  0  0  0
   44.6630  -12.0555   -9.2545 O   0  0  0  0  0  0  0  0  0  0  0  0
   46.0377  -10.3856   -9.9771 N   0  0  0  0  0  0  0  0  0  0  0  0
   47.3487   -9.8162   -9.7442 C   0  0  0  0  0  0  0  0  0  0  0  0
   47.3871   -8.3824  -10.0868 C   0  0  0  0  0  0  0  0  0  0  0  0
   47.5052   -7.9461  -11.4034 O   0  0  0  0  0  0  0  0  0  0  0  0
   47.3086   -7.5469   -9.1362 O   0  0  0  0  0  0  0  0  0  0  0  0
  2  1  1  6
  3  2  1  0
  3  4  1  0
  4  5  2  0
  6  5  1  0
  7  6  1  0
  8  7  2  0
  8  4  1  0
  9 10  2  0
  9  2  1  0
 11  9  1  0
 12 11  1  0
 13 12  1  0
 14 13  1  0
 14 15  1  0
 15 16  1  6
 15 11  1  0
 16 18  1  0
 17 16  2  0
 18 19  1  0
 20 21  1  0
 20 19  1  0
 22 20  2  0
M  END
$$$$
