HPG.pdb
     RDKit          3D

 22 23  0  0  1  0  0  0  0  0999 V2000
   21.6840  -21.2591  -14.4968 N   0  0  0  0  0  0  0  0  0  0  0  0
   21.8307  -20.5035  -13.2921 C   0  0  1  0  0  0  0  0  0  0  0  0
   20.7490  -19.4294  -13.2036 C   0  0  0  0  0  0  0  0  0  0  0  0
   20.8139  -18.5768  -14.4195 C   0  0  0  0  0  0  0  0  0  0  0  0
   21.9348  -17.9619  -14.9113 C   0  0  0  0  0  0  0  0  0  0  0  0
   21.5757  -17.2929  -16.0122 N   0  0  0  0  0  0  0  0  0  0  0  0
   20.2715  -17.4855  -16.1999 C   0  0  0  0  0  0  0  0  0  0  0  0
   19.7989  -18.2675  -15.2329 N   0  0  0  0  0  0  0  0  0  0  0  0
   21.9012  -21.2937  -12.0467 C   0  0  0  0  0  0  0  0  0  0  0  0
   21.2997  -22.4390  -12.0618 O   0  0  0  0  0  0  0  0  0  0  0  0
   22.5572  -20.9209  -10.8508 N   0  0  0  0  0  0  0  0  0  0  0  0
   23.2211  -19.7245  -10.4520 C   0  0  0  0  0  0  0  0  0  0  0  0
   24.5098  -20.2750   -9.8586 C   0  0  0  0  0  0  0  0  0  0  0  0
   24.0234  -21.5136   -9.1487 C   0  0  0  0  0  0  0  0  0  0  0  0
   22.6582  -21.8228   -9.6969 C   0  0  1  0  0  0  0  0  0  0  0  0
   21.6485  -21.5702   -8.6702 C   0  0  0  0  0  0  0  0  0  0  0  0
   21.0059  -20.4711   -8.7783 O   0  0  0  0  0  0  0  0  0  0  0  0
   21.3121  -22.3935   -7.5903 N   0  0  0  0  0  0  0  0  0  0  0  0
   20.0648  -22.2326   -6.8724 C   0  0  0  0  0  0  0  0  0  0  0  0
   18.9762  -23.0102   -7.4930 C   0  0  0  0  0  0  0  0  0  0  0  0
   18.4973  -24.1859   -6.9220 O   0  0  0  0  0  0  0  0  0  0  0  0
   18.4821  -22.5724   -8.5755 O   0  0  0  0  0  0  0  0  0  0  0  0
  2  1  1  6
  3  2  1  0
  3  4  1  0
  4  5  2  0
  6  5  1  0
  7  6  1  0
  8  7  2  0
  8  4  1  0
  9 10  2  0
  9  2  1  0
 11  9  1  0
 12 11  1  0
 13 12  1  0
 14 13  1  0
 14 15  1  0
 15 16  1  1
 15 11  1  0
 16 18  1  0
 17 16  2  0
 18 19  1  0
 20 21  1  0
 20 19  1  0
 22 20  2  0
M  END
$$$$
