KIV.pdb
     RDKit          3D

 25 24  0  0  1  0  0  0  0  0999 V2000
   28.5006  -21.5255  -15.9351 N   0  0  0  0  0  0  0  0  0  0  0  0
   28.0850  -20.4141  -15.1919 C   0  0  1  0  0  0  0  0  0  0  0  0
   27.5368  -19.2185  -15.8367 C   0  0  0  0  0  0  0  0  0  0  0  0
   27.4262  -18.9871  -17.2580 C   0  0  0  0  0  0  0  0  0  0  0  0
   28.4659  -18.4674  -18.1423 C   0  0  0  0  0  0  0  0  0  0  0  0
   28.7508  -17.0282  -18.2014 C   0  0  0  0  0  0  0  0  0  0  0  0
   29.8039  -16.8511  -19.2458 N   0  0  0  0  0  0  0  0  0  0  0  0
   27.0594  -20.9432  -14.1918 C   0  0  0  0  0  0  0  0  0  0  0  0
   26.2774  -21.8104  -14.6578 O   0  0  0  0  0  0  0  0  0  0  0  0
   28.1945  -20.9009   -8.9793 C   0  0  0  0  0  0  0  0  0  0  0  0
   27.7071  -21.3810  -10.3498 C   0  0  0  0  0  0  0  0  0  0  0  0
   26.3773  -20.7272  -10.6046 C   0  0  2  0  0  0  0  0  0  0  0  0
   25.3317  -21.1483   -9.5931 C   0  0  0  0  0  0  0  0  0  0  0  0
   25.9358  -20.9611  -12.0068 C   0  0  2  0  0  0  0  0  0  0  0  0
   27.0156  -20.4798  -12.8616 N   0  0  0  0  0  0  0  0  0  0  0  0
   24.6490  -20.3727  -12.3875 C   0  0  0  0  0  0  0  0  0  0  0  0
   24.3975  -19.1490  -12.4121 O   0  0  0  0  0  0  0  0  0  0  0  0
   22.8190  -21.0354  -15.5440 C   0  0  0  0  0  0  0  0  0  0  0  0
   21.8053  -21.3263  -14.4617 C   0  0  2  0  0  0  0  0  0  0  0  0
   20.4448  -20.8121  -14.8772 C   0  0  0  0  0  0  0  0  0  0  0  0
   22.2877  -20.6705  -13.1854 C   0  0  2  0  0  0  0  0  0  0  0  0
   23.5518  -21.2312  -12.7734 N   0  0  0  0  0  0  0  0  0  0  0  0
   21.2987  -20.8726  -12.1203 C   0  0  0  0  0  0  0  0  0  0  0  0
   21.5269  -21.7900  -11.1073 O   0  0  0  0  0  0  0  0  0  0  0  0
   20.2131  -20.2096  -12.1066 O   0  0  0  0  0  0  0  0  0  0  0  0
  2  1  1  6
  3  2  1  0
  4  3  1  0
  5  4  1  0
  6  7  1  0
  6  5  1  0
  8  2  1  0
  8  9  2  0
 11 10  1  0
 12 14  1  0
 12 11  1  0
 12 13  1  1
 14 15  1  6
 15  8  1  0
 16 14  1  0
 17 16  2  0
 19 18  1  6
 19 20  1  0
 19 21  1  0
 21 23  1  0
 21 22  1  1
 22 16  1  0
 23 24  1  0
 25 23  2  0
M  END
$$$$
