KIV.pdb
     RDKit          3D

 25 24  0  0  1  0  0  0  0  0999 V2000
   20.9195  -13.0470  -17.9940 N   0  0  0  0  0  0  0  0  0  0  0  0
   21.2082  -11.7680  -18.4852 C   0  0  1  0  0  0  0  0  0  0  0  0
   20.2758  -11.0502  -19.3576 C   0  0  0  0  0  0  0  0  0  0  0  0
   19.7395  -11.5246  -20.6118 C   0  0  0  0  0  0  0  0  0  0  0  0
   19.2472  -12.8692  -20.8991 C   0  0  0  0  0  0  0  0  0  0  0  0
   18.7065  -13.2039  -22.2225 C   0  0  0  0  0  0  0  0  0  0  0  0
   18.4597  -14.6771  -22.2152 N   0  0  0  0  0  0  0  0  0  0  0  0
   21.4902  -10.9055  -17.2570 C   0  0  0  0  0  0  0  0  0  0  0  0
   20.5490  -10.8616  -16.4245 O   0  0  0  0  0  0  0  0  0  0  0  0
   26.5508  -10.4853  -15.3852 C   0  0  0  0  0  0  0  0  0  0  0  0
   25.3350   -9.9306  -16.1337 C   0  0  0  0  0  0  0  0  0  0  0  0
   24.1454  -10.0817  -15.2267 C   0  0  2  0  0  0  0  0  0  0  0  0
   23.9356  -11.5184  -14.7959 C   0  0  0  0  0  0  0  0  0  0  0  0
   22.9289   -9.4941  -15.8516 C   0  0  2  0  0  0  0  0  0  0  0  0
   22.7139  -10.2253  -17.0956 N   0  0  0  0  0  0  0  0  0  0  0  0
   22.9522   -8.0467  -16.0788 C   0  0  0  0  0  0  0  0  0  0  0  0
   23.6269   -7.4678  -16.9569 O   0  0  0  0  0  0  0  0  0  0  0  0
   20.6904   -3.8507  -16.0972 C   0  0  0  0  0  0  0  0  0  0  0  0
   20.7565   -5.3603  -16.0699 C   0  0  2  0  0  0  0  0  0  0  0  0
   19.6158   -5.9120  -15.2438 C   0  0  0  0  0  0  0  0  0  0  0  0
   22.1032   -5.7558  -15.5024 C   0  0  2  0  0  0  0  0  0  0  0  0
   22.1498   -7.1757  -15.2497 N   0  0  0  0  0  0  0  0  0  0  0  0
   22.3437   -5.0331  -14.2482 C   0  0  0  0  0  0  0  0  0  0  0  0
   22.2089   -5.6719  -13.0261 O   0  0  0  0  0  0  0  0  0  0  0  0
   22.6806   -3.8065  -14.2589 O   0  0  0  0  0  0  0  0  0  0  0  0
  2  1  1  1
  3  2  1  0
  4  3  1  0
  5  4  1  0
  6  7  1  0
  6  5  1  0
  8  2  1  0
  8  9  2  0
 11 10  1  0
 12 14  1  0
 12 11  1  0
 12 13  1  6
 14 15  1  6
 15  8  1  0
 16 14  1  0
 17 16  2  0
 19 18  1  1
 19 20  1  0
 19 21  1  0
 21 23  1  0
 21 22  1  1
 22 16  1  0
 23 24  1  0
 25 23  2  0
M  END
$$$$
