KIV.pdb
     RDKit          3D

 25 24  0  0  1  0  0  0  0  0999 V2000
   24.7569  -21.1635   -9.4705 N   0  0  0  0  0  0  0  0  0  0  0  0
   23.9705  -20.9498  -10.6091 C   0  0  1  0  0  0  0  0  0  0  0  0
   22.6213  -20.3867  -10.5178 C   0  0  0  0  0  0  0  0  0  0  0  0
   21.4279  -20.9198  -11.1322 C   0  0  0  0  0  0  0  0  0  0  0  0
   21.3525  -22.0353  -12.0718 C   0  0  0  0  0  0  0  0  0  0  0  0
   20.0831  -22.3851  -12.7215 C   0  0  0  0  0  0  0  0  0  0  0  0
   19.1891  -22.9056  -11.6441 N   0  0  0  0  0  0  0  0  0  0  0  0
   24.8070  -20.0659  -11.5315 C   0  0  0  0  0  0  0  0  0  0  0  0
   25.1852  -18.9844  -11.0139 O   0  0  0  0  0  0  0  0  0  0  0  0
   29.1575  -21.3181  -12.3914 C   0  0  0  0  0  0  0  0  0  0  0  0
   27.8912  -20.4644  -12.2749 C   0  0  0  0  0  0  0  0  0  0  0  0
   27.3256  -20.3136  -13.6598 C   0  0  2  0  0  0  0  0  0  0  0  0
   28.3074  -19.6580  -14.6084 C   0  0  0  0  0  0  0  0  0  0  0  0
   26.0170  -19.6052  -13.6198 C   0  0  2  0  0  0  0  0  0  0  0  0
   25.1148  -20.4553  -12.8506 N   0  0  0  0  0  0  0  0  0  0  0  0
   25.4365  -19.2430  -14.9155 C   0  0  0  0  0  0  0  0  0  0  0  0
   24.9609  -20.0515  -15.7411 O   0  0  0  0  0  0  0  0  0  0  0  0
   24.0599  -15.6094  -17.9828 C   0  0  0  0  0  0  0  0  0  0  0  0
   24.5108  -15.9763  -16.5879 C   0  0  2  0  0  0  0  0  0  0  0  0
   25.7579  -15.1996  -16.2276 C   0  0  0  0  0  0  0  0  0  0  0  0
   24.7512  -17.4706  -16.5555 C   0  0  2  0  0  0  0  0  0  0  0  0
   25.3858  -17.8556  -15.3181 N   0  0  0  0  0  0  0  0  0  0  0  0
   25.6096  -17.8586  -17.6806 C   0  0  0  0  0  0  0  0  0  0  0  0
   25.0588  -18.3242  -18.8636 O   0  0  0  0  0  0  0  0  0  0  0  0
   26.8759  -17.7748  -17.5914 O   0  0  0  0  0  0  0  0  0  0  0  0
  2  1  1  1
  3  2  1  0
  4  3  1  0
  5  4  1  0
  6  7  1  0
  6  5  1  0
  8  2  1  0
  8  9  2  0
 11 10  1  0
 12 14  1  0
 12 11  1  0
 12 13  1  6
 14 15  1  6
 15  8  1  0
 16 14  1  0
 17 16  2  0
 19 18  1  6
 19 20  1  0
 19 21  1  0
 21 23  1  0
 21 22  1  1
 22 16  1  0
 23 24  1  0
 25 23  2  0
M  END
$$$$
