KIV.pdb
     RDKit          3D

 25 24  0  0  1  0  0  0  0  0999 V2000
   27.1647  -23.6082  -15.9672 N   0  0  0  0  0  0  0  0  0  0  0  0
   26.9499  -22.2445  -15.7333 C   0  0  1  0  0  0  0  0  0  0  0  0
   26.5710  -21.3290  -16.8122 C   0  0  0  0  0  0  0  0  0  0  0  0
   27.3790  -20.9713  -17.9545 C   0  0  0  0  0  0  0  0  0  0  0  0
   28.8329  -21.0605  -18.0589 C   0  0  0  0  0  0  0  0  0  0  0  0
   29.5250  -20.6389  -19.2833 C   0  0  0  0  0  0  0  0  0  0  0  0
   30.9852  -20.8138  -19.0219 N   0  0  0  0  0  0  0  0  0  0  0  0
   25.8890  -22.1734  -14.6373 C   0  0  0  0  0  0  0  0  0  0  0  0
   24.9895  -23.0473  -14.7259 O   0  0  0  0  0  0  0  0  0  0  0  0
   27.3212  -21.1207   -9.7256 C   0  0  0  0  0  0  0  0  0  0  0  0
   26.7107  -21.6423  -11.0300 C   0  0  0  0  0  0  0  0  0  0  0  0
   25.5163  -20.7828  -11.3387 C   0  0  2  0  0  0  0  0  0  0  0  0
   24.5301  -20.7433  -10.1900 C   0  0  0  0  0  0  0  0  0  0  0  0
   24.8807  -21.2043  -12.6170 C   0  0  2  0  0  0  0  0  0  0  0  0
   25.9384  -21.1974  -13.6217 N   0  0  0  0  0  0  0  0  0  0  0  0
   23.7224  -20.4205  -13.0539 C   0  0  0  0  0  0  0  0  0  0  0  0
   23.7034  -19.1779  -13.1844 O   0  0  0  0  0  0  0  0  0  0  0  0
   20.5213  -22.2412  -15.1388 C   0  0  0  0  0  0  0  0  0  0  0  0
   20.9377  -20.7911  -15.2262 C   0  0  2  0  0  0  0  0  0  0  0  0
   22.0714  -20.6385  -16.2160 C   0  0  0  0  0  0  0  0  0  0  0  0
   21.3394  -20.3389  -13.8384 C   0  0  2  0  0  0  0  0  0  0  0  0
   22.4803  -21.0886  -13.3711 N   0  0  0  0  0  0  0  0  0  0  0  0
   20.2194  -20.5339  -12.9105 C   0  0  0  0  0  0  0  0  0  0  0  0
   20.2575  -21.5375  -11.9560 O   0  0  0  0  0  0  0  0  0  0  0  0
   19.1923  -19.7854  -12.9647 O   0  0  0  0  0  0  0  0  0  0  0  0
  2  1  1  6
  3  2  1  0
  4  3  1  0
  5  4  1  0
  6  7  1  0
  6  5  1  0
  8  2  1  0
  8  9  2  0
 11 10  1  0
 12 14  1  0
 12 11  1  0
 12 13  1  1
 14 15  1  6
 15  8  1  0
 16 14  1  0
 17 16  2  0
 19 18  1  1
 19 20  1  0
 19 21  1  0
 21 23  1  0
 21 22  1  1
 22 16  1  0
 23 24  1  0
 25 23  2  0
M  END
$$$$
