KIV.pdb
     RDKit          3D

 25 24  0  0  1  0  0  0  0  0999 V2000
   28.4412  -22.0448  -15.6210 N   0  0  0  0  0  0  0  0  0  0  0  0
   27.8274  -20.8278  -15.3008 C   0  0  1  0  0  0  0  0  0  0  0  0
   27.3354  -19.9176  -16.3378 C   0  0  0  0  0  0  0  0  0  0  0  0
   28.1314  -19.2611  -17.3482 C   0  0  0  0  0  0  0  0  0  0  0  0
   29.3785  -18.5302  -17.1399 C   0  0  0  0  0  0  0  0  0  0  0  0
   30.0784  -17.9029  -18.2679 C   0  0  0  0  0  0  0  0  0  0  0  0
   29.5326  -16.5173  -18.3829 N   0  0  0  0  0  0  0  0  0  0  0  0
   26.6689  -21.1794  -14.3701 C   0  0  0  0  0  0  0  0  0  0  0  0
   25.9666  -22.1481  -14.7562 O   0  0  0  0  0  0  0  0  0  0  0  0
   27.2009  -20.7732   -9.1022 C   0  0  0  0  0  0  0  0  0  0  0  0
   26.8637  -21.2520  -10.5176 C   0  0  0  0  0  0  0  0  0  0  0  0
   25.6369  -20.5043  -10.9610 C   0  0  2  0  0  0  0  0  0  0  0  0
   24.4743  -20.7014  -10.0107 C   0  0  0  0  0  0  0  0  0  0  0  0
   25.2866  -20.8533  -12.3650 C   0  0  2  0  0  0  0  0  0  0  0  0
   26.4296  -20.4602  -13.1819 N   0  0  0  0  0  0  0  0  0  0  0  0
   24.0388  -20.2850  -12.8818 C   0  0  0  0  0  0  0  0  0  0  0  0
   23.7802  -19.0645  -12.9529 O   0  0  0  0  0  0  0  0  0  0  0  0
   20.0624  -20.7945  -15.6417 C   0  0  0  0  0  0  0  0  0  0  0  0
   21.4193  -21.2981  -15.2071 C   0  0  2  0  0  0  0  0  0  0  0  0
   21.3910  -22.8042  -15.0691 C   0  0  0  0  0  0  0  0  0  0  0  0
   21.7686  -20.6210  -13.8988 C   0  0  2  0  0  0  0  0  0  0  0  0
   22.9929  -21.1613  -13.3592 N   0  0  0  0  0  0  0  0  0  0  0  0
   20.6834  -20.8222  -12.9318 C   0  0  0  0  0  0  0  0  0  0  0  0
   19.5943  -19.9663  -12.9018 O   0  0  0  0  0  0  0  0  0  0  0  0
   20.7219  -21.7863  -12.1027 O   0  0  0  0  0  0  0  0  0  0  0  0
  2  1  1  6
  3  2  1  0
  4  3  1  0
  5  4  1  0
  6  7  1  0
  6  5  1  0
  8  2  1  0
  8  9  2  0
 11 10  1  0
 12 14  1  0
 12 11  1  0
 12 13  1  1
 14 15  1  6
 15  8  1  0
 16 14  1  0
 17 16  2  0
 19 18  1  1
 19 20  1  0
 19 21  1  0
 21 23  1  0
 21 22  1  1
 22 16  1  0
 23 24  1  0
 25 23  2  0
M  END
$$$$
