KIV.pdb
     RDKit          3D

 25 24  0  0  1  0  0  0  0  0999 V2000
   22.1734  -20.7823  -17.0240 N   0  0  0  0  0  0  0  0  0  0  0  0
   22.6478  -19.7007  -16.2720 C   0  0  1  0  0  0  0  0  0  0  0  0
   21.7631  -18.9200  -15.4040 C   0  0  0  0  0  0  0  0  0  0  0  0
   20.5316  -18.2748  -15.7952 C   0  0  0  0  0  0  0  0  0  0  0  0
   20.3842  -17.1770  -16.7469 C   0  0  0  0  0  0  0  0  0  0  0  0
   19.0565  -16.6475  -17.0825 C   0  0  0  0  0  0  0  0  0  0  0  0
   19.2629  -15.6670  -18.1903 N   0  0  0  0  0  0  0  0  0  0  0  0
   23.7958  -20.2525  -15.4296 C   0  0  0  0  0  0  0  0  0  0  0  0
   23.5437  -21.3430  -14.8568 O   0  0  0  0  0  0  0  0  0  0  0  0
   28.7639  -20.2039  -17.1117 C   0  0  0  0  0  0  0  0  0  0  0  0
   27.3794  -20.4833  -16.5189 C   0  0  0  0  0  0  0  0  0  0  0  0
   27.3567  -19.8880  -15.1384 C   0  0  2  0  0  0  0  0  0  0  0  0
   28.5389  -20.3362  -14.3047 C   0  0  0  0  0  0  0  0  0  0  0  0
   26.0554  -20.1605  -14.4690 C   0  0  2  0  0  0  0  0  0  0  0  0
   25.0263  -19.5742  -15.3207 N   0  0  0  0  0  0  0  0  0  0  0  0
   25.9303  -19.6994  -13.0838 C   0  0  0  0  0  0  0  0  0  0  0  0
   25.9207  -18.5032  -12.7226 O   0  0  0  0  0  0  0  0  0  0  0  0
   24.5655  -22.3338  -10.0381 C   0  0  0  0  0  0  0  0  0  0  0  0
   24.4053  -20.8311  -10.0335 C   0  0  2  0  0  0  0  0  0  0  0  0
   23.1603  -20.4425  -10.7997 C   0  0  0  0  0  0  0  0  0  0  0  0
   25.6521  -20.2293  -10.6460 C   0  0  2  0  0  0  0  0  0  0  0  0
   25.8055  -20.6632  -12.0136 N   0  0  0  0  0  0  0  0  0  0  0  0
   26.8306  -20.6389   -9.8735 C   0  0  0  0  0  0  0  0  0  0  0  0
   27.0377  -20.1590   -8.5904 O   0  0  0  0  0  0  0  0  0  0  0  0
   27.6844  -21.4425  -10.3671 O   0  0  0  0  0  0  0  0  0  0  0  0
  2  1  1  1
  3  2  1  0
  4  3  1  0
  5  4  1  0
  6  7  1  0
  6  5  1  0
  8  2  1  0
  8  9  2  0
 11 10  1  0
 12 14  1  0
 12 11  1  0
 12 13  1  1
 14 15  1  6
 15  8  1  0
 16 14  1  0
 17 16  2  0
 19 18  1  6
 19 20  1  0
 19 21  1  0
 21 23  1  0
 21 22  1  6
 22 16  1  0
 23 24  1  0
 25 23  2  0
M  END
$$$$
