KIV.pdb
     RDKit          3D

 25 24  0  0  1  0  0  0  0  0999 V2000
   20.2720  -13.8531  -18.9989 N   0  0  0  0  0  0  0  0  0  0  0  0
   21.0888  -12.8084  -19.4482 C   0  0  1  0  0  0  0  0  0  0  0  0
   20.6492  -11.8839  -20.4959 C   0  0  0  0  0  0  0  0  0  0  0  0
   20.6156  -12.1517  -21.9147 C   0  0  0  0  0  0  0  0  0  0  0  0
   21.2357  -13.2787  -22.6063 C   0  0  0  0  0  0  0  0  0  0  0  0
   21.1927  -13.3766  -24.0707 C   0  0  0  0  0  0  0  0  0  0  0  0
   21.9246  -14.6282  -24.4297 N   0  0  0  0  0  0  0  0  0  0  0  0
   21.4509  -12.0001  -18.2042 C   0  0  0  0  0  0  0  0  0  0  0  0
   20.5167  -11.8801  -17.3713 O   0  0  0  0  0  0  0  0  0  0  0  0
   26.1134  -10.6858  -14.7064 C   0  0  0  0  0  0  0  0  0  0  0  0
   24.6752  -10.3109  -15.0769 C   0  0  0  0  0  0  0  0  0  0  0  0
   24.3506  -11.0095  -16.3682 C   0  0  2  0  0  0  0  0  0  0  0  0
   25.3979  -10.7564  -17.4324 C   0  0  0  0  0  0  0  0  0  0  0  0
   22.9793  -10.6565  -16.8273 C   0  0  2  0  0  0  0  0  0  0  0  0
   22.7346  -11.4452  -18.0299 N   0  0  0  0  0  0  0  0  0  0  0  0
   22.7200   -9.2331  -17.0587 C   0  0  0  0  0  0  0  0  0  0  0  0
   23.4182   -8.4823  -17.7731 O   0  0  0  0  0  0  0  0  0  0  0  0
   18.9304   -7.6308  -16.2394 C   0  0  0  0  0  0  0  0  0  0  0  0
   19.9055   -7.0215  -17.2201 C   0  0  2  0  0  0  0  0  0  0  0  0
   19.7550   -7.6794  -18.5738 C   0  0  0  0  0  0  0  0  0  0  0  0
   21.3005   -7.2015  -16.6603 C   0  0  2  0  0  0  0  0  0  0  0  0
   21.5802   -8.5991  -16.4353 N   0  0  0  0  0  0  0  0  0  0  0  0
   21.4231   -6.4734  -15.3923 C   0  0  0  0  0  0  0  0  0  0  0  0
   21.4134   -7.1503  -14.1834 O   0  0  0  0  0  0  0  0  0  0  0  0
   21.5406   -5.2067  -15.3786 O   0  0  0  0  0  0  0  0  0  0  0  0
  2  1  1  1
  3  2  1  0
  4  3  1  0
  5  4  1  0
  6  7  1  0
  6  5  1  0
  8  2  1  0
  8  9  2  0
 11 10  1  0
 12 14  1  0
 12 11  1  0
 12 13  1  6
 14 15  1  6
 15  8  1  0
 16 14  1  0
 17 16  2  0
 19 18  1  1
 19 20  1  0
 19 21  1  0
 21 23  1  0
 21 22  1  1
 22 16  1  0
 23 24  1  0
 25 23  2  0
M  END
$$$$
