KIV.pdb
     RDKit          3D

 25 24  0  0  1  0  0  0  0  0999 V2000
   21.0075  -21.0621  -11.5815 N   0  0  0  0  0  0  0  0  0  0  0  0
   21.5623  -21.5550  -12.7688 C   0  0  1  0  0  0  0  0  0  0  0  0
   20.7767  -21.6574  -14.0009 C   0  0  0  0  0  0  0  0  0  0  0  0
   20.3373  -22.8774  -14.6369 C   0  0  0  0  0  0  0  0  0  0  0  0
   20.8385  -24.2252  -14.3821 C   0  0  0  0  0  0  0  0  0  0  0  0
   20.3391  -25.3702  -15.1537 C   0  0  0  0  0  0  0  0  0  0  0  0
   21.0589  -26.5721  -14.6356 N   0  0  0  0  0  0  0  0  0  0  0  0
   22.7906  -20.6903  -13.0434 C   0  0  0  0  0  0  0  0  0  0  0  0
   22.6073  -19.4577  -12.8765 O   0  0  0  0  0  0  0  0  0  0  0  0
   27.1052  -21.5827  -10.6932 C   0  0  0  0  0  0  0  0  0  0  0  0
   25.8819  -21.0437  -11.4411 C   0  0  0  0  0  0  0  0  0  0  0  0
   26.2758  -20.8825  -12.8832 C   0  0  2  0  0  0  0  0  0  0  0  0
   27.5310  -20.0501  -13.0417 C   0  0  0  0  0  0  0  0  0  0  0  0
   25.1386  -20.3512  -13.6832 C   0  0  2  0  0  0  0  0  0  0  0  0
   24.0167  -21.2540  -13.4497 N   0  0  0  0  0  0  0  0  0  0  0  0
   25.3857  -20.1637  -15.1153 C   0  0  0  0  0  0  0  0  0  0  0  0
   25.6435  -21.0790  -15.9259 O   0  0  0  0  0  0  0  0  0  0  0  0
   24.3626  -16.4875  -16.9101 C   0  0  0  0  0  0  0  0  0  0  0  0
   24.3834  -17.7970  -17.6642 C   0  0  2  0  0  0  0  0  0  0  0  0
   23.0463  -18.4913  -17.5298 C   0  0  0  0  0  0  0  0  0  0  0  0
   25.5113  -18.6373  -17.1041 C   0  0  2  0  0  0  0  0  0  0  0  0
   25.3393  -18.8360  -15.6852 N   0  0  0  0  0  0  0  0  0  0  0  0
   26.7948  -17.9688  -17.3469 C   0  0  0  0  0  0  0  0  0  0  0  0
   27.3967  -17.2106  -16.3556 O   0  0  0  0  0  0  0  0  0  0  0  0
   27.3793  -18.0726  -18.4720 O   0  0  0  0  0  0  0  0  0  0  0  0
  2  1  1  1
  3  2  1  0
  4  3  1  0
  5  4  1  0
  6  7  1  0
  6  5  1  0
  8  2  1  0
  8  9  2  0
 11 10  1  0
 12 14  1  0
 12 11  1  0
 12 13  1  1
 14 15  1  6
 15  8  1  0
 16 14  1  0
 17 16  2  0
 19 18  1  1
 19 20  1  0
 19 21  1  0
 21 23  1  0
 21 22  1  1
 22 16  1  0
 23 24  1  0
 25 23  2  0
M  END
$$$$
