KIV.pdb
     RDKit          3D

 25 24  0  0  1  0  0  0  0  0999 V2000
   28.0155  -20.4925  -17.3133 N   0  0  0  0  0  0  0  0  0  0  0  0
   27.6529  -19.5462  -16.3471 C   0  0  1  0  0  0  0  0  0  0  0  0
   26.5659  -18.5912  -16.5753 C   0  0  0  0  0  0  0  0  0  0  0  0
   26.4866  -17.6243  -17.6451 C   0  0  0  0  0  0  0  0  0  0  0  0
   27.5935  -17.1279  -18.4582 C   0  0  0  0  0  0  0  0  0  0  0  0
   27.4289  -16.9169  -19.9019 C   0  0  0  0  0  0  0  0  0  0  0  0
   27.6755  -15.4639  -20.1450 N   0  0  0  0  0  0  0  0  0  0  0  0
   27.3455  -20.3426  -15.0810 C   0  0  0  0  0  0  0  0  0  0  0  0
   26.6544  -21.3756  -15.2707 O   0  0  0  0  0  0  0  0  0  0  0  0
   30.8808  -21.2832  -11.3529 C   0  0  0  0  0  0  0  0  0  0  0  0
   29.7311  -21.3425  -12.3632 C   0  0  0  0  0  0  0  0  0  0  0  0
   28.5312  -20.7133  -11.7112 C   0  0  2  0  0  0  0  0  0  0  0  0
   28.1891  -21.3713  -10.3908 C   0  0  0  0  0  0  0  0  0  0  0  0
   27.3751  -20.6888  -12.6486 C   0  0  2  0  0  0  0  0  0  0  0  0
   27.8108  -19.9303  -13.8162 N   0  0  0  0  0  0  0  0  0  0  0  0
   26.1160  -20.1669  -12.1107 C   0  0  0  0  0  0  0  0  0  0  0  0
   25.9176  -18.9821  -11.7668 O   0  0  0  0  0  0  0  0  0  0  0  0
   22.5361  -22.4818  -12.3546 C   0  0  0  0  0  0  0  0  0  0  0  0
   22.5876  -20.9715  -12.3472 C   0  0  2  0  0  0  0  0  0  0  0  0
   22.7696  -20.4544  -13.7570 C   0  0  0  0  0  0  0  0  0  0  0  0
   23.7267  -20.5502  -11.4433 C   0  0  2  0  0  0  0  0  0  0  0  0
   24.9838  -21.0504  -11.9450 N   0  0  0  0  0  0  0  0  0  0  0  0
   23.5039  -21.0719  -10.0900 C   0  0  0  0  0  0  0  0  0  0  0  0
   22.4534  -20.6063   -9.3159 O   0  0  0  0  0  0  0  0  0  0  0  0
   24.2710  -21.9616   -9.6017 O   0  0  0  0  0  0  0  0  0  0  0  0
  2  1  1  6
  3  2  1  0
  4  3  1  0
  5  4  1  0
  6  7  1  0
  6  5  1  0
  8  2  1  0
  8  9  2  0
 11 10  1  0
 12 14  1  0
 12 11  1  0
 12 13  1  1
 14 15  1  6
 15  8  1  0
 16 14  1  0
 17 16  2  0
 19 18  1  6
 19 20  1  0
 19 21  1  0
 21 23  1  0
 21 22  1  6
 22 16  1  0
 23 24  1  0
 25 23  2  0
M  END
$$$$
