KIV.pdb
     RDKit          3D

 25 24  0  0  1  0  0  0  0  0999 V2000
   23.7395  -19.8756  -16.0536 N   0  0  0  0  0  0  0  0  0  0  0  0
   22.6468  -19.1458  -16.5370 C   0  0  1  0  0  0  0  0  0  0  0  0
   21.2720  -19.4723  -16.1511 C   0  0  0  0  0  0  0  0  0  0  0  0
   20.6727  -20.7863  -16.1489 C   0  0  0  0  0  0  0  0  0  0  0  0
   20.7168  -21.7687  -17.2286 C   0  0  0  0  0  0  0  0  0  0  0  0
   20.0500  -23.0693  -17.0880 C   0  0  0  0  0  0  0  0  0  0  0  0
   20.3235  -23.8203  -18.3498 N   0  0  0  0  0  0  0  0  0  0  0  0
   22.9245  -17.6899  -16.1693 C   0  0  0  0  0  0  0  0  0  0  0  0
   22.0210  -17.1441  -15.4864 O   0  0  0  0  0  0  0  0  0  0  0  0
   27.4182  -16.9865  -15.3066 C   0  0  0  0  0  0  0  0  0  0  0  0
   26.1430  -16.2778  -14.8401 C   0  0  0  0  0  0  0  0  0  0  0  0
   25.6855  -15.3945  -15.9676 C   0  0  2  0  0  0  0  0  0  0  0  0
   26.0022  -13.9355  -15.7134 C   0  0  0  0  0  0  0  0  0  0  0  0
   24.2433  -15.6187  -16.2600 C   0  0  2  0  0  0  0  0  0  0  0  0
   24.1052  -17.0363  -16.5756 N   0  0  0  0  0  0  0  0  0  0  0  0
   23.6561  -14.7778  -17.3065 C   0  0  0  0  0  0  0  0  0  0  0  0
   24.1050  -14.6553  -18.4662 O   0  0  0  0  0  0  0  0  0  0  0  0
   19.8091  -12.6998  -19.2984 C   0  0  0  0  0  0  0  0  0  0  0  0
   20.4526  -13.6886  -18.3540 C   0  0  2  0  0  0  0  0  0  0  0  0
   19.6209  -13.8182  -17.0971 C   0  0  0  0  0  0  0  0  0  0  0  0
   21.8530  -13.1988  -18.0525 C   0  0  2  0  0  0  0  0  0  0  0  0
   22.4640  -14.0094  -17.0269 N   0  0  0  0  0  0  0  0  0  0  0  0
   21.8031  -11.8036  -17.6007 C   0  0  0  0  0  0  0  0  0  0  0  0
   21.5640  -10.7765  -18.4994 O   0  0  0  0  0  0  0  0  0  0  0  0
   21.9784  -11.5104  -16.3752 O   0  0  0  0  0  0  0  0  0  0  0  0
  2  1  1  1
  3  2  1  0
  4  3  1  0
  5  4  1  0
  6  7  1  0
  6  5  1  0
  8  2  1  0
  8  9  2  0
 11 10  1  0
 12 14  1  0
 12 11  1  0
 12 13  1  1
 14 15  1  6
 15  8  1  0
 16 14  1  0
 17 16  2  0
 19 18  1  6
 19 20  1  0
 19 21  1  0
 21 23  1  0
 21 22  1  1
 22 16  1  0
 23 24  1  0
 25 23  2  0
M  END
$$$$
