WIW.pdb
     RDKit          3D

 37 40  0  0  1  0  0  0  0  0999 V2000
    6.2368  -18.9490   27.1064 N   0  0  0  0  0  0  0  0  0  0  0  0
    7.2586  -17.9305   27.1863 C   0  0  1  0  0  0  0  0  0  0  0  0
    8.5743  -18.6189   27.4689 C   0  0  0  0  0  0  0  0  0  0  0  0
    9.3271  -17.9563   28.5612 C   0  0  0  0  0  0  0  0  0  0  0  0
    9.5073  -18.3828   29.8567 C   0  0  0  0  0  0  0  0  0  0  0  0
   10.2592  -17.4636   30.4851 N   0  0  0  0  0  0  0  0  0  0  0  0
   10.5630  -16.4625   29.6244 C   0  0  0  0  0  0  0  0  0  0  0  0
   11.3098  -15.2876   29.7802 C   0  0  0  0  0  0  0  0  0  0  0  0
   11.4790  -14.4107   28.7311 C   0  0  0  0  0  0  0  0  0  0  0  0
   10.8818  -14.7451   27.5324 C   0  0  0  0  0  0  0  0  0  0  0  0
   10.1475  -15.8782   27.3394 C   0  0  0  0  0  0  0  0  0  0  0  0
    9.9884  -16.7546   28.4170 C   0  0  0  0  0  0  0  0  0  0  0  0
    7.3011  -17.1554   25.9269 C   0  0  0  0  0  0  0  0  0  0  0  0
    7.1105  -17.7891   24.8450 O   0  0  0  0  0  0  0  0  0  0  0  0
    6.1078  -11.9222   25.9290 C   0  0  0  0  0  0  0  0  0  0  0  0
    6.2043  -13.2968   25.2624 C   0  0  0  0  0  0  0  0  0  0  0  0
    7.6080  -13.5918   24.8549 C   0  0  2  0  0  0  0  0  0  0  0  0
    8.0726  -12.7559   23.6882 C   0  0  0  0  0  0  0  0  0  0  0  0
    7.8940  -15.0340   24.7970 C   0  0  2  0  0  0  0  0  0  0  0  0
    7.5505  -15.7585   25.9977 N   0  0  0  0  0  0  0  0  0  0  0  0
    9.1499  -15.4653   24.1698 C   0  0  0  0  0  0  0  0  0  0  0  0
   10.2882  -15.3079   24.6758 O   0  0  0  0  0  0  0  0  0  0  0  0
    9.1142  -16.1045   22.9002 N   0  0  0  0  0  0  0  0  0  0  0  0
   10.3392  -16.6315   22.2742 C   0  0  1  0  0  0  0  0  0  0  0  0
   10.1196  -16.8636   20.7971 C   0  0  0  0  0  0  0  0  0  0  0  0
    9.8287  -15.5723   20.1218 C   0  0  0  0  0  0  0  0  0  0  0  0
   10.7572  -14.7331   19.4948 C   0  0  0  0  0  0  0  0  0  0  0  0
   10.0948  -13.6649   19.0131 N   0  0  0  0  0  0  0  0  0  0  0  0
    8.7879  -13.7407   19.2792 C   0  0  0  0  0  0  0  0  0  0  0  0
    7.7313  -12.9077   18.9935 C   0  0  0  0  0  0  0  0  0  0  0  0
    6.4758  -13.2977   19.4236 C   0  0  0  0  0  0  0  0  0  0  0  0
    6.2548  -14.4746   20.1177 C   0  0  0  0  0  0  0  0  0  0  0  0
    7.3521  -15.2825   20.3825 C   0  0  0  0  0  0  0  0  0  0  0  0
    8.6143  -14.9213   19.9672 C   0  0  0  0  0  0  0  0  0  0  0  0
   11.5016  -15.8031   22.5909 C   0  0  0  0  0  0  0  0  0  0  0  0
   11.4237  -14.6476   23.3536 O   0  0  0  0  0  0  0  0  0  0  0  0
   12.6764  -16.0921   22.1816 O   0  0  0  0  0  0  0  0  0  0  0  0
  2  1  1  6
  2  3  1  0
  4  3  1  0
  5  4  2  0
  6  7  1  0
  6  5  1  0
  7 12  2  0
  8  7  1  0
  8  9  2  0
  9 10  1  0
 10 11  2  0
 12  4  1  0
 12 11  1  0
 13 20  1  0
 13  2  1  0
 14 13  2  0
 16 15  1  0
 16 17  1  0
 17 18  1  6
 19 17  1  0
 19 20  1  1
 21 19  1  0
 21 22  2  0
 23 24  1  0
 23 21  1  0
 24 25  1  6
 26 25  1  0
 26 27  2  0
 28 27  1  0
 29 28  1  0
 30 29  2  0
 31 30  1  0
 32 31  2  0
 32 33  1  0
 33 34  2  0
 34 29  1  0
 34 26  1  0
 35 24  1  0
 35 36  1  0
 37 35  2  0
M  END
$$$$
