WIW.pdb
     RDKit          3D

 37 40  0  0  1  0  0  0  0  0999 V2000
    6.2728  -18.2688   24.4962 N   0  0  0  0  0  0  0  0  0  0  0  0
    7.2225  -17.1897   24.3502 C   0  0  1  0  0  0  0  0  0  0  0  0
    7.5200  -16.6479   25.7297 C   0  0  0  0  0  0  0  0  0  0  0  0
    6.8726  -15.3347   25.9646 C   0  0  0  0  0  0  0  0  0  0  0  0
    5.7639  -15.0523   26.7286 C   0  0  0  0  0  0  0  0  0  0  0  0
    5.5438  -13.7293   26.6498 N   0  0  0  0  0  0  0  0  0  0  0  0
    6.4829  -13.1609   25.8560 C   0  0  0  0  0  0  0  0  0  0  0  0
    6.6961  -11.8343   25.4595 C   0  0  0  0  0  0  0  0  0  0  0  0
    7.7446  -11.5021   24.6297 C   0  0  0  0  0  0  0  0  0  0  0  0
    8.5647  -12.5316   24.2135 C   0  0  0  0  0  0  0  0  0  0  0  0
    8.3916  -13.8349   24.5763 C   0  0  0  0  0  0  0  0  0  0  0  0
    7.3217  -14.1503   25.4192 C   0  0  0  0  0  0  0  0  0  0  0  0
    8.4446  -17.6782   23.6743 C   0  0  0  0  0  0  0  0  0  0  0  0
    8.7904  -18.8791   23.8902 O   0  0  0  0  0  0  0  0  0  0  0  0
    9.7090  -16.5861   18.6516 C   0  0  0  0  0  0  0  0  0  0  0  0
    9.5535  -17.2035   20.0437 C   0  0  0  0  0  0  0  0  0  0  0  0
   10.6957  -16.8232   20.9236 C   0  0  2  0  0  0  0  0  0  0  0  0
   12.0374  -17.1999   20.3461 C   0  0  0  0  0  0  0  0  0  0  0  0
   10.4618  -17.1561   22.3377 C   0  0  2  0  0  0  0  0  0  0  0  0
    9.1562  -16.7847   22.8295 N   0  0  0  0  0  0  0  0  0  0  0  0
   11.5544  -16.9270   23.2919 C   0  0  0  0  0  0  0  0  0  0  0  0
   12.1675  -15.8392   23.4231 O   0  0  0  0  0  0  0  0  0  0  0  0
   11.9774  -17.9879   24.1388 N   0  0  0  0  0  0  0  0  0  0  0  0
   13.1618  -17.8505   25.0038 C   0  0  1  0  0  0  0  0  0  0  0  0
   13.1066  -16.5504   25.7724 C   0  0  0  0  0  0  0  0  0  0  0  0
   11.9879  -16.5897   26.7496 C   0  0  0  0  0  0  0  0  0  0  0  0
   11.5084  -17.7207   27.4209 C   0  0  0  0  0  0  0  0  0  0  0  0
   10.4880  -17.3355   28.2098 N   0  0  0  0  0  0  0  0  0  0  0  0
   10.2594  -16.0235   28.1060 C   0  0  0  0  0  0  0  0  0  0  0  0
    9.3443  -15.1891   28.7046 C   0  0  0  0  0  0  0  0  0  0  0  0
    9.3846  -13.8486   28.3658 C   0  0  0  0  0  0  0  0  0  0  0  0
   10.2973  -13.3322   27.4625 C   0  0  0  0  0  0  0  0  0  0  0  0
   11.2009  -14.2132   26.8844 C   0  0  0  0  0  0  0  0  0  0  0  0
   11.1858  -15.5530   27.2017 C   0  0  0  0  0  0  0  0  0  0  0  0
   13.3589  -19.0374   25.8347 C   0  0  0  0  0  0  0  0  0  0  0  0
   14.4623  -19.2129   26.6561 O   0  0  0  0  0  0  0  0  0  0  0  0
   12.5196  -19.9998   25.8585 O   0  0  0  0  0  0  0  0  0  0  0  0
  2  1  1  1
  2  3  1  0
  4  3  1  0
  5  4  2  0
  6  7  1  0
  6  5  1  0
  7 12  2  0
  8  7  1  0
  8  9  2  0
  9 10  1  0
 10 11  2  0
 12  4  1  0
 12 11  1  0
 13 20  1  0
 13  2  1  0
 14 13  2  0
 16 15  1  0
 16 17  1  0
 17 18  1  6
 19 17  1  0
 19 20  1  1
 21 19  1  0
 21 22  2  0
 23 24  1  0
 23 21  1  0
 24 25  1  1
 26 25  1  0
 26 27  2  0
 28 27  1  0
 29 28  1  0
 30 29  2  0
 31 30  1  0
 32 31  2  0
 32 33  1  0
 33 34  2  0
 34 29  1  0
 34 26  1  0
 35 24  1  0
 35 36  1  0
 37 35  2  0
M  END
$$$$
