WIW.pdb
     RDKit          3D

 37 40  0  0  1  0  0  0  0  0999 V2000
    5.9035  -19.1474   21.9270 N   0  0  0  0  0  0  0  0  0  0  0  0
    5.4453  -18.0736   21.0757 C   0  0  1  0  0  0  0  0  0  0  0  0
    4.1749  -17.5182   21.6778 C   0  0  0  0  0  0  0  0  0  0  0  0
    3.1242  -18.5551   21.8174 C   0  0  0  0  0  0  0  0  0  0  0  0
    2.7906  -19.2900   22.9316 C   0  0  0  0  0  0  0  0  0  0  0  0
    1.7787  -20.1056   22.5910 N   0  0  0  0  0  0  0  0  0  0  0  0
    1.4585  -19.9100   21.2893 C   0  0  0  0  0  0  0  0  0  0  0  0
    0.4912  -20.4981   20.4641 C   0  0  0  0  0  0  0  0  0  0  0  0
    0.3587  -20.1193   19.1460 C   0  0  0  0  0  0  0  0  0  0  0  0
    1.2182  -19.1422   18.6855 C   0  0  0  0  0  0  0  0  0  0  0  0
    2.1724  -18.5452   19.4556 C   0  0  0  0  0  0  0  0  0  0  0  0
    2.2898  -18.9440   20.7904 C   0  0  0  0  0  0  0  0  0  0  0  0
    6.4963  -17.0393   20.9547 C   0  0  0  0  0  0  0  0  0  0  0  0
    6.4811  -16.3106   19.9169 O   0  0  0  0  0  0  0  0  0  0  0  0
    6.7235  -13.1417   19.8549 C   0  0  0  0  0  0  0  0  0  0  0  0
    7.3112  -14.5132   20.1968 C   0  0  0  0  0  0  0  0  0  0  0  0
    7.8341  -14.5336   21.5931 C   0  0  2  0  0  0  0  0  0  0  0  0
    8.6405  -13.3068   21.9400 C   0  0  0  0  0  0  0  0  0  0  0  0
    8.4073  -15.8358   21.9686 C   0  0  2  0  0  0  0  0  0  0  0  0
    7.4548  -16.9205   21.9966 N   0  0  0  0  0  0  0  0  0  0  0  0
    9.3933  -15.8695   23.0564 C   0  0  0  0  0  0  0  0  0  0  0  0
   10.4921  -15.2621   23.0392 O   0  0  0  0  0  0  0  0  0  0  0  0
    9.1218  -16.6354   24.2231 N   0  0  0  0  0  0  0  0  0  0  0  0
   10.0387  -16.6247   25.3760 C   0  0  1  0  0  0  0  0  0  0  0  0
    9.2602  -16.5543   26.6694 C   0  0  0  0  0  0  0  0  0  0  0  0
    8.0833  -15.6628   26.5013 C   0  0  0  0  0  0  0  0  0  0  0  0
    6.8029  -16.0444   26.0834 C   0  0  0  0  0  0  0  0  0  0  0  0
    6.0281  -14.9440   26.0567 N   0  0  0  0  0  0  0  0  0  0  0  0
    6.7104  -13.8578   26.4296 C   0  0  0  0  0  0  0  0  0  0  0  0
    6.3546  -12.5354   26.5586 C   0  0  0  0  0  0  0  0  0  0  0  0
    7.3296  -11.6496   26.9804 C   0  0  0  0  0  0  0  0  0  0  0  0
    8.6243  -12.0442   27.2702 C   0  0  0  0  0  0  0  0  0  0  0  0
    8.9358  -13.3891   27.1251 C   0  0  0  0  0  0  0  0  0  0  0  0
    7.9867  -14.2950   26.7072 C   0  0  0  0  0  0  0  0  0  0  0  0
   10.9995  -17.7246   25.3065 C   0  0  0  0  0  0  0  0  0  0  0  0
   12.0922  -17.8311   26.1537 O   0  0  0  0  0  0  0  0  0  0  0  0
   10.8946  -18.6684   24.4526 O   0  0  0  0  0  0  0  0  0  0  0  0
  2  1  1  1
  2  3  1  0
  4  3  1  0
  5  4  2  0
  6  7  1  0
  6  5  1  0
  7 12  2  0
  8  7  1  0
  8  9  2  0
  9 10  1  0
 10 11  2  0
 12  4  1  0
 12 11  1  0
 13 20  1  0
 13  2  1  0
 14 13  2  0
 16 15  1  0
 16 17  1  0
 17 18  1  6
 19 17  1  0
 19 20  1  1
 21 19  1  0
 21 22  2  0
 23 24  1  0
 23 21  1  0
 24 25  1  1
 26 25  1  0
 26 27  2  0
 28 27  1  0
 29 28  1  0
 30 29  2  0
 31 30  1  0
 32 31  2  0
 32 33  1  0
 33 34  2  0
 34 29  1  0
 34 26  1  0
 35 24  1  0
 35 36  1  0
 37 35  2  0
M  END
$$$$
