WIW.pdb
     RDKit          3D

 37 40  0  0  1  0  0  0  0  0999 V2000
    7.7661  -20.5576   20.5936 N   0  0  0  0  0  0  0  0  0  0  0  0
    7.6913  -19.6504   21.7157 C   0  0  1  0  0  0  0  0  0  0  0  0
    8.3390  -20.3291   22.9009 C   0  0  0  0  0  0  0  0  0  0  0  0
    7.4732  -20.2961   24.1043 C   0  0  0  0  0  0  0  0  0  0  0  0
    6.1455  -20.6403   24.2122 C   0  0  0  0  0  0  0  0  0  0  0  0
    5.7811  -20.4529   25.4917 N   0  0  0  0  0  0  0  0  0  0  0  0
    6.8412  -19.9984   26.2021 C   0  0  0  0  0  0  0  0  0  0  0  0
    6.9860  -19.6550   27.5526 C   0  0  0  0  0  0  0  0  0  0  0  0
    8.1932  -19.2100   28.0454 C   0  0  0  0  0  0  0  0  0  0  0  0
    9.2406  -19.1207   27.1508 C   0  0  0  0  0  0  0  0  0  0  0  0
    9.1413  -19.4451   25.8297 C   0  0  0  0  0  0  0  0  0  0  0  0
    7.9073  -19.8947   25.3502 C   0  0  0  0  0  0  0  0  0  0  0  0
    8.3577  -18.3730   21.3798 C   0  0  0  0  0  0  0  0  0  0  0  0
    9.4767  -18.4369   20.7864 O   0  0  0  0  0  0  0  0  0  0  0  0
    7.4114  -12.6006   19.8618 C   0  0  0  0  0  0  0  0  0  0  0  0
    8.3125  -13.6275   20.5521 C   0  0  0  0  0  0  0  0  0  0  0  0
    7.5545  -14.8723   20.8670 C   0  0  2  0  0  0  0  0  0  0  0  0
    6.2056  -14.6021   21.4861 C   0  0  0  0  0  0  0  0  0  0  0  0
    8.3881  -15.9010   21.5091 C   0  0  2  0  0  0  0  0  0  0  0  0
    7.7145  -17.1575   21.7367 N   0  0  0  0  0  0  0  0  0  0  0  0
    9.2791  -15.4868   22.6004 C   0  0  0  0  0  0  0  0  0  0  0  0
   10.1777  -14.6163   22.4934 O   0  0  0  0  0  0  0  0  0  0  0  0
    9.1481  -16.0944   23.8792 N   0  0  0  0  0  0  0  0  0  0  0  0
   10.0638  -15.7589   24.9833 C   0  0  1  0  0  0  0  0  0  0  0  0
    9.3133  -15.7044   26.2939 C   0  0  0  0  0  0  0  0  0  0  0  0
    8.0233  -14.9910   26.1067 C   0  0  0  0  0  0  0  0  0  0  0  0
    6.7902  -15.5710   25.7864 C   0  0  0  0  0  0  0  0  0  0  0  0
    5.8760  -14.5867   25.7021 N   0  0  0  0  0  0  0  0  0  0  0  0
    6.4218  -13.3919   25.9458 C   0  0  0  0  0  0  0  0  0  0  0  0
    5.8989  -12.1201   25.9768 C   0  0  0  0  0  0  0  0  0  0  0  0
    6.7630  -11.0811   26.2721 C   0  0  0  0  0  0  0  0  0  0  0  0
    8.1083  -11.2775   26.5316 C   0  0  0  0  0  0  0  0  0  0  0  0
    8.5897  -12.5788   26.4887 C   0  0  0  0  0  0  0  0  0  0  0  0
    7.7542  -13.6339   26.1977 C   0  0  0  0  0  0  0  0  0  0  0  0
   11.2354  -16.6336   24.9921 C   0  0  0  0  0  0  0  0  0  0  0  0
   11.3924  -17.6989   24.1184 O   0  0  0  0  0  0  0  0  0  0  0  0
   12.2002  -16.4725   25.8132 O   0  0  0  0  0  0  0  0  0  0  0  0
  2  1  1  6
  2  3  1  0
  4  3  1  0
  5  4  2  0
  6  7  1  0
  6  5  1  0
  7 12  2  0
  8  7  1  0
  8  9  2  0
  9 10  1  0
 10 11  2  0
 12  4  1  0
 12 11  1  0
 13 20  1  0
 13  2  1  0
 14 13  2  0
 16 15  1  0
 16 17  1  0
 17 18  1  1
 19 17  1  0
 19 20  1  1
 21 19  1  0
 21 22  2  0
 23 24  1  0
 23 21  1  0
 24 25  1  1
 26 25  1  0
 26 27  2  0
 28 27  1  0
 29 28  1  0
 30 29  2  0
 31 30  1  0
 32 31  2  0
 32 33  1  0
 33 34  2  0
 34 29  1  0
 34 26  1  0
 35 24  1  0
 35 36  1  0
 37 35  2  0
M  END
$$$$
