WIW.pdb
     RDKit          3D

 37 40  0  0  1  0  0  0  0  0999 V2000
   10.3100  -18.3684   18.6209 N   0  0  0  0  0  0  0  0  0  0  0  0
   11.2406  -17.3110   18.9425 C   0  0  1  0  0  0  0  0  0  0  0  0
   11.6121  -16.6160   17.6525 C   0  0  0  0  0  0  0  0  0  0  0  0
   12.1706  -17.5577   16.6525 C   0  0  0  0  0  0  0  0  0  0  0  0
   11.7587  -17.7735   15.3577 C   0  0  0  0  0  0  0  0  0  0  0  0
   12.5590  -18.7146   14.8295 N   0  0  0  0  0  0  0  0  0  0  0  0
   13.4700  -19.1043   15.7533 C   0  0  0  0  0  0  0  0  0  0  0  0
   14.5108  -20.0408   15.7055 C   0  0  0  0  0  0  0  0  0  0  0  0
   15.3177  -20.2605   16.8005 C   0  0  0  0  0  0  0  0  0  0  0  0
   15.0510  -19.5192   17.9341 C   0  0  0  0  0  0  0  0  0  0  0  0
   14.0485  -18.5986   18.0215 C   0  0  0  0  0  0  0  0  0  0  0  0
   13.2416  -18.3909   16.8988 C   0  0  0  0  0  0  0  0  0  0  0  0
   10.6312  -16.3782   19.9157 C   0  0  0  0  0  0  0  0  0  0  0  0
   10.5012  -15.1675   19.5611 O   0  0  0  0  0  0  0  0  0  0  0  0
    7.6135  -13.6592   19.8105 C   0  0  0  0  0  0  0  0  0  0  0  0
    8.7919  -14.4960   20.3150 C   0  0  0  0  0  0  0  0  0  0  0  0
    8.4061  -15.2831   21.5213 C   0  0  2  0  0  0  0  0  0  0  0  0
    7.5265  -14.5117   22.4736 C   0  0  0  0  0  0  0  0  0  0  0  0
    9.5370  -16.0200   22.1073 C   0  0  2  0  0  0  0  0  0  0  0  0
   10.2293  -16.8843   21.1810 N   0  0  0  0  0  0  0  0  0  0  0  0
    9.3713  -16.5852   23.4525 C   0  0  0  0  0  0  0  0  0  0  0  0
    9.1224  -17.7927   23.6908 O   0  0  0  0  0  0  0  0  0  0  0  0
    9.4895  -15.7367   24.5872 N   0  0  0  0  0  0  0  0  0  0  0  0
   10.0317  -16.2358   25.8628 C   0  0  1  0  0  0  0  0  0  0  0  0
    9.7367  -15.2611   26.9795 C   0  0  0  0  0  0  0  0  0  0  0  0
    8.3490  -14.7469   26.8462 C   0  0  0  0  0  0  0  0  0  0  0  0
    7.1834  -15.5147   26.7394 C   0  0  0  0  0  0  0  0  0  0  0  0
    6.1384  -14.6732   26.6319 N   0  0  0  0  0  0  0  0  0  0  0  0
    6.5343  -13.3976   26.6607 C   0  0  0  0  0  0  0  0  0  0  0  0
    5.8462  -12.2089   26.5875 C   0  0  0  0  0  0  0  0  0  0  0  0
    6.5822  -11.0396   26.6521 C   0  0  0  0  0  0  0  0  0  0  0  0
    7.9599  -11.0290   26.7850 C   0  0  0  0  0  0  0  0  0  0  0  0
    8.6101  -12.2534   26.8547 C   0  0  0  0  0  0  0  0  0  0  0  0
    7.9048  -13.4344   26.7934 C   0  0  0  0  0  0  0  0  0  0  0  0
    9.6017  -17.6080   26.1273 C   0  0  0  0  0  0  0  0  0  0  0  0
    8.5093  -18.1932   25.5051 O   0  0  0  0  0  0  0  0  0  0  0  0
   10.2099  -18.3649   26.9569 O   0  0  0  0  0  0  0  0  0  0  0  0
  2  1  1  6
  2  3  1  0
  4  3  1  0
  5  4  2  0
  6  7  1  0
  6  5  1  0
  7 12  2  0
  8  7  1  0
  8  9  2  0
  9 10  1  0
 10 11  2  0
 12  4  1  0
 12 11  1  0
 13 20  1  0
 13  2  1  0
 14 13  2  0
 16 15  1  0
 16 17  1  0
 17 18  1  1
 19 17  1  0
 19 20  1  6
 21 19  1  0
 21 22  2  0
 23 24  1  0
 23 21  1  0
 24 25  1  1
 26 25  1  0
 26 27  2  0
 28 27  1  0
 29 28  1  0
 30 29  2  0
 31 30  1  0
 32 31  2  0
 32 33  1  0
 33 34  2  0
 34 29  1  0
 34 26  1  0
 35 24  1  0
 35 36  1  0
 37 35  2  0
M  END
$$$$
