WIW.pdb
     RDKit          3D

 37 40  0  0  1  0  0  0  0  0999 V2000
    6.0832  -18.8919   24.1185 N   0  0  0  0  0  0  0  0  0  0  0  0
    6.5020  -17.5094   24.1500 C   0  0  1  0  0  0  0  0  0  0  0  0
    7.0567  -17.2271   25.5275 C   0  0  0  0  0  0  0  0  0  0  0  0
    6.5297  -15.9613   26.0922 C   0  0  0  0  0  0  0  0  0  0  0  0
    5.3720  -15.7609   26.8081 C   0  0  0  0  0  0  0  0  0  0  0  0
    5.3063  -14.4544   27.1146 N   0  0  0  0  0  0  0  0  0  0  0  0
    6.3914  -13.8169   26.6132 C   0  0  0  0  0  0  0  0  0  0  0  0
    6.7927  -12.4753   26.6563 C   0  0  0  0  0  0  0  0  0  0  0  0
    7.9648  -12.0664   26.0587 C   0  0  0  0  0  0  0  0  0  0  0  0
    8.7148  -13.0350   25.4224 C   0  0  0  0  0  0  0  0  0  0  0  0
    8.3599  -14.3503   25.3579 C   0  0  0  0  0  0  0  0  0  0  0  0
    7.1668  -14.7441   25.9711 C   0  0  0  0  0  0  0  0  0  0  0  0
    7.5036  -17.2591   23.0903 C   0  0  0  0  0  0  0  0  0  0  0  0
    8.2478  -18.2281   22.7501 O   0  0  0  0  0  0  0  0  0  0  0  0
    8.1041  -12.2639   19.8402 C   0  0  0  0  0  0  0  0  0  0  0  0
    8.7153  -13.3660   20.7091 C   0  0  0  0  0  0  0  0  0  0  0  0
    8.0191  -14.6656   20.4856 C   0  0  2  0  0  0  0  0  0  0  0  0
    6.5304  -14.5134   20.2954 C   0  0  0  0  0  0  0  0  0  0  0  0
    8.4685  -15.7197   21.4088 C   0  0  2  0  0  0  0  0  0  0  0  0
    7.5762  -15.9608   22.5179 N   0  0  0  0  0  0  0  0  0  0  0  0
    9.8940  -15.7714   21.7580 C   0  0  0  0  0  0  0  0  0  0  0  0
   10.8329  -15.6804   20.9293 O   0  0  0  0  0  0  0  0  0  0  0  0
   10.2755  -15.9396   23.1173 N   0  0  0  0  0  0  0  0  0  0  0  0
   11.6919  -16.0521   23.5062 C   0  0  1  0  0  0  0  0  0  0  0  0
   12.0878  -14.8984   24.3986 C   0  0  0  0  0  0  0  0  0  0  0  0
   11.4942  -15.0789   25.7488 C   0  0  0  0  0  0  0  0  0  0  0  0
   11.8010  -16.0926   26.6643 C   0  0  0  0  0  0  0  0  0  0  0  0
   11.0452  -15.9051   27.7623 N   0  0  0  0  0  0  0  0  0  0  0  0
   10.2577  -14.8336   27.6353 C   0  0  0  0  0  0  0  0  0  0  0  0
    9.3343  -14.2541   28.4740 C   0  0  0  0  0  0  0  0  0  0  0  0
    8.6812  -13.1222   28.0206 C   0  0  0  0  0  0  0  0  0  0  0  0
    8.9227  -12.5669   26.7760 C   0  0  0  0  0  0  0  0  0  0  0  0
    9.8633  -13.1872   25.9651 C   0  0  0  0  0  0  0  0  0  0  0  0
   10.5299  -14.3151   26.3886 C   0  0  0  0  0  0  0  0  0  0  0  0
   11.9933  -17.3734   24.0549 C   0  0  0  0  0  0  0  0  0  0  0  0
   13.2838  -17.8106   24.3127 O   0  0  0  0  0  0  0  0  0  0  0  0
   11.0790  -18.2199   24.3353 O   0  0  0  0  0  0  0  0  0  0  0  0
  2  1  1  1
  2  3  1  0
  4  3  1  0
  5  4  2  0
  6  7  1  0
  6  5  1  0
  7 12  2  0
  8  7  1  0
  8  9  2  0
  9 10  1  0
 10 11  2  0
 12  4  1  0
 12 11  1  0
 13 20  1  0
 13  2  1  0
 14 13  2  0
 16 15  1  0
 16 17  1  0
 17 18  1  1
 19 17  1  0
 19 20  1  1
 21 19  1  0
 21 22  2  0
 23 24  1  0
 23 21  1  0
 24 25  1  1
 26 25  1  0
 26 27  2  0
 28 27  1  0
 29 28  1  0
 30 29  2  0
 31 30  1  0
 32 31  2  0
 32 33  1  0
 33 34  2  0
 34 29  1  0
 34 26  1  0
 35 24  1  0
 35 36  1  0
 37 35  2  0
M  END
$$$$
