WIW.pdb
     RDKit          3D

 37 40  0  0  1  0  0  0  0  0999 V2000
    6.0172  -17.8196   24.6604 N   0  0  0  0  0  0  0  0  0  0  0  0
    6.5892  -16.5133   24.4281 C   0  0  1  0  0  0  0  0  0  0  0  0
    7.0735  -15.9793   25.7568 C   0  0  0  0  0  0  0  0  0  0  0  0
    6.2422  -14.8509   26.2408 C   0  0  0  0  0  0  0  0  0  0  0  0
    5.0454  -14.8992   26.9178 C   0  0  0  0  0  0  0  0  0  0  0  0
    4.6613  -13.6333   27.1526 N   0  0  0  0  0  0  0  0  0  0  0  0
    5.5815  -12.7795   26.6432 C   0  0  0  0  0  0  0  0  0  0  0  0
    5.6518  -11.3804   26.6240 C   0  0  0  0  0  0  0  0  0  0  0  0
    6.7141  -10.7320   26.0328 C   0  0  0  0  0  0  0  0  0  0  0  0
    7.6941  -11.5223   25.4668 C   0  0  0  0  0  0  0  0  0  0  0  0
    7.6633  -12.8859   25.4642 C   0  0  0  0  0  0  0  0  0  0  0  0
    6.5766  -13.5239   26.0697 C   0  0  0  0  0  0  0  0  0  0  0  0
    7.6857  -16.6087   23.4395 C   0  0  0  0  0  0  0  0  0  0  0  0
    8.2494  -17.7362   23.3003 O   0  0  0  0  0  0  0  0  0  0  0  0
    7.1821  -13.0886   19.5595 C   0  0  0  0  0  0  0  0  0  0  0  0
    7.4012  -14.4385   20.2474 C   0  0  0  0  0  0  0  0  0  0  0  0
    8.8482  -14.6615   20.5302 C   0  0  2  0  0  0  0  0  0  0  0  0
    9.6522  -14.9667   19.2908 C   0  0  0  0  0  0  0  0  0  0  0  0
    9.0744  -15.5243   21.7005 C   0  0  2  0  0  0  0  0  0  0  0  0
    8.0435  -15.4444   22.7081 N   0  0  0  0  0  0  0  0  0  0  0  0
   10.4380  -15.6179   22.2374 C   0  0  0  0  0  0  0  0  0  0  0  0
   11.2223  -14.6451   22.3599 O   0  0  0  0  0  0  0  0  0  0  0  0
   10.9409  -16.8811   22.6532 N   0  0  0  0  0  0  0  0  0  0  0  0
   12.2927  -17.0168   23.2227 C   0  0  1  0  0  0  0  0  0  0  0  0
   12.4716  -16.0725   24.3891 C   0  0  0  0  0  0  0  0  0  0  0  0
   11.6199  -16.5088   25.5259 C   0  0  0  0  0  0  0  0  0  0  0  0
   11.1978  -17.8158   25.7962 C   0  0  0  0  0  0  0  0  0  0  0  0
   10.4410  -17.7876   26.9089 N   0  0  0  0  0  0  0  0  0  0  0  0
   10.3335  -16.5478   27.3945 C   0  0  0  0  0  0  0  0  0  0  0  0
    9.6802  -16.0317   28.4894 C   0  0  0  0  0  0  0  0  0  0  0  0
    9.7795  -14.6696   28.7092 C   0  0  0  0  0  0  0  0  0  0  0  0
   10.5000  -13.8283   27.8794 C   0  0  0  0  0  0  0  0  0  0  0  0
   11.1422  -14.3954   26.7871 C   0  0  0  0  0  0  0  0  0  0  0  0
   11.0622  -15.7480   26.5421 C   0  0  0  0  0  0  0  0  0  0  0  0
   12.6116  -18.4126   23.5190 C   0  0  0  0  0  0  0  0  0  0  0  0
   13.8809  -18.8403   23.8780 O   0  0  0  0  0  0  0  0  0  0  0  0
   11.7335  -19.3385   23.4658 O   0  0  0  0  0  0  0  0  0  0  0  0
  2  1  1  1
  2  3  1  0
  4  3  1  0
  5  4  2  0
  6  7  1  0
  6  5  1  0
  7 12  2  0
  8  7  1  0
  8  9  2  0
  9 10  1  0
 10 11  2  0
 12  4  1  0
 12 11  1  0
 13 20  1  0
 13  2  1  0
 14 13  2  0
 16 15  1  0
 16 17  1  0
 17 18  1  6
 19 17  1  0
 19 20  1  1
 21 19  1  0
 21 22  2  0
 23 24  1  0
 23 21  1  0
 24 25  1  1
 26 25  1  0
 26 27  2  0
 28 27  1  0
 29 28  1  0
 30 29  2  0
 31 30  1  0
 32 31  2  0
 32 33  1  0
 33 34  2  0
 34 29  1  0
 34 26  1  0
 35 24  1  0
 35 36  1  0
 37 35  2  0
M  END
$$$$
