WIW.pdb
     RDKit          3D

 37 40  0  0  1  0  0  0  0  0999 V2000
    8.8105  -19.7141   20.9230 N   0  0  0  0  0  0  0  0  0  0  0  0
   10.0139  -19.0738   20.4439 C   0  0  1  0  0  0  0  0  0  0  0  0
   10.0718  -19.2640   18.9454 C   0  0  0  0  0  0  0  0  0  0  0  0
   10.0244  -20.6958   18.5627 C   0  0  0  0  0  0  0  0  0  0  0  0
    9.1311  -21.3292   17.7298 C   0  0  0  0  0  0  0  0  0  0  0  0
    9.4769  -22.6264   17.6762 N   0  0  0  0  0  0  0  0  0  0  0  0
   10.5669  -22.8365   18.4527 C   0  0  0  0  0  0  0  0  0  0  0  0
   11.3088  -23.9913   18.7330 C   0  0  0  0  0  0  0  0  0  0  0  0
   12.4009  -23.9461   19.5719 C   0  0  0  0  0  0  0  0  0  0  0  0
   12.7227  -22.7189   20.1159 C   0  0  0  0  0  0  0  0  0  0  0  0
   12.0270  -21.5721   19.8686 C   0  0  0  0  0  0  0  0  0  0  0  0
   10.9224  -21.6401   19.0143 C   0  0  0  0  0  0  0  0  0  0  0  0
   10.0099  -17.6426   20.8184 C   0  0  0  0  0  0  0  0  0  0  0  0
   10.8759  -16.8941   20.2724 O   0  0  0  0  0  0  0  0  0  0  0  0
    5.8850  -14.5490   20.6019 C   0  0  0  0  0  0  0  0  0  0  0  0
    7.2507  -15.2346   20.6916 C   0  0  0  0  0  0  0  0  0  0  0  0
    7.8327  -15.0820   22.0560 C   0  0  2  0  0  0  0  0  0  0  0  0
    7.8067  -13.6582   22.5537 C   0  0  0  0  0  0  0  0  0  0  0  0
    9.0920  -15.8241   22.2253 C   0  0  2  0  0  0  0  0  0  0  0  0
    9.0464  -17.1898   21.7593 N   0  0  0  0  0  0  0  0  0  0  0  0
    9.8428  -15.6364   23.4733 C   0  0  0  0  0  0  0  0  0  0  0  0
   10.7473  -14.7810   23.6373 O   0  0  0  0  0  0  0  0  0  0  0  0
    9.5567  -16.4646   24.5930 N   0  0  0  0  0  0  0  0  0  0  0  0
   10.3135  -16.3393   25.8507 C   0  0  1  0  0  0  0  0  0  0  0  0
    9.3737  -16.3328   27.0342 C   0  0  0  0  0  0  0  0  0  0  0  0
    8.1526  -15.5532   26.7038 C   0  0  0  0  0  0  0  0  0  0  0  0
    6.9329  -16.0692   26.2502 C   0  0  0  0  0  0  0  0  0  0  0  0
    6.0881  -15.0382   26.0630 N   0  0  0  0  0  0  0  0  0  0  0  0
    6.6672  -13.8723   26.3629 C   0  0  0  0  0  0  0  0  0  0  0  0
    6.2134  -12.5742   26.3331 C   0  0  0  0  0  0  0  0  0  0  0  0
    7.0944  -11.5804   26.7200 C   0  0  0  0  0  0  0  0  0  0  0  0
    8.3902  -11.8461   27.1272 C   0  0  0  0  0  0  0  0  0  0  0  0
    8.8025  -13.1716   27.1407 C   0  0  0  0  0  0  0  0  0  0  0  0
    7.9486  -14.1829   26.7614 C   0  0  0  0  0  0  0  0  0  0  0  0
   11.3840  -17.3318   25.9329 C   0  0  0  0  0  0  0  0  0  0  0  0
   11.5902  -18.3059   24.9676 O   0  0  0  0  0  0  0  0  0  0  0  0
   12.2073  -17.3672   26.9086 O   0  0  0  0  0  0  0  0  0  0  0  0
  2  1  1  6
  2  3  1  0
  4  3  1  0
  5  4  2  0
  6  7  1  0
  6  5  1  0
  7 12  2  0
  8  7  1  0
  8  9  2  0
  9 10  1  0
 10 11  2  0
 12  4  1  0
 12 11  1  0
 13 20  1  0
 13  2  1  0
 14 13  2  0
 16 15  1  0
 16 17  1  0
 17 18  1  6
 19 17  1  0
 19 20  1  1
 21 19  1  0
 21 22  2  0
 23 24  1  0
 23 21  1  0
 24 25  1  1
 26 25  1  0
 26 27  2  0
 28 27  1  0
 29 28  1  0
 30 29  2  0
 31 30  1  0
 32 31  2  0
 32 33  1  0
 33 34  2  0
 34 29  1  0
 34 26  1  0
 35 24  1  0
 35 36  1  0
 37 35  2  0
M  END
$$$$
