WIW.pdb
     RDKit          3D

 37 40  0  0  1  0  0  0  0  0999 V2000
    7.1319  -17.6122   21.0338 N   0  0  0  0  0  0  0  0  0  0  0  0
    8.2944  -16.9296   21.5537 C   0  0  1  0  0  0  0  0  0  0  0  0
    7.8388  -15.5975   22.1040 C   0  0  0  0  0  0  0  0  0  0  0  0
    7.3351  -14.6971   21.0389 C   0  0  0  0  0  0  0  0  0  0  0  0
    6.0423  -14.2888   20.8050 C   0  0  0  0  0  0  0  0  0  0  0  0
    6.0614  -13.4756   19.7357 N   0  0  0  0  0  0  0  0  0  0  0  0
    7.3321  -13.3546   19.2820 C   0  0  0  0  0  0  0  0  0  0  0  0
    7.8805  -12.6340   18.2130 C   0  0  0  0  0  0  0  0  0  0  0  0
    9.2327  -12.6728   17.9515 C   0  0  0  0  0  0  0  0  0  0  0  0
   10.0105  -13.4492   18.7869 C   0  0  0  0  0  0  0  0  0  0  0  0
    9.5161  -14.1651   19.8373 C   0  0  0  0  0  0  0  0  0  0  0  0
    8.1413  -14.1117   20.0853 C   0  0  0  0  0  0  0  0  0  0  0  0
    8.9483  -17.7595   22.5894 C   0  0  0  0  0  0  0  0  0  0  0  0
    8.2004  -18.4767   23.3205 O   0  0  0  0  0  0  0  0  0  0  0  0
   12.8675  -21.1410   22.1203 C   0  0  0  0  0  0  0  0  0  0  0  0
   11.6891  -20.2351   22.4861 C   0  0  0  0  0  0  0  0  0  0  0  0
   12.0839  -19.2461   23.5299 C   0  0  2  0  0  0  0  0  0  0  0  0
   12.8178  -19.8722   24.6896 C   0  0  0  0  0  0  0  0  0  0  0  0
   11.0051  -18.3002   23.8566 C   0  0  2  0  0  0  0  0  0  0  0  0
   10.3633  -17.7079   22.7069 N   0  0  0  0  0  0  0  0  0  0  0  0
   11.2137  -17.3733   24.9763 C   0  0  0  0  0  0  0  0  0  0  0  0
   11.9281  -16.3421   24.9222 O   0  0  0  0  0  0  0  0  0  0  0  0
   10.5833  -17.6308   26.2244 N   0  0  0  0  0  0  0  0  0  0  0  0
   10.8089  -16.7588   27.3900 C   0  0  1  0  0  0  0  0  0  0  0  0
   10.5261  -15.3175   27.0339 C   0  0  0  0  0  0  0  0  0  0  0  0
    9.0838  -15.1501   26.7178 C   0  0  0  0  0  0  0  0  0  0  0  0
    8.1796  -16.1677   26.3915 C   0  0  0  0  0  0  0  0  0  0  0  0
    6.9779  -15.6027   26.1713 N   0  0  0  0  0  0  0  0  0  0  0  0
    7.0257  -14.2772   26.3304 C   0  0  0  0  0  0  0  0  0  0  0  0
    6.0720  -13.2925   26.2178 C   0  0  0  0  0  0  0  0  0  0  0  0
    6.4677  -11.9891   26.4584 C   0  0  0  0  0  0  0  0  0  0  0  0
    7.7657  -11.6525   26.8014 C   0  0  0  0  0  0  0  0  0  0  0  0
    8.6928  -12.6806   26.9029 C   0  0  0  0  0  0  0  0  0  0  0  0
    8.3290  -13.9880   26.6695 C   0  0  0  0  0  0  0  0  0  0  0  0
   10.0918  -17.2434   28.5684 C   0  0  0  0  0  0  0  0  0  0  0  0
   10.2840  -16.7237   29.8396 O   0  0  0  0  0  0  0  0  0  0  0  0
    9.2331  -18.1866   28.5037 O   0  0  0  0  0  0  0  0  0  0  0  0
  2  1  1  1
  2  3  1  0
  4  3  1  0
  5  4  2  0
  6  7  1  0
  6  5  1  0
  7 12  2  0
  8  7  1  0
  8  9  2  0
  9 10  1  0
 10 11  2  0
 12  4  1  0
 12 11  1  0
 13 20  1  0
 13  2  1  0
 14 13  2  0
 16 15  1  0
 16 17  1  0
 17 18  1  1
 19 17  1  0
 19 20  1  6
 21 19  1  0
 21 22  2  0
 23 24  1  0
 23 21  1  0
 24 25  1  6
 26 25  1  0
 26 27  2  0
 28 27  1  0
 29 28  1  0
 30 29  2  0
 31 30  1  0
 32 31  2  0
 32 33  1  0
 33 34  2  0
 34 29  1  0
 34 26  1  0
 35 24  1  0
 35 36  1  0
 37 35  2  0
M  END
$$$$
