WIW.pdb
     RDKit          3D

 37 40  0  0  1  0  0  0  0  0999 V2000
    6.1306  -19.6955   20.7687 N   0  0  0  0  0  0  0  0  0  0  0  0
    5.8574  -18.3336   21.1664 C   0  0  1  0  0  0  0  0  0  0  0  0
    5.2121  -18.3732   22.5328 C   0  0  0  0  0  0  0  0  0  0  0  0
    3.9247  -19.1089   22.5204 C   0  0  0  0  0  0  0  0  0  0  0  0
    3.4364  -19.9938   23.4538 C   0  0  0  0  0  0  0  0  0  0  0  0
    2.2327  -20.4104   23.0264 N   0  0  0  0  0  0  0  0  0  0  0  0
    1.9408  -19.8144   21.8454 C   0  0  0  0  0  0  0  0  0  0  0  0
    0.8278  -19.9063   20.9996 C   0  0  0  0  0  0  0  0  0  0  0  0
    0.7656  -19.1829   19.8286 C   0  0  0  0  0  0  0  0  0  0  0  0
    1.8437  -18.3725   19.5348 C   0  0  0  0  0  0  0  0  0  0  0  0
    2.9450  -18.2548   20.3307 C   0  0  0  0  0  0  0  0  0  0  0  0
    2.9878  -18.9973   21.5145 C   0  0  0  0  0  0  0  0  0  0  0  0
    7.1098  -17.5460   21.1707 C   0  0  0  0  0  0  0  0  0  0  0  0
    8.1704  -18.1342   20.7998 O   0  0  0  0  0  0  0  0  0  0  0  0
    7.0931  -12.4525   19.4097 C   0  0  0  0  0  0  0  0  0  0  0  0
    7.4906  -13.8943   19.7362 C   0  0  0  0  0  0  0  0  0  0  0  0
    8.0402  -13.9933   21.1188 C   0  0  2  0  0  0  0  0  0  0  0  0
    9.1597  -13.0167   21.3809 C   0  0  0  0  0  0  0  0  0  0  0  0
    8.2548  -15.3840   21.5491 C   0  0  2  0  0  0  0  0  0  0  0  0
    7.0563  -16.1882   21.5857 N   0  0  0  0  0  0  0  0  0  0  0  0
    9.1804  -15.6282   22.6627 C   0  0  0  0  0  0  0  0  0  0  0  0
   10.3271  -15.1255   22.7576 O   0  0  0  0  0  0  0  0  0  0  0  0
    8.7878  -16.4912   23.7222 N   0  0  0  0  0  0  0  0  0  0  0  0
    9.6404  -16.6840   24.9080 C   0  0  1  0  0  0  0  0  0  0  0  0
    8.7981  -16.7321   26.1619 C   0  0  0  0  0  0  0  0  0  0  0  0
    7.7629  -15.6671   26.1148 C   0  0  0  0  0  0  0  0  0  0  0  0
    6.4135  -15.8321   25.7808 C   0  0  0  0  0  0  0  0  0  0  0  0
    5.8164  -14.6279   25.8519 N   0  0  0  0  0  0  0  0  0  0  0  0
    6.6810  -13.6751   26.2114 C   0  0  0  0  0  0  0  0  0  0  0  0
    6.5416  -12.3218   26.4141 C   0  0  0  0  0  0  0  0  0  0  0  0
    7.6675  -11.6132   26.7931 C   0  0  0  0  0  0  0  0  0  0  0  0
    8.9033  -12.2109   26.9704 C   0  0  0  0  0  0  0  0  0  0  0  0
    8.9945  -13.5791   26.7541 C   0  0  0  0  0  0  0  0  0  0  0  0
    7.8914  -14.3115   26.3764 C   0  0  0  0  0  0  0  0  0  0  0  0
   10.5420  -17.8226   24.7400 C   0  0  0  0  0  0  0  0  0  0  0  0
   10.5109  -18.6572   23.6330 O   0  0  0  0  0  0  0  0  0  0  0  0
   11.4259  -18.1264   25.6104 O   0  0  0  0  0  0  0  0  0  0  0  0
  2  1  1  1
  2  3  1  0
  4  3  1  0
  5  4  2  0
  6  7  1  0
  6  5  1  0
  7 12  2  0
  8  7  1  0
  8  9  2  0
  9 10  1  0
 10 11  2  0
 12  4  1  0
 12 11  1  0
 13 20  1  0
 13  2  1  0
 14 13  2  0
 16 15  1  0
 16 17  1  0
 17 18  1  6
 19 17  1  0
 19 20  1  1
 21 19  1  0
 21 22  2  0
 23 24  1  0
 23 21  1  0
 24 25  1  1
 26 25  1  0
 26 27  2  0
 28 27  1  0
 29 28  1  0
 30 29  2  0
 31 30  1  0
 32 31  2  0
 32 33  1  0
 33 34  2  0
 34 29  1  0
 34 26  1  0
 35 24  1  0
 35 36  1  0
 37 35  2  0
M  END
$$$$
