RKD.pdb
     RDKit          3D

 29 28  0  0  1  0  0  0  0  0999 V2000
    8.2863  -12.3354   18.8072 N   0  0  0  0  0  0  0  0  0  0  0  0
    8.3829  -13.4074   17.8949 C   0  0  0  0  0  0  0  0  0  0  0  0
    9.4218  -13.5439   17.1312 N   0  0  0  0  0  0  0  0  0  0  0  0
    7.3407  -14.3595   17.7935 N   0  0  0  0  0  0  0  0  0  0  0  0
    7.2141  -15.3267   18.8972 C   0  0  0  0  0  0  0  0  0  0  0  0
    7.4696  -14.5794   20.1697 C   0  0  0  0  0  0  0  0  0  0  0  0
    8.4654  -15.1782   21.1008 C   0  0  0  0  0  0  0  0  0  0  0  0
    7.9445  -15.3147   22.4782 C   0  0  2  0  0  0  0  0  0  0  0  0
    7.0732  -14.2575   22.8464 N   0  0  0  0  0  0  0  0  0  0  0  0
    9.0393  -15.5259   23.4862 C   0  0  0  0  0  0  0  0  0  0  0  0
    9.5487  -14.4865   23.9764 O   0  0  0  0  0  0  0  0  0  0  0  0
    9.4463  -14.2393   16.3552 N   0  0  0  0  0  0  0  0  0  0  0  0
    9.4892  -16.8102   23.8781 C   0  0  2  0  0  0  0  0  0  0  0  0
   10.6828  -16.9719   24.7560 C   0  0  0  0  0  0  0  0  0  0  0  0
   10.4351  -18.1764   25.6349 C   0  0  0  0  0  0  0  0  0  0  0  0
   11.5816  -18.6553   26.4410 C   0  0  0  0  0  0  0  0  0  0  0  0
   11.2942  -19.9176   27.2109 C   0  0  0  0  0  0  0  0  0  0  0  0
   12.5497  -20.2710   27.9775 N   0  0  0  0  0  0  0  0  0  0  0  0
   12.5040  -19.7680   29.3275 C   0  0  0  0  0  0  0  0  0  0  0  0
   11.8817  -17.0422   23.9206 O   0  0  0  0  0  0  0  0  0  0  0  0
   11.8418  -17.8593   22.9328 N   0  0  0  0  0  0  0  0  0  0  0  0
   13.0795  -16.3252   24.0530 C   0  0  1  0  0  0  0  0  0  0  0  0
   14.1369  -16.4543   23.0491 C   0  0  0  0  0  0  0  0  0  0  0  0
   14.9259  -15.1720   22.9661 C   0  0  0  0  0  0  0  0  0  0  0  0
   16.0231  -15.3132   21.9974 O   0  0  0  0  0  0  0  0  0  0  0  0
   16.0489  -16.0875   21.0103 C   0  0  0  0  0  0  0  0  0  0  0  0
   14.9763  -17.6158   23.3959 O   0  0  0  0  0  0  0  0  0  0  0  0
   15.2316  -17.8395   24.7668 O   0  0  0  0  0  0  0  0  0  0  0  0
   17.2028  -14.5324   22.1228 O   0  0  0  0  0  0  0  0  0  0  0  0
  2  1  1  0
  2  3  2  0
  4  2  1  0
  5  4  1  0
  6  5  1  0
  7  6  1  0
  8  9  1  1
  8  7  1  0
 10  8  1  0
 10 11  2  0
 12 10  1  0
 13 12  1  0
 13 19  1  0
 13 14  1  6
 15 14  1  0
 16 15  1  0
 17 16  1  0
 18 17  1  0
 19 21  1  0
 19 20  2  0
 21 22  1  0
 22 23  1  1
 24 23  1  0
 24 28  1  0
 25 24  2  0
 26 27  1  0
 26 22  1  0
 29 26  2  0
M  END
$$$$
