RKD.pdb
     RDKit          3D

 29 28  0  0  1  0  0  0  0  0999 V2000
    9.5197  -14.2131   16.7733 N   0  0  0  0  0  0  0  0  0  0  0  0
    8.2399  -13.6221   16.7127 C   0  0  0  0  0  0  0  0  0  0  0  0
    7.5917  -13.5443   15.5925 N   0  0  0  0  0  0  0  0  0  0  0  0
    7.6357  -13.0978   17.8802 N   0  0  0  0  0  0  0  0  0  0  0  0
    8.0647  -13.6730   19.1665 C   0  0  0  0  0  0  0  0  0  0  0  0
    7.9364  -15.1605   19.0488 C   0  0  0  0  0  0  0  0  0  0  0  0
    9.1347  -15.9603   19.4249 C   0  0  0  0  0  0  0  0  0  0  0  0
    8.9316  -16.7382   20.6662 C   0  0  2  0  0  0  0  0  0  0  0  0
    7.6621  -17.3689   20.7213 N   0  0  0  0  0  0  0  0  0  0  0  0
    9.2191  -15.9312   21.9013 C   0  0  0  0  0  0  0  0  0  0  0  0
   10.2835  -15.2625   21.8904 O   0  0  0  0  0  0  0  0  0  0  0  0
    6.6496  -13.1026   15.5318 N   0  0  0  0  0  0  0  0  0  0  0  0
    8.3580  -15.9083   23.0252 C   0  0  1  0  0  0  0  0  0  0  0  0
    8.6759  -15.0769   24.2206 C   0  0  0  0  0  0  0  0  0  0  0  0
    7.3998  -14.3828   24.6384 C   0  0  0  0  0  0  0  0  0  0  0  0
    7.4768  -13.5230   25.8419 C   0  0  0  0  0  0  0  0  0  0  0  0
    6.1852  -12.8188   26.1656 C   0  0  0  0  0  0  0  0  0  0  0  0
    6.4256  -11.9900   27.4082 N   0  0  0  0  0  0  0  0  0  0  0  0
    5.2310  -11.2965   27.8203 C   0  0  0  0  0  0  0  0  0  0  0  0
    9.2898  -15.9264   25.2413 O   0  0  0  0  0  0  0  0  0  0  0  0
    8.6603  -17.0026   25.5421 N   0  0  0  0  0  0  0  0  0  0  0  0
   10.4890  -15.7227   25.9388 C   0  0  1  0  0  0  0  0  0  0  0  0
   10.9302  -16.6817   26.9528 C   0  0  0  0  0  0  0  0  0  0  0  0
   12.4270  -16.8510   26.8830 C   0  0  0  0  0  0  0  0  0  0  0  0
   12.8184  -17.3653   25.5622 O   0  0  0  0  0  0  0  0  0  0  0  0
   12.7435  -18.5569   25.1759 C   0  0  0  0  0  0  0  0  0  0  0  0
   10.4729  -16.2139   28.2742 O   0  0  0  0  0  0  0  0  0  0  0  0
   10.0876  -14.8593   28.3799 O   0  0  0  0  0  0  0  0  0  0  0  0
   13.3414  -16.4915   24.5723 O   0  0  0  0  0  0  0  0  0  0  0  0
  2  1  1  0
  2  3  2  0
  4  2  1  0
  5  4  1  0
  6  5  1  0
  7  6  1  0
  8  9  1  1
  8  7  1  0
 10  8  1  0
 10 11  2  0
 12 10  1  0
 13 12  1  0
 13 19  1  0
 13 14  1  1
 15 14  1  0
 16 15  1  0
 17 16  1  0
 18 17  1  0
 19 21  1  0
 19 20  2  0
 21 22  1  0
 22 23  1  1
 24 23  1  0
 24 28  1  0
 25 24  2  0
 26 27  1  0
 26 22  1  0
 29 26  2  0
M  END
$$$$
