RKD.pdb
     RDKit          3D

 29 28  0  0  1  0  0  0  0  0999 V2000
    7.1637  -12.8613   18.1768 N   0  0  0  0  0  0  0  0  0  0  0  0
    8.5367  -12.9244   18.4956 C   0  0  0  0  0  0  0  0  0  0  0  0
    9.0984  -12.0053   19.2172 N   0  0  0  0  0  0  0  0  0  0  0  0
    9.3329  -13.9975   18.0296 N   0  0  0  0  0  0  0  0  0  0  0  0
    8.7504  -14.8507   16.9796 C   0  0  0  0  0  0  0  0  0  0  0  0
    8.2134  -16.0752   17.6542 C   0  0  0  0  0  0  0  0  0  0  0  0
    9.2198  -17.0633   18.1319 C   0  0  0  0  0  0  0  0  0  0  0  0
    8.8563  -17.6588   19.4359 C   0  0  2  0  0  0  0  0  0  0  0  0
    7.4935  -18.0466   19.5053 N   0  0  0  0  0  0  0  0  0  0  0  0
    9.2596  -16.7904   20.5945 C   0  0  0  0  0  0  0  0  0  0  0  0
   10.4601  -16.4184   20.6161 O   0  0  0  0  0  0  0  0  0  0  0  0
   10.1225  -12.0076   19.4111 N   0  0  0  0  0  0  0  0  0  0  0  0
    8.3593  -16.3997   21.6153 C   0  0  1  0  0  0  0  0  0  0  0  0
    8.8142  -15.5662   22.7642 C   0  0  0  0  0  0  0  0  0  0  0  0
    7.5945  -14.8754   23.3298 C   0  0  0  0  0  0  0  0  0  0  0  0
    7.7942  -14.0866   24.5672 C   0  0  0  0  0  0  0  0  0  0  0  0
    6.5390  -13.4233   25.0707 C   0  0  0  0  0  0  0  0  0  0  0  0
    6.9184  -12.6128   26.2905 N   0  0  0  0  0  0  0  0  0  0  0  0
    5.7630  -12.0054   26.9019 C   0  0  0  0  0  0  0  0  0  0  0  0
    9.5472  -16.4130   23.7054 O   0  0  0  0  0  0  0  0  0  0  0  0
    9.0397  -17.5649   23.9513 N   0  0  0  0  0  0  0  0  0  0  0  0
   10.7452  -16.1336   24.3783 C   0  0  1  0  0  0  0  0  0  0  0  0
   11.4192  -17.1737   25.1571 C   0  0  0  0  0  0  0  0  0  0  0  0
   12.9071  -17.1100   24.9200 C   0  0  0  0  0  0  0  0  0  0  0  0
   13.5913  -18.1450   25.7093 O   0  0  0  0  0  0  0  0  0  0  0  0
   13.2960  -19.3638   25.7529 C   0  0  0  0  0  0  0  0  0  0  0  0
   11.0631  -17.0035   26.5778 O   0  0  0  0  0  0  0  0  0  0  0  0
   11.5089  -17.9972   27.4769 O   0  0  0  0  0  0  0  0  0  0  0  0
   14.7033  -17.8125   26.5277 O   0  0  0  0  0  0  0  0  0  0  0  0
  2  1  1  0
  2  3  2  0
  4  2  1  0
  5  4  1  0
  6  5  1  0
  7  6  1  0
  8  9  1  6
  8  7  1  0
 10  8  1  0
 10 11  2  0
 12 10  1  0
 13 12  1  0
 13 19  1  0
 13 14  1  1
 15 14  1  0
 16 15  1  0
 17 16  1  0
 18 17  1  0
 19 21  1  0
 19 20  2  0
 21 22  1  0
 22 23  1  1
 24 23  1  0
 24 28  1  0
 25 24  2  0
 26 27  1  0
 26 22  1  0
 29 26  2  0
M  END
$$$$
