RKD.pdb
     RDKit          3D

 29 28  0  0  1  0  0  0  0  0999 V2000
    8.8276  -13.4334   14.7638 N   0  0  0  0  0  0  0  0  0  0  0  0
    8.3966  -13.8623   16.0370 C   0  0  0  0  0  0  0  0  0  0  0  0
    8.6929  -13.1895   17.1049 N   0  0  0  0  0  0  0  0  0  0  0  0
    7.6294  -15.0436   16.1745 N   0  0  0  0  0  0  0  0  0  0  0  0
    7.2057  -15.4063   17.5377 C   0  0  0  0  0  0  0  0  0  0  0  0
    8.1685  -16.4382   18.0387 C   0  0  0  0  0  0  0  0  0  0  0  0
    9.0314  -16.0379   19.1844 C   0  0  0  0  0  0  0  0  0  0  0  0
    8.8015  -16.8688   20.3860 C   0  0  2  0  0  0  0  0  0  0  0  0
    7.5177  -17.4722   20.4028 N   0  0  0  0  0  0  0  0  0  0  0  0
    9.0979  -16.1282   21.6598 C   0  0  0  0  0  0  0  0  0  0  0  0
   10.2418  -15.6146   21.7484 O   0  0  0  0  0  0  0  0  0  0  0  0
    9.2658  -12.3196   17.0656 N   0  0  0  0  0  0  0  0  0  0  0  0
    8.1609  -16.0015   22.7140 C   0  0  1  0  0  0  0  0  0  0  0  0
    8.4847  -15.2193   23.9407 C   0  0  0  0  0  0  0  0  0  0  0  0
    7.2055  -14.5622   24.4061 C   0  0  0  0  0  0  0  0  0  0  0  0
    7.2929  -13.7371   25.6329 C   0  0  0  0  0  0  0  0  0  0  0  0
    6.0080  -13.0320   25.9803 C   0  0  0  0  0  0  0  0  0  0  0  0
    6.2700  -12.2083   27.2219 N   0  0  0  0  0  0  0  0  0  0  0  0
    5.9581  -10.8172   27.0090 C   0  0  0  0  0  0  0  0  0  0  0  0
    9.1242  -16.1044   24.9143 O   0  0  0  0  0  0  0  0  0  0  0  0
    8.5159  -17.2038   25.1718 N   0  0  0  0  0  0  0  0  0  0  0  0
   10.3279  -15.9127   25.6074 C   0  0  1  0  0  0  0  0  0  0  0  0
   10.8710  -16.9721   26.4590 C   0  0  0  0  0  0  0  0  0  0  0  0
   12.3781  -16.9396   26.4214 C   0  0  0  0  0  0  0  0  0  0  0  0
   12.8633  -17.4079   25.1147 O   0  0  0  0  0  0  0  0  0  0  0  0
   12.1992  -18.0392   24.2573 C   0  0  0  0  0  0  0  0  0  0  0  0
   10.3335  -16.8032   27.8216 O   0  0  0  0  0  0  0  0  0  0  0  0
   10.1344  -15.4809   28.2760 O   0  0  0  0  0  0  0  0  0  0  0  0
   14.2021  -17.1614   24.7101 O   0  0  0  0  0  0  0  0  0  0  0  0
  2  1  1  0
  2  3  2  0
  4  2  1  0
  5  4  1  0
  6  5  1  0
  7  6  1  0
  8  9  1  1
  8  7  1  0
 10  8  1  0
 10 11  2  0
 12 10  1  0
 13 12  1  0
 13 19  1  0
 13 14  1  1
 15 14  1  0
 16 15  1  0
 17 16  1  0
 18 17  1  0
 19 21  1  0
 19 20  2  0
 21 22  1  0
 22 23  1  1
 24 23  1  0
 24 28  1  0
 25 24  2  0
 26 27  1  0
 26 22  1  0
 29 26  2  0
M  END
$$$$
