RKD.pdb
     RDKit          3D

 29 28  0  0  1  0  0  0  0  0999 V2000
   12.1708  -16.6839   15.8752 N   0  0  0  0  0  0  0  0  0  0  0  0
   12.4635  -15.4594   16.5121 C   0  0  0  0  0  0  0  0  0  0  0  0
   13.6362  -15.2312   17.0158 N   0  0  0  0  0  0  0  0  0  0  0  0
   11.4763  -14.4507   16.6160 N   0  0  0  0  0  0  0  0  0  0  0  0
   10.1101  -14.8121   16.2005 C   0  0  0  0  0  0  0  0  0  0  0  0
    9.5160  -15.6316   17.3042 C   0  0  0  0  0  0  0  0  0  0  0  0
    8.2191  -15.1545   17.8588 C   0  0  0  0  0  0  0  0  0  0  0  0
    8.3867  -14.0409   18.8175 C   0  0  2  0  0  0  0  0  0  0  0  0
    8.7312  -12.8172   18.1879 N   0  0  0  0  0  0  0  0  0  0  0  0
    9.3259  -14.3870   19.9388 C   0  0  0  0  0  0  0  0  0  0  0  0
   10.4884  -13.9165   19.8527 O   0  0  0  0  0  0  0  0  0  0  0  0
   13.8863  -14.3088   17.4315 N   0  0  0  0  0  0  0  0  0  0  0  0
    8.9484  -15.1940   21.0395 C   0  0  2  0  0  0  0  0  0  0  0  0
    9.9087  -15.4919   22.1397 C   0  0  0  0  0  0  0  0  0  0  0  0
    9.1289  -16.1596   23.2492 C   0  0  0  0  0  0  0  0  0  0  0  0
    9.8986  -16.5687   24.4465 C   0  0  0  0  0  0  0  0  0  0  0  0
    9.0682  -17.2713   25.4884 C   0  0  0  0  0  0  0  0  0  0  0  0
   10.0122  -17.7379   26.5745 N   0  0  0  0  0  0  0  0  0  0  0  0
    9.3045  -18.4003   27.6414 C   0  0  0  0  0  0  0  0  0  0  0  0
   11.0229  -16.2715   21.6005 O   0  0  0  0  0  0  0  0  0  0  0  0
   11.0059  -16.4930   20.3373 N   0  0  0  0  0  0  0  0  0  0  0  0
   12.1213  -16.8107   22.2854 C   0  0  2  0  0  0  0  0  0  0  0  0
   13.4762  -16.6572   21.7533 C   0  0  0  0  0  0  0  0  0  0  0  0
   13.5353  -15.4625   20.8351 C   0  0  0  0  0  0  0  0  0  0  0  0
   14.7475  -15.5201   20.0048 O   0  0  0  0  0  0  0  0  0  0  0  0
   15.5750  -16.4623   19.9610 C   0  0  0  0  0  0  0  0  0  0  0  0
   14.4170  -16.5513   22.8837 O   0  0  0  0  0  0  0  0  0  0  0  0
   15.6487  -17.2314   22.7624 O   0  0  0  0  0  0  0  0  0  0  0  0
   15.0843  -14.4436   19.1418 O   0  0  0  0  0  0  0  0  0  0  0  0
  2  1  1  0
  2  3  2  0
  4  2  1  0
  5  4  1  0
  6  5  1  0
  7  6  1  0
  8  9  1  6
  8  7  1  0
 10  8  1  0
 10 11  2  0
 12 10  1  0
 13 12  1  0
 13 19  1  0
 13 14  1  6
 15 14  1  0
 16 15  1  0
 17 16  1  0
 18 17  1  0
 19 21  1  0
 19 20  2  0
 21 22  1  0
 22 23  1  6
 24 23  1  0
 24 28  1  0
 25 24  2  0
 26 27  1  0
 26 22  1  0
 29 26  2  0
M  END
$$$$
