RKD.pdb
     RDKit          3D

 29 28  0  0  1  0  0  0  0  0999 V2000
    6.9621  -12.0350   18.1941 N   0  0  0  0  0  0  0  0  0  0  0  0
    7.6881  -12.9956   17.4585 C   0  0  0  0  0  0  0  0  0  0  0  0
    7.3421  -13.3139   16.2502 N   0  0  0  0  0  0  0  0  0  0  0  0
    8.8139  -13.6357   18.0292 N   0  0  0  0  0  0  0  0  0  0  0  0
    8.6674  -14.1349   19.4072 C   0  0  0  0  0  0  0  0  0  0  0  0
    7.2191  -14.4597   19.6067 C   0  0  0  0  0  0  0  0  0  0  0  0
    6.8491  -15.0569   20.9195 C   0  0  0  0  0  0  0  0  0  0  0  0
    7.5390  -16.3400   21.1743 C   0  0  2  0  0  0  0  0  0  0  0  0
    6.8417  -17.4566   20.6458 N   0  0  0  0  0  0  0  0  0  0  0  0
    7.8899  -16.5235   22.6243 C   0  0  0  0  0  0  0  0  0  0  0  0
    8.4664  -15.5553   23.1814 O   0  0  0  0  0  0  0  0  0  0  0  0
    7.8716  -14.0187   15.6941 N   0  0  0  0  0  0  0  0  0  0  0  0
    7.5992  -17.7080   23.3440 C   0  0  2  0  0  0  0  0  0  0  0  0
    8.0188  -17.8666   24.7653 C   0  0  0  0  0  0  0  0  0  0  0  0
    7.0790  -18.8639   25.4033 C   0  0  0  0  0  0  0  0  0  0  0  0
    6.5590  -19.9386   24.5270 C   0  0  0  0  0  0  0  0  0  0  0  0
    5.6809  -20.9310   25.2430 C   0  0  0  0  0  0  0  0  0  0  0  0
    5.2662  -21.9755   24.2302 N   0  0  0  0  0  0  0  0  0  0  0  0
    4.5246  -23.0460   24.8482 C   0  0  0  0  0  0  0  0  0  0  0  0
    9.4360  -18.2271   24.8056 O   0  0  0  0  0  0  0  0  0  0  0  0
    9.7567  -19.3428   24.2602 N   0  0  0  0  0  0  0  0  0  0  0  0
   10.5030  -17.5071   25.3617 C   0  0  1  0  0  0  0  0  0  0  0  0
   11.8406  -18.0975   25.4314 C   0  0  0  0  0  0  0  0  0  0  0  0
   12.8743  -17.0770   25.0263 C   0  0  0  0  0  0  0  0  0  0  0  0
   12.8670  -16.8994   23.5666 O   0  0  0  0  0  0  0  0  0  0  0  0
   13.2781  -15.8945   22.9375 C   0  0  0  0  0  0  0  0  0  0  0  0
   12.0570  -18.6139   26.7954 O   0  0  0  0  0  0  0  0  0  0  0  0
   11.0602  -18.3338   27.7558 O   0  0  0  0  0  0  0  0  0  0  0  0
   12.3613  -17.9188   22.7170 O   0  0  0  0  0  0  0  0  0  0  0  0
  2  1  1  0
  2  3  2  0
  4  2  1  0
  5  4  1  0
  6  5  1  0
  7  6  1  0
  8  9  1  1
  8  7  1  0
 10  8  1  0
 10 11  2  0
 12 10  1  0
 13 12  1  0
 13 19  1  0
 13 14  1  1
 15 14  1  0
 16 15  1  0
 17 16  1  0
 18 17  1  0
 19 21  1  0
 19 20  2  0
 21 22  1  0
 22 23  1  1
 24 23  1  0
 24 28  1  0
 25 24  2  0
 26 27  1  0
 26 22  1  0
 29 26  2  0
M  END
$$$$
