RKD.pdb
     RDKit          3D

 29 28  0  0  1  0  0  0  0  0999 V2000
    7.5689  -16.5382   15.6106 N   0  0  0  0  0  0  0  0  0  0  0  0
    8.6745  -15.6654   15.6928 C   0  0  0  0  0  0  0  0  0  0  0  0
    8.7865  -14.6510   14.8931 N   0  0  0  0  0  0  0  0  0  0  0  0
    9.6901  -15.8825   16.6542 N   0  0  0  0  0  0  0  0  0  0  0  0
    9.3492  -15.5947   18.0580 C   0  0  0  0  0  0  0  0  0  0  0  0
    9.1129  -14.1194   18.1606 C   0  0  0  0  0  0  0  0  0  0  0  0
    8.8497  -13.5841   19.5249 C   0  0  0  0  0  0  0  0  0  0  0  0
    7.5960  -14.1085   20.1085 C   0  0  2  0  0  0  0  0  0  0  0  0
    6.5185  -13.1902   20.0187 N   0  0  0  0  0  0  0  0  0  0  0  0
    7.7874  -14.6249   21.5071 C   0  0  0  0  0  0  0  0  0  0  0  0
    7.8279  -13.7582   22.4166 O   0  0  0  0  0  0  0  0  0  0  0  0
    9.6215  -14.0274   14.9093 N   0  0  0  0  0  0  0  0  0  0  0  0
    7.9172  -16.0023   21.8094 C   0  0  2  0  0  0  0  0  0  0  0  0
    8.1225  -16.4657   23.2110 C   0  0  0  0  0  0  0  0  0  0  0  0
    7.2063  -17.6473   23.4330 C   0  0  0  0  0  0  0  0  0  0  0  0
    7.3055  -18.3251   24.7461 C   0  0  0  0  0  0  0  0  0  0  0  0
    6.3846  -19.5087   24.8869 C   0  0  0  0  0  0  0  0  0  0  0  0
    6.6316  -20.1091   26.2534 N   0  0  0  0  0  0  0  0  0  0  0  0
    5.7050  -21.1760   26.5374 C   0  0  0  0  0  0  0  0  0  0  0  0
    9.5460  -16.7290   23.4214 O   0  0  0  0  0  0  0  0  0  0  0  0
    9.8666  -17.2758   24.5364 N   0  0  0  0  0  0  0  0  0  0  0  0
   10.6181  -16.4658   22.5567 C   0  0  1  0  0  0  0  0  0  0  0  0
   11.9801  -16.8583   22.9221 C   0  0  0  0  0  0  0  0  0  0  0  0
   12.9429  -16.4409   21.8392 C   0  0  0  0  0  0  0  0  0  0  0  0
   12.4403  -16.8626   20.5232 O   0  0  0  0  0  0  0  0  0  0  0  0
   12.7267  -16.3447   19.4166 C   0  0  0  0  0  0  0  0  0  0  0  0
   12.3063  -16.2641   24.2315 O   0  0  0  0  0  0  0  0  0  0  0  0
   13.5830  -16.5449   24.7661 O   0  0  0  0  0  0  0  0  0  0  0  0
   11.5387  -17.9540   20.4097 O   0  0  0  0  0  0  0  0  0  0  0  0
  2  1  1  0
  2  3  2  0
  4  2  1  0
  5  4  1  0
  6  5  1  0
  7  6  1  0
  8  9  1  1
  8  7  1  0
 10  8  1  0
 10 11  2  0
 12 10  1  0
 13 12  1  0
 13 19  1  0
 13 14  1  6
 15 14  1  0
 16 15  1  0
 17 16  1  0
 18 17  1  0
 19 21  1  0
 19 20  2  0
 21 22  1  0
 22 23  1  1
 24 23  1  0
 24 28  1  0
 25 24  2  0
 26 27  1  0
 26 22  1  0
 29 26  2  0
M  END
$$$$
