RKD.pdb
     RDKit          3D

 29 28  0  0  1  0  0  0  0  0999 V2000
    9.0457  -14.7367   15.4553 N   0  0  0  0  0  0  0  0  0  0  0  0
    7.8463  -13.9989   15.5434 C   0  0  0  0  0  0  0  0  0  0  0  0
    7.2453  -13.5700   14.4775 N   0  0  0  0  0  0  0  0  0  0  0  0
    7.2731  -13.7091   16.8045 N   0  0  0  0  0  0  0  0  0  0  0  0
    8.1196  -13.9376   17.9879 C   0  0  0  0  0  0  0  0  0  0  0  0
    7.3026  -13.5779   19.1904 C   0  0  0  0  0  0  0  0  0  0  0  0
    7.9857  -13.6794   20.5096 C   0  0  0  0  0  0  0  0  0  0  0  0
    8.3993  -15.0627   20.8299 C   0  0  2  0  0  0  0  0  0  0  0  0
    7.2993  -15.9392   21.0150 N   0  0  0  0  0  0  0  0  0  0  0  0
    9.3700  -15.1194   21.9761 C   0  0  0  0  0  0  0  0  0  0  0  0
   10.3674  -14.3586   21.8951 O   0  0  0  0  0  0  0  0  0  0  0  0
    6.3863  -12.9819   14.5295 N   0  0  0  0  0  0  0  0  0  0  0  0
    9.1947  -15.9713   23.0936 C   0  0  1  0  0  0  0  0  0  0  0  0
   10.2197  -16.0442   24.1732 C   0  0  0  0  0  0  0  0  0  0  0  0
    9.6282  -16.8584   25.3010 C   0  0  0  0  0  0  0  0  0  0  0  0
   10.5731  -17.3473   26.3314 C   0  0  0  0  0  0  0  0  0  0  0  0
    9.9633  -17.4658   27.7036 C   0  0  0  0  0  0  0  0  0  0  0  0
   11.0524  -17.9439   28.6385 N   0  0  0  0  0  0  0  0  0  0  0  0
   10.5602  -18.1081   29.9833 C   0  0  0  0  0  0  0  0  0  0  0  0
   11.4660  -16.5651   23.6115 O   0  0  0  0  0  0  0  0  0  0  0  0
   11.4138  -17.7394   23.0983 N   0  0  0  0  0  0  0  0  0  0  0  0
   12.7221  -15.9447   23.5535 C   0  0  1  0  0  0  0  0  0  0  0  0
   13.8725  -16.6490   22.9849 C   0  0  0  0  0  0  0  0  0  0  0  0
   14.8341  -15.6576   22.3798 C   0  0  0  0  0  0  0  0  0  0  0  0
   14.3191  -15.1732   21.0904 O   0  0  0  0  0  0  0  0  0  0  0  0
   13.4476  -15.7311   20.3807 C   0  0  0  0  0  0  0  0  0  0  0  0
   14.4926  -17.4685   24.0421 O   0  0  0  0  0  0  0  0  0  0  0  0
   15.5657  -18.3047   23.6627 O   0  0  0  0  0  0  0  0  0  0  0  0
   14.8056  -13.9641   20.5261 O   0  0  0  0  0  0  0  0  0  0  0  0
  2  1  1  0
  2  3  2  0
  4  2  1  0
  5  4  1  0
  6  5  1  0
  7  6  1  0
  8  9  1  1
  8  7  1  0
 10  8  1  0
 10 11  2  0
 12 10  1  0
 13 12  1  0
 13 19  1  0
 13 14  1  1
 15 14  1  0
 16 15  1  0
 17 16  1  0
 18 17  1  0
 19 21  1  0
 19 20  2  0
 21 22  1  0
 22 23  1  1
 24 23  1  0
 24 28  1  0
 25 24  2  0
 26 27  1  0
 26 22  1  0
 29 26  2  0
M  END
$$$$
