RKD.pdb
     RDKit          3D

 29 28  0  0  1  0  0  0  0  0999 V2000
    8.7687  -12.2251   18.2254 N   0  0  0  0  0  0  0  0  0  0  0  0
    8.1324  -13.4323   17.8667 C   0  0  0  0  0  0  0  0  0  0  0  0
    8.0999  -13.8301   16.6331 N   0  0  0  0  0  0  0  0  0  0  0  0
    7.5119  -14.2366   18.8520 N   0  0  0  0  0  0  0  0  0  0  0  0
    7.7628  -15.6863   18.7816 C   0  0  0  0  0  0  0  0  0  0  0  0
    9.2314  -15.8688   18.5517 C   0  0  0  0  0  0  0  0  0  0  0  0
   10.0652  -16.1160   19.7603 C   0  0  0  0  0  0  0  0  0  0  0  0
    9.3044  -16.7592   20.8532 C   0  0  2  0  0  0  0  0  0  0  0  0
    7.9557  -17.0270   20.5042 N   0  0  0  0  0  0  0  0  0  0  0  0
    9.4170  -16.0067   22.1495 C   0  0  0  0  0  0  0  0  0  0  0  0
   10.5782  -15.6745   22.4978 O   0  0  0  0  0  0  0  0  0  0  0  0
    7.8111  -14.7976   16.3747 N   0  0  0  0  0  0  0  0  0  0  0  0
    8.2962  -15.6786   22.9505 C   0  0  1  0  0  0  0  0  0  0  0  0
    8.4660  -15.0307   24.2820 C   0  0  0  0  0  0  0  0  0  0  0  0
    7.2419  -14.1785   24.5271 C   0  0  0  0  0  0  0  0  0  0  0  0
    7.1920  -13.4452   25.8129 C   0  0  0  0  0  0  0  0  0  0  0  0
    5.9542  -12.6035   25.9813 C   0  0  0  0  0  0  0  0  0  0  0  0
    6.0594  -11.9151   27.3243 N   0  0  0  0  0  0  0  0  0  0  0  0
    4.9246  -11.0611   27.5709 C   0  0  0  0  0  0  0  0  0  0  0  0
    8.7203  -16.0647   25.2852 O   0  0  0  0  0  0  0  0  0  0  0  0
    8.2578  -17.2335   25.0300 N   0  0  0  0  0  0  0  0  0  0  0  0
    9.4133  -15.9499   26.4987 C   0  0  1  0  0  0  0  0  0  0  0  0
   10.0579  -17.1190   27.0990 C   0  0  0  0  0  0  0  0  0  0  0  0
   11.0266  -17.7314   26.1190 C   0  0  0  0  0  0  0  0  0  0  0  0
   11.8075  -18.7920   26.7730 O   0  0  0  0  0  0  0  0  0  0  0  0
   11.3493  -19.7388   27.4571 C   0  0  0  0  0  0  0  0  0  0  0  0
   10.7078  -16.7049   28.3561 O   0  0  0  0  0  0  0  0  0  0  0  0
   10.9804  -15.3286   28.5172 O   0  0  0  0  0  0  0  0  0  0  0  0
   13.2235  -18.8166   26.6672 O   0  0  0  0  0  0  0  0  0  0  0  0
  2  1  1  0
  2  3  2  0
  4  2  1  0
  5  4  1  0
  6  5  1  0
  7  6  1  0
  8  9  1  6
  8  7  1  0
 10  8  1  0
 10 11  2  0
 12 10  1  0
 13 12  1  0
 13 19  1  0
 13 14  1  1
 15 14  1  0
 16 15  1  0
 17 16  1  0
 18 17  1  0
 19 21  1  0
 19 20  2  0
 21 22  1  0
 22 23  1  1
 24 23  1  0
 24 28  1  0
 25 24  2  0
 26 27  1  0
 26 22  1  0
 29 26  2  0
M  END
$$$$
