RKD.pdb
     RDKit          3D

 29 28  0  0  1  0  0  0  0  0999 V2000
    8.7577  -12.9576   17.8282 N   0  0  0  0  0  0  0  0  0  0  0  0
    8.1348  -13.7529   16.8432 C   0  0  0  0  0  0  0  0  0  0  0  0
    8.3165  -13.5183   15.5810 N   0  0  0  0  0  0  0  0  0  0  0  0
    7.2928  -14.8277   17.2157 N   0  0  0  0  0  0  0  0  0  0  0  0
    7.4249  -15.3289   18.5944 C   0  0  0  0  0  0  0  0  0  0  0  0
    7.3656  -14.1399   19.5031 C   0  0  0  0  0  0  0  0  0  0  0  0
    7.5945  -14.4011   20.9511 C   0  0  0  0  0  0  0  0  0  0  0  0
    8.2420  -15.7077   21.1970 C   0  0  2  0  0  0  0  0  0  0  0  0
    7.3103  -16.7465   21.4523 N   0  0  0  0  0  0  0  0  0  0  0  0
    9.3084  -15.6288   22.2534 C   0  0  0  0  0  0  0  0  0  0  0  0
   10.1876  -14.7458   22.0877 O   0  0  0  0  0  0  0  0  0  0  0  0
    7.8398  -14.0792   14.8432 N   0  0  0  0  0  0  0  0  0  0  0  0
    9.3435  -16.4870   23.3792 C   0  0  2  0  0  0  0  0  0  0  0  0
   10.4367  -16.3882   24.3875 C   0  0  0  0  0  0  0  0  0  0  0  0
   10.0470  -17.2583   25.5604 C   0  0  0  0  0  0  0  0  0  0  0  0
   11.0666  -17.4383   26.6194 C   0  0  0  0  0  0  0  0  0  0  0  0
   10.6870  -18.4624   27.6566 C   0  0  0  0  0  0  0  0  0  0  0  0
   11.8316  -18.5480   28.6422 N   0  0  0  0  0  0  0  0  0  0  0  0
   11.5908  -19.5542   29.6459 C   0  0  0  0  0  0  0  0  0  0  0  0
   11.7066  -16.7317   23.7476 O   0  0  0  0  0  0  0  0  0  0  0  0
   11.7117  -17.7882   23.0204 N   0  0  0  0  0  0  0  0  0  0  0  0
   12.9306  -16.0515   23.8191 C   0  0  1  0  0  0  0  0  0  0  0  0
   14.0808  -16.5085   23.0375 C   0  0  0  0  0  0  0  0  0  0  0  0
   14.5018  -15.4343   22.0667 C   0  0  0  0  0  0  0  0  0  0  0  0
   15.7265  -15.8398   21.3610 O   0  0  0  0  0  0  0  0  0  0  0  0
   15.8227  -16.7468   20.4992 C   0  0  0  0  0  0  0  0  0  0  0  0
   15.1606  -16.8886   23.9667 O   0  0  0  0  0  0  0  0  0  0  0  0
   14.9130  -16.7173   25.3465 O   0  0  0  0  0  0  0  0  0  0  0  0
   16.9615  -15.1902   21.6251 O   0  0  0  0  0  0  0  0  0  0  0  0
  2  1  1  0
  2  3  2  0
  4  2  1  0
  5  4  1  0
  6  5  1  0
  7  6  1  0
  8  9  1  1
  8  7  1  0
 10  8  1  0
 10 11  2  0
 12 10  1  0
 13 12  1  0
 13 19  1  0
 13 14  1  6
 15 14  1  0
 16 15  1  0
 17 16  1  0
 18 17  1  0
 19 21  1  0
 19 20  2  0
 21 22  1  0
 22 23  1  1
 24 23  1  0
 24 28  1  0
 25 24  2  0
 26 27  1  0
 26 22  1  0
 29 26  2  0
M  END
$$$$
