RKD.pdb
     RDKit          3D

 29 28  0  0  1  0  0  0  0  0999 V2000
    8.3885  -15.6196   16.7913 N   0  0  0  0  0  0  0  0  0  0  0  0
    7.9367  -14.5336   16.0120 C   0  0  0  0  0  0  0  0  0  0  0  0
    7.4735  -14.7167   14.8149 N   0  0  0  0  0  0  0  0  0  0  0  0
    7.9824  -13.2150   16.5239 N   0  0  0  0  0  0  0  0  0  0  0  0
    8.6194  -13.0342   17.8396 C   0  0  0  0  0  0  0  0  0  0  0  0
    7.6104  -13.4242   18.8752 C   0  0  0  0  0  0  0  0  0  0  0  0
    8.1375  -13.7139   20.2373 C   0  0  0  0  0  0  0  0  0  0  0  0
    8.9766  -14.9312   20.2744 C   0  0  2  0  0  0  0  0  0  0  0  0
    8.2247  -16.1251   20.1272 N   0  0  0  0  0  0  0  0  0  0  0  0
    9.8755  -14.9707   21.4784 C   0  0  0  0  0  0  0  0  0  0  0  0
   10.5574  -13.9370   21.6945 O   0  0  0  0  0  0  0  0  0  0  0  0
    7.1871  -13.9192   14.2081 N   0  0  0  0  0  0  0  0  0  0  0  0
    9.9676  -16.0943   22.3354 C   0  0  2  0  0  0  0  0  0  0  0  0
   10.9626  -16.1361   23.4442 C   0  0  0  0  0  0  0  0  0  0  0  0
   10.4465  -17.1133   24.4754 C   0  0  0  0  0  0  0  0  0  0  0  0
   11.3291  -17.3815   25.6341 C   0  0  0  0  0  0  0  0  0  0  0  0
   10.7355  -18.3339   26.6388 C   0  0  0  0  0  0  0  0  0  0  0  0
   11.7627  -18.5300   27.7321 N   0  0  0  0  0  0  0  0  0  0  0  0
   11.2288  -19.3007   28.8270 C   0  0  0  0  0  0  0  0  0  0  0  0
   12.2799  -16.4483   22.8898 O   0  0  0  0  0  0  0  0  0  0  0  0
   12.4395  -17.6357   22.4319 N   0  0  0  0  0  0  0  0  0  0  0  0
   13.4019  -15.6137   22.7859 C   0  0  1  0  0  0  0  0  0  0  0  0
   14.6680  -16.1331   22.2665 C   0  0  0  0  0  0  0  0  0  0  0  0
   15.4700  -15.0129   21.6535 C   0  0  0  0  0  0  0  0  0  0  0  0
   14.9728  -14.7132   20.3025 O   0  0  0  0  0  0  0  0  0  0  0  0
   14.2420  -15.4510   19.5981 C   0  0  0  0  0  0  0  0  0  0  0  0
   15.3846  -16.8102   23.3629 O   0  0  0  0  0  0  0  0  0  0  0  0
   15.9623  -18.0665   23.0756 O   0  0  0  0  0  0  0  0  0  0  0  0
   15.3084  -13.4899   19.6638 O   0  0  0  0  0  0  0  0  0  0  0  0
  2  1  1  0
  2  3  2  0
  4  2  1  0
  5  4  1  0
  6  5  1  0
  7  6  1  0
  8  9  1  1
  8  7  1  0
 10  8  1  0
 10 11  2  0
 12 10  1  0
 13 12  1  0
 13 19  1  0
 13 14  1  1
 15 14  1  0
 16 15  1  0
 17 16  1  0
 18 17  1  0
 19 21  1  0
 19 20  2  0
 21 22  1  0
 22 23  1  1
 24 23  1  0
 24 28  1  0
 25 24  2  0
 26 27  1  0
 26 22  1  0
 29 26  2  0
M  END
$$$$
