RKD.pdb
     RDKit          3D

 29 28  0  0  1  0  0  0  0  0999 V2000
    6.8105  -12.4069   19.8549 N   0  0  0  0  0  0  0  0  0  0  0  0
    8.0180  -12.6215   19.1572 C   0  0  0  0  0  0  0  0  0  0  0  0
    9.1391  -12.1417   19.5977 N   0  0  0  0  0  0  0  0  0  0  0  0
    8.0290  -13.3678   17.9548 N   0  0  0  0  0  0  0  0  0  0  0  0
    9.3116  -13.9758   17.5613 C   0  0  0  0  0  0  0  0  0  0  0  0
    9.4572  -15.2438   18.3448 C   0  0  0  0  0  0  0  0  0  0  0  0
    9.6167  -15.0973   19.8180 C   0  0  0  0  0  0  0  0  0  0  0  0
    9.7742  -16.3979   20.5042 C   0  0  2  0  0  0  0  0  0  0  0  0
    8.8307  -17.3665   20.0752 N   0  0  0  0  0  0  0  0  0  0  0  0
    9.8029  -16.2564   22.0003 C   0  0  0  0  0  0  0  0  0  0  0  0
   10.5874  -15.3882   22.4594 O   0  0  0  0  0  0  0  0  0  0  0  0
   10.0423  -12.3165   19.1079 N   0  0  0  0  0  0  0  0  0  0  0  0
    9.0030  -17.0428   22.8647 C   0  0  1  0  0  0  0  0  0  0  0  0
    9.1984  -17.0025   24.3417 C   0  0  0  0  0  0  0  0  0  0  0  0
    8.2498  -18.0107   24.9487 C   0  0  0  0  0  0  0  0  0  0  0  0
    8.3599  -18.2281   26.4095 C   0  0  0  0  0  0  0  0  0  0  0  0
    7.5456  -19.3919   26.9109 C   0  0  0  0  0  0  0  0  0  0  0  0
    7.7990  -19.5090   28.3978 N   0  0  0  0  0  0  0  0  0  0  0  0
    7.1163  -20.6461   28.9624 C   0  0  0  0  0  0  0  0  0  0  0  0
   10.6144  -17.2163   24.6403 O   0  0  0  0  0  0  0  0  0  0  0  0
   11.0406  -16.7435   25.7538 N   0  0  0  0  0  0  0  0  0  0  0  0
   11.5776  -17.8801   23.8671 C   0  0  1  0  0  0  0  0  0  0  0  0
   12.9406  -18.0572   24.3706 C   0  0  0  0  0  0  0  0  0  0  0  0
   13.3221  -19.5152   24.3183 C   0  0  0  0  0  0  0  0  0  0  0  0
   13.4958  -20.0434   25.6796 O   0  0  0  0  0  0  0  0  0  0  0  0
   13.4253  -19.3871   26.7467 C   0  0  0  0  0  0  0  0  0  0  0  0
   13.8487  -17.2042   23.5821 O   0  0  0  0  0  0  0  0  0  0  0  0
   15.2209  -17.2452   23.9137 O   0  0  0  0  0  0  0  0  0  0  0  0
   13.7730  -21.4202   25.8906 O   0  0  0  0  0  0  0  0  0  0  0  0
  2  1  1  0
  2  3  2  0
  4  2  1  0
  5  4  1  0
  6  5  1  0
  7  6  1  0
  8  9  1  1
  8  7  1  0
 10  8  1  0
 10 11  2  0
 12 10  1  0
 13 12  1  0
 13 19  1  0
 13 14  1  1
 15 14  1  0
 16 15  1  0
 17 16  1  0
 18 17  1  0
 19 21  1  0
 19 20  2  0
 21 22  1  0
 22 23  1  6
 24 23  1  0
 24 28  1  0
 25 24  2  0
 26 27  1  0
 26 22  1  0
 29 26  2  0
M  END
$$$$
