RKD.pdb
     RDKit          3D

 29 28  0  0  1  0  0  0  0  0999 V2000
    8.2199  -12.3920   17.6617 N   0  0  0  0  0  0  0  0  0  0  0  0
    7.9714  -13.4679   16.7834 C   0  0  0  0  0  0  0  0  0  0  0  0
    8.3031  -13.3996   15.5318 N   0  0  0  0  0  0  0  0  0  0  0  0
    7.3497  -14.6491   17.2535 N   0  0  0  0  0  0  0  0  0  0  0  0
    6.8335  -14.6251   18.6329 C   0  0  0  0  0  0  0  0  0  0  0  0
    8.0193  -14.5773   19.5464 C   0  0  0  0  0  0  0  0  0  0  0  0
    7.7337  -14.6446   21.0063 C   0  0  0  0  0  0  0  0  0  0  0  0
    7.2915  -15.9885   21.4370 C   0  0  2  0  0  0  0  0  0  0  0  0
    5.9414  -16.0128   21.8718 N   0  0  0  0  0  0  0  0  0  0  0  0
    8.2236  -16.6030   22.4434 C   0  0  0  0  0  0  0  0  0  0  0  0
    8.4682  -15.9128   23.4651 O   0  0  0  0  0  0  0  0  0  0  0  0
    8.2029  -14.2155   14.8910 N   0  0  0  0  0  0  0  0  0  0  0  0
    8.8057  -17.8828   22.2745 C   0  0  2  0  0  0  0  0  0  0  0  0
    9.7609  -18.4315   23.2784 C   0  0  0  0  0  0  0  0  0  0  0  0
    9.5276  -19.9231   23.3532 C   0  0  0  0  0  0  0  0  0  0  0  0
    8.2758  -20.3657   24.0094 C   0  0  0  0  0  0  0  0  0  0  0  0
    8.1495  -21.8623   24.1240 C   0  0  0  0  0  0  0  0  0  0  0  0
    6.7923  -22.1531   24.7258 N   0  0  0  0  0  0  0  0  0  0  0  0
    6.5948  -23.5668   24.9261 C   0  0  0  0  0  0  0  0  0  0  0  0
   11.1188  -18.0277   22.9135 O   0  0  0  0  0  0  0  0  0  0  0  0
   11.4799  -18.2657   21.7060 N   0  0  0  0  0  0  0  0  0  0  0  0
   12.0872  -17.4043   23.7133 C   0  0  1  0  0  0  0  0  0  0  0  0
   13.4499  -17.2116   23.2146 C   0  0  0  0  0  0  0  0  0  0  0  0
   13.9814  -15.8775   23.6745 C   0  0  0  0  0  0  0  0  0  0  0  0
   15.3873  -15.7251   23.2713 O   0  0  0  0  0  0  0  0  0  0  0  0
   16.3945  -15.9555   23.9833 C   0  0  0  0  0  0  0  0  0  0  0  0
   14.2818  -18.3411   23.6689 O   0  0  0  0  0  0  0  0  0  0  0  0
   15.4053  -18.6718   22.8796 O   0  0  0  0  0  0  0  0  0  0  0  0
   15.7200  -15.2777   21.9651 O   0  0  0  0  0  0  0  0  0  0  0  0
  2  1  1  0
  2  3  2  0
  4  2  1  0
  5  4  1  0
  6  5  1  0
  7  6  1  0
  8  9  1  1
  8  7  1  0
 10  8  1  0
 10 11  2  0
 12 10  1  0
 13 12  1  0
 13 19  1  0
 13 14  1  1
 15 14  1  0
 16 15  1  0
 17 16  1  0
 18 17  1  0
 19 21  1  0
 19 20  2  0
 21 22  1  0
 22 23  1  1
 24 23  1  0
 24 28  1  0
 25 24  2  0
 26 27  1  0
 26 22  1  0
 29 26  2  0
M  END
$$$$
