LCY.pdb
     RDKit          3D

 27 27  0  0  1  0  0  0  0  0999 V2000
   16.4203  -20.4284  -16.9517 C   0  0  0  0  0  0  0  0  0  0  0  0
   17.8941  -20.4890  -16.7298 C   0  0  1  0  0  0  0  0  0  0  0  0
   18.5396  -20.9967  -18.0145 C   0  0  0  0  0  0  0  0  0  0  0  0
   18.4413  -19.1491  -16.3847 C   0  0  0  0  0  0  0  0  0  0  0  0
   19.9437  -19.0960  -16.2378 C   0  0  2  0  0  0  0  0  0  0  0  0
   20.3190  -19.7579  -15.0097 N   0  0  0  0  0  0  0  0  0  0  0  0
   20.3356  -17.6736  -16.0883 C   0  0  0  0  0  0  0  0  0  0  0  0
   20.0869  -17.1552  -14.9460 O   0  0  0  0  0  0  0  0  0  0  0  0
   20.9460  -16.8889  -17.1019 N   0  0  0  0  0  0  0  0  0  0  0  0
   21.2245  -15.5099  -16.8336 C   0  0  1  0  0  0  0  0  0  0  0  0
   22.6631  -15.1766  -17.1870 C   0  0  0  0  0  0  0  0  0  0  0  0
   23.0436  -13.4418  -16.9508 S   0  0  0  0  0  0  0  0  0  0  0  0
   20.2770  -14.5866  -17.5124 C   0  0  0  0  0  0  0  0  0  0  0  0
   19.9529  -14.6765  -18.7169 O   0  0  0  0  0  0  0  0  0  0  0  0
   13.5039   -9.2334  -18.8537 O   0  0  0  0  0  0  0  0  0  0  0  0
   14.4616  -10.1455  -18.4296 C   0  0  0  0  0  0  0  0  0  0  0  0
   15.2195  -10.8826  -19.3105 C   0  0  0  0  0  0  0  0  0  0  0  0
   16.1633  -11.7809  -18.8488 C   0  0  0  0  0  0  0  0  0  0  0  0
   16.3901  -11.9811  -17.5049 C   0  0  0  0  0  0  0  0  0  0  0  0
   17.3966  -12.9395  -17.0101 C   0  0  0  0  0  0  0  0  0  0  0  0
   18.8248  -12.5326  -17.2964 C   0  0  2  0  0  0  0  0  0  0  0  0
   19.7084  -13.5392  -16.7370 N   0  0  0  0  0  0  0  0  0  0  0  0
   19.1452  -11.1838  -16.8274 C   0  0  0  0  0  0  0  0  0  0  0  0
   19.8617  -11.0370  -15.8087 O   0  0  0  0  0  0  0  0  0  0  0  0
   15.6126  -11.2254  -16.6383 C   0  0  0  0  0  0  0  0  0  0  0  0
   14.6667  -10.3249  -17.0820 C   0  0  0  0  0  0  0  0  0  0  0  0
   18.6839  -10.0550  -17.4721 O   0  0  0  0  0  0  0  0  0  0  0  0
  2  3  1  6
  2  1  1  0
  4  2  1  0
  4  5  1  0
  5  7  1  0
  5  6  1  1
  7  8  2  0
  9 10  1  0
  9  7  1  0
 10 11  1  6
 11 12  1  0
 13 14  2  0
 13 10  1  0
 15 16  1  0
 16 26  2  0
 16 17  1  0
 17 18  2  0
 18 19  1  0
 19 20  1  0
 21 20  1  1
 21 22  1  0
 21 23  1  0
 22 13  1  0
 23 27  1  0
 24 23  2  0
 25 19  2  0
 26 25  1  0
M  END
$$$$
