LCY.pdb
     RDKit          3D

 27 27  0  0  1  0  0  0  0  0999 V2000
   20.6852  -14.0394  -21.2648 C   0  0  0  0  0  0  0  0  0  0  0  0
   21.7374  -13.9804  -20.2091 C   0  0  1  0  0  0  0  0  0  0  0  0
   23.0194  -13.4669  -20.8553 C   0  0  0  0  0  0  0  0  0  0  0  0
   21.3343  -13.0764  -19.0982 C   0  0  0  0  0  0  0  0  0  0  0  0
   22.3774  -12.8898  -18.0218 C   0  0  2  0  0  0  0  0  0  0  0  0
   22.4835  -14.1092  -17.2544 N   0  0  0  0  0  0  0  0  0  0  0  0
   21.8872  -11.8452  -17.0903 C   0  0  0  0  0  0  0  0  0  0  0  0
   20.7266  -12.0548  -16.5958 O   0  0  0  0  0  0  0  0  0  0  0  0
   22.6059  -10.6742  -16.7328 N   0  0  0  0  0  0  0  0  0  0  0  0
   22.0176   -9.7609  -15.7994 C   0  0  1  0  0  0  0  0  0  0  0  0
   22.9791   -9.4659  -14.6619 C   0  0  0  0  0  0  0  0  0  0  0  0
   22.2925   -8.3275  -13.4608 S   0  0  0  0  0  0  0  0  0  0  0  0
   21.5426   -8.5061  -16.4403 C   0  0  0  0  0  0  0  0  0  0  0  0
   22.0944   -7.9709  -17.4267 O   0  0  0  0  0  0  0  0  0  0  0  0
   14.1940   -9.8859  -16.6910 O   0  0  0  0  0  0  0  0  0  0  0  0
   15.3639   -9.1770  -16.9312 C   0  0  0  0  0  0  0  0  0  0  0  0
   15.4604   -7.8202  -16.7224 C   0  0  0  0  0  0  0  0  0  0  0  0
   16.6431   -7.1503  -16.9735 C   0  0  0  0  0  0  0  0  0  0  0  0
   17.7678   -7.7958  -17.4382 C   0  0  0  0  0  0  0  0  0  0  0  0
   19.0310   -7.0827  -17.7071 C   0  0  0  0  0  0  0  0  0  0  0  0
   19.7908   -6.6881  -16.4605 C   0  0  2  0  0  0  0  0  0  0  0  0
   20.3888   -7.8821  -15.8917 N   0  0  0  0  0  0  0  0  0  0  0  0
   18.9715   -5.9572  -15.4927 C   0  0  0  0  0  0  0  0  0  0  0  0
   18.7541   -6.4574  -14.3635 O   0  0  0  0  0  0  0  0  0  0  0  0
   17.6435   -9.1634  -17.6402 C   0  0  0  0  0  0  0  0  0  0  0  0
   16.4712   -9.8474  -17.3948 C   0  0  0  0  0  0  0  0  0  0  0  0
   18.4238   -4.7241  -15.7795 O   0  0  0  0  0  0  0  0  0  0  0  0
  2  3  1  6
  2  1  1  0
  4  2  1  0
  4  5  1  0
  5  7  1  0
  5  6  1  1
  7  8  2  0
  9 10  1  0
  9  7  1  0
 10 11  1  1
 11 12  1  0
 13 14  2  0
 13 10  1  0
 15 16  1  0
 16 26  2  0
 16 17  1  0
 17 18  2  0
 18 19  1  0
 19 20  1  0
 21 20  1  6
 21 22  1  0
 21 23  1  0
 22 13  1  0
 23 27  1  0
 24 23  2  0
 25 19  2  0
 26 25  1  0
M  END
$$$$
