LCY.pdb
     RDKit          3D

 27 27  0  0  1  0  0  0  0  0999 V2000
   29.0563  -20.8256  -18.1453 C   0  0  0  0  0  0  0  0  0  0  0  0
   28.2511  -19.8046  -17.4146 C   0  0  1  0  0  0  0  0  0  0  0  0
   27.5822  -18.9078  -18.4506 C   0  0  0  0  0  0  0  0  0  0  0  0
   27.2169  -20.4470  -16.5593 C   0  0  0  0  0  0  0  0  0  0  0  0
   26.2989  -19.4848  -15.8430 C   0  0  2  0  0  0  0  0  0  0  0  0
   27.0759  -18.6994  -14.9121 N   0  0  0  0  0  0  0  0  0  0  0  0
   25.3477  -20.2827  -15.0320 C   0  0  0  0  0  0  0  0  0  0  0  0
   24.7241  -21.2010  -15.6672 O   0  0  0  0  0  0  0  0  0  0  0  0
   25.1016  -20.0906  -13.6470 N   0  0  0  0  0  0  0  0  0  0  0  0
   24.1063  -20.8954  -13.0044 C   0  0  1  0  0  0  0  0  0  0  0  0
   24.2235  -20.7860  -11.4946 C   0  0  0  0  0  0  0  0  0  0  0  0
   25.8079  -21.3599  -10.8858 S   0  0  0  0  0  0  0  0  0  0  0  0
   22.7264  -20.5805  -13.4603 C   0  0  0  0  0  0  0  0  0  0  0  0
   22.3168  -19.4252  -13.7075 O   0  0  0  0  0  0  0  0  0  0  0  0
   17.8662  -25.0248   -9.2978 O   0  0  0  0  0  0  0  0  0  0  0  0
   18.3661  -24.5051  -10.4847 C   0  0  0  0  0  0  0  0  0  0  0  0
   19.6772  -24.6713  -10.8684 C   0  0  0  0  0  0  0  0  0  0  0  0
   20.1369  -24.1384  -12.0581 C   0  0  0  0  0  0  0  0  0  0  0  0
   19.3196  -23.4250  -12.9071 C   0  0  0  0  0  0  0  0  0  0  0  0
   19.8083  -22.8551  -14.1771 C   0  0  0  0  0  0  0  0  0  0  0  0
   20.4418  -21.4894  -14.0338 C   0  0  2  0  0  0  0  0  0  0  0  0
   21.8226  -21.6661  -13.6228 N   0  0  0  0  0  0  0  0  0  0  0  0
   19.7005  -20.6009  -13.1377 C   0  0  0  0  0  0  0  0  0  0  0  0
   18.6375  -20.0677  -13.5354 O   0  0  0  0  0  0  0  0  0  0  0  0
   18.0025  -23.2721  -12.4964 C   0  0  0  0  0  0  0  0  0  0  0  0
   17.5274  -23.7972  -11.3128 C   0  0  0  0  0  0  0  0  0  0  0  0
   20.1322  -20.3257  -11.8568 O   0  0  0  0  0  0  0  0  0  0  0  0
  2  3  1  6
  2  1  1  0
  4  2  1  0
  4  5  1  0
  5  7  1  0
  5  6  1  1
  7  8  2  0
  9 10  1  0
  9  7  1  0
 10 11  1  1
 11 12  1  0
 13 14  2  0
 13 10  1  0
 15 16  1  0
 16 26  2  0
 16 17  1  0
 17 18  2  0
 18 19  1  0
 19 20  1  0
 21 20  1  1
 21 22  1  0
 21 23  1  0
 22 13  1  0
 23 27  1  0
 24 23  2  0
 25 19  2  0
 26 25  1  0
M  END
$$$$
