LCY.pdb
     RDKit          3D

 27 27  0  0  1  0  0  0  0  0999 V2000
   32.8149  -26.6553  -19.9542 C   0  0  0  0  0  0  0  0  0  0  0  0
   31.4043  -26.9080  -19.5403 C   0  0  1  0  0  0  0  0  0  0  0  0
   30.6906  -27.5882  -20.7034 C   0  0  0  0  0  0  0  0  0  0  0  0
   31.3456  -27.7767  -18.3338 C   0  0  0  0  0  0  0  0  0  0  0  0
   29.9508  -28.1165  -17.8639 C   0  0  2  0  0  0  0  0  0  0  0  0
   29.5103  -27.1052  -16.9309 N   0  0  0  0  0  0  0  0  0  0  0  0
   30.0241  -29.3886  -17.1052 C   0  0  0  0  0  0  0  0  0  0  0  0
   30.6269  -29.3196  -15.9794 O   0  0  0  0  0  0  0  0  0  0  0  0
   29.4846  -30.6269  -17.5425 N   0  0  0  0  0  0  0  0  0  0  0  0
   29.5324  -31.7519  -16.6573 C   0  0  1  0  0  0  0  0  0  0  0  0
   28.1300  -32.2004  -16.2868 C   0  0  0  0  0  0  0  0  0  0  0  0
   28.1294  -33.6327  -15.2103 S   0  0  0  0  0  0  0  0  0  0  0  0
   30.3313  -32.8815  -17.2018 C   0  0  0  0  0  0  0  0  0  0  0  0
   30.2376  -33.3045  -18.3749 O   0  0  0  0  0  0  0  0  0  0  0  0
   36.0083  -39.7485  -16.4758 O   0  0  0  0  0  0  0  0  0  0  0  0
   35.2375  -38.6177  -16.2389 C   0  0  0  0  0  0  0  0  0  0  0  0
   34.0435  -38.6685  -15.5567 C   0  0  0  0  0  0  0  0  0  0  0  0
   33.3049  -37.5200  -15.3411 C   0  0  0  0  0  0  0  0  0  0  0  0
   33.7195  -36.2857  -15.7907 C   0  0  0  0  0  0  0  0  0  0  0  0
   32.9327  -35.0589  -15.5619 C   0  0  0  0  0  0  0  0  0  0  0  0
   31.9543  -34.7411  -16.6704 C   0  0  2  0  0  0  0  0  0  0  0  0
   31.2572  -33.5149  -16.3281 N   0  0  0  0  0  0  0  0  0  0  0  0
   31.0369  -35.8432  -16.9634 C   0  0  0  0  0  0  0  0  0  0  0  0
   31.4579  -36.8515  -17.5787 O   0  0  0  0  0  0  0  0  0  0  0  0
   34.9267  -36.2625  -16.4755 C   0  0  0  0  0  0  0  0  0  0  0  0
   35.6760  -37.3986  -16.6993 C   0  0  0  0  0  0  0  0  0  0  0  0
   29.7114  -35.8140  -16.5828 O   0  0  0  0  0  0  0  0  0  0  0  0
  2  3  1  6
  2  1  1  0
  4  2  1  0
  4  5  1  0
  5  7  1  0
  5  6  1  1
  7  8  2  0
  9 10  1  0
  9  7  1  0
 10 11  1  6
 11 12  1  0
 13 14  2  0
 13 10  1  0
 15 16  1  0
 16 26  2  0
 16 17  1  0
 17 18  2  0
 18 19  1  0
 19 20  1  0
 21 20  1  1
 21 22  1  0
 21 23  1  0
 22 13  1  0
 23 27  1  0
 24 23  2  0
 25 19  2  0
 26 25  1  0
M  END
$$$$
