LCY.pdb
     RDKit          3D

 27 27  0  0  1  0  0  0  0  0999 V2000
   18.0063  -13.7949  -16.8629 C   0  0  0  0  0  0  0  0  0  0  0  0
   19.1282  -13.5097  -17.8036 C   0  0  1  0  0  0  0  0  0  0  0  0
   18.5240  -13.0476  -19.1250 C   0  0  0  0  0  0  0  0  0  0  0  0
   20.0279  -12.4551  -17.2631 C   0  0  0  0  0  0  0  0  0  0  0  0
   21.1473  -12.0407  -18.1887 C   0  0  2  0  0  0  0  0  0  0  0  0
   22.2018  -13.0259  -18.1207 N   0  0  0  0  0  0  0  0  0  0  0  0
   21.7186  -10.7735  -17.6720 C   0  0  0  0  0  0  0  0  0  0  0  0
   22.2699  -10.8518  -16.5207 O   0  0  0  0  0  0  0  0  0  0  0  0
   21.6879   -9.5303  -18.3569 N   0  0  0  0  0  0  0  0  0  0  0  0
   22.2199   -8.3704  -17.7065 C   0  0  1  0  0  0  0  0  0  0  0  0
   22.6728   -7.3443  -18.7299 C   0  0  0  0  0  0  0  0  0  0  0  0
   22.1663   -7.7668  -20.3958 S   0  0  0  0  0  0  0  0  0  0  0  0
   21.2735   -7.7717  -16.7283 C   0  0  0  0  0  0  0  0  0  0  0  0
   20.0290   -7.8600  -16.8133 O   0  0  0  0  0  0  0  0  0  0  0  0
   18.3169   -5.0486   -8.9114 O   0  0  0  0  0  0  0  0  0  0  0  0
   19.0938   -5.4737   -9.9812 C   0  0  0  0  0  0  0  0  0  0  0  0
   19.6930   -4.5937  -10.8533 C   0  0  0  0  0  0  0  0  0  0  0  0
   20.4592   -5.0563  -11.9067 C   0  0  0  0  0  0  0  0  0  0  0  0
   20.6592   -6.4002  -12.1340 C   0  0  0  0  0  0  0  0  0  0  0  0
   21.4764   -6.8960  -13.2578 C   0  0  0  0  0  0  0  0  0  0  0  0
   21.0105   -6.4165  -14.6143 C   0  0  2  0  0  0  0  0  0  0  0  0
   21.8258   -7.0561  -15.6307 N   0  0  0  0  0  0  0  0  0  0  0  0
   21.0026   -4.9584  -14.7391 C   0  0  0  0  0  0  0  0  0  0  0  0
   22.0750   -4.3516  -14.9721 O   0  0  0  0  0  0  0  0  0  0  0  0
   20.0441   -7.2658  -11.2401 C   0  0  0  0  0  0  0  0  0  0  0  0
   19.2764   -6.8212  -10.1840 C   0  0  0  0  0  0  0  0  0  0  0  0
   19.8459   -4.2181  -14.6094 O   0  0  0  0  0  0  0  0  0  0  0  0
  2  3  1  6
  2  1  1  0
  4  2  1  0
  4  5  1  0
  5  7  1  0
  5  6  1  1
  7  8  2  0
  9 10  1  0
  9  7  1  0
 10 11  1  6
 11 12  1  0
 13 14  2  0
 13 10  1  0
 15 16  1  0
 16 26  2  0
 16 17  1  0
 17 18  2  0
 18 19  1  0
 19 20  1  0
 21 20  1  1
 21 22  1  0
 21 23  1  0
 22 13  1  0
 23 27  1  0
 24 23  2  0
 25 19  2  0
 26 25  1  0
M  END
$$$$
