LCY.pdb
     RDKit          3D

 27 27  0  0  1  0  0  0  0  0999 V2000
   20.1074  -20.6861  -25.5658 C   0  0  0  0  0  0  0  0  0  0  0  0
   21.1905  -20.6751  -24.5402 C   0  0  1  0  0  0  0  0  0  0  0  0
   21.8304  -19.2912  -24.5510 C   0  0  0  0  0  0  0  0  0  0  0  0
   20.6512  -20.9719  -23.1856 C   0  0  0  0  0  0  0  0  0  0  0  0
   21.6745  -20.9425  -22.0750 C   0  0  2  0  0  0  0  0  0  0  0  0
   22.4290  -22.1743  -22.0990 N   0  0  0  0  0  0  0  0  0  0  0  0
   20.9440  -20.9192  -20.7846 C   0  0  0  0  0  0  0  0  0  0  0  0
   20.3155  -21.9941  -20.4927 O   0  0  0  0  0  0  0  0  0  0  0  0
   20.9057  -19.8148  -19.8932 N   0  0  0  0  0  0  0  0  0  0  0  0
   20.1868  -19.9464  -18.6615 C   0  0  1  0  0  0  0  0  0  0  0  0
   20.5919  -18.8548  -17.6870 C   0  0  0  0  0  0  0  0  0  0  0  0
   20.0661  -17.2276  -18.2218 S   0  0  0  0  0  0  0  0  0  0  0  0
   18.7126  -19.9750  -18.8534 C   0  0  0  0  0  0  0  0  0  0  0  0
   18.1279  -19.5152  -19.8587 O   0  0  0  0  0  0  0  0  0  0  0  0
   10.4479  -22.1337  -19.5786 O   0  0  0  0  0  0  0  0  0  0  0  0
   11.8212  -22.0285  -19.4004 C   0  0  0  0  0  0  0  0  0  0  0  0
   12.5115  -22.8151  -18.5067 C   0  0  0  0  0  0  0  0  0  0  0  0
   13.8791  -22.6802  -18.3581 C   0  0  0  0  0  0  0  0  0  0  0  0
   14.6097  -21.7661  -19.0851 C   0  0  0  0  0  0  0  0  0  0  0  0
   16.0693  -21.6203  -18.9278 C   0  0  0  0  0  0  0  0  0  0  0  0
   16.4760  -20.6159  -17.8729 C   0  0  2  0  0  0  0  0  0  0  0  0
   17.9257  -20.5633  -17.8256 N   0  0  0  0  0  0  0  0  0  0  0  0
   15.8828  -20.8840  -16.5621 C   0  0  0  0  0  0  0  0  0  0  0  0
   16.5384  -21.5234  -15.7054 O   0  0  0  0  0  0  0  0  0  0  0  0
   13.8895  -20.9857  -19.9789 C   0  0  0  0  0  0  0  0  0  0  0  0
   12.5250  -21.1073  -20.1396 C   0  0  0  0  0  0  0  0  0  0  0  0
   14.6150  -20.4538  -16.2297 O   0  0  0  0  0  0  0  0  0  0  0  0
  2  3  1  1
  2  1  1  0
  4  2  1  0
  4  5  1  0
  5  7  1  0
  5  6  1  1
  7  8  2  0
  9 10  1  0
  9  7  1  0
 10 11  1  1
 11 12  1  0
 13 14  2  0
 13 10  1  0
 15 16  1  0
 16 26  2  0
 16 17  1  0
 17 18  2  0
 18 19  1  0
 19 20  1  0
 21 20  1  6
 21 22  1  0
 21 23  1  0
 22 13  1  0
 23 27  1  0
 24 23  2  0
 25 19  2  0
 26 25  1  0
M  END
$$$$
