LCY.pdb
     RDKit          3D

 27 27  0  0  1  0  0  0  0  0999 V2000
   24.5472  -15.3365  -17.5909 C   0  0  0  0  0  0  0  0  0  0  0  0
   25.3961  -14.1110  -17.6402 C   0  0  1  0  0  0  0  0  0  0  0  0
   25.7184  -13.8242  -19.1026 C   0  0  0  0  0  0  0  0  0  0  0  0
   24.6928  -12.9453  -17.0398 C   0  0  0  0  0  0  0  0  0  0  0  0
   25.4458  -11.6385  -17.1228 C   0  0  2  0  0  0  0  0  0  0  0  0
   26.5978  -11.7044  -16.2535 N   0  0  0  0  0  0  0  0  0  0  0  0
   24.5678  -10.5731  -16.5813 C   0  0  0  0  0  0  0  0  0  0  0  0
   23.8951  -10.8946  -15.5423 O   0  0  0  0  0  0  0  0  0  0  0  0
   24.4386   -9.2703  -17.1306 N   0  0  0  0  0  0  0  0  0  0  0  0
   23.4872   -8.3687  -16.5534 C   0  0  1  0  0  0  0  0  0  0  0  0
   23.8333   -6.9318  -16.9010 C   0  0  0  0  0  0  0  0  0  0  0  0
   25.3563   -6.3871  -16.1304 S   0  0  0  0  0  0  0  0  0  0  0  0
   22.0851   -8.6898  -16.9302 C   0  0  0  0  0  0  0  0  0  0  0  0
   21.7270   -9.0183  -18.0824 O   0  0  0  0  0  0  0  0  0  0  0  0
   13.8906  -11.7024  -16.0699 O   0  0  0  0  0  0  0  0  0  0  0  0
   15.2227  -11.3365  -15.9270 C   0  0  0  0  0  0  0  0  0  0  0  0
   16.2060  -11.7830  -16.7801 C   0  0  0  0  0  0  0  0  0  0  0  0
   17.5213  -11.3960  -16.6045 C   0  0  0  0  0  0  0  0  0  0  0  0
   17.9093  -10.5570  -15.5831 C   0  0  0  0  0  0  0  0  0  0  0  0
   19.3126  -10.1429  -15.3938 C   0  0  0  0  0  0  0  0  0  0  0  0
   19.6913   -8.8911  -16.1530 C   0  0  2  0  0  0  0  0  0  0  0  0
   21.0959   -8.6164  -15.9114 N   0  0  0  0  0  0  0  0  0  0  0  0
   18.8353   -7.7459  -15.8404 C   0  0  0  0  0  0  0  0  0  0  0  0
   17.8618   -7.4798  -16.5848 O   0  0  0  0  0  0  0  0  0  0  0  0
   16.8985  -10.1214  -14.7375 C   0  0  0  0  0  0  0  0  0  0  0  0
   15.5813  -10.4978  -14.8983 C   0  0  0  0  0  0  0  0  0  0  0  0
   19.0617   -6.9394  -14.7444 O   0  0  0  0  0  0  0  0  0  0  0  0
  2  3  1  6
  2  1  1  0
  4  2  1  0
  4  5  1  0
  5  7  1  0
  5  6  1  1
  7  8  2  0
  9 10  1  0
  9  7  1  0
 10 11  1  6
 11 12  1  0
 13 14  2  0
 13 10  1  0
 15 16  1  0
 16 26  2  0
 16 17  1  0
 17 18  2  0
 18 19  1  0
 19 20  1  0
 21 20  1  1
 21 22  1  0
 21 23  1  0
 22 13  1  0
 23 27  1  0
 24 23  2  0
 25 19  2  0
 26 25  1  0
M  END
$$$$
