LCY.pdb
     RDKit          3D

 27 27  0  0  1  0  0  0  0  0999 V2000
   25.1839  -22.2158  -20.7094 C   0  0  0  0  0  0  0  0  0  0  0  0
   25.8243  -21.0333  -20.0642 C   0  0  1  0  0  0  0  0  0  0  0  0
   25.7979  -19.8833  -21.0650 C   0  0  0  0  0  0  0  0  0  0  0  0
   25.1019  -20.6405  -18.8241 C   0  0  0  0  0  0  0  0  0  0  0  0
   25.6278  -19.3948  -18.1511 C   0  0  2  0  0  0  0  0  0  0  0  0
   26.9479  -19.6645  -17.6296 N   0  0  0  0  0  0  0  0  0  0  0  0
   24.7614  -19.1099  -16.9817 C   0  0  0  0  0  0  0  0  0  0  0  0
   24.8730  -19.9292  -16.0061 O   0  0  0  0  0  0  0  0  0  0  0  0
   23.8525  -18.0230  -16.8903 N   0  0  0  0  0  0  0  0  0  0  0  0
   23.1331  -17.8255  -15.6678 C   0  0  1  0  0  0  0  0  0  0  0  0
   22.6155  -16.4010  -15.5763 C   0  0  0  0  0  0  0  0  0  0  0  0
   23.9352  -15.2006  -15.4110 S   0  0  0  0  0  0  0  0  0  0  0  0
   22.0343  -18.8094  -15.4789 C   0  0  0  0  0  0  0  0  0  0  0  0
   21.3720  -19.3083  -16.4150 O   0  0  0  0  0  0  0  0  0  0  0  0
   25.7802  -24.1112  -13.7734 O   0  0  0  0  0  0  0  0  0  0  0  0
   24.6648  -23.3362  -13.4835 C   0  0  0  0  0  0  0  0  0  0  0  0
   24.7035  -22.2950  -12.5844 C   0  0  0  0  0  0  0  0  0  0  0  0
   23.5712  -21.5466  -12.3228 C   0  0  0  0  0  0  0  0  0  0  0  0
   22.3653  -21.8004  -12.9385 C   0  0  0  0  0  0  0  0  0  0  0  0
   21.1556  -21.0030  -12.6604 C   0  0  0  0  0  0  0  0  0  0  0  0
   20.6876  -20.1685  -13.8315 C   0  0  2  0  0  0  0  0  0  0  0  0
   21.7234  -19.2024  -14.1482 N   0  0  0  0  0  0  0  0  0  0  0  0
   19.3853  -19.5394  -13.6075 C   0  0  0  0  0  0  0  0  0  0  0  0
   18.3674  -20.2579  -13.4654 O   0  0  0  0  0  0  0  0  0  0  0  0
   22.3537  -22.8555  -13.8403 C   0  0  0  0  0  0  0  0  0  0  0  0
   23.4741  -23.6122  -14.1130 C   0  0  0  0  0  0  0  0  0  0  0  0
   19.2342  -18.1696  -13.5454 O   0  0  0  0  0  0  0  0  0  0  0  0
  2  3  1  6
  2  1  1  0
  4  2  1  0
  4  5  1  0
  5  7  1  0
  5  6  1  1
  7  8  2  0
  9 10  1  0
  9  7  1  0
 10 11  1  6
 11 12  1  0
 13 14  2  0
 13 10  1  0
 15 16  1  0
 16 26  2  0
 16 17  1  0
 17 18  2  0
 18 19  1  0
 19 20  1  0
 21 20  1  1
 21 22  1  0
 21 23  1  0
 22 13  1  0
 23 27  1  0
 24 23  2  0
 25 19  2  0
 26 25  1  0
M  END
$$$$
