LCY.pdb
     RDKit          3D

 27 27  0  0  1  0  0  0  0  0999 V2000
   17.8177  -11.4013  -20.5131 C   0  0  0  0  0  0  0  0  0  0  0  0
   18.8253  -12.3357  -19.9331 C   0  0  1  0  0  0  0  0  0  0  0  0
   19.9029  -12.5728  -20.9853 C   0  0  0  0  0  0  0  0  0  0  0  0
   19.4379  -11.7687  -18.7014 C   0  0  0  0  0  0  0  0  0  0  0  0
   20.5221  -12.6192  -18.0827 C   0  0  2  0  0  0  0  0  0  0  0  0
   19.9188  -13.7893  -17.4877 N   0  0  0  0  0  0  0  0  0  0  0  0
   21.1286  -11.8453  -16.9725 C   0  0  0  0  0  0  0  0  0  0  0  0
   20.3516  -11.6042  -15.9858 O   0  0  0  0  0  0  0  0  0  0  0  0
   22.4687  -11.3770  -16.9466 N   0  0  0  0  0  0  0  0  0  0  0  0
   22.9263  -10.6568  -15.7962 C   0  0  1  0  0  0  0  0  0  0  0  0
   24.3029  -11.1400  -15.3759 C   0  0  0  0  0  0  0  0  0  0  0  0
   24.3084  -12.8674  -14.9005 S   0  0  0  0  0  0  0  0  0  0  0  0
   22.9114   -9.1832  -15.9938 C   0  0  0  0  0  0  0  0  0  0  0  0
   23.2617   -8.6145  -17.0510 O   0  0  0  0  0  0  0  0  0  0  0  0
   20.3487   -1.0645  -16.7843 O   0  0  0  0  0  0  0  0  0  0  0  0
   20.6348   -2.4156  -16.6379 C   0  0  0  0  0  0  0  0  0  0  0  0
   21.8673   -2.9459  -16.9437 C   0  0  0  0  0  0  0  0  0  0  0  0
   22.1132   -4.2969  -16.7843 C   0  0  0  0  0  0  0  0  0  0  0  0
   21.1527   -5.1676  -16.3186 C   0  0  0  0  0  0  0  0  0  0  0  0
   21.4130   -6.6097  -16.1480 C   0  0  0  0  0  0  0  0  0  0  0  0
   22.3397   -6.9346  -14.9979 C   0  0  2  0  0  0  0  0  0  0  0  0
   22.4700   -8.3774  -14.9085 N   0  0  0  0  0  0  0  0  0  0  0  0
   21.9214   -6.3311  -13.7319 C   0  0  0  0  0  0  0  0  0  0  0  0
   21.0567   -6.9057  -13.0286 O   0  0  0  0  0  0  0  0  0  0  0  0
   19.9191   -4.6071  -16.0177 C   0  0  0  0  0  0  0  0  0  0  0  0
   19.6569   -3.2617  -16.1709 C   0  0  0  0  0  0  0  0  0  0  0  0
   22.4496   -5.1404  -13.2779 O   0  0  0  0  0  0  0  0  0  0  0  0
  2  3  1  6
  2  1  1  0
  4  2  1  0
  4  5  1  0
  5  7  1  0
  5  6  1  1
  7  8  2  0
  9 10  1  0
  9  7  1  0
 10 11  1  6
 11 12  1  0
 13 14  2  0
 13 10  1  0
 15 16  1  0
 16 26  2  0
 16 17  1  0
 17 18  2  0
 18 19  1  0
 19 20  1  0
 21 20  1  6
 21 22  1  0
 21 23  1  0
 22 13  1  0
 23 27  1  0
 24 23  2  0
 25 19  2  0
 26 25  1  0
M  END
$$$$
