LCY.pdb
     RDKit          3D

 27 27  0  0  1  0  0  0  0  0999 V2000
   31.6232  -14.9011  -17.4553 C   0  0  0  0  0  0  0  0  0  0  0  0
   30.5908  -14.3946  -18.4053 C   0  0  1  0  0  0  0  0  0  0  0  0
   29.6618  -15.5541  -18.7478 C   0  0  0  0  0  0  0  0  0  0  0  0
   29.8083  -13.2805  -17.8050 C   0  0  0  0  0  0  0  0  0  0  0  0
   28.6340  -12.8125  -18.6318 C   0  0  2  0  0  0  0  0  0  0  0  0
   29.1140  -12.3689  -19.9202 N   0  0  0  0  0  0  0  0  0  0  0  0
   28.0538  -11.6223  -17.9641 C   0  0  0  0  0  0  0  0  0  0  0  0
   27.6978  -11.7968  -16.7482 O   0  0  0  0  0  0  0  0  0  0  0  0
   27.8790  -10.3529  -18.5756 N   0  0  0  0  0  0  0  0  0  0  0  0
   27.2376   -9.3106  -17.8316 C   0  0  1  0  0  0  0  0  0  0  0  0
   27.7117   -7.9476  -18.3035 C   0  0  0  0  0  0  0  0  0  0  0  0
   29.4548   -7.6798  -17.9866 S   0  0  0  0  0  0  0  0  0  0  0  0
   25.7541   -9.4050  -17.8667 C   0  0  0  0  0  0  0  0  0  0  0  0
   25.0977   -9.7524  -18.8729 O   0  0  0  0  0  0  0  0  0  0  0  0
   17.5173  -10.8353  -15.3844 O   0  0  0  0  0  0  0  0  0  0  0  0
   18.8963  -10.6911  -15.4649 C   0  0  0  0  0  0  0  0  0  0  0  0
   19.6410  -10.1405  -14.4471 C   0  0  0  0  0  0  0  0  0  0  0  0
   21.0125  -10.0141  -14.5652 C   0  0  0  0  0  0  0  0  0  0  0  0
   21.6932  -10.4262  -15.6897 C   0  0  0  0  0  0  0  0  0  0  0  0
   23.1568  -10.2920  -15.8180 C   0  0  0  0  0  0  0  0  0  0  0  0
   23.5956   -9.0739  -16.5994 C   0  0  2  0  0  0  0  0  0  0  0  0
   25.0449   -9.0784  -16.6783 N   0  0  0  0  0  0  0  0  0  0  0  0
   23.0686   -7.8206  -16.0577 C   0  0  0  0  0  0  0  0  0  0  0  0
   23.7501   -7.1690  -15.2309 O   0  0  0  0  0  0  0  0  0  0  0  0
   20.9186  -10.9778  -16.7008 C   0  0  0  0  0  0  0  0  0  0  0  0
   19.5495  -11.1113  -16.5993 C   0  0  0  0  0  0  0  0  0  0  0  0
   21.8364   -7.3231  -16.4278 O   0  0  0  0  0  0  0  0  0  0  0  0
  2  3  1  1
  2  1  1  0
  4  2  1  0
  4  5  1  0
  5  7  1  0
  5  6  1  6
  7  8  2  0
  9 10  1  0
  9  7  1  0
 10 11  1  6
 11 12  1  0
 13 14  2  0
 13 10  1  0
 15 16  1  0
 16 26  2  0
 16 17  1  0
 17 18  2  0
 18 19  1  0
 19 20  1  0
 21 20  1  1
 21 22  1  0
 21 23  1  0
 22 13  1  0
 23 27  1  0
 24 23  2  0
 25 19  2  0
 26 25  1  0
M  END
$$$$
