LCY.pdb
     RDKit          3D

 27 27  0  0  1  0  0  0  0  0999 V2000
   18.2509  -18.9774  -13.0317 C   0  0  0  0  0  0  0  0  0  0  0  0
   17.7247  -20.2745  -13.5470 C   0  0  1  0  0  0  0  0  0  0  0  0
   18.3295  -20.5091  -14.9269 C   0  0  0  0  0  0  0  0  0  0  0  0
   18.0836  -21.3984  -12.6404 C   0  0  0  0  0  0  0  0  0  0  0  0
   19.5629  -21.6880  -12.5437 C   0  0  2  0  0  0  0  0  0  0  0  0
   19.9245  -22.6339  -13.5741 N   0  0  0  0  0  0  0  0  0  0  0  0
   19.8102  -22.3615  -11.2458 C   0  0  0  0  0  0  0  0  0  0  0  0
   19.4030  -23.5715  -11.1715 O   0  0  0  0  0  0  0  0  0  0  0  0
   20.4472  -21.7611  -10.1281 N   0  0  0  0  0  0  0  0  0  0  0  0
   20.5671  -22.5135   -8.9153 C   0  0  1  0  0  0  0  0  0  0  0  0
   21.5682  -21.8613   -7.9784 C   0  0  0  0  0  0  0  0  0  0  0  0
   21.6088  -20.0783   -8.1508 S   0  0  0  0  0  0  0  0  0  0  0  0
   19.2608  -22.7306   -8.2388 C   0  0  0  0  0  0  0  0  0  0  0  0
   18.2928  -21.9426   -8.3154 O   0  0  0  0  0  0  0  0  0  0  0  0
   14.1473  -21.9440  -11.4506 O   0  0  0  0  0  0  0  0  0  0  0  0
   14.8264  -22.6882  -10.4945 C   0  0  0  0  0  0  0  0  0  0  0  0
   14.5119  -22.6321   -9.1559 C   0  0  0  0  0  0  0  0  0  0  0  0
   15.2117  -23.3887   -8.2347 C   0  0  0  0  0  0  0  0  0  0  0  0
   16.2433  -24.2240   -8.6032 C   0  0  0  0  0  0  0  0  0  0  0  0
   16.9916  -25.0320   -7.6216 C   0  0  0  0  0  0  0  0  0  0  0  0
   17.8990  -24.2216   -6.7233 C   0  0  2  0  0  0  0  0  0  0  0  0
   19.1111  -23.9097   -7.4584 N   0  0  0  0  0  0  0  0  0  0  0  0
   18.1738  -24.8733   -5.4420 C   0  0  0  0  0  0  0  0  0  0  0  0
   19.3230  -25.3174   -5.2077 O   0  0  0  0  0  0  0  0  0  0  0  0
   16.5399  -24.2618   -9.9586 C   0  0  0  0  0  0  0  0  0  0  0  0
   15.8518  -23.5137  -10.8910 C   0  0  0  0  0  0  0  0  0  0  0  0
   17.2049  -25.0181   -4.4709 O   0  0  0  0  0  0  0  0  0  0  0  0
  2  3  1  6
  2  1  1  0
  4  2  1  0
  4  5  1  0
  5  7  1  0
  5  6  1  6
  7  8  2  0
  9 10  1  0
  9  7  1  0
 10 11  1  1
 11 12  1  0
 13 14  2  0
 13 10  1  0
 15 16  1  0
 16 26  2  0
 16 17  1  0
 17 18  2  0
 18 19  1  0
 19 20  1  0
 21 20  1  6
 21 22  1  0
 21 23  1  0
 22 13  1  0
 23 27  1  0
 24 23  2  0
 25 19  2  0
 26 25  1  0
M  END
$$$$
