VED.pdb
     RDKit          3D

 25 24  0  0  1  0  0  0  0  0999 V2000
   23.3204  -13.3902  -20.0685 C   0  0  0  0  0  0  0  0  0  0  0  0
   22.2705  -12.3817  -19.6925 C   0  0  1  0  0  0  0  0  0  0  0  0
   20.9858  -13.0691  -19.3705 C   0  0  0  0  0  0  0  0  0  0  0  0
   22.7511  -11.5102  -18.5229 C   0  0  2  0  0  0  0  0  0  0  0  0
   23.0526  -12.4496  -17.4576 N   0  0  0  0  0  0  0  0  0  0  0  0
   21.6264  -10.6114  -18.1594 C   0  0  0  0  0  0  0  0  0  0  0  0
   21.2209   -9.7419  -18.9724 O   0  0  0  0  0  0  0  0  0  0  0  0
   20.9457  -10.6642  -16.9070 N   0  0  0  0  0  0  0  0  0  0  0  0
   19.9170   -9.7078  -16.5517 C   0  0  1  0  0  0  0  0  0  0  0  0
   18.7609  -10.5333  -15.9967 C   0  0  0  0  0  0  0  0  0  0  0  0
   17.9521  -11.1919  -17.0947 C   0  0  0  0  0  0  0  0  0  0  0  0
   16.8415  -11.9356  -16.4897 C   0  0  0  0  0  0  0  0  0  0  0  0
   16.2688  -12.8525  -17.1272 O   0  0  0  0  0  0  0  0  0  0  0  0
   20.3934   -8.7238  -15.5580 C   0  0  0  0  0  0  0  0  0  0  0  0
   21.3514   -8.9486  -14.7748 O   0  0  0  0  0  0  0  0  0  0  0  0
   16.3887  -11.6541  -15.2023 O   0  0  0  0  0  0  0  0  0  0  0  0
   19.7536   -7.4777  -15.4780 N   0  0  0  0  0  0  0  0  0  0  0  0
   20.2866   -6.4344  -14.5749 C   0  0  1  0  0  0  0  0  0  0  0  0
   21.6794   -6.0871  -14.9767 C   0  0  0  0  0  0  0  0  0  0  0  0
   22.2919   -4.9452  -14.3087 C   0  0  0  0  0  0  0  0  0  0  0  0
   21.7653   -4.3287  -13.3777 O   0  0  0  0  0  0  0  0  0  0  0  0
   19.3661   -5.2731  -14.6106 C   0  0  0  0  0  0  0  0  0  0  0  0
   18.5290   -5.1051  -15.5528 O   0  0  0  0  0  0  0  0  0  0  0  0
   23.5490   -4.4969  -14.7234 O   0  0  0  0  0  0  0  0  0  0  0  0
   19.3862   -4.3346  -13.6202 O   0  0  0  0  0  0  0  0  0  0  0  0
  2  4  1  0
  2  3  1  1
  2  1  1  0
  4  5  1  1
  6  7  2  0
  6  4  1  0
  8  6  1  0
  9  8  1  0
  9 10  1  1
 11 10  1  0
 12 11  1  0
 13 12  2  0
 14  9  1  0
 15 14  2  0
 16 12  1  0
 17 14  1  0
 18 17  1  0
 18 22  1  0
 19 20  1  0
 18 19  1  6
 20 24  1  0
 20 21  2  0
 22 25  1  0
 23 22  2  0
M  END
$$$$
