VED.pdb
     RDKit          3D

 25 24  0  0  1  0  0  0  0  0999 V2000
   17.5512  -14.5064  -17.2121 C   0  0  0  0  0  0  0  0  0  0  0  0
   17.4886  -13.0106  -17.3515 C   0  0  1  0  0  0  0  0  0  0  0  0
   16.0713  -12.5633  -17.4855 C   0  0  0  0  0  0  0  0  0  0  0  0
   18.1848  -12.3267  -16.1657 C   0  0  2  0  0  0  0  0  0  0  0  0
   17.5290  -12.8652  -14.9875 N   0  0  0  0  0  0  0  0  0  0  0  0
   17.9491  -10.8673  -16.3057 C   0  0  0  0  0  0  0  0  0  0  0  0
   18.4551  -10.2322  -17.2660 O   0  0  0  0  0  0  0  0  0  0  0  0
   17.1600  -10.1034  -15.3956 N   0  0  0  0  0  0  0  0  0  0  0  0
   17.0552   -8.6617  -15.4938 C   0  0  1  0  0  0  0  0  0  0  0  0
   15.6823   -8.3091  -14.9307 C   0  0  0  0  0  0  0  0  0  0  0  0
   14.5745   -8.5554  -15.9335 C   0  0  0  0  0  0  0  0  0  0  0  0
   13.2802   -8.3267  -15.2817 C   0  0  0  0  0  0  0  0  0  0  0  0
   12.7066   -7.2148  -15.3804 O   0  0  0  0  0  0  0  0  0  0  0  0
   18.1290   -7.9751  -14.7467 C   0  0  0  0  0  0  0  0  0  0  0  0
   18.7929   -8.5302  -13.8341 O   0  0  0  0  0  0  0  0  0  0  0  0
   12.6497   -9.3231  -14.5391 O   0  0  0  0  0  0  0  0  0  0  0  0
   18.4293   -6.6418  -15.0641 N   0  0  0  0  0  0  0  0  0  0  0  0
   19.6061   -5.9875  -14.4516 C   0  0  1  0  0  0  0  0  0  0  0  0
   20.8439   -6.7283  -14.8271 C   0  0  0  0  0  0  0  0  0  0  0  0
   22.1152   -6.0934  -14.5020 C   0  0  0  0  0  0  0  0  0  0  0  0
   22.2153   -5.0348  -13.8748 O   0  0  0  0  0  0  0  0  0  0  0  0
   19.6263   -4.5690  -14.8812 C   0  0  0  0  0  0  0  0  0  0  0  0
   20.2892   -3.6839  -14.2536 O   0  0  0  0  0  0  0  0  0  0  0  0
   23.3096   -6.6932  -14.9106 O   0  0  0  0  0  0  0  0  0  0  0  0
   18.9261   -4.1612  -15.9791 O   0  0  0  0  0  0  0  0  0  0  0  0
  2  4  1  0
  2  3  1  1
  2  1  1  0
  4  5  1  1
  6  7  2  0
  6  4  1  0
  8  6  1  0
  9  8  1  0
  9 10  1  1
 11 10  1  0
 12 11  1  0
 13 12  2  0
 14  9  1  0
 15 14  2  0
 16 12  1  0
 17 14  1  0
 18 17  1  0
 18 22  1  0
 19 20  1  0
 18 19  1  6
 20 24  1  0
 20 21  2  0
 22 25  1  0
 23 22  2  0
M  END
$$$$
