VED.pdb
     RDKit          3D

 25 24  0  0  1  0  0  0  0  0999 V2000
   16.4478  -13.4499  -14.1260 C   0  0  0  0  0  0  0  0  0  0  0  0
   15.9578  -12.9566  -15.4591 C   0  0  1  0  0  0  0  0  0  0  0  0
   14.5857  -13.4770  -15.7299 C   0  0  0  0  0  0  0  0  0  0  0  0
   15.9994  -11.4225  -15.5173 C   0  0  2  0  0  0  0  0  0  0  0  0
   15.3826  -11.0808  -16.7865 N   0  0  0  0  0  0  0  0  0  0  0  0
   17.4294  -11.0244  -15.4778 C   0  0  0  0  0  0  0  0  0  0  0  0
   18.1227  -11.2502  -14.4531 O   0  0  0  0  0  0  0  0  0  0  0  0
   18.1005  -10.3800  -16.5590 N   0  0  0  0  0  0  0  0  0  0  0  0
   19.4673   -9.9130  -16.4448 C   0  0  1  0  0  0  0  0  0  0  0  0
   20.0737  -10.0698  -17.8355 C   0  0  0  0  0  0  0  0  0  0  0  0
   20.5479  -11.4846  -18.0942 C   0  0  0  0  0  0  0  0  0  0  0  0
   21.0310  -11.5814  -19.4762 C   0  0  0  0  0  0  0  0  0  0  0  0
   22.0945  -12.1950  -19.7360 O   0  0  0  0  0  0  0  0  0  0  0  0
   19.5378   -8.5095  -15.9887 C   0  0  0  0  0  0  0  0  0  0  0  0
   18.6269   -7.6704  -16.2075 O   0  0  0  0  0  0  0  0  0  0  0  0
   20.3352  -11.0030  -20.5359 O   0  0  0  0  0  0  0  0  0  0  0  0
   20.6699   -8.0847  -15.2770 N   0  0  0  0  0  0  0  0  0  0  0  0
   20.8167   -6.6585  -14.9128 C   0  0  1  0  0  0  0  0  0  0  0  0
   21.6188   -6.5402  -13.6620 C   0  0  0  0  0  0  0  0  0  0  0  0
   21.9818   -5.1937  -13.2376 C   0  0  0  0  0  0  0  0  0  0  0  0
   21.2840   -4.1959  -13.4424 O   0  0  0  0  0  0  0  0  0  0  0  0
   21.4244   -5.9449  -16.0612 C   0  0  0  0  0  0  0  0  0  0  0  0
   21.0829   -4.7614  -16.3766 O   0  0  0  0  0  0  0  0  0  0  0  0
   23.1845   -4.9862  -12.5567 O   0  0  0  0  0  0  0  0  0  0  0  0
   22.3834   -6.5417  -16.8267 O   0  0  0  0  0  0  0  0  0  0  0  0
  2  4  1  0
  2  3  1  1
  2  1  1  0
  4  5  1  6
  6  7  2  0
  6  4  1  0
  8  6  1  0
  9  8  1  0
  9 10  1  6
 11 10  1  0
 12 11  1  0
 13 12  2  0
 14  9  1  0
 15 14  2  0
 16 12  1  0
 17 14  1  0
 18 17  1  0
 18 22  1  0
 19 20  1  0
 18 19  1  1
 20 24  1  0
 20 21  2  0
 22 25  1  0
 23 22  2  0
M  END
$$$$
