VED.pdb
     RDKit          3D

 25 24  0  0  1  0  0  0  0  0999 V2000
   22.3886  -11.9337  -20.1682 C   0  0  0  0  0  0  0  0  0  0  0  0
   21.8125  -12.5182  -18.9083 C   0  0  1  0  0  0  0  0  0  0  0  0
   21.9742  -14.0016  -18.9062 C   0  0  0  0  0  0  0  0  0  0  0  0
   22.4592  -11.8798  -17.6703 C   0  0  2  0  0  0  0  0  0  0  0  0
   22.1572  -12.7906  -16.5806 N   0  0  0  0  0  0  0  0  0  0  0  0
   21.8126  -10.5574  -17.4750 C   0  0  0  0  0  0  0  0  0  0  0  0
   22.0017   -9.6302  -18.3032 O   0  0  0  0  0  0  0  0  0  0  0  0
   20.9594  -10.2499  -16.3740 N   0  0  0  0  0  0  0  0  0  0  0  0
   20.3459   -8.9465  -16.2192 C   0  0  1  0  0  0  0  0  0  0  0  0
   19.0337   -9.1938  -15.4821 C   0  0  0  0  0  0  0  0  0  0  0  0
   18.7982  -10.6659  -15.2159 C   0  0  0  0  0  0  0  0  0  0  0  0
   17.5517  -10.8211  -14.4578 C   0  0  0  0  0  0  0  0  0  0  0  0
   16.8101   -9.8313  -14.2449 O   0  0  0  0  0  0  0  0  0  0  0  0
   21.2098   -8.0121  -15.4688 C   0  0  0  0  0  0  0  0  0  0  0  0
   22.0657   -8.3927  -14.6297 O   0  0  0  0  0  0  0  0  0  0  0  0
   17.1520  -12.0571  -13.9535 O   0  0  0  0  0  0  0  0  0  0  0  0
   21.0763   -6.6342  -15.6972 N   0  0  0  0  0  0  0  0  0  0  0  0
   21.8919   -5.6775  -14.9178 C   0  0  1  0  0  0  0  0  0  0  0  0
   21.8991   -4.3522  -15.6001 C   0  0  0  0  0  0  0  0  0  0  0  0
   22.5872   -3.2637  -14.9169 C   0  0  0  0  0  0  0  0  0  0  0  0
   22.4804   -2.0754  -15.2341 O   0  0  0  0  0  0  0  0  0  0  0  0
   21.3491   -5.6174  -13.5398 C   0  0  0  0  0  0  0  0  0  0  0  0
   20.1153   -5.4142  -13.3095 O   0  0  0  0  0  0  0  0  0  0  0  0
   23.4248   -3.5491  -13.8351 O   0  0  0  0  0  0  0  0  0  0  0  0
   22.1659   -5.7814  -12.4591 O   0  0  0  0  0  0  0  0  0  0  0  0
  2  4  1  0
  2  3  1  6
  2  1  1  0
  4  5  1  1
  6  7  2  0
  6  4  1  0
  8  6  1  0
  9  8  1  0
  9 10  1  1
 11 10  1  0
 12 11  1  0
 13 12  2  0
 14  9  1  0
 15 14  2  0
 16 12  1  0
 17 14  1  0
 18 17  1  0
 18 22  1  0
 19 20  1  0
 18 19  1  6
 20 24  1  0
 20 21  2  0
 22 25  1  0
 23 22  2  0
M  END
$$$$
