VED.pdb
     RDKit          3D

 25 24  0  0  1  0  0  0  0  0999 V2000
   23.7337  -13.7795  -21.2369 C   0  0  0  0  0  0  0  0  0  0  0  0
   22.8219  -12.7511  -20.6272 C   0  0  1  0  0  0  0  0  0  0  0  0
   21.5164  -13.3723  -20.2581 C   0  0  0  0  0  0  0  0  0  0  0  0
   23.4906  -12.0848  -19.4159 C   0  0  2  0  0  0  0  0  0  0  0  0
   23.8069  -13.1794  -18.5160 N   0  0  0  0  0  0  0  0  0  0  0  0
   22.4929  -11.1584  -18.8233 C   0  0  0  0  0  0  0  0  0  0  0  0
   22.1378  -10.1253  -19.4463 O   0  0  0  0  0  0  0  0  0  0  0  0
   21.8838  -11.3626  -17.5497 N   0  0  0  0  0  0  0  0  0  0  0  0
   20.9392  -10.4170  -16.9903 C   0  0  1  0  0  0  0  0  0  0  0  0
   20.1037  -11.2112  -15.9916 C   0  0  0  0  0  0  0  0  0  0  0  0
   18.6604  -11.3408  -16.4317 C   0  0  0  0  0  0  0  0  0  0  0  0
   17.8986  -12.0204  -15.3780 C   0  0  0  0  0  0  0  0  0  0  0  0
   17.0295  -11.3983  -14.7204 O   0  0  0  0  0  0  0  0  0  0  0  0
   21.6156   -9.2800  -16.3328 C   0  0  0  0  0  0  0  0  0  0  0  0
   22.8050   -9.3306  -15.9273 O   0  0  0  0  0  0  0  0  0  0  0  0
   18.1104  -13.3637  -15.0737 O   0  0  0  0  0  0  0  0  0  0  0  0
   20.9057   -8.0839  -16.1487 N   0  0  0  0  0  0  0  0  0  0  0  0
   21.5772   -6.9176  -15.5347 C   0  0  1  0  0  0  0  0  0  0  0  0
   21.8885   -5.9074  -16.5857 C   0  0  0  0  0  0  0  0  0  0  0  0
   22.4884   -4.6561  -16.1390 C   0  0  0  0  0  0  0  0  0  0  0  0
   22.8072   -4.4249  -14.9689 O   0  0  0  0  0  0  0  0  0  0  0  0
   20.7019   -6.3877  -14.4621 C   0  0  0  0  0  0  0  0  0  0  0  0
   21.0496   -5.4072  -13.7311 O   0  0  0  0  0  0  0  0  0  0  0  0
   22.7295   -3.6379  -17.0654 O   0  0  0  0  0  0  0  0  0  0  0  0
   19.4781   -6.9412  -14.2215 O   0  0  0  0  0  0  0  0  0  0  0  0
  2  4  1  0
  2  3  1  1
  2  1  1  0
  4  5  1  1
  6  7  2  0
  6  4  1  0
  8  6  1  0
  9  8  1  0
  9 10  1  1
 11 10  1  0
 12 11  1  0
 13 12  2  0
 14  9  1  0
 15 14  2  0
 16 12  1  0
 17 14  1  0
 18 17  1  0
 18 22  1  0
 19 20  1  0
 18 19  1  6
 20 24  1  0
 20 21  2  0
 22 25  1  0
 23 22  2  0
M  END
$$$$
