VED.pdb
     RDKit          3D

 25 24  0  0  1  0  0  0  0  0999 V2000
   17.4018  -10.8005  -17.7734 C   0  0  0  0  0  0  0  0  0  0  0  0
   17.8568  -12.1290  -17.2357 C   0  0  1  0  0  0  0  0  0  0  0  0
   17.1591  -13.2402  -17.9463 C   0  0  0  0  0  0  0  0  0  0  0  0
   19.3829  -12.2626  -17.3433 C   0  0  2  0  0  0  0  0  0  0  0  0
   19.7022  -13.4810  -16.6210 N   0  0  0  0  0  0  0  0  0  0  0  0
   19.9715  -11.0667  -16.6888 C   0  0  0  0  0  0  0  0  0  0  0  0
   19.8993  -10.9262  -15.4412 O   0  0  0  0  0  0  0  0  0  0  0  0
   20.6390  -10.0254  -17.3992 N   0  0  0  0  0  0  0  0  0  0  0  0
   21.2186   -8.8834  -16.7215 C   0  0  1  0  0  0  0  0  0  0  0  0
   22.6355   -8.7539  -17.2708 C   0  0  0  0  0  0  0  0  0  0  0  0
   23.4001   -7.6234  -16.6145 C   0  0  0  0  0  0  0  0  0  0  0  0
   24.7171   -7.5048  -17.2503 C   0  0  0  0  0  0  0  0  0  0  0  0
   24.9841   -6.5190  -17.9796 O   0  0  0  0  0  0  0  0  0  0  0  0
   20.4428   -7.6477  -16.9539 C   0  0  0  0  0  0  0  0  0  0  0  0
   19.7188   -7.4725  -17.9672 O   0  0  0  0  0  0  0  0  0  0  0  0
   25.7056   -8.4702  -17.0694 O   0  0  0  0  0  0  0  0  0  0  0  0
   20.5105   -6.6168  -16.0046 N   0  0  0  0  0  0  0  0  0  0  0  0
   19.6405   -5.4289  -16.1462 C   0  0  1  0  0  0  0  0  0  0  0  0
   18.2104   -5.8432  -16.0742 C   0  0  0  0  0  0  0  0  0  0  0  0
   17.2837   -5.1692  -16.9754 C   0  0  0  0  0  0  0  0  0  0  0  0
   17.6121   -4.2673  -17.7519 O   0  0  0  0  0  0  0  0  0  0  0  0
   20.0143   -4.4503  -15.0974 C   0  0  0  0  0  0  0  0  0  0  0  0
   19.4617   -3.3082  -15.0133 O   0  0  0  0  0  0  0  0  0  0  0  0
   15.9370   -5.5426  -16.9848 O   0  0  0  0  0  0  0  0  0  0  0  0
   20.9752   -4.7471  -14.1751 O   0  0  0  0  0  0  0  0  0  0  0  0
  2  4  1  0
  2  3  1  6
  2  1  1  0
  4  5  1  1
  6  7  2  0
  6  4  1  0
  8  6  1  0
  9  8  1  0
  9 10  1  6
 11 10  1  0
 12 11  1  0
 13 12  2  0
 14  9  1  0
 15 14  2  0
 16 12  1  0
 17 14  1  0
 18 17  1  0
 18 22  1  0
 19 20  1  0
 18 19  1  1
 20 24  1  0
 20 21  2  0
 22 25  1  0
 23 22  2  0
M  END
$$$$
