VED.pdb
     RDKit          3D

 25 24  0  0  1  0  0  0  0  0999 V2000
   20.5636  -13.7688  -18.2193 C   0  0  0  0  0  0  0  0  0  0  0  0
   19.8112  -12.4724  -18.0999 C   0  0  1  0  0  0  0  0  0  0  0  0
   18.3408  -12.7258  -18.1106 C   0  0  0  0  0  0  0  0  0  0  0  0
   20.2419  -11.7108  -16.8378 C   0  0  2  0  0  0  0  0  0  0  0  0
   19.9756  -12.6250  -15.7418 N   0  0  0  0  0  0  0  0  0  0  0  0
   19.3958  -10.4934  -16.7546 C   0  0  0  0  0  0  0  0  0  0  0  0
   19.5058   -9.5840  -17.6162 O   0  0  0  0  0  0  0  0  0  0  0  0
   18.4294  -10.2714  -15.7291 N   0  0  0  0  0  0  0  0  0  0  0  0
   17.7206   -9.0142  -15.6017 C   0  0  1  0  0  0  0  0  0  0  0  0
   16.3797   -9.3602  -14.9627 C   0  0  0  0  0  0  0  0  0  0  0  0
   15.4522  -10.0650  -15.9304 C   0  0  0  0  0  0  0  0  0  0  0  0
   14.2000  -10.3927  -15.2395 C   0  0  0  0  0  0  0  0  0  0  0  0
   13.1369   -9.7936  -15.5327 O   0  0  0  0  0  0  0  0  0  0  0  0
   18.4654   -8.0380  -14.7800 C   0  0  0  0  0  0  0  0  0  0  0  0
   18.8085   -8.2622  -13.5911 O   0  0  0  0  0  0  0  0  0  0  0  0
   14.1472  -11.3682  -14.2458 O   0  0  0  0  0  0  0  0  0  0  0  0
   18.8109   -6.8010  -15.3449 N   0  0  0  0  0  0  0  0  0  0  0  0
   19.5533   -5.8069  -14.5395 C   0  0  1  0  0  0  0  0  0  0  0  0
   20.9944   -6.1834  -14.4819 C   0  0  0  0  0  0  0  0  0  0  0  0
   21.8923   -5.2506  -13.8120 C   0  0  0  0  0  0  0  0  0  0  0  0
   21.5291   -4.1769  -13.3226 O   0  0  0  0  0  0  0  0  0  0  0  0
   19.3273   -4.4664  -15.1305 C   0  0  0  0  0  0  0  0  0  0  0  0
   19.7250   -3.4022  -14.5596 O   0  0  0  0  0  0  0  0  0  0  0  0
   23.2505   -5.5605  -13.7009 O   0  0  0  0  0  0  0  0  0  0  0  0
   18.6775   -4.3286  -16.3225 O   0  0  0  0  0  0  0  0  0  0  0  0
  2  4  1  0
  2  3  1  1
  2  1  1  0
  4  5  1  1
  6  7  2  0
  6  4  1  0
  8  6  1  0
  9  8  1  0
  9 10  1  1
 11 10  1  0
 12 11  1  0
 13 12  2  0
 14  9  1  0
 15 14  2  0
 16 12  1  0
 17 14  1  0
 18 17  1  0
 18 22  1  0
 19 20  1  0
 18 19  1  6
 20 24  1  0
 20 21  2  0
 22 25  1  0
 23 22  2  0
M  END
$$$$
