VED.pdb
     RDKit          3D

 25 24  0  0  1  0  0  0  0  0999 V2000
   16.8545  -13.5490  -16.5432 C   0  0  0  0  0  0  0  0  0  0  0  0
   17.9146  -12.7809  -15.8037 C   0  0  1  0  0  0  0  0  0  0  0  0
   19.2715  -13.2354  -16.2266 C   0  0  0  0  0  0  0  0  0  0  0  0
   17.7357  -11.2704  -16.0155 C   0  0  2  0  0  0  0  0  0  0  0  0
   17.6927  -11.0986  -17.4565 N   0  0  0  0  0  0  0  0  0  0  0  0
   18.9211  -10.6041  -15.4188 C   0  0  0  0  0  0  0  0  0  0  0  0
   19.1202  -10.6553  -14.1782 O   0  0  0  0  0  0  0  0  0  0  0  0
   19.8882   -9.8826  -16.1795 N   0  0  0  0  0  0  0  0  0  0  0  0
   21.0026   -9.1997  -15.5540 C   0  0  1  0  0  0  0  0  0  0  0  0
   22.2490   -9.6938  -16.2810 C   0  0  0  0  0  0  0  0  0  0  0  0
   22.7107  -11.0421  -15.7689 C   0  0  0  0  0  0  0  0  0  0  0  0
   23.9227  -11.4393  -16.4940 C   0  0  0  0  0  0  0  0  0  0  0  0
   24.4098  -10.6907  -17.3756 O   0  0  0  0  0  0  0  0  0  0  0  0
   20.8778   -7.7307  -15.6500 C   0  0  0  0  0  0  0  0  0  0  0  0
   20.3007   -7.1522  -16.6060 O   0  0  0  0  0  0  0  0  0  0  0  0
   24.5679  -12.6466  -16.2331 O   0  0  0  0  0  0  0  0  0  0  0  0
   21.4250   -6.9364  -14.6311 N   0  0  0  0  0  0  0  0  0  0  0  0
   21.3227   -5.4630  -14.7127 C   0  0  1  0  0  0  0  0  0  0  0  0
   19.8983   -5.0691  -14.9075 C   0  0  0  0  0  0  0  0  0  0  0  0
   19.5995   -3.6427  -14.8758 C   0  0  0  0  0  0  0  0  0  0  0  0
   20.3707   -2.7687  -15.2829 O   0  0  0  0  0  0  0  0  0  0  0  0
   21.9213   -4.8860  -13.4854 C   0  0  0  0  0  0  0  0  0  0  0  0
   22.3417   -5.6160  -12.5330 O   0  0  0  0  0  0  0  0  0  0  0  0
   18.3763   -3.2059  -14.3600 O   0  0  0  0  0  0  0  0  0  0  0  0
   22.0435   -3.5352  -13.3359 O   0  0  0  0  0  0  0  0  0  0  0  0
  2  4  1  0
  2  3  1  6
  2  1  1  0
  4  5  1  6
  6  7  2  0
  6  4  1  0
  8  6  1  0
  9  8  1  0
  9 10  1  6
 11 10  1  0
 12 11  1  0
 13 12  2  0
 14  9  1  0
 15 14  2  0
 16 12  1  0
 17 14  1  0
 18 17  1  0
 18 22  1  0
 19 20  1  0
 18 19  1  1
 20 24  1  0
 20 21  2  0
 22 25  1  0
 23 22  2  0
M  END
$$$$
