VED.pdb
     RDKit          3D

 25 24  0  0  1  0  0  0  0  0999 V2000
   13.0361  -12.8982  -14.2726 C   0  0  0  0  0  0  0  0  0  0  0  0
   13.8565  -11.9974  -13.3914 C   0  0  1  0  0  0  0  0  0  0  0  0
   13.2253  -11.8780  -12.0446 C   0  0  0  0  0  0  0  0  0  0  0  0
   15.3018  -12.5070  -13.2924 C   0  0  2  0  0  0  0  0  0  0  0  0
   15.1930  -13.8206  -12.6837 N   0  0  0  0  0  0  0  0  0  0  0  0
   16.0388  -11.5577  -12.4202 C   0  0  0  0  0  0  0  0  0  0  0  0
   16.0540  -11.7224  -11.1736 O   0  0  0  0  0  0  0  0  0  0  0  0
   16.7591  -10.4290  -12.9121 N   0  0  0  0  0  0  0  0  0  0  0  0
   17.4816   -9.5356  -12.0295 C   0  0  1  0  0  0  0  0  0  0  0  0
   18.5844   -8.9169  -12.8822 C   0  0  0  0  0  0  0  0  0  0  0  0
   19.4675   -7.9826  -12.0818 C   0  0  0  0  0  0  0  0  0  0  0  0
   20.5666   -7.5162  -12.9345 C   0  0  0  0  0  0  0  0  0  0  0  0
   21.3495   -6.6227  -12.5299 O   0  0  0  0  0  0  0  0  0  0  0  0
   16.6051   -8.4939  -11.4555 C   0  0  0  0  0  0  0  0  0  0  0  0
   15.5524   -8.0969  -12.0176 O   0  0  0  0  0  0  0  0  0  0  0  0
   20.7776   -8.0419  -14.2076 O   0  0  0  0  0  0  0  0  0  0  0  0
   16.9556   -7.9157  -10.2261 N   0  0  0  0  0  0  0  0  0  0  0  0
   16.1334   -6.8198   -9.6683 C   0  0  1  0  0  0  0  0  0  0  0  0
   14.8301   -7.3634   -9.1911 C   0  0  0  0  0  0  0  0  0  0  0  0
   13.9275   -6.4268   -8.5330 C   0  0  0  0  0  0  0  0  0  0  0  0
   14.1534   -5.2185   -8.4181 O   0  0  0  0  0  0  0  0  0  0  0  0
   16.9111   -6.1534   -8.5966 C   0  0  0  0  0  0  0  0  0  0  0  0
   17.9902   -6.6472   -8.1402 O   0  0  0  0  0  0  0  0  0  0  0  0
   12.7273   -6.8927   -7.9892 O   0  0  0  0  0  0  0  0  0  0  0  0
   16.4897   -4.9723   -8.0586 O   0  0  0  0  0  0  0  0  0  0  0  0
  2  4  1  0
  2  3  1  1
  2  1  1  0
  4  5  1  1
  6  7  2  0
  6  4  1  0
  8  6  1  0
  9  8  1  0
  9 10  1  6
 11 10  1  0
 12 11  1  0
 13 12  2  0
 14  9  1  0
 15 14  2  0
 16 12  1  0
 17 14  1  0
 18 17  1  0
 18 22  1  0
 19 20  1  0
 18 19  1  1
 20 24  1  0
 20 21  2  0
 22 25  1  0
 23 22  2  0
M  END
$$$$
