VED.pdb
     RDKit          3D

 25 24  0  0  1  0  0  0  0  0999 V2000
   20.0471  -14.2780  -17.8346 C   0  0  0  0  0  0  0  0  0  0  0  0
   19.4318  -12.9064  -17.8626 C   0  0  1  0  0  0  0  0  0  0  0  0
   17.9816  -12.9837  -17.5194 C   0  0  0  0  0  0  0  0  0  0  0  0
   20.1836  -11.9564  -16.9188 C   0  0  2  0  0  0  0  0  0  0  0  0
   20.0954  -12.5827  -15.6119 N   0  0  0  0  0  0  0  0  0  0  0  0
   19.4696  -10.6548  -16.9525 C   0  0  0  0  0  0  0  0  0  0  0  0
   19.5098   -9.9357  -17.9834 O   0  0  0  0  0  0  0  0  0  0  0  0
   18.7119  -10.1406  -15.8588 N   0  0  0  0  0  0  0  0  0  0  0  0
   18.1025   -8.8267  -15.8979 C   0  0  1  0  0  0  0  0  0  0  0  0
   16.6307   -9.0452  -15.5629 C   0  0  0  0  0  0  0  0  0  0  0  0
   15.8307   -7.7619  -15.6458 C   0  0  0  0  0  0  0  0  0  0  0  0
   14.4363   -8.0440  -15.2872 C   0  0  0  0  0  0  0  0  0  0  0  0
   14.0967   -9.1922  -14.9113 O   0  0  0  0  0  0  0  0  0  0  0  0
   18.7331   -7.8939  -14.9414 C   0  0  0  0  0  0  0  0  0  0  0  0
   19.2570   -8.2689  -13.8613 O   0  0  0  0  0  0  0  0  0  0  0  0
   13.4519   -7.0597  -15.3504 O   0  0  0  0  0  0  0  0  0  0  0  0
   18.7536   -6.5241  -15.2445 N   0  0  0  0  0  0  0  0  0  0  0  0
   19.5383   -5.5963  -14.4009 C   0  0  1  0  0  0  0  0  0  0  0  0
   20.9658   -6.0246  -14.3781 C   0  0  0  0  0  0  0  0  0  0  0  0
   21.9000   -5.1638  -13.6630 C   0  0  0  0  0  0  0  0  0  0  0  0
   21.5834   -4.0941  -13.1340 O   0  0  0  0  0  0  0  0  0  0  0  0
   19.3535   -4.2218  -14.9244 C   0  0  0  0  0  0  0  0  0  0  0  0
   19.3010   -3.9765  -16.1709 O   0  0  0  0  0  0  0  0  0  0  0  0
   23.2405   -5.5434  -13.5521 O   0  0  0  0  0  0  0  0  0  0  0  0
   19.2309   -3.1610  -14.0749 O   0  0  0  0  0  0  0  0  0  0  0  0
  2  4  1  0
  2  3  1  1
  2  1  1  0
  4  5  1  1
  6  7  2  0
  6  4  1  0
  8  6  1  0
  9  8  1  0
  9 10  1  1
 11 10  1  0
 12 11  1  0
 13 12  2  0
 14  9  1  0
 15 14  2  0
 16 12  1  0
 17 14  1  0
 18 17  1  0
 18 22  1  0
 19 20  1  0
 18 19  1  6
 20 24  1  0
 20 21  2  0
 22 25  1  0
 23 22  2  0
M  END
$$$$
