VED.pdb
     RDKit          3D

 25 24  0  0  1  0  0  0  0  0999 V2000
   16.7094  -12.0289  -16.6931 C   0  0  0  0  0  0  0  0  0  0  0  0
   17.0044  -13.3754  -16.0924 C   0  0  1  0  0  0  0  0  0  0  0  0
   15.8853  -14.3221  -16.3719 C   0  0  0  0  0  0  0  0  0  0  0  0
   18.3438  -13.9183  -16.6120 C   0  0  2  0  0  0  0  0  0  0  0  0
   18.5742  -15.1328  -15.8505 N   0  0  0  0  0  0  0  0  0  0  0  0
   19.3723  -12.8868  -16.3238 C   0  0  0  0  0  0  0  0  0  0  0  0
   19.6539  -12.5862  -15.1356 O   0  0  0  0  0  0  0  0  0  0  0  0
   20.0925  -12.1848  -17.3353 N   0  0  0  0  0  0  0  0  0  0  0  0
   21.0779  -11.1725  -17.0135 C   0  0  1  0  0  0  0  0  0  0  0  0
   22.1605  -11.2975  -18.0805 C   0  0  0  0  0  0  0  0  0  0  0  0
   22.9862  -12.5555  -17.9101 C   0  0  0  0  0  0  0  0  0  0  0  0
   23.9867  -12.6192  -18.9813 C   0  0  0  0  0  0  0  0  0  0  0  0
   24.0132  -13.5961  -19.7687 O   0  0  0  0  0  0  0  0  0  0  0  0
   20.4955   -9.8148  -17.0028 C   0  0  0  0  0  0  0  0  0  0  0  0
   19.7171   -9.3951  -17.8969 O   0  0  0  0  0  0  0  0  0  0  0  0
   24.9312  -11.6104  -19.1603 O   0  0  0  0  0  0  0  0  0  0  0  0
   20.8201   -8.9468  -15.9493 N   0  0  0  0  0  0  0  0  0  0  0  0
   20.2709   -7.5734  -15.9327 C   0  0  1  0  0  0  0  0  0  0  0  0
   19.4738   -7.3669  -14.6902 C   0  0  0  0  0  0  0  0  0  0  0  0
   18.9723   -6.0201  -14.4460 C   0  0  0  0  0  0  0  0  0  0  0  0
   18.2179   -5.4166  -15.2147 O   0  0  0  0  0  0  0  0  0  0  0  0
   21.3981   -6.6196  -16.0639 C   0  0  0  0  0  0  0  0  0  0  0  0
   21.2132   -5.3640  -16.1407 O   0  0  0  0  0  0  0  0  0  0  0  0
   19.3495   -5.3446  -13.2820 O   0  0  0  0  0  0  0  0  0  0  0  0
   22.6878   -7.0632  -16.1058 O   0  0  0  0  0  0  0  0  0  0  0  0
  2  4  1  0
  2  3  1  6
  2  1  1  0
  4  5  1  1
  6  7  2  0
  6  4  1  0
  8  6  1  0
  9  8  1  0
  9 10  1  6
 11 10  1  0
 12 11  1  0
 13 12  2  0
 14  9  1  0
 15 14  2  0
 16 12  1  0
 17 14  1  0
 18 17  1  0
 18 22  1  0
 19 20  1  0
 18 19  1  1
 20 24  1  0
 20 21  2  0
 22 25  1  0
 23 22  2  0
M  END
$$$$
