VED.pdb
     RDKit          3D

 25 24  0  0  1  0  0  0  0  0999 V2000
   26.3995   -9.9230  -15.3711 C   0  0  0  0  0  0  0  0  0  0  0  0
   26.3269  -11.0921  -16.3139 C   0  0  1  0  0  0  0  0  0  0  0  0
   27.4267  -12.0581  -16.0244 C   0  0  0  0  0  0  0  0  0  0  0  0
   24.9496  -11.7669  -16.2345 C   0  0  2  0  0  0  0  0  0  0  0  0
   24.9806  -12.7983  -17.2560 N   0  0  0  0  0  0  0  0  0  0  0  0
   23.9365  -10.7246  -16.5380 C   0  0  0  0  0  0  0  0  0  0  0  0
   23.8627  -10.2281  -17.6910 O   0  0  0  0  0  0  0  0  0  0  0  0
   23.0043  -10.2262  -15.5802 N   0  0  0  0  0  0  0  0  0  0  0  0
   22.0784   -9.1571  -15.8948 C   0  0  1  0  0  0  0  0  0  0  0  0
   20.6988   -9.6797  -15.5076 C   0  0  0  0  0  0  0  0  0  0  0  0
   19.5997   -8.6962  -15.8512 C   0  0  0  0  0  0  0  0  0  0  0  0
   18.3072   -9.2664  -15.4551 C   0  0  0  0  0  0  0  0  0  0  0  0
   17.5025   -9.6811  -16.3243 O   0  0  0  0  0  0  0  0  0  0  0  0
   22.3996   -7.9125  -15.1665 C   0  0  0  0  0  0  0  0  0  0  0  0
   22.7165   -7.8920  -13.9496 O   0  0  0  0  0  0  0  0  0  0  0  0
   17.9317   -9.3665  -14.1169 O   0  0  0  0  0  0  0  0  0  0  0  0
   22.3522   -6.6921  -15.8571 N   0  0  0  0  0  0  0  0  0  0  0  0
   22.6433   -5.4307  -15.1414 C   0  0  1  0  0  0  0  0  0  0  0  0
   23.1882   -4.4256  -16.0977 C   0  0  0  0  0  0  0  0  0  0  0  0
   24.6319   -4.4245  -16.3001 C   0  0  0  0  0  0  0  0  0  0  0  0
   25.4381   -4.9222  -15.5086 O   0  0  0  0  0  0  0  0  0  0  0  0
   21.4012   -4.9788  -14.4702 C   0  0  0  0  0  0  0  0  0  0  0  0
   20.2512   -5.1805  -14.9738 O   0  0  0  0  0  0  0  0  0  0  0  0
   25.1666   -3.8329  -17.4478 O   0  0  0  0  0  0  0  0  0  0  0  0
   21.4516   -4.3242  -13.2741 O   0  0  0  0  0  0  0  0  0  0  0  0
  2  4  1  0
  2  3  1  1
  2  1  1  0
  4  5  1  6
  6  7  2  0
  6  4  1  0
  8  6  1  0
  9  8  1  0
  9 10  1  1
 11 10  1  0
 12 11  1  0
 13 12  2  0
 14  9  1  0
 15 14  2  0
 16 12  1  0
 17 14  1  0
 18 17  1  0
 18 22  1  0
 19 20  1  0
 18 19  1  6
 20 24  1  0
 20 21  2  0
 22 25  1  0
 23 22  2  0
M  END
$$$$
