VED.pdb
     RDKit          3D

 25 24  0  0  1  0  0  0  0  0999 V2000
   16.4574  -16.0814  -16.7383 C   0  0  0  0  0  0  0  0  0  0  0  0
   16.2664  -14.6020  -16.9272 C   0  0  1  0  0  0  0  0  0  0  0  0
   14.8440  -14.2284  -16.6743 C   0  0  0  0  0  0  0  0  0  0  0  0
   17.2247  -13.8126  -16.0234 C   0  0  2  0  0  0  0  0  0  0  0  0
   17.0603  -14.3977  -14.7048 N   0  0  0  0  0  0  0  0  0  0  0  0
   16.7828  -12.3953  -16.0536 C   0  0  0  0  0  0  0  0  0  0  0  0
   16.8139  -11.7437  -17.1287 O   0  0  0  0  0  0  0  0  0  0  0  0
   16.3066  -11.6915  -14.9078 N   0  0  0  0  0  0  0  0  0  0  0  0
   16.0440  -10.2670  -14.9366 C   0  0  1  0  0  0  0  0  0  0  0  0
   14.7719  -10.0660  -14.1195 C   0  0  0  0  0  0  0  0  0  0  0  0
   13.5312  -10.4709  -14.8876 C   0  0  0  0  0  0  0  0  0  0  0  0
   12.3529  -10.2547  -14.0406 C   0  0  0  0  0  0  0  0  0  0  0  0
   11.9465  -11.1613  -13.2739 O   0  0  0  0  0  0  0  0  0  0  0  0
   17.1652   -9.4846  -14.3767 C   0  0  0  0  0  0  0  0  0  0  0  0
   17.8852   -9.8971  -13.4317 O   0  0  0  0  0  0  0  0  0  0  0  0
   11.6519   -9.0505  -14.0571 O   0  0  0  0  0  0  0  0  0  0  0  0
   17.4474   -8.2217  -14.9191 N   0  0  0  0  0  0  0  0  0  0  0  0
   18.5992   -7.4446  -14.4117 C   0  0  1  0  0  0  0  0  0  0  0  0
   19.8381   -8.2689  -14.4990 C   0  0  0  0  0  0  0  0  0  0  0  0
   21.0882   -7.6205  -14.1222 C   0  0  0  0  0  0  0  0  0  0  0  0
   21.1672   -6.4514  -13.7333 O   0  0  0  0  0  0  0  0  0  0  0  0
   18.6865   -6.1828  -15.1849 C   0  0  0  0  0  0  0  0  0  0  0  0
   18.2681   -6.0957  -16.3824 O   0  0  0  0  0  0  0  0  0  0  0  0
   22.2857   -8.3374  -14.1946 O   0  0  0  0  0  0  0  0  0  0  0  0
   19.2245   -5.0586  -14.6294 O   0  0  0  0  0  0  0  0  0  0  0  0
  2  4  1  0
  2  3  1  1
  2  1  1  0
  4  5  1  1
  6  7  2  0
  6  4  1  0
  8  6  1  0
  9  8  1  0
  9 10  1  1
 11 10  1  0
 12 11  1  0
 13 12  2  0
 14  9  1  0
 15 14  2  0
 16 12  1  0
 17 14  1  0
 18 17  1  0
 18 22  1  0
 19 20  1  0
 18 19  1  6
 20 24  1  0
 20 21  2  0
 22 25  1  0
 23 22  2  0
M  END
$$$$
