VED.pdb
     RDKit          3D

 25 24  0  0  1  0  0  0  0  0999 V2000
   26.1773  -20.6298  -18.0999 C   0  0  0  0  0  0  0  0  0  0  0  0
   27.1637  -19.9176  -17.2164 C   0  0  1  0  0  0  0  0  0  0  0  0
   26.5787  -18.6402  -16.7139 C   0  0  0  0  0  0  0  0  0  0  0  0
   27.6093  -20.8255  -16.0607 C   0  0  2  0  0  0  0  0  0  0  0  0
   28.1866  -21.9919  -16.7044 N   0  0  0  0  0  0  0  0  0  0  0  0
   26.3910  -21.1732  -15.2862 C   0  0  0  0  0  0  0  0  0  0  0  0
   25.5336  -21.9558  -15.7698 O   0  0  0  0  0  0  0  0  0  0  0  0
   26.1114  -20.6649  -13.9831 N   0  0  0  0  0  0  0  0  0  0  0  0
   24.9522  -21.0912  -13.2256 C   0  0  1  0  0  0  0  0  0  0  0  0
   25.3247  -20.8983  -11.7592 C   0  0  0  0  0  0  0  0  0  0  0  0
   24.2434  -21.4009  -10.8256 C   0  0  0  0  0  0  0  0  0  0  0  0
   24.6590  -21.1601   -9.4393 C   0  0  0  0  0  0  0  0  0  0  0  0
   23.8682  -21.3837   -8.4908 O   0  0  0  0  0  0  0  0  0  0  0  0
   23.7449  -20.3146  -13.5745 C   0  0  0  0  0  0  0  0  0  0  0  0
   23.7016  -19.0584  -13.5334 O   0  0  0  0  0  0  0  0  0  0  0  0
   25.9303  -20.6804   -9.1302 O   0  0  0  0  0  0  0  0  0  0  0  0
   22.5884  -21.0024  -13.9722 N   0  0  0  0  0  0  0  0  0  0  0  0
   21.3691  -20.2451  -14.3297 C   0  0  1  0  0  0  0  0  0  0  0  0
   20.8670  -20.7005  -15.6572 C   0  0  0  0  0  0  0  0  0  0  0  0
   21.4667  -20.0846  -16.8345 C   0  0  0  0  0  0  0  0  0  0  0  0
   22.3008  -19.1757  -16.7863 O   0  0  0  0  0  0  0  0  0  0  0  0
   20.3766  -20.4206  -13.2428 C   0  0  0  0  0  0  0  0  0  0  0  0
   19.4217  -19.6004  -13.0630 O   0  0  0  0  0  0  0  0  0  0  0  0
   21.0965  -20.5264  -18.1077 O   0  0  0  0  0  0  0  0  0  0  0  0
   20.4552  -21.4823  -12.3892 O   0  0  0  0  0  0  0  0  0  0  0  0
  2  4  1  0
  2  3  1  1
  2  1  1  0
  4  5  1  6
  6  7  2  0
  6  4  1  0
  8  6  1  0
  9  8  1  0
  9 10  1  1
 11 10  1  0
 12 11  1  0
 13 12  2  0
 14  9  1  0
 15 14  2  0
 16 12  1  0
 17 14  1  0
 18 17  1  0
 18 22  1  0
 19 20  1  0
 18 19  1  6
 20 24  1  0
 20 21  2  0
 22 25  1  0
 23 22  2  0
M  END
$$$$
