VED.pdb
     RDKit          3D

 25 24  0  0  1  0  0  0  0  0999 V2000
   21.1494  -12.5764  -18.9449 C   0  0  0  0  0  0  0  0  0  0  0  0
   20.0893  -13.1050  -18.0188 C   0  0  1  0  0  0  0  0  0  0  0  0
   20.2049  -14.5875  -17.8941 C   0  0  0  0  0  0  0  0  0  0  0  0
   20.1750  -12.4166  -16.6487 C   0  0  2  0  0  0  0  0  0  0  0  0
   19.1433  -13.0507  -15.8478 N   0  0  0  0  0  0  0  0  0  0  0  0
   19.8914  -10.9755  -16.8675 C   0  0  0  0  0  0  0  0  0  0  0  0
   20.7195  -10.2513  -17.4767 O   0  0  0  0  0  0  0  0  0  0  0  0
   18.7020  -10.3275  -16.4203 N   0  0  0  0  0  0  0  0  0  0  0  0
   18.4949   -8.9032  -16.5870 C   0  0  1  0  0  0  0  0  0  0  0  0
   16.9839   -8.7138  -16.6714 C   0  0  0  0  0  0  0  0  0  0  0  0
   16.6035   -7.2686  -16.9170 C   0  0  0  0  0  0  0  0  0  0  0  0
   15.1411   -7.1610  -16.9659 C   0  0  0  0  0  0  0  0  0  0  0  0
   14.4572   -8.0481  -17.5319 O   0  0  0  0  0  0  0  0  0  0  0  0
   19.0672   -8.1247  -15.4694 C   0  0  0  0  0  0  0  0  0  0  0  0
   19.0308   -8.5126  -14.2737 O   0  0  0  0  0  0  0  0  0  0  0  0
   14.4680   -6.0837  -16.3930 O   0  0  0  0  0  0  0  0  0  0  0  0
   19.6825   -6.8945  -15.7461 N   0  0  0  0  0  0  0  0  0  0  0  0
   20.3212   -6.1298  -14.6527 C   0  0  1  0  0  0  0  0  0  0  0  0
   21.7316   -6.5811  -14.4824 C   0  0  0  0  0  0  0  0  0  0  0  0
   22.5435   -5.8531  -13.5149 C   0  0  0  0  0  0  0  0  0  0  0  0
   22.9757   -4.7115  -13.6995 O   0  0  0  0  0  0  0  0  0  0  0  0
   20.2084   -4.6855  -14.9670 C   0  0  0  0  0  0  0  0  0  0  0  0
   20.1942   -4.2550  -16.1633 O   0  0  0  0  0  0  0  0  0  0  0  0
   22.8696   -6.4555  -12.2967 O   0  0  0  0  0  0  0  0  0  0  0  0
   20.1136   -3.7587  -13.9700 O   0  0  0  0  0  0  0  0  0  0  0  0
  2  4  1  0
  2  3  1  1
  2  1  1  0
  4  5  1  1
  6  7  2  0
  6  4  1  0
  8  6  1  0
  9  8  1  0
  9 10  1  1
 11 10  1  0
 12 11  1  0
 13 12  2  0
 14  9  1  0
 15 14  2  0
 16 12  1  0
 17 14  1  0
 18 17  1  0
 18 22  1  0
 19 20  1  0
 18 19  1  6
 20 24  1  0
 20 21  2  0
 22 25  1  0
 23 22  2  0
M  END
$$$$
