TVS.pdb
     RDKit          3D

 21 20  0  0  1  0  0  0  0  0999 V2000
    6.9091  -18.6889   15.8229 C   0  0  0  0  0  0  0  0  0  0  0  0
    7.5592  -18.0371   16.9832 C   0  0  1  0  0  0  0  0  0  0  0  0
    8.5294  -18.8507   17.5711 O   0  0  0  0  0  0  0  0  0  0  0  0
    8.1747  -16.6983   16.7359 C   0  0  2  0  0  0  0  0  0  0  0  0
    9.0494  -16.7001   15.5764 N   0  0  0  0  0  0  0  0  0  0  0  0
    8.7881  -16.0628   17.9013 C   0  0  0  0  0  0  0  0  0  0  0  0
   10.0162  -16.0138   18.1428 O   0  0  0  0  0  0  0  0  0  0  0  0
    7.2157  -12.7505   19.7239 C   0  0  0  0  0  0  0  0  0  0  0  0
    7.4460  -13.9066   20.6522 C   0  0  2  0  0  0  0  0  0  0  0  0
    7.7996  -13.4001   22.0140 C   0  0  0  0  0  0  0  0  0  0  0  0
    8.4451  -14.8851   20.1045 C   0  0  2  0  0  0  0  0  0  0  0  0
    7.9450  -15.4369   18.8630 N   0  0  0  0  0  0  0  0  0  0  0  0
    8.7866  -15.9512   21.0748 C   0  0  0  0  0  0  0  0  0  0  0  0
    7.8980  -16.7528   21.4562 O   0  0  0  0  0  0  0  0  0  0  0  0
   12.3979  -17.3688   21.2767 O   0  0  0  0  0  0  0  0  0  0  0  0
   11.4268  -18.0260   22.0388 C   0  0  0  0  0  0  0  0  0  0  0  0
   10.4025  -17.0709   22.5961 C   0  0  2  0  0  0  0  0  0  0  0  0
   10.1008  -16.0826   21.5810 N   0  0  0  0  0  0  0  0  0  0  0  0
   10.9972  -16.4448   23.8059 C   0  0  0  0  0  0  0  0  0  0  0  0
   11.2801  -17.1781   24.7717 O   0  0  0  0  0  0  0  0  0  0  0  0
   11.2052  -15.0797   23.7947 O   0  0  0  0  0  0  0  0  0  0  0  0
  2  3  1  0
  2  1  1  6
  4  2  1  0
  4  5  1  6
  6 12  1  0
  6  4  1  0
  7  6  2  0
  9  8  1  6
  9 11  1  0
 10  9  1  0
 11 13  1  0
 11 12  1  6
 13 18  1  0
 14 13  2  0
 15 16  1  0
 17 19  1  0
 17 16  1  6
 18 17  1  0
 19 20  2  0
 19 21  1  0
M  END
$$$$
