TVS.pdb
     RDKit          3D

 21 20  0  0  1  0  0  0  0  0999 V2000
    7.6705  -17.5670   14.2798 C   0  0  0  0  0  0  0  0  0  0  0  0
    8.2706  -17.0385   15.5265 C   0  0  1  0  0  0  0  0  0  0  0  0
    9.1355  -17.9553   16.1265 O   0  0  0  0  0  0  0  0  0  0  0  0
    8.9916  -15.7345   15.4174 C   0  0  2  0  0  0  0  0  0  0  0  0
    9.9338  -15.7170   14.3121 N   0  0  0  0  0  0  0  0  0  0  0  0
    9.5746  -15.2318   16.6606 C   0  0  0  0  0  0  0  0  0  0  0  0
   10.7826  -15.3089   16.9826 O   0  0  0  0  0  0  0  0  0  0  0  0
    8.6842  -12.4936   20.7132 C   0  0  0  0  0  0  0  0  0  0  0  0
    8.1869  -13.1612   19.4649 C   0  0  2  0  0  0  0  0  0  0  0  0
    6.8577  -13.7952   19.7247 C   0  0  0  0  0  0  0  0  0  0  0  0
    9.1960  -14.1123   18.8882 C   0  0  2  0  0  0  0  0  0  0  0  0
    8.7234  -14.5947   17.6077 N   0  0  0  0  0  0  0  0  0  0  0  0
    9.5127  -15.2304   19.8072 C   0  0  0  0  0  0  0  0  0  0  0  0
    8.7239  -16.2036   19.8972 O   0  0  0  0  0  0  0  0  0  0  0  0
   13.3241  -15.9851   21.0071 O   0  0  0  0  0  0  0  0  0  0  0  0
   12.2974  -16.9319   21.0776 C   0  0  0  0  0  0  0  0  0  0  0  0
   10.9855  -16.3148   21.4904 C   0  0  2  0  0  0  0  0  0  0  0  0
   10.6922  -15.2207   20.5876 N   0  0  0  0  0  0  0  0  0  0  0  0
   11.1444  -15.8387   22.8895 C   0  0  0  0  0  0  0  0  0  0  0  0
   11.0324  -14.6191   23.1144 O   0  0  0  0  0  0  0  0  0  0  0  0
   11.4085  -16.7764   23.8682 O   0  0  0  0  0  0  0  0  0  0  0  0
  2  3  1  0
  2  1  1  6
  4  2  1  0
  4  5  1  6
  6 12  1  0
  6  4  1  0
  7  6  2  0
  9  8  1  1
  9 11  1  0
 10  9  1  0
 11 13  1  0
 11 12  1  6
 13 18  1  0
 14 13  2  0
 15 16  1  0
 17 19  1  0
 17 16  1  6
 18 17  1  0
 19 20  2  0
 19 21  1  0
M  END
$$$$
