TVS.pdb
     RDKit          3D

 21 20  0  0  1  0  0  0  0  0999 V2000
    7.5336  -18.9929   18.6576 C   0  0  0  0  0  0  0  0  0  0  0  0
    7.8636  -18.4486   17.3203 C   0  0  1  0  0  0  0  0  0  0  0  0
    7.0687  -19.0008   16.3142 O   0  0  0  0  0  0  0  0  0  0  0  0
    7.8154  -16.9623   17.1760 C   0  0  2  0  0  0  0  0  0  0  0  0
    7.9971  -16.5365   15.7993 N   0  0  0  0  0  0  0  0  0  0  0  0
    8.6522  -16.2118   18.1113 C   0  0  0  0  0  0  0  0  0  0  0  0
    9.8880  -16.0368   18.0049 O   0  0  0  0  0  0  0  0  0  0  0  0
    6.7588  -14.2644   21.5446 C   0  0  0  0  0  0  0  0  0  0  0  0
    8.0148  -13.8211   20.8537 C   0  0  2  0  0  0  0  0  0  0  0  0
    7.6885  -12.7866   19.8244 C   0  0  0  0  0  0  0  0  0  0  0  0
    8.8004  -14.9776   20.3053 C   0  0  2  0  0  0  0  0  0  0  0  0
    8.0410  -15.6163   19.2511 N   0  0  0  0  0  0  0  0  0  0  0  0
    9.1938  -15.9459   21.3553 C   0  0  0  0  0  0  0  0  0  0  0  0
    8.3532  -16.7758   21.7821 O   0  0  0  0  0  0  0  0  0  0  0  0
   13.1864  -16.2870   22.4965 O   0  0  0  0  0  0  0  0  0  0  0  0
   12.3109  -17.3755   22.5612 C   0  0  0  0  0  0  0  0  0  0  0  0
   10.8972  -16.9480   22.8628 C   0  0  2  0  0  0  0  0  0  0  0  0
   10.5042  -15.9520   21.8872 N   0  0  0  0  0  0  0  0  0  0  0  0
   10.8903  -16.3924   24.2414 C   0  0  0  0  0  0  0  0  0  0  0  0
   10.5546  -15.2034   24.3971 O   0  0  0  0  0  0  0  0  0  0  0  0
   11.2575  -17.2262   25.2791 O   0  0  0  0  0  0  0  0  0  0  0  0
  2  3  1  0
  2  1  1  1
  4  2  1  0
  4  5  1  6
  6 12  1  0
  6  4  1  0
  7  6  2  0
  9  8  1  6
  9 11  1  0
 10  9  1  0
 11 13  1  0
 11 12  1  6
 13 18  1  0
 14 13  2  0
 15 16  1  0
 17 19  1  0
 17 16  1  6
 18 17  1  0
 19 20  2  0
 19 21  1  0
M  END
$$$$
