TVS.pdb
     RDKit          3D

 21 20  0  0  1  0  0  0  0  0999 V2000
    6.0014  -15.7481   20.0333 C   0  0  0  0  0  0  0  0  0  0  0  0
    6.6639  -15.5774   21.3469 C   0  0  1  0  0  0  0  0  0  0  0  0
    7.5334  -16.6292   21.6408 O   0  0  0  0  0  0  0  0  0  0  0  0
    7.4072  -14.2984   21.5564 C   0  0  2  0  0  0  0  0  0  0  0  0
    8.3085  -13.9990   20.4575 N   0  0  0  0  0  0  0  0  0  0  0  0
    8.0455  -14.1482   22.8634 C   0  0  0  0  0  0  0  0  0  0  0  0
    9.2628  -14.3191   23.1040 O   0  0  0  0  0  0  0  0  0  0  0  0
    6.4175  -11.6882   25.7340 C   0  0  0  0  0  0  0  0  0  0  0  0
    6.7532  -13.0655   26.2255 C   0  0  2  0  0  0  0  0  0  0  0  0
    7.1843  -13.0017   27.6560 C   0  0  0  0  0  0  0  0  0  0  0  0
    7.7447  -13.7602   25.3368 C   0  0  2  0  0  0  0  0  0  0  0  0
    7.2426  -13.7768   23.9790 N   0  0  0  0  0  0  0  0  0  0  0  0
    8.0744  -15.1245   25.8112 C   0  0  0  0  0  0  0  0  0  0  0  0
    7.2135  -16.0355   25.7311 O   0  0  0  0  0  0  0  0  0  0  0  0
   11.1690  -18.5819   26.2829 O   0  0  0  0  0  0  0  0  0  0  0  0
   10.7855  -17.2867   25.9211 C   0  0  0  0  0  0  0  0  0  0  0  0
    9.6672  -16.7646   26.7865 C   0  0  2  0  0  0  0  0  0  0  0  0
    9.3463  -15.4197   26.3546 N   0  0  0  0  0  0  0  0  0  0  0  0
   10.1525  -16.7842   28.1913 C   0  0  0  0  0  0  0  0  0  0  0  0
   10.3530  -15.6957   28.7619 O   0  0  0  0  0  0  0  0  0  0  0  0
   10.3557  -18.0114   28.7908 O   0  0  0  0  0  0  0  0  0  0  0  0
  2  3  1  0
  2  1  1  6
  4  2  1  0
  4  5  1  6
  6 12  1  0
  6  4  1  0
  7  6  2  0
  9  8  1  6
  9 11  1  0
 10  9  1  0
 11 13  1  0
 11 12  1  6
 13 18  1  0
 14 13  2  0
 15 16  1  0
 17 19  1  0
 17 16  1  6
 18 17  1  0
 19 20  2  0
 19 21  1  0
M  END
$$$$
