TVS.pdb
     RDKit          3D

 21 20  0  0  1  0  0  0  0  0999 V2000
    6.6820  -18.8800   16.0535 C   0  0  0  0  0  0  0  0  0  0  0  0
    7.3505  -18.1839   17.1769 C   0  0  1  0  0  0  0  0  0  0  0  0
    8.2309  -19.0190   17.8671 O   0  0  0  0  0  0  0  0  0  0  0  0
    8.0838  -16.9268   16.8391 C   0  0  2  0  0  0  0  0  0  0  0  0
    8.9646  -17.0932   15.6962 N   0  0  0  0  0  0  0  0  0  0  0  0
    8.7411  -16.2604   17.9626 C   0  0  0  0  0  0  0  0  0  0  0  0
    9.9683  -16.2918   18.2120 O   0  0  0  0  0  0  0  0  0  0  0  0
    7.2452  -12.7409   19.3933 C   0  0  0  0  0  0  0  0  0  0  0  0
    7.5391  -13.7484   20.4657 C   0  0  2  0  0  0  0  0  0  0  0  0
    7.9762  -13.0481   21.7125 C   0  0  0  0  0  0  0  0  0  0  0  0
    8.5057  -14.8020   20.0062 C   0  0  2  0  0  0  0  0  0  0  0  0
    7.9467  -15.5027   18.8693 N   0  0  0  0  0  0  0  0  0  0  0  0
    8.8826  -15.7386   21.0905 C   0  0  0  0  0  0  0  0  0  0  0  0
    8.0728  -16.6272   21.4539 O   0  0  0  0  0  0  0  0  0  0  0  0
   11.6826  -17.9977   21.1187 O   0  0  0  0  0  0  0  0  0  0  0  0
   10.6510  -17.9671   22.0623 C   0  0  0  0  0  0  0  0  0  0  0  0
   10.5322  -16.6199   22.7279 C   0  0  2  0  0  0  0  0  0  0  0  0
   10.1431  -15.6490   21.7256 N   0  0  0  0  0  0  0  0  0  0  0  0
   11.8612  -16.2983   23.3104 C   0  0  0  0  0  0  0  0  0  0  0  0
   12.4900  -15.3284   22.8472 O   0  0  0  0  0  0  0  0  0  0  0  0
   12.3297  -17.0942   24.3372 O   0  0  0  0  0  0  0  0  0  0  0  0
  2  3  1  0
  2  1  1  6
  4  2  1  0
  4  5  1  6
  6 12  1  0
  6  4  1  0
  7  6  2  0
  9  8  1  6
  9 11  1  0
 10  9  1  0
 11 13  1  0
 11 12  1  6
 13 18  1  0
 14 13  2  0
 15 16  1  0
 17 19  1  0
 17 16  1  6
 18 17  1  0
 19 20  2  0
 19 21  1  0
M  END
$$$$
