TVS.pdb
     RDKit          3D

 21 20  0  0  1  0  0  0  0  0999 V2000
    6.9168  -17.2601   20.3895 C   0  0  0  0  0  0  0  0  0  0  0  0
    7.6016  -16.7778   21.6110 C   0  0  1  0  0  0  0  0  0  0  0  0
    8.9283  -17.2070   21.6774 O   0  0  0  0  0  0  0  0  0  0  0  0
    7.5869  -15.3020   21.8435 C   0  0  2  0  0  0  0  0  0  0  0  0
    8.0408  -14.5570   20.6822 N   0  0  0  0  0  0  0  0  0  0  0  0
    8.2221  -14.8537   23.0820 C   0  0  0  0  0  0  0  0  0  0  0  0
    9.4486  -14.9039   23.3318 O   0  0  0  0  0  0  0  0  0  0  0  0
    6.5475  -11.8161   25.2569 C   0  0  0  0  0  0  0  0  0  0  0  0
    6.9241  -13.0114   26.0819 C   0  0  2  0  0  0  0  0  0  0  0  0
    7.3564  -12.5710   27.4440 C   0  0  0  0  0  0  0  0  0  0  0  0
    7.9333  -13.8835   25.3915 C   0  0  2  0  0  0  0  0  0  0  0  0
    7.4047  -14.3086   24.1125 N   0  0  0  0  0  0  0  0  0  0  0  0
    8.3465  -15.0397   26.2205 C   0  0  0  0  0  0  0  0  0  0  0  0
    7.6213  -16.0643   26.2640 O   0  0  0  0  0  0  0  0  0  0  0  0
   11.5785  -17.9967   27.4929 O   0  0  0  0  0  0  0  0  0  0  0  0
   11.1205  -16.8171   26.8976 C   0  0  0  0  0  0  0  0  0  0  0  0
    9.9987  -16.1857   27.6819 C   0  0  2  0  0  0  0  0  0  0  0  0
    9.5478  -15.0097   26.9663 N   0  0  0  0  0  0  0  0  0  0  0  0
   10.5412  -15.8340   29.0202 C   0  0  0  0  0  0  0  0  0  0  0  0
   10.7403  -14.6325   29.2796 O   0  0  0  0  0  0  0  0  0  0  0  0
   10.7965  -16.8610   29.9075 O   0  0  0  0  0  0  0  0  0  0  0  0
  2  3  1  0
  2  1  1  6
  4  2  1  0
  4  5  1  6
  6 12  1  0
  6  4  1  0
  7  6  2  0
  9  8  1  6
  9 11  1  0
 10  9  1  0
 11 13  1  0
 11 12  1  6
 13 18  1  0
 14 13  2  0
 15 16  1  0
 17 19  1  0
 17 16  1  6
 18 17  1  0
 19 20  2  0
 19 21  1  0
M  END
$$$$
