TVS.pdb
     RDKit          3D

 21 20  0  0  1  0  0  0  0  0999 V2000
    6.4648  -16.7033   20.4479 C   0  0  0  0  0  0  0  0  0  0  0  0
    7.0904  -16.3220   21.7351 C   0  0  1  0  0  0  0  0  0  0  0  0
    7.9668  -17.3007   22.2070 O   0  0  0  0  0  0  0  0  0  0  0  0
    7.8098  -15.0129   21.7635 C   0  0  2  0  0  0  0  0  0  0  0  0
    8.7507  -14.8776   20.6654 N   0  0  0  0  0  0  0  0  0  0  0  0
    8.3937  -14.6435   23.0523 C   0  0  0  0  0  0  0  0  0  0  0  0
    9.6079  -14.7186   23.3508 O   0  0  0  0  0  0  0  0  0  0  0  0
    6.6450  -11.7926   25.3584 C   0  0  0  0  0  0  0  0  0  0  0  0
    6.9850  -13.0311   26.1341 C   0  0  2  0  0  0  0  0  0  0  0  0
    7.3953  -12.6616   27.5238 C   0  0  0  0  0  0  0  0  0  0  0  0
    7.9947  -13.8871   25.4245 C   0  0  2  0  0  0  0  0  0  0  0  0
    7.5358  -14.1529   24.0774 N   0  0  0  0  0  0  0  0  0  0  0  0
    8.2902  -15.1412   26.1556 C   0  0  0  0  0  0  0  0  0  0  0  0
    7.3835  -15.9953   26.3169 O   0  0  0  0  0  0  0  0  0  0  0  0
   12.0919  -16.6547   26.4872 O   0  0  0  0  0  0  0  0  0  0  0  0
   10.9096  -17.3882   26.6280 C   0  0  0  0  0  0  0  0  0  0  0  0
    9.8569  -16.6245   27.3901 C   0  0  2  0  0  0  0  0  0  0  0  0
    9.5803  -15.3943   26.6770 N   0  0  0  0  0  0  0  0  0  0  0  0
   10.4032  -16.3567   28.7463 C   0  0  0  0  0  0  0  0  0  0  0  0
   10.5829  -15.1726   29.0872 O   0  0  0  0  0  0  0  0  0  0  0  0
   10.6831  -17.4379   29.5584 O   0  0  0  0  0  0  0  0  0  0  0  0
  2  3  1  0
  2  1  1  6
  4  2  1  0
  4  5  1  6
  6 12  1  0
  6  4  1  0
  7  6  2  0
  9  8  1  6
  9 11  1  0
 10  9  1  0
 11 13  1  0
 11 12  1  6
 13 18  1  0
 14 13  2  0
 15 16  1  0
 17 19  1  0
 17 16  1  6
 18 17  1  0
 19 20  2  0
 19 21  1  0
M  END
$$$$
