TVS.pdb
     RDKit          3D

 21 20  0  0  1  0  0  0  0  0999 V2000
    7.0343  -19.2485   19.2287 C   0  0  0  0  0  0  0  0  0  0  0  0
    7.7598  -18.9254   17.9785 C   0  0  1  0  0  0  0  0  0  0  0  0
    7.2089  -19.5661   16.8673 O   0  0  0  0  0  0  0  0  0  0  0  0
    7.9007  -17.4756   17.6464 C   0  0  2  0  0  0  0  0  0  0  0  0
    8.4193  -17.2656   16.3060 N   0  0  0  0  0  0  0  0  0  0  0  0
    8.5900  -16.6644   18.6489 C   0  0  0  0  0  0  0  0  0  0  0  0
    9.8101  -16.7285   18.9251 O   0  0  0  0  0  0  0  0  0  0  0  0
    7.3186  -12.8524   19.7523 C   0  0  0  0  0  0  0  0  0  0  0  0
    7.4661  -13.8455   20.8673 C   0  0  2  0  0  0  0  0  0  0  0  0
    7.8553  -13.1391   22.1266 C   0  0  0  0  0  0  0  0  0  0  0  0
    8.3927  -14.9712   20.5071 C   0  0  2  0  0  0  0  0  0  0  0  0
    7.8387  -15.7103   19.3923 N   0  0  0  0  0  0  0  0  0  0  0  0
    8.6824  -15.8586   21.6575 C   0  0  0  0  0  0  0  0  0  0  0  0
    7.7388  -16.4446   22.2438 O   0  0  0  0  0  0  0  0  0  0  0  0
   11.8518  -18.0384   21.7610 O   0  0  0  0  0  0  0  0  0  0  0  0
   10.8167  -18.2411   22.6791 C   0  0  0  0  0  0  0  0  0  0  0  0
   10.2802  -16.9418   23.2235 C   0  0  2  0  0  0  0  0  0  0  0  0
   10.0080  -16.0582   22.1084 N   0  0  0  0  0  0  0  0  0  0  0  0
   11.3209  -16.3788   24.1230 C   0  0  0  0  0  0  0  0  0  0  0  0
   11.8941  -15.3285   23.7781 O   0  0  0  0  0  0  0  0  0  0  0  0
   11.5977  -17.0518   25.2966 O   0  0  0  0  0  0  0  0  0  0  0  0
  2  3  1  0
  2  1  1  1
  4  2  1  0
  4  5  1  6
  6 12  1  0
  6  4  1  0
  7  6  2  0
  9  8  1  6
  9 11  1  0
 10  9  1  0
 11 13  1  0
 11 12  1  6
 13 18  1  0
 14 13  2  0
 15 16  1  0
 17 19  1  0
 17 16  1  6
 18 17  1  0
 19 20  2  0
 19 21  1  0
M  END
$$$$
