TVS.pdb
     RDKit          3D

 21 20  0  0  1  0  0  0  0  0999 V2000
    6.3440  -16.3730   20.4122 C   0  0  0  0  0  0  0  0  0  0  0  0
    6.9560  -16.0119   21.7118 C   0  0  1  0  0  0  0  0  0  0  0  0
    7.8779  -16.9664   22.1451 O   0  0  0  0  0  0  0  0  0  0  0  0
    7.6148  -14.6732   21.7882 C   0  0  2  0  0  0  0  0  0  0  0  0
    8.5152  -14.4381   20.6730 N   0  0  0  0  0  0  0  0  0  0  0  0
    8.2194  -14.3420   23.0778 C   0  0  0  0  0  0  0  0  0  0  0  0
    9.4436  -14.3802   23.3403 O   0  0  0  0  0  0  0  0  0  0  0  0
    6.4866  -11.5514   25.4176 C   0  0  0  0  0  0  0  0  0  0  0  0
    6.8636  -12.7783   26.1948 C   0  0  2  0  0  0  0  0  0  0  0  0
    7.2977  -12.3915   27.5725 C   0  0  0  0  0  0  0  0  0  0  0  0
    7.8716  -13.6231   25.4697 C   0  0  2  0  0  0  0  0  0  0  0  0
    7.3716  -13.9378   24.1480 N   0  0  0  0  0  0  0  0  0  0  0  0
    8.2313  -14.8483   26.2208 C   0  0  0  0  0  0  0  0  0  0  0  0
    7.3950  -15.7791   26.3295 O   0  0  0  0  0  0  0  0  0  0  0  0
   11.9935  -16.1091   26.4459 O   0  0  0  0  0  0  0  0  0  0  0  0
   10.9073  -16.9314   26.7613 C   0  0  0  0  0  0  0  0  0  0  0  0
    9.8485  -16.1960   27.5426 C   0  0  2  0  0  0  0  0  0  0  0  0
    9.5048  -14.9886   26.8199 N   0  0  0  0  0  0  0  0  0  0  0  0
   10.4229  -15.8864   28.8781 C   0  0  0  0  0  0  0  0  0  0  0  0
   10.5022  -14.6929   29.2245 O   0  0  0  0  0  0  0  0  0  0  0  0
   10.8394  -16.9412   29.6660 O   0  0  0  0  0  0  0  0  0  0  0  0
  2  3  1  0
  2  1  1  6
  4  2  1  0
  4  5  1  6
  6 12  1  0
  6  4  1  0
  7  6  2  0
  9  8  1  6
  9 11  1  0
 10  9  1  0
 11 13  1  0
 11 12  1  6
 13 18  1  0
 14 13  2  0
 15 16  1  0
 17 19  1  0
 17 16  1  6
 18 17  1  0
 19 20  2  0
 19 21  1  0
M  END
$$$$
