TVS.pdb
     RDKit          3D

 21 20  0  0  1  0  0  0  0  0999 V2000
    6.4105  -16.9005   22.0420 C   0  0  0  0  0  0  0  0  0  0  0  0
    7.2225  -16.0671   21.1256 C   0  0  1  0  0  0  0  0  0  0  0  0
    6.7780  -16.1474   19.8047 O   0  0  0  0  0  0  0  0  0  0  0  0
    7.3492  -14.6206   21.4775 C   0  0  2  0  0  0  0  0  0  0  0  0
    7.8620  -13.8281   20.3736 N   0  0  0  0  0  0  0  0  0  0  0  0
    8.0338  -14.3373   22.7382 C   0  0  0  0  0  0  0  0  0  0  0  0
    9.2721  -14.2168   22.8841 O   0  0  0  0  0  0  0  0  0  0  0  0
    6.5806  -11.9030   25.4959 C   0  0  0  0  0  0  0  0  0  0  0  0
    6.9244  -13.2298   26.1064 C   0  0  2  0  0  0  0  0  0  0  0  0
    7.4485  -13.0289   27.4924 C   0  0  0  0  0  0  0  0  0  0  0  0
    7.8443  -14.0355   25.2345 C   0  0  2  0  0  0  0  0  0  0  0  0
    7.2554  -14.1792   23.9198 N   0  0  0  0  0  0  0  0  0  0  0  0
    8.1803  -15.3513   25.8265 C   0  0  0  0  0  0  0  0  0  0  0  0
    7.2778  -16.2102   25.9856 O   0  0  0  0  0  0  0  0  0  0  0  0
   10.9106  -17.5011   24.7274 O   0  0  0  0  0  0  0  0  0  0  0  0
   11.0458  -17.4912   26.1192 C   0  0  0  0  0  0  0  0  0  0  0  0
    9.8188  -16.9449   26.8035 C   0  0  2  0  0  0  0  0  0  0  0  0
    9.5046  -15.6582   26.2170 N   0  0  0  0  0  0  0  0  0  0  0  0
   10.1403  -16.8204   28.2493 C   0  0  0  0  0  0  0  0  0  0  0  0
   10.1537  -15.6827   28.7553 O   0  0  0  0  0  0  0  0  0  0  0  0
   10.4077  -17.9758   28.9566 O   0  0  0  0  0  0  0  0  0  0  0  0
  2  3  1  0
  2  1  1  1
  4  2  1  0
  4  5  1  6
  6 12  1  0
  6  4  1  0
  7  6  2  0
  9  8  1  6
  9 11  1  0
 10  9  1  0
 11 13  1  0
 11 12  1  6
 13 18  1  0
 14 13  2  0
 15 16  1  0
 17 19  1  0
 17 16  1  6
 18 17  1  0
 19 20  2  0
 19 21  1  0
M  END
$$$$
