TVS.pdb
     RDKit          3D

 21 20  0  0  1  0  0  0  0  0999 V2000
    6.4867  -16.5810   20.4390 C   0  0  0  0  0  0  0  0  0  0  0  0
    7.0948  -16.2290   21.7428 C   0  0  1  0  0  0  0  0  0  0  0  0
    7.9536  -17.2248   22.2114 O   0  0  0  0  0  0  0  0  0  0  0  0
    7.8266  -14.9280   21.8064 C   0  0  2  0  0  0  0  0  0  0  0  0
    8.7781  -14.7776   20.7194 N   0  0  0  0  0  0  0  0  0  0  0  0
    8.4030  -14.5931   23.1079 C   0  0  0  0  0  0  0  0  0  0  0  0
    9.6159  -14.6735   23.4104 O   0  0  0  0  0  0  0  0  0  0  0  0
    6.7788  -11.7500   25.5289 C   0  0  0  0  0  0  0  0  0  0  0  0
    6.9958  -13.0605   26.2266 C   0  0  2  0  0  0  0  0  0  0  0  0
    7.3557  -12.8189   27.6578 C   0  0  0  0  0  0  0  0  0  0  0  0
    7.9832  -13.9321   25.5049 C   0  0  2  0  0  0  0  0  0  0  0  0
    7.5388  -14.1332   24.1418 N   0  0  0  0  0  0  0  0  0  0  0  0
    8.2150  -15.2213   26.1970 C   0  0  0  0  0  0  0  0  0  0  0  0
    7.2815  -16.0571   26.2838 O   0  0  0  0  0  0  0  0  0  0  0  0
   11.7616  -17.0005   26.2132 O   0  0  0  0  0  0  0  0  0  0  0  0
   10.5701  -17.6493   26.5524 C   0  0  0  0  0  0  0  0  0  0  0  0
    9.6908  -16.7960   27.4303 C   0  0  2  0  0  0  0  0  0  0  0  0
    9.4739  -15.5284   26.7638 N   0  0  0  0  0  0  0  0  0  0  0  0
   10.4017  -16.6168   28.7233 C   0  0  0  0  0  0  0  0  0  0  0  0
   10.7477  -15.4667   29.0524 O   0  0  0  0  0  0  0  0  0  0  0  0
   10.6416  -17.7379   29.4930 O   0  0  0  0  0  0  0  0  0  0  0  0
  2  3  1  0
  2  1  1  6
  4  2  1  0
  4  5  1  6
  6 12  1  0
  6  4  1  0
  7  6  2  0
  9  8  1  6
  9 11  1  0
 10  9  1  0
 11 13  1  0
 11 12  1  6
 13 18  1  0
 14 13  2  0
 15 16  1  0
 17 19  1  0
 17 16  1  6
 18 17  1  0
 19 20  2  0
 19 21  1  0
M  END
$$$$
