TVS.pdb
     RDKit          3D

 21 20  0  0  1  0  0  0  0  0999 V2000
    7.4200  -19.3527   18.9754 C   0  0  0  0  0  0  0  0  0  0  0  0
    7.8953  -18.9001   17.6476 C   0  0  1  0  0  0  0  0  0  0  0  0
    7.2148  -19.5256   16.6014 O   0  0  0  0  0  0  0  0  0  0  0  0
    7.8651  -17.4277   17.3961 C   0  0  2  0  0  0  0  0  0  0  0  0
    8.1711  -17.0985   16.0150 N   0  0  0  0  0  0  0  0  0  0  0  0
    8.6169  -16.6111   18.3481 C   0  0  0  0  0  0  0  0  0  0  0  0
    9.8653  -16.5336   18.4154 O   0  0  0  0  0  0  0  0  0  0  0  0
    7.2699  -13.0099   19.7521 C   0  0  0  0  0  0  0  0  0  0  0  0
    7.6195  -13.9937   20.8297 C   0  0  2  0  0  0  0  0  0  0  0  0
    8.1346  -13.2673   22.0310 C   0  0  0  0  0  0  0  0  0  0  0  0
    8.5498  -15.0663   20.3401 C   0  0  2  0  0  0  0  0  0  0  0  0
    7.8984  -15.8248   19.2930 N   0  0  0  0  0  0  0  0  0  0  0  0
    9.0271  -15.9462   21.4322 C   0  0  0  0  0  0  0  0  0  0  0  0
    8.2340  -16.7610   21.9657 O   0  0  0  0  0  0  0  0  0  0  0  0
   12.6651  -17.0372   21.4077 O   0  0  0  0  0  0  0  0  0  0  0  0
   12.3040  -16.9913   22.7579 C   0  0  0  0  0  0  0  0  0  0  0  0
   10.8252  -16.7638   22.9411 C   0  0  2  0  0  0  0  0  0  0  0  0
   10.3652  -15.8842   21.8861 N   0  0  0  0  0  0  0  0  0  0  0  0
   10.6374  -16.1505   24.2820 C   0  0  0  0  0  0  0  0  0  0  0  0
   10.1224  -15.0186   24.3466 O   0  0  0  0  0  0  0  0  0  0  0  0
   11.0449  -16.8702   25.3878 O   0  0  0  0  0  0  0  0  0  0  0  0
  2  3  1  0
  2  1  1  1
  4  2  1  0
  4  5  1  6
  6 12  1  0
  6  4  1  0
  7  6  2  0
  9  8  1  6
  9 11  1  0
 10  9  1  0
 11 13  1  0
 11 12  1  6
 13 18  1  0
 14 13  2  0
 15 16  1  0
 17 19  1  0
 17 16  1  6
 18 17  1  0
 19 20  2  0
 19 21  1  0
M  END
$$$$
