TVS.pdb
     RDKit          3D

 21 20  0  0  1  0  0  0  0  0999 V2000
    6.6938  -19.1840   16.6350 C   0  0  0  0  0  0  0  0  0  0  0  0
    7.3761  -18.4193   17.7044 C   0  0  1  0  0  0  0  0  0  0  0  0
    8.2675  -19.2094   18.4324 O   0  0  0  0  0  0  0  0  0  0  0  0
    8.1021  -17.1844   17.2800 C   0  0  2  0  0  0  0  0  0  0  0  0
    9.0035  -17.4303   16.1680 N   0  0  0  0  0  0  0  0  0  0  0  0
    8.7337  -16.4241   18.3577 C   0  0  0  0  0  0  0  0  0  0  0  0
    9.9518  -16.4463   18.6485 O   0  0  0  0  0  0  0  0  0  0  0  0
    7.3850  -12.7456   19.3945 C   0  0  0  0  0  0  0  0  0  0  0  0
    7.5321  -13.6638   20.5720 C   0  0  2  0  0  0  0  0  0  0  0  0
    7.9362  -12.8788   21.7789 C   0  0  0  0  0  0  0  0  0  0  0  0
    8.4466  -14.8190   20.2812 C   0  0  2  0  0  0  0  0  0  0  0  0
    7.9225  -15.5763   19.1642 N   0  0  0  0  0  0  0  0  0  0  0  0
    8.6678  -15.6805   21.4660 C   0  0  0  0  0  0  0  0  0  0  0  0
    7.7674  -16.4752   21.8338 O   0  0  0  0  0  0  0  0  0  0  0  0
   11.3320  -18.0926   21.9090 O   0  0  0  0  0  0  0  0  0  0  0  0
   10.2180  -17.9325   22.7389 C   0  0  0  0  0  0  0  0  0  0  0  0
   10.1211  -16.5340   23.2931 C   0  0  2  0  0  0  0  0  0  0  0  0
    9.8799  -15.6233   22.1927 N   0  0  0  0  0  0  0  0  0  0  0  0
   11.4106  -16.2393   23.9711 C   0  0  0  0  0  0  0  0  0  0  0  0
   12.1674  -15.3937   23.4585 O   0  0  0  0  0  0  0  0  0  0  0  0
   11.7017  -16.9205   25.1365 O   0  0  0  0  0  0  0  0  0  0  0  0
  2  3  1  0
  2  1  1  6
  4  2  1  0
  4  5  1  6
  6 12  1  0
  6  4  1  0
  7  6  2  0
  9  8  1  6
  9 11  1  0
 10  9  1  0
 11 13  1  0
 11 12  1  6
 13 18  1  0
 14 13  2  0
 15 16  1  0
 17 19  1  0
 17 16  1  6
 18 17  1  0
 19 20  2  0
 19 21  1  0
M  END
$$$$
