TVS.pdb
     RDKit          3D

 21 20  0  0  1  0  0  0  0  0999 V2000
    7.9090  -19.2588   18.8944 C   0  0  0  0  0  0  0  0  0  0  0  0
    8.3213  -18.7862   17.5526 C   0  0  1  0  0  0  0  0  0  0  0  0
    7.6956  -19.4969   16.5268 O   0  0  0  0  0  0  0  0  0  0  0  0
    8.1399  -17.3294   17.2752 C   0  0  2  0  0  0  0  0  0  0  0  0
    8.4026  -16.9965   15.8860 N   0  0  0  0  0  0  0  0  0  0  0  0
    8.8104  -16.4232   18.2066 C   0  0  0  0  0  0  0  0  0  0  0  0
   10.0358  -16.1638   18.2164 O   0  0  0  0  0  0  0  0  0  0  0  0
    7.3870  -12.9355   19.7392 C   0  0  0  0  0  0  0  0  0  0  0  0
    7.6516  -13.9860   20.7773 C   0  0  2  0  0  0  0  0  0  0  0  0
    8.0651  -13.3379   22.0599 C   0  0  0  0  0  0  0  0  0  0  0  0
    8.6222  -15.0271   20.2980 C   0  0  2  0  0  0  0  0  0  0  0  0
    8.0324  -15.7631   19.1997 N   0  0  0  0  0  0  0  0  0  0  0  0
    9.0656  -15.9327   21.3834 C   0  0  0  0  0  0  0  0  0  0  0  0
    8.2737  -16.7968   21.8347 O   0  0  0  0  0  0  0  0  0  0  0  0
   12.8093  -17.2493   21.8111 O   0  0  0  0  0  0  0  0  0  0  0  0
   12.2892  -16.7694   23.0173 C   0  0  0  0  0  0  0  0  0  0  0  0
   10.7829  -16.7135   23.0020 C   0  0  2  0  0  0  0  0  0  0  0  0
   10.3701  -15.8407   21.9221 N   0  0  0  0  0  0  0  0  0  0  0  0
   10.3489  -16.1881   24.3229 C   0  0  0  0  0  0  0  0  0  0  0  0
    9.7676  -15.0875   24.3586 O   0  0  0  0  0  0  0  0  0  0  0  0
   10.6139  -16.9503   25.4435 O   0  0  0  0  0  0  0  0  0  0  0  0
  2  3  1  0
  2  1  1  1
  4  2  1  0
  4  5  1  6
  6 12  1  0
  6  4  1  0
  7  6  2  0
  9  8  1  6
  9 11  1  0
 10  9  1  0
 11 13  1  0
 11 12  1  6
 13 18  1  0
 14 13  2  0
 15 16  1  0
 17 19  1  0
 17 16  1  1
 18 17  1  0
 19 20  2  0
 19 21  1  0
M  END
$$$$
