TVS.pdb
     RDKit          3D

 21 20  0  0  1  0  0  0  0  0999 V2000
    5.9497  -15.0262   20.0917 C   0  0  0  0  0  0  0  0  0  0  0  0
    6.6328  -15.0074   21.4057 C   0  0  1  0  0  0  0  0  0  0  0  0
    7.3956  -16.1565   21.6212 O   0  0  0  0  0  0  0  0  0  0  0  0
    7.5001  -13.8241   21.6882 C   0  0  2  0  0  0  0  0  0  0  0  0
    8.3904  -13.5173   20.5824 N   0  0  0  0  0  0  0  0  0  0  0  0
    8.1909  -13.8435   22.9769 C   0  0  0  0  0  0  0  0  0  0  0  0
    9.3992  -14.1235   23.1521 O   0  0  0  0  0  0  0  0  0  0  0  0
    5.7814  -13.0962   26.4732 C   0  0  0  0  0  0  0  0  0  0  0  0
    7.2545  -12.8125   26.4440 C   0  0  2  0  0  0  0  0  0  0  0  0
    7.4851  -11.3575   26.1870 C   0  0  0  0  0  0  0  0  0  0  0  0
    7.9871  -13.7082   25.4867 C   0  0  2  0  0  0  0  0  0  0  0  0
    7.4558  -13.5213   24.1529 N   0  0  0  0  0  0  0  0  0  0  0  0
    7.9440  -15.1317   25.8945 C   0  0  0  0  0  0  0  0  0  0  0  0
    7.1103  -15.9060   25.3624 O   0  0  0  0  0  0  0  0  0  0  0  0
   10.9845  -18.1482   25.3447 O   0  0  0  0  0  0  0  0  0  0  0  0
   10.2669  -16.9563   25.4862 C   0  0  0  0  0  0  0  0  0  0  0  0
    9.4161  -16.9519   26.7305 C   0  0  2  0  0  0  0  0  0  0  0  0
    8.8286  -15.6358   26.8763 N   0  0  0  0  0  0  0  0  0  0  0  0
   10.3073  -17.2800   27.8738 C   0  0  0  0  0  0  0  0  0  0  0  0
   10.7242  -18.4485   27.9811 O   0  0  0  0  0  0  0  0  0  0  0  0
   10.6267  -16.2692   28.7588 O   0  0  0  0  0  0  0  0  0  0  0  0
  2  3  1  0
  2  1  1  6
  4  2  1  0
  4  5  1  6
  6 12  1  0
  6  4  1  0
  7  6  2  0
  9  8  1  6
  9 11  1  0
 10  9  1  0
 11 13  1  0
 11 12  1  6
 13 18  1  0
 14 13  2  0
 15 16  1  0
 17 19  1  0
 17 16  1  6
 18 17  1  0
 19 20  2  0
 19 21  1  0
M  END
$$$$
