RQC.pdb
     RDKit          3D

 27 26  0  0  1  0  0  0  0  0999 V2000
    8.7220  -12.5120   18.0141 N   0  0  0  0  0  0  0  0  0  0  0  0
    8.6077  -13.8475   17.5451 C   0  0  0  0  0  0  0  0  0  0  0  0
    9.1486  -14.1928   16.4356 N   0  0  0  0  0  0  0  0  0  0  0  0
    7.8769  -14.7881   18.3414 N   0  0  0  0  0  0  0  0  0  0  0  0
    7.1300  -14.3117   19.5076 C   0  0  0  0  0  0  0  0  0  0  0  0
    6.4953  -15.4551   20.2280 C   0  0  0  0  0  0  0  0  0  0  0  0
    7.4101  -16.3952   20.9129 C   0  0  0  0  0  0  0  0  0  0  0  0
    6.7949  -17.5248   21.6587 C   0  0  2  0  0  0  0  0  0  0  0  0
    5.5931  -18.0167   21.0592 N   0  0  0  0  0  0  0  0  0  0  0  0
    6.6397  -17.2434   23.1115 C   0  0  0  0  0  0  0  0  0  0  0  0
    5.4973  -16.9051   23.5288 O   0  0  0  0  0  0  0  0  0  0  0  0
    9.0615  -15.1794   16.1155 N   0  0  0  0  0  0  0  0  0  0  0  0
    9.7800  -20.0122   27.3419 C   0  0  0  0  0  0  0  0  0  0  0  0
    9.2000  -19.0623   28.2094 O   0  0  0  0  0  0  0  0  0  0  0  0
    9.4127  -19.1836   29.4420 C   0  0  0  0  0  0  0  0  0  0  0  0
    8.3459  -17.9277   27.6805 C   0  0  0  0  0  0  0  0  0  0  0  0
    8.2158  -18.0628   26.2128 C   0  0  1  0  0  0  0  0  0  0  0  0
    7.4871  -16.9925   25.4795 N   0  0  0  0  0  0  0  0  0  0  0  0
    7.6856  -17.3314   24.0451 C   0  0  0  0  0  0  0  0  0  0  0  0
    7.9343  -15.6176   25.7247 O   0  0  0  0  0  0  0  0  0  0  0  0
    8.9913  -15.1573   25.1573 N   0  0  0  0  0  0  0  0  0  0  0  0
    7.2700  -14.7026   26.5716 C   0  0  1  0  0  0  0  0  0  0  0  0
    7.8495  -13.3831   26.8371 C   0  0  0  0  0  0  0  0  0  0  0  0
    6.8646  -12.4981   27.5668 S   0  0  0  0  0  0  0  0  0  0  0  0
    5.2177  -12.5176   26.8633 C   0  0  0  0  0  0  0  0  0  0  0  0
    9.0126  -13.5517   27.7313 O   0  0  0  0  0  0  0  0  0  0  0  0
    9.8118  -12.4908   28.1275 O   0  0  0  0  0  0  0  0  0  0  0  0
  1  2  1  0
  2  3  2  0
  4  2  1  0
  5  4  1  0
  6  5  1  0
  7  6  1  0
  8  7  1  0
  8  9  1  6
 10  8  1  0
 10 18  1  0
 11 10  2  0
 13 12  1  0
 14 13  2  0
 15 13  1  0
 17 16  1  1
 16 15  1  0
 17 18  1  0
 19 17  1  0
 20 19  2  0
 21 19  1  0
 22 25  1  0
 22 21  1  0
 23 24  1  0
 22 23  1  1
 25 26  1  0
 27 25  2  0
M  END
$$$$
