RQC.pdb
     RDKit          3D

 27 26  0  0  1  0  0  0  0  0999 V2000
    8.9313  -13.2839   17.5461 N   0  0  0  0  0  0  0  0  0  0  0  0
    8.6666  -13.1359   18.9334 C   0  0  0  0  0  0  0  0  0  0  0  0
    8.7771  -11.9890   19.4949 N   0  0  0  0  0  0  0  0  0  0  0  0
    8.2763  -14.2952   19.6792 N   0  0  0  0  0  0  0  0  0  0  0  0
    7.5145  -15.3532   19.0120 C   0  0  0  0  0  0  0  0  0  0  0  0
    6.2895  -15.6925   19.7953 C   0  0  0  0  0  0  0  0  0  0  0  0
    6.4525  -15.8072   21.2616 C   0  0  0  0  0  0  0  0  0  0  0  0
    6.5524  -17.1766   21.8321 C   0  0  2  0  0  0  0  0  0  0  0  0
    5.5193  -18.0581   21.3834 N   0  0  0  0  0  0  0  0  0  0  0  0
    6.7072  -17.1777   23.3119 C   0  0  0  0  0  0  0  0  0  0  0  0
    5.6631  -17.0807   24.0150 O   0  0  0  0  0  0  0  0  0  0  0  0
    8.6629  -11.9177   20.5271 N   0  0  0  0  0  0  0  0  0  0  0  0
    6.3450  -20.8569   26.3014 C   0  0  0  0  0  0  0  0  0  0  0  0
    7.5867  -20.2460   26.5778 O   0  0  0  0  0  0  0  0  0  0  0  0
    7.9189  -20.1063   27.7817 C   0  0  0  0  0  0  0  0  0  0  0  0
    8.4979  -19.7702   25.4643 C   0  0  0  0  0  0  0  0  0  0  0  0
    8.9603  -18.3982   25.7696 C   0  0  2  0  0  0  0  0  0  0  0  0
    8.0412  -17.2706   25.4567 N   0  0  0  0  0  0  0  0  0  0  0  0
    7.9425  -17.2800   23.9728 C   0  0  0  0  0  0  0  0  0  0  0  0
    8.4653  -15.9423   25.9112 O   0  0  0  0  0  0  0  0  0  0  0  0
    9.4338  -15.3263   25.3339 N   0  0  0  0  0  0  0  0  0  0  0  0
    7.8704  -15.2392   26.9825 C   0  0  1  0  0  0  0  0  0  0  0  0
    8.3906  -13.9315   27.3905 C   0  0  0  0  0  0  0  0  0  0  0  0
    7.3447  -13.1480   28.1509 S   0  0  0  0  0  0  0  0  0  0  0  0
    5.7169  -13.2053   27.4063 C   0  0  0  0  0  0  0  0  0  0  0  0
    9.5202  -14.1433   28.3178 O   0  0  0  0  0  0  0  0  0  0  0  0
   10.2815  -13.0997   28.8204 O   0  0  0  0  0  0  0  0  0  0  0  0
  1  2  1  0
  2  3  2  0
  4  2  1  0
  5  4  1  0
  6  5  1  0
  7  6  1  0
  8  7  1  0
  8  9  1  1
 10  8  1  0
 10 18  1  0
 11 10  2  0
 13 12  1  0
 14 13  2  0
 15 13  1  0
 17 16  1  1
 16 15  1  0
 17 18  1  0
 19 17  1  0
 20 19  2  0
 21 19  1  0
 22 25  1  0
 22 21  1  0
 23 24  1  0
 22 23  1  1
 25 26  1  0
 27 25  2  0
M  END
$$$$
