RQC.pdb
     RDKit          3D

 27 26  0  0  1  0  0  0  0  0999 V2000
    7.6925  -14.3374   14.3779 N   0  0  0  0  0  0  0  0  0  0  0  0
    8.6776  -14.1559   15.3845 C   0  0  0  0  0  0  0  0  0  0  0  0
    9.7143  -14.9088   15.4192 N   0  0  0  0  0  0  0  0  0  0  0  0
    8.4800  -13.1164   16.3504 N   0  0  0  0  0  0  0  0  0  0  0  0
    8.4230  -13.4613   17.7726 C   0  0  0  0  0  0  0  0  0  0  0  0
    7.6517  -14.7233   17.9767 C   0  0  0  0  0  0  0  0  0  0  0  0
    7.4827  -15.1765   19.3752 C   0  0  0  0  0  0  0  0  0  0  0  0
    8.6943  -15.1973   20.2369 C   0  0  2  0  0  0  0  0  0  0  0  0
    9.7686  -15.9681   19.6917 N   0  0  0  0  0  0  0  0  0  0  0  0
    8.3933  -15.5493   21.6509 C   0  0  0  0  0  0  0  0  0  0  0  0
    7.2917  -15.1651   22.1335 O   0  0  0  0  0  0  0  0  0  0  0  0
   10.4261  -14.7561   16.1632 N   0  0  0  0  0  0  0  0  0  0  0  0
   11.7164  -19.3952   25.4225 C   0  0  0  0  0  0  0  0  0  0  0  0
   11.1335  -19.6816   24.1697 O   0  0  0  0  0  0  0  0  0  0  0  0
   11.5875  -20.6556   23.5181 C   0  0  0  0  0  0  0  0  0  0  0  0
    9.9952  -18.8465   23.6188 C   0  0  0  0  0  0  0  0  0  0  0  0
    9.9584  -17.5490   24.3292 C   0  0  2  0  0  0  0  0  0  0  0  0
    8.9355  -16.5549   23.9055 N   0  0  0  0  0  0  0  0  0  0  0  0
    9.2588  -16.2820   22.4797 C   0  0  0  0  0  0  0  0  0  0  0  0
    8.9086  -15.2929   24.6520 O   0  0  0  0  0  0  0  0  0  0  0  0
    9.9006  -14.4777   24.6045 N   0  0  0  0  0  0  0  0  0  0  0  0
    7.8304  -14.8677   25.4599 C   0  0  1  0  0  0  0  0  0  0  0  0
    7.8816  -13.5722   26.1427 C   0  0  0  0  0  0  0  0  0  0  0  0
    6.5088  -12.9421   26.2083 S   0  0  0  0  0  0  0  0  0  0  0  0
    6.4676  -11.3933   27.1064 C   0  0  0  0  0  0  0  0  0  0  0  0
    8.3151  -13.7924   27.5371 O   0  0  0  0  0  0  0  0  0  0  0  0
    8.6955  -12.7558   28.3750 O   0  0  0  0  0  0  0  0  0  0  0  0
  1  2  1  0
  2  3  2  0
  4  2  1  0
  5  4  1  0
  6  5  1  0
  7  6  1  0
  8  7  1  0
  8  9  1  6
 10  8  1  0
 10 18  1  0
 11 10  2  0
 13 12  1  0
 14 13  2  0
 15 13  1  0
 17 16  1  6
 16 15  1  0
 17 18  1  0
 19 17  1  0
 20 19  2  0
 21 19  1  0
 22 25  1  0
 22 21  1  0
 23 24  1  0
 22 23  1  1
 25 26  1  0
 27 25  2  0
M  END
$$$$
