RQC.pdb
     RDKit          3D

 27 26  0  0  1  0  0  0  0  0999 V2000
    7.8405  -13.6386   16.8997 N   0  0  0  0  0  0  0  0  0  0  0  0
    8.0694  -13.3144   18.2632 C   0  0  0  0  0  0  0  0  0  0  0  0
    8.9824  -12.4740   18.5844 N   0  0  0  0  0  0  0  0  0  0  0  0
    7.2574  -13.9482   19.2590 N   0  0  0  0  0  0  0  0  0  0  0  0
    6.8757  -15.3513   19.0852 C   0  0  0  0  0  0  0  0  0  0  0  0
    8.0548  -16.1697   18.6740 C   0  0  0  0  0  0  0  0  0  0  0  0
    8.5637  -17.1422   19.6665 C   0  0  0  0  0  0  0  0  0  0  0  0
    9.3633  -16.6059   20.7995 C   0  0  2  0  0  0  0  0  0  0  0  0
   10.0100  -15.3650   20.5041 N   0  0  0  0  0  0  0  0  0  0  0  0
   10.2902  -17.6135   21.3822 C   0  0  0  0  0  0  0  0  0  0  0  0
    9.8062  -18.7222   21.7432 O   0  0  0  0  0  0  0  0  0  0  0  0
    9.1468  -12.2655   19.5909 N   0  0  0  0  0  0  0  0  0  0  0  0
   17.3285  -19.5052   21.2346 C   0  0  0  0  0  0  0  0  0  0  0  0
   16.2817  -18.5767   21.4167 O   0  0  0  0  0  0  0  0  0  0  0  0
   16.4227  -17.4274   20.9282 C   0  0  0  0  0  0  0  0  0  0  0  0
   15.0229  -18.9447   22.1759 C   0  0  0  0  0  0  0  0  0  0  0  0
   13.8781  -18.2007   21.6055 C   0  0  1  0  0  0  0  0  0  0  0  0
   12.5375  -18.4170   22.2141 N   0  0  0  0  0  0  0  0  0  0  0  0
   11.6687  -17.4061   21.5545 C   0  0  0  0  0  0  0  0  0  0  0  0
   12.4528  -18.2611   23.6698 O   0  0  0  0  0  0  0  0  0  0  0  0
   12.5646  -17.1036   24.2162 N   0  0  0  0  0  0  0  0  0  0  0  0
   12.2445  -19.3259   24.5746 C   0  0  1  0  0  0  0  0  0  0  0  0
   12.1427  -19.0670   26.0132 C   0  0  0  0  0  0  0  0  0  0  0  0
   10.7350  -18.6648   26.3908 S   0  0  0  0  0  0  0  0  0  0  0  0
   10.4194  -18.7104   28.1531 C   0  0  0  0  0  0  0  0  0  0  0  0
   12.4356  -20.3197   26.7384 O   0  0  0  0  0  0  0  0  0  0  0  0
   12.7206  -20.3502   28.0945 O   0  0  0  0  0  0  0  0  0  0  0  0
  1  2  1  0
  2  3  2  0
  4  2  1  0
  5  4  1  0
  6  5  1  0
  7  6  1  0
  8  7  1  0
  8  9  1  6
 10  8  1  0
 10 18  1  0
 11 10  2  0
 13 12  1  0
 14 13  2  0
 15 13  1  0
 17 16  1  6
 16 15  1  0
 17 18  1  0
 19 17  1  0
 20 19  2  0
 21 19  1  0
 22 25  1  0
 22 21  1  0
 23 24  1  0
 22 23  1  1
 25 26  1  0
 27 25  2  0
M  END
$$$$
