RQC.pdb
     RDKit          3D

 27 26  0  0  1  0  0  0  0  0999 V2000
    9.2602  -15.0203   15.4276 N   0  0  0  0  0  0  0  0  0  0  0  0
    8.4820  -13.8395   15.5584 C   0  0  0  0  0  0  0  0  0  0  0  0
    8.1342  -13.1749   14.5191 N   0  0  0  0  0  0  0  0  0  0  0  0
    8.1012  -13.4178   16.8736 N   0  0  0  0  0  0  0  0  0  0  0  0
    8.5673  -14.1806   18.0336 C   0  0  0  0  0  0  0  0  0  0  0  0
    7.6515  -15.3266   18.3114 C   0  0  0  0  0  0  0  0  0  0  0  0
    7.3372  -15.5928   19.7327 C   0  0  0  0  0  0  0  0  0  0  0  0
    7.9363  -16.8063   20.3485 C   0  0  2  0  0  0  0  0  0  0  0  0
    7.5401  -18.0240   19.7113 N   0  0  0  0  0  0  0  0  0  0  0  0
    7.7682  -16.8490   21.8262 C   0  0  0  0  0  0  0  0  0  0  0  0
    6.6506  -17.2180   22.2831 O   0  0  0  0  0  0  0  0  0  0  0  0
    7.5668  -12.3103   14.6378 N   0  0  0  0  0  0  0  0  0  0  0  0
   11.8191  -18.5745   25.7361 C   0  0  0  0  0  0  0  0  0  0  0  0
   11.0191  -17.9151   26.6935 O   0  0  0  0  0  0  0  0  0  0  0  0
   11.3645  -17.9876   27.8996 C   0  0  0  0  0  0  0  0  0  0  0  0
    9.7804  -17.1413   26.2894 C   0  0  0  0  0  0  0  0  0  0  0  0
    9.6418  -17.1834   24.8168 C   0  0  1  0  0  0  0  0  0  0  0  0
    8.5147  -16.4293   24.2042 N   0  0  0  0  0  0  0  0  0  0  0  0
    8.7760  -16.5045   22.7421 C   0  0  0  0  0  0  0  0  0  0  0  0
    8.3785  -15.0256   24.6062 O   0  0  0  0  0  0  0  0  0  0  0  0
    9.2836  -14.1638   24.3079 N   0  0  0  0  0  0  0  0  0  0  0  0
    7.2806  -14.5064   25.3280 C   0  0  1  0  0  0  0  0  0  0  0  0
    7.3069  -13.1292   25.8280 C   0  0  0  0  0  0  0  0  0  0  0  0
    5.9063  -12.6232   26.0893 S   0  0  0  0  0  0  0  0  0  0  0  0
    5.8549  -11.0167   26.8793 C   0  0  0  0  0  0  0  0  0  0  0  0
    8.0132  -13.1132   27.1248 O   0  0  0  0  0  0  0  0  0  0  0  0
    8.7901  -12.0432   27.5406 O   0  0  0  0  0  0  0  0  0  0  0  0
  1  2  1  0
  2  3  2  0
  4  2  1  0
  5  4  1  0
  6  5  1  0
  7  6  1  0
  8  7  1  0
  8  9  1  6
 10  8  1  0
 10 18  1  0
 11 10  2  0
 13 12  1  0
 14 13  2  0
 15 13  1  0
 17 16  1  6
 16 15  1  0
 17 18  1  0
 19 17  1  0
 20 19  2  0
 21 19  1  0
 22 25  1  0
 22 21  1  0
 23 24  1  0
 22 23  1  1
 25 26  1  0
 27 25  2  0
M  END
$$$$
