RQC.pdb
     RDKit          3D

 27 26  0  0  1  0  0  0  0  0999 V2000
    7.5558  -15.7113   13.3121 N   0  0  0  0  0  0  0  0  0  0  0  0
    8.0339  -17.0417   13.1773 C   0  0  0  0  0  0  0  0  0  0  0  0
    8.6115  -17.4158   12.0960 N   0  0  0  0  0  0  0  0  0  0  0  0
    7.8531  -17.9442   14.2752 N   0  0  0  0  0  0  0  0  0  0  0  0
    7.1923  -17.4683   15.4925 C   0  0  0  0  0  0  0  0  0  0  0  0
    8.1539  -17.4363   16.6342 C   0  0  0  0  0  0  0  0  0  0  0  0
    7.6459  -16.8890   17.9117 C   0  0  0  0  0  0  0  0  0  0  0  0
    7.6607  -17.7902   19.0942 C   0  0  2  0  0  0  0  0  0  0  0  0
    7.0686  -19.0681   18.8448 N   0  0  0  0  0  0  0  0  0  0  0  0
    7.1313  -17.1410   20.3239 C   0  0  0  0  0  0  0  0  0  0  0  0
    6.4042  -16.1182   20.1855 O   0  0  0  0  0  0  0  0  0  0  0  0
    8.9775  -18.3879   12.0279 N   0  0  0  0  0  0  0  0  0  0  0  0
    2.9878  -20.0507   21.9621 C   0  0  0  0  0  0  0  0  0  0  0  0
    2.9634  -18.7921   21.3243 O   0  0  0  0  0  0  0  0  0  0  0  0
    1.8893  -18.4268   20.7839 C   0  0  0  0  0  0  0  0  0  0  0  0
    4.1892  -17.9018   21.2871 C   0  0  0  0  0  0  0  0  0  0  0  0
    5.2865  -18.5568   22.0329 C   0  0  2  0  0  0  0  0  0  0  0  0
    6.3197  -17.6850   22.6549 N   0  0  0  0  0  0  0  0  0  0  0  0
    7.3908  -17.5965   21.6271 C   0  0  0  0  0  0  0  0  0  0  0  0
    6.8919  -18.1577   23.9197 O   0  0  0  0  0  0  0  0  0  0  0  0
    6.1481  -18.3447   24.9505 N   0  0  0  0  0  0  0  0  0  0  0  0
    8.2610  -18.4451   24.1168 C   0  0  2  0  0  0  0  0  0  0  0  0
    8.7057  -19.1400   25.3279 C   0  0  0  0  0  0  0  0  0  0  0  0
   10.1654  -19.5204   25.2266 S   0  0  0  0  0  0  0  0  0  0  0  0
   11.2196  -18.1914   24.6524 C   0  0  0  0  0  0  0  0  0  0  0  0
    8.5864  -18.2138   26.4720 O   0  0  0  0  0  0  0  0  0  0  0  0
    8.8008  -18.6118   27.7823 O   0  0  0  0  0  0  0  0  0  0  0  0
  1  2  1  0
  2  3  2  0
  4  2  1  0
  5  4  1  0
  6  5  1  0
  7  6  1  0
  8  7  1  0
  8  9  1  6
 10  8  1  0
 10 18  1  0
 11 10  2  0
 13 12  1  0
 14 13  2  0
 15 13  1  0
 17 16  1  6
 16 15  1  0
 17 18  1  0
 19 17  1  0
 20 19  2  0
 21 19  1  0
 22 25  1  0
 22 21  1  0
 23 24  1  0
 22 23  1  6
 25 26  1  0
 27 25  2  0
M  END
$$$$
