RQC.pdb
     RDKit          3D

 27 26  0  0  1  0  0  0  0  0999 V2000
    8.5064  -13.9629   18.6712 N   0  0  0  0  0  0  0  0  0  0  0  0
    8.5422  -12.8740   19.5821 C   0  0  0  0  0  0  0  0  0  0  0  0
    9.2238  -11.8234   19.3090 N   0  0  0  0  0  0  0  0  0  0  0  0
    7.8010  -12.9838   20.8033 N   0  0  0  0  0  0  0  0  0  0  0  0
    7.8002  -14.2558   21.5289 C   0  0  0  0  0  0  0  0  0  0  0  0
    7.0659  -15.3012   20.7562 C   0  0  0  0  0  0  0  0  0  0  0  0
    6.0785  -16.1077   21.5074 C   0  0  0  0  0  0  0  0  0  0  0  0
    6.5448  -17.3990   22.0783 C   0  0  2  0  0  0  0  0  0  0  0  0
    6.0295  -18.5443   21.3939 N   0  0  0  0  0  0  0  0  0  0  0  0
    6.3628  -17.4797   23.5528 C   0  0  0  0  0  0  0  0  0  0  0  0
    5.1835  -17.5293   24.0005 O   0  0  0  0  0  0  0  0  0  0  0  0
    9.2398  -11.0386   19.9926 N   0  0  0  0  0  0  0  0  0  0  0  0
    8.9699  -20.2400   28.4268 C   0  0  0  0  0  0  0  0  0  0  0  0
    9.8363  -19.6709   27.4693 O   0  0  0  0  0  0  0  0  0  0  0  0
   11.0732  -19.7399   27.6801 C   0  0  0  0  0  0  0  0  0  0  0  0
    9.3011  -18.9956   26.2226 C   0  0  0  0  0  0  0  0  0  0  0  0
    7.8270  -18.9068   26.3147 C   0  0  1  0  0  0  0  0  0  0  0  0
    7.1848  -17.6181   25.9389 N   0  0  0  0  0  0  0  0  0  0  0  0
    7.4220  -17.5041   24.4752 C   0  0  0  0  0  0  0  0  0  0  0  0
    7.6932  -16.4189   26.6126 O   0  0  0  0  0  0  0  0  0  0  0  0
    7.6417  -16.3097   27.8918 N   0  0  0  0  0  0  0  0  0  0  0  0
    8.2691  -15.3142   25.9463 C   0  0  2  0  0  0  0  0  0  0  0  0
    8.8343  -14.1995   26.7113 C   0  0  0  0  0  0  0  0  0  0  0  0
    7.7405  -13.3075   27.2533 S   0  0  0  0  0  0  0  0  0  0  0  0
    6.5307  -12.8215   26.0255 C   0  0  0  0  0  0  0  0  0  0  0  0
    9.5534  -14.7473   27.8791 O   0  0  0  0  0  0  0  0  0  0  0  0
   10.3693  -13.9711   28.6871 O   0  0  0  0  0  0  0  0  0  0  0  0
  1  2  1  0
  2  3  2  0
  4  2  1  0
  5  4  1  0
  6  5  1  0
  7  6  1  0
  8  7  1  0
  8  9  1  6
 10  8  1  0
 10 18  1  0
 11 10  2  0
 13 12  1  0
 14 13  2  0
 15 13  1  0
 17 16  1  6
 16 15  1  0
 17 18  1  0
 19 17  1  0
 20 19  2  0
 21 19  1  0
 22 25  1  0
 22 21  1  0
 23 24  1  0
 22 23  1  6
 25 26  1  0
 27 25  2  0
M  END
$$$$
