RQC.pdb
     RDKit          3D

 27 26  0  0  1  0  0  0  0  0999 V2000
    8.2476  -15.8335   16.4301 N   0  0  0  0  0  0  0  0  0  0  0  0
    8.1673  -14.4996   15.9494 C   0  0  0  0  0  0  0  0  0  0  0  0
    8.9071  -14.1169   14.9751 N   0  0  0  0  0  0  0  0  0  0  0  0
    7.2438  -13.6036   16.5794 N   0  0  0  0  0  0  0  0  0  0  0  0
    7.2201  -13.5103   18.0408 C   0  0  0  0  0  0  0  0  0  0  0  0
    8.5888  -13.7110   18.6025 C   0  0  0  0  0  0  0  0  0  0  0  0
    8.7272  -13.5808   20.0700 C   0  0  0  0  0  0  0  0  0  0  0  0
    9.1193  -14.7978   20.8291 C   0  0  2  0  0  0  0  0  0  0  0  0
    8.1786  -15.8690   20.7147 N   0  0  0  0  0  0  0  0  0  0  0  0
    9.4900  -14.5057   22.2401 C   0  0  0  0  0  0  0  0  0  0  0  0
   10.3704  -13.6254   22.4494 O   0  0  0  0  0  0  0  0  0  0  0  0
    8.8523  -13.1274   14.6565 N   0  0  0  0  0  0  0  0  0  0  0  0
    5.0257  -14.0308   26.3491 C   0  0  0  0  0  0  0  0  0  0  0  0
    6.0923  -13.1472   26.6195 O   0  0  0  0  0  0  0  0  0  0  0  0
    5.8103  -11.9833   27.0005 C   0  0  0  0  0  0  0  0  0  0  0  0
    7.5359  -13.5793   26.4586 C   0  0  0  0  0  0  0  0  0  0  0  0
    7.7127  -14.1899   25.1224 C   0  0  2  0  0  0  0  0  0  0  0  0
    9.0827  -14.6200   24.7320 N   0  0  0  0  0  0  0  0  0  0  0  0
    8.9207  -15.1490   23.3515 C   0  0  0  0  0  0  0  0  0  0  0  0
    9.7080  -15.6416   25.5781 O   0  0  0  0  0  0  0  0  0  0  0  0
    9.5032  -16.8916   25.3624 N   0  0  0  0  0  0  0  0  0  0  0  0
   10.5647  -15.3604   26.6657 C   0  0  2  0  0  0  0  0  0  0  0  0
   10.9590  -16.4243   27.5930 C   0  0  0  0  0  0  0  0  0  0  0  0
   10.7400  -15.9988   29.0271 S   0  0  0  0  0  0  0  0  0  0  0  0
   10.9306  -14.2384   29.2949 C   0  0  0  0  0  0  0  0  0  0  0  0
   10.0912  -17.5964   27.3603 O   0  0  0  0  0  0  0  0  0  0  0  0
   10.3160  -18.8250   27.9613 O   0  0  0  0  0  0  0  0  0  0  0  0
  1  2  1  0
  2  3  2  0
  4  2  1  0
  5  4  1  0
  6  5  1  0
  7  6  1  0
  8  7  1  0
  8  9  1  1
 10  8  1  0
 10 18  1  0
 11 10  2  0
 13 12  1  0
 14 13  2  0
 15 13  1  0
 17 16  1  6
 16 15  1  0
 17 18  1  0
 19 17  1  0
 20 19  2  0
 21 19  1  0
 22 25  1  0
 22 21  1  0
 23 24  1  0
 22 23  1  6
 25 26  1  0
 27 25  2  0
M  END
$$$$
