RQC.pdb
     RDKit          3D

 27 26  0  0  1  0  0  0  0  0999 V2000
   11.2749  -14.7987   21.3089 N   0  0  0  0  0  0  0  0  0  0  0  0
   11.8389  -14.3934   20.0702 C   0  0  0  0  0  0  0  0  0  0  0  0
   12.9836  -14.8383   19.7034 N   0  0  0  0  0  0  0  0  0  0  0  0
   11.0975  -13.4814   19.2510 N   0  0  0  0  0  0  0  0  0  0  0  0
    9.8433  -13.9254   18.6390 C   0  0  0  0  0  0  0  0  0  0  0  0
    8.6897  -13.1484   19.1820 C   0  0  0  0  0  0  0  0  0  0  0  0
    7.5123  -13.9308   19.6193 C   0  0  0  0  0  0  0  0  0  0  0  0
    7.7374  -15.3531   19.9897 C   0  0  2  0  0  0  0  0  0  0  0  0
    6.9549  -16.2727   19.2231 N   0  0  0  0  0  0  0  0  0  0  0  0
    7.6360  -15.5931   21.4546 C   0  0  0  0  0  0  0  0  0  0  0  0
    6.4839  -15.6231   21.9698 O   0  0  0  0  0  0  0  0  0  0  0  0
   13.4121  -14.4725   18.8282 N   0  0  0  0  0  0  0  0  0  0  0  0
   11.2229  -19.2749   24.6586 C   0  0  0  0  0  0  0  0  0  0  0  0
   11.0106  -18.2876   25.6442 O   0  0  0  0  0  0  0  0  0  0  0  0
   11.7918  -18.2607   26.6282 C   0  0  0  0  0  0  0  0  0  0  0  0
    9.8787  -17.2866   25.5283 C   0  0  0  0  0  0  0  0  0  0  0  0
    9.6110  -17.0215   24.0974 C   0  0  1  0  0  0  0  0  0  0  0  0
    8.5864  -15.9960   23.7617 N   0  0  0  0  0  0  0  0  0  0  0  0
    8.7427  -15.7882   22.2975 C   0  0  0  0  0  0  0  0  0  0  0  0
    8.7047  -14.7091   24.4548 O   0  0  0  0  0  0  0  0  0  0  0  0
    9.6489  -13.8879   24.1631 N   0  0  0  0  0  0  0  0  0  0  0  0
    7.8245  -14.2650   25.4667 C   0  0  1  0  0  0  0  0  0  0  0  0
    8.0332  -12.9666   26.1132 C   0  0  0  0  0  0  0  0  0  0  0  0
    6.7125  -12.2933   26.4102 S   0  0  0  0  0  0  0  0  0  0  0  0
    5.4849  -13.3908   27.1143 C   0  0  0  0  0  0  0  0  0  0  0  0
    8.6980  -13.1899   27.4128 O   0  0  0  0  0  0  0  0  0  0  0  0
    9.1733  -12.1515   28.1983 O   0  0  0  0  0  0  0  0  0  0  0  0
  1  2  1  0
  2  3  2  0
  4  2  1  0
  5  4  1  0
  6  5  1  0
  7  6  1  0
  8  7  1  0
  8  9  1  6
 10  8  1  0
 10 18  1  0
 11 10  2  0
 13 12  1  0
 14 13  2  0
 15 13  1  0
 17 16  1  6
 16 15  1  0
 17 18  1  0
 19 17  1  0
 20 19  2  0
 21 19  1  0
 22 25  1  0
 22 21  1  0
 23 24  1  0
 22 23  1  1
 25 26  1  0
 27 25  2  0
M  END
$$$$
