RQC.pdb
     RDKit          3D

 27 26  0  0  1  0  0  0  0  0999 V2000
    9.0833  -11.2396   19.7146 N   0  0  0  0  0  0  0  0  0  0  0  0
    9.1379  -12.6576   19.6618 C   0  0  0  0  0  0  0  0  0  0  0  0
    9.9742  -13.3010   20.3895 N   0  0  0  0  0  0  0  0  0  0  0  0
    8.2392  -13.3408   18.7796 N   0  0  0  0  0  0  0  0  0  0  0  0
    8.0232  -14.7792   18.9502 C   0  0  0  0  0  0  0  0  0  0  0  0
    6.6417  -15.0476   19.4489 C   0  0  0  0  0  0  0  0  0  0  0  0
    6.5244  -15.5393   20.8397 C   0  0  0  0  0  0  0  0  0  0  0  0
    7.3384  -16.7256   21.2151 C   0  0  2  0  0  0  0  0  0  0  0  0
    6.9091  -17.9348   20.5834 N   0  0  0  0  0  0  0  0  0  0  0  0
    7.5037  -16.8723   22.6865 C   0  0  0  0  0  0  0  0  0  0  0  0
    6.4694  -17.0836   23.3789 O   0  0  0  0  0  0  0  0  0  0  0  0
    9.9456  -14.3415   20.3939 N   0  0  0  0  0  0  0  0  0  0  0  0
   12.1930  -19.2871   25.4364 C   0  0  0  0  0  0  0  0  0  0  0  0
   11.6431  -18.7085   26.6001 O   0  0  0  0  0  0  0  0  0  0  0  0
   12.1990  -18.9562   27.6996 C   0  0  0  0  0  0  0  0  0  0  0  0
   10.4207  -17.8150   26.5359 C   0  0  0  0  0  0  0  0  0  0  0  0
    9.9951  -17.6770   25.1255 C   0  0  1  0  0  0  0  0  0  0  0  0
    8.8330  -16.7943   24.8348 N   0  0  0  0  0  0  0  0  0  0  0  0
    8.7388  -16.7902   23.3506 C   0  0  0  0  0  0  0  0  0  0  0  0
    8.9275  -15.4148   25.3235 O   0  0  0  0  0  0  0  0  0  0  0  0
    9.7156  -14.5693   24.7624 N   0  0  0  0  0  0  0  0  0  0  0  0
    8.1874  -14.9029   26.4126 C   0  0  1  0  0  0  0  0  0  0  0  0
    8.4436  -13.5492   26.9118 C   0  0  0  0  0  0  0  0  0  0  0  0
    7.1534  -12.8659   27.3050 S   0  0  0  0  0  0  0  0  0  0  0  0
    5.8934  -12.9159   26.0333 C   0  0  0  0  0  0  0  0  0  0  0  0
    9.2629  -13.6469   28.1365 O   0  0  0  0  0  0  0  0  0  0  0  0
    9.7277  -12.5322   28.8168 O   0  0  0  0  0  0  0  0  0  0  0  0
  1  2  1  0
  2  3  2  0
  4  2  1  0
  5  4  1  0
  6  5  1  0
  7  6  1  0
  8  7  1  0
  8  9  1  1
 10  8  1  0
 10 18  1  0
 11 10  2  0
 13 12  1  0
 14 13  2  0
 15 13  1  0
 17 16  1  1
 16 15  1  0
 17 18  1  0
 19 17  1  0
 20 19  2  0
 21 19  1  0
 22 25  1  0
 22 21  1  0
 23 24  1  0
 22 23  1  1
 25 26  1  0
 27 25  2  0
M  END
$$$$
