RQC.pdb
     RDKit          3D

 27 26  0  0  1  0  0  0  0  0999 V2000
    8.6685  -14.8608   15.4191 N   0  0  0  0  0  0  0  0  0  0  0  0
    8.7293  -14.1142   16.6256 C   0  0  0  0  0  0  0  0  0  0  0  0
    8.3721  -12.8834   16.6442 N   0  0  0  0  0  0  0  0  0  0  0  0
    9.1972  -14.7715   17.8096 N   0  0  0  0  0  0  0  0  0  0  0  0
    8.3550  -15.7870   18.4455 C   0  0  0  0  0  0  0  0  0  0  0  0
    7.2526  -15.1449   19.2210 C   0  0  0  0  0  0  0  0  0  0  0  0
    7.3059  -15.2924   20.6925 C   0  0  0  0  0  0  0  0  0  0  0  0
    7.1718  -16.6658   21.2460 C   0  0  2  0  0  0  0  0  0  0  0  0
    6.2710  -17.4937   20.5053 N   0  0  0  0  0  0  0  0  0  0  0  0
    6.8933  -16.6765   22.7076 C   0  0  0  0  0  0  0  0  0  0  0  0
    5.7175  -16.4168   23.0867 O   0  0  0  0  0  0  0  0  0  0  0  0
    8.4775  -12.3391   17.5252 N   0  0  0  0  0  0  0  0  0  0  0  0
    8.9099  -20.5057   26.6693 C   0  0  0  0  0  0  0  0  0  0  0  0
    8.5461  -19.5402   27.6320 O   0  0  0  0  0  0  0  0  0  0  0  0
    8.6777  -19.8401   28.8453 C   0  0  0  0  0  0  0  0  0  0  0  0
    8.0126  -18.1814   27.2252 C   0  0  0  0  0  0  0  0  0  0  0  0
    8.0573  -18.0650   25.7508 C   0  0  1  0  0  0  0  0  0  0  0  0
    7.5701  -16.7987   25.1397 N   0  0  0  0  0  0  0  0  0  0  0  0
    7.8578  -16.9578   23.6893 C   0  0  0  0  0  0  0  0  0  0  0  0
    8.1881  -15.5620   25.6291 O   0  0  0  0  0  0  0  0  0  0  0  0
    9.3886  -15.2484   25.2955 N   0  0  0  0  0  0  0  0  0  0  0  0
    7.5466  -14.6322   26.4775 C   0  0  1  0  0  0  0  0  0  0  0  0
    8.2739  -13.4641   26.9815 C   0  0  0  0  0  0  0  0  0  0  0  0
    7.3179  -12.4265   27.5251 S   0  0  0  0  0  0  0  0  0  0  0  0
    5.9323  -12.0845   26.4433 C   0  0  0  0  0  0  0  0  0  0  0  0
    9.1245  -13.8910   28.1107 O   0  0  0  0  0  0  0  0  0  0  0  0
   10.0459  -13.0491   28.7134 O   0  0  0  0  0  0  0  0  0  0  0  0
  1  2  1  0
  2  3  2  0
  4  2  1  0
  5  4  1  0
  6  5  1  0
  7  6  1  0
  8  7  1  0
  8  9  1  6
 10  8  1  0
 10 18  1  0
 11 10  2  0
 13 12  1  0
 14 13  2  0
 15 13  1  0
 17 16  1  6
 16 15  1  0
 17 18  1  0
 19 17  1  0
 20 19  2  0
 21 19  1  0
 22 25  1  0
 22 21  1  0
 23 24  1  0
 22 23  1  1
 25 26  1  0
 27 25  2  0
M  END
$$$$
