RQC.pdb
     RDKit          3D

 27 26  0  0  1  0  0  0  0  0999 V2000
    7.3397  -13.7340   14.8498 N   0  0  0  0  0  0  0  0  0  0  0  0
    7.6495  -13.6868   16.2349 C   0  0  0  0  0  0  0  0  0  0  0  0
    7.2484  -12.7053   16.9550 N   0  0  0  0  0  0  0  0  0  0  0  0
    8.4160  -14.7585   16.7976 N   0  0  0  0  0  0  0  0  0  0  0  0
    8.6849  -14.7680   18.2371 C   0  0  0  0  0  0  0  0  0  0  0  0
    7.6016  -15.4889   18.9693 C   0  0  0  0  0  0  0  0  0  0  0  0
    7.7604  -15.6084   20.4357 C   0  0  0  0  0  0  0  0  0  0  0  0
    9.0980  -16.0090   20.9468 C   0  0  2  0  0  0  0  0  0  0  0  0
    9.6629  -17.1249   20.2530 N   0  0  0  0  0  0  0  0  0  0  0  0
    9.1268  -16.1761   22.4250 C   0  0  0  0  0  0  0  0  0  0  0  0
    8.6104  -15.2668   23.1323 O   0  0  0  0  0  0  0  0  0  0  0  0
    7.5349  -12.6609   17.9548 N   0  0  0  0  0  0  0  0  0  0  0  0
   12.1402  -19.7849   26.5600 C   0  0  0  0  0  0  0  0  0  0  0  0
   12.5427  -19.5869   25.2220 O   0  0  0  0  0  0  0  0  0  0  0  0
   13.7341  -19.8498   24.9208 C   0  0  0  0  0  0  0  0  0  0  0  0
   11.5757  -19.0738   24.1741 C   0  0  0  0  0  0  0  0  0  0  0  0
   10.2906  -18.7359   24.8250 C   0  0  1  0  0  0  0  0  0  0  0  0
    9.7132  -17.3897   24.5632 N   0  0  0  0  0  0  0  0  0  0  0  0
    9.6927  -17.2824   23.0800 C   0  0  0  0  0  0  0  0  0  0  0  0
   10.4431  -16.2495   25.1270 O   0  0  0  0  0  0  0  0  0  0  0  0
   10.9122  -15.3261   24.3667 N   0  0  0  0  0  0  0  0  0  0  0  0
   10.6872  -16.0627   26.5059 C   0  0  1  0  0  0  0  0  0  0  0  0
   10.4294  -14.7647   27.1351 C   0  0  0  0  0  0  0  0  0  0  0  0
    8.9996  -14.3291   26.9074 S   0  0  0  0  0  0  0  0  0  0  0  0
    8.5443  -12.8484   27.8058 C   0  0  0  0  0  0  0  0  0  0  0  0
   10.6028  -14.9070   28.5948 O   0  0  0  0  0  0  0  0  0  0  0  0
   10.9980  -13.8559   29.4073 O   0  0  0  0  0  0  0  0  0  0  0  0
  1  2  1  0
  2  3  2  0
  4  2  1  0
  5  4  1  0
  6  5  1  0
  7  6  1  0
  8  7  1  0
  8  9  1  6
 10  8  1  0
 10 18  1  0
 11 10  2  0
 13 12  1  0
 14 13  2  0
 15 13  1  0
 17 16  1  6
 16 15  1  0
 17 18  1  0
 19 17  1  0
 20 19  2  0
 21 19  1  0
 22 25  1  0
 22 21  1  0
 23 24  1  0
 22 23  1  1
 25 26  1  0
 27 25  2  0
M  END
$$$$
