RQC.pdb
     RDKit          3D

 27 26  0  0  1  0  0  0  0  0999 V2000
    7.0164  -13.8899   23.1137 N   0  0  0  0  0  0  0  0  0  0  0  0
    7.1498  -13.9345   21.7006 C   0  0  0  0  0  0  0  0  0  0  0  0
    6.8664  -15.0061   21.0570 N   0  0  0  0  0  0  0  0  0  0  0  0
    7.6058  -12.7576   21.0227 N   0  0  0  0  0  0  0  0  0  0  0  0
    7.5802  -12.7188   19.5589 C   0  0  0  0  0  0  0  0  0  0  0  0
    8.4476  -13.7924   18.9895 C   0  0  0  0  0  0  0  0  0  0  0  0
    9.5839  -13.3498   18.1513 C   0  0  0  0  0  0  0  0  0  0  0  0
   10.4155  -14.4061   17.5162 C   0  0  2  0  0  0  0  0  0  0  0  0
    9.6858  -15.2393   16.6111 N   0  0  0  0  0  0  0  0  0  0  0  0
   11.2123  -15.1863   18.5012 C   0  0  0  0  0  0  0  0  0  0  0  0
   10.7876  -16.3281   18.8325 O   0  0  0  0  0  0  0  0  0  0  0  0
    6.9841  -15.0214   20.0228 N   0  0  0  0  0  0  0  0  0  0  0  0
   15.6042  -14.3933   16.6387 C   0  0  0  0  0  0  0  0  0  0  0  0
   15.7655  -14.3294   18.0392 O   0  0  0  0  0  0  0  0  0  0  0  0
   16.2248  -13.2680   18.5309 C   0  0  0  0  0  0  0  0  0  0  0  0
   15.3990  -15.4989   18.9305 C   0  0  0  0  0  0  0  0  0  0  0  0
   14.5358  -15.0171   20.0314 C   0  0  2  0  0  0  0  0  0  0  0  0
   13.1417  -15.5333   20.0966 N   0  0  0  0  0  0  0  0  0  0  0  0
   12.4063  -14.7302   19.0837 C   0  0  0  0  0  0  0  0  0  0  0  0
   12.4680  -15.4210   21.3944 O   0  0  0  0  0  0  0  0  0  0  0  0
   12.1975  -14.2708   21.8991 N   0  0  0  0  0  0  0  0  0  0  0  0
   12.0644  -16.5231   22.1808 C   0  0  1  0  0  0  0  0  0  0  0  0
   11.6076  -16.3227   23.5586 C   0  0  0  0  0  0  0  0  0  0  0  0
   10.0974  -16.3155   23.6307 S   0  0  0  0  0  0  0  0  0  0  0  0
    9.4544  -16.3389   25.3021 C   0  0  0  0  0  0  0  0  0  0  0  0
   12.0665  -17.4634   24.3767 O   0  0  0  0  0  0  0  0  0  0  0  0
   12.0751  -17.4348   25.7624 O   0  0  0  0  0  0  0  0  0  0  0  0
  1  2  1  0
  2  3  2  0
  4  2  1  0
  5  4  1  0
  6  5  1  0
  7  6  1  0
  8  7  1  0
  8  9  1  1
 10  8  1  0
 10 18  1  0
 11 10  2  0
 13 12  1  0
 14 13  2  0
 15 13  1  0
 17 16  1  6
 16 15  1  0
 17 18  1  0
 19 17  1  0
 20 19  2  0
 21 19  1  0
 22 25  1  0
 22 21  1  0
 23 24  1  0
 22 23  1  1
 25 26  1  0
 27 25  2  0
M  END
$$$$
