PPE.pdb
     RDKit          3D

 24 25  0  0  1  0  0  0  0  0999 V2000
    5.3080  -18.1000   18.8064 N   0  0  0  0  0  0  0  0  0  0  0  0
    4.4118  -19.0019   19.4552 C   0  0  0  0  0  0  0  0  0  0  0  0
    4.0238  -18.4263   20.7746 C   0  0  0  0  0  0  0  0  0  0  0  0
    4.7558  -17.1346   20.9029 C   0  0  0  0  0  0  0  0  0  0  0  0
    5.4463  -16.9289   19.5878 C   0  0  1  0  0  0  0  0  0  0  0  0
    6.8225  -16.4619   19.8298 C   0  0  0  0  0  0  0  0  0  0  0  0
    7.7523  -17.2475   19.4260 O   0  0  0  0  0  0  0  0  0  0  0  0
    7.2144  -15.2637   20.4483 N   0  0  0  0  0  0  0  0  0  0  0  0
    6.3381  -14.2726   20.9899 C   0  0  0  0  0  0  0  0  0  0  0  0
    7.1717  -13.0404   21.0950 C   0  0  0  0  0  0  0  0  0  0  0  0
    8.4901  -13.3459   20.4280 C   0  0  0  0  0  0  0  0  0  0  0  0
    8.5713  -14.8443   20.6357 C   0  0  1  0  0  0  0  0  0  0  0  0
    9.0971  -15.1424   21.9900 C   0  0  0  0  0  0  0  0  0  0  0  0
    8.4057  -14.7717   22.9705 O   0  0  0  0  0  0  0  0  0  0  0  0
   10.3147  -15.8101   22.2642 N   0  0  0  0  0  0  0  0  0  0  0  0
   10.6591  -16.3214   23.5924 C   0  0  1  0  0  0  0  0  0  0  0  0
   10.5776  -17.8077   23.6467 C   0  0  0  0  0  0  0  0  0  0  0  0
   11.3034  -18.4545   22.5056 C   0  0  0  0  0  0  0  0  0  0  0  0
   11.2200  -19.9131   22.5465 C   0  0  0  0  0  0  0  0  0  0  0  0
   11.3973  -20.4760   23.6797 O   0  0  0  0  0  0  0  0  0  0  0  0
   12.0268  -15.8492   23.8837 C   0  0  0  0  0  0  0  0  0  0  0  0
   12.7591  -15.1063   22.9354 O   0  0  0  0  0  0  0  0  0  0  0  0
   10.9707  -20.7694   21.4938 O   0  0  0  0  0  0  0  0  0  0  0  0
   12.6471  -16.0547   24.9618 O   0  0  0  0  0  0  0  0  0  0  0  0
  1  2  1  0
  3  2  1  0
  4  5  1  0
  4  3  1  0
  5  6  1  1
  5  1  1  0
  6  7  2  0
  8 12  1  0
  8  6  1  0
  9  8  1  0
 10  9  1  0
 10 11  1  0
 11 12  1  0
 12 13  1  1
 13 15  1  0
 13 14  2  0
 15 16  1  0
 16 21  1  0
 16 17  1  6
 18 17  1  0
 19 20  2  0
 19 18  1  0
 21 24  2  0
 21 22  1  0
 23 19  1  0
M  END
$$$$
