PPE.pdb
     RDKit          3D

 24 25  0  0  1  0  0  0  0  0999 V2000
    5.7066  -13.4343   26.6256 N   0  0  0  0  0  0  0  0  0  0  0  0
    6.1343  -12.5059   27.6220 C   0  0  0  0  0  0  0  0  0  0  0  0
    7.1587  -11.6012   27.0264 C   0  0  0  0  0  0  0  0  0  0  0  0
    7.3490  -12.0490   25.6178 C   0  0  0  0  0  0  0  0  0  0  0  0
    6.3245  -13.1205   25.3925 C   0  0  1  0  0  0  0  0  0  0  0  0
    6.9466  -14.2423   24.6677 C   0  0  0  0  0  0  0  0  0  0  0  0
    6.9614  -15.3631   25.2906 O   0  0  0  0  0  0  0  0  0  0  0  0
    7.5166  -14.2102   23.3847 N   0  0  0  0  0  0  0  0  0  0  0  0
    7.6360  -13.0577   22.5474 C   0  0  0  0  0  0  0  0  0  0  0  0
    7.8587  -13.6014   21.1767 C   0  0  0  0  0  0  0  0  0  0  0  0
    7.6832  -15.0973   21.2655 C   0  0  0  0  0  0  0  0  0  0  0  0
    8.0752  -15.3426   22.7081 C   0  0  1  0  0  0  0  0  0  0  0  0
    9.5509  -15.4292   22.8266 C   0  0  0  0  0  0  0  0  0  0  0  0
   10.2178  -14.4317   22.4563 O   0  0  0  0  0  0  0  0  0  0  0  0
   10.2659  -16.5455   23.3227 N   0  0  0  0  0  0  0  0  0  0  0  0
   11.5546  -16.4236   24.0074 C   0  0  1  0  0  0  0  0  0  0  0  0
   11.4795  -16.9176   25.4107 C   0  0  0  0  0  0  0  0  0  0  0  0
   10.8202  -18.2608   25.5014 C   0  0  0  0  0  0  0  0  0  0  0  0
   10.8056  -18.7841   26.8660 C   0  0  0  0  0  0  0  0  0  0  0  0
   11.9040  -19.2488   27.3243 O   0  0  0  0  0  0  0  0  0  0  0  0
   12.5269  -17.2031   23.2167 C   0  0  0  0  0  0  0  0  0  0  0  0
   12.1201  -17.9524   22.0940 O   0  0  0  0  0  0  0  0  0  0  0  0
    9.7332  -18.8395   27.7322 O   0  0  0  0  0  0  0  0  0  0  0  0
   13.7626  -17.2723   23.4571 O   0  0  0  0  0  0  0  0  0  0  0  0
  1  2  1  0
  3  2  1  0
  4  5  1  0
  4  3  1  0
  5  6  1  1
  5  1  1  0
  6  7  2  0
  8 12  1  0
  8  6  1  0
  9  8  1  0
 10  9  1  0
 10 11  1  0
 11 12  1  0
 12 13  1  6
 13 15  1  0
 13 14  2  0
 15 16  1  0
 16 21  1  0
 16 17  1  1
 18 17  1  0
 19 20  2  0
 19 18  1  0
 21 24  2  0
 21 22  1  0
 23 19  1  0
M  END
$$$$
