PPE.pdb
     RDKit          3D

 24 25  0  0  1  0  0  0  0  0999 V2000
    8.2997  -14.1876   21.0527 N   0  0  0  0  0  0  0  0  0  0  0  0
    7.8271  -15.2728   20.2549 C   0  0  0  0  0  0  0  0  0  0  0  0
    6.7395  -15.9742   20.9950 C   0  0  0  0  0  0  0  0  0  0  0  0
    6.5951  -15.2695   22.3001 C   0  0  0  0  0  0  0  0  0  0  0  0
    7.5144  -14.0872   22.2250 C   0  0  1  0  0  0  0  0  0  0  0  0
    8.2487  -13.9615   23.4962 C   0  0  0  0  0  0  0  0  0  0  0  0
    9.5218  -14.0930   23.4150 O   0  0  0  0  0  0  0  0  0  0  0  0
    7.7056  -13.7170   24.7679 N   0  0  0  0  0  0  0  0  0  0  0  0
    6.3143  -13.6316   25.0846 C   0  0  0  0  0  0  0  0  0  0  0  0
    6.2625  -12.9212   26.3948 C   0  0  0  0  0  0  0  0  0  0  0  0
    7.6678  -12.4656   26.7014 C   0  0  0  0  0  0  0  0  0  0  0  0
    8.4724  -13.5138   25.9607 C   0  0  1  0  0  0  0  0  0  0  0  0
    8.6028  -14.7356   26.7911 C   0  0  0  0  0  0  0  0  0  0  0  0
    7.5715  -15.4330   26.9552 O   0  0  0  0  0  0  0  0  0  0  0  0
    9.7955  -15.1768   27.4126 N   0  0  0  0  0  0  0  0  0  0  0  0
   10.2487  -16.5685   27.3651 C   0  0  1  0  0  0  0  0  0  0  0  0
   11.1543  -16.8118   26.2078 C   0  0  0  0  0  0  0  0  0  0  0  0
   12.3882  -15.9627   26.2688 C   0  0  0  0  0  0  0  0  0  0  0  0
   13.2777  -16.1886   25.1313 C   0  0  0  0  0  0  0  0  0  0  0  0
   12.9032  -17.0436   24.2588 O   0  0  0  0  0  0  0  0  0  0  0  0
   10.9336  -16.8322   28.6456 C   0  0  0  0  0  0  0  0  0  0  0  0
   11.3285  -18.1365   29.0062 O   0  0  0  0  0  0  0  0  0  0  0  0
   14.4919  -15.5828   24.8819 O   0  0  0  0  0  0  0  0  0  0  0  0
   11.2200  -15.9553   29.5050 O   0  0  0  0  0  0  0  0  0  0  0  0
  1  2  1  0
  3  2  1  0
  4  5  1  0
  4  3  1  0
  5  6  1  1
  5  1  1  0
  6  7  2  0
  8 12  1  0
  8  6  1  0
  9  8  1  0
 10  9  1  0
 10 11  1  0
 11 12  1  0
 12 13  1  1
 13 15  1  0
 13 14  2  0
 15 16  1  0
 16 21  1  0
 16 17  1  6
 18 17  1  0
 19 20  2  0
 19 18  1  0
 21 24  2  0
 21 22  1  0
 23 19  1  0
M  END
$$$$
