PPE.pdb
     RDKit          3D

 24 25  0  0  1  0  0  0  0  0999 V2000
    8.5332  -13.7411   20.6105 N   0  0  0  0  0  0  0  0  0  0  0  0
    7.7870  -14.4198   19.6004 C   0  0  0  0  0  0  0  0  0  0  0  0
    6.4329  -14.7382   20.1368 C   0  0  0  0  0  0  0  0  0  0  0  0
    6.4068  -14.2375   21.5402 C   0  0  0  0  0  0  0  0  0  0  0  0
    7.7066  -13.5162   21.7362 C   0  0  1  0  0  0  0  0  0  0  0  0
    8.2718  -13.8816   23.0469 C   0  0  0  0  0  0  0  0  0  0  0  0
    9.4379  -14.4146   23.0174 O   0  0  0  0  0  0  0  0  0  0  0  0
    7.6735  -13.7092   24.3056 N   0  0  0  0  0  0  0  0  0  0  0  0
    6.3305  -13.2823   24.5456 C   0  0  0  0  0  0  0  0  0  0  0  0
    6.3235  -12.8184   25.9629 C   0  0  0  0  0  0  0  0  0  0  0  0
    7.7550  -12.8442   26.4389 C   0  0  0  0  0  0  0  0  0  0  0  0
    8.3250  -13.9390   25.5605 C   0  0  1  0  0  0  0  0  0  0  0  0
    8.0237  -15.2684   26.1447 C   0  0  0  0  0  0  0  0  0  0  0  0
    6.9081  -15.7771   25.8734 O   0  0  0  0  0  0  0  0  0  0  0  0
    8.8924  -16.0077   26.9827 N   0  0  0  0  0  0  0  0  0  0  0  0
    9.2178  -17.4156   26.7458 C   0  0  1  0  0  0  0  0  0  0  0  0
    9.9367  -17.6034   25.4549 C   0  0  0  0  0  0  0  0  0  0  0  0
   11.2976  -16.9749   25.4705 C   0  0  0  0  0  0  0  0  0  0  0  0
   12.0294  -17.1979   24.2252 C   0  0  0  0  0  0  0  0  0  0  0  0
   11.4433  -17.8813   23.3185 O   0  0  0  0  0  0  0  0  0  0  0  0
   10.0438  -17.8547   27.8874 C   0  0  0  0  0  0  0  0  0  0  0  0
   10.4923  -16.9367   28.8587 O   0  0  0  0  0  0  0  0  0  0  0  0
   13.2962  -16.7548   23.9052 O   0  0  0  0  0  0  0  0  0  0  0  0
   10.4131  -19.0418   28.0969 O   0  0  0  0  0  0  0  0  0  0  0  0
  1  2  1  0
  3  2  1  0
  4  5  1  0
  4  3  1  0
  5  6  1  1
  5  1  1  0
  6  7  2  0
  8 12  1  0
  8  6  1  0
  9  8  1  0
 10  9  1  0
 10 11  1  0
 11 12  1  0
 12 13  1  1
 13 15  1  0
 13 14  2  0
 15 16  1  0
 16 21  1  0
 16 17  1  6
 18 17  1  0
 19 20  2  0
 19 18  1  0
 21 24  2  0
 21 22  1  0
 23 19  1  0
M  END
$$$$
