PPE.pdb
     RDKit          3D

 24 25  0  0  1  0  0  0  0  0999 V2000
    7.0597  -15.6604   22.8237 N   0  0  0  0  0  0  0  0  0  0  0  0
    6.1231  -15.4878   21.7604 C   0  0  0  0  0  0  0  0  0  0  0  0
    6.6528  -14.4628   20.8163 C   0  0  0  0  0  0  0  0  0  0  0  0
    7.9534  -14.0025   21.3798 C   0  0  0  0  0  0  0  0  0  0  0  0
    8.2098  -14.8765   22.5709 C   0  0  1  0  0  0  0  0  0  0  0  0
    8.6945  -14.0461   23.6872 C   0  0  0  0  0  0  0  0  0  0  0  0
    9.8386  -13.4945   23.5102 O   0  0  0  0  0  0  0  0  0  0  0  0
    8.0424  -13.8009   24.9065 N   0  0  0  0  0  0  0  0  0  0  0  0
    6.7379  -14.2602   25.2682 C   0  0  0  0  0  0  0  0  0  0  0  0
    6.3254  -13.3862   26.4040 C   0  0  0  0  0  0  0  0  0  0  0  0
    7.3807  -12.3163   26.5386 C   0  0  0  0  0  0  0  0  0  0  0  0
    8.5916  -13.0436   25.9913 C   0  0  1  0  0  0  0  0  0  0  0  0
    9.1993  -13.8872   27.0489 C   0  0  0  0  0  0  0  0  0  0  0  0
    9.5856  -13.3097   28.0949 O   0  0  0  0  0  0  0  0  0  0  0  0
    9.3785  -15.2892   26.9724 N   0  0  0  0  0  0  0  0  0  0  0  0
   10.4717  -15.9889   27.6502 C   0  0  1  0  0  0  0  0  0  0  0  0
    9.9900  -17.2118   28.3509 C   0  0  0  0  0  0  0  0  0  0  0  0
    9.3649  -18.1939   27.4064 C   0  0  0  0  0  0  0  0  0  0  0  0
    8.6526  -19.2628   28.1037 C   0  0  0  0  0  0  0  0  0  0  0  0
    8.7411  -19.2879   29.3781 O   0  0  0  0  0  0  0  0  0  0  0  0
   11.4655  -16.3235   26.6115 C   0  0  0  0  0  0  0  0  0  0  0  0
   12.7673  -16.7411   26.9554 O   0  0  0  0  0  0  0  0  0  0  0  0
    7.8858  -20.2642   27.5446 O   0  0  0  0  0  0  0  0  0  0  0  0
   11.2569  -16.2709   25.3693 O   0  0  0  0  0  0  0  0  0  0  0  0
  1  2  1  0
  3  2  1  0
  4  5  1  0
  4  3  1  0
  5  6  1  1
  5  1  1  0
  6  7  2  0
  8 12  1  0
  8  6  1  0
  9  8  1  0
 10  9  1  0
 10 11  1  0
 11 12  1  0
 12 13  1  1
 13 15  1  0
 13 14  2  0
 15 16  1  0
 16 21  1  0
 16 17  1  6
 18 17  1  0
 19 20  2  0
 19 18  1  0
 21 24  2  0
 21 22  1  0
 23 19  1  0
M  END
$$$$
