PPE.pdb
     RDKit          3D

 24 25  0  0  1  0  0  0  0  0999 V2000
    8.0397  -14.3681   21.0706 N   0  0  0  0  0  0  0  0  0  0  0  0
    7.5239  -15.4755   20.3322 C   0  0  0  0  0  0  0  0  0  0  0  0
    6.5347  -16.1991   21.1811 C   0  0  0  0  0  0  0  0  0  0  0  0
    6.4974  -15.4838   22.4880 C   0  0  0  0  0  0  0  0  0  0  0  0
    7.3697  -14.2767   22.3131 C   0  0  1  0  0  0  0  0  0  0  0  0
    8.2202  -14.1154   23.5053 C   0  0  0  0  0  0  0  0  0  0  0  0
    9.4820  -14.2240   23.3034 O   0  0  0  0  0  0  0  0  0  0  0  0
    7.7973  -13.8596   24.8197 N   0  0  0  0  0  0  0  0  0  0  0  0
    6.4482  -13.8997   25.2905 C   0  0  0  0  0  0  0  0  0  0  0  0
    6.4648  -13.1290   26.5671 C   0  0  0  0  0  0  0  0  0  0  0  0
    7.8382  -12.5166   26.6906 C   0  0  0  0  0  0  0  0  0  0  0  0
    8.6644  -13.5155   25.9068 C   0  0  1  0  0  0  0  0  0  0  0  0
    9.0159  -14.6713   26.7670 C   0  0  0  0  0  0  0  0  0  0  0  0
    8.0911  -15.4641   27.0721 O   0  0  0  0  0  0  0  0  0  0  0  0
   10.3088  -14.9506   27.2708 N   0  0  0  0  0  0  0  0  0  0  0  0
   10.7225  -16.2879   27.7006 C   0  0  1  0  0  0  0  0  0  0  0  0
   12.0804  -16.6318   27.1940 C   0  0  0  0  0  0  0  0  0  0  0  0
   12.1619  -16.5512   25.6993 C   0  0  0  0  0  0  0  0  0  0  0  0
   13.4959  -16.1785   25.2327 C   0  0  0  0  0  0  0  0  0  0  0  0
   14.4920  -16.6254   25.8965 O   0  0  0  0  0  0  0  0  0  0  0  0
   10.6862  -16.2860   29.1761 C   0  0  0  0  0  0  0  0  0  0  0  0
   10.9190  -17.4651   29.9128 O   0  0  0  0  0  0  0  0  0  0  0  0
   13.8153  -15.3897   24.1468 O   0  0  0  0  0  0  0  0  0  0  0  0
   10.4535  -15.2740   29.8911 O   0  0  0  0  0  0  0  0  0  0  0  0
  1  2  1  0
  3  2  1  0
  4  5  1  0
  4  3  1  0
  5  6  1  1
  5  1  1  0
  6  7  2  0
  8 12  1  0
  8  6  1  0
  9  8  1  0
 10  9  1  0
 10 11  1  0
 11 12  1  0
 12 13  1  1
 13 15  1  0
 13 14  2  0
 15 16  1  0
 16 21  1  0
 16 17  1  1
 18 17  1  0
 19 20  2  0
 19 18  1  0
 21 24  2  0
 21 22  1  0
 23 19  1  0
M  END
$$$$
