PPE.pdb
     RDKit          3D

 24 25  0  0  1  0  0  0  0  0999 V2000
    8.3319  -13.8948   21.0070 N   0  0  0  0  0  0  0  0  0  0  0  0
    7.7660  -14.8527   20.1126 C   0  0  0  0  0  0  0  0  0  0  0  0
    6.6064  -15.5078   20.7825 C   0  0  0  0  0  0  0  0  0  0  0  0
    6.5150  -14.9122   22.1455 C   0  0  0  0  0  0  0  0  0  0  0  0
    7.5456  -13.8236   22.1808 C   0  0  1  0  0  0  0  0  0  0  0  0
    8.2728  -13.8847   23.4607 C   0  0  0  0  0  0  0  0  0  0  0  0
    9.5354  -14.0908   23.3703 O   0  0  0  0  0  0  0  0  0  0  0  0
    7.7334  -13.7433   24.7495 N   0  0  0  0  0  0  0  0  0  0  0  0
    6.3498  -13.5749   25.0668 C   0  0  0  0  0  0  0  0  0  0  0  0
    6.3390  -13.0196   26.4508 C   0  0  0  0  0  0  0  0  0  0  0  0
    7.7732  -12.7262   26.8158 C   0  0  0  0  0  0  0  0  0  0  0  0
    8.4965  -13.7472   25.9618 C   0  0  1  0  0  0  0  0  0  0  0  0
    8.5093  -15.0638   26.6442 C   0  0  0  0  0  0  0  0  0  0  0  0
    7.4195  -15.6830   26.7211 O   0  0  0  0  0  0  0  0  0  0  0  0
    9.6505  -15.6764   27.2151 N   0  0  0  0  0  0  0  0  0  0  0  0
    9.9434  -17.1036   27.0689 C   0  0  1  0  0  0  0  0  0  0  0  0
   10.8292  -17.3655   25.9004 C   0  0  0  0  0  0  0  0  0  0  0  0
   12.1466  -16.6605   26.0221 C   0  0  0  0  0  0  0  0  0  0  0  0
   12.9576  -16.7810   24.8121 C   0  0  0  0  0  0  0  0  0  0  0  0
   14.0221  -16.0771   24.7510 O   0  0  0  0  0  0  0  0  0  0  0  0
   10.5786  -17.5344   28.3295 C   0  0  0  0  0  0  0  0  0  0  0  0
   10.7976  -18.8991   28.6066 O   0  0  0  0  0  0  0  0  0  0  0  0
   12.7089  -17.5733   23.7104 O   0  0  0  0  0  0  0  0  0  0  0  0
   10.9706  -16.7581   29.2424 O   0  0  0  0  0  0  0  0  0  0  0  0
  1  2  1  0
  3  2  1  0
  4  5  1  0
  4  3  1  0
  5  6  1  1
  5  1  1  0
  6  7  2  0
  8 12  1  0
  8  6  1  0
  9  8  1  0
 10  9  1  0
 10 11  1  0
 11 12  1  0
 12 13  1  1
 13 15  1  0
 13 14  2  0
 15 16  1  0
 16 21  1  0
 16 17  1  6
 18 17  1  0
 19 20  2  0
 19 18  1  0
 21 24  2  0
 21 22  1  0
 23 19  1  0
M  END
$$$$
