PPE.pdb
     RDKit          3D

 24 25  0  0  1  0  0  0  0  0999 V2000
    8.1962  -14.2406   21.0782 N   0  0  0  0  0  0  0  0  0  0  0  0
    7.7206  -15.3612   20.3327 C   0  0  0  0  0  0  0  0  0  0  0  0
    6.6475  -16.0377   21.1158 C   0  0  0  0  0  0  0  0  0  0  0  0
    6.5154  -15.2799   22.3922 C   0  0  0  0  0  0  0  0  0  0  0  0
    7.4256  -14.0962   22.2556 C   0  0  1  0  0  0  0  0  0  0  0  0
    8.1754  -13.9129   23.5105 C   0  0  0  0  0  0  0  0  0  0  0  0
    9.4525  -13.9622   23.4041 O   0  0  0  0  0  0  0  0  0  0  0  0
    7.6433  -13.6937   24.7914 N   0  0  0  0  0  0  0  0  0  0  0  0
    6.2569  -13.7140   25.1395 C   0  0  0  0  0  0  0  0  0  0  0  0
    6.1782  -12.9911   26.4415 C   0  0  0  0  0  0  0  0  0  0  0  0
    7.5494  -12.4215   26.7094 C   0  0  0  0  0  0  0  0  0  0  0  0
    8.4179  -13.4135   25.9633 C   0  0  1  0  0  0  0  0  0  0  0  0
    8.6633  -14.6091   26.8057 C   0  0  0  0  0  0  0  0  0  0  0  0
    7.6772  -15.3410   27.0678 O   0  0  0  0  0  0  0  0  0  0  0  0
    9.9189  -14.9896   27.3371 N   0  0  0  0  0  0  0  0  0  0  0  0
   10.2394  -16.3691   27.7092 C   0  0  1  0  0  0  0  0  0  0  0  0
   11.3535  -16.9153   26.8852 C   0  0  0  0  0  0  0  0  0  0  0  0
   12.3944  -15.8789   26.5858 C   0  0  0  0  0  0  0  0  0  0  0  0
   13.4153  -16.3648   25.6596 C   0  0  0  0  0  0  0  0  0  0  0  0
   14.1509  -17.3309   26.0569 O   0  0  0  0  0  0  0  0  0  0  0  0
   10.5938  -16.3472   29.1418 C   0  0  0  0  0  0  0  0  0  0  0  0
   10.9013  -17.5355   29.8351 O   0  0  0  0  0  0  0  0  0  0  0  0
   13.6864  -15.8990   24.3896 O   0  0  0  0  0  0  0  0  0  0  0  0
   10.6538  -15.3092   29.8548 O   0  0  0  0  0  0  0  0  0  0  0  0
  1  2  1  0
  3  2  1  0
  4  5  1  0
  4  3  1  0
  5  6  1  1
  5  1  1  0
  6  7  2  0
  8 12  1  0
  8  6  1  0
  9  8  1  0
 10  9  1  0
 10 11  1  0
 11 12  1  0
 12 13  1  1
 13 15  1  0
 13 14  2  0
 15 16  1  0
 16 21  1  0
 16 17  1  6
 18 17  1  0
 19 20  2  0
 19 18  1  0
 21 24  2  0
 21 22  1  0
 23 19  1  0
M  END
$$$$
