PPE.pdb
     RDKit          3D

 24 25  0  0  1  0  0  0  0  0999 V2000
    8.4745  -13.9020   20.9398 N   0  0  0  0  0  0  0  0  0  0  0  0
    7.8751  -14.8250   20.0308 C   0  0  0  0  0  0  0  0  0  0  0  0
    6.6554  -15.4006   20.6662 C   0  0  0  0  0  0  0  0  0  0  0  0
    6.5615  -14.7944   22.0243 C   0  0  0  0  0  0  0  0  0  0  0  0
    7.6591  -13.7749   22.0887 C   0  0  1  0  0  0  0  0  0  0  0  0
    8.3414  -13.8776   23.3905 C   0  0  0  0  0  0  0  0  0  0  0  0
    9.6030  -14.1019   23.3376 O   0  0  0  0  0  0  0  0  0  0  0  0
    7.7608  -13.7577   24.6635 N   0  0  0  0  0  0  0  0  0  0  0  0
    6.3684  -13.5872   24.9386 C   0  0  0  0  0  0  0  0  0  0  0  0
    6.3152  -13.0584   26.3320 C   0  0  0  0  0  0  0  0  0  0  0  0
    7.7383  -12.7805   26.7492 C   0  0  0  0  0  0  0  0  0  0  0  0
    8.4838  -13.7892   25.8998 C   0  0  1  0  0  0  0  0  0  0  0  0
    8.4672  -15.1187   26.5567 C   0  0  0  0  0  0  0  0  0  0  0  0
    7.3523  -15.6806   26.6911 O   0  0  0  0  0  0  0  0  0  0  0  0
    9.6066  -15.8028   27.0438 N   0  0  0  0  0  0  0  0  0  0  0  0
    9.7644  -17.2552   26.9446 C   0  0  1  0  0  0  0  0  0  0  0  0
   10.6216  -17.6366   25.7878 C   0  0  0  0  0  0  0  0  0  0  0  0
   11.9651  -16.9734   25.8384 C   0  0  0  0  0  0  0  0  0  0  0  0
   12.5488  -16.7935   24.5105 C   0  0  0  0  0  0  0  0  0  0  0  0
   11.9509  -17.3532   23.5298 O   0  0  0  0  0  0  0  0  0  0  0  0
   10.3566  -17.7025   28.2203 C   0  0  0  0  0  0  0  0  0  0  0  0
   10.7441  -16.7754   29.2091 O   0  0  0  0  0  0  0  0  0  0  0  0
   13.6851  -16.0832   24.1824 O   0  0  0  0  0  0  0  0  0  0  0  0
   10.5649  -18.9049   28.5371 O   0  0  0  0  0  0  0  0  0  0  0  0
  1  2  1  0
  3  2  1  0
  4  5  1  0
  4  3  1  0
  5  6  1  1
  5  1  1  0
  6  7  2  0
  8 12  1  0
  8  6  1  0
  9  8  1  0
 10  9  1  0
 10 11  1  0
 11 12  1  0
 12 13  1  1
 13 15  1  0
 13 14  2  0
 15 16  1  0
 16 21  1  0
 16 17  1  6
 18 17  1  0
 19 20  2  0
 19 18  1  0
 21 24  2  0
 21 22  1  0
 23 19  1  0
M  END
$$$$
