PPE.pdb
     RDKit          3D

 24 25  0  0  1  0  0  0  0  0999 V2000
    8.2053  -14.0907   20.9947 N   0  0  0  0  0  0  0  0  0  0  0  0
    7.5975  -15.0893   20.1755 C   0  0  0  0  0  0  0  0  0  0  0  0
    6.4550  -15.6910   20.9208 C   0  0  0  0  0  0  0  0  0  0  0  0
    6.4186  -15.0194   22.2507 C   0  0  0  0  0  0  0  0  0  0  0  0
    7.4619  -13.9442   22.1892 C   0  0  1  0  0  0  0  0  0  0  0  0
    8.2332  -13.9437   23.4445 C   0  0  0  0  0  0  0  0  0  0  0  0
    9.5000  -14.0961   23.3155 O   0  0  0  0  0  0  0  0  0  0  0  0
    7.7311  -13.7964   24.7477 N   0  0  0  0  0  0  0  0  0  0  0  0
    6.3505  -13.7506   25.1154 C   0  0  0  0  0  0  0  0  0  0  0  0
    6.3360  -13.1354   26.4738 C   0  0  0  0  0  0  0  0  0  0  0  0
    7.7464  -12.6856   26.7655 C   0  0  0  0  0  0  0  0  0  0  0  0
    8.5357  -13.6689   25.9259 C   0  0  1  0  0  0  0  0  0  0  0  0
    8.7060  -14.9448   26.6625 C   0  0  0  0  0  0  0  0  0  0  0  0
    7.6829  -15.6531   26.8313 O   0  0  0  0  0  0  0  0  0  0  0  0
    9.9282  -15.4262   27.1898 N   0  0  0  0  0  0  0  0  0  0  0  0
   10.1506  -16.8349   27.5218 C   0  0  1  0  0  0  0  0  0  0  0  0
   11.3502  -17.3800   26.8271 C   0  0  0  0  0  0  0  0  0  0  0  0
   11.5386  -16.7752   25.4684 C   0  0  0  0  0  0  0  0  0  0  0  0
   12.7081  -17.3126   24.7759 C   0  0  0  0  0  0  0  0  0  0  0  0
   13.8465  -16.8229   25.0872 O   0  0  0  0  0  0  0  0  0  0  0  0
   10.3041  -16.9028   28.9881 C   0  0  0  0  0  0  0  0  0  0  0  0
   10.2830  -15.7355   29.7782 O   0  0  0  0  0  0  0  0  0  0  0  0
   12.7327  -18.2984   23.8110 O   0  0  0  0  0  0  0  0  0  0  0  0
   10.4622  -17.9647   29.6490 O   0  0  0  0  0  0  0  0  0  0  0  0
  1  2  1  0
  3  2  1  0
  4  5  1  0
  4  3  1  0
  5  6  1  1
  5  1  1  0
  6  7  2  0
  8 12  1  0
  8  6  1  0
  9  8  1  0
 10  9  1  0
 10 11  1  0
 11 12  1  0
 12 13  1  1
 13 15  1  0
 13 14  2  0
 15 16  1  0
 16 21  1  0
 16 17  1  6
 18 17  1  0
 19 20  2  0
 19 18  1  0
 21 24  2  0
 21 22  1  0
 23 19  1  0
M  END
$$$$
