PPE.pdb
     RDKit          3D

 24 25  0  0  1  0  0  0  0  0999 V2000
    5.5329  -13.1733   26.3943 N   0  0  0  0  0  0  0  0  0  0  0  0
    5.9386  -12.2080   27.3644 C   0  0  0  0  0  0  0  0  0  0  0  0
    6.9945  -11.3417   26.7665 C   0  0  0  0  0  0  0  0  0  0  0  0
    7.2266  -11.8519   25.3857 C   0  0  0  0  0  0  0  0  0  0  0  0
    6.1965  -12.9201   25.1710 C   0  0  1  0  0  0  0  0  0  0  0  0
    6.8280  -14.0792   24.5165 C   0  0  0  0  0  0  0  0  0  0  0  0
    6.7298  -15.1917   25.1468 O   0  0  0  0  0  0  0  0  0  0  0  0
    7.5165  -14.0902   23.2926 N   0  0  0  0  0  0  0  0  0  0  0  0
    7.8615  -12.9429   22.5129 C   0  0  0  0  0  0  0  0  0  0  0  0
    8.1415  -13.4768   21.1488 C   0  0  0  0  0  0  0  0  0  0  0  0
    7.7680  -14.9385   21.1659 C   0  0  0  0  0  0  0  0  0  0  0  0
    7.9868  -15.2689   22.6280 C   0  0  1  0  0  0  0  0  0  0  0  0
    9.4214  -15.5511   22.8766 C   0  0  0  0  0  0  0  0  0  0  0  0
   10.2342  -14.6132   22.6856 O   0  0  0  0  0  0  0  0  0  0  0  0
    9.9459  -16.7920   23.3109 N   0  0  0  0  0  0  0  0  0  0  0  0
   11.3568  -16.9825   23.6531 C   0  0  1  0  0  0  0  0  0  0  0  0
   11.5321  -18.0313   24.6962 C   0  0  0  0  0  0  0  0  0  0  0  0
   10.6390  -17.8054   25.8788 C   0  0  0  0  0  0  0  0  0  0  0  0
   10.8190  -18.8197   26.9156 C   0  0  0  0  0  0  0  0  0  0  0  0
   12.0180  -19.0923   27.2630 O   0  0  0  0  0  0  0  0  0  0  0  0
   12.0475  -17.3511   22.4019 C   0  0  0  0  0  0  0  0  0  0  0  0
   13.4530  -17.3036   22.3036 O   0  0  0  0  0  0  0  0  0  0  0  0
    9.8368  -19.5305   27.5740 O   0  0  0  0  0  0  0  0  0  0  0  0
   11.4735  -17.7281   21.3446 O   0  0  0  0  0  0  0  0  0  0  0  0
  1  2  1  0
  3  2  1  0
  4  5  1  0
  4  3  1  0
  5  6  1  1
  5  1  1  0
  6  7  2  0
  8 12  1  0
  8  6  1  0
  9  8  1  0
 10  9  1  0
 10 11  1  0
 11 12  1  0
 12 13  1  6
 13 15  1  0
 13 14  2  0
 15 16  1  0
 16 21  1  0
 16 17  1  1
 18 17  1  0
 19 20  2  0
 19 18  1  0
 21 24  2  0
 21 22  1  0
 23 19  1  0
M  END
$$$$
