PPE.pdb
     RDKit          3D

 24 25  0  0  1  0  0  0  0  0999 V2000
    8.2391  -13.9976   21.1074 N   0  0  0  0  0  0  0  0  0  0  0  0
    7.8035  -15.0771   20.2812 C   0  0  0  0  0  0  0  0  0  0  0  0
    6.8133  -15.8930   21.0405 C   0  0  0  0  0  0  0  0  0  0  0  0
    6.6908  -15.2631   22.3855 C   0  0  0  0  0  0  0  0  0  0  0  0
    7.5152  -14.0122   22.3227 C   0  0  1  0  0  0  0  0  0  0  0  0
    8.3081  -13.8906   23.5585 C   0  0  0  0  0  0  0  0  0  0  0  0
    9.5795  -13.8420   23.3976 O   0  0  0  0  0  0  0  0  0  0  0  0
    7.8219  -13.8243   24.8743 N   0  0  0  0  0  0  0  0  0  0  0  0
    6.4608  -13.9958   25.2761 C   0  0  0  0  0  0  0  0  0  0  0  0
    6.3840  -13.3908   26.6371 C   0  0  0  0  0  0  0  0  0  0  0  0
    7.7132  -12.7253   26.8957 C   0  0  0  0  0  0  0  0  0  0  0  0
    8.6258  -13.5723   26.0328 C   0  0  1  0  0  0  0  0  0  0  0  0
    9.0125  -14.8059   26.7597 C   0  0  0  0  0  0  0  0  0  0  0  0
    8.1173  -15.6650   26.9526 O   0  0  0  0  0  0  0  0  0  0  0  0
   10.3085  -15.0906   27.2526 N   0  0  0  0  0  0  0  0  0  0  0  0
   10.7963  -16.4549   27.4644 C   0  0  1  0  0  0  0  0  0  0  0  0
   12.0539  -16.7119   26.7087 C   0  0  0  0  0  0  0  0  0  0  0  0
   11.9505  -16.2783   25.2774 C   0  0  0  0  0  0  0  0  0  0  0  0
   13.1727  -16.5486   24.5229 C   0  0  0  0  0  0  0  0  0  0  0  0
   14.2063  -15.8587   24.8200 O   0  0  0  0  0  0  0  0  0  0  0  0
   11.0044  -16.6068   28.9176 C   0  0  0  0  0  0  0  0  0  0  0  0
   11.3828  -17.8453   29.4745 O   0  0  0  0  0  0  0  0  0  0  0  0
   13.3485  -17.4713   23.5123 O   0  0  0  0  0  0  0  0  0  0  0  0
   10.8700  -15.6843   29.7664 O   0  0  0  0  0  0  0  0  0  0  0  0
  1  2  1  0
  3  2  1  0
  4  5  1  0
  4  3  1  0
  5  6  1  1
  5  1  1  0
  6  7  2  0
  8 12  1  0
  8  6  1  0
  9  8  1  0
 10  9  1  0
 10 11  1  0
 11 12  1  0
 12 13  1  1
 13 15  1  0
 13 14  2  0
 15 16  1  0
 16 21  1  0
 16 17  1  6
 18 17  1  0
 19 20  2  0
 19 18  1  0
 21 24  2  0
 21 22  1  0
 23 19  1  0
M  END
$$$$
