PPE.pdb
     RDKit          3D

 24 25  0  0  1  0  0  0  0  0999 V2000
    8.5061  -14.1326   21.0929 N   0  0  0  0  0  0  0  0  0  0  0  0
    7.8703  -15.0654   20.2192 C   0  0  0  0  0  0  0  0  0  0  0  0
    6.6245  -15.5609   20.8711 C   0  0  0  0  0  0  0  0  0  0  0  0
    6.5522  -14.8959   22.2028 C   0  0  0  0  0  0  0  0  0  0  0  0
    7.6930  -13.9231   22.2313 C   0  0  1  0  0  0  0  0  0  0  0  0
    8.3656  -14.0016   23.5398 C   0  0  0  0  0  0  0  0  0  0  0  0
    9.6047  -14.3305   23.5060 O   0  0  0  0  0  0  0  0  0  0  0  0
    7.7975  -13.7578   24.8006 N   0  0  0  0  0  0  0  0  0  0  0  0
    6.4174  -13.4932   25.0629 C   0  0  0  0  0  0  0  0  0  0  0  0
    6.3983  -12.8616   26.4137 C   0  0  0  0  0  0  0  0  0  0  0  0
    7.8359  -12.6307   26.8091 C   0  0  0  0  0  0  0  0  0  0  0  0
    8.5229  -13.7375   26.0357 C   0  0  1  0  0  0  0  0  0  0  0  0
    8.4379  -15.0124   26.7885 C   0  0  0  0  0  0  0  0  0  0  0  0
    7.3025  -15.5348   26.9099 O   0  0  0  0  0  0  0  0  0  0  0  0
    9.5335  -15.6856   27.3803 N   0  0  0  0  0  0  0  0  0  0  0  0
    9.6316  -17.1454   27.4391 C   0  0  1  0  0  0  0  0  0  0  0  0
   10.4470  -17.6866   26.3161 C   0  0  0  0  0  0  0  0  0  0  0  0
   11.8905  -17.2983   26.4290 C   0  0  0  0  0  0  0  0  0  0  0  0
   12.7029  -17.8500   25.3465 C   0  0  0  0  0  0  0  0  0  0  0  0
   12.1007  -18.5516   24.4646 O   0  0  0  0  0  0  0  0  0  0  0  0
   10.2343  -17.4746   28.7455 C   0  0  0  0  0  0  0  0  0  0  0  0
   10.3705  -18.8122   29.1694 O   0  0  0  0  0  0  0  0  0  0  0  0
   14.0620  -17.7044   25.1589 O   0  0  0  0  0  0  0  0  0  0  0  0
   10.6673  -16.6290   29.5743 O   0  0  0  0  0  0  0  0  0  0  0  0
  1  2  1  0
  3  2  1  0
  4  5  1  0
  4  3  1  0
  5  6  1  1
  5  1  1  0
  6  7  2  0
  8 12  1  0
  8  6  1  0
  9  8  1  0
 10  9  1  0
 10 11  1  0
 11 12  1  0
 12 13  1  1
 13 15  1  0
 13 14  2  0
 15 16  1  0
 16 21  1  0
 16 17  1  6
 18 17  1  0
 19 20  2  0
 19 18  1  0
 21 24  2  0
 21 22  1  0
 23 19  1  0
M  END
$$$$
