PPE.pdb
     RDKit          3D

 24 25  0  0  1  0  0  0  0  0999 V2000
    7.4183  -17.7492   18.0039 N   0  0  0  0  0  0  0  0  0  0  0  0
    6.8518  -19.0594   17.9942 C   0  0  0  0  0  0  0  0  0  0  0  0
    6.2063  -19.3126   19.3140 C   0  0  0  0  0  0  0  0  0  0  0  0
    6.4352  -18.0913   20.1367 C   0  0  0  0  0  0  0  0  0  0  0  0
    7.0925  -17.1036   19.2197 C   0  0  1  0  0  0  0  0  0  0  0  0
    8.2033  -16.4462   19.9301 C   0  0  0  0  0  0  0  0  0  0  0  0
    9.3456  -16.5103   19.3506 O   0  0  0  0  0  0  0  0  0  0  0  0
    8.1405  -15.7676   21.1579 N   0  0  0  0  0  0  0  0  0  0  0  0
    7.0211  -15.7415   22.0466 C   0  0  0  0  0  0  0  0  0  0  0  0
    7.2600  -14.5634   22.9291 C   0  0  0  0  0  0  0  0  0  0  0  0
    8.4648  -13.8413   22.3785 C   0  0  0  0  0  0  0  0  0  0  0  0
    9.2032  -14.9871   21.7177 C   0  0  1  0  0  0  0  0  0  0  0  0
   10.0058  -15.7230   22.7246 C   0  0  0  0  0  0  0  0  0  0  0  0
   10.9385  -15.0975   23.2864 O   0  0  0  0  0  0  0  0  0  0  0  0
    9.8043  -17.0725   23.1013 N   0  0  0  0  0  0  0  0  0  0  0  0
   10.8776  -17.9206   23.6237 C   0  0  1  0  0  0  0  0  0  0  0  0
   12.2207  -17.4124   23.2283 C   0  0  0  0  0  0  0  0  0  0  0  0
   13.3286  -18.1524   23.9156 C   0  0  0  0  0  0  0  0  0  0  0  0
   14.0313  -19.0656   23.0166 C   0  0  0  0  0  0  0  0  0  0  0  0
   14.8494  -19.8915   23.5467 O   0  0  0  0  0  0  0  0  0  0  0  0
   10.7229  -17.9391   25.0914 C   0  0  0  0  0  0  0  0  0  0  0  0
   10.4704  -19.1414   25.7829 O   0  0  0  0  0  0  0  0  0  0  0  0
   13.9182  -19.1444   21.6438 O   0  0  0  0  0  0  0  0  0  0  0  0
   10.7982  -16.9261   25.8380 O   0  0  0  0  0  0  0  0  0  0  0  0
  1  2  1  0
  3  2  1  0
  4  5  1  0
  4  3  1  0
  5  6  1  1
  5  1  1  0
  6  7  2  0
  8 12  1  0
  8  6  1  0
  9  8  1  0
 10  9  1  0
 10 11  1  0
 11 12  1  0
 12 13  1  1
 13 15  1  0
 13 14  2  0
 15 16  1  0
 16 21  1  0
 16 17  1  1
 18 17  1  0
 19 20  2  0
 19 18  1  0
 21 24  2  0
 21 22  1  0
 23 19  1  0
M  END
$$$$
