QSP.pdb
     RDKit          3D

 23 23  0  0  1  0  0  0  0  0999 V2000
    8.8050  -12.8161   17.7719 N   0  0  0  0  0  0  0  0  0  0  0  0
    8.3462  -14.0633   17.2819 C   0  0  0  0  0  0  0  0  0  0  0  0
    8.2248  -14.2031   16.0403 O   0  0  0  0  0  0  0  0  0  0  0  0
    8.0076  -15.1947   18.1523 C   0  0  0  0  0  0  0  0  0  0  0  0
    8.2346  -14.9014   19.6116 C   0  0  0  0  0  0  0  0  0  0  0  0
    7.8939  -16.1583   20.3824 C   0  0  2  0  0  0  0  0  0  0  0  0
    7.0473  -16.9799   19.5382 N   0  0  0  0  0  0  0  0  0  0  0  0
    7.2362  -15.8573   21.6842 C   0  0  0  0  0  0  0  0  0  0  0  0
    5.9842  -15.7537   21.7520 O   0  0  0  0  0  0  0  0  0  0  0  0
    7.3945  -17.6921   24.8431 O   0  0  0  0  0  0  0  0  0  0  0  0
    6.5453  -16.6023   24.6400 C   0  0  0  0  0  0  0  0  0  0  0  0
    7.3147  -15.3845   24.1624 C   0  0  2  0  0  0  0  0  0  0  0  0
    7.9669  -15.6749   22.8917 N   0  0  0  0  0  0  0  0  0  0  0  0
    8.2659  -14.9739   25.1930 C   0  0  0  0  0  0  0  0  0  0  0  0
    9.4626  -15.4116   25.1340 O   0  0  0  0  0  0  0  0  0  0  0  0
    7.8501  -14.1048   26.2304 N   0  0  0  0  0  0  0  0  0  0  0  0
    6.5416  -13.5542   26.4751 C   0  0  0  0  0  0  0  0  0  0  0  0
    6.8982  -12.1463   26.9839 C   0  0  0  0  0  0  0  0  0  0  0  0
    7.9966  -12.5126   27.9864 C   0  0  0  0  0  0  0  0  0  0  0  0
    8.7365  -13.6009   27.2419 C   0  0  1  0  0  0  0  0  0  0  0  0
    9.1052  -14.6363   28.2346 C   0  0  0  0  0  0  0  0  0  0  0  0
    8.4916  -15.7246   28.2177 O   0  0  0  0  0  0  0  0  0  0  0  0
   10.0981  -14.4358   29.1696 O   0  0  0  0  0  0  0  0  0  0  0  0
  1  2  1  0
  2  3  2  0
  4  5  1  0
  4  2  1  0
  6  8  1  0
  6  5  1  0
  6  7  1  6
  8 13  1  0
  9  8  2  0
 10 11  1  0
 12 11  1  1
 12 14  1  0
 13 12  1  0
 14 15  2  0
 14 16  1  0
 16 20  1  0
 16 17  1  0
 17 18  1  0
 19 18  1  0
 20 21  1  1
 20 19  1  0
 21 23  1  0
 22 21  2  0
M  END
$$$$
