QSP.pdb
     RDKit          3D

 23 23  0  0  1  0  0  0  0  0999 V2000
   16.3753  -14.8012   19.0833 N   0  0  0  0  0  0  0  0  0  0  0  0
   16.7091  -15.2051   17.7675 C   0  0  0  0  0  0  0  0  0  0  0  0
   17.8912  -15.0388   17.3792 O   0  0  0  0  0  0  0  0  0  0  0  0
   15.7437  -15.8060   16.8407 C   0  0  0  0  0  0  0  0  0  0  0  0
   14.4125  -16.0923   17.4835 C   0  0  0  0  0  0  0  0  0  0  0  0
   13.3581  -15.9867   16.4032 C   0  0  2  0  0  0  0  0  0  0  0  0
   13.9528  -15.3055   15.2689 N   0  0  0  0  0  0  0  0  0  0  0  0
   12.1347  -15.2840   16.8799 C   0  0  0  0  0  0  0  0  0  0  0  0
   12.1374  -14.0339   17.0222 O   0  0  0  0  0  0  0  0  0  0  0  0
    8.5551  -17.3714   17.6481 O   0  0  0  0  0  0  0  0  0  0  0  0
    8.4914  -16.0375   17.2396 C   0  0  0  0  0  0  0  0  0  0  0  0
    9.7335  -15.2723   17.6579 C   0  0  2  0  0  0  0  0  0  0  0  0
   10.9267  -15.9682   17.1927 N   0  0  0  0  0  0  0  0  0  0  0  0
    9.7280  -15.0892   19.1078 C   0  0  0  0  0  0  0  0  0  0  0  0
   10.5322  -15.7798   19.8172 O   0  0  0  0  0  0  0  0  0  0  0  0
    8.8402  -14.1573   19.6974 N   0  0  0  0  0  0  0  0  0  0  0  0
    7.8659  -13.3108   19.0575 C   0  0  0  0  0  0  0  0  0  0  0  0
    7.9668  -12.0359   19.9135 C   0  0  0  0  0  0  0  0  0  0  0  0
    7.9326  -12.6671   21.3085 C   0  0  0  0  0  0  0  0  0  0  0  0
    8.7947  -13.8930   21.1084 C   0  0  1  0  0  0  0  0  0  0  0  0
    8.1663  -14.9978   21.8686 C   0  0  0  0  0  0  0  0  0  0  0  0
    7.5580  -15.8872   21.2361 O   0  0  0  0  0  0  0  0  0  0  0  0
    8.2325  -15.0729   23.2436 O   0  0  0  0  0  0  0  0  0  0  0  0
  1  2  1  0
  2  3  2  0
  4  5  1  0
  4  2  1  0
  6  8  1  0
  6  5  1  0
  6  7  1  6
  8 13  1  0
  9  8  2  0
 10 11  1  0
 12 11  1  1
 12 14  1  0
 13 12  1  0
 14 15  2  0
 14 16  1  0
 16 20  1  0
 16 17  1  0
 17 18  1  0
 19 18  1  0
 20 21  1  1
 20 19  1  0
 21 23  1  0
 22 21  2  0
M  END
$$$$
