QSP.pdb
     RDKit          3D

 23 23  0  0  1  0  0  0  0  0999 V2000
   11.3103  -13.9303   20.6879 N   0  0  0  0  0  0  0  0  0  0  0  0
   10.8135  -13.8081   19.3672 C   0  0  0  0  0  0  0  0  0  0  0  0
   11.6207  -13.9469   18.4159 O   0  0  0  0  0  0  0  0  0  0  0  0
    9.4067  -13.5284   19.0591 C   0  0  0  0  0  0  0  0  0  0  0  0
    8.5508  -13.3964   20.2908 C   0  0  0  0  0  0  0  0  0  0  0  0
    8.1531  -14.7934   20.7153 C   0  0  2  0  0  0  0  0  0  0  0  0
    7.1429  -15.2673   19.7883 N   0  0  0  0  0  0  0  0  0  0  0  0
    7.6639  -14.8349   22.1213 C   0  0  0  0  0  0  0  0  0  0  0  0
    6.5932  -14.2543   22.4365 O   0  0  0  0  0  0  0  0  0  0  0  0
    7.3032  -17.6691   24.6532 O   0  0  0  0  0  0  0  0  0  0  0  0
    6.9128  -16.3569   24.9287 C   0  0  0  0  0  0  0  0  0  0  0  0
    8.0051  -15.3681   24.5647 C   0  0  2  0  0  0  0  0  0  0  0  0
    8.3609  -15.5151   23.1589 N   0  0  0  0  0  0  0  0  0  0  0  0
    9.1516  -15.5607   25.4501 C   0  0  0  0  0  0  0  0  0  0  0  0
   10.1076  -16.3113   25.0630 O   0  0  0  0  0  0  0  0  0  0  0  0
    9.1848  -14.9174   26.7109 N   0  0  0  0  0  0  0  0  0  0  0  0
    8.2572  -13.9620   27.2603 C   0  0  0  0  0  0  0  0  0  0  0  0
    9.2078  -13.0287   28.0308 C   0  0  0  0  0  0  0  0  0  0  0  0
   10.0577  -14.0779   28.7538 C   0  0  0  0  0  0  0  0  0  0  0  0
   10.2265  -15.1262   27.6773 C   0  0  1  0  0  0  0  0  0  0  0  0
   10.1271  -16.4488   28.3362 C   0  0  0  0  0  0  0  0  0  0  0  0
   11.0420  -16.7996   29.1115 O   0  0  0  0  0  0  0  0  0  0  0  0
    9.0625  -17.2978   28.1207 O   0  0  0  0  0  0  0  0  0  0  0  0
  1  2  1  0
  2  3  2  0
  4  5  1  0
  4  2  1  0
  6  8  1  0
  6  5  1  0
  6  7  1  6
  8 13  1  0
  9  8  2  0
 10 11  1  0
 12 11  1  1
 12 14  1  0
 13 12  1  0
 14 15  2  0
 14 16  1  0
 16 20  1  0
 16 17  1  0
 17 18  1  0
 19 18  1  0
 20 21  1  1
 20 19  1  0
 21 23  1  0
 22 21  2  0
M  END
$$$$
