QSP.pdb
     RDKit          3D

 23 23  0  0  1  0  0  0  0  0999 V2000
   13.9932  -17.5581   20.0313 N   0  0  0  0  0  0  0  0  0  0  0  0
   12.6354  -17.9383   20.1650 C   0  0  0  0  0  0  0  0  0  0  0  0
   12.1841  -18.8079   19.3802 O   0  0  0  0  0  0  0  0  0  0  0  0
   11.7350  -17.3670   21.1726 C   0  0  0  0  0  0  0  0  0  0  0  0
   10.8143  -16.3171   20.6094 C   0  0  0  0  0  0  0  0  0  0  0  0
    9.3983  -16.8257   20.7709 C   0  0  2  0  0  0  0  0  0  0  0  0
    8.7461  -16.7386   19.4781 N   0  0  0  0  0  0  0  0  0  0  0  0
    8.6463  -16.0713   21.8118 C   0  0  0  0  0  0  0  0  0  0  0  0
    8.3079  -14.8769   21.6075 O   0  0  0  0  0  0  0  0  0  0  0  0
    7.1553  -17.9383   25.3075 O   0  0  0  0  0  0  0  0  0  0  0  0
    6.5142  -16.8396   24.7314 C   0  0  0  0  0  0  0  0  0  0  0  0
    7.5084  -15.9105   24.0591 C   0  0  2  0  0  0  0  0  0  0  0  0
    8.2782  -16.6434   23.0617 N   0  0  0  0  0  0  0  0  0  0  0  0
    8.3602  -15.2923   25.0729 C   0  0  0  0  0  0  0  0  0  0  0  0
    9.5850  -15.6417   25.1425 O   0  0  0  0  0  0  0  0  0  0  0  0
    7.8196  -14.3241   25.9531 N   0  0  0  0  0  0  0  0  0  0  0  0
    6.4922  -13.7646   25.9726 C   0  0  0  0  0  0  0  0  0  0  0  0
    6.7859  -12.3077   26.3719 C   0  0  0  0  0  0  0  0  0  0  0  0
    7.7483  -12.5561   27.5371 C   0  0  0  0  0  0  0  0  0  0  0  0
    8.5730  -13.7083   27.0094 C   0  0  1  0  0  0  0  0  0  0  0  0
    8.8108  -14.6306   28.1435 C   0  0  0  0  0  0  0  0  0  0  0  0
    9.4914  -14.2253   29.1098 O   0  0  0  0  0  0  0  0  0  0  0  0
    8.3070  -15.9137   28.1639 O   0  0  0  0  0  0  0  0  0  0  0  0
  1  2  1  0
  2  3  2  0
  4  5  1  0
  4  2  1  0
  6  8  1  0
  6  5  1  0
  6  7  1  6
  8 13  1  0
  9  8  2  0
 10 11  1  0
 12 11  1  1
 12 14  1  0
 13 12  1  0
 14 15  2  0
 14 16  1  0
 16 20  1  0
 16 17  1  0
 17 18  1  0
 19 18  1  0
 20 21  1  1
 20 19  1  0
 21 23  1  0
 22 21  2  0
M  END
$$$$
