QSP.pdb
     RDKit          3D

 23 23  0  0  1  0  0  0  0  0999 V2000
   12.1987  -14.5207   21.3741 N   0  0  0  0  0  0  0  0  0  0  0  0
   12.3335  -14.6382   19.9691 C   0  0  0  0  0  0  0  0  0  0  0  0
   13.2763  -15.3356   19.5212 O   0  0  0  0  0  0  0  0  0  0  0  0
   11.4279  -13.9868   19.0164 C   0  0  0  0  0  0  0  0  0  0  0  0
   10.3460  -13.1844   19.6893 C   0  0  0  0  0  0  0  0  0  0  0  0
    9.0708  -13.9957   19.6153 C   0  0  2  0  0  0  0  0  0  0  0  0
    8.3324  -13.5549   18.4470 N   0  0  0  0  0  0  0  0  0  0  0  0
    8.2537  -13.8714   20.8543 C   0  0  0  0  0  0  0  0  0  0  0  0
    7.7499  -12.7631   21.1718 O   0  0  0  0  0  0  0  0  0  0  0  0
    7.2501  -17.2010   23.3631 O   0  0  0  0  0  0  0  0  0  0  0  0
    6.4290  -16.0813   23.2149 C   0  0  0  0  0  0  0  0  0  0  0  0
    7.2458  -14.8275   22.9616 C   0  0  2  0  0  0  0  0  0  0  0  0
    8.0038  -14.9690   21.7248 N   0  0  0  0  0  0  0  0  0  0  0  0
    8.1069  -14.5659   24.1130 C   0  0  0  0  0  0  0  0  0  0  0  0
    9.3306  -14.9217   24.0585 O   0  0  0  0  0  0  0  0  0  0  0  0
    7.5762  -13.9273   25.2597 N   0  0  0  0  0  0  0  0  0  0  0  0
    6.2696  -13.3501   25.4468 C   0  0  0  0  0  0  0  0  0  0  0  0
    6.6035  -12.1261   26.3178 C   0  0  0  0  0  0  0  0  0  0  0  0
    7.5227  -12.7929   27.3455 C   0  0  0  0  0  0  0  0  0  0  0  0
    8.3205  -13.7354   26.4729 C   0  0  1  0  0  0  0  0  0  0  0  0
    8.4928  -14.9944   27.2334 C   0  0  0  0  0  0  0  0  0  0  0  0
    7.8562  -16.0051   26.8667 O   0  0  0  0  0  0  0  0  0  0  0  0
    9.3289  -15.0832   28.3259 O   0  0  0  0  0  0  0  0  0  0  0  0
  1  2  1  0
  2  3  2  0
  4  5  1  0
  4  2  1  0
  6  8  1  0
  6  5  1  0
  6  7  1  6
  8 13  1  0
  9  8  2  0
 10 11  1  0
 12 11  1  1
 12 14  1  0
 13 12  1  0
 14 15  2  0
 14 16  1  0
 16 20  1  0
 16 17  1  0
 17 18  1  0
 19 18  1  0
 20 21  1  1
 20 19  1  0
 21 23  1  0
 22 21  2  0
M  END
$$$$
