QSP.pdb
     RDKit          3D

 23 23  0  0  1  0  0  0  0  0999 V2000
    8.5253  -12.5600   18.2706 N   0  0  0  0  0  0  0  0  0  0  0  0
    9.5086  -13.5056   18.6513 C   0  0  0  0  0  0  0  0  0  0  0  0
   10.6952  -13.3014   18.2961 O   0  0  0  0  0  0  0  0  0  0  0  0
    9.2080  -14.7072   19.4374 C   0  0  0  0  0  0  0  0  0  0  0  0
    7.7770  -14.7618   19.9025 C   0  0  0  0  0  0  0  0  0  0  0  0
    7.6118  -16.0344   20.7045 C   0  0  2  0  0  0  0  0  0  0  0  0
    6.6988  -16.8987   19.9807 N   0  0  0  0  0  0  0  0  0  0  0  0
    7.1276  -15.7675   22.0873 C   0  0  0  0  0  0  0  0  0  0  0  0
    6.0566  -15.1337   22.2719 O   0  0  0  0  0  0  0  0  0  0  0  0
    7.3879  -18.1514   25.2147 O   0  0  0  0  0  0  0  0  0  0  0  0
    6.6529  -16.9643   25.2390 C   0  0  0  0  0  0  0  0  0  0  0  0
    7.4215  -15.8259   24.5936 C   0  0  2  0  0  0  0  0  0  0  0  0
    7.8300  -16.2025   23.2461 N   0  0  0  0  0  0  0  0  0  0  0  0
    8.5588  -15.4655   25.4375 C   0  0  0  0  0  0  0  0  0  0  0  0
    9.7083  -15.9409   25.1553 O   0  0  0  0  0  0  0  0  0  0  0  0
    8.3704  -14.6025   26.5439 N   0  0  0  0  0  0  0  0  0  0  0  0
    7.1642  -13.9474   26.9812 C   0  0  0  0  0  0  0  0  0  0  0  0
    7.7161  -12.5968   27.4708 C   0  0  0  0  0  0  0  0  0  0  0  0
    8.9014  -13.0967   28.3020 C   0  0  0  0  0  0  0  0  0  0  0  0
    9.4288  -14.2177   27.4352 C   0  0  1  0  0  0  0  0  0  0  0  0
    9.8307  -15.3183   28.3410 C   0  0  0  0  0  0  0  0  0  0  0  0
   10.7914  -15.1313   29.1178 O   0  0  0  0  0  0  0  0  0  0  0  0
    9.1806  -16.5339   28.3522 O   0  0  0  0  0  0  0  0  0  0  0  0
  1  2  1  0
  2  3  2  0
  4  5  1  0
  4  2  1  0
  6  8  1  0
  6  5  1  0
  6  7  1  6
  8 13  1  0
  9  8  2  0
 10 11  1  0
 12 11  1  1
 12 14  1  0
 13 12  1  0
 14 15  2  0
 14 16  1  0
 16 20  1  0
 16 17  1  0
 17 18  1  0
 19 18  1  0
 20 21  1  1
 20 19  1  0
 21 23  1  0
 22 21  2  0
M  END
$$$$
