QSP.pdb
     RDKit          3D

 23 23  0  0  1  0  0  0  0  0999 V2000
   13.7133  -14.0600   19.8556 N   0  0  0  0  0  0  0  0  0  0  0  0
   13.0616  -14.7016   18.7741 C   0  0  0  0  0  0  0  0  0  0  0  0
   13.7717  -15.2558   17.8998 O   0  0  0  0  0  0  0  0  0  0  0  0
   11.6027  -14.7491   18.6273 C   0  0  0  0  0  0  0  0  0  0  0  0
   10.8773  -14.0360   19.7375 C   0  0  0  0  0  0  0  0  0  0  0  0
    9.3978  -14.2880   19.5441 C   0  0  2  0  0  0  0  0  0  0  0  0
    8.9601  -13.5040   18.4048 N   0  0  0  0  0  0  0  0  0  0  0  0
    8.6088  -13.9620   20.7644 C   0  0  0  0  0  0  0  0  0  0  0  0
    8.3624  -12.7636   21.0577 O   0  0  0  0  0  0  0  0  0  0  0  0
    6.7203  -16.9260   23.1303 O   0  0  0  0  0  0  0  0  0  0  0  0
    6.2610  -15.6075   23.1016 C   0  0  0  0  0  0  0  0  0  0  0  0
    7.4008  -14.6308   22.8774 C   0  0  2  0  0  0  0  0  0  0  0  0
    8.1029  -14.9604   21.6433 N   0  0  0  0  0  0  0  0  0  0  0  0
    8.2870  -14.6409   24.0394 C   0  0  0  0  0  0  0  0  0  0  0  0
    9.4186  -15.2218   23.9439 O   0  0  0  0  0  0  0  0  0  0  0  0
    7.8813  -14.0118   25.2410 N   0  0  0  0  0  0  0  0  0  0  0  0
    6.6996  -13.2276   25.4938 C   0  0  0  0  0  0  0  0  0  0  0  0
    7.2489  -12.1566   26.4527 C   0  0  0  0  0  0  0  0  0  0  0  0
    8.0357  -13.0568   27.4100 C   0  0  0  0  0  0  0  0  0  0  0  0
    8.6502  -14.0535   26.4534 C   0  0  1  0  0  0  0  0  0  0  0  0
    8.5955  -15.3799   27.1099 C   0  0  0  0  0  0  0  0  0  0  0  0
    7.8019  -16.2350   26.6625 O   0  0  0  0  0  0  0  0  0  0  0  0
    9.3888  -15.6962   28.1922 O   0  0  0  0  0  0  0  0  0  0  0  0
  1  2  1  0
  2  3  2  0
  4  5  1  0
  4  2  1  0
  6  8  1  0
  6  5  1  0
  6  7  1  6
  8 13  1  0
  9  8  2  0
 10 11  1  0
 12 11  1  1
 12 14  1  0
 13 12  1  0
 14 15  2  0
 14 16  1  0
 16 20  1  0
 16 17  1  0
 17 18  1  0
 19 18  1  0
 20 21  1  1
 20 19  1  0
 21 23  1  0
 22 21  2  0
M  END
$$$$
