QSP.pdb
     RDKit          3D

 23 23  0  0  1  0  0  0  0  0999 V2000
    7.7498  -12.3182   18.1066 N   0  0  0  0  0  0  0  0  0  0  0  0
    8.0031  -13.7056   17.9757 C   0  0  0  0  0  0  0  0  0  0  0  0
    8.0893  -14.1850   16.8188 O   0  0  0  0  0  0  0  0  0  0  0  0
    8.1689  -14.6052   19.1226 C   0  0  0  0  0  0  0  0  0  0  0  0
    9.6128  -14.8600   19.4651 C   0  0  0  0  0  0  0  0  0  0  0  0
    9.6357  -15.7851   20.6624 C   0  0  2  0  0  0  0  0  0  0  0  0
    9.1533  -17.0827   20.2290 N   0  0  0  0  0  0  0  0  0  0  0  0
    8.8286  -15.2554   21.7964 C   0  0  0  0  0  0  0  0  0  0  0  0
    8.8946  -14.0378   22.1062 O   0  0  0  0  0  0  0  0  0  0  0  0
    6.8927  -17.6804   24.7839 O   0  0  0  0  0  0  0  0  0  0  0  0
    6.2222  -16.6068   24.1942 C   0  0  0  0  0  0  0  0  0  0  0  0
    7.1957  -15.5535   23.6980 C   0  0  2  0  0  0  0  0  0  0  0  0
    7.9609  -16.0743   22.5721 N   0  0  0  0  0  0  0  0  0  0  0  0
    8.0534  -15.1245   24.8006 C   0  0  0  0  0  0  0  0  0  0  0  0
    9.2448  -15.5759   24.8637 O   0  0  0  0  0  0  0  0  0  0  0  0
    7.5551  -14.2231   25.7720 N   0  0  0  0  0  0  0  0  0  0  0  0
    6.2434  -13.6355   25.8679 C   0  0  0  0  0  0  0  0  0  0  0  0
    6.5824  -12.2259   26.3842 C   0  0  0  0  0  0  0  0  0  0  0  0
    7.5603  -12.5971   27.5029 C   0  0  0  0  0  0  0  0  0  0  0  0
    8.3445  -13.7191   26.8609 C   0  0  1  0  0  0  0  0  0  0  0  0
    8.5802  -14.7413   27.9063 C   0  0  0  0  0  0  0  0  0  0  0  0
    7.9563  -15.8217   27.8361 O   0  0  0  0  0  0  0  0  0  0  0  0
    9.4612  -14.5371   28.9468 O   0  0  0  0  0  0  0  0  0  0  0  0
  1  2  1  0
  2  3  2  0
  4  5  1  0
  4  2  1  0
  6  8  1  0
  6  5  1  0
  6  7  1  6
  8 13  1  0
  9  8  2  0
 10 11  1  0
 12 11  1  1
 12 14  1  0
 13 12  1  0
 14 15  2  0
 14 16  1  0
 16 20  1  0
 16 17  1  0
 17 18  1  0
 19 18  1  0
 20 21  1  1
 20 19  1  0
 21 23  1  0
 22 21  2  0
M  END
$$$$
