QSP.pdb
     RDKit          3D

 23 23  0  0  1  0  0  0  0  0999 V2000
    7.9830  -15.1574   17.5875 N   0  0  0  0  0  0  0  0  0  0  0  0
    8.4883  -13.8342   17.5830 C   0  0  0  0  0  0  0  0  0  0  0  0
    9.0833  -13.4314   16.5536 O   0  0  0  0  0  0  0  0  0  0  0  0
    8.3503  -12.9160   18.7188 C   0  0  0  0  0  0  0  0  0  0  0  0
    7.5411  -13.4965   19.8481 C   0  0  0  0  0  0  0  0  0  0  0  0
    8.4758  -14.3442   20.6832 C   0  0  2  0  0  0  0  0  0  0  0  0
    8.6090  -15.6323   20.0293 N   0  0  0  0  0  0  0  0  0  0  0  0
    7.9967  -14.4928   22.0855 C   0  0  0  0  0  0  0  0  0  0  0  0
    7.2937  -13.5927   22.6132 O   0  0  0  0  0  0  0  0  0  0  0  0
    6.0361  -17.2218   23.8144 O   0  0  0  0  0  0  0  0  0  0  0  0
    7.2362  -17.0954   24.5170 C   0  0  0  0  0  0  0  0  0  0  0  0
    7.8767  -15.7407   24.2763 C   0  0  2  0  0  0  0  0  0  0  0  0
    8.2990  -15.6302   22.8857 N   0  0  0  0  0  0  0  0  0  0  0  0
    8.9857  -15.5532   25.2093 C   0  0  0  0  0  0  0  0  0  0  0  0
   10.1207  -16.0608   24.9245 O   0  0  0  0  0  0  0  0  0  0  0  0
    8.7865  -14.8180   26.4027 N   0  0  0  0  0  0  0  0  0  0  0  0
    7.6387  -14.0461   26.8052 C   0  0  0  0  0  0  0  0  0  0  0  0
    8.3091  -12.8688   27.5352 C   0  0  0  0  0  0  0  0  0  0  0  0
    9.3049  -13.6453   28.4018 C   0  0  0  0  0  0  0  0  0  0  0  0
    9.7728  -14.7156   27.4417 C   0  0  1  0  0  0  0  0  0  0  0  0
    9.9064  -15.9701   28.2173 C   0  0  0  0  0  0  0  0  0  0  0  0
    9.0672  -16.8775   28.0340 O   0  0  0  0  0  0  0  0  0  0  0  0
   10.9222  -16.1645   29.1289 O   0  0  0  0  0  0  0  0  0  0  0  0
  1  2  1  0
  2  3  2  0
  4  5  1  0
  4  2  1  0
  6  8  1  0
  6  5  1  0
  6  7  1  6
  8 13  1  0
  9  8  2  0
 10 11  1  0
 12 11  1  6
 12 14  1  0
 13 12  1  0
 14 15  2  0
 14 16  1  0
 16 20  1  0
 16 17  1  0
 17 18  1  0
 19 18  1  0
 20 21  1  1
 20 19  1  0
 21 23  1  0
 22 21  2  0
M  END
$$$$
