QSP.pdb
     RDKit          3D

 23 23  0  0  1  0  0  0  0  0999 V2000
   13.5522  -17.0114   21.4649 N   0  0  0  0  0  0  0  0  0  0  0  0
   12.8784  -17.8398   20.5344 C   0  0  0  0  0  0  0  0  0  0  0  0
   13.5511  -18.6930   19.9057 O   0  0  0  0  0  0  0  0  0  0  0  0
   11.4380  -17.7487   20.2713 C   0  0  0  0  0  0  0  0  0  0  0  0
   10.7454  -16.7329   21.1405 C   0  0  0  0  0  0  0  0  0  0  0  0
    9.2602  -16.8500   20.8750 C   0  0  2  0  0  0  0  0  0  0  0  0
    9.0284  -16.4911   19.4887 N   0  0  0  0  0  0  0  0  0  0  0  0
    8.4564  -16.0020   21.7984 C   0  0  0  0  0  0  0  0  0  0  0  0
    8.1864  -14.8121   21.4918 O   0  0  0  0  0  0  0  0  0  0  0  0
    6.6992  -17.5655   25.2947 O   0  0  0  0  0  0  0  0  0  0  0  0
    6.1488  -16.4428   24.6730 C   0  0  0  0  0  0  0  0  0  0  0  0
    7.2139  -15.6271   23.9633 C   0  0  2  0  0  0  0  0  0  0  0  0
    7.9620  -16.4770   23.0455 N   0  0  0  0  0  0  0  0  0  0  0  0
    8.0766  -14.9855   24.9531 C   0  0  0  0  0  0  0  0  0  0  0  0
    9.2988  -15.3430   25.0267 O   0  0  0  0  0  0  0  0  0  0  0  0
    7.5490  -13.9865   25.8064 N   0  0  0  0  0  0  0  0  0  0  0  0
    6.2483  -13.3682   25.7742 C   0  0  0  0  0  0  0  0  0  0  0  0
    6.5926  -11.9224   26.1733 C   0  0  0  0  0  0  0  0  0  0  0  0
    7.5009  -12.2032   27.3740 C   0  0  0  0  0  0  0  0  0  0  0  0
    8.2913  -13.3956   26.8846 C   0  0  1  0  0  0  0  0  0  0  0  0
    8.4471  -14.3176   28.0331 C   0  0  0  0  0  0  0  0  0  0  0  0
    9.1511  -13.9539   28.9992 O   0  0  0  0  0  0  0  0  0  0  0  0
    7.8424  -15.5561   28.0671 O   0  0  0  0  0  0  0  0  0  0  0  0
  1  2  1  0
  2  3  2  0
  4  5  1  0
  4  2  1  0
  6  8  1  0
  6  5  1  0
  6  7  1  6
  8 13  1  0
  9  8  2  0
 10 11  1  0
 12 11  1  1
 12 14  1  0
 13 12  1  0
 14 15  2  0
 14 16  1  0
 16 20  1  0
 16 17  1  0
 17 18  1  0
 19 18  1  0
 20 21  1  1
 20 19  1  0
 21 23  1  0
 22 21  2  0
M  END
$$$$
