QSP.pdb
     RDKit          3D

 23 23  0  0  1  0  0  0  0  0999 V2000
    9.6683  -14.6591   17.4187 N   0  0  0  0  0  0  0  0  0  0  0  0
    8.4512  -13.9683   17.6363 C   0  0  0  0  0  0  0  0  0  0  0  0
    7.4472  -14.3124   16.9659 O   0  0  0  0  0  0  0  0  0  0  0  0
    8.3083  -12.8745   18.6035 C   0  0  0  0  0  0  0  0  0  0  0  0
    7.5952  -13.2929   19.8619 C   0  0  0  0  0  0  0  0  0  0  0  0
    8.6062  -13.9980   20.7398 C   0  0  2  0  0  0  0  0  0  0  0  0
    8.7988  -15.3340   20.2086 N   0  0  0  0  0  0  0  0  0  0  0  0
    8.1809  -14.0357   22.1666 C   0  0  0  0  0  0  0  0  0  0  0  0
    8.0227  -12.9654   22.8087 O   0  0  0  0  0  0  0  0  0  0  0  0
    7.3286  -17.6722   24.3107 O   0  0  0  0  0  0  0  0  0  0  0  0
    6.7289  -16.4474   24.6112 C   0  0  0  0  0  0  0  0  0  0  0  0
    7.6548  -15.2872   24.2945 C   0  0  2  0  0  0  0  0  0  0  0  0
    7.9363  -15.2513   22.8649 N   0  0  0  0  0  0  0  0  0  0  0  0
    8.8710  -15.4013   25.0966 C   0  0  0  0  0  0  0  0  0  0  0  0
    9.8822  -15.9978   24.5979 O   0  0  0  0  0  0  0  0  0  0  0  0
    8.9091  -14.8531   26.4014 N   0  0  0  0  0  0  0  0  0  0  0  0
    7.8915  -14.1063   27.0957 C   0  0  0  0  0  0  0  0  0  0  0  0
    8.7436  -13.0858   27.8708 C   0  0  0  0  0  0  0  0  0  0  0  0
    9.8088  -14.0285   28.4387 C   0  0  0  0  0  0  0  0  0  0  0  0
   10.0497  -14.9547   27.2682 C   0  0  1  0  0  0  0  0  0  0  0  0
   10.2194  -16.3191   27.8185 C   0  0  0  0  0  0  0  0  0  0  0  0
    9.3354  -17.1709   27.5857 O   0  0  0  0  0  0  0  0  0  0  0  0
   11.3162  -16.6742   28.5746 O   0  0  0  0  0  0  0  0  0  0  0  0
  1  2  1  0
  2  3  2  0
  4  5  1  0
  4  2  1  0
  6  8  1  0
  6  5  1  0
  6  7  1  6
  8 13  1  0
  9  8  2  0
 10 11  1  0
 12 11  1  6
 12 14  1  0
 13 12  1  0
 14 15  2  0
 14 16  1  0
 16 20  1  0
 16 17  1  0
 17 18  1  0
 19 18  1  0
 20 21  1  1
 20 19  1  0
 21 23  1  0
 22 21  2  0
M  END
$$$$
