LQC.pdb
     RDKit          3D

 24 23  0  0  1  0  0  0  0  0999 V2000
    7.3772  -12.3235   19.6001 C   0  0  0  0  0  0  0  0  0  0  0  0
    8.2186  -13.5183   19.9860 C   0  0  2  0  0  0  0  0  0  0  0  0
    9.6786  -13.2629   19.7483 C   0  0  0  0  0  0  0  0  0  0  0  0
    7.7285  -14.7624   19.2400 C   0  0  0  0  0  0  0  0  0  0  0  0
    8.5007  -15.9274   19.8026 C   0  0  2  0  0  0  0  0  0  0  0  0
    8.0589  -17.1251   19.1107 N   0  0  0  0  0  0  0  0  0  0  0  0
    8.3012  -16.1131   21.2511 C   0  0  0  0  0  0  0  0  0  0  0  0
    7.1327  -16.2323   21.7378 O   0  0  0  0  0  0  0  0  0  0  0  0
   11.3673  -18.4023   27.6381 N   0  0  0  0  0  0  0  0  0  0  0  0
   11.1392  -18.2102   26.2382 C   0  0  0  0  0  0  0  0  0  0  0  0
   11.9183  -18.8251   25.4612 O   0  0  0  0  0  0  0  0  0  0  0  0
   10.0439  -17.3341   25.7399 C   0  0  0  0  0  0  0  0  0  0  0  0
   10.2144  -17.1899   24.2609 C   0  0  0  0  0  0  0  0  0  0  0  0
    9.1754  -16.3164   23.6144 C   0  0  2  0  0  0  0  0  0  0  0  0
    9.3617  -16.1729   22.1959 N   0  0  0  0  0  0  0  0  0  0  0  0
    8.9856  -15.0313   24.3066 C   0  0  0  0  0  0  0  0  0  0  0  0
    9.7475  -14.0841   24.0209 O   0  0  0  0  0  0  0  0  0  0  0  0
    7.9862  -14.8290   25.2716 N   0  0  0  0  0  0  0  0  0  0  0  0
    7.7673  -13.5421   25.9125 C   0  0  1  0  0  0  0  0  0  0  0  0
    6.2822  -13.1932   25.9323 C   0  0  0  0  0  0  0  0  0  0  0  0
    5.9820  -11.6713   26.8342 S   0  0  0  0  0  0  0  0  0  0  0  0
    8.2670  -13.5532   27.3134 C   0  0  0  0  0  0  0  0  0  0  0  0
    8.3439  -12.4707   27.9219 O   0  0  0  0  0  0  0  0  0  0  0  0
    8.6330  -14.7432   27.9114 O   0  0  0  0  0  0  0  0  0  0  0  0
  2  1  1  6
  2  3  1  0
  4  2  1  0
  4  5  1  0
  5  7  1  0
  5  6  1  6
  7  8  2  0
  9 10  1  0
 10 11  2  0
 10 12  1  0
 12 13  1  0
 14 13  1  1
 15 14  1  0
 15  7  1  0
 16 17  2  0
 16 14  1  0
 18 16  1  0
 19 18  1  0
 19 20  1  1
 21 20  1  0
 22 19  1  0
 22 24  1  0
 23 22  2  0
M  END
$$$$
