LQC.pdb
     RDKit          3D

 24 23  0  0  1  0  0  0  0  0999 V2000
    9.5426  -13.1563   19.4716 C   0  0  0  0  0  0  0  0  0  0  0  0
    8.0777  -13.5046   19.6028 C   0  0  2  0  0  0  0  0  0  0  0  0
    7.2181  -12.2741   19.6093 C   0  0  0  0  0  0  0  0  0  0  0  0
    7.8566  -14.3612   20.8525 C   0  0  0  0  0  0  0  0  0  0  0  0
    8.7744  -15.5490   20.7219 C   0  0  2  0  0  0  0  0  0  0  0  0
    8.0567  -16.5839   19.9993 N   0  0  0  0  0  0  0  0  0  0  0  0
    9.2130  -16.0914   22.0204 C   0  0  0  0  0  0  0  0  0  0  0  0
    8.3685  -16.5438   22.8562 O   0  0  0  0  0  0  0  0  0  0  0  0
   15.1308  -18.8457   25.0698 N   0  0  0  0  0  0  0  0  0  0  0  0
   13.8174  -19.0870   24.5546 C   0  0  0  0  0  0  0  0  0  0  0  0
   13.6843  -20.1158   23.8387 O   0  0  0  0  0  0  0  0  0  0  0  0
   12.6827  -18.1709   24.8527 C   0  0  0  0  0  0  0  0  0  0  0  0
   12.2244  -17.5787   23.5579 C   0  0  0  0  0  0  0  0  0  0  0  0
   11.0106  -16.7015   23.6898 C   0  0  2  0  0  0  0  0  0  0  0  0
   10.5712  -16.1531   22.4354 N   0  0  0  0  0  0  0  0  0  0  0  0
   11.1387  -15.6897   24.7512 C   0  0  0  0  0  0  0  0  0  0  0  0
   11.8178  -14.6678   24.5193 O   0  0  0  0  0  0  0  0  0  0  0  0
   10.5300  -15.8272   26.0088 N   0  0  0  0  0  0  0  0  0  0  0  0
   10.7537  -14.8842   27.0930 C   0  0  1  0  0  0  0  0  0  0  0  0
    9.8344  -13.6744   26.9561 C   0  0  0  0  0  0  0  0  0  0  0  0
    8.1261  -14.1757   26.7323 S   0  0  0  0  0  0  0  0  0  0  0  0
   10.5006  -15.5209   28.4132 C   0  0  0  0  0  0  0  0  0  0  0  0
   10.0385  -16.6759   28.4334 O   0  0  0  0  0  0  0  0  0  0  0  0
   10.7765  -14.8350   29.5799 O   0  0  0  0  0  0  0  0  0  0  0  0
  2  1  1  1
  2  3  1  0
  4  2  1  0
  4  5  1  0
  5  7  1  0
  5  6  1  1
  7  8  2  0
  9 10  1  0
 10 11  2  0
 10 12  1  0
 12 13  1  0
 14 13  1  6
 15 14  1  0
 15  7  1  0
 16 17  2  0
 16 14  1  0
 18 16  1  0
 19 18  1  0
 19 20  1  6
 21 20  1  0
 22 19  1  0
 22 24  1  0
 23 22  2  0
M  END
$$$$
