LQC.pdb
     RDKit          3D

 24 23  0  0  1  0  0  0  0  0999 V2000
    9.1630  -13.2001   19.3690 C   0  0  0  0  0  0  0  0  0  0  0  0
    7.7834  -13.5073   19.9044 C   0  0  2  0  0  0  0  0  0  0  0  0
    6.9254  -12.2766   19.9532 C   0  0  0  0  0  0  0  0  0  0  0  0
    7.8954  -14.1790   21.2759 C   0  0  0  0  0  0  0  0  0  0  0  0
    8.6755  -15.4505   21.0644 C   0  0  2  0  0  0  0  0  0  0  0  0
    7.8273  -16.3716   20.3294 N   0  0  0  0  0  0  0  0  0  0  0  0
    9.0964  -16.0916   22.3231 C   0  0  0  0  0  0  0  0  0  0  0  0
    8.2772  -16.7807   23.0090 O   0  0  0  0  0  0  0  0  0  0  0  0
   13.4841  -19.6184   24.6446 N   0  0  0  0  0  0  0  0  0  0  0  0
   12.7742  -19.6426   23.4020 C   0  0  0  0  0  0  0  0  0  0  0  0
   12.8622  -20.7086   22.7352 O   0  0  0  0  0  0  0  0  0  0  0  0
   11.9818  -18.4727   22.9339 C   0  0  0  0  0  0  0  0  0  0  0  0
   12.0626  -17.4170   23.9904 C   0  0  0  0  0  0  0  0  0  0  0  0
   10.8176  -16.5825   24.1083 C   0  0  2  0  0  0  0  0  0  0  0  0
   10.4093  -15.9977   22.8598 N   0  0  0  0  0  0  0  0  0  0  0  0
   10.8731  -15.6107   25.2125 C   0  0  0  0  0  0  0  0  0  0  0  0
   11.8630  -14.8532   25.2883 O   0  0  0  0  0  0  0  0  0  0  0  0
    9.8616  -15.5019   26.1800 N   0  0  0  0  0  0  0  0  0  0  0  0
    9.9832  -14.6399   27.3448 C   0  0  1  0  0  0  0  0  0  0  0  0
    8.7029  -13.8390   27.5613 C   0  0  0  0  0  0  0  0  0  0  0  0
    8.0434  -13.2314   26.0070 S   0  0  0  0  0  0  0  0  0  0  0  0
   10.2529  -15.4371   28.5712 C   0  0  0  0  0  0  0  0  0  0  0  0
   10.2155  -16.6780   28.4896 O   0  0  0  0  0  0  0  0  0  0  0  0
   10.5366  -14.8020   29.7646 O   0  0  0  0  0  0  0  0  0  0  0  0
  2  1  1  1
  2  3  1  0
  4  2  1  0
  4  5  1  0
  5  7  1  0
  5  6  1  1
  7  8  2  0
  9 10  1  0
 10 11  2  0
 10 12  1  0
 12 13  1  0
 14 13  1  6
 15 14  1  0
 15  7  1  0
 16 17  2  0
 16 14  1  0
 18 16  1  0
 19 18  1  0
 19 20  1  1
 21 20  1  0
 22 19  1  0
 22 24  1  0
 23 22  2  0
M  END
$$$$
