LQC.pdb
     RDKit          3D

 24 23  0  0  1  0  0  0  0  0999 V2000
    8.7177  -12.8671   18.3167 C   0  0  0  0  0  0  0  0  0  0  0  0
    7.5147  -13.5375   18.9393 C   0  0  2  0  0  0  0  0  0  0  0  0
    6.6233  -12.5426   19.6240 C   0  0  0  0  0  0  0  0  0  0  0  0
    7.9718  -14.6446   19.8932 C   0  0  0  0  0  0  0  0  0  0  0  0
    8.7580  -15.6247   19.0616 C   0  0  2  0  0  0  0  0  0  0  0  0
    7.8113  -16.3963   18.2763 N   0  0  0  0  0  0  0  0  0  0  0  0
    9.5736  -16.5502   19.8685 C   0  0  0  0  0  0  0  0  0  0  0  0
    9.0302  -17.4912   20.5285 O   0  0  0  0  0  0  0  0  0  0  0  0
   15.1419  -19.6007   19.2383 N   0  0  0  0  0  0  0  0  0  0  0  0
   14.0995  -19.0814   18.4064 C   0  0  0  0  0  0  0  0  0  0  0  0
   14.3678  -18.9847   17.1787 O   0  0  0  0  0  0  0  0  0  0  0  0
   12.7801  -18.6819   18.9679 C   0  0  0  0  0  0  0  0  0  0  0  0
   13.0368  -17.8137   20.1585 C   0  0  0  0  0  0  0  0  0  0  0  0
   11.7848  -17.3153   20.8252 C   0  0  2  0  0  0  0  0  0  0  0  0
   10.9890  -16.4727   19.9743 N   0  0  0  0  0  0  0  0  0  0  0  0
   12.0284  -16.7315   22.1543 C   0  0  0  0  0  0  0  0  0  0  0  0
   12.6424  -15.6464   22.2234 O   0  0  0  0  0  0  0  0  0  0  0  0
   11.5997  -17.3438   23.3428 N   0  0  0  0  0  0  0  0  0  0  0  0
   11.9701  -16.8443   24.6573 C   0  0  1  0  0  0  0  0  0  0  0  0
   10.8259  -16.0462   25.2750 C   0  0  0  0  0  0  0  0  0  0  0  0
    9.2741  -16.9405   25.1662 S   0  0  0  0  0  0  0  0  0  0  0  0
   12.3127  -17.9635   25.5751 C   0  0  0  0  0  0  0  0  0  0  0  0
   12.0416  -19.1243   25.2185 O   0  0  0  0  0  0  0  0  0  0  0  0
   12.9168  -17.7058   26.7902 O   0  0  0  0  0  0  0  0  0  0  0  0
  2  1  1  1
  2  3  1  0
  4  2  1  0
  4  5  1  0
  5  7  1  0
  5  6  1  1
  7  8  2  0
  9 10  1  0
 10 11  2  0
 10 12  1  0
 12 13  1  0
 14 13  1  6
 15 14  1  0
 15  7  1  0
 16 17  2  0
 16 14  1  0
 18 16  1  0
 19 18  1  0
 19 20  1  1
 21 20  1  0
 22 19  1  0
 22 24  1  0
 23 22  2  0
M  END
$$$$
