LQC.pdb
     RDKit          3D

 24 23  0  0  1  0  0  0  0  0999 V2000
    6.3010  -12.2365   23.8720 C   0  0  0  0  0  0  0  0  0  0  0  0
    5.9886  -12.7006   25.2761 C   0  0  2  0  0  0  0  0  0  0  0  0
    5.8412  -11.5417   26.2186 C   0  0  0  0  0  0  0  0  0  0  0  0
    7.0604  -13.6869   25.7484 C   0  0  0  0  0  0  0  0  0  0  0  0
    6.8924  -14.9297   24.9134 C   0  0  2  0  0  0  0  0  0  0  0  0
    5.6415  -15.5565   25.3015 N   0  0  0  0  0  0  0  0  0  0  0  0
    7.9867  -15.9015   25.0889 C   0  0  0  0  0  0  0  0  0  0  0  0
    8.0220  -16.6665   26.1037 O   0  0  0  0  0  0  0  0  0  0  0  0
   11.6310  -17.9035   20.6449 N   0  0  0  0  0  0  0  0  0  0  0  0
   11.3176  -16.5210   20.8418 C   0  0  0  0  0  0  0  0  0  0  0  0
   11.3753  -15.7892   19.8171 O   0  0  0  0  0  0  0  0  0  0  0  0
   10.9467  -15.9889   22.1816 C   0  0  0  0  0  0  0  0  0  0  0  0
   11.0304  -17.1184   23.1584 C   0  0  0  0  0  0  0  0  0  0  0  0
   10.1951  -16.9149   24.3918 C   0  0  2  0  0  0  0  0  0  0  0  0
    9.0596  -16.0611   24.1703 N   0  0  0  0  0  0  0  0  0  0  0  0
   10.9870  -16.5312   25.5718 C   0  0  0  0  0  0  0  0  0  0  0  0
   11.5696  -15.4267   25.5630 O   0  0  0  0  0  0  0  0  0  0  0  0
   11.1128  -17.3541   26.7023 N   0  0  0  0  0  0  0  0  0  0  0  0
   11.3889  -16.8244   28.0281 C   0  0  1  0  0  0  0  0  0  0  0  0
   10.2561  -15.9150   28.4942 C   0  0  0  0  0  0  0  0  0  0  0  0
   10.7602  -14.9099   29.8925 S   0  0  0  0  0  0  0  0  0  0  0  0
   11.5482  -17.9231   29.0179 C   0  0  0  0  0  0  0  0  0  0  0  0
   12.2280  -17.7064   30.0371 O   0  0  0  0  0  0  0  0  0  0  0  0
   10.9504  -19.1487   28.7980 O   0  0  0  0  0  0  0  0  0  0  0  0
  2  1  1  6
  2  3  1  0
  4  2  1  0
  4  5  1  0
  5  7  1  0
  5  6  1  1
  7  8  2  0
  9 10  1  0
 10 11  2  0
 10 12  1  0
 12 13  1  0
 14 13  1  6
 15 14  1  0
 15  7  1  0
 16 17  2  0
 16 14  1  0
 18 16  1  0
 19 18  1  0
 19 20  1  1
 21 20  1  0
 22 19  1  0
 22 24  1  0
 23 22  2  0
M  END
$$$$
