LQC.pdb
     RDKit          3D

 24 23  0  0  1  0  0  0  0  0999 V2000
    9.5813  -13.1204   19.6376 C   0  0  0  0  0  0  0  0  0  0  0  0
    8.1060  -13.4335   19.5377 C   0  0  2  0  0  0  0  0  0  0  0  0
    7.2857  -12.1829   19.4096 C   0  0  0  0  0  0  0  0  0  0  0  0
    7.6716  -14.2799   20.7374 C   0  0  0  0  0  0  0  0  0  0  0  0
    8.6350  -15.4359   20.8135 C   0  0  2  0  0  0  0  0  0  0  0  0
    8.0825  -16.5234   20.0258 N   0  0  0  0  0  0  0  0  0  0  0  0
    8.8645  -15.9129   22.1891 C   0  0  0  0  0  0  0  0  0  0  0  0
    7.8876  -16.1944   22.9526 O   0  0  0  0  0  0  0  0  0  0  0  0
   13.3577  -19.5397   24.2284 N   0  0  0  0  0  0  0  0  0  0  0  0
   12.6982  -19.2361   25.4619 C   0  0  0  0  0  0  0  0  0  0  0  0
   13.0519  -19.9185   26.4609 O   0  0  0  0  0  0  0  0  0  0  0  0
   11.6576  -18.1754   25.5490 C   0  0  0  0  0  0  0  0  0  0  0  0
   11.4210  -17.6561   24.1665 C   0  0  0  0  0  0  0  0  0  0  0  0
   10.3875  -16.5664   24.0981 C   0  0  2  0  0  0  0  0  0  0  0  0
   10.1535  -16.0931   22.7607 N   0  0  0  0  0  0  0  0  0  0  0  0
   10.6244  -15.4808   25.0636 C   0  0  0  0  0  0  0  0  0  0  0  0
   11.5233  -14.6503   24.8153 O   0  0  0  0  0  0  0  0  0  0  0  0
    9.8830  -15.3424   26.2477 N   0  0  0  0  0  0  0  0  0  0  0  0
   10.1568  -14.3004   27.2244 C   0  0  1  0  0  0  0  0  0  0  0  0
    8.9819  -13.3326   27.3267 C   0  0  0  0  0  0  0  0  0  0  0  0
    7.4256  -14.2111   27.4874 S   0  0  0  0  0  0  0  0  0  0  0  0
   10.4049  -14.8837   28.5699 C   0  0  0  0  0  0  0  0  0  0  0  0
   10.2107  -16.1020   28.7309 O   0  0  0  0  0  0  0  0  0  0  0  0
   10.8400  -14.0806   29.6061 O   0  0  0  0  0  0  0  0  0  0  0  0
  2  1  1  1
  2  3  1  0
  4  2  1  0
  4  5  1  0
  5  7  1  0
  5  6  1  6
  7  8  2  0
  9 10  1  0
 10 11  2  0
 10 12  1  0
 12 13  1  0
 14 13  1  6
 15 14  1  0
 15  7  1  0
 16 17  2  0
 16 14  1  0
 18 16  1  0
 19 18  1  0
 19 20  1  1
 21 20  1  0
 22 19  1  0
 22 24  1  0
 23 22  2  0
M  END
$$$$
