LQC.pdb
     RDKit          3D

 24 23  0  0  1  0  0  0  0  0999 V2000
    8.2165  -12.9291   24.0856 C   0  0  0  0  0  0  0  0  0  0  0  0
    6.7848  -12.7086   24.5170 C   0  0  2  0  0  0  0  0  0  0  0  0
    6.7004  -12.3139   25.9628 C   0  0  0  0  0  0  0  0  0  0  0  0
    5.9530  -13.9589   24.2177 C   0  0  0  0  0  0  0  0  0  0  0  0
    6.7826  -14.8100   23.2916 C   0  0  2  0  0  0  0  0  0  0  0  0
    5.8977  -15.7810   22.6733 N   0  0  0  0  0  0  0  0  0  0  0  0
    7.8713  -15.5275   23.9790 C   0  0  0  0  0  0  0  0  0  0  0  0
    7.6175  -16.3838   24.8840 O   0  0  0  0  0  0  0  0  0  0  0  0
   14.6952  -17.4997   22.5558 N   0  0  0  0  0  0  0  0  0  0  0  0
   13.2888  -17.7610   22.5099 C   0  0  0  0  0  0  0  0  0  0  0  0
   12.8559  -18.2741   21.4431 O   0  0  0  0  0  0  0  0  0  0  0  0
   12.3987  -17.4418   23.6595 C   0  0  0  0  0  0  0  0  0  0  0  0
   11.3368  -16.5105   23.1674 C   0  0  0  0  0  0  0  0  0  0  0  0
   10.3073  -16.1634   24.2066 C   0  0  2  0  0  0  0  0  0  0  0  0
    9.2509  -15.3306   23.6989 N   0  0  0  0  0  0  0  0  0  0  0  0
   10.8941  -15.6563   25.4577 C   0  0  0  0  0  0  0  0  0  0  0  0
   11.8514  -14.8579   25.3843 O   0  0  0  0  0  0  0  0  0  0  0  0
   10.4223  -16.0331   26.7252 N   0  0  0  0  0  0  0  0  0  0  0  0
   11.1971  -15.8327   27.9393 C   0  0  1  0  0  0  0  0  0  0  0  0
   10.5419  -14.7836   28.8324 C   0  0  0  0  0  0  0  0  0  0  0  0
    9.2779  -13.8698   27.9452 S   0  0  0  0  0  0  0  0  0  0  0  0
   11.3163  -17.0992   28.7101 C   0  0  0  0  0  0  0  0  0  0  0  0
   10.7462  -18.1142   28.2709 O   0  0  0  0  0  0  0  0  0  0  0  0
   12.0450  -17.1331   29.8829 O   0  0  0  0  0  0  0  0  0  0  0  0
  2  1  1  1
  2  3  1  0
  4  2  1  0
  4  5  1  0
  5  7  1  0
  5  6  1  1
  7  8  2  0
  9 10  1  0
 10 11  2  0
 10 12  1  0
 12 13  1  0
 14 13  1  6
 15 14  1  0
 15  7  1  0
 16 17  2  0
 16 14  1  0
 18 16  1  0
 19 18  1  0
 19 20  1  1
 21 20  1  0
 22 19  1  0
 22 24  1  0
 23 22  2  0
M  END
$$$$
