LQC.pdb
     RDKit          3D

 24 23  0  0  1  0  0  0  0  0999 V2000
    6.8679  -12.2023   24.1116 C   0  0  0  0  0  0  0  0  0  0  0  0
    6.1564  -12.6597   25.3642 C   0  0  2  0  0  0  0  0  0  0  0  0
    5.9915  -11.5354   26.3450 C   0  0  0  0  0  0  0  0  0  0  0  0
    6.8992  -13.8489   25.9795 C   0  0  0  0  0  0  0  0  0  0  0  0
    6.9150  -14.9298   24.9299 C   0  0  2  0  0  0  0  0  0  0  0  0
    5.6046  -15.5550   24.9206 N   0  0  0  0  0  0  0  0  0  0  0  0
    7.9350  -15.9650   25.1756 C   0  0  0  0  0  0  0  0  0  0  0  0
    7.9786  -16.5866   26.2839 O   0  0  0  0  0  0  0  0  0  0  0  0
   13.9551  -19.0085   22.0823 N   0  0  0  0  0  0  0  0  0  0  0  0
   12.5372  -18.9415   22.2658 C   0  0  0  0  0  0  0  0  0  0  0  0
   11.8348  -19.2344   21.2611 O   0  0  0  0  0  0  0  0  0  0  0  0
   11.9378  -18.5481   23.5703 C   0  0  0  0  0  0  0  0  0  0  0  0
   10.7700  -17.6584   23.2840 C   0  0  0  0  0  0  0  0  0  0  0  0
   10.0310  -17.2149   24.5159 C   0  0  2  0  0  0  0  0  0  0  0  0
    8.9236  -16.3443   24.2273 N   0  0  0  0  0  0  0  0  0  0  0  0
   10.9182  -16.6941   25.5686 C   0  0  0  0  0  0  0  0  0  0  0  0
   11.4353  -15.5690   25.4071 O   0  0  0  0  0  0  0  0  0  0  0  0
   11.2051  -17.4090   26.7423 N   0  0  0  0  0  0  0  0  0  0  0  0
   11.6270  -16.7569   27.9717 C   0  0  1  0  0  0  0  0  0  0  0  0
   10.6084  -15.7066   28.4040 C   0  0  0  0  0  0  0  0  0  0  0  0
   11.1000  -14.9138   29.9368 S   0  0  0  0  0  0  0  0  0  0  0  0
   11.7808  -17.7449   29.0728 C   0  0  0  0  0  0  0  0  0  0  0  0
   12.3996  -17.3988   30.0952 O   0  0  0  0  0  0  0  0  0  0  0  0
   11.2448  -19.0119   28.9497 O   0  0  0  0  0  0  0  0  0  0  0  0
  2  1  1  6
  2  3  1  0
  4  2  1  0
  4  5  1  0
  5  7  1  0
  5  6  1  1
  7  8  2  0
  9 10  1  0
 10 11  2  0
 10 12  1  0
 12 13  1  0
 14 13  1  6
 15 14  1  0
 15  7  1  0
 16 17  2  0
 16 14  1  0
 18 16  1  0
 19 18  1  0
 19 20  1  1
 21 20  1  0
 22 19  1  0
 22 24  1  0
 23 22  2  0
M  END
$$$$
