LQC.pdb
     RDKit          3D

 24 23  0  0  1  0  0  0  0  0999 V2000
    6.6177  -12.2528   24.1933 C   0  0  0  0  0  0  0  0  0  0  0  0
    5.9529  -12.9447   25.3612 C   0  0  2  0  0  0  0  0  0  0  0  0
    5.5666  -11.9670   26.4326 C   0  0  0  0  0  0  0  0  0  0  0  0
    6.8662  -14.0494   25.8997 C   0  0  0  0  0  0  0  0  0  0  0  0
    6.8882  -15.1317   24.8517 C   0  0  2  0  0  0  0  0  0  0  0  0
    5.7114  -15.9595   25.0474 N   0  0  0  0  0  0  0  0  0  0  0  0
    8.0879  -15.9852   24.9212 C   0  0  0  0  0  0  0  0  0  0  0  0
    8.2106  -16.8636   25.8321 O   0  0  0  0  0  0  0  0  0  0  0  0
   14.6481  -16.4250   23.9608 N   0  0  0  0  0  0  0  0  0  0  0  0
   13.6361  -16.4492   22.9490 C   0  0  0  0  0  0  0  0  0  0  0  0
   13.7649  -15.6099   22.0174 O   0  0  0  0  0  0  0  0  0  0  0  0
   12.5026  -17.4125   23.0030 C   0  0  0  0  0  0  0  0  0  0  0  0
   11.2339  -16.6287   22.8882 C   0  0  0  0  0  0  0  0  0  0  0  0
   10.4024  -16.6366   24.1407 C   0  0  2  0  0  0  0  0  0  0  0  0
    9.1734  -15.9023   24.0072 N   0  0  0  0  0  0  0  0  0  0  0  0
   11.1657  -16.2743   25.3460 C   0  0  0  0  0  0  0  0  0  0  0  0
   11.5416  -15.0909   25.4780 O   0  0  0  0  0  0  0  0  0  0  0  0
   11.4867  -17.2026   26.3491 N   0  0  0  0  0  0  0  0  0  0  0  0
   11.7215  -16.8118   27.7300 C   0  0  1  0  0  0  0  0  0  0  0  0
   10.5537  -15.9890   28.2655 C   0  0  0  0  0  0  0  0  0  0  0  0
   11.0671  -14.9363   29.6249 S   0  0  0  0  0  0  0  0  0  0  0  0
   11.8938  -18.0062   28.5995 C   0  0  0  0  0  0  0  0  0  0  0  0
   11.3691  -19.0768   28.2438 O   0  0  0  0  0  0  0  0  0  0  0  0
   12.6210  -17.9145   29.7702 O   0  0  0  0  0  0  0  0  0  0  0  0
  2  1  1  6
  2  3  1  0
  4  2  1  0
  4  5  1  0
  5  7  1  0
  5  6  1  1
  7  8  2  0
  9 10  1  0
 10 11  2  0
 10 12  1  0
 12 13  1  0
 14 13  1  6
 15 14  1  0
 15  7  1  0
 16 17  2  0
 16 14  1  0
 18 16  1  0
 19 18  1  0
 19 20  1  1
 21 20  1  0
 22 19  1  0
 22 24  1  0
 23 22  2  0
M  END
$$$$
