LQC.pdb
     RDKit          3D

 24 23  0  0  1  0  0  0  0  0999 V2000
    7.2467  -12.4813   19.5570 C   0  0  0  0  0  0  0  0  0  0  0  0
    8.4848  -13.3483   19.5597 C   0  0  2  0  0  0  0  0  0  0  0  0
    9.7356  -12.5210   19.6273 C   0  0  0  0  0  0  0  0  0  0  0  0
    8.4766  -14.2707   18.3376 C   0  0  0  0  0  0  0  0  0  0  0  0
    9.6506  -15.2011   18.4991 C   0  0  2  0  0  0  0  0  0  0  0  0
    9.6720  -16.0882   17.3498 N   0  0  0  0  0  0  0  0  0  0  0  0
    9.5849  -16.0138   19.7270 C   0  0  0  0  0  0  0  0  0  0  0  0
    8.5068  -16.0980   20.3956 O   0  0  0  0  0  0  0  0  0  0  0  0
   11.2355  -22.1619   22.8225 N   0  0  0  0  0  0  0  0  0  0  0  0
   11.8020  -21.0101   22.1894 C   0  0  0  0  0  0  0  0  0  0  0  0
   12.6343  -21.2371   21.2703 O   0  0  0  0  0  0  0  0  0  0  0  0
   11.4241  -19.6300   22.5995 C   0  0  0  0  0  0  0  0  0  0  0  0
   11.5215  -18.7539   21.3912 C   0  0  0  0  0  0  0  0  0  0  0  0
   10.6280  -17.5460   21.4459 C   0  0  2  0  0  0  0  0  0  0  0  0
   10.6835  -16.7480   20.2511 N   0  0  0  0  0  0  0  0  0  0  0  0
   10.7939  -16.7571   22.6775 C   0  0  0  0  0  0  0  0  0  0  0  0
   11.8112  -16.0422   22.7930 O   0  0  0  0  0  0  0  0  0  0  0  0
    9.8576  -16.7764   23.7235 N   0  0  0  0  0  0  0  0  0  0  0  0
   10.1033  -16.1341   25.0048 C   0  0  1  0  0  0  0  0  0  0  0  0
    8.7911  -15.7145   25.6602 C   0  0  0  0  0  0  0  0  0  0  0  0
    7.8128  -14.6872   24.5614 S   0  0  0  0  0  0  0  0  0  0  0  0
   10.8203  -17.0508   25.9311 C   0  0  0  0  0  0  0  0  0  0  0  0
   11.0802  -18.2026   25.5390 O   0  0  0  0  0  0  0  0  0  0  0  0
   11.1824  -16.6204   27.1926 O   0  0  0  0  0  0  0  0  0  0  0  0
  2  1  1  6
  2  3  1  0
  4  2  1  0
  4  5  1  0
  5  7  1  0
  5  6  1  6
  7  8  2  0
  9 10  1  0
 10 11  2  0
 10 12  1  0
 12 13  1  0
 14 13  1  6
 15 14  1  0
 15  7  1  0
 16 17  2  0
 16 14  1  0
 18 16  1  0
 19 18  1  0
 19 20  1  1
 21 20  1  0
 22 19  1  0
 22 24  1  0
 23 22  2  0
M  END
$$$$
