LQC.pdb
     RDKit          3D

 24 23  0  0  1  0  0  0  0  0999 V2000
    9.4101  -13.0739   19.5637 C   0  0  0  0  0  0  0  0  0  0  0  0
    7.9708  -13.5345   19.5946 C   0  0  2  0  0  0  0  0  0  0  0  0
    7.0207  -12.3805   19.4578 C   0  0  0  0  0  0  0  0  0  0  0  0
    7.7098  -14.3399   20.8704 C   0  0  0  0  0  0  0  0  0  0  0  0
    8.8114  -15.3639   20.9599 C   0  0  2  0  0  0  0  0  0  0  0  0
    8.4137  -16.5107   20.1630 N   0  0  0  0  0  0  0  0  0  0  0  0
    9.0795  -15.8117   22.3384 C   0  0  0  0  0  0  0  0  0  0  0  0
    8.1374  -15.9088   23.1866 O   0  0  0  0  0  0  0  0  0  0  0  0
   13.4316  -19.8152   24.3476 N   0  0  0  0  0  0  0  0  0  0  0  0
   12.5340  -19.8141   23.2328 C   0  0  0  0  0  0  0  0  0  0  0  0
   12.7402  -20.6953   22.3555 O   0  0  0  0  0  0  0  0  0  0  0  0
   11.4256  -18.8262   23.1253 C   0  0  0  0  0  0  0  0  0  0  0  0
   11.6579  -17.7684   24.1569 C   0  0  0  0  0  0  0  0  0  0  0  0
   10.6305  -16.6710   24.1402 C   0  0  2  0  0  0  0  0  0  0  0  0
   10.3699  -16.1613   22.8211 N   0  0  0  0  0  0  0  0  0  0  0  0
   10.8962  -15.6125   25.1280 C   0  0  0  0  0  0  0  0  0  0  0  0
   11.8824  -14.8675   24.9501 O   0  0  0  0  0  0  0  0  0  0  0  0
   10.0882  -15.4081   26.2578 N   0  0  0  0  0  0  0  0  0  0  0  0
   10.4780  -14.5297   27.3492 C   0  0  1  0  0  0  0  0  0  0  0  0
    9.5980  -13.2838   27.3816 C   0  0  0  0  0  0  0  0  0  0  0  0
    7.8683  -13.7010   27.1498 S   0  0  0  0  0  0  0  0  0  0  0  0
   10.3599  -15.2237   28.6594 C   0  0  0  0  0  0  0  0  0  0  0  0
   10.7031  -14.6105   29.6861 O   0  0  0  0  0  0  0  0  0  0  0  0
    9.8793  -16.5173   28.7199 O   0  0  0  0  0  0  0  0  0  0  0  0
  2  1  1  1
  2  3  1  0
  4  2  1  0
  4  5  1  0
  5  7  1  0
  5  6  1  6
  7  8  2  0
  9 10  1  0
 10 11  2  0
 10 12  1  0
 12 13  1  0
 14 13  1  6
 15 14  1  0
 15  7  1  0
 16 17  2  0
 16 14  1  0
 18 16  1  0
 19 18  1  0
 19 20  1  1
 21 20  1  0
 22 19  1  0
 22 24  1  0
 23 22  2  0
M  END
$$$$
