MKK.pdb
     RDKit          3D

 27 26  0  0  1  0  0  0  0  0999 V2000
   21.6844  -11.8100    7.7255 C   0  0  0  0  0  0  0  0  0  0  0  0
   21.3873  -11.9070    5.9615 S   0  0  0  0  0  0  0  0  0  0  0  0
   19.6442  -12.0099    5.5389 C   0  0  0  0  0  0  0  0  0  0  0  0
   19.0246  -13.3215    5.9584 C   0  0  0  0  0  0  0  0  0  0  0  0
   17.5763  -13.4210    5.5553 C   0  0  2  0  0  0  0  0  0  0  0  0
   16.7699  -12.4286    6.1919 N   0  0  0  0  0  0  0  0  0  0  0  0
   17.0218  -14.7816    5.7815 C   0  0  0  0  0  0  0  0  0  0  0  0
   16.4576  -15.0362    6.8875 O   0  0  0  0  0  0  0  0  0  0  0  0
   17.0859  -15.8167    4.8303 N   0  0  0  0  0  0  0  0  0  0  0  0
   16.6367  -17.1895    5.0888 C   0  0  1  0  0  0  0  0  0  0  0  0
   16.3233  -17.8871    3.7964 C   0  0  0  0  0  0  0  0  0  0  0  0
   15.8418  -19.2781    4.0502 C   0  0  0  0  0  0  0  0  0  0  0  0
   15.4694  -19.9691    2.7712 C   0  0  0  0  0  0  0  0  0  0  0  0
   15.0083  -21.3729    3.0871 C   0  0  0  0  0  0  0  0  0  0  0  0
   14.8329  -22.0597    1.8278 N   0  0  0  0  0  0  0  0  0  0  0  0
   17.6787  -17.8632    5.9048 C   0  0  0  0  0  0  0  0  0  0  0  0
   18.9128  -17.8114    5.6775 O   0  0  0  0  0  0  0  0  0  0  0  0
   17.3221  -18.6517    7.0574 N   0  0  0  0  0  0  0  0  0  0  0  0
   18.3272  -19.2532    7.9004 C   0  0  1  0  0  0  0  0  0  0  0  0
   18.2996  -18.7029    9.3150 C   0  0  0  0  0  0  0  0  0  0  0  0
   19.3590  -19.3746   10.1277 C   0  0  0  0  0  0  0  0  0  0  0  0
   19.4022  -18.7787   11.5027 C   0  0  0  0  0  0  0  0  0  0  0  0
   20.5032  -19.3875   12.3028 C   0  0  0  0  0  0  0  0  0  0  0  0
   20.4890  -18.8516   13.6733 N   0  0  0  0  0  0  0  0  0  0  0  0
   18.1701  -20.7239    7.8621 C   0  0  0  0  0  0  0  0  0  0  0  0
   17.0333  -21.2743    7.8731 O   0  0  0  0  0  0  0  0  0  0  0  0
   19.2766  -21.5661    7.8121 O   0  0  0  0  0  0  0  0  0  0  0  0
  1  2  1  0
  3  4  1  0
  3  2  1  0
  4  5  1  0
  5  6  1  1
  7  5  1  0
  7  8  2  0
  9  7  1  0
 10 11  1  6
 10  9  1  0
 12 13  1  0
 12 11  1  0
 13 14  1  0
 14 15  1  0
 16 10  1  0
 17 16  2  0
 18 16  1  0
 19 18  1  0
 19 20  1  1
 21 20  1  0
 21 22  1  0
 23 22  1  0
 23 24  1  0
 25 19  1  0
 25 27  1  0
 26 25  2  0
M  END
$$$$
