MKK.pdb
     RDKit          3D

 27 26  0  0  1  0  0  0  0  0999 V2000
   34.2015  -27.8302  -19.5663 C   0  0  0  0  0  0  0  0  0  0  0  0
   34.4533  -26.4298  -18.4778 S   0  0  0  0  0  0  0  0  0  0  0  0
   32.9394  -25.5364  -18.1073 C   0  0  0  0  0  0  0  0  0  0  0  0
   33.1633  -24.3945  -17.1448 C   0  0  0  0  0  0  0  0  0  0  0  0
   32.4437  -24.6031  -15.8377 C   0  0  2  0  0  0  0  0  0  0  0  0
   32.9704  -25.7088  -15.1026 N   0  0  0  0  0  0  0  0  0  0  0  0
   30.9745  -24.7375  -16.0197 C   0  0  0  0  0  0  0  0  0  0  0  0
   30.3902  -25.7579  -15.5467 O   0  0  0  0  0  0  0  0  0  0  0  0
   30.1832  -23.7887  -16.6935 N   0  0  0  0  0  0  0  0  0  0  0  0
   28.7166  -23.7729  -16.6503 C   0  0  1  0  0  0  0  0  0  0  0  0
   28.2076  -22.3637  -16.7516 C   0  0  0  0  0  0  0  0  0  0  0  0
   26.7145  -22.3429  -16.7914 C   0  0  0  0  0  0  0  0  0  0  0  0
   26.1920  -20.9463  -16.9600 C   0  0  0  0  0  0  0  0  0  0  0  0
   24.6815  -20.9836  -16.9617 C   0  0  0  0  0  0  0  0  0  0  0  0
   24.2199  -19.6279  -17.1558 N   0  0  0  0  0  0  0  0  0  0  0  0
   28.2202  -24.6758  -17.7198 C   0  0  0  0  0  0  0  0  0  0  0  0
   28.5239  -24.5836  -18.9349 O   0  0  0  0  0  0  0  0  0  0  0  0
   27.3205  -25.7600  -17.4156 N   0  0  0  0  0  0  0  0  0  0  0  0
   26.9140  -26.7087  -18.4242 C   0  0  1  0  0  0  0  0  0  0  0  0
   26.6149  -28.0785  -17.8419 C   0  0  0  0  0  0  0  0  0  0  0  0
   27.8968  -28.7403  -17.4510 C   0  0  0  0  0  0  0  0  0  0  0  0
   27.6101  -30.0339  -16.7497 C   0  0  0  0  0  0  0  0  0  0  0  0
   28.8790  -30.6901  -16.3223 C   0  0  0  0  0  0  0  0  0  0  0  0
   28.5967  -32.0219  -15.7633 N   0  0  0  0  0  0  0  0  0  0  0  0
   25.7680  -26.1507  -19.1756 C   0  0  0  0  0  0  0  0  0  0  0  0
   24.8669  -25.4699  -18.6101 O   0  0  0  0  0  0  0  0  0  0  0  0
   25.6359  -26.3552  -20.5456 O   0  0  0  0  0  0  0  0  0  0  0  0
  1  2  1  0
  3  4  1  0
  3  2  1  0
  4  5  1  0
  5  6  1  6
  7  5  1  0
  7  8  2  0
  9  7  1  0
 10 11  1  6
 10  9  1  0
 12 13  1  0
 12 11  1  0
 13 14  1  0
 14 15  1  0
 16 10  1  0
 17 16  2  0
 18 16  1  0
 19 18  1  0
 19 20  1  1
 21 20  1  0
 21 22  1  0
 23 22  1  0
 23 24  1  0
 25 19  1  0
 25 27  1  0
 26 25  2  0
M  END
$$$$
