MKK.pdb
     RDKit          3D

 27 26  0  0  1  0  0  0  0  0999 V2000
   29.4118  -21.2545   -4.6325 C   0  0  0  0  0  0  0  0  0  0  0  0
   28.9802  -19.5158   -4.6325 S   0  0  0  0  0  0  0  0  0  0  0  0
   27.6557  -19.1123   -5.7773 C   0  0  0  0  0  0  0  0  0  0  0  0
   27.5894  -20.0686   -6.9441 C   0  0  0  0  0  0  0  0  0  0  0  0
   27.1275  -19.3919   -8.2084 C   0  0  2  0  0  0  0  0  0  0  0  0
   26.4181  -18.1807   -7.9437 N   0  0  0  0  0  0  0  0  0  0  0  0
   26.3264  -20.2992   -9.0715 C   0  0  0  0  0  0  0  0  0  0  0  0
   26.8345  -21.4007   -9.4390 O   0  0  0  0  0  0  0  0  0  0  0  0
   25.0221  -20.0057   -9.5108 N   0  0  0  0  0  0  0  0  0  0  0  0
   24.3362  -20.7440  -10.5774 C   0  0  1  0  0  0  0  0  0  0  0  0
   22.8545  -20.5122  -10.5017 C   0  0  0  0  0  0  0  0  0  0  0  0
   22.2014  -21.5447   -9.6423 C   0  0  0  0  0  0  0  0  0  0  0  0
   20.7222  -21.3140   -9.5399 C   0  0  0  0  0  0  0  0  0  0  0  0
   20.1036  -22.4379   -8.7414 C   0  0  0  0  0  0  0  0  0  0  0  0
   18.7064  -22.1160   -8.5603 N   0  0  0  0  0  0  0  0  0  0  0  0
   24.9473  -20.3467  -11.8713 C   0  0  0  0  0  0  0  0  0  0  0  0
   25.1949  -19.1643  -12.2148 O   0  0  0  0  0  0  0  0  0  0  0  0
   25.3092  -21.3364  -12.8546 N   0  0  0  0  0  0  0  0  0  0  0  0
   25.9082  -20.9651  -14.1138 C   0  0  1  0  0  0  0  0  0  0  0  0
   26.8553  -22.0289  -14.6392 C   0  0  0  0  0  0  0  0  0  0  0  0
   27.3642  -21.6181  -15.9831 C   0  0  0  0  0  0  0  0  0  0  0  0
   28.2894  -22.6678  -16.5213 C   0  0  0  0  0  0  0  0  0  0  0  0
   28.8075  -22.2714  -17.8621 C   0  0  0  0  0  0  0  0  0  0  0  0
   29.6538  -23.3412  -18.4142 N   0  0  0  0  0  0  0  0  0  0  0  0
   24.8357  -20.6359  -15.0785 C   0  0  0  0  0  0  0  0  0  0  0  0
   23.7180  -21.2239  -15.0602 O   0  0  0  0  0  0  0  0  0  0  0  0
   25.0166  -19.6582  -16.0519 O   0  0  0  0  0  0  0  0  0  0  0  0
  1  2  1  0
  3  4  1  0
  3  2  1  0
  4  5  1  0
  5  6  1  1
  7  5  1  0
  7  8  2  0
  9  7  1  0
 10 11  1  6
 10  9  1  0
 12 13  1  0
 12 11  1  0
 13 14  1  0
 14 15  1  0
 16 10  1  0
 17 16  2  0
 18 16  1  0
 19 18  1  0
 19 20  1  6
 21 20  1  0
 21 22  1  0
 23 22  1  0
 23 24  1  0
 25 19  1  0
 25 27  1  0
 26 25  2  0
M  END
$$$$
