MKK.pdb
     RDKit          3D

 27 26  0  0  1  0  0  0  0  0999 V2000
   28.2353  -21.1750   -9.6780 C   0  0  0  0  0  0  0  0  0  0  0  0
   29.4970  -21.3117  -10.9425 S   0  0  0  0  0  0  0  0  0  0  0  0
   28.9192  -20.8402  -12.5769 C   0  0  0  0  0  0  0  0  0  0  0  0
   27.5302  -20.2483  -12.5501 C   0  0  0  0  0  0  0  0  0  0  0  0
   26.5314  -21.1083  -13.2799 C   0  0  2  0  0  0  0  0  0  0  0  0
   26.9263  -21.3678  -14.6279 N   0  0  0  0  0  0  0  0  0  0  0  0
   25.1578  -20.5422  -13.2282 C   0  0  0  0  0  0  0  0  0  0  0  0
   24.6579  -20.2516  -12.1003 O   0  0  0  0  0  0  0  0  0  0  0  0
   24.3692  -20.3063  -14.3696 N   0  0  0  0  0  0  0  0  0  0  0  0
   22.9991  -19.7835  -14.3193 C   0  0  1  0  0  0  0  0  0  0  0  0
   22.6435  -19.1280  -15.6227 C   0  0  0  0  0  0  0  0  0  0  0  0
   23.5549  -17.9779  -15.9017 C   0  0  0  0  0  0  0  0  0  0  0  0
   23.2396  -17.3390  -17.2225 C   0  0  0  0  0  0  0  0  0  0  0  0
   24.2461  -16.2447  -17.4918 C   0  0  0  0  0  0  0  0  0  0  0  0
   23.9493  -15.7019  -18.7978 N   0  0  0  0  0  0  0  0  0  0  0  0
   22.0993  -20.9012  -13.9368 C   0  0  0  0  0  0  0  0  0  0  0  0
   22.1768  -22.0710  -14.3873 O   0  0  0  0  0  0  0  0  0  0  0  0
   21.0360  -20.7036  -12.9840 N   0  0  0  0  0  0  0  0  0  0  0  0
   20.1759  -21.7886  -12.5774 C   0  0  1  0  0  0  0  0  0  0  0  0
   20.1952  -22.0095  -11.0755 C   0  0  0  0  0  0  0  0  0  0  0  0
   19.2893  -23.1474  -10.7313 C   0  0  0  0  0  0  0  0  0  0  0  0
   19.2412  -23.3296   -9.2440 C   0  0  0  0  0  0  0  0  0  0  0  0
   18.2491  -24.3806   -8.8771 C   0  0  0  0  0  0  0  0  0  0  0  0
   18.1109  -24.4574   -7.4140 N   0  0  0  0  0  0  0  0  0  0  0  0
   18.8121  -21.5418  -13.0956 C   0  0  0  0  0  0  0  0  0  0  0  0
   18.3347  -20.3762  -13.1897 O   0  0  0  0  0  0  0  0  0  0  0  0
   17.9947  -22.5915  -13.5030 O   0  0  0  0  0  0  0  0  0  0  0  0
  1  2  1  0
  3  4  1  0
  3  2  1  0
  4  5  1  0
  5  6  1  6
  7  5  1  0
  7  8  2  0
  9  7  1  0
 10 11  1  6
 10  9  1  0
 12 13  1  0
 12 11  1  0
 13 14  1  0
 14 15  1  0
 16 10  1  0
 17 16  2  0
 18 16  1  0
 19 18  1  0
 19 20  1  1
 21 20  1  0
 21 22  1  0
 23 22  1  0
 23 24  1  0
 25 19  1  0
 25 27  1  0
 26 25  2  0
M  END
$$$$
