MKK.pdb
     RDKit          3D

 27 26  0  0  1  0  0  0  0  0999 V2000
   29.5635  -20.4350   -7.0803 C   0  0  0  0  0  0  0  0  0  0  0  0
   28.1128  -19.5135   -6.5750 S   0  0  0  0  0  0  0  0  0  0  0  0
   26.6296  -19.9706   -7.4798 C   0  0  0  0  0  0  0  0  0  0  0  0
   26.8212  -19.9005   -8.9760 C   0  0  0  0  0  0  0  0  0  0  0  0
   25.5356  -20.1351   -9.7257 C   0  0  2  0  0  0  0  0  0  0  0  0
   24.8953  -21.3496   -9.3314 N   0  0  0  0  0  0  0  0  0  0  0  0
   25.7273  -20.0895  -11.1991 C   0  0  0  0  0  0  0  0  0  0  0  0
   26.1191  -19.0083  -11.7319 O   0  0  0  0  0  0  0  0  0  0  0  0
   25.4973  -21.1875  -12.0487 N   0  0  0  0  0  0  0  0  0  0  0  0
   25.5176  -21.1024  -13.5135 C   0  0  1  0  0  0  0  0  0  0  0  0
   26.3354  -22.2226  -14.0891 C   0  0  0  0  0  0  0  0  0  0  0  0
   26.2775  -22.2061  -15.5816 C   0  0  0  0  0  0  0  0  0  0  0  0
   27.4564  -21.4847  -16.1661 C   0  0  0  0  0  0  0  0  0  0  0  0
   27.3501  -21.5096  -17.6732 C   0  0  0  0  0  0  0  0  0  0  0  0
   28.4710  -20.7608  -18.1940 N   0  0  0  0  0  0  0  0  0  0  0  0
   24.1103  -21.0729  -13.9871 C   0  0  0  0  0  0  0  0  0  0  0  0
   23.2272  -21.9055  -13.6645 O   0  0  0  0  0  0  0  0  0  0  0  0
   23.6521  -20.0424  -14.8847 N   0  0  0  0  0  0  0  0  0  0  0  0
   22.2796  -19.9819  -15.3260 C   0  0  1  0  0  0  0  0  0  0  0  0
   21.9223  -18.6306  -15.9186 C   0  0  0  0  0  0  0  0  0  0  0  0
   20.4921  -18.6434  -16.3525 C   0  0  0  0  0  0  0  0  0  0  0  0
   20.1436  -17.3373  -17.0007 C   0  0  0  0  0  0  0  0  0  0  0  0
   18.6841  -17.2737  -17.2989 C   0  0  0  0  0  0  0  0  0  0  0  0
   18.3200  -15.9244  -17.7600 N   0  0  0  0  0  0  0  0  0  0  0  0
   22.0265  -21.0966  -16.2655 C   0  0  0  0  0  0  0  0  0  0  0  0
   22.8744  -21.4415  -17.1358 O   0  0  0  0  0  0  0  0  0  0  0  0
   20.8355  -21.8150  -16.2278 O   0  0  0  0  0  0  0  0  0  0  0  0
  1  2  1  0
  3  4  1  0
  3  2  1  0
  4  5  1  0
  5  6  1  6
  7  5  1  0
  7  8  2  0
  9  7  1  0
 10 11  1  6
 10  9  1  0
 12 13  1  0
 12 11  1  0
 13 14  1  0
 14 15  1  0
 16 10  1  0
 17 16  2  0
 18 16  1  0
 19 18  1  0
 19 20  1  6
 21 20  1  0
 21 22  1  0
 23 22  1  0
 23 24  1  0
 25 19  1  0
 25 27  1  0
 26 25  2  0
M  END
$$$$
