MKK.pdb
     RDKit          3D

 27 26  0  0  1  0  0  0  0  0999 V2000
   17.4221  -21.5912    6.2135 C   0  0  0  0  0  0  0  0  0  0  0  0
   17.7144  -21.8803    4.4698 S   0  0  0  0  0  0  0  0  0  0  0  0
   16.9258  -20.6662    3.4061 C   0  0  0  0  0  0  0  0  0  0  0  0
   17.1310  -19.2516    3.8930 C   0  0  0  0  0  0  0  0  0  0  0  0
   16.5271  -18.2354    2.9591 C   0  0  2  0  0  0  0  0  0  0  0  0
   16.9740  -18.4070    1.6133 N   0  0  0  0  0  0  0  0  0  0  0  0
   16.7556  -16.8410    3.4212 C   0  0  0  0  0  0  0  0  0  0  0  0
   17.6023  -16.1243    2.8082 O   0  0  0  0  0  0  0  0  0  0  0  0
   16.0804  -16.2614    4.5114 N   0  0  0  0  0  0  0  0  0  0  0  0
   16.1508  -14.8350    4.8482 C   0  0  1  0  0  0  0  0  0  0  0  0
   14.8344  -14.3633    5.3955 C   0  0  0  0  0  0  0  0  0  0  0  0
   14.0099  -13.7347    4.3203 C   0  0  0  0  0  0  0  0  0  0  0  0
   12.6645  -13.3169    4.8374 C   0  0  0  0  0  0  0  0  0  0  0  0
   11.8090  -12.8682    3.6755 C   0  0  0  0  0  0  0  0  0  0  0  0
   10.5195  -12.4966    4.2116 N   0  0  0  0  0  0  0  0  0  0  0  0
   17.2967  -14.6417    5.7728 C   0  0  0  0  0  0  0  0  0  0  0  0
   17.7931  -15.5392    6.4977 O   0  0  0  0  0  0  0  0  0  0  0  0
   17.9371  -13.3568    5.9006 N   0  0  0  0  0  0  0  0  0  0  0  0
   19.0477  -13.1533    6.7992 C   0  0  1  0  0  0  0  0  0  0  0  0
   19.8218  -11.8861    6.4834 C   0  0  0  0  0  0  0  0  0  0  0  0
   20.9666  -11.7556    7.4354 C   0  0  0  0  0  0  0  0  0  0  0  0
   21.7050  -10.4774    7.1737 C   0  0  0  0  0  0  0  0  0  0  0  0
   22.8748  -10.3516    8.0896 C   0  0  0  0  0  0  0  0  0  0  0  0
   23.6753   -9.1705    7.7289 N   0  0  0  0  0  0  0  0  0  0  0  0
   18.5506  -13.1802    8.1926 C   0  0  0  0  0  0  0  0  0  0  0  0
   17.3961  -12.7683    8.4974 O   0  0  0  0  0  0  0  0  0  0  0  0
   19.3407  -13.6640    9.2308 O   0  0  0  0  0  0  0  0  0  0  0  0
  1  2  1  0
  3  4  1  0
  3  2  1  0
  4  5  1  0
  5  6  1  6
  7  5  1  0
  7  8  2  0
  9  7  1  0
 10 11  1  1
 10  9  1  0
 12 13  1  0
 12 11  1  0
 13 14  1  0
 14 15  1  0
 16 10  1  0
 17 16  2  0
 18 16  1  0
 19 18  1  0
 19 20  1  6
 21 20  1  0
 21 22  1  0
 23 22  1  0
 23 24  1  0
 25 19  1  0
 25 27  1  0
 26 25  2  0
M  END
$$$$
