MKK.pdb
     RDKit          3D

 27 26  0  0  1  0  0  0  0  0999 V2000
   29.5877  -19.5145   -6.2555 C   0  0  0  0  0  0  0  0  0  0  0  0
   27.9925  -19.2902   -5.4716 S   0  0  0  0  0  0  0  0  0  0  0  0
   26.7017  -20.3197   -6.1797 C   0  0  0  0  0  0  0  0  0  0  0  0
   26.9733  -20.6765   -7.6216 C   0  0  0  0  0  0  0  0  0  0  0  0
   25.9658  -20.0631   -8.5588 C   0  0  2  0  0  0  0  0  0  0  0  0
   24.6290  -20.4588   -8.2477 N   0  0  0  0  0  0  0  0  0  0  0  0
   26.2833  -20.3388   -9.9847 C   0  0  0  0  0  0  0  0  0  0  0  0
   27.3998  -19.9575  -10.4477 O   0  0  0  0  0  0  0  0  0  0  0  0
   25.4086  -21.0057  -10.8625 N   0  0  0  0  0  0  0  0  0  0  0  0
   25.6778  -21.1958  -12.2923 C   0  0  1  0  0  0  0  0  0  0  0  0
   25.1591  -22.5296  -12.7473 C   0  0  0  0  0  0  0  0  0  0  0  0
   25.4023  -22.7205  -14.2087 C   0  0  0  0  0  0  0  0  0  0  0  0
   24.9391  -24.0722  -14.6675 C   0  0  0  0  0  0  0  0  0  0  0  0
   25.1734  -24.1931  -16.1553 C   0  0  0  0  0  0  0  0  0  0  0  0
   24.7963  -25.5339  -16.5406 N   0  0  0  0  0  0  0  0  0  0  0  0
   25.0995  -20.0388  -13.0220 C   0  0  0  0  0  0  0  0  0  0  0  0
   23.9580  -19.5576  -12.8147 O   0  0  0  0  0  0  0  0  0  0  0  0
   25.8449  -19.3683  -14.0575 N   0  0  0  0  0  0  0  0  0  0  0  0
   25.2911  -18.2501  -14.7823 C   0  0  1  0  0  0  0  0  0  0  0  0
   26.3521  -17.2446  -15.1921 C   0  0  0  0  0  0  0  0  0  0  0  0
   25.7099  -16.1307  -15.9541 C   0  0  0  0  0  0  0  0  0  0  0  0
   26.7440  -15.1196  -16.3488 C   0  0  0  0  0  0  0  0  0  0  0  0
   26.1041  -13.9486  -17.0141 C   0  0  0  0  0  0  0  0  0  0  0  0
   27.1343  -13.0110  -17.4891 N   0  0  0  0  0  0  0  0  0  0  0  0
   24.5186  -18.7598  -15.9367 C   0  0  0  0  0  0  0  0  0  0  0  0
   24.9448  -19.7028  -16.6610 O   0  0  0  0  0  0  0  0  0  0  0  0
   23.2825  -18.2169  -16.2734 O   0  0  0  0  0  0  0  0  0  0  0  0
  1  2  1  0
  3  4  1  0
  3  2  1  0
  4  5  1  0
  5  6  1  1
  7  5  1  0
  7  8  2  0
  9  7  1  0
 10 11  1  6
 10  9  1  0
 12 13  1  0
 12 11  1  0
 13 14  1  0
 14 15  1  0
 16 10  1  0
 17 16  2  0
 18 16  1  0
 19 18  1  0
 19 20  1  6
 21 20  1  0
 21 22  1  0
 23 22  1  0
 23 24  1  0
 25 19  1  0
 25 27  1  0
 26 25  2  0
M  END
$$$$
