MKK.pdb
     RDKit          3D

 27 26  0  0  1  0  0  0  0  0999 V2000
   25.3859  -19.6598   -8.5369 C   0  0  0  0  0  0  0  0  0  0  0  0
   26.7333  -20.6994   -9.0964 S   0  0  0  0  0  0  0  0  0  0  0  0
   26.5937  -21.1759  -10.8230 C   0  0  0  0  0  0  0  0  0  0  0  0
   25.4700  -20.4577  -11.5314 C   0  0  0  0  0  0  0  0  0  0  0  0
   25.0244  -21.1843  -12.7736 C   0  0  2  0  0  0  0  0  0  0  0  0
   26.1276  -21.6005  -13.5800 N   0  0  0  0  0  0  0  0  0  0  0  0
   24.0527  -20.3909  -13.5712 C   0  0  0  0  0  0  0  0  0  0  0  0
   23.0247  -19.9243  -12.9950 O   0  0  0  0  0  0  0  0  0  0  0  0
   24.2067  -20.1232  -14.9441 N   0  0  0  0  0  0  0  0  0  0  0  0
   23.2348  -19.3653  -15.7404 C   0  0  1  0  0  0  0  0  0  0  0  0
   23.8978  -18.7831  -16.9555 C   0  0  0  0  0  0  0  0  0  0  0  0
   24.9410  -17.7888  -16.5628 C   0  0  0  0  0  0  0  0  0  0  0  0
   25.7443  -17.3424  -17.7491 C   0  0  0  0  0  0  0  0  0  0  0  0
   26.7938  -16.3572  -17.2896 C   0  0  0  0  0  0  0  0  0  0  0  0
   27.6231  -16.0506  -18.4327 N   0  0  0  0  0  0  0  0  0  0  0  0
   22.0943  -20.2666  -16.0446 C   0  0  0  0  0  0  0  0  0  0  0  0
   22.1941  -21.3859  -16.6054 O   0  0  0  0  0  0  0  0  0  0  0  0
   20.7447  -19.8959  -15.7001 N   0  0  0  0  0  0  0  0  0  0  0  0
   19.6779  -20.8673  -15.6772 C   0  0  1  0  0  0  0  0  0  0  0  0
   19.8404  -21.8776  -14.5558 C   0  0  0  0  0  0  0  0  0  0  0  0
   18.6645  -22.8001  -14.5468 C   0  0  0  0  0  0  0  0  0  0  0  0
   18.7523  -23.7277  -13.3723 C   0  0  0  0  0  0  0  0  0  0  0  0
   17.6033  -24.6779  -13.3686 C   0  0  0  0  0  0  0  0  0  0  0  0
   17.5811  -25.4403  -12.1100 N   0  0  0  0  0  0  0  0  0  0  0  0
   18.3814  -20.1570  -15.6154 C   0  0  0  0  0  0  0  0  0  0  0  0
   18.1646  -19.2351  -14.7797 O   0  0  0  0  0  0  0  0  0  0  0  0
   17.3412  -20.4784  -16.4819 O   0  0  0  0  0  0  0  0  0  0  0  0
  1  2  1  0
  3  4  1  0
  3  2  1  0
  4  5  1  0
  5  6  1  6
  7  5  1  0
  7  8  2  0
  9  7  1  0
 10 11  1  6
 10  9  1  0
 12 13  1  0
 12 11  1  0
 13 14  1  0
 14 15  1  0
 16 10  1  0
 17 16  2  0
 18 16  1  0
 19 18  1  0
 19 20  1  1
 21 20  1  0
 21 22  1  0
 23 22  1  0
 23 24  1  0
 25 19  1  0
 25 27  1  0
 26 25  2  0
M  END
$$$$
