MKK.pdb
     RDKit          3D

 27 26  0  0  1  0  0  0  0  0999 V2000
   26.7791  -18.4500  -15.7548 C   0  0  0  0  0  0  0  0  0  0  0  0
   27.9262  -19.4352  -14.7942 S   0  0  0  0  0  0  0  0  0  0  0  0
   27.1139  -20.5864  -13.6795 C   0  0  0  0  0  0  0  0  0  0  0  0
   25.8964  -19.9873  -13.0170 C   0  0  0  0  0  0  0  0  0  0  0  0
   25.2374  -20.9486  -12.0624 C   0  0  2  0  0  0  0  0  0  0  0  0
   25.3395  -22.3030  -12.5047 N   0  0  0  0  0  0  0  0  0  0  0  0
   23.8228  -20.5853  -11.7854 C   0  0  0  0  0  0  0  0  0  0  0  0
   23.5241  -19.3634  -11.6299 O   0  0  0  0  0  0  0  0  0  0  0  0
   22.7822  -21.5273  -11.6841 N   0  0  0  0  0  0  0  0  0  0  0  0
   21.3657  -21.1660  -11.5581 C   0  0  1  0  0  0  0  0  0  0  0  0
   20.9089  -20.4162  -12.7763 C   0  0  0  0  0  0  0  0  0  0  0  0
   21.5267  -20.9871  -14.0106 C   0  0  0  0  0  0  0  0  0  0  0  0
   21.1141  -20.2205  -15.2328 C   0  0  0  0  0  0  0  0  0  0  0  0
   21.7651  -20.8425  -16.4463 C   0  0  0  0  0  0  0  0  0  0  0  0
   21.4138  -20.0267  -17.5862 N   0  0  0  0  0  0  0  0  0  0  0  0
   20.6009  -22.4103  -11.2892 C   0  0  0  0  0  0  0  0  0  0  0  0
   20.7144  -23.4774  -11.9417 O   0  0  0  0  0  0  0  0  0  0  0  0
   19.6400  -22.4723  -10.2167 N   0  0  0  0  0  0  0  0  0  0  0  0
   18.9774  -23.7057   -9.8675 C   0  0  1  0  0  0  0  0  0  0  0  0
   18.6615  -23.7925   -8.3852 C   0  0  0  0  0  0  0  0  0  0  0  0
   18.0492  -25.1229   -8.0870 C   0  0  0  0  0  0  0  0  0  0  0  0
   17.9431  -25.3151   -6.6039 C   0  0  0  0  0  0  0  0  0  0  0  0
   17.3450  -26.6443   -6.2897 C   0  0  0  0  0  0  0  0  0  0  0  0
   17.3049  -26.8497   -4.8330 N   0  0  0  0  0  0  0  0  0  0  0  0
   17.7730  -23.8611  -10.7129 C   0  0  0  0  0  0  0  0  0  0  0  0
   17.0883  -22.8682  -11.0880 O   0  0  0  0  0  0  0  0  0  0  0  0
   17.3430  -25.1164  -11.1316 O   0  0  0  0  0  0  0  0  0  0  0  0
  1  2  1  0
  3  4  1  0
  3  2  1  0
  4  5  1  0
  5  6  1  6
  7  5  1  0
  7  8  2  0
  9  7  1  0
 10 11  1  6
 10  9  1  0
 12 13  1  0
 12 11  1  0
 13 14  1  0
 14 15  1  0
 16 10  1  0
 17 16  2  0
 18 16  1  0
 19 18  1  0
 19 20  1  1
 21 20  1  0
 21 22  1  0
 23 22  1  0
 23 24  1  0
 25 19  1  0
 25 27  1  0
 26 25  2  0
M  END
$$$$
