MKK.pdb
     RDKit          3D

 27 26  0  0  1  0  0  0  0  0999 V2000
   29.9298  -18.6737  -12.5586 C   0  0  0  0  0  0  0  0  0  0  0  0
   30.2875  -19.5353  -14.0880 S   0  0  0  0  0  0  0  0  0  0  0  0
   28.9998  -19.3487  -15.3268 C   0  0  0  0  0  0  0  0  0  0  0  0
   27.6315  -19.7033  -14.7955 C   0  0  0  0  0  0  0  0  0  0  0  0
   27.5764  -21.1105  -14.2602 C   0  0  2  0  0  0  0  0  0  0  0  0
   27.7574  -22.0860  -15.2879 N   0  0  0  0  0  0  0  0  0  0  0  0
   26.3304  -21.3720  -13.4928 C   0  0  0  0  0  0  0  0  0  0  0  0
   25.4381  -22.1101  -14.0080 O   0  0  0  0  0  0  0  0  0  0  0  0
   26.0784  -20.8433  -12.2133 N   0  0  0  0  0  0  0  0  0  0  0  0
   24.7828  -20.9426  -11.5315 C   0  0  1  0  0  0  0  0  0  0  0  0
   24.8898  -20.4142  -10.1299 C   0  0  0  0  0  0  0  0  0  0  0  0
   23.5426  -20.3391   -9.4893 C   0  0  0  0  0  0  0  0  0  0  0  0
   23.3983  -21.3608   -8.3996 C   0  0  0  0  0  0  0  0  0  0  0  0
   22.0102  -21.2591   -7.8112 C   0  0  0  0  0  0  0  0  0  0  0  0
   21.9368  -22.2052   -6.7213 N   0  0  0  0  0  0  0  0  0  0  0  0
   23.7737  -20.2443  -12.3679 C   0  0  0  0  0  0  0  0  0  0  0  0
   23.8362  -19.0373  -12.7095 O   0  0  0  0  0  0  0  0  0  0  0  0
   22.6107  -20.9389  -12.8601 N   0  0  0  0  0  0  0  0  0  0  0  0
   21.6594  -20.2935  -13.7324 C   0  0  1  0  0  0  0  0  0  0  0  0
   21.4270  -21.0750  -15.0130 C   0  0  0  0  0  0  0  0  0  0  0  0
   20.4834  -20.3175  -15.8904 C   0  0  0  0  0  0  0  0  0  0  0  0
   20.2448  -21.0781  -17.1600 C   0  0  0  0  0  0  0  0  0  0  0  0
   19.4473  -20.2603  -18.1183 C   0  0  0  0  0  0  0  0  0  0  0  0
   19.2761  -20.9891  -19.3854 N   0  0  0  0  0  0  0  0  0  0  0  0
   20.4071  -20.0501  -12.9828 C   0  0  0  0  0  0  0  0  0  0  0  0
   20.0047  -20.8383  -12.0816 O   0  0  0  0  0  0  0  0  0  0  0  0
   19.6165  -18.9350  -13.2425 O   0  0  0  0  0  0  0  0  0  0  0  0
  1  2  1  0
  3  4  1  0
  3  2  1  0
  4  5  1  0
  5  6  1  6
  7  5  1  0
  7  8  2  0
  9  7  1  0
 10 11  1  1
 10  9  1  0
 12 13  1  0
 12 11  1  0
 13 14  1  0
 14 15  1  0
 16 10  1  0
 17 16  2  0
 18 16  1  0
 19 18  1  0
 19 20  1  6
 21 20  1  0
 21 22  1  0
 23 22  1  0
 23 24  1  0
 25 19  1  0
 25 27  1  0
 26 25  2  0
M  END
$$$$
