MKK.pdb
     RDKit          3D

 27 26  0  0  1  0  0  0  0  0999 V2000
   27.6595  -10.0410  -17.4358 C   0  0  0  0  0  0  0  0  0  0  0  0
   26.9318  -11.6740  -17.3219 S   0  0  0  0  0  0  0  0  0  0  0  0
   28.0865  -12.9289  -16.7569 C   0  0  0  0  0  0  0  0  0  0  0  0
   27.4959  -14.3181  -16.7986 C   0  0  0  0  0  0  0  0  0  0  0  0
   26.1098  -14.3646  -16.2102 C   0  0  2  0  0  0  0  0  0  0  0  0
   26.0876  -13.9368  -14.8476 N   0  0  0  0  0  0  0  0  0  0  0  0
   25.4811  -15.7037  -16.3571 C   0  0  0  0  0  0  0  0  0  0  0  0
   25.4751  -16.2550  -17.4984 O   0  0  0  0  0  0  0  0  0  0  0  0
   24.8850  -16.4051  -15.2927 N   0  0  0  0  0  0  0  0  0  0  0  0
   24.2823  -17.7359  -15.4302 C   0  0  1  0  0  0  0  0  0  0  0  0
   24.8425  -18.6708  -14.3972 C   0  0  0  0  0  0  0  0  0  0  0  0
   24.5216  -20.0891  -14.7387 C   0  0  0  0  0  0  0  0  0  0  0  0
   25.5756  -20.6902  -15.6217 C   0  0  0  0  0  0  0  0  0  0  0  0
   25.1643  -22.0967  -15.9904 C   0  0  0  0  0  0  0  0  0  0  0  0
   26.0549  -22.5427  -17.0374 N   0  0  0  0  0  0  0  0  0  0  0  0
   22.8072  -17.5760  -15.3675 C   0  0  0  0  0  0  0  0  0  0  0  0
   22.1744  -17.1388  -14.3746 O   0  0  0  0  0  0  0  0  0  0  0  0
   21.9754  -17.9279  -16.4908 N   0  0  0  0  0  0  0  0  0  0  0  0
   20.5359  -17.8616  -16.4139 C   0  0  1  0  0  0  0  0  0  0  0  0
   19.8897  -17.7289  -17.7812 C   0  0  0  0  0  0  0  0  0  0  0  0
   18.4092  -17.6047  -17.6185 C   0  0  0  0  0  0  0  0  0  0  0  0
   17.7480  -17.5828  -18.9638 C   0  0  0  0  0  0  0  0  0  0  0  0
   16.2713  -17.4355  -18.8191 C   0  0  0  0  0  0  0  0  0  0  0  0
   15.6133  -17.6288  -20.1212 N   0  0  0  0  0  0  0  0  0  0  0  0
   20.0394  -19.0371  -15.6650 C   0  0  0  0  0  0  0  0  0  0  0  0
   20.5937  -20.1685  -15.7546 O   0  0  0  0  0  0  0  0  0  0  0  0
   18.9337  -18.9428  -14.8256 O   0  0  0  0  0  0  0  0  0  0  0  0
  1  2  1  0
  3  4  1  0
  3  2  1  0
  4  5  1  0
  5  6  1  1
  7  5  1  0
  7  8  2  0
  9  7  1  0
 10 11  1  1
 10  9  1  0
 12 13  1  0
 12 11  1  0
 13 14  1  0
 14 15  1  0
 16 10  1  0
 17 16  2  0
 18 16  1  0
 19 18  1  0
 19 20  1  6
 21 20  1  0
 21 22  1  0
 23 22  1  0
 23 24  1  0
 25 19  1  0
 25 27  1  0
 26 25  2  0
M  END
$$$$
