MKK.pdb
     RDKit          3D

 27 26  0  0  1  0  0  0  0  0999 V2000
   28.9003  -18.5961   -6.1140 C   0  0  0  0  0  0  0  0  0  0  0  0
   27.3710  -19.4822   -5.8217 S   0  0  0  0  0  0  0  0  0  0  0  0
   26.9221  -20.5874   -7.1650 C   0  0  0  0  0  0  0  0  0  0  0  0
   26.6155  -19.8465   -8.4446 C   0  0  0  0  0  0  0  0  0  0  0  0
   26.2647  -20.7812   -9.5729 C   0  0  2  0  0  0  0  0  0  0  0  0
   27.2595  -21.7875   -9.7687 N   0  0  0  0  0  0  0  0  0  0  0  0
   25.9875  -20.0545  -10.8398 C   0  0  0  0  0  0  0  0  0  0  0  0
   26.5926  -18.9637  -11.0643 O   0  0  0  0  0  0  0  0  0  0  0  0
   25.0830  -20.5099  -11.8169 N   0  0  0  0  0  0  0  0  0  0  0  0
   25.1241  -20.0921  -13.2229 C   0  0  1  0  0  0  0  0  0  0  0  0
   26.5211  -20.2105  -13.7609 C   0  0  0  0  0  0  0  0  0  0  0  0
   26.5970  -19.6802  -15.1553 C   0  0  0  0  0  0  0  0  0  0  0  0
   27.7555  -20.2727  -15.9027 C   0  0  0  0  0  0  0  0  0  0  0  0
   27.7875  -19.6945  -17.2983 C   0  0  0  0  0  0  0  0  0  0  0  0
   28.9225  -20.2769  -17.9773 N   0  0  0  0  0  0  0  0  0  0  0  0
   24.1180  -20.8934  -13.9653 C   0  0  0  0  0  0  0  0  0  0  0  0
   24.2367  -22.1117  -14.2465 O   0  0  0  0  0  0  0  0  0  0  0  0
   22.8908  -20.2963  -14.4287 N   0  0  0  0  0  0  0  0  0  0  0  0
   21.7668  -21.1031  -14.8386 C   0  0  1  0  0  0  0  0  0  0  0  0
   20.6476  -21.0986  -13.8130 C   0  0  0  0  0  0  0  0  0  0  0  0
   19.4996  -21.9039  -14.3300 C   0  0  0  0  0  0  0  0  0  0  0  0
   18.3693  -21.8721  -13.3457 C   0  0  0  0  0  0  0  0  0  0  0  0
   18.6968  -22.6942  -12.1456 C   0  0  0  0  0  0  0  0  0  0  0  0
   17.5755  -22.6682  -11.1929 N   0  0  0  0  0  0  0  0  0  0  0  0
   21.3131  -20.6538  -16.1734 C   0  0  0  0  0  0  0  0  0  0  0  0
   21.4314  -19.4539  -16.5495 O   0  0  0  0  0  0  0  0  0  0  0  0
   20.7335  -21.5416  -17.0745 O   0  0  0  0  0  0  0  0  0  0  0  0
  1  2  1  0
  3  4  1  0
  3  2  1  0
  4  5  1  0
  5  6  1  6
  7  5  1  0
  7  8  2  0
  9  7  1  0
 10 11  1  6
 10  9  1  0
 12 13  1  0
 12 11  1  0
 13 14  1  0
 14 15  1  0
 16 10  1  0
 17 16  2  0
 18 16  1  0
 19 18  1  0
 19 20  1  1
 21 20  1  0
 21 22  1  0
 23 22  1  0
 23 24  1  0
 25 19  1  0
 25 27  1  0
 26 25  2  0
M  END
$$$$
