MKK.pdb
     RDKit          3D

 27 26  0  0  1  0  0  0  0  0999 V2000
   25.0377  -20.5187   -8.5266 C   0  0  0  0  0  0  0  0  0  0  0  0
   26.0152  -21.7957   -9.3160 S   0  0  0  0  0  0  0  0  0  0  0  0
   25.8500  -21.8134  -11.1048 C   0  0  0  0  0  0  0  0  0  0  0  0
   25.0435  -20.6462  -11.6220 C   0  0  0  0  0  0  0  0  0  0  0  0
   24.9052  -20.6705  -13.1220 C   0  0  2  0  0  0  0  0  0  0  0  0
   26.0744  -21.1828  -13.7631 N   0  0  0  0  0  0  0  0  0  0  0  0
   24.5357  -19.3408  -13.6744 C   0  0  0  0  0  0  0  0  0  0  0  0
   23.4395  -18.8135  -13.3185 O   0  0  0  0  0  0  0  0  0  0  0  0
   25.3392  -18.6230  -14.5798 N   0  0  0  0  0  0  0  0  0  0  0  0
   24.9816  -17.3061  -15.1193 C   0  0  1  0  0  0  0  0  0  0  0  0
   26.2199  -16.5038  -15.3987 C   0  0  0  0  0  0  0  0  0  0  0  0
   25.8666  -15.1630  -15.9540 C   0  0  0  0  0  0  0  0  0  0  0  0
   27.0950  -14.3537  -16.2507 C   0  0  0  0  0  0  0  0  0  0  0  0
   26.6766  -12.9892  -16.7471 C   0  0  0  0  0  0  0  0  0  0  0  0
   27.8842  -12.2469  -17.0281 N   0  0  0  0  0  0  0  0  0  0  0  0
   24.1168  -17.5208  -16.3074 C   0  0  0  0  0  0  0  0  0  0  0  0
   24.4141  -18.2442  -17.2900 O   0  0  0  0  0  0  0  0  0  0  0  0
   22.8275  -16.8845  -16.4099 N   0  0  0  0  0  0  0  0  0  0  0  0
   21.9062  -17.2130  -17.4708 C   0  0  1  0  0  0  0  0  0  0  0  0
   20.9130  -18.2860  -17.0620 C   0  0  0  0  0  0  0  0  0  0  0  0
   20.0544  -18.6375  -18.2338 C   0  0  0  0  0  0  0  0  0  0  0  0
   18.9910  -19.6075  -17.8146 C   0  0  0  0  0  0  0  0  0  0  0  0
   18.2046  -20.0650  -18.9960 C   0  0  0  0  0  0  0  0  0  0  0  0
   17.1789  -21.0337  -18.5769 N   0  0  0  0  0  0  0  0  0  0  0  0
   21.2425  -15.9740  -17.9328 C   0  0  0  0  0  0  0  0  0  0  0  0
   20.8962  -15.0629  -17.1294 O   0  0  0  0  0  0  0  0  0  0  0  0
   20.9711  -15.7609  -19.2808 O   0  0  0  0  0  0  0  0  0  0  0  0
  1  2  1  0
  3  4  1  0
  3  2  1  0
  4  5  1  0
  5  6  1  6
  7  5  1  0
  7  8  2  0
  9  7  1  0
 10 11  1  6
 10  9  1  0
 12 13  1  0
 12 11  1  0
 13 14  1  0
 14 15  1  0
 16 10  1  0
 17 16  2  0
 18 16  1  0
 19 18  1  0
 19 20  1  1
 21 20  1  0
 21 22  1  0
 23 22  1  0
 23 24  1  0
 25 19  1  0
 25 27  1  0
 26 25  2  0
M  END
$$$$
