CPQ.pdb
     RDKit          3D

 23 23  0  0  1  0  0  0  0  0999 V2000
    5.2830  -14.0396   26.1239 N   0  0  0  0  0  0  0  0  0  0  0  0
    6.2142  -13.4039   25.1803 C   0  0  1  0  0  0  0  0  0  0  0  0
    7.0616  -12.4933   26.0605 C   0  0  0  0  0  0  0  0  0  0  0  0
    6.2299  -10.9600   26.4822 S   0  0  0  0  0  0  0  0  0  0  0  0
    7.0110  -14.4957   24.6025 C   0  0  0  0  0  0  0  0  0  0  0  0
    7.3909  -15.4559   25.3157 O   0  0  0  0  0  0  0  0  0  0  0  0
    7.3640  -14.4867   23.2346 N   0  0  0  0  0  0  0  0  0  0  0  0
    6.8106  -13.5766   22.2507 C   0  0  0  0  0  0  0  0  0  0  0  0
    8.0335  -13.3195   21.3700 C   0  0  0  0  0  0  0  0  0  0  0  0
    8.5031  -14.7705   21.2020 C   0  0  0  0  0  0  0  0  0  0  0  0
    8.2809  -15.4039   22.5587 C   0  0  1  0  0  0  0  0  0  0  0  0
    9.5810  -15.3979   23.3220 C   0  0  0  0  0  0  0  0  0  0  0  0
   10.1030  -14.3620   23.7868 O   0  0  0  0  0  0  0  0  0  0  0  0
   11.5375  -15.3668   28.8545 N   0  0  0  0  0  0  0  0  0  0  0  0
   11.3625  -16.6747   28.3491 C   0  0  0  0  0  0  0  0  0  0  0  0
   10.8320  -17.5144   29.1099 O   0  0  0  0  0  0  0  0  0  0  0  0
   11.7662  -17.0857   27.0030 C   0  0  0  0  0  0  0  0  0  0  0  0
   10.7595  -16.9464   25.9303 C   0  0  0  0  0  0  0  0  0  0  0  0
   11.3310  -16.7419   24.5760 C   0  0  2  0  0  0  0  0  0  0  0  0
   10.2998  -16.6020   23.5572 N   0  0  0  0  0  0  0  0  0  0  0  0
   12.3394  -17.7475   24.1662 C   0  0  0  0  0  0  0  0  0  0  0  0
   11.9995  -18.6499   23.3731 O   0  0  0  0  0  0  0  0  0  0  0  0
   13.6314  -17.7161   24.6300 O   0  0  0  0  0  0  0  0  0  0  0  0
  2  1  1  1
  2  5  1  0
  2  3  1  0
  3  4  1  0
  5  6  2  0
  7  5  1  0
  7 11  1  0
  8  7  1  0
  9  8  1  0
  9 10  1  0
 10 11  1  0
 11 12  1  1
 12 13  2  0
 12 20  1  0
 15 14  1  0
 15 16  2  0
 17 18  1  0
 17 15  1  0
 19 18  1  1
 20 19  1  0
 21 19  1  0
 21 23  1  0
 22 21  2  0
M  END
$$$$
