CPQ.pdb
     RDKit          3D

 23 23  0  0  1  0  0  0  0  0999 V2000
    9.3863  -17.1164   16.8846 N   0  0  0  0  0  0  0  0  0  0  0  0
    8.3339  -16.5910   17.7667 C   0  0  1  0  0  0  0  0  0  0  0  0
    7.4831  -17.8135   18.0890 C   0  0  0  0  0  0  0  0  0  0  0  0
    6.5391  -18.3977   16.6790 S   0  0  0  0  0  0  0  0  0  0  0  0
    9.0248  -16.0803   18.9594 C   0  0  0  0  0  0  0  0  0  0  0  0
   10.0227  -16.6817   19.4260 O   0  0  0  0  0  0  0  0  0  0  0  0
    8.5809  -14.9038   19.6031 N   0  0  0  0  0  0  0  0  0  0  0  0
    7.6280  -13.9689   19.0370 C   0  0  0  0  0  0  0  0  0  0  0  0
    6.8500  -13.5527   20.2855 C   0  0  0  0  0  0  0  0  0  0  0  0
    8.0393  -13.2893   21.2185 C   0  0  0  0  0  0  0  0  0  0  0  0
    9.0287  -14.3885   20.8965 C   0  0  1  0  0  0  0  0  0  0  0  0
    8.8785  -15.4960   21.9082 C   0  0  0  0  0  0  0  0  0  0  0  0
    8.3570  -16.6015   21.6482 O   0  0  0  0  0  0  0  0  0  0  0  0
   12.5514  -18.7821   21.5540 N   0  0  0  0  0  0  0  0  0  0  0  0
   12.7889  -18.7152   22.9454 C   0  0  0  0  0  0  0  0  0  0  0  0
   13.5007  -19.6136   23.4468 O   0  0  0  0  0  0  0  0  0  0  0  0
   12.2502  -17.6645   23.8112 C   0  0  0  0  0  0  0  0  0  0  0  0
   11.3922  -16.6449   23.1725 C   0  0  0  0  0  0  0  0  0  0  0  0
   10.1669  -16.3074   23.9388 C   0  0  2  0  0  0  0  0  0  0  0  0
    9.3331  -15.3351   23.2459 N   0  0  0  0  0  0  0  0  0  0  0  0
   10.4033  -15.8902   25.3410 C   0  0  0  0  0  0  0  0  0  0  0  0
   10.5125  -16.7709   26.2192 O   0  0  0  0  0  0  0  0  0  0  0  0
   10.5064  -14.5693   25.7016 O   0  0  0  0  0  0  0  0  0  0  0  0
  2  1  1  6
  2  5  1  0
  2  3  1  0
  3  4  1  0
  5  6  2  0
  7  5  1  0
  7 11  1  0
  8  7  1  0
  9  8  1  0
  9 10  1  0
 10 11  1  0
 11 12  1  1
 12 13  2  0
 12 20  1  0
 15 14  1  0
 15 16  2  0
 17 18  1  0
 17 15  1  0
 19 18  1  6
 20 19  1  0
 21 19  1  0
 21 23  1  0
 22 21  2  0
M  END
$$$$
