CPQ.pdb
     RDKit          3D

 23 23  0  0  1  0  0  0  0  0999 V2000
    5.1827  -13.8363   26.0093 N   0  0  0  0  0  0  0  0  0  0  0  0
    6.3734  -13.2707   25.3581 C   0  0  1  0  0  0  0  0  0  0  0  0
    7.2678  -12.8628   26.5225 C   0  0  0  0  0  0  0  0  0  0  0  0
    8.7513  -12.0021   25.9942 S   0  0  0  0  0  0  0  0  0  0  0  0
    6.9648  -14.3663   24.5768 C   0  0  0  0  0  0  0  0  0  0  0  0
    7.2306  -15.4665   25.1190 O   0  0  0  0  0  0  0  0  0  0  0  0
    7.2446  -14.2037   23.2017 N   0  0  0  0  0  0  0  0  0  0  0  0
    6.7777  -13.0927   22.3954 C   0  0  0  0  0  0  0  0  0  0  0  0
    7.9780  -12.8757   21.4737 C   0  0  0  0  0  0  0  0  0  0  0  0
    8.2252  -14.3361   21.0732 C   0  0  0  0  0  0  0  0  0  0  0  0
    7.9845  -15.1265   22.3414 C   0  0  1  0  0  0  0  0  0  0  0  0
    9.3094  -15.4080   23.0033 C   0  0  0  0  0  0  0  0  0  0  0  0
    9.8962  -14.5923   23.7462 O   0  0  0  0  0  0  0  0  0  0  0  0
    9.7483  -19.5418   27.1520 N   0  0  0  0  0  0  0  0  0  0  0  0
   10.6763  -18.4815   27.2583 C   0  0  0  0  0  0  0  0  0  0  0  0
   11.1214  -18.2248   28.3990 O   0  0  0  0  0  0  0  0  0  0  0  0
   11.1318  -17.6840   26.1180 C   0  0  0  0  0  0  0  0  0  0  0  0
   10.4823  -17.9445   24.8165 C   0  0  0  0  0  0  0  0  0  0  0  0
   11.0261  -17.1469   23.6893 C   0  0  2  0  0  0  0  0  0  0  0  0
    9.9779  -16.6480   22.8100 N   0  0  0  0  0  0  0  0  0  0  0  0
   12.0909  -17.8179   22.9071 C   0  0  0  0  0  0  0  0  0  0  0  0
   13.2788  -17.6753   23.2642 O   0  0  0  0  0  0  0  0  0  0  0  0
   11.8113  -18.5896   21.8063 O   0  0  0  0  0  0  0  0  0  0  0  0
  2  1  1  1
  2  5  1  0
  2  3  1  0
  3  4  1  0
  5  6  2  0
  7  5  1  0
  7 11  1  0
  8  7  1  0
  9  8  1  0
  9 10  1  0
 10 11  1  0
 11 12  1  1
 12 13  2  0
 12 20  1  0
 15 14  1  0
 15 16  2  0
 17 18  1  0
 17 15  1  0
 19 18  1  1
 20 19  1  0
 21 19  1  0
 21 23  1  0
 22 21  2  0
M  END
$$$$
