CPQ.pdb
     RDKit          3D

 23 23  0  0  1  0  0  0  0  0999 V2000
    5.7211  -17.6096   25.2058 N   0  0  0  0  0  0  0  0  0  0  0  0
    6.1810  -16.2618   24.8403 C   0  0  1  0  0  0  0  0  0  0  0  0
    6.6000  -15.6456   26.1695 C   0  0  0  0  0  0  0  0  0  0  0  0
    6.5429  -13.8520   26.1556 S   0  0  0  0  0  0  0  0  0  0  0  0
    7.3307  -16.4567   23.9454 C   0  0  0  0  0  0  0  0  0  0  0  0
    8.1374  -17.3986   24.1378 O   0  0  0  0  0  0  0  0  0  0  0  0
    7.5502  -15.5895   22.8520 N   0  0  0  0  0  0  0  0  0  0  0  0
    6.5986  -14.5993   22.3866 C   0  0  0  0  0  0  0  0  0  0  0  0
    7.5359  -13.4630   21.9772 C   0  0  0  0  0  0  0  0  0  0  0  0
    8.5572  -14.2853   21.1803 C   0  0  0  0  0  0  0  0  0  0  0  0
    8.7169  -15.5663   21.9705 C   0  0  1  0  0  0  0  0  0  0  0  0
    9.9450  -15.4579   22.8382 C   0  0  0  0  0  0  0  0  0  0  0  0
   10.0270  -14.6958   23.8251 O   0  0  0  0  0  0  0  0  0  0  0  0
   13.4367  -19.0474   25.7921 N   0  0  0  0  0  0  0  0  0  0  0  0
   12.0742  -19.0829   25.4188 C   0  0  0  0  0  0  0  0  0  0  0  0
   11.4635  -20.1613   25.5898 O   0  0  0  0  0  0  0  0  0  0  0  0
   11.3580  -17.9391   24.8510 C   0  0  0  0  0  0  0  0  0  0  0  0
   12.0989  -16.6638   24.7588 C   0  0  0  0  0  0  0  0  0  0  0  0
   12.3184  -16.1811   23.3727 C   0  0  2  0  0  0  0  0  0  0  0  0
   11.1043  -16.2364   22.5703 N   0  0  0  0  0  0  0  0  0  0  0  0
   13.4474  -16.8239   22.6598 C   0  0  0  0  0  0  0  0  0  0  0  0
   14.5852  -16.7776   23.1719 O   0  0  0  0  0  0  0  0  0  0  0  0
   13.2800  -17.4672   21.4584 O   0  0  0  0  0  0  0  0  0  0  0  0
  2  1  1  1
  2  5  1  0
  2  3  1  0
  3  4  1  0
  5  6  2  0
  7  5  1  0
  7 11  1  0
  8  7  1  0
  9  8  1  0
  9 10  1  0
 10 11  1  0
 11 12  1  1
 12 13  2  0
 12 20  1  0
 15 14  1  0
 15 16  2  0
 17 18  1  0
 17 15  1  0
 19 18  1  1
 20 19  1  0
 21 19  1  0
 21 23  1  0
 22 21  2  0
M  END
$$$$
