CPQ.pdb
     RDKit          3D

 23 23  0  0  1  0  0  0  0  0999 V2000
    5.1105  -13.7117   26.0456 N   0  0  0  0  0  0  0  0  0  0  0  0
    6.2948  -13.1184   25.4076 C   0  0  1  0  0  0  0  0  0  0  0  0
    7.0938  -12.5522   26.5752 C   0  0  0  0  0  0  0  0  0  0  0  0
    8.6608  -11.8398   26.0676 S   0  0  0  0  0  0  0  0  0  0  0  0
    7.0009  -14.2300   24.7546 C   0  0  0  0  0  0  0  0  0  0  0  0
    7.3061  -15.2610   25.4019 O   0  0  0  0  0  0  0  0  0  0  0  0
    7.3489  -14.1609   23.3872 N   0  0  0  0  0  0  0  0  0  0  0  0
    6.8742  -13.1426   22.4705 C   0  0  0  0  0  0  0  0  0  0  0  0
    8.1120  -12.9351   21.5977 C   0  0  0  0  0  0  0  0  0  0  0  0
    8.4521  -14.4072   21.3301 C   0  0  0  0  0  0  0  0  0  0  0  0
    8.1797  -15.1076   22.6439 C   0  0  1  0  0  0  0  0  0  0  0  0
    9.4777  -15.2659   23.3942 C   0  0  0  0  0  0  0  0  0  0  0  0
    9.8108  -14.5414   24.3564 O   0  0  0  0  0  0  0  0  0  0  0  0
    9.2045  -18.5202   27.5716 N   0  0  0  0  0  0  0  0  0  0  0  0
   10.5825  -18.7222   27.3327 C   0  0  0  0  0  0  0  0  0  0  0  0
   11.2335  -19.3210   28.2175 O   0  0  0  0  0  0  0  0  0  0  0  0
   11.2712  -18.2710   26.1219 C   0  0  0  0  0  0  0  0  0  0  0  0
   10.4792  -17.4816   25.1559 C   0  0  0  0  0  0  0  0  0  0  0  0
   11.2545  -16.9754   23.9961 C   0  0  2  0  0  0  0  0  0  0  0  0
   10.4151  -16.2731   23.0353 N   0  0  0  0  0  0  0  0  0  0  0  0
   12.0931  -17.9902   23.3157 C   0  0  0  0  0  0  0  0  0  0  0  0
   13.3355  -17.8841   23.3811 O   0  0  0  0  0  0  0  0  0  0  0  0
   11.5470  -19.0399   22.6192 O   0  0  0  0  0  0  0  0  0  0  0  0
  2  1  1  1
  2  5  1  0
  2  3  1  0
  3  4  1  0
  5  6  2  0
  7  5  1  0
  7 11  1  0
  8  7  1  0
  9  8  1  0
  9 10  1  0
 10 11  1  0
 11 12  1  1
 12 13  2  0
 12 20  1  0
 15 14  1  0
 15 16  2  0
 17 18  1  0
 17 15  1  0
 19 18  1  1
 20 19  1  0
 21 19  1  0
 21 23  1  0
 22 21  2  0
M  END
$$$$
