CPQ.pdb
     RDKit          3D

 23 23  0  0  1  0  0  0  0  0999 V2000
    8.5403  -14.1395   21.5494 N   0  0  0  0  0  0  0  0  0  0  0  0
    7.5271  -14.2340   22.6106 C   0  0  1  0  0  0  0  0  0  0  0  0
    7.0012  -15.6590   22.4881 C   0  0  0  0  0  0  0  0  0  0  0  0
    5.9667  -15.8986   21.0413 S   0  0  0  0  0  0  0  0  0  0  0  0
    8.2471  -14.0277   23.8754 C   0  0  0  0  0  0  0  0  0  0  0  0
    9.4193  -14.4522   24.0197 O   0  0  0  0  0  0  0  0  0  0  0  0
    7.6356  -13.3478   24.9522 N   0  0  0  0  0  0  0  0  0  0  0  0
    6.3986  -12.5978   24.8521 C   0  0  0  0  0  0  0  0  0  0  0  0
    5.7591  -12.9069   26.2060 C   0  0  0  0  0  0  0  0  0  0  0  0
    6.9822  -12.6576   27.0984 C   0  0  0  0  0  0  0  0  0  0  0  0
    8.1480  -13.2235   26.3163 C   0  0  1  0  0  0  0  0  0  0  0  0
    8.4499  -14.6116   26.8210 C   0  0  0  0  0  0  0  0  0  0  0  0
    7.6224  -15.5478   26.8010 O   0  0  0  0  0  0  0  0  0  0  0  0
   12.5939  -18.2832   24.9395 N   0  0  0  0  0  0  0  0  0  0  0  0
   12.8564  -16.9708   25.3927 C   0  0  0  0  0  0  0  0  0  0  0  0
   13.8204  -16.3686   24.8700 O   0  0  0  0  0  0  0  0  0  0  0  0
   12.0688  -16.2962   26.4263 C   0  0  0  0  0  0  0  0  0  0  0  0
   10.9115  -17.0337   26.9744 C   0  0  0  0  0  0  0  0  0  0  0  0
   10.0648  -16.2438   27.9026 C   0  0  2  0  0  0  0  0  0  0  0  0
    9.7248  -14.9353   27.3612 N   0  0  0  0  0  0  0  0  0  0  0  0
   10.5979  -16.1187   29.2796 C   0  0  0  0  0  0  0  0  0  0  0  0
   10.8885  -17.1580   29.9076 O   0  0  0  0  0  0  0  0  0  0  0  0
   10.7821  -14.8990   29.8827 O   0  0  0  0  0  0  0  0  0  0  0  0
  2  1  1  6
  2  5  1  0
  2  3  1  0
  3  4  1  0
  5  6  2  0
  7  5  1  0
  7 11  1  0
  8  7  1  0
  9  8  1  0
  9 10  1  0
 10 11  1  0
 11 12  1  1
 12 13  2  0
 12 20  1  0
 15 14  1  0
 15 16  2  0
 17 18  1  0
 17 15  1  0
 19 18  1  6
 20 19  1  0
 21 19  1  0
 21 23  1  0
 22 21  2  0
M  END
$$$$
