CPQ.pdb
     RDKit          3D

 23 23  0  0  1  0  0  0  0  0999 V2000
    5.4547  -16.7232   25.4241 N   0  0  0  0  0  0  0  0  0  0  0  0
    6.1169  -15.5066   24.9313 C   0  0  1  0  0  0  0  0  0  0  0  0
    6.6647  -14.8517   26.1935 C   0  0  0  0  0  0  0  0  0  0  0  0
    6.7741  -13.0653   26.0611 S   0  0  0  0  0  0  0  0  0  0  0  0
    7.1963  -15.9654   24.0452 C   0  0  0  0  0  0  0  0  0  0  0  0
    7.8994  -16.9575   24.3559 O   0  0  0  0  0  0  0  0  0  0  0  0
    7.4632  -15.3006   22.8277 N   0  0  0  0  0  0  0  0  0  0  0  0
    6.6195  -14.2704   22.2536 C   0  0  0  0  0  0  0  0  0  0  0  0
    7.6684  -13.3384   21.6465 C   0  0  0  0  0  0  0  0  0  0  0  0
    8.5336  -14.3941   20.9457 C   0  0  0  0  0  0  0  0  0  0  0  0
    8.5740  -15.5584   21.9120 C   0  0  1  0  0  0  0  0  0  0  0  0
    9.8513  -15.4899   22.7099 C   0  0  0  0  0  0  0  0  0  0  0  0
    9.9390  -14.9318   23.8245 O   0  0  0  0  0  0  0  0  0  0  0  0
   10.9288  -19.4287   26.2498 N   0  0  0  0  0  0  0  0  0  0  0  0
   10.9229  -18.0281   26.4367 C   0  0  0  0  0  0  0  0  0  0  0  0
   10.6285  -17.6056   27.5769 O   0  0  0  0  0  0  0  0  0  0  0  0
   11.2380  -17.0665   25.3784 C   0  0  0  0  0  0  0  0  0  0  0  0
   11.5507  -17.6183   24.0437 C   0  0  0  0  0  0  0  0  0  0  0  0
   12.0903  -16.6260   23.0811 C   0  0  2  0  0  0  0  0  0  0  0  0
   11.0539  -16.0708   22.2218 N   0  0  0  0  0  0  0  0  0  0  0  0
   13.2404  -17.0999   22.2758 C   0  0  0  0  0  0  0  0  0  0  0  0
   14.3837  -16.6870   22.5607 O   0  0  0  0  0  0  0  0  0  0  0  0
   13.0871  -17.9769   21.2304 O   0  0  0  0  0  0  0  0  0  0  0  0
  2  1  1  1
  2  5  1  0
  2  3  1  0
  3  4  1  0
  5  6  2  0
  7  5  1  0
  7 11  1  0
  8  7  1  0
  9  8  1  0
  9 10  1  0
 10 11  1  0
 11 12  1  1
 12 13  2  0
 12 20  1  0
 15 14  1  0
 15 16  2  0
 17 18  1  0
 17 15  1  0
 19 18  1  6
 20 19  1  0
 21 19  1  0
 21 23  1  0
 22 21  2  0
M  END
$$$$
