CPQ.pdb
     RDKit          3D

 23 23  0  0  1  0  0  0  0  0999 V2000
    5.5825  -14.2992   26.2506 N   0  0  0  0  0  0  0  0  0  0  0  0
    6.5227  -13.5864   25.3734 C   0  0  1  0  0  0  0  0  0  0  0  0
    7.5147  -12.9512   26.3402 C   0  0  0  0  0  0  0  0  0  0  0  0
    7.1096  -11.2484   26.7362 S   0  0  0  0  0  0  0  0  0  0  0  0
    7.1594  -14.6176   24.5415 C   0  0  0  0  0  0  0  0  0  0  0  0
    7.5611  -15.6916   25.0517 O   0  0  0  0  0  0  0  0  0  0  0  0
    7.3309  -14.4214   23.1531 N   0  0  0  0  0  0  0  0  0  0  0  0
    6.6579  -13.3954   22.3805 C   0  0  0  0  0  0  0  0  0  0  0  0
    7.7566  -13.0069   21.3909 C   0  0  0  0  0  0  0  0  0  0  0  0
    8.1938  -14.4162   20.9702 C   0  0  0  0  0  0  0  0  0  0  0  0
    8.1477  -15.2280   22.2469 C   0  0  1  0  0  0  0  0  0  0  0  0
    9.5362  -15.3069   22.8288 C   0  0  0  0  0  0  0  0  0  0  0  0
    9.9477  -14.5525   23.7360 O   0  0  0  0  0  0  0  0  0  0  0  0
    9.7235  -18.5772   26.9599 N   0  0  0  0  0  0  0  0  0  0  0  0
   11.0724  -18.7640   26.5825 C   0  0  0  0  0  0  0  0  0  0  0  0
   11.8363  -19.2777   27.4296 O   0  0  0  0  0  0  0  0  0  0  0  0
   11.6078  -18.3906   25.2718 C   0  0  0  0  0  0  0  0  0  0  0  0
   10.7143  -17.6266   24.3765 C   0  0  0  0  0  0  0  0  0  0  0  0
   11.4011  -16.9811   23.2301 C   0  0  2  0  0  0  0  0  0  0  0  0
   10.4743  -16.2682   22.3619 N   0  0  0  0  0  0  0  0  0  0  0  0
   12.2735  -17.8806   22.4390 C   0  0  0  0  0  0  0  0  0  0  0  0
   13.4850  -17.5989   22.3301 O   0  0  0  0  0  0  0  0  0  0  0  0
   11.7916  -19.0104   21.8254 O   0  0  0  0  0  0  0  0  0  0  0  0
  2  1  1  1
  2  5  1  0
  2  3  1  0
  3  4  1  0
  5  6  2  0
  7  5  1  0
  7 11  1  0
  8  7  1  0
  9  8  1  0
  9 10  1  0
 10 11  1  0
 11 12  1  1
 12 13  2  0
 12 20  1  0
 15 14  1  0
 15 16  2  0
 17 18  1  0
 17 15  1  0
 19 18  1  1
 20 19  1  0
 21 19  1  0
 21 23  1  0
 22 21  2  0
M  END
$$$$
