CPQ.pdb
     RDKit          3D

 23 23  0  0  1  0  0  0  0  0999 V2000
    5.1465  -14.2732   26.2217 N   0  0  0  0  0  0  0  0  0  0  0  0
    6.1846  -13.5333   25.4892 C   0  0  1  0  0  0  0  0  0  0  0  0
    6.8038  -12.6282   26.5473 C   0  0  0  0  0  0  0  0  0  0  0  0
    8.3087  -11.8275   25.9861 S   0  0  0  0  0  0  0  0  0  0  0  0
    7.1398  -14.5438   25.0124 C   0  0  0  0  0  0  0  0  0  0  0  0
    7.6672  -15.3527   25.8141 O   0  0  0  0  0  0  0  0  0  0  0  0
    7.4823  -14.6254   23.6443 N   0  0  0  0  0  0  0  0  0  0  0  0
    6.8332  -13.8708   22.5899 C   0  0  0  0  0  0  0  0  0  0  0  0
    8.0184  -13.5735   21.6711 C   0  0  0  0  0  0  0  0  0  0  0  0
    8.6329  -14.9788   21.6292 C   0  0  0  0  0  0  0  0  0  0  0  0
    8.4843  -15.5035   23.0412 C   0  0  1  0  0  0  0  0  0  0  0  0
    9.7812  -15.2954   23.7811 C   0  0  0  0  0  0  0  0  0  0  0  0
   10.3782  -14.1988   23.8315 O   0  0  0  0  0  0  0  0  0  0  0  0
   11.3075  -16.6527   29.4409 N   0  0  0  0  0  0  0  0  0  0  0  0
   10.6730  -15.6326   28.6969 C   0  0  0  0  0  0  0  0  0  0  0  0
    9.9961  -14.7968   29.3361 O   0  0  0  0  0  0  0  0  0  0  0  0
   10.7679  -15.5109   27.2409 C   0  0  0  0  0  0  0  0  0  0  0  0
   11.6956  -16.4313   26.5511 C   0  0  0  0  0  0  0  0  0  0  0  0
   11.7334  -16.2721   25.0761 C   0  0  2  0  0  0  0  0  0  0  0  0
   10.4092  -16.3647   24.4769 N   0  0  0  0  0  0  0  0  0  0  0  0
   12.6884  -17.1637   24.3768 C   0  0  0  0  0  0  0  0  0  0  0  0
   13.8901  -16.8297   24.3197 O   0  0  0  0  0  0  0  0  0  0  0  0
   12.2930  -18.3419   23.7929 O   0  0  0  0  0  0  0  0  0  0  0  0
  2  1  1  1
  2  5  1  0
  2  3  1  0
  3  4  1  0
  5  6  2  0
  7  5  1  0
  7 11  1  0
  8  7  1  0
  9  8  1  0
  9 10  1  0
 10 11  1  0
 11 12  1  1
 12 13  2  0
 12 20  1  0
 15 14  1  0
 15 16  2  0
 17 18  1  0
 17 15  1  0
 19 18  1  1
 20 19  1  0
 21 19  1  0
 21 23  1  0
 22 21  2  0
M  END
$$$$
