CPQ.pdb
     RDKit          3D

 23 23  0  0  1  0  0  0  0  0999 V2000
    9.8758  -15.2981   16.3071 N   0  0  0  0  0  0  0  0  0  0  0  0
    8.7652  -15.4466   17.2590 C   0  0  1  0  0  0  0  0  0  0  0  0
    8.4114  -16.9267   17.1797 C   0  0  0  0  0  0  0  0  0  0  0  0
    7.3862  -17.4729   18.5477 S   0  0  0  0  0  0  0  0  0  0  0  0
    9.3118  -15.0885   18.5757 C   0  0  0  0  0  0  0  0  0  0  0  0
   10.4216  -15.5389   18.9506 O   0  0  0  0  0  0  0  0  0  0  0  0
    8.6004  -14.2310   19.4442 N   0  0  0  0  0  0  0  0  0  0  0  0
    7.4045  -13.4985   19.0755 C   0  0  0  0  0  0  0  0  0  0  0  0
    6.6060  -13.5684   20.3773 C   0  0  0  0  0  0  0  0  0  0  0  0
    7.7254  -13.1818   21.3529 C   0  0  0  0  0  0  0  0  0  0  0  0
    8.9567  -13.8817   20.8189 C   0  0  1  0  0  0  0  0  0  0  0  0
    9.1598  -15.1667   21.5806 C   0  0  0  0  0  0  0  0  0  0  0  0
    8.4789  -16.1969   21.3890 O   0  0  0  0  0  0  0  0  0  0  0  0
   14.2943  -18.2037   21.9822 N   0  0  0  0  0  0  0  0  0  0  0  0
   14.1829  -16.9132   22.5471 C   0  0  0  0  0  0  0  0  0  0  0  0
   15.2300  -16.2333   22.6283 O   0  0  0  0  0  0  0  0  0  0  0  0
   12.9238  -16.3460   23.0336 C   0  0  0  0  0  0  0  0  0  0  0  0
   11.7028  -17.1531   22.8300 C   0  0  0  0  0  0  0  0  0  0  0  0
   10.4542  -16.5064   23.3044 C   0  0  2  0  0  0  0  0  0  0  0  0
   10.1620  -15.2753   22.5835 N   0  0  0  0  0  0  0  0  0  0  0  0
   10.3832  -16.2859   24.7681 C   0  0  0  0  0  0  0  0  0  0  0  0
   10.5609  -17.2581   25.5311 O   0  0  0  0  0  0  0  0  0  0  0  0
   10.1298  -15.0492   25.3081 O   0  0  0  0  0  0  0  0  0  0  0  0
  2  1  1  6
  2  5  1  0
  2  3  1  0
  3  4  1  0
  5  6  2  0
  7  5  1  0
  7 11  1  0
  8  7  1  0
  9  8  1  0
  9 10  1  0
 10 11  1  0
 11 12  1  1
 12 13  2  0
 12 20  1  0
 15 14  1  0
 15 16  2  0
 17 18  1  0
 17 15  1  0
 19 18  1  1
 20 19  1  0
 21 19  1  0
 21 23  1  0
 22 21  2  0
M  END
$$$$
