CPQ.pdb
     RDKit          3D

 23 23  0  0  1  0  0  0  0  0999 V2000
    5.8228  -17.2801   25.8329 N   0  0  0  0  0  0  0  0  0  0  0  0
    6.1842  -15.9914   25.2243 C   0  0  1  0  0  0  0  0  0  0  0  0
    6.4532  -15.0853   26.4196 C   0  0  0  0  0  0  0  0  0  0  0  0
    7.2014  -13.5217   25.9550 S   0  0  0  0  0  0  0  0  0  0  0  0
    7.4060  -16.2411   24.4462 C   0  0  0  0  0  0  0  0  0  0  0  0
    8.2561  -17.0753   24.8420 O   0  0  0  0  0  0  0  0  0  0  0  0
    7.6474  -15.5491   23.2385 N   0  0  0  0  0  0  0  0  0  0  0  0
    6.7210  -14.6145   22.6295 C   0  0  0  0  0  0  0  0  0  0  0  0
    7.6865  -13.5738   22.0619 C   0  0  0  0  0  0  0  0  0  0  0  0
    8.6871  -14.5289   21.3979 C   0  0  0  0  0  0  0  0  0  0  0  0
    8.8146  -15.6840   22.3677 C   0  0  1  0  0  0  0  0  0  0  0  0
   10.0447  -15.4801   23.2149 C   0  0  0  0  0  0  0  0  0  0  0  0
   10.6854  -14.4078   23.2538 O   0  0  0  0  0  0  0  0  0  0  0  0
   10.7938  -13.4380   28.1474 N   0  0  0  0  0  0  0  0  0  0  0  0
   10.2115  -14.7250   28.1118 C   0  0  0  0  0  0  0  0  0  0  0  0
    9.4690  -15.0423   29.0675 O   0  0  0  0  0  0  0  0  0  0  0  0
   10.4330  -15.6866   27.0301 C   0  0  0  0  0  0  0  0  0  0  0  0
   11.3872  -15.2957   25.9716 C   0  0  0  0  0  0  0  0  0  0  0  0
   11.6577  -16.3552   24.9683 C   0  0  2  0  0  0  0  0  0  0  0  0
   10.5537  -16.5252   24.0338 N   0  0  0  0  0  0  0  0  0  0  0  0
   12.0699  -17.6607   25.5355 C   0  0  0  0  0  0  0  0  0  0  0  0
   11.3475  -18.6586   25.3322 O   0  0  0  0  0  0  0  0  0  0  0  0
   13.2183  -17.8054   26.2741 O   0  0  0  0  0  0  0  0  0  0  0  0
  2  1  1  1
  2  5  1  0
  2  3  1  0
  3  4  1  0
  5  6  2  0
  7  5  1  0
  7 11  1  0
  8  7  1  0
  9  8  1  0
  9 10  1  0
 10 11  1  0
 11 12  1  1
 12 13  2  0
 12 20  1  0
 15 14  1  0
 15 16  2  0
 17 18  1  0
 17 15  1  0
 19 18  1  1
 20 19  1  0
 21 19  1  0
 21 23  1  0
 22 21  2  0
M  END
$$$$
