CPQ.pdb
     RDKit          3D

 23 23  0  0  1  0  0  0  0  0999 V2000
   10.8825  -16.1911   19.5809 N   0  0  0  0  0  0  0  0  0  0  0  0
   10.6713  -17.4765   20.2627 C   0  0  1  0  0  0  0  0  0  0  0  0
   12.0808  -18.0195   20.4640 C   0  0  0  0  0  0  0  0  0  0  0  0
   12.5582  -19.2045   19.2036 S   0  0  0  0  0  0  0  0  0  0  0  0
   10.0259  -17.1527   21.5431 C   0  0  0  0  0  0  0  0  0  0  0  0
   10.4412  -16.1983   22.2444 O   0  0  0  0  0  0  0  0  0  0  0  0
    8.9264  -17.9075   22.0091 N   0  0  0  0  0  0  0  0  0  0  0  0
    8.1955  -18.8714   21.2096 C   0  0  0  0  0  0  0  0  0  0  0  0
    7.8832  -19.9418   22.2556 C   0  0  0  0  0  0  0  0  0  0  0  0
    7.3813  -19.0243   23.3784 C   0  0  0  0  0  0  0  0  0  0  0  0
    8.2969  -17.8201   23.3263 C   0  0  1  0  0  0  0  0  0  0  0  0
    9.3791  -17.9811   24.3634 C   0  0  0  0  0  0  0  0  0  0  0  0
   10.3638  -18.7372   24.2209 O   0  0  0  0  0  0  0  0  0  0  0  0
   10.8466  -13.3692   28.5473 N   0  0  0  0  0  0  0  0  0  0  0  0
    9.6133  -14.0558   28.4800 C   0  0  0  0  0  0  0  0  0  0  0  0
    8.6169  -13.4902   28.9824 O   0  0  0  0  0  0  0  0  0  0  0  0
    9.4505  -15.3735   27.8627 C   0  0  0  0  0  0  0  0  0  0  0  0
   10.6316  -15.9452   27.1833 C   0  0  0  0  0  0  0  0  0  0  0  0
   10.4036  -17.2806   26.5773 C   0  0  2  0  0  0  0  0  0  0  0  0
    9.3333  -17.2631   25.5899 N   0  0  0  0  0  0  0  0  0  0  0  0
   10.2016  -18.3805   27.5496 C   0  0  0  0  0  0  0  0  0  0  0  0
   11.1236  -18.6553   28.3454 O   0  0  0  0  0  0  0  0  0  0  0  0
    9.0351  -19.1029   27.6020 O   0  0  0  0  0  0  0  0  0  0  0  0
  2  1  1  6
  2  5  1  0
  2  3  1  0
  3  4  1  0
  5  6  2  0
  7  5  1  0
  7 11  1  0
  8  7  1  0
  9  8  1  0
  9 10  1  0
 10 11  1  0
 11 12  1  1
 12 13  2  0
 12 20  1  0
 15 14  1  0
 15 16  2  0
 17 18  1  0
 17 15  1  0
 19 18  1  1
 20 19  1  0
 21 19  1  0
 21 23  1  0
 22 21  2  0
M  END
$$$$
