CAE.pdb
     RDKit          3D

 21 20  0  0  1  0  0  0  0  0999 V2000
    8.1797  -16.8246   18.0681 N   0  0  0  0  0  0  0  0  0  0  0  0
    7.4296  -16.8303   19.2919 C   0  0  1  0  0  0  0  0  0  0  0  0
    7.0059  -18.2154   19.6733 C   0  0  0  0  0  0  0  0  0  0  0  0
    7.3051  -19.3019   18.2363 S   0  0  0  0  0  0  0  0  0  0  0  0
    8.2170  -16.1554   20.3470 C   0  0  0  0  0  0  0  0  0  0  0  0
    9.4850  -16.1791   20.3260 O   0  0  0  0  0  0  0  0  0  0  0  0
    7.4722  -14.0378   23.3489 C   0  0  0  0  0  0  0  0  0  0  0  0
    8.4262  -14.7976   22.4397 C   0  0  2  0  0  0  0  0  0  0  0  0
    7.6205  -15.4508   21.4314 N   0  0  0  0  0  0  0  0  0  0  0  0
    9.2704  -15.7413   23.1947 C   0  0  0  0  0  0  0  0  0  0  0  0
    8.8272  -16.9013   23.3986 O   0  0  0  0  0  0  0  0  0  0  0  0
   10.5487  -15.4456   23.7127 N   0  0  0  0  0  0  0  0  0  0  0  0
   11.4744  -16.4259   24.2422 C   0  0  1  0  0  0  0  0  0  0  0  0
   12.8867  -16.1849   23.8177 C   0  0  0  0  0  0  0  0  0  0  0  0
   13.8654  -17.1696   24.4066 C   0  0  0  0  0  0  0  0  0  0  0  0
   15.2564  -16.8587   23.9872 C   0  0  0  0  0  0  0  0  0  0  0  0
   16.1172  -17.7605   23.7810 O   0  0  0  0  0  0  0  0  0  0  0  0
   11.3234  -16.5909   25.7094 C   0  0  0  0  0  0  0  0  0  0  0  0
   10.9106  -15.6550   26.4391 O   0  0  0  0  0  0  0  0  0  0  0  0
   15.7075  -15.5470   23.7922 O   0  0  0  0  0  0  0  0  0  0  0  0
   11.6295  -17.7859   26.3518 O   0  0  0  0  0  0  0  0  0  0  0  0
  2  3  1  0
  2  1  1  6
  4  3  1  0
  5  2  1  0
  6  5  2  0
  8  7  1  1
  8  9  1  0
  9  5  1  0
 10  8  1  0
 10 12  1  0
 11 10  2  0
 13 12  1  0
 13 14  1  1
 13 18  1  0
 15 14  1  0
 16 15  1  0
 17 16  2  0
 18 19  2  0
 18 21  1  0
 20 16  1  0
M  END
$$$$
