CAE.pdb
     RDKit          3D

 21 20  0  0  1  0  0  0  0  0999 V2000
    6.6670  -14.5972   19.9777 N   0  0  0  0  0  0  0  0  0  0  0  0
    8.0288  -14.4272   20.3985 C   0  0  1  0  0  0  0  0  0  0  0  0
    8.2917  -13.0287   20.8658 C   0  0  0  0  0  0  0  0  0  0  0  0
    8.5396  -11.9873   19.3863 S   0  0  0  0  0  0  0  0  0  0  0  0
    8.3527  -15.4484   21.4188 C   0  0  0  0  0  0  0  0  0  0  0  0
    7.6537  -15.5586   22.4714 O   0  0  0  0  0  0  0  0  0  0  0  0
   10.3712  -18.5384   21.5508 C   0  0  0  0  0  0  0  0  0  0  0  0
    9.6791  -17.3921   22.2727 C   0  0  2  0  0  0  0  0  0  0  0  0
    9.4439  -16.3546   21.2924 N   0  0  0  0  0  0  0  0  0  0  0  0
   10.4620  -16.9180   23.4284 C   0  0  0  0  0  0  0  0  0  0  0  0
   11.4234  -16.1351   23.2126 O   0  0  0  0  0  0  0  0  0  0  0  0
   10.2177  -17.2749   24.7710 N   0  0  0  0  0  0  0  0  0  0  0  0
   11.0339  -16.8695   25.8970 C   0  0  1  0  0  0  0  0  0  0  0  0
   10.3025  -15.9971   26.8648 C   0  0  0  0  0  0  0  0  0  0  0  0
   11.1543  -15.5426   28.0233 C   0  0  0  0  0  0  0  0  0  0  0  0
   10.4125  -14.5946   28.8943 C   0  0  0  0  0  0  0  0  0  0  0  0
    9.2294  -14.2297   28.6417 O   0  0  0  0  0  0  0  0  0  0  0  0
   11.7003  -18.0290   26.5407 C   0  0  0  0  0  0  0  0  0  0  0  0
   11.1379  -19.1494   26.6251 O   0  0  0  0  0  0  0  0  0  0  0  0
   10.9733  -14.0417   30.0527 O   0  0  0  0  0  0  0  0  0  0  0  0
   12.9779  -17.9370   27.0825 O   0  0  0  0  0  0  0  0  0  0  0  0
  2  3  1  0
  2  1  1  1
  4  3  1  0
  5  2  1  0
  6  5  2  0
  8  7  1  6
  8  9  1  0
  9  5  1  0
 10  8  1  0
 10 12  1  0
 11 10  2  0
 13 12  1  0
 13 14  1  1
 13 18  1  0
 15 14  1  0
 16 15  1  0
 17 16  2  0
 18 19  2  0
 18 21  1  0
 20 16  1  0
M  END
$$$$
