CAE.pdb
     RDKit          3D

 21 20  0  0  1  0  0  0  0  0999 V2000
    8.7701  -15.0713   19.4593 N   0  0  0  0  0  0  0  0  0  0  0  0
    7.7326  -15.1713   20.4461 C   0  0  1  0  0  0  0  0  0  0  0  0
    6.9763  -16.4583   20.3236 C   0  0  0  0  0  0  0  0  0  0  0  0
    5.6952  -16.4743   21.6249 S   0  0  0  0  0  0  0  0  0  0  0  0
    8.3193  -14.9710   21.7894 C   0  0  0  0  0  0  0  0  0  0  0  0
    9.4308  -15.4987   22.0974 O   0  0  0  0  0  0  0  0  0  0  0  0
    7.4087  -13.0882   24.9000 C   0  0  0  0  0  0  0  0  0  0  0  0
    8.2506  -14.0976   24.1344 C   0  0  2  0  0  0  0  0  0  0  0  0
    7.6923  -14.1920   22.8033 N   0  0  0  0  0  0  0  0  0  0  0  0
    8.3078  -15.4000   24.8226 C   0  0  0  0  0  0  0  0  0  0  0  0
    7.2551  -16.0872   24.8803 O   0  0  0  0  0  0  0  0  0  0  0  0
    9.4598  -15.9440   25.4282 N   0  0  0  0  0  0  0  0  0  0  0  0
    9.5440  -17.2701   26.0049 C   0  0  1  0  0  0  0  0  0  0  0  0
   10.2350  -18.2516   25.1150 C   0  0  0  0  0  0  0  0  0  0  0  0
   11.6530  -17.8621   24.7809 C   0  0  0  0  0  0  0  0  0  0  0  0
   12.2742  -18.8436   23.8545 C   0  0  0  0  0  0  0  0  0  0  0  0
   11.6493  -19.8531   23.4216 O   0  0  0  0  0  0  0  0  0  0  0  0
   10.0957  -17.2383   27.3824 C   0  0  0  0  0  0  0  0  0  0  0  0
   10.5456  -16.1797   27.8882 O   0  0  0  0  0  0  0  0  0  0  0  0
   13.5926  -18.7171   23.3986 O   0  0  0  0  0  0  0  0  0  0  0  0
   10.1437  -18.3743   28.1833 O   0  0  0  0  0  0  0  0  0  0  0  0
  2  3  1  0
  2  1  1  6
  4  3  1  0
  5  2  1  0
  6  5  2  0
  8  7  1  1
  8  9  1  0
  9  5  1  0
 10  8  1  0
 10 12  1  0
 11 10  2  0
 13 12  1  0
 13 14  1  6
 13 18  1  0
 15 14  1  0
 16 15  1  0
 17 16  2  0
 18 19  2  0
 18 21  1  0
 20 16  1  0
M  END
$$$$
