CAE.pdb
     RDKit          3D

 21 20  0  0  1  0  0  0  0  0999 V2000
    8.1678  -14.0239   20.8516 N   0  0  0  0  0  0  0  0  0  0  0  0
    7.2060  -14.1995   21.9025 C   0  0  1  0  0  0  0  0  0  0  0  0
    6.6103  -15.5736   21.8817 C   0  0  0  0  0  0  0  0  0  0  0  0
    7.8827  -16.7383   22.4812 S   0  0  0  0  0  0  0  0  0  0  0  0
    7.8354  -13.8617   23.1980 C   0  0  0  0  0  0  0  0  0  0  0  0
    9.0851  -13.9967   23.3672 O   0  0  0  0  0  0  0  0  0  0  0  0
    6.7267  -12.3719   26.4492 C   0  0  0  0  0  0  0  0  0  0  0  0
    7.7484  -13.0844   25.5760 C   0  0  2  0  0  0  0  0  0  0  0  0
    7.0999  -13.3742   24.3159 N   0  0  0  0  0  0  0  0  0  0  0  0
    8.2858  -14.2904   26.2316 C   0  0  0  0  0  0  0  0  0  0  0  0
    7.5548  -15.3134   26.2828 O   0  0  0  0  0  0  0  0  0  0  0  0
    9.5672  -14.3912   26.8127 N   0  0  0  0  0  0  0  0  0  0  0  0
   10.0592  -15.5451   27.5372 C   0  0  1  0  0  0  0  0  0  0  0  0
   11.2600  -16.1663   26.9008 C   0  0  0  0  0  0  0  0  0  0  0  0
   11.0521  -16.5231   25.4505 C   0  0  0  0  0  0  0  0  0  0  0  0
   12.2825  -17.1120   24.8617 C   0  0  0  0  0  0  0  0  0  0  0  0
   13.3356  -17.2907   25.5369 O   0  0  0  0  0  0  0  0  0  0  0  0
   10.2461  -15.2516   28.9800 C   0  0  0  0  0  0  0  0  0  0  0  0
   10.1160  -14.0891   29.4386 O   0  0  0  0  0  0  0  0  0  0  0  0
   12.3589  -17.5084   23.5204 O   0  0  0  0  0  0  0  0  0  0  0  0
   10.5740  -16.2443   29.8973 O   0  0  0  0  0  0  0  0  0  0  0  0
  2  3  1  0
  2  1  1  6
  4  3  1  0
  5  2  1  0
  6  5  2  0
  8  7  1  1
  8  9  1  0
  9  5  1  0
 10  8  1  0
 10 12  1  0
 11 10  2  0
 13 12  1  0
 13 14  1  6
 13 18  1  0
 15 14  1  0
 16 15  1  0
 17 16  2  0
 18 19  2  0
 18 21  1  0
 20 16  1  0
M  END
$$$$
