CAE.pdb
     RDKit          3D

 21 20  0  0  1  0  0  0  0  0999 V2000
    7.2789  -14.8777   20.1093 N   0  0  0  0  0  0  0  0  0  0  0  0
    6.9404  -15.3237   21.4309 C   0  0  1  0  0  0  0  0  0  0  0  0
    7.2719  -16.7711   21.6271 C   0  0  0  0  0  0  0  0  0  0  0  0
    5.7742  -17.7405   21.2371 S   0  0  0  0  0  0  0  0  0  0  0  0
    7.5932  -14.4414   22.4230 C   0  0  0  0  0  0  0  0  0  0  0  0
    8.7454  -13.9587   22.2035 O   0  0  0  0  0  0  0  0  0  0  0  0
    6.6445  -12.7626   25.6194 C   0  0  0  0  0  0  0  0  0  0  0  0
    7.6858  -13.2695   24.6331 C   0  0  2  0  0  0  0  0  0  0  0  0
    6.9882  -14.0828   23.6613 N   0  0  0  0  0  0  0  0  0  0  0  0
    8.7748  -13.9973   25.3095 C   0  0  0  0  0  0  0  0  0  0  0  0
    9.3640  -13.4290   26.2653 O   0  0  0  0  0  0  0  0  0  0  0  0
    9.2145  -15.2934   24.9680 N   0  0  0  0  0  0  0  0  0  0  0  0
   10.2577  -16.0226   25.6595 C   0  0  1  0  0  0  0  0  0  0  0  0
    9.7675  -17.2841   26.2929 C   0  0  0  0  0  0  0  0  0  0  0  0
   10.8460  -18.0480   27.0191 C   0  0  0  0  0  0  0  0  0  0  0  0
   10.2714  -18.8886   28.1011 C   0  0  0  0  0  0  0  0  0  0  0  0
    9.0255  -19.0344   28.2537 O   0  0  0  0  0  0  0  0  0  0  0  0
   11.4520  -16.2232   24.8014 C   0  0  0  0  0  0  0  0  0  0  0  0
   12.5800  -16.4810   25.2912 O   0  0  0  0  0  0  0  0  0  0  0  0
   11.0702  -19.5755   29.0242 O   0  0  0  0  0  0  0  0  0  0  0  0
   11.3859  -16.1368   23.4149 O   0  0  0  0  0  0  0  0  0  0  0  0
  2  3  1  0
  2  1  1  6
  4  3  1  0
  5  2  1  0
  6  5  2  0
  8  7  1  1
  8  9  1  0
  9  5  1  0
 10  8  1  0
 10 12  1  0
 11 10  2  0
 13 12  1  0
 13 14  1  6
 13 18  1  0
 15 14  1  0
 16 15  1  0
 17 16  2  0
 18 19  2  0
 18 21  1  0
 20 16  1  0
M  END
$$$$
