CAE.pdb
     RDKit          3D

 21 20  0  0  1  0  0  0  0  0999 V2000
    8.2119  -12.4256   26.1959 N   0  0  0  0  0  0  0  0  0  0  0  0
    7.1053  -13.3327   26.3091 C   0  0  1  0  0  0  0  0  0  0  0  0
    5.8182  -12.6060   26.5515 C   0  0  0  0  0  0  0  0  0  0  0  0
    6.1436  -11.2987   27.7844 S   0  0  0  0  0  0  0  0  0  0  0  0
    7.0633  -14.1992   25.1108 C   0  0  0  0  0  0  0  0  0  0  0  0
    6.3207  -15.2269   25.0786 O   0  0  0  0  0  0  0  0  0  0  0  0
    7.8460  -14.0259   21.5556 C   0  0  0  0  0  0  0  0  0  0  0  0
    7.8344  -14.8653   22.8242 C   0  0  2  0  0  0  0  0  0  0  0  0
    7.8344  -13.9455   23.9407 N   0  0  0  0  0  0  0  0  0  0  0  0
    8.9625  -15.8133   22.8662 C   0  0  0  0  0  0  0  0  0  0  0  0
    9.0604  -16.6602   21.9405 O   0  0  0  0  0  0  0  0  0  0  0  0
    9.9517  -15.8482   23.8711 N   0  0  0  0  0  0  0  0  0  0  0  0
   11.0376  -16.8050   23.9310 C   0  0  1  0  0  0  0  0  0  0  0  0
   12.3323  -16.2518   23.4306 C   0  0  0  0  0  0  0  0  0  0  0  0
   13.4920  -17.2023   23.5919 C   0  0  0  0  0  0  0  0  0  0  0  0
   14.7419  -16.6217   23.0369 C   0  0  0  0  0  0  0  0  0  0  0  0
   15.8341  -17.2573   23.0236 O   0  0  0  0  0  0  0  0  0  0  0  0
   11.1471  -17.4315   25.2720 C   0  0  0  0  0  0  0  0  0  0  0  0
   10.6624  -16.8873   26.2956 O   0  0  0  0  0  0  0  0  0  0  0  0
   14.7947  -15.3326   22.4915 O   0  0  0  0  0  0  0  0  0  0  0  0
   11.7895  -18.6498   25.4659 O   0  0  0  0  0  0  0  0  0  0  0  0
  2  3  1  0
  2  1  1  6
  4  3  1  0
  5  2  1  0
  6  5  2  0
  8  7  1  6
  8  9  1  0
  9  5  1  0
 10  8  1  0
 10 12  1  0
 11 10  2  0
 13 12  1  0
 13 14  1  1
 13 18  1  0
 15 14  1  0
 16 15  1  0
 17 16  2  0
 18 19  2  0
 18 21  1  0
 20 16  1  0
M  END
$$$$
