CAE.pdb
     RDKit          3D

 21 20  0  0  1  0  0  0  0  0999 V2000
    9.1853  -14.0454   18.0381 N   0  0  0  0  0  0  0  0  0  0  0  0
    8.6040  -14.0050   19.3499 C   0  0  1  0  0  0  0  0  0  0  0  0
    7.1276  -13.7597   19.2921 C   0  0  0  0  0  0  0  0  0  0  0  0
    6.8515  -12.2821   18.2550 S   0  0  0  0  0  0  0  0  0  0  0  0
    8.9561  -15.2454   20.0752 C   0  0  0  0  0  0  0  0  0  0  0  0
    8.5877  -15.4219   21.2760 O   0  0  0  0  0  0  0  0  0  0  0  0
   10.0796  -18.6445   19.2376 C   0  0  0  0  0  0  0  0  0  0  0  0
   10.0402  -17.4962   20.2346 C   0  0  2  0  0  0  0  0  0  0  0  0
    9.7137  -16.2997   19.4900 N   0  0  0  0  0  0  0  0  0  0  0  0
   11.3044  -17.3749   20.9833 C   0  0  0  0  0  0  0  0  0  0  0  0
   11.7251  -18.3852   21.6045 O   0  0  0  0  0  0  0  0  0  0  0  0
   12.0888  -16.2051   21.0604 N   0  0  0  0  0  0  0  0  0  0  0  0
   13.3722  -16.1114   21.7254 C   0  0  1  0  0  0  0  0  0  0  0  0
   14.3152  -15.1723   21.0460 C   0  0  0  0  0  0  0  0  0  0  0  0
   14.3791  -15.3646   19.5516 C   0  0  0  0  0  0  0  0  0  0  0  0
   15.3579  -14.4337   18.9328 C   0  0  0  0  0  0  0  0  0  0  0  0
   16.0284  -13.6076   19.6145 O   0  0  0  0  0  0  0  0  0  0  0  0
   13.2226  -15.8433   23.1775 C   0  0  0  0  0  0  0  0  0  0  0  0
   14.2096  -15.8536   23.9550 O   0  0  0  0  0  0  0  0  0  0  0  0
   15.6036  -14.4085   17.5540 O   0  0  0  0  0  0  0  0  0  0  0  0
   11.9865  -15.5675   23.7523 O   0  0  0  0  0  0  0  0  0  0  0  0
  2  3  1  0
  2  1  1  6
  4  3  1  0
  5  2  1  0
  6  5  2  0
  8  7  1  6
  8  9  1  0
  9  5  1  0
 10  8  1  0
 10 12  1  0
 11 10  2  0
 13 12  1  0
 13 14  1  6
 13 18  1  0
 15 14  1  0
 16 15  1  0
 17 16  2  0
 18 19  2  0
 18 21  1  0
 20 16  1  0
M  END
$$$$
