CAE.pdb
     RDKit          3D

 21 20  0  0  1  0  0  0  0  0999 V2000
    6.9707  -13.3527   18.4060 N   0  0  0  0  0  0  0  0  0  0  0  0
    8.3557  -13.7253   18.4610 C   0  0  1  0  0  0  0  0  0  0  0  0
    9.2179  -12.5822   18.9009 C   0  0  0  0  0  0  0  0  0  0  0  0
    8.7373  -12.1508   20.6090 S   0  0  0  0  0  0  0  0  0  0  0  0
    8.5026  -14.9230   19.3169 C   0  0  0  0  0  0  0  0  0  0  0  0
    7.5653  -15.7723   19.4112 O   0  0  0  0  0  0  0  0  0  0  0  0
    9.8616  -17.4858   19.4226 C   0  0  0  0  0  0  0  0  0  0  0  0
    9.9453  -16.5203   20.5951 C   0  0  2  0  0  0  0  0  0  0  0  0
    9.6766  -15.1976   20.0748 N   0  0  0  0  0  0  0  0  0  0  0  0
   11.2439  -16.6079   21.2874 C   0  0  0  0  0  0  0  0  0  0  0  0
   12.2687  -16.2032   20.6796 O   0  0  0  0  0  0  0  0  0  0  0  0
   11.4324  -17.1144   22.5904 N   0  0  0  0  0  0  0  0  0  0  0  0
   12.5693  -16.8176   23.4375 C   0  0  1  0  0  0  0  0  0  0  0  0
   12.3230  -17.1318   24.8774 C   0  0  0  0  0  0  0  0  0  0  0  0
   10.8613  -17.1335   25.2486 C   0  0  0  0  0  0  0  0  0  0  0  0
   10.6779  -17.3777   26.7026 C   0  0  0  0  0  0  0  0  0  0  0  0
   11.6497  -17.6090   27.4765 O   0  0  0  0  0  0  0  0  0  0  0  0
   13.8203  -17.4188   22.9120 C   0  0  0  0  0  0  0  0  0  0  0  0
   13.8030  -18.2991   22.0156 O   0  0  0  0  0  0  0  0  0  0  0  0
    9.4174  -17.3681   27.3135 O   0  0  0  0  0  0  0  0  0  0  0  0
   15.0735  -17.0409   23.3823 O   0  0  0  0  0  0  0  0  0  0  0  0
  2  3  1  0
  2  1  1  1
  4  3  1  0
  5  2  1  0
  6  5  2  0
  8  7  1  6
  8  9  1  0
  9  5  1  0
 10  8  1  0
 10 12  1  0
 11 10  2  0
 13 12  1  0
 13 14  1  1
 13 18  1  0
 15 14  1  0
 16 15  1  0
 17 16  2  0
 18 19  2  0
 18 21  1  0
 20 16  1  0
M  END
$$$$
