CAE.pdb
     RDKit          3D

 21 20  0  0  1  0  0  0  0  0999 V2000
    7.6135  -15.4672   20.1248 N   0  0  0  0  0  0  0  0  0  0  0  0
    8.5677  -14.4114   20.3127 C   0  0  1  0  0  0  0  0  0  0  0  0
    8.1485  -13.1569   19.6098 C   0  0  0  0  0  0  0  0  0  0  0  0
    7.5808  -13.6218   17.9376 S   0  0  0  0  0  0  0  0  0  0  0  0
    8.7947  -14.2144   21.7612 C   0  0  0  0  0  0  0  0  0  0  0  0
    9.6985  -13.4267   22.1753 O   0  0  0  0  0  0  0  0  0  0  0  0
    7.0180  -14.8568   24.9243 C   0  0  0  0  0  0  0  0  0  0  0  0
    8.3313  -14.7118   24.1705 C   0  0  2  0  0  0  0  0  0  0  0  0
    8.0336  -14.8789   22.7648 N   0  0  0  0  0  0  0  0  0  0  0  0
    9.3503  -15.6609   24.6544 C   0  0  0  0  0  0  0  0  0  0  0  0
    9.6684  -15.6204   25.8713 O   0  0  0  0  0  0  0  0  0  0  0  0
   10.0047  -16.6212   23.8547 N   0  0  0  0  0  0  0  0  0  0  0  0
   11.0977  -17.4618   24.2984 C   0  0  1  0  0  0  0  0  0  0  0  0
   12.4340  -16.9710   23.8442 C   0  0  0  0  0  0  0  0  0  0  0  0
   13.5794  -17.8332   24.3122 C   0  0  0  0  0  0  0  0  0  0  0  0
   14.8834  -17.2847   23.8580 C   0  0  0  0  0  0  0  0  0  0  0  0
   15.3186  -17.4614   22.6848 O   0  0  0  0  0  0  0  0  0  0  0  0
   11.0345  -17.7239   25.7579 C   0  0  0  0  0  0  0  0  0  0  0  0
   10.8036  -16.8051   26.5833 O   0  0  0  0  0  0  0  0  0  0  0  0
   15.7177  -16.5358   24.6977 O   0  0  0  0  0  0  0  0  0  0  0  0
   11.2268  -18.9956   26.2871 O   0  0  0  0  0  0  0  0  0  0  0  0
  2  3  1  0
  2  1  1  1
  4  3  1  0
  5  2  1  0
  6  5  2  0
  8  7  1  1
  8  9  1  0
  9  5  1  0
 10  8  1  0
 10 12  1  0
 11 10  2  0
 13 12  1  0
 13 14  1  1
 13 18  1  0
 15 14  1  0
 16 15  1  0
 17 16  2  0
 18 19  2  0
 18 21  1  0
 20 16  1  0
M  END
$$$$
