CAE.pdb
     RDKit          3D

 21 20  0  0  1  0  0  0  0  0999 V2000
    8.3985  -15.3161   15.2124 N   0  0  0  0  0  0  0  0  0  0  0  0
    7.6741  -15.6158   16.4148 C   0  0  1  0  0  0  0  0  0  0  0  0
    7.4960  -17.0916   16.5987 C   0  0  0  0  0  0  0  0  0  0  0  0
    9.1505  -17.8223   16.8512 S   0  0  0  0  0  0  0  0  0  0  0  0
    8.3474  -14.9673   17.5615 C   0  0  0  0  0  0  0  0  0  0  0  0
    9.6120  -14.8815   17.6079 O   0  0  0  0  0  0  0  0  0  0  0  0
    7.2892  -13.2056   20.6949 C   0  0  0  0  0  0  0  0  0  0  0  0
    8.3369  -13.8582   19.8057 C   0  0  2  0  0  0  0  0  0  0  0  0
    7.6398  -14.4093   18.6642 N   0  0  0  0  0  0  0  0  0  0  0  0
    9.1247  -14.8683   20.5351 C   0  0  0  0  0  0  0  0  0  0  0  0
    8.7722  -16.0731   20.4463 O   0  0  0  0  0  0  0  0  0  0  0  0
   10.2540  -14.5904   21.3333 N   0  0  0  0  0  0  0  0  0  0  0  0
   11.0558  -15.5893   22.0097 C   0  0  1  0  0  0  0  0  0  0  0  0
   12.5244  -15.3473   21.8778 C   0  0  0  0  0  0  0  0  0  0  0  0
   13.3682  -16.4198   22.5197 C   0  0  0  0  0  0  0  0  0  0  0  0
   14.8165  -16.1367   22.3478 C   0  0  0  0  0  0  0  0  0  0  0  0
   15.5508  -15.7661   23.3072 O   0  0  0  0  0  0  0  0  0  0  0  0
   10.6184  -15.7892   23.4138 C   0  0  0  0  0  0  0  0  0  0  0  0
    9.8796  -14.9582   23.9989 O   0  0  0  0  0  0  0  0  0  0  0  0
   15.4656  -16.2611   21.1128 O   0  0  0  0  0  0  0  0  0  0  0  0
   11.0017  -16.9030   24.1535 O   0  0  0  0  0  0  0  0  0  0  0  0
  2  3  1  0
  2  1  1  6
  4  3  1  0
  5  2  1  0
  6  5  2  0
  8  7  1  1
  8  9  1  0
  9  5  1  0
 10  8  1  0
 10 12  1  0
 11 10  2  0
 13 12  1  0
 13 14  1  1
 13 18  1  0
 15 14  1  0
 16 15  1  0
 17 16  2  0
 18 19  2  0
 18 21  1  0
 20 16  1  0
M  END
$$$$
