CAE.pdb
     RDKit          3D

 21 20  0  0  1  0  0  0  0  0999 V2000
    8.4662  -13.9328   16.6892 N   0  0  0  0  0  0  0  0  0  0  0  0
    7.8031  -14.6434   17.7455 C   0  0  1  0  0  0  0  0  0  0  0  0
    7.7835  -16.1192   17.4905 C   0  0  0  0  0  0  0  0  0  0  0  0
    9.4979  -16.7303   17.6394 S   0  0  0  0  0  0  0  0  0  0  0  0
    8.4300  -14.2882   19.0376 C   0  0  0  0  0  0  0  0  0  0  0  0
    9.6609  -13.9891   19.1013 O   0  0  0  0  0  0  0  0  0  0  0  0
    7.3383  -13.5739   22.5227 C   0  0  0  0  0  0  0  0  0  0  0  0
    8.3882  -14.0471   21.5289 C   0  0  2  0  0  0  0  0  0  0  0  0
    7.7126  -14.2587   20.2675 N   0  0  0  0  0  0  0  0  0  0  0  0
    9.0943  -15.2499   22.0065 C   0  0  0  0  0  0  0  0  0  0  0  0
    8.6352  -16.3756   21.6815 O   0  0  0  0  0  0  0  0  0  0  0  0
   10.2555  -15.2405   22.8072 N   0  0  0  0  0  0  0  0  0  0  0  0
   10.8861  -16.4194   23.3649 C   0  0  1  0  0  0  0  0  0  0  0  0
   12.3679  -16.2818   23.4985 C   0  0  0  0  0  0  0  0  0  0  0  0
   13.1084  -16.4935   22.2019 C   0  0  0  0  0  0  0  0  0  0  0  0
   14.5720  -16.3164   22.3855 C   0  0  0  0  0  0  0  0  0  0  0  0
   15.0795  -15.2163   22.7446 O   0  0  0  0  0  0  0  0  0  0  0  0
   10.2229  -16.8589   24.6179 C   0  0  0  0  0  0  0  0  0  0  0  0
    9.4233  -16.1133   25.2371 O   0  0  0  0  0  0  0  0  0  0  0  0
   15.4875  -17.3552   22.1734 O   0  0  0  0  0  0  0  0  0  0  0  0
   10.4505  -18.1146   25.1707 O   0  0  0  0  0  0  0  0  0  0  0  0
  2  3  1  0
  2  1  1  6
  4  3  1  0
  5  2  1  0
  6  5  2  0
  8  7  1  1
  8  9  1  0
  9  5  1  0
 10  8  1  0
 10 12  1  0
 11 10  2  0
 13 12  1  0
 13 14  1  1
 13 18  1  0
 15 14  1  0
 16 15  1  0
 17 16  2  0
 18 19  2  0
 18 21  1  0
 20 16  1  0
M  END
$$$$
