CAE.pdb
     RDKit          3D

 21 20  0  0  1  0  0  0  0  0999 V2000
   -0.7214  -25.4878   26.0368 N   0  0  0  0  0  0  0  0  0  0  0  0
   -2.0496  -25.3984   25.4998 C   0  0  1  0  0  0  0  0  0  0  0  0
   -2.7803  -26.7009   25.6148 C   0  0  0  0  0  0  0  0  0  0  0  0
   -4.4241  -26.4835   24.8495 S   0  0  0  0  0  0  0  0  0  0  0  0
   -2.7617  -24.2766   26.1502 C   0  0  0  0  0  0  0  0  0  0  0  0
   -2.8910  -24.2337   27.4112 O   0  0  0  0  0  0  0  0  0  0  0  0
   -4.1706  -20.9805   25.1155 C   0  0  0  0  0  0  0  0  0  0  0  0
   -4.0675  -22.1416   26.0929 C   0  0  2  0  0  0  0  0  0  0  0  0
   -3.3366  -23.1952   25.4234 N   0  0  0  0  0  0  0  0  0  0  0  0
   -5.3926  -22.5795   26.5678 C   0  0  0  0  0  0  0  0  0  0  0  0
   -6.0224  -23.4211   25.8758 O   0  0  0  0  0  0  0  0  0  0  0  0
   -6.0184  -22.1262   27.7478 N   0  0  0  0  0  0  0  0  0  0  0  0
   -7.2776  -22.6253   28.2613 C   0  0  1  0  0  0  0  0  0  0  0  0
   -7.2593  -24.0959   28.5255 C   0  0  0  0  0  0  0  0  0  0  0  0
   -6.5525  -24.4657   29.8053 C   0  0  0  0  0  0  0  0  0  0  0  0
   -6.5880  -25.9335   30.0322 C   0  0  0  0  0  0  0  0  0  0  0  0
   -7.6406  -26.6156   29.8783 O   0  0  0  0  0  0  0  0  0  0  0  0
   -7.7564  -21.8278   29.4178 C   0  0  0  0  0  0  0  0  0  0  0  0
   -8.9566  -21.8586   29.7883 O   0  0  0  0  0  0  0  0  0  0  0  0
   -5.4589  -26.6601   30.4316 O   0  0  0  0  0  0  0  0  0  0  0  0
   -6.9049  -21.0073   30.1501 O   0  0  0  0  0  0  0  0  0  0  0  0
  2  3  1  0
  2  1  1  1
  4  3  1  0
  5  2  1  0
  6  5  2  0
  8  7  1  6
  8  9  1  0
  9  5  1  0
 10  8  1  0
 10 12  1  0
 11 10  2  0
 13 12  1  0
 13 14  1  1
 13 18  1  0
 15 14  1  0
 16 15  1  0
 17 16  2  0
 18 19  2  0
 18 21  1  0
 20 16  1  0
M  END
$$$$
