VME.pdb
     RDKit          3D

 25 24  0  0  1  0  0  0  0  0999 V2000
   20.7717  -20.6796  -10.8576 C   0  0  0  0  0  0  0  0  0  0  0  0
   20.4482  -20.1343  -12.2190 C   0  0  2  0  0  0  0  0  0  0  0  0
   19.0460  -20.5073  -12.5976 C   0  0  0  0  0  0  0  0  0  0  0  0
   21.4769  -20.6499  -13.2065 C   0  0  2  0  0  0  0  0  0  0  0  0
   21.3042  -22.0609  -13.3864 N   0  0  0  0  0  0  0  0  0  0  0  0
   22.8217  -20.2812  -12.6921 C   0  0  0  0  0  0  0  0  0  0  0  0
   23.1189  -19.0655  -12.6663 O   0  0  0  0  0  0  0  0  0  0  0  0
   27.7276  -19.4724   -7.6362 C   0  0  0  0  0  0  0  0  0  0  0  0
   26.3239  -20.3391   -8.3932 S   0  0  0  0  0  0  0  0  0  0  0  0
   26.7769  -21.0896   -9.9821 C   0  0  0  0  0  0  0  0  0  0  0  0
   25.5244  -21.6549  -10.6014 C   0  0  0  0  0  0  0  0  0  0  0  0
   25.1186  -20.9207  -11.8549 C   0  0  2  0  0  0  0  0  0  0  0  0
   23.7779  -21.2243  -12.2329 N   0  0  0  0  0  0  0  0  0  0  0  0
   26.1045  -21.1757  -12.9352 C   0  0  0  0  0  0  0  0  0  0  0  0
   26.4896  -22.3211  -13.2754 O   0  0  0  0  0  0  0  0  0  0  0  0
   26.6655  -20.0795  -13.6472 N   0  0  0  0  0  0  0  0  0  0  0  0
   26.8549  -20.0437  -15.0613 C   0  0  1  0  0  0  0  0  0  0  0  0
   25.5590  -19.9150  -15.8278 C   0  0  0  0  0  0  0  0  0  0  0  0
   25.2273  -21.1259  -16.6286 C   0  0  0  0  0  0  0  0  0  0  0  0
   23.9854  -20.8673  -17.3956 C   0  0  0  0  0  0  0  0  0  0  0  0
   23.5281  -21.7398  -18.1732 O   0  0  0  0  0  0  0  0  0  0  0  0
   27.7983  -18.9486  -15.3851 C   0  0  0  0  0  0  0  0  0  0  0  0
   27.9807  -17.9503  -14.6411 O   0  0  0  0  0  0  0  0  0  0  0  0
   23.2834  -19.6634  -17.2879 O   0  0  0  0  0  0  0  0  0  0  0  0
   28.5331  -18.9930  -16.5580 O   0  0  0  0  0  0  0  0  0  0  0  0
  2  4  1  0
  2  1  1  1
  3  2  1  0
  4  5  1  1
  6  4  1  0
  6  7  2  0
  9  8  1  0
 10  9  1  0
 11 10  1  0
 12 11  1  1
 12 13  1  0
 13  6  1  0
 14 12  1  0
 14 16  1  0
 15 14  2  0
 17 16  1  0
 17 22  1  0
 17 18  1  6
 19 18  1  0
 20 19  1  0
 20 21  2  0
 22 23  2  0
 22 25  1  0
 24 20  1  0
M  END
$$$$
