VME.pdb
     RDKit          3D

 25 24  0  0  1  0  0  0  0  0999 V2000
   28.3562  -18.5010  -16.5609 C   0  0  0  0  0  0  0  0  0  0  0  0
   27.3266  -19.1929  -15.7143 C   0  0  2  0  0  0  0  0  0  0  0  0
   26.5575  -18.1811  -14.9183 C   0  0  0  0  0  0  0  0  0  0  0  0
   28.0242  -20.2166  -14.8399 C   0  0  2  0  0  0  0  0  0  0  0  0
   28.6975  -21.1743  -15.6662 N   0  0  0  0  0  0  0  0  0  0  0  0
   27.0004  -20.8228  -13.9491 C   0  0  0  0  0  0  0  0  0  0  0  0
   26.2468  -21.6931  -14.4406 O   0  0  0  0  0  0  0  0  0  0  0  0
   27.0542  -19.9364   -7.5875 C   0  0  0  0  0  0  0  0  0  0  0  0
   25.3745  -20.6175   -7.6851 S   0  0  0  0  0  0  0  0  0  0  0  0
   24.9339  -21.0746   -9.3850 C   0  0  0  0  0  0  0  0  0  0  0  0
   26.0596  -20.6403  -10.2882 C   0  0  0  0  0  0  0  0  0  0  0  0
   25.7724  -20.9185  -11.7426 C   0  0  2  0  0  0  0  0  0  0  0  0
   26.8329  -20.4715  -12.5841 N   0  0  0  0  0  0  0  0  0  0  0  0
   24.4504  -20.3560  -12.1164 C   0  0  0  0  0  0  0  0  0  0  0  0
   24.1922  -19.1276  -12.1352 O   0  0  0  0  0  0  0  0  0  0  0  0
   23.3913  -21.2333  -12.4802 N   0  0  0  0  0  0  0  0  0  0  0  0
   22.0792  -20.8099  -12.8486 C   0  0  1  0  0  0  0  0  0  0  0  0
   21.4432  -21.6980  -13.8927 C   0  0  0  0  0  0  0  0  0  0  0  0
   22.0646  -21.5602  -15.2390 C   0  0  0  0  0  0  0  0  0  0  0  0
   21.3605  -22.4577  -16.1855 C   0  0  0  0  0  0  0  0  0  0  0  0
   20.4488  -23.2179  -15.7782 O   0  0  0  0  0  0  0  0  0  0  0  0
   21.2504  -20.7172  -11.6244 C   0  0  0  0  0  0  0  0  0  0  0  0
   21.6122  -21.1718  -10.5083 O   0  0  0  0  0  0  0  0  0  0  0  0
   21.6755  -22.4954  -17.5468 O   0  0  0  0  0  0  0  0  0  0  0  0
   20.0089  -20.1059  -11.6745 O   0  0  0  0  0  0  0  0  0  0  0  0
  2  4  1  0
  2  1  1  1
  3  2  1  0
  4  5  1  6
  6  4  1  0
  6  7  2  0
  9  8  1  0
 10  9  1  0
 11 10  1  0
 12 11  1  1
 12 13  1  0
 13  6  1  0
 14 12  1  0
 14 16  1  0
 15 14  2  0
 17 16  1  0
 17 22  1  0
 17 18  1  6
 19 18  1  0
 20 19  1  0
 20 21  2  0
 22 23  2  0
 22 25  1  0
 24 20  1  0
M  END
$$$$
