VME.pdb
     RDKit          3D

 25 24  0  0  1  0  0  0  0  0999 V2000
   18.2239   -8.4146  -19.6317 C   0  0  0  0  0  0  0  0  0  0  0  0
   19.1437   -9.5494  -19.9807 C   0  0  2  0  0  0  0  0  0  0  0  0
   18.8956   -9.9911  -21.3920 C   0  0  0  0  0  0  0  0  0  0  0  0
   18.9417  -10.6660  -18.9749 C   0  0  2  0  0  0  0  0  0  0  0  0
   17.6242  -11.2102  -19.1201 N   0  0  0  0  0  0  0  0  0  0  0  0
   19.2037  -10.1086  -17.6222 C   0  0  0  0  0  0  0  0  0  0  0  0
   18.2149   -9.7655  -16.9355 O   0  0  0  0  0  0  0  0  0  0  0  0
   23.3883  -10.2425  -11.0307 C   0  0  0  0  0  0  0  0  0  0  0  0
   23.0366  -10.8171  -12.7162 S   0  0  0  0  0  0  0  0  0  0  0  0
   21.9199   -9.6857  -13.5912 C   0  0  0  0  0  0  0  0  0  0  0  0
   21.6793  -10.2459  -14.9695 C   0  0  0  0  0  0  0  0  0  0  0  0
   20.7929   -9.3578  -15.8066 C   0  0  2  0  0  0  0  0  0  0  0  0
   20.5020   -9.9460  -17.0723 N   0  0  0  0  0  0  0  0  0  0  0  0
   21.3870   -8.0015  -15.9129 C   0  0  0  0  0  0  0  0  0  0  0  0
   21.8906   -7.5383  -16.9655 O   0  0  0  0  0  0  0  0  0  0  0  0
   21.4028   -7.1503  -14.7733 N   0  0  0  0  0  0  0  0  0  0  0  0
   21.7033   -5.7556  -14.8081 C   0  0  1  0  0  0  0  0  0  0  0  0
   20.9132   -5.0069  -15.8562 C   0  0  0  0  0  0  0  0  0  0  0  0
   21.2136   -3.5486  -15.8880 C   0  0  0  0  0  0  0  0  0  0  0  0
   20.1394   -2.8548  -16.6378 C   0  0  0  0  0  0  0  0  0  0  0  0
   19.8102   -3.2489  -17.7829 O   0  0  0  0  0  0  0  0  0  0  0  0
   21.4952   -5.1926  -13.4539 C   0  0  0  0  0  0  0  0  0  0  0  0
   20.6623   -5.6562  -12.6326 O   0  0  0  0  0  0  0  0  0  0  0  0
   19.4597   -1.7525  -16.1117 O   0  0  0  0  0  0  0  0  0  0  0  0
   22.2378   -4.1004  -13.0375 O   0  0  0  0  0  0  0  0  0  0  0  0
  2  4  1  0
  2  1  1  1
  3  2  1  0
  4  5  1  1
  6  4  1  0
  6  7  2  0
  9  8  1  0
 10  9  1  0
 11 10  1  0
 12 11  1  6
 12 13  1  0
 13  6  1  0
 14 12  1  0
 14 16  1  0
 15 14  2  0
 17 16  1  0
 17 22  1  0
 17 18  1  6
 19 18  1  0
 20 19  1  0
 20 21  2  0
 22 23  2  0
 22 25  1  0
 24 20  1  0
M  END
$$$$
