VME.pdb
     RDKit          3D

 25 24  0  0  1  0  0  0  0  0999 V2000
   18.8955  -12.5535  -18.3551 C   0  0  0  0  0  0  0  0  0  0  0  0
   19.8271  -13.6231  -18.8487 C   0  0  2  0  0  0  0  0  0  0  0  0
   19.1157  -14.5055  -19.8305 C   0  0  0  0  0  0  0  0  0  0  0  0
   20.3631  -14.3899  -17.6555 C   0  0  2  0  0  0  0  0  0  0  0  0
   19.3054  -15.1514  -17.0600 N   0  0  0  0  0  0  0  0  0  0  0  0
   20.9776  -13.4068  -16.7254 C   0  0  0  0  0  0  0  0  0  0  0  0
   20.2627  -12.9587  -15.8008 O   0  0  0  0  0  0  0  0  0  0  0  0
   27.4432  -11.7215  -15.1047 C   0  0  0  0  0  0  0  0  0  0  0  0
   26.6889  -13.3511  -15.3697 S   0  0  0  0  0  0  0  0  0  0  0  0
   24.8799  -13.2807  -15.2468 C   0  0  0  0  0  0  0  0  0  0  0  0
   24.4125  -12.0545  -15.9882 C   0  0  0  0  0  0  0  0  0  0  0  0
   22.9090  -11.9377  -16.0201 C   0  0  2  0  0  0  0  0  0  0  0  0
   22.3186  -12.9530  -16.8283 N   0  0  0  0  0  0  0  0  0  0  0  0
   22.5141  -10.5644  -16.4225 C   0  0  0  0  0  0  0  0  0  0  0  0
   22.5415  -10.1465  -17.6060 O   0  0  0  0  0  0  0  0  0  0  0  0
   22.0735   -9.6420  -15.4333 N   0  0  0  0  0  0  0  0  0  0  0  0
   21.5750   -8.3338  -15.7104 C   0  0  1  0  0  0  0  0  0  0  0  0
   20.1746   -8.3432  -16.2782 C   0  0  0  0  0  0  0  0  0  0  0  0
   19.6513   -6.9806  -16.5736 C   0  0  0  0  0  0  0  0  0  0  0  0
   18.2889   -7.1044  -17.1445 C   0  0  0  0  0  0  0  0  0  0  0  0
   17.7691   -8.2357  -17.3030 O   0  0  0  0  0  0  0  0  0  0  0  0
   21.6636   -7.5219  -14.4747 C   0  0  0  0  0  0  0  0  0  0  0  0
   21.5357   -6.2702  -14.4589 O   0  0  0  0  0  0  0  0  0  0  0  0
   17.5386   -5.9878  -17.5239 O   0  0  0  0  0  0  0  0  0  0  0  0
   21.8984   -8.1387  -13.2573 O   0  0  0  0  0  0  0  0  0  0  0  0
  2  4  1  0
  2  1  1  1
  3  2  1  0
  4  5  1  1
  6  4  1  0
  6  7  2  0
  9  8  1  0
 10  9  1  0
 11 10  1  0
 12 11  1  6
 12 13  1  0
 13  6  1  0
 14 12  1  0
 14 16  1  0
 15 14  2  0
 17 16  1  0
 17 22  1  0
 17 18  1  1
 19 18  1  0
 20 19  1  0
 20 21  2  0
 22 23  2  0
 22 25  1  0
 24 20  1  0
M  END
$$$$
