VME.pdb
     RDKit          3D

 25 24  0  0  1  0  0  0  0  0999 V2000
   20.2433   -9.1219  -17.7794 C   0  0  0  0  0  0  0  0  0  0  0  0
   18.8123   -8.8292  -18.1286 C   0  0  2  0  0  0  0  0  0  0  0  0
   18.6750   -8.6535  -19.6115 C   0  0  0  0  0  0  0  0  0  0  0  0
   18.3621   -7.6076  -17.3512 C   0  0  2  0  0  0  0  0  0  0  0  0
   19.1733   -6.4831  -17.7126 N   0  0  0  0  0  0  0  0  0  0  0  0
   18.4290   -7.9424  -15.9047 C   0  0  0  0  0  0  0  0  0  0  0  0
   17.7210   -8.8905  -15.4960 O   0  0  0  0  0  0  0  0  0  0  0  0
   23.2837  -11.3824  -13.8129 C   0  0  0  0  0  0  0  0  0  0  0  0
   22.7408   -9.7764  -13.1642 S   0  0  0  0  0  0  0  0  0  0  0  0
   21.1157   -9.3035  -13.8186 C   0  0  0  0  0  0  0  0  0  0  0  0
   20.7312   -7.9857  -13.1962 C   0  0  0  0  0  0  0  0  0  0  0  0
   19.3388   -7.5510  -13.5799 C   0  0  2  0  0  0  0  0  0  0  0  0
   19.2445   -7.2517  -14.9706 N   0  0  0  0  0  0  0  0  0  0  0  0
   18.8968   -6.4334  -12.7083 C   0  0  0  0  0  0  0  0  0  0  0  0
   19.4601   -5.3121  -12.6680 O   0  0  0  0  0  0  0  0  0  0  0  0
   17.7717   -6.6100  -11.8560 N   0  0  0  0  0  0  0  0  0  0  0  0
   17.2238   -5.5939  -11.0169 C   0  0  1  0  0  0  0  0  0  0  0  0
   15.8287   -5.1801  -11.4240 C   0  0  0  0  0  0  0  0  0  0  0  0
   15.7743   -4.5396  -12.7673 C   0  0  0  0  0  0  0  0  0  0  0  0
   15.1887   -5.5003  -13.7325 C   0  0  0  0  0  0  0  0  0  0  0  0
   14.7744   -6.6183  -13.3408 O   0  0  0  0  0  0  0  0  0  0  0  0
   17.2722   -6.0627   -9.6126 C   0  0  0  0  0  0  0  0  0  0  0  0
   16.9952   -5.3290   -8.6285 O   0  0  0  0  0  0  0  0  0  0  0  0
   15.0748   -5.2080  -15.0945 O   0  0  0  0  0  0  0  0  0  0  0  0
   17.6369   -7.3687   -9.3317 O   0  0  0  0  0  0  0  0  0  0  0  0
  2  4  1  0
  2  1  1  6
  3  2  1  0
  4  5  1  1
  6  4  1  0
  6  7  2  0
  9  8  1  0
 10  9  1  0
 11 10  1  0
 12 11  1  1
 12 13  1  0
 13  6  1  0
 14 12  1  0
 14 16  1  0
 15 14  2  0
 17 16  1  0
 17 22  1  0
 17 18  1  6
 19 18  1  0
 20 19  1  0
 20 21  2  0
 22 23  2  0
 22 25  1  0
 24 20  1  0
M  END
$$$$
