VME.pdb
     RDKit          3D

 25 24  0  0  1  0  0  0  0  0999 V2000
   17.9635  -12.1635  -18.5720 C   0  0  0  0  0  0  0  0  0  0  0  0
   18.7665  -11.2556  -17.6851 C   0  0  2  0  0  0  0  0  0  0  0  0
   19.3004  -10.1042  -18.4837 C   0  0  0  0  0  0  0  0  0  0  0  0
   19.8637  -12.0671  -17.0242 C   0  0  2  0  0  0  0  0  0  0  0  0
   19.2805  -13.1276  -16.2571 N   0  0  0  0  0  0  0  0  0  0  0  0
   20.6877  -11.1352  -16.2108 C   0  0  0  0  0  0  0  0  0  0  0  0
   20.1581  -10.6286  -15.1960 O   0  0  0  0  0  0  0  0  0  0  0  0
   27.1060  -13.3651  -14.9653 C   0  0  0  0  0  0  0  0  0  0  0  0
   26.5090  -11.7885  -15.6382 S   0  0  0  0  0  0  0  0  0  0  0  0
   24.7411  -11.5455  -15.3094 C   0  0  0  0  0  0  0  0  0  0  0  0
   24.3256  -10.2448  -15.9474 C   0  0  0  0  0  0  0  0  0  0  0  0
   22.8633   -9.9403  -15.7372 C   0  0  2  0  0  0  0  0  0  0  0  0
   22.0298  -10.7919  -16.5198 N   0  0  0  0  0  0  0  0  0  0  0  0
   22.6066   -8.4962  -15.9669 C   0  0  0  0  0  0  0  0  0  0  0  0
   22.4075   -7.9921  -17.0993 O   0  0  0  0  0  0  0  0  0  0  0  0
   22.5776   -7.6032  -14.8601 N   0  0  0  0  0  0  0  0  0  0  0  0
   22.2288   -6.2218  -14.9428 C   0  0  1  0  0  0  0  0  0  0  0  0
   20.8595   -5.9929  -15.5395 C   0  0  0  0  0  0  0  0  0  0  0  0
   20.4688   -4.5564  -15.5798 C   0  0  0  0  0  0  0  0  0  0  0  0
   19.0564   -4.4565  -16.0183 C   0  0  0  0  0  0  0  0  0  0  0  0
   18.2472   -3.7334  -15.3878 O   0  0  0  0  0  0  0  0  0  0  0  0
   22.3500   -5.6214  -13.5941 C   0  0  0  0  0  0  0  0  0  0  0  0
   22.4446   -6.3020  -12.5400 O   0  0  0  0  0  0  0  0  0  0  0  0
   18.5739   -5.1500  -17.1318 O   0  0  0  0  0  0  0  0  0  0  0  0
   22.3631   -4.2443  -13.4488 O   0  0  0  0  0  0  0  0  0  0  0  0
  2  4  1  0
  2  1  1  6
  3  2  1  0
  4  5  1  1
  6  4  1  0
  6  7  2  0
  9  8  1  0
 10  9  1  0
 11 10  1  0
 12 11  1  6
 12 13  1  0
 13  6  1  0
 14 12  1  0
 14 16  1  0
 15 14  2  0
 17 16  1  0
 17 22  1  0
 17 18  1  1
 19 18  1  0
 20 19  1  0
 20 21  2  0
 22 23  2  0
 22 25  1  0
 24 20  1  0
M  END
$$$$
