VME.pdb
     RDKit          3D

 25 24  0  0  1  0  0  0  0  0999 V2000
   18.7192  -12.5642  -15.2288 C   0  0  0  0  0  0  0  0  0  0  0  0
   17.9499  -11.7241  -16.2076 C   0  0  2  0  0  0  0  0  0  0  0  0
   17.0993  -12.6028  -17.0754 C   0  0  0  0  0  0  0  0  0  0  0  0
   18.9302  -10.8873  -17.0062 C   0  0  2  0  0  0  0  0  0  0  0  0
   19.7399  -11.7439  -17.8210 N   0  0  0  0  0  0  0  0  0  0  0  0
   19.7172  -10.0722  -16.0442 C   0  0  0  0  0  0  0  0  0  0  0  0
   19.0915   -9.2619  -15.3238 O   0  0  0  0  0  0  0  0  0  0  0  0
   26.9675  -10.9072  -16.5971 C   0  0  0  0  0  0  0  0  0  0  0  0
   25.6717  -10.9426  -15.3265 S   0  0  0  0  0  0  0  0  0  0  0  0
   24.1927  -10.0318  -15.8514 C   0  0  0  0  0  0  0  0  0  0  0  0
   23.2282  -10.0074  -14.6934 C   0  0  0  0  0  0  0  0  0  0  0  0
   21.9208   -9.3427  -15.0454 C   0  0  2  0  0  0  0  0  0  0  0  0
   21.1263  -10.1621  -15.8998 N   0  0  0  0  0  0  0  0  0  0  0  0
   22.1718   -7.9884  -15.5991 C   0  0  0  0  0  0  0  0  0  0  0  0
   22.3256   -7.7495  -16.8219 O   0  0  0  0  0  0  0  0  0  0  0  0
   22.2485   -6.8731  -14.7195 N   0  0  0  0  0  0  0  0  0  0  0  0
   22.1825   -5.5089  -15.1335 C   0  0  1  0  0  0  0  0  0  0  0  0
   20.9360   -5.1918  -15.9267 C   0  0  0  0  0  0  0  0  0  0  0  0
   19.6909   -5.2479  -15.1117 C   0  0  0  0  0  0  0  0  0  0  0  0
   18.5404   -4.8752  -15.9689 C   0  0  0  0  0  0  0  0  0  0  0  0
   18.7118   -4.6317  -17.1880 O   0  0  0  0  0  0  0  0  0  0  0  0
   22.3098   -4.6445  -13.9374 C   0  0  0  0  0  0  0  0  0  0  0  0
   22.4774   -3.3989  -13.9988 O   0  0  0  0  0  0  0  0  0  0  0  0
   17.2398   -4.7807  -15.4659 O   0  0  0  0  0  0  0  0  0  0  0  0
   22.2460   -5.2020  -12.6713 O   0  0  0  0  0  0  0  0  0  0  0  0
  2  4  1  0
  2  1  1  1
  3  2  1  0
  4  5  1  1
  6  4  1  0
  6  7  2  0
  9  8  1  0
 10  9  1  0
 11 10  1  0
 12 11  1  6
 12 13  1  0
 13  6  1  0
 14 12  1  0
 14 16  1  0
 15 14  2  0
 17 16  1  0
 17 22  1  0
 17 18  1  1
 19 18  1  0
 20 19  1  0
 20 21  2  0
 22 23  2  0
 22 25  1  0
 24 20  1  0
M  END
$$$$
