VME.pdb
     RDKit          3D

 25 24  0  0  1  0  0  0  0  0999 V2000
   28.9921  -20.8432  -13.5314 C   0  0  0  0  0  0  0  0  0  0  0  0
   28.3344  -20.5276  -14.8441 C   0  0  2  0  0  0  0  0  0  0  0  0
   29.3028  -19.8167  -15.7416 C   0  0  0  0  0  0  0  0  0  0  0  0
   27.0812  -19.7167  -14.5777 C   0  0  2  0  0  0  0  0  0  0  0  0
   27.4430  -18.4297  -14.0620 N   0  0  0  0  0  0  0  0  0  0  0  0
   26.2226  -20.5022  -13.6531 C   0  0  0  0  0  0  0  0  0  0  0  0
   25.8043  -21.6122  -14.0532 O   0  0  0  0  0  0  0  0  0  0  0  0
   28.1470  -20.5640   -7.1560 C   0  0  0  0  0  0  0  0  0  0  0  0
   26.4828  -20.2843   -7.8244 S   0  0  0  0  0  0  0  0  0  0  0  0
   26.3746  -20.7557   -9.5734 C   0  0  0  0  0  0  0  0  0  0  0  0
   25.0241  -20.3260  -10.0864 C   0  0  0  0  0  0  0  0  0  0  0  0
   24.8329  -20.6478  -11.5476 C   0  0  2  0  0  0  0  0  0  0  0  0
   25.8549  -20.0659  -12.3535 N   0  0  0  0  0  0  0  0  0  0  0  0
   23.4624  -20.2709  -11.9761 C   0  0  0  0  0  0  0  0  0  0  0  0
   23.0775  -19.0857  -12.1279 O   0  0  0  0  0  0  0  0  0  0  0  0
   22.5039  -21.2886  -12.2386 N   0  0  0  0  0  0  0  0  0  0  0  0
   21.2027  -21.0564  -12.7770 C   0  0  1  0  0  0  0  0  0  0  0  0
   20.9439  -21.8278  -14.0503 C   0  0  0  0  0  0  0  0  0  0  0  0
   21.7030  -21.3038  -15.2194 C   0  0  0  0  0  0  0  0  0  0  0  0
   21.4109  -22.1522  -16.3993 C   0  0  0  0  0  0  0  0  0  0  0  0
   20.6596  -23.1516  -16.2902 O   0  0  0  0  0  0  0  0  0  0  0  0
   20.1971  -21.3617  -11.7331 C   0  0  0  0  0  0  0  0  0  0  0  0
   20.4794  -21.9273  -10.6451 O   0  0  0  0  0  0  0  0  0  0  0  0
   21.9492  -21.8810  -17.6603 O   0  0  0  0  0  0  0  0  0  0  0  0
   18.8694  -21.0215  -11.9314 O   0  0  0  0  0  0  0  0  0  0  0  0
  2  4  1  0
  2  1  1  1
  3  2  1  0
  4  5  1  1
  6  4  1  0
  6  7  2  0
  9  8  1  0
 10  9  1  0
 11 10  1  0
 12 11  1  1
 12 13  1  0
 13  6  1  0
 14 12  1  0
 14 16  1  0
 15 14  2  0
 17 16  1  0
 17 22  1  0
 17 18  1  6
 19 18  1  0
 20 19  1  0
 20 21  2  0
 22 23  2  0
 22 25  1  0
 24 20  1  0
M  END
$$$$
