VME.pdb
     RDKit          3D

 25 24  0  0  1  0  0  0  0  0999 V2000
   28.3635  -20.8512   -7.2264 C   0  0  0  0  0  0  0  0  0  0  0  0
   27.4589  -19.7043   -6.8772 C   0  0  2  0  0  0  0  0  0  0  0  0
   27.3275  -19.5939   -5.3876 C   0  0  0  0  0  0  0  0  0  0  0  0
   26.1247  -19.9096   -7.5680 C   0  0  2  0  0  0  0  0  0  0  0  0
   25.5500  -21.1512   -7.1423 N   0  0  0  0  0  0  0  0  0  0  0  0
   26.3594  -19.8403   -9.0340 C   0  0  0  0  0  0  0  0  0  0  0  0
   26.8522  -18.7850   -9.4927 O   0  0  0  0  0  0  0  0  0  0  0  0
   28.3654  -19.6029  -15.5570 C   0  0  0  0  0  0  0  0  0  0  0  0
   28.2982  -19.9092  -13.7692 S   0  0  0  0  0  0  0  0  0  0  0  0
   27.4529  -21.4688  -13.3872 C   0  0  0  0  0  0  0  0  0  0  0  0
   27.3284  -21.5735  -11.8888 C   0  0  0  0  0  0  0  0  0  0  0  0
   26.1384  -20.8162  -11.3545 C   0  0  2  0  0  0  0  0  0  0  0  0
   26.0576  -20.8961   -9.9333 N   0  0  0  0  0  0  0  0  0  0  0  0
   24.9002  -21.2666  -12.0385 C   0  0  0  0  0  0  0  0  0  0  0  0
   24.4636  -22.4427  -11.9931 O   0  0  0  0  0  0  0  0  0  0  0  0
   24.1394  -20.3356  -12.7987 N   0  0  0  0  0  0  0  0  0  0  0  0
   22.8812  -20.6234  -13.4077 C   0  0  1  0  0  0  0  0  0  0  0  0
   22.0712  -19.3829  -13.7051 C   0  0  0  0  0  0  0  0  0  0  0  0
   20.7702  -19.6755  -14.3680 C   0  0  0  0  0  0  0  0  0  0  0  0
   19.7385  -18.7617  -13.8222 C   0  0  0  0  0  0  0  0  0  0  0  0
   20.0145  -17.5586  -13.5952 O   0  0  0  0  0  0  0  0  0  0  0  0
   23.1188  -21.4320  -14.6258 C   0  0  0  0  0  0  0  0  0  0  0  0
   24.1168  -21.2756  -15.3760 O   0  0  0  0  0  0  0  0  0  0  0  0
   18.4386  -19.1922  -13.5423 O   0  0  0  0  0  0  0  0  0  0  0  0
   22.2172  -22.4189  -14.9875 O   0  0  0  0  0  0  0  0  0  0  0  0
  2  4  1  0
  2  1  1  1
  3  2  1  0
  4  5  1  6
  6  4  1  0
  6  7  2  0
  9  8  1  0
 10  9  1  0
 11 10  1  0
 12 11  1  6
 12 13  1  0
 13  6  1  0
 14 12  1  0
 14 16  1  0
 15 14  2  0
 17 16  1  0
 17 22  1  0
 17 18  1  6
 19 18  1  0
 20 19  1  0
 20 21  2  0
 22 23  2  0
 22 25  1  0
 24 20  1  0
M  END
$$$$
