VME.pdb
     RDKit          3D

 25 24  0  0  1  0  0  0  0  0999 V2000
   22.3691  -15.8755  -17.4385 C   0  0  0  0  0  0  0  0  0  0  0  0
   21.2189  -15.2613  -18.1838 C   0  0  2  0  0  0  0  0  0  0  0  0
   20.8290  -16.1406  -19.3341 C   0  0  0  0  0  0  0  0  0  0  0  0
   21.6143  -13.8650  -18.6234 C   0  0  2  0  0  0  0  0  0  0  0  0
   22.6021  -13.9494  -19.6580 N   0  0  0  0  0  0  0  0  0  0  0  0
   22.0819  -13.1278  -17.4205 C   0  0  0  0  0  0  0  0  0  0  0  0
   21.2869  -13.0241  -16.4591 O   0  0  0  0  0  0  0  0  0  0  0  0
   28.2095  -12.7636  -16.5950 C   0  0  0  0  0  0  0  0  0  0  0  0
   27.3563  -13.2005  -15.0535 S   0  0  0  0  0  0  0  0  0  0  0  0
   25.5542  -13.0773  -15.2263 C   0  0  0  0  0  0  0  0  0  0  0  0
   25.2451  -11.7946  -15.9548 C   0  0  0  0  0  0  0  0  0  0  0  0
   23.7771  -11.6490  -16.2693 C   0  0  2  0  0  0  0  0  0  0  0  0
   23.3689  -12.5407  -17.3042 N   0  0  0  0  0  0  0  0  0  0  0  0
   23.4577  -10.2286  -16.5594 C   0  0  0  0  0  0  0  0  0  0  0  0
   23.7012   -9.6659  -17.6550 O   0  0  0  0  0  0  0  0  0  0  0  0
   22.8388   -9.4293  -15.5587 N   0  0  0  0  0  0  0  0  0  0  0  0
   22.2716   -8.1400  -15.7879 C   0  0  1  0  0  0  0  0  0  0  0  0
   21.2270   -8.1396  -16.8798 C   0  0  0  0  0  0  0  0  0  0  0  0
   20.6689   -6.7874  -17.1587 C   0  0  0  0  0  0  0  0  0  0  0  0
   19.5573   -6.9192  -18.1304 C   0  0  0  0  0  0  0  0  0  0  0  0
   19.5406   -7.8713  -18.9480 O   0  0  0  0  0  0  0  0  0  0  0  0
   21.7315   -7.6260  -14.5079 C   0  0  0  0  0  0  0  0  0  0  0  0
   21.5966   -8.3374  -13.4788 O   0  0  0  0  0  0  0  0  0  0  0  0
   18.5000   -6.0063  -18.1773 O   0  0  0  0  0  0  0  0  0  0  0  0
   21.3454   -6.3002  -14.4028 O   0  0  0  0  0  0  0  0  0  0  0  0
  2  4  1  0
  2  1  1  6
  3  2  1  0
  4  5  1  6
  6  4  1  0
  6  7  2  0
  9  8  1  0
 10  9  1  0
 11 10  1  0
 12 11  1  6
 12 13  1  0
 13  6  1  0
 14 12  1  0
 14 16  1  0
 15 14  2  0
 17 16  1  0
 17 22  1  0
 17 18  1  6
 19 18  1  0
 20 19  1  0
 20 21  2  0
 22 23  2  0
 22 25  1  0
 24 20  1  0
M  END
$$$$
