VME.pdb
     RDKit          3D

 25 24  0  0  1  0  0  0  0  0999 V2000
   18.5356  -11.0635  -16.9213 C   0  0  0  0  0  0  0  0  0  0  0  0
   19.5277  -11.5817  -17.9227 C   0  0  2  0  0  0  0  0  0  0  0  0
   18.8731  -12.5979  -18.8100 C   0  0  0  0  0  0  0  0  0  0  0  0
   20.7241  -12.1407  -17.1775 C   0  0  2  0  0  0  0  0  0  0  0  0
   20.3271  -13.2985  -16.4323 N   0  0  0  0  0  0  0  0  0  0  0  0
   21.2759  -11.0533  -16.3278 C   0  0  0  0  0  0  0  0  0  0  0  0
   20.8366  -10.9508  -15.1601 O   0  0  0  0  0  0  0  0  0  0  0  0
   27.4306  -12.1660  -15.0199 C   0  0  0  0  0  0  0  0  0  0  0  0
   26.6991  -10.6747  -15.7518 S   0  0  0  0  0  0  0  0  0  0  0  0
   24.9087  -10.5967  -15.4669 C   0  0  0  0  0  0  0  0  0  0  0  0
   24.4099   -9.2821  -16.0096 C   0  0  0  0  0  0  0  0  0  0  0  0
   22.9078   -9.1628  -15.9423 C   0  0  2  0  0  0  0  0  0  0  0  0
   22.2646  -10.1335  -16.7649 N   0  0  0  0  0  0  0  0  0  0  0  0
   22.4943   -7.7698  -16.2464 C   0  0  0  0  0  0  0  0  0  0  0  0
   22.4140   -7.3013  -17.4083 O   0  0  0  0  0  0  0  0  0  0  0  0
   22.1625   -6.8872  -15.1813 N   0  0  0  0  0  0  0  0  0  0  0  0
   21.7074   -5.5456  -15.3531 C   0  0  1  0  0  0  0  0  0  0  0  0
   20.2222   -5.3911  -15.1207 C   0  0  0  0  0  0  0  0  0  0  0  0
   19.7451   -3.9895  -15.2807 C   0  0  0  0  0  0  0  0  0  0  0  0
   18.2628   -3.9854  -15.2808 C   0  0  0  0  0  0  0  0  0  0  0  0
   17.6266   -5.0574  -15.1352 O   0  0  0  0  0  0  0  0  0  0  0  0
   22.4990   -4.6601  -14.4679 C   0  0  0  0  0  0  0  0  0  0  0  0
   22.9335   -5.0169  -13.3421 O   0  0  0  0  0  0  0  0  0  0  0  0
   17.5236   -2.8099  -15.4399 O   0  0  0  0  0  0  0  0  0  0  0  0
   22.7944   -3.3676  -14.8677 O   0  0  0  0  0  0  0  0  0  0  0  0
  2  4  1  0
  2  1  1  1
  3  2  1  0
  4  5  1  1
  6  4  1  0
  6  7  2  0
  9  8  1  0
 10  9  1  0
 11 10  1  0
 12 11  1  6
 12 13  1  0
 13  6  1  0
 14 12  1  0
 14 16  1  0
 15 14  2  0
 17 16  1  0
 17 22  1  0
 17 18  1  1
 19 18  1  0
 20 19  1  0
 20 21  2  0
 22 23  2  0
 22 25  1  0
 24 20  1  0
M  END
$$$$
