VME.pdb
     RDKit          3D

 25 24  0  0  1  0  0  0  0  0999 V2000
   20.1496  -12.9977  -18.1128 C   0  0  0  0  0  0  0  0  0  0  0  0
   19.5714  -13.4792  -16.8130 C   0  0  2  0  0  0  0  0  0  0  0  0
   18.5242  -14.5200  -17.0753 C   0  0  0  0  0  0  0  0  0  0  0  0
   19.0309  -12.2859  -16.0495 C   0  0  2  0  0  0  0  0  0  0  0  0
   17.9722  -11.6765  -16.7985 N   0  0  0  0  0  0  0  0  0  0  0  0
   20.1684  -11.3675  -15.7819 C   0  0  0  0  0  0  0  0  0  0  0  0
   21.1375  -11.8196  -15.1312 O   0  0  0  0  0  0  0  0  0  0  0  0
   25.8477  -10.3177  -14.2966 C   0  0  0  0  0  0  0  0  0  0  0  0
   25.2721   -9.5543  -15.8396 S   0  0  0  0  0  0  0  0  0  0  0  0
   23.6864   -8.7012  -15.6149 C   0  0  0  0  0  0  0  0  0  0  0  0
   22.6028   -9.5791  -16.1866 C   0  0  0  0  0  0  0  0  0  0  0  0
   21.2194   -9.0709  -15.8657 C   0  0  2  0  0  0  0  0  0  0  0  0
   20.2146  -10.0182  -16.2201 N   0  0  0  0  0  0  0  0  0  0  0  0
   21.0117   -7.7371  -16.4835 C   0  0  0  0  0  0  0  0  0  0  0  0
   21.1286   -7.5089  -17.7125 O   0  0  0  0  0  0  0  0  0  0  0  0
   20.6584   -6.6303  -15.6628 N   0  0  0  0  0  0  0  0  0  0  0  0
   20.3771   -5.3184  -16.1492 C   0  0  1  0  0  0  0  0  0  0  0  0
   19.2492   -4.6417  -15.4055 C   0  0  0  0  0  0  0  0  0  0  0  0
   17.9248   -5.2820  -15.6377 C   0  0  0  0  0  0  0  0  0  0  0  0
   16.8923   -4.5345  -14.8810 C   0  0  0  0  0  0  0  0  0  0  0  0
   17.1286   -3.3746  -14.4640 O   0  0  0  0  0  0  0  0  0  0  0  0
   21.6239   -4.5198  -16.1053 C   0  0  0  0  0  0  0  0  0  0  0  0
   22.5343   -4.7048  -15.2566 O   0  0  0  0  0  0  0  0  0  0  0  0
   15.6350   -5.0788  -14.6046 O   0  0  0  0  0  0  0  0  0  0  0  0
   21.8313   -3.5100  -17.0300 O   0  0  0  0  0  0  0  0  0  0  0  0
  2  4  1  0
  2  1  1  6
  3  2  1  0
  4  5  1  6
  6  4  1  0
  6  7  2  0
  9  8  1  0
 10  9  1  0
 11 10  1  0
 12 11  1  6
 12 13  1  0
 13  6  1  0
 14 12  1  0
 14 16  1  0
 15 14  2  0
 17 16  1  0
 17 22  1  0
 17 18  1  1
 19 18  1  0
 20 19  1  0
 20 21  2  0
 22 23  2  0
 22 25  1  0
 24 20  1  0
M  END
$$$$
