FNL.pdb
     RDKit          3D

 28 28  0  0  1  0  0  0  0  0999 V2000
   26.2405  -18.1635   -8.9813 N   0  0  0  0  0  0  0  0  0  0  0  0
   26.1358  -19.6085   -9.2096 C   0  0  1  0  0  0  0  0  0  0  0  0
   25.7249  -20.1970   -7.8705 C   0  0  0  0  0  0  0  0  0  0  0  0
   26.6749  -19.8227   -6.7839 C   0  0  0  0  0  0  0  0  0  0  0  0
   27.0600  -20.7814   -5.8503 C   0  0  0  0  0  0  0  0  0  0  0  0
   27.9445  -20.4741   -4.8234 C   0  0  0  0  0  0  0  0  0  0  0  0
   28.4662  -19.2109   -4.6988 C   0  0  0  0  0  0  0  0  0  0  0  0
   28.0823  -18.2602   -5.6272 C   0  0  0  0  0  0  0  0  0  0  0  0
   27.2010  -18.5527   -6.6576 C   0  0  0  0  0  0  0  0  0  0  0  0
   25.1410  -19.8877  -10.2612 C   0  0  0  0  0  0  0  0  0  0  0  0
   24.0409  -19.3249  -10.1917 O   0  0  0  0  0  0  0  0  0  0  0  0
   25.6638  -19.0039  -14.7128 N   0  0  0  0  0  0  0  0  0  0  0  0
   26.0683  -18.2228  -13.6072 C   0  0  0  0  0  0  0  0  0  0  0  0
   26.1132  -16.9605  -13.6886 O   0  0  0  0  0  0  0  0  0  0  0  0
   26.4434  -18.8680  -12.3428 C   0  0  0  0  0  0  0  0  0  0  0  0
   26.2639  -20.4040  -12.4339 C   0  0  2  0  0  0  0  0  0  0  0  0
   25.4087  -20.7629  -11.3243 N   0  0  0  0  0  0  0  0  0  0  0  0
   27.6076  -21.0238  -12.3637 C   0  0  0  0  0  0  0  0  0  0  0  0
   28.1976  -21.1167  -13.5054 O   0  0  0  0  0  0  0  0  0  0  0  0
   32.2224  -21.8397   -9.8889 C   0  0  0  0  0  0  0  0  0  0  0  0
   31.0031  -21.7985  -10.7688 C   0  0  1  0  0  0  0  0  0  0  0  0
   31.3770  -21.8228  -12.2397 C   0  0  0  0  0  0  0  0  0  0  0  0
   29.9838  -22.7697  -10.3919 C   0  0  0  0  0  0  0  0  0  0  0  0
   28.6866  -22.8738  -11.0685 C   0  0  2  0  0  0  0  0  0  0  0  0
   28.2073  -21.4756  -11.1865 N   0  0  0  0  0  0  0  0  0  0  0  0
   27.6020  -23.6464  -10.5113 C   0  0  0  0  0  0  0  0  0  0  0  0
   27.5115  -25.0184  -10.8405 O   0  0  0  0  0  0  0  0  0  0  0  0
   26.6833  -23.2643   -9.7398 O   0  0  0  0  0  0  0  0  0  0  0  0
  2  1  1  1
  2  3  1  0
  3  4  1  0
  4  5  2  0
  5  6  1  0
  7  6  2  0
  8  7  1  0
  9  4  1  0
  9  8  2  0
 10 11  2  0
 10  2  1  0
 13 12  1  0
 14 13  2  0
 15 13  1  0
 16 15  1  1
 16 17  1  0
 17 10  1  0
 18 16  1  0
 18 25  1  0
 19 18  2  0
 21 20  1  1
 21 22  1  0
 23 21  1  0
 24 25  1  0
 24 23  1  1
 26 24  1  0
 27 26  1  0
 28 26  2  0
M  END
$$$$
