FNL.pdb
     RDKit          3D

 28 28  0  0  1  0  0  0  0  0999 V2000
   22.7038  -18.1310  -17.0953 N   0  0  0  0  0  0  0  0  0  0  0  0
   23.8463  -18.9361  -16.6509 C   0  0  1  0  0  0  0  0  0  0  0  0
   24.5332  -18.1020  -15.5830 C   0  0  0  0  0  0  0  0  0  0  0  0
   25.7365  -17.4001  -16.1145 C   0  0  0  0  0  0  0  0  0  0  0  0
   26.8685  -18.1389  -16.4493 C   0  0  0  0  0  0  0  0  0  0  0  0
   28.0097  -17.5235  -16.9495 C   0  0  0  0  0  0  0  0  0  0  0  0
   28.0548  -16.1637  -17.1284 C   0  0  0  0  0  0  0  0  0  0  0  0
   26.9293  -15.4318  -16.7952 C   0  0  0  0  0  0  0  0  0  0  0  0
   25.7831  -16.0324  -16.2957 C   0  0  0  0  0  0  0  0  0  0  0  0
   23.3820  -20.2317  -16.1223 C   0  0  0  0  0  0  0  0  0  0  0  0
   22.2069  -20.3237  -15.7449 O   0  0  0  0  0  0  0  0  0  0  0  0
   23.1556  -25.3046  -15.0977 N   0  0  0  0  0  0  0  0  0  0  0  0
   24.5139  -24.9191  -15.1461 C   0  0  0  0  0  0  0  0  0  0  0  0
   25.4207  -25.6880  -14.7117 O   0  0  0  0  0  0  0  0  0  0  0  0
   24.8938  -23.6151  -15.7037 C   0  0  0  0  0  0  0  0  0  0  0  0
   23.9096  -22.5112  -15.2427 C   0  0  2  0  0  0  0  0  0  0  0  0
   24.2285  -21.3472  -16.0394 N   0  0  0  0  0  0  0  0  0  0  0  0
   24.1102  -22.3012  -13.7900 C   0  0  0  0  0  0  0  0  0  0  0  0
   23.7058  -23.2842  -13.0618 O   0  0  0  0  0  0  0  0  0  0  0  0
   28.1652  -19.0429  -12.1390 C   0  0  0  0  0  0  0  0  0  0  0  0
   27.2192  -20.1844  -12.3933 C   0  0  1  0  0  0  0  0  0  0  0  0
   27.9296  -21.5236  -12.3174 C   0  0  0  0  0  0  0  0  0  0  0  0
   25.9949  -20.1084  -11.6061 C   0  0  0  0  0  0  0  0  0  0  0  0
   24.8804  -21.0486  -11.7646 C   0  0  2  0  0  0  0  0  0  0  0  0
   24.6809  -21.1565  -13.2300 N   0  0  0  0  0  0  0  0  0  0  0  0
   23.5855  -20.7931  -11.1799 C   0  0  0  0  0  0  0  0  0  0  0  0
   23.3956  -21.0792   -9.8084 O   0  0  0  0  0  0  0  0  0  0  0  0
   22.5532  -20.3314  -11.7333 O   0  0  0  0  0  0  0  0  0  0  0  0
  2  1  1  1
  2  3  1  0
  3  4  1  0
  4  5  2  0
  5  6  1  0
  7  6  2  0
  8  7  1  0
  9  4  1  0
  9  8  2  0
 10 11  2  0
 10  2  1  0
 13 12  1  0
 14 13  2  0
 15 13  1  0
 16 15  1  6
 16 17  1  0
 17 10  1  0
 18 16  1  0
 18 25  1  0
 19 18  2  0
 21 20  1  1
 21 22  1  0
 23 21  1  0
 24 25  1  0
 24 23  1  6
 26 24  1  0
 27 26  1  0
 28 26  2  0
M  END
$$$$
