FNL.pdb
     RDKit          3D

 28 28  0  0  1  0  0  0  0  0999 V2000
   25.9875  -19.2024  -15.8164 N   0  0  0  0  0  0  0  0  0  0  0  0
   26.7232  -18.8015  -14.6127 C   0  0  1  0  0  0  0  0  0  0  0  0
   27.0975  -17.3463  -14.8377 C   0  0  0  0  0  0  0  0  0  0  0  0
   27.9258  -17.1687  -16.0646 C   0  0  0  0  0  0  0  0  0  0  0  0
   29.1110  -17.8870  -16.2010 C   0  0  0  0  0  0  0  0  0  0  0  0
   29.9109  -17.7518  -17.3294 C   0  0  0  0  0  0  0  0  0  0  0  0
   29.5546  -16.9024  -18.3466 C   0  0  0  0  0  0  0  0  0  0  0  0
   28.3769  -16.1900  -18.2091 C   0  0  0  0  0  0  0  0  0  0  0  0
   27.5684  -16.3152  -17.0890 C   0  0  0  0  0  0  0  0  0  0  0  0
   25.8774  -18.9730  -13.4175 C   0  0  0  0  0  0  0  0  0  0  0  0
   25.2187  -18.0030  -13.0214 O   0  0  0  0  0  0  0  0  0  0  0  0
   21.7550  -20.4501  -12.4788 N   0  0  0  0  0  0  0  0  0  0  0  0
   22.9416  -21.0427  -12.9655 C   0  0  0  0  0  0  0  0  0  0  0  0
   23.1460  -21.1540  -14.2097 O   0  0  0  0  0  0  0  0  0  0  0  0
   23.9585  -21.5394  -12.0302 C   0  0  0  0  0  0  0  0  0  0  0  0
   24.9176  -20.4001  -11.6036 C   0  0  2  0  0  0  0  0  0  0  0  0
   25.8016  -20.1930  -12.7291 N   0  0  0  0  0  0  0  0  0  0  0  0
   25.6227  -20.8355  -10.3756 C   0  0  0  0  0  0  0  0  0  0  0  0
   26.4694  -21.7867  -10.5717 O   0  0  0  0  0  0  0  0  0  0  0  0
   28.4086  -18.5881   -5.9385 C   0  0  0  0  0  0  0  0  0  0  0  0
   28.0521  -19.7228   -6.8594 C   0  0  1  0  0  0  0  0  0  0  0  0
   28.6433  -21.0359   -6.3796 C   0  0  0  0  0  0  0  0  0  0  0  0
   26.6315  -19.7848   -7.1791 C   0  0  0  0  0  0  0  0  0  0  0  0
   26.0215  -20.9035   -7.9056 C   0  0  2  0  0  0  0  0  0  0  0  0
   25.4125  -20.2870   -9.1089 N   0  0  0  0  0  0  0  0  0  0  0  0
   25.0103  -21.7374   -7.3007 C   0  0  0  0  0  0  0  0  0  0  0  0
   25.4183  -22.7466   -6.3985 O   0  0  0  0  0  0  0  0  0  0  0  0
   23.7623  -21.6981   -7.4628 O   0  0  0  0  0  0  0  0  0  0  0  0
  2  1  1  6
  2  3  1  0
  3  4  1  0
  4  5  2  0
  5  6  1  0
  7  6  2  0
  8  7  1  0
  9  4  1  0
  9  8  2  0
 10 11  2  0
 10  2  1  0
 13 12  1  0
 14 13  2  0
 15 13  1  0
 16 15  1  6
 16 17  1  0
 17 10  1  0
 18 16  1  0
 18 25  1  0
 19 18  2  0
 21 20  1  1
 21 22  1  0
 23 21  1  0
 24 25  1  0
 24 23  1  1
 26 24  1  0
 27 26  1  0
 28 26  2  0
M  END
$$$$
