FNL.pdb
     RDKit          3D

 28 28  0  0  1  0  0  0  0  0999 V2000
   29.5304  -25.7746  -16.9679 N   0  0  0  0  0  0  0  0  0  0  0  0
   28.0800  -25.5798  -17.0645 C   0  0  1  0  0  0  0  0  0  0  0  0
   27.4718  -26.6464  -16.1697 C   0  0  0  0  0  0  0  0  0  0  0  0
   27.4024  -27.9706  -16.8516 C   0  0  0  0  0  0  0  0  0  0  0  0
   28.3461  -28.9483  -16.5470 C   0  0  0  0  0  0  0  0  0  0  0  0
   28.3157  -30.1958  -17.1586 C   0  0  0  0  0  0  0  0  0  0  0  0
   27.3505  -30.5019  -18.0849 C   0  0  0  0  0  0  0  0  0  0  0  0
   26.4142  -29.5293  -18.3858 C   0  0  0  0  0  0  0  0  0  0  0  0
   26.4318  -28.2801  -17.7830 C   0  0  0  0  0  0  0  0  0  0  0  0
   27.7177  -24.2205  -16.6237 C   0  0  0  0  0  0  0  0  0  0  0  0
   28.4519  -23.6551  -15.8033 O   0  0  0  0  0  0  0  0  0  0  0  0
   25.7178  -19.2296  -17.4780 N   0  0  0  0  0  0  0  0  0  0  0  0
   24.8265  -20.3254  -17.5030 C   0  0  0  0  0  0  0  0  0  0  0  0
   23.5980  -20.1664  -17.2428 O   0  0  0  0  0  0  0  0  0  0  0  0
   25.3155  -21.6699  -17.8332 C   0  0  0  0  0  0  0  0  0  0  0  0
   26.2233  -22.2183  -16.7041 C   0  0  2  0  0  0  0  0  0  0  0  0
   26.5772  -23.5615  -17.1064 N   0  0  0  0  0  0  0  0  0  0  0  0
   25.4553  -22.1678  -15.4383 C   0  0  0  0  0  0  0  0  0  0  0  0
   24.4753  -23.0029  -15.3912 O   0  0  0  0  0  0  0  0  0  0  0  0
   25.1513  -21.9037  -10.0421 C   0  0  0  0  0  0  0  0  0  0  0  0
   25.3803  -20.5808  -10.7206 C   0  0  1  0  0  0  0  0  0  0  0  0
   26.2809  -19.6803   -9.8950 C   0  0  0  0  0  0  0  0  0  0  0  0
   25.7751  -20.7073  -12.1179 C   0  0  0  0  0  0  0  0  0  0  0  0
   24.9293  -21.3397  -13.1357 C   0  0  2  0  0  0  0  0  0  0  0  0
   25.7407  -21.3073  -14.3764 N   0  0  0  0  0  0  0  0  0  0  0  0
   23.6263  -20.8156  -13.4695 C   0  0  0  0  0  0  0  0  0  0  0  0
   22.4855  -21.4354  -12.9096 O   0  0  0  0  0  0  0  0  0  0  0  0
   23.3406  -19.8441  -14.2177 O   0  0  0  0  0  0  0  0  0  0  0  0
  2  1  1  1
  2  3  1  0
  3  4  1  0
  4  5  2  0
  5  6  1  0
  7  6  2  0
  8  7  1  0
  9  4  1  0
  9  8  2  0
 10 11  2  0
 10  2  1  0
 13 12  1  0
 14 13  2  0
 15 13  1  0
 16 15  1  6
 16 17  1  0
 17 10  1  0
 18 16  1  0
 18 25  1  0
 19 18  2  0
 21 20  1  1
 21 22  1  0
 23 21  1  0
 24 25  1  0
 24 23  1  1
 26 24  1  0
 27 26  1  0
 28 26  2  0
M  END
$$$$
