FNL.pdb
     RDKit          3D

 28 28  0  0  1  0  0  0  0  0999 V2000
   28.3673  -21.1402   -9.2749 N   0  0  0  0  0  0  0  0  0  0  0  0
   26.9975  -20.6529   -9.0824 C   0  0  1  0  0  0  0  0  0  0  0  0
   27.1381  -19.3644   -8.2898 C   0  0  0  0  0  0  0  0  0  0  0  0
   27.7090  -19.6055   -6.9337 C   0  0  0  0  0  0  0  0  0  0  0  0
   26.9704  -20.3243   -5.9972 C   0  0  0  0  0  0  0  0  0  0  0  0
   27.4669  -20.5724   -4.7232 C   0  0  0  0  0  0  0  0  0  0  0  0
   28.7050  -20.1139   -4.3490 C   0  0  0  0  0  0  0  0  0  0  0  0
   29.4370  -19.4002   -5.2807 C   0  0  0  0  0  0  0  0  0  0  0  0
   28.9546  -19.1455   -6.5561 C   0  0  0  0  0  0  0  0  0  0  0  0
   26.3484  -20.4278  -10.3868 C   0  0  0  0  0  0  0  0  0  0  0  0
   26.9545  -19.7621  -11.2360 O   0  0  0  0  0  0  0  0  0  0  0  0
   26.4673  -21.0572  -14.4414 N   0  0  0  0  0  0  0  0  0  0  0  0
   26.2266  -21.8942  -13.3289 C   0  0  0  0  0  0  0  0  0  0  0  0
   27.1745  -22.5272  -12.7784 O   0  0  0  0  0  0  0  0  0  0  0  0
   24.8674  -22.0415  -12.7938 C   0  0  0  0  0  0  0  0  0  0  0  0
   24.4570  -20.7884  -11.9807 C   0  0  2  0  0  0  0  0  0  0  0  0
   25.0785  -20.9443  -10.6843 N   0  0  0  0  0  0  0  0  0  0  0  0
   22.9772  -20.7495  -11.9214 C   0  0  0  0  0  0  0  0  0  0  0  0
   22.4791  -21.4063  -10.9312 O   0  0  0  0  0  0  0  0  0  0  0  0
   19.8879  -16.5188  -13.9391 C   0  0  0  0  0  0  0  0  0  0  0  0
   20.3721  -17.5574  -12.9645 C   0  0  1  0  0  0  0  0  0  0  0  0
   19.7999  -17.3287  -11.5774 C   0  0  0  0  0  0  0  0  0  0  0  0
   20.2308  -18.9225  -13.4552 C   0  0  0  0  0  0  0  0  0  0  0  0
   20.6919  -20.0956  -12.7052 C   0  0  2  0  0  0  0  0  0  0  0  0
   22.1687  -20.0736  -12.8374 N   0  0  0  0  0  0  0  0  0  0  0  0
   20.2574  -21.4297  -13.0443 C   0  0  0  0  0  0  0  0  0  0  0  0
   19.0505  -21.9094  -12.4854 O   0  0  0  0  0  0  0  0  0  0  0  0
   20.8171  -22.2681  -13.7987 O   0  0  0  0  0  0  0  0  0  0  0  0
  2  1  1  6
  2  3  1  0
  3  4  1  0
  4  5  2  0
  5  6  1  0
  7  6  2  0
  8  7  1  0
  9  4  1  0
  9  8  2  0
 10 11  2  0
 10  2  1  0
 13 12  1  0
 14 13  2  0
 15 13  1  0
 16 15  1  6
 16 17  1  0
 17 10  1  0
 18 16  1  0
 18 25  1  0
 19 18  2  0
 21 20  1  6
 21 22  1  0
 23 21  1  0
 24 25  1  0
 24 23  1  6
 26 24  1  0
 27 26  1  0
 28 26  2  0
M  END
$$$$
