FNL.pdb
     RDKit          3D

 28 28  0  0  1  0  0  0  0  0999 V2000
   27.4737  -20.0494  -15.4669 N   0  0  0  0  0  0  0  0  0  0  0  0
   27.9560  -20.5670  -14.1822 C   0  0  1  0  0  0  0  0  0  0  0  0
   29.3825  -20.0597  -14.0558 C   0  0  0  0  0  0  0  0  0  0  0  0
   30.0420  -20.5588  -12.8152 C   0  0  0  0  0  0  0  0  0  0  0  0
   30.1427  -19.7202  -11.7080 C   0  0  0  0  0  0  0  0  0  0  0  0
   30.7482  -20.1471  -10.5322 C   0  0  0  0  0  0  0  0  0  0  0  0
   31.2671  -21.4132  -10.4277 C   0  0  0  0  0  0  0  0  0  0  0  0
   31.1660  -22.2445  -11.5286 C   0  0  0  0  0  0  0  0  0  0  0  0
   30.5639  -21.8322  -12.7083 C   0  0  0  0  0  0  0  0  0  0  0  0
   27.1007  -20.0820  -13.0837 C   0  0  0  0  0  0  0  0  0  0  0  0
   27.0113  -18.8605  -12.9060 O   0  0  0  0  0  0  0  0  0  0  0  0
   23.1784  -21.2395  -13.5404 N   0  0  0  0  0  0  0  0  0  0  0  0
   23.4921  -20.5019  -12.3769 C   0  0  0  0  0  0  0  0  0  0  0  0
   23.1494  -19.2883  -12.2682 O   0  0  0  0  0  0  0  0  0  0  0  0
   24.2230  -21.1365  -11.2730 C   0  0  0  0  0  0  0  0  0  0  0  0
   25.6284  -20.5059  -11.1087 C   0  0  2  0  0  0  0  0  0  0  0  0
   26.3948  -20.9600  -12.2478 N   0  0  0  0  0  0  0  0  0  0  0  0
   26.1810  -20.9590   -9.8110 C   0  0  0  0  0  0  0  0  0  0  0  0
   26.3103  -22.2376   -9.7189 O   0  0  0  0  0  0  0  0  0  0  0  0
   28.9737  -20.9995   -5.1235 C   0  0  0  0  0  0  0  0  0  0  0  0
   28.1604  -19.7665   -5.4079 C   0  0  1  0  0  0  0  0  0  0  0  0
   28.8437  -18.5161   -4.8849 C   0  0  0  0  0  0  0  0  0  0  0  0
   27.7148  -19.6732   -6.7924 C   0  0  0  0  0  0  0  0  0  0  0  0
   26.7991  -20.6404   -7.4066 C   0  0  2  0  0  0  0  0  0  0  0  0
   26.5384  -20.1059   -8.7650 N   0  0  0  0  0  0  0  0  0  0  0  0
   25.5163  -20.9466   -6.8199 C   0  0  0  0  0  0  0  0  0  0  0  0
   25.4097  -22.0818   -5.9838 O   0  0  0  0  0  0  0  0  0  0  0  0
   24.4286  -20.3250   -6.9459 O   0  0  0  0  0  0  0  0  0  0  0  0
  2  1  1  6
  2  3  1  0
  3  4  1  0
  4  5  2  0
  5  6  1  0
  7  6  2  0
  8  7  1  0
  9  4  1  0
  9  8  2  0
 10 11  2  0
 10  2  1  0
 13 12  1  0
 14 13  2  0
 15 13  1  0
 16 15  1  6
 16 17  1  0
 17 10  1  0
 18 16  1  0
 18 25  1  0
 19 18  2  0
 21 20  1  6
 21 22  1  0
 23 21  1  0
 24 25  1  0
 24 23  1  1
 26 24  1  0
 27 26  1  0
 28 26  2  0
M  END
$$$$
