FNL.pdb
     RDKit          3D

 28 28  0  0  1  0  0  0  0  0999 V2000
   28.2581  -20.2580  -15.4880 N   0  0  0  0  0  0  0  0  0  0  0  0
   27.3560  -19.7824  -14.4340 C   0  0  1  0  0  0  0  0  0  0  0  0
   26.3721  -18.8606  -15.1342 C   0  0  0  0  0  0  0  0  0  0  0  0
   27.0142  -17.5851  -15.5632 C   0  0  0  0  0  0  0  0  0  0  0  0
   27.1162  -16.5313  -14.6586 C   0  0  0  0  0  0  0  0  0  0  0  0
   27.7090  -15.3268  -15.0178 C   0  0  0  0  0  0  0  0  0  0  0  0
   28.2131  -15.1398  -16.2805 C   0  0  0  0  0  0  0  0  0  0  0  0
   28.1106  -16.1878  -17.1774 C   0  0  0  0  0  0  0  0  0  0  0  0
   27.5222  -17.3957  -16.8327 C   0  0  0  0  0  0  0  0  0  0  0  0
   26.6784  -20.9225  -13.7902 C   0  0  0  0  0  0  0  0  0  0  0  0
   26.4456  -21.9279  -14.4734 O   0  0  0  0  0  0  0  0  0  0  0  0
   26.1884  -19.2969  -10.8868 N   0  0  0  0  0  0  0  0  0  0  0  0
   25.8578  -20.3017   -9.9502 C   0  0  0  0  0  0  0  0  0  0  0  0
   26.0751  -20.1316   -8.7149 O   0  0  0  0  0  0  0  0  0  0  0  0
   25.2546  -21.5626  -10.3994 C   0  0  0  0  0  0  0  0  0  0  0  0
   25.1343  -21.5962  -11.9435 C   0  0  2  0  0  0  0  0  0  0  0  0
   26.2977  -20.8955  -12.4403 N   0  0  0  0  0  0  0  0  0  0  0  0
   23.8553  -20.9471  -12.3141 C   0  0  0  0  0  0  0  0  0  0  0  0
   23.8789  -19.6621  -12.2230 O   0  0  0  0  0  0  0  0  0  0  0  0
   22.6634  -18.9817  -15.3036 C   0  0  0  0  0  0  0  0  0  0  0  0
   21.7613  -20.1038  -15.7394 C   0  0  1  0  0  0  0  0  0  0  0  0
   22.1123  -20.5908  -17.1334 C   0  0  0  0  0  0  0  0  0  0  0  0
   21.6344  -21.1636  -14.7469 C   0  0  0  0  0  0  0  0  0  0  0  0
   21.5573  -20.9063  -13.3050 C   0  0  2  0  0  0  0  0  0  0  0  0
   22.7126  -21.6347  -12.7276 N   0  0  0  0  0  0  0  0  0  0  0  0
   20.3959  -21.2755  -12.5312 C   0  0  0  0  0  0  0  0  0  0  0  0
   19.3485  -20.3356  -12.3951 O   0  0  0  0  0  0  0  0  0  0  0  0
   20.1649  -22.3591  -11.9331 O   0  0  0  0  0  0  0  0  0  0  0  0
  2  1  1  6
  2  3  1  0
  3  4  1  0
  4  5  2  0
  5  6  1  0
  7  6  2  0
  8  7  1  0
  9  4  1  0
  9  8  2  0
 10 11  2  0
 10  2  1  0
 13 12  1  0
 14 13  2  0
 15 13  1  0
 16 15  1  1
 16 17  1  0
 17 10  1  0
 18 16  1  0
 18 25  1  0
 19 18  2  0
 21 20  1  1
 21 22  1  0
 23 21  1  0
 24 25  1  0
 24 23  1  6
 26 24  1  0
 27 26  1  0
 28 26  2  0
M  END
$$$$
