FNL.pdb
     RDKit          3D

 28 28  0  0  1  0  0  0  0  0999 V2000
   27.4389  -24.7162  -16.4753 N   0  0  0  0  0  0  0  0  0  0  0  0
   26.5735  -23.5978  -16.8641 C   0  0  1  0  0  0  0  0  0  0  0  0
   25.9933  -23.9898  -18.2124 C   0  0  0  0  0  0  0  0  0  0  0  0
   26.9144  -23.6489  -19.3342 C   0  0  0  0  0  0  0  0  0  0  0  0
   27.7303  -24.6390  -19.8758 C   0  0  0  0  0  0  0  0  0  0  0  0
   28.6013  -24.3633  -20.9230 C   0  0  0  0  0  0  0  0  0  0  0  0
   28.6834  -23.1014  -21.4561 C   0  0  0  0  0  0  0  0  0  0  0  0
   27.8721  -22.1195  -20.9166 C   0  0  0  0  0  0  0  0  0  0  0  0
   26.9977  -22.3802  -19.8719 C   0  0  0  0  0  0  0  0  0  0  0  0
   25.5215  -23.3914  -15.8521 C   0  0  0  0  0  0  0  0  0  0  0  0
   25.4270  -24.2108  -14.9294 O   0  0  0  0  0  0  0  0  0  0  0  0
   21.6902  -21.1918  -13.1682 N   0  0  0  0  0  0  0  0  0  0  0  0
   22.4904  -20.1891  -13.7602 C   0  0  0  0  0  0  0  0  0  0  0  0
   22.3583  -18.9752  -13.4270 O   0  0  0  0  0  0  0  0  0  0  0  0
   23.4909  -20.5436  -14.7745 C   0  0  0  0  0  0  0  0  0  0  0  0
   23.6082  -22.0816  -14.9185 C   0  0  2  0  0  0  0  0  0  0  0  0
   24.6384  -22.3029  -15.9088 N   0  0  0  0  0  0  0  0  0  0  0  0
   22.2821  -22.6026  -15.3244 C   0  0  0  0  0  0  0  0  0  0  0  0
   21.8217  -22.0689  -16.4030 O   0  0  0  0  0  0  0  0  0  0  0  0
   21.1017  -27.7508  -14.9240 C   0  0  0  0  0  0  0  0  0  0  0  0
   20.4513  -26.4901  -14.4235 C   0  0  1  0  0  0  0  0  0  0  0  0
   21.0309  -26.0566  -13.0894 C   0  0  0  0  0  0  0  0  0  0  0  0
   20.3912  -25.4326  -15.4246 C   0  0  0  0  0  0  0  0  0  0  0  0
   20.2298  -24.0150  -15.0844 C   0  0  2  0  0  0  0  0  0  0  0  0
   21.5711  -23.5801  -14.6255 N   0  0  0  0  0  0  0  0  0  0  0  0
   19.2807  -23.5790  -14.0879 C   0  0  0  0  0  0  0  0  0  0  0  0
   17.9013  -23.7384  -14.3538 O   0  0  0  0  0  0  0  0  0  0  0  0
   19.5078  -23.0552  -12.9657 O   0  0  0  0  0  0  0  0  0  0  0  0
  2  1  1  1
  2  3  1  0
  3  4  1  0
  4  5  2  0
  5  6  1  0
  7  6  2  0
  8  7  1  0
  9  4  1  0
  9  8  2  0
 10 11  2  0
 10  2  1  0
 13 12  1  0
 14 13  2  0
 15 13  1  0
 16 15  1  6
 16 17  1  0
 17 10  1  0
 18 16  1  0
 18 25  1  0
 19 18  2  0
 21 20  1  6
 21 22  1  0
 23 21  1  0
 24 25  1  0
 24 23  1  1
 26 24  1  0
 27 26  1  0
 28 26  2  0
M  END
$$$$
