FNL.pdb
     RDKit          3D

 28 28  0  0  1  0  0  0  0  0999 V2000
   23.9133  -20.7330  -18.2018 N   0  0  0  0  0  0  0  0  0  0  0  0
   22.8213  -19.7678  -18.0378 C   0  0  1  0  0  0  0  0  0  0  0  0
   22.0351  -19.8276  -19.3364 C   0  0  0  0  0  0  0  0  0  0  0  0
   22.8140  -19.2793  -20.4835 C   0  0  0  0  0  0  0  0  0  0  0  0
   23.3055  -20.1473  -21.4552 C   0  0  0  0  0  0  0  0  0  0  0  0
   24.0345  -19.6768  -22.5407 C   0  0  0  0  0  0  0  0  0  0  0  0
   24.2927  -18.3370  -22.6873 C   0  0  0  0  0  0  0  0  0  0  0  0
   23.8035  -17.4766  -21.7210 C   0  0  0  0  0  0  0  0  0  0  0  0
   23.0740  -17.9318  -20.6326 C   0  0  0  0  0  0  0  0  0  0  0  0
   21.9906  -20.1305  -16.8751 C   0  0  0  0  0  0  0  0  0  0  0  0
   21.9479  -21.3192  -16.5332 O   0  0  0  0  0  0  0  0  0  0  0  0
   19.4122  -19.8961  -12.4947 N   0  0  0  0  0  0  0  0  0  0  0  0
   19.8699  -18.5901  -12.7794 C   0  0  0  0  0  0  0  0  0  0  0  0
   19.7123  -17.6526  -11.9436 O   0  0  0  0  0  0  0  0  0  0  0  0
   20.5380  -18.3015  -14.0545 C   0  0  0  0  0  0  0  0  0  0  0  0
   20.4398  -19.5135  -15.0143 C   0  0  2  0  0  0  0  0  0  0  0  0
   21.2588  -19.1733  -16.1566 N   0  0  0  0  0  0  0  0  0  0  0  0
   19.0112  -19.7098  -15.3539 C   0  0  0  0  0  0  0  0  0  0  0  0
   18.5055  -18.7503  -16.0493 O   0  0  0  0  0  0  0  0  0  0  0  0
   15.2716  -22.7366  -17.5268 C   0  0  0  0  0  0  0  0  0  0  0  0
   15.3937  -22.9711  -16.0459 C   0  0  1  0  0  0  0  0  0  0  0  0
   15.1662  -24.4296  -15.6927 C   0  0  0  0  0  0  0  0  0  0  0  0
   16.5994  -22.3934  -15.4655 C   0  0  0  0  0  0  0  0  0  0  0  0
   16.8364  -20.9482  -15.3836 C   0  0  2  0  0  0  0  0  0  0  0  0
   18.2550  -20.8195  -14.9714 N   0  0  0  0  0  0  0  0  0  0  0  0
   16.0631  -20.1029  -14.5054 C   0  0  0  0  0  0  0  0  0  0  0  0
   14.8969  -19.4871  -15.0151 O   0  0  0  0  0  0  0  0  0  0  0  0
   16.2810  -19.8198  -13.2981 O   0  0  0  0  0  0  0  0  0  0  0  0
  2  1  1  6
  2  3  1  0
  3  4  1  0
  4  5  2  0
  5  6  1  0
  7  6  2  0
  8  7  1  0
  9  4  1  0
  9  8  2  0
 10 11  2  0
 10  2  1  0
 13 12  1  0
 14 13  2  0
 15 13  1  0
 16 15  1  1
 16 17  1  0
 17 10  1  0
 18 16  1  0
 18 25  1  0
 19 18  2  0
 21 20  1  6
 21 22  1  0
 23 21  1  0
 24 25  1  0
 24 23  1  1
 26 24  1  0
 27 26  1  0
 28 26  2  0
M  END
$$$$
