NLV.pdb
     RDKit          3D

 24 23  0  0  1  0  0  0  0  0999 V2000
   28.3289  -17.7408  -17.3476 N   0  0  0  0  0  0  0  0  0  0  0  0
   26.9997  -17.2736  -17.1924 C   0  0  0  0  0  0  0  0  0  0  0  0
   26.7138  -16.1533  -17.6709 O   0  0  0  0  0  0  0  0  0  0  0  0
   26.0067  -18.0936  -16.4901 C   0  0  0  0  0  0  0  0  0  0  0  0
   26.6408  -19.3301  -15.8718 C   0  0  2  0  0  0  0  0  0  0  0  0
   27.0776  -20.2197  -16.9112 N   0  0  0  0  0  0  0  0  0  0  0  0
   25.6102  -19.9536  -14.9965 C   0  0  0  0  0  0  0  0  0  0  0  0
   24.8346  -20.7856  -15.5803 O   0  0  0  0  0  0  0  0  0  0  0  0
   25.8365  -20.8466   -9.2824 C   0  0  0  0  0  0  0  0  0  0  0  0
   25.5524  -21.2972  -10.7321 C   0  0  2  0  0  0  0  0  0  0  0  0
   26.9228  -21.4268  -11.3481 C   0  0  0  0  0  0  0  0  0  0  0  0
   24.7325  -20.2526  -11.3717 C   0  0  0  0  0  0  0  0  0  0  0  0
   24.5124  -20.3166  -12.8313 C   0  0  2  0  0  0  0  0  0  0  0  0
   25.4947  -19.6508  -13.6225 N   0  0  0  0  0  0  0  0  0  0  0  0
   23.1650  -19.9405  -13.3120 C   0  0  0  0  0  0  0  0  0  0  0  0
   22.7958  -18.7137  -13.2941 O   0  0  0  0  0  0  0  0  0  0  0  0
   19.3826  -20.7892  -16.1984 C   0  0  0  0  0  0  0  0  0  0  0  0
   20.7917  -21.0400  -15.7189 C   0  0  1  0  0  0  0  0  0  0  0  0
   21.8409  -20.4575  -16.6227 C   0  0  0  0  0  0  0  0  0  0  0  0
   20.9338  -20.5397  -14.2932 C   0  0  2  0  0  0  0  0  0  0  0  0
   22.2462  -20.9149  -13.8075 N   0  0  0  0  0  0  0  0  0  0  0  0
   19.8786  -21.0544  -13.4164 C   0  0  0  0  0  0  0  0  0  0  0  0
   20.0469  -22.2737  -12.7845 O   0  0  0  0  0  0  0  0  0  0  0  0
   18.7954  -20.4129  -13.2109 O   0  0  0  0  0  0  0  0  0  0  0  0
  1  2  1  0
  2  3  2  0
  4  2  1  0
  4  5  1  0
  5  6  1  6
  7  8  2  0
  7  5  1  0
 10  9  1  1
 10 11  1  0
 10 12  1  0
 13 12  1  1
 13 14  1  0
 14  7  1  0
 15 13  1  0
 16 15  2  0
 18 17  1  6
 19 18  1  0
 20 18  1  0
 20 21  1  1
 21 15  1  0
 22 20  1  0
 23 22  1  0
 24 22  2  0
M  END
$$$$
