NLV.pdb
     RDKit          3D

 24 23  0  0  1  0  0  0  0  0999 V2000
   25.5425  -24.4669  -14.1203 N   0  0  0  0  0  0  0  0  0  0  0  0
   24.2096  -23.9909  -14.0450 C   0  0  0  0  0  0  0  0  0  0  0  0
   23.2856  -24.7962  -14.2973 O   0  0  0  0  0  0  0  0  0  0  0  0
   23.9440  -22.5950  -13.6805 C   0  0  0  0  0  0  0  0  0  0  0  0
   25.2275  -21.8536  -13.3395 C   0  0  2  0  0  0  0  0  0  0  0  0
   25.5329  -22.0320  -11.9476 N   0  0  0  0  0  0  0  0  0  0  0  0
   25.0060  -20.4225  -13.6860 C   0  0  0  0  0  0  0  0  0  0  0  0
   24.2609  -19.7769  -12.8721 O   0  0  0  0  0  0  0  0  0  0  0  0
   27.4883  -15.7291  -16.6209 C   0  0  0  0  0  0  0  0  0  0  0  0
   26.1666  -16.2601  -16.0240 C   0  0  2  0  0  0  0  0  0  0  0  0
   25.8502  -15.2865  -14.9167 C   0  0  0  0  0  0  0  0  0  0  0  0
   26.4163  -17.6270  -15.5319 C   0  0  0  0  0  0  0  0  0  0  0  0
   25.2626  -18.4640  -15.1430 C   0  0  2  0  0  0  0  0  0  0  0  0
   25.5753  -19.8195  -14.8284 N   0  0  0  0  0  0  0  0  0  0  0  0
   24.0913  -18.4326  -16.0459 C   0  0  0  0  0  0  0  0  0  0  0  0
   24.1214  -19.0654  -17.1595 O   0  0  0  0  0  0  0  0  0  0  0  0
   20.4233  -18.4467  -14.6338 C   0  0  0  0  0  0  0  0  0  0  0  0
   20.7656  -18.7481  -16.0727 C   0  0  1  0  0  0  0  0  0  0  0  0
   19.5592  -18.8602  -16.9610 C   0  0  0  0  0  0  0  0  0  0  0  0
   21.7483  -17.7104  -16.5834 C   0  0  2  0  0  0  0  0  0  0  0  0
   22.9053  -17.7110  -15.7113 N   0  0  0  0  0  0  0  0  0  0  0  0
   21.1513  -16.3750  -16.6687 C   0  0  0  0  0  0  0  0  0  0  0  0
   20.3684  -16.0428  -17.7600 O   0  0  0  0  0  0  0  0  0  0  0  0
   21.3285  -15.4943  -15.7630 O   0  0  0  0  0  0  0  0  0  0  0  0
  1  2  1  0
  2  3  2  0
  4  2  1  0
  4  5  1  0
  5  6  1  1
  7  8  2  0
  7  5  1  0
 10  9  1  1
 10 11  1  0
 10 12  1  0
 13 12  1  6
 13 14  1  0
 14  7  1  0
 15 13  1  0
 16 15  2  0
 18 17  1  1
 19 18  1  0
 20 18  1  0
 20 21  1  1
 21 15  1  0
 22 20  1  0
 23 22  1  0
 24 22  2  0
M  END
$$$$
