NLV.pdb
     RDKit          3D

 24 23  0  0  1  0  0  0  0  0999 V2000
   15.6591  -13.9708  -18.3053 N   0  0  0  0  0  0  0  0  0  0  0  0
   15.5223  -13.9598  -16.8946 C   0  0  0  0  0  0  0  0  0  0  0  0
   14.5984  -14.6373  -16.3912 O   0  0  0  0  0  0  0  0  0  0  0  0
   16.4454  -13.1728  -16.0698 C   0  0  0  0  0  0  0  0  0  0  0  0
   17.8734  -13.6822  -16.1898 C   0  0  2  0  0  0  0  0  0  0  0  0
   17.9832  -14.9657  -15.5551 N   0  0  0  0  0  0  0  0  0  0  0  0
   18.7517  -12.6637  -15.5507 C   0  0  0  0  0  0  0  0  0  0  0  0
   18.7028  -12.6305  -14.2736 O   0  0  0  0  0  0  0  0  0  0  0  0
   24.0862  -10.0116  -15.8451 C   0  0  0  0  0  0  0  0  0  0  0  0
   22.6616   -9.8138  -15.2823 C   0  0  2  0  0  0  0  0  0  0  0  0
   22.8365   -9.9549  -13.7912 C   0  0  0  0  0  0  0  0  0  0  0  0
   21.8033  -10.8631  -15.8611 C   0  0  0  0  0  0  0  0  0  0  0  0
   20.3461  -10.7990  -15.6257 C   0  0  2  0  0  0  0  0  0  0  0  0
   19.5788  -11.7965  -16.2968 N   0  0  0  0  0  0  0  0  0  0  0  0
   19.7044   -9.4803  -15.8194 C   0  0  0  0  0  0  0  0  0  0  0  0
   19.4360   -9.0639  -17.0010 O   0  0  0  0  0  0  0  0  0  0  0  0
   16.6196   -8.3062  -15.4939 C   0  0  0  0  0  0  0  0  0  0  0  0
   17.3328   -7.3646  -14.5542 C   0  0  1  0  0  0  0  0  0  0  0  0
   17.1193   -7.6951  -13.1043 C   0  0  0  0  0  0  0  0  0  0  0  0
   18.8070   -7.3191  -14.9118 C   0  0  2  0  0  0  0  0  0  0  0  0
   19.3644   -8.6419  -14.7147 N   0  0  0  0  0  0  0  0  0  0  0  0
   19.5369   -6.3163  -14.1316 C   0  0  0  0  0  0  0  0  0  0  0  0
   20.5137   -6.7205  -13.2388 O   0  0  0  0  0  0  0  0  0  0  0  0
   19.3028   -5.0675  -14.2449 O   0  0  0  0  0  0  0  0  0  0  0  0
  1  2  1  0
  2  3  2  0
  4  2  1  0
  4  5  1  0
  5  6  1  1
  7  8  2  0
  7  5  1  0
 10  9  1  6
 10 11  1  0
 10 12  1  0
 13 12  1  6
 13 14  1  0
 14  7  1  0
 15 13  1  0
 16 15  2  0
 18 17  1  6
 19 18  1  0
 20 18  1  0
 20 21  1  1
 21 15  1  0
 22 20  1  0
 23 22  1  0
 24 22  2  0
M  END
$$$$
