NLV.pdb
     RDKit          3D

 24 23  0  0  1  0  0  0  0  0999 V2000
   16.7130   -8.6766  -21.1355 N   0  0  0  0  0  0  0  0  0  0  0  0
   17.8966   -9.3190  -20.6936 C   0  0  0  0  0  0  0  0  0  0  0  0
   18.4720  -10.0961  -21.4880 O   0  0  0  0  0  0  0  0  0  0  0  0
   18.4136   -9.0664  -19.3443 C   0  0  0  0  0  0  0  0  0  0  0  0
   18.8394  -10.3560  -18.6595 C   0  0  2  0  0  0  0  0  0  0  0  0
   17.6768  -11.1190  -18.3008 N   0  0  0  0  0  0  0  0  0  0  0  0
   19.6450   -9.9684  -17.4687 C   0  0  0  0  0  0  0  0  0  0  0  0
   18.9686   -9.7362  -16.4090 O   0  0  0  0  0  0  0  0  0  0  0  0
   25.2121  -10.4255  -15.0344 C   0  0  0  0  0  0  0  0  0  0  0  0
   23.8804   -9.6459  -14.9705 C   0  0  2  0  0  0  0  0  0  0  0  0
   23.3159  -10.0002  -13.6178 C   0  0  0  0  0  0  0  0  0  0  0  0
   23.0359  -10.1128  -16.0847 C   0  0  0  0  0  0  0  0  0  0  0  0
   21.7577   -9.4193  -16.3464 C   0  0  2  0  0  0  0  0  0  0  0  0
   21.0524   -9.8638  -17.5035 N   0  0  0  0  0  0  0  0  0  0  0  0
   21.7965   -7.9406  -16.3391 C   0  0  0  0  0  0  0  0  0  0  0  0
   22.2960   -7.3062  -17.3338 O   0  0  0  0  0  0  0  0  0  0  0  0
   19.9485   -3.7089  -15.0279 C   0  0  0  0  0  0  0  0  0  0  0  0
   19.9290   -5.1953  -15.2897 C   0  0  1  0  0  0  0  0  0  0  0  0
   19.2446   -5.5647  -16.5751 C   0  0  0  0  0  0  0  0  0  0  0  0
   21.3463   -5.7347  -15.2295 C   0  0  2  0  0  0  0  0  0  0  0  0
   21.2837   -7.1821  -15.2432 N   0  0  0  0  0  0  0  0  0  0  0  0
   22.0761   -5.2483  -14.0556 C   0  0  0  0  0  0  0  0  0  0  0  0
   22.8344   -4.0948  -14.1496 O   0  0  0  0  0  0  0  0  0  0  0  0
   22.0391   -5.8562  -12.9348 O   0  0  0  0  0  0  0  0  0  0  0  0
  1  2  1  0
  2  3  2  0
  4  2  1  0
  4  5  1  0
  5  6  1  1
  7  8  2  0
  7  5  1  0
 10  9  1  6
 10 11  1  0
 10 12  1  0
 13 12  1  6
 13 14  1  0
 14  7  1  0
 15 13  1  0
 16 15  2  0
 18 17  1  6
 19 18  1  0
 20 18  1  0
 20 21  1  1
 21 15  1  0
 22 20  1  0
 23 22  1  0
 24 22  2  0
M  END
$$$$
