NLV.pdb
     RDKit          3D

 24 23  0  0  1  0  0  0  0  0999 V2000
   25.6972  -19.3809  -15.6550 N   0  0  0  0  0  0  0  0  0  0  0  0
   24.4732  -19.5324  -14.9565 C   0  0  0  0  0  0  0  0  0  0  0  0
   23.4238  -19.1601  -15.5275 O   0  0  0  0  0  0  0  0  0  0  0  0
   24.4597  -20.1102  -13.6082 C   0  0  0  0  0  0  0  0  0  0  0  0
   25.8631  -20.4575  -13.1360 C   0  0  2  0  0  0  0  0  0  0  0  0
   26.3671  -21.5676  -13.8950 N   0  0  0  0  0  0  0  0  0  0  0  0
   25.7663  -20.7695  -11.6832 C   0  0  0  0  0  0  0  0  0  0  0  0
   25.3725  -21.9543  -11.4083 O   0  0  0  0  0  0  0  0  0  0  0  0
   27.6722  -18.7006   -6.2202 C   0  0  0  0  0  0  0  0  0  0  0  0
   26.9135  -19.8193   -6.9672 C   0  0  2  0  0  0  0  0  0  0  0  0
   27.6998  -21.0665   -6.6505 C   0  0  0  0  0  0  0  0  0  0  0  0
   26.9234  -19.4839   -8.4025 C   0  0  0  0  0  0  0  0  0  0  0  0
   26.0024  -20.2033   -9.3066 C   0  0  2  0  0  0  0  0  0  0  0  0
   26.0851  -19.8286  -10.6802 N   0  0  0  0  0  0  0  0  0  0  0  0
   24.5809  -20.2483   -8.8999 C   0  0  0  0  0  0  0  0  0  0  0  0
   23.8221  -19.2362   -9.1036 O   0  0  0  0  0  0  0  0  0  0  0  0
   20.3867  -22.2497   -8.5497 C   0  0  0  0  0  0  0  0  0  0  0  0
   21.8287  -22.1259   -8.9782 C   0  0  1  0  0  0  0  0  0  0  0  0
   21.9994  -21.4382  -10.3029 C   0  0  0  0  0  0  0  0  0  0  0  0
   22.6220  -21.4413   -7.8803 C   0  0  2  0  0  0  0  0  0  0  0  0
   24.0141  -21.4033   -8.2803 N   0  0  0  0  0  0  0  0  0  0  0  0
   22.4626  -22.1050   -6.5837 C   0  0  0  0  0  0  0  0  0  0  0  0
   21.6018  -21.5705   -5.6415 O   0  0  0  0  0  0  0  0  0  0  0  0
   23.0962  -23.1713   -6.2857 O   0  0  0  0  0  0  0  0  0  0  0  0
  1  2  1  0
  2  3  2  0
  4  2  1  0
  4  5  1  0
  5  6  1  6
  7  8  2  0
  7  5  1  0
 10  9  1  1
 10 11  1  0
 10 12  1  0
 13 12  1  1
 13 14  1  0
 14  7  1  0
 15 13  1  0
 16 15  2  0
 18 17  1  1
 19 18  1  0
 20 18  1  0
 20 21  1  6
 21 15  1  0
 22 20  1  0
 23 22  1  0
 24 22  2  0
M  END
$$$$
