NLV.pdb
     RDKit          3D

 24 23  0  0  1  0  0  0  0  0999 V2000
   15.8963  -16.1006  -18.9400 N   0  0  0  0  0  0  0  0  0  0  0  0
   15.1420  -15.0960  -18.2837 C   0  0  0  0  0  0  0  0  0  0  0  0
   13.9374  -14.9698  -18.5980 O   0  0  0  0  0  0  0  0  0  0  0  0
   15.7731  -14.2427  -17.2710 C   0  0  0  0  0  0  0  0  0  0  0  0
   17.2493  -14.5699  -17.1070 C   0  0  2  0  0  0  0  0  0  0  0  0
   17.4009  -15.6813  -16.2102 N   0  0  0  0  0  0  0  0  0  0  0  0
   17.9110  -13.3395  -16.5919 C   0  0  0  0  0  0  0  0  0  0  0  0
   17.4978  -12.9394  -15.4501 O   0  0  0  0  0  0  0  0  0  0  0  0
   21.8704  -12.4995  -14.8710 C   0  0  0  0  0  0  0  0  0  0  0  0
   21.8658  -12.5932  -16.4126 C   0  0  2  0  0  0  0  0  0  0  0  0
   23.3199  -12.4609  -16.7895 C   0  0  0  0  0  0  0  0  0  0  0  0
   21.0375  -11.4866  -16.9246 C   0  0  0  0  0  0  0  0  0  0  0  0
   19.5753  -11.5399  -16.7196 C   0  0  2  0  0  0  0  0  0  0  0  0
   18.9207  -12.6617  -17.3088 N   0  0  0  0  0  0  0  0  0  0  0  0
   18.8190  -10.3106  -17.0438 C   0  0  0  0  0  0  0  0  0  0  0  0
   18.3709  -10.1260  -18.2298 O   0  0  0  0  0  0  0  0  0  0  0  0
   15.7102   -9.1185  -16.6649 C   0  0  0  0  0  0  0  0  0  0  0  0
   16.4968   -8.0875  -15.8924 C   0  0  1  0  0  0  0  0  0  0  0  0
   16.4456   -8.2910  -14.4048 C   0  0  0  0  0  0  0  0  0  0  0  0
   17.9235   -8.0534  -16.4088 C   0  0  2  0  0  0  0  0  0  0  0  0
   18.5634   -9.3061  -16.0616 N   0  0  0  0  0  0  0  0  0  0  0  0
   18.6769   -6.9116  -15.8838 C   0  0  0  0  0  0  0  0  0  0  0  0
   18.4124   -5.6393  -16.3588 O   0  0  0  0  0  0  0  0  0  0  0  0
   19.5804   -7.0474  -14.9937 O   0  0  0  0  0  0  0  0  0  0  0  0
  1  2  1  0
  2  3  2  0
  4  2  1  0
  4  5  1  0
  5  6  1  1
  7  8  2  0
  7  5  1  0
 10  9  1  1
 10 11  1  0
 10 12  1  0
 13 12  1  6
 13 14  1  0
 14  7  1  0
 15 13  1  0
 16 15  2  0
 18 17  1  6
 19 18  1  0
 20 18  1  0
 20 21  1  1
 21 15  1  0
 22 20  1  0
 23 22  1  0
 24 22  2  0
M  END
$$$$
