NLV.pdb
     RDKit          3D

 24 23  0  0  1  0  0  0  0  0999 V2000
   29.1133  -19.8208  -17.3023 N   0  0  0  0  0  0  0  0  0  0  0  0
   27.7962  -19.8491  -17.8252 C   0  0  0  0  0  0  0  0  0  0  0  0
   27.5931  -19.2961  -18.9292 O   0  0  0  0  0  0  0  0  0  0  0  0
   26.7204  -20.5115  -17.0797 C   0  0  0  0  0  0  0  0  0  0  0  0
   27.2485  -21.1967  -15.8288 C   0  0  2  0  0  0  0  0  0  0  0  0
   27.9339  -22.4050  -16.1928 N   0  0  0  0  0  0  0  0  0  0  0  0
   26.0747  -21.4605  -14.9514 C   0  0  0  0  0  0  0  0  0  0  0  0
   25.4559  -22.5539  -15.1881 O   0  0  0  0  0  0  0  0  0  0  0  0
   25.6133  -22.4134  -10.5958 C   0  0  0  0  0  0  0  0  0  0  0  0
   25.8205  -20.9113  -10.8887 C   0  0  2  0  0  0  0  0  0  0  0  0
   25.8675  -20.2770   -9.5214 C   0  0  0  0  0  0  0  0  0  0  0  0
   24.6756  -20.4516  -11.6952 C   0  0  0  0  0  0  0  0  0  0  0  0
   24.5654  -20.9065  -13.0967 C   0  0  2  0  0  0  0  0  0  0  0  0
   25.6717  -20.5710  -13.9320 N   0  0  0  0  0  0  0  0  0  0  0  0
   23.3072  -20.5751  -13.8003 C   0  0  0  0  0  0  0  0  0  0  0  0
   23.1168  -19.3918  -14.2531 O   0  0  0  0  0  0  0  0  0  0  0  0
   19.4113  -21.8854  -16.3669 C   0  0  0  0  0  0  0  0  0  0  0  0
   20.7359  -22.2096  -15.7198 C   0  0  1  0  0  0  0  0  0  0  0  0
   21.8704  -22.3033  -16.7001 C   0  0  0  0  0  0  0  0  0  0  0  0
   21.0196  -21.1999  -14.6228 C   0  0  2  0  0  0  0  0  0  0  0  0
   22.2804  -21.5473  -13.9991 N   0  0  0  0  0  0  0  0  0  0  0  0
   19.9403  -21.1367  -13.6338 C   0  0  0  0  0  0  0  0  0  0  0  0
   18.9956  -20.1290  -13.7138 O   0  0  0  0  0  0  0  0  0  0  0  0
   19.8370  -21.9865  -12.6881 O   0  0  0  0  0  0  0  0  0  0  0  0
  1  2  1  0
  2  3  2  0
  4  2  1  0
  4  5  1  0
  5  6  1  6
  7  8  2  0
  7  5  1  0
 10  9  1  1
 10 11  1  0
 10 12  1  0
 13 12  1  1
 13 14  1  0
 14  7  1  0
 15 13  1  0
 16 15  2  0
 18 17  1  6
 19 18  1  0
 20 18  1  0
 20 21  1  1
 21 15  1  0
 22 20  1  0
 23 22  1  0
 24 22  2  0
M  END
$$$$
