NLV.pdb
     RDKit          3D

 24 23  0  0  1  0  0  0  0  0999 V2000
   37.4663   -9.2710  -22.9898 N   0  0  0  0  0  0  0  0  0  0  0  0
   37.9088   -9.7575  -21.7342 C   0  0  0  0  0  0  0  0  0  0  0  0
   38.9589  -10.4375  -21.7074 O   0  0  0  0  0  0  0  0  0  0  0  0
   37.1452   -9.4611  -20.5173 C   0  0  0  0  0  0  0  0  0  0  0  0
   36.8812  -10.7189  -19.7041 C   0  0  2  0  0  0  0  0  0  0  0  0
   35.8262  -11.4771  -20.3162 N   0  0  0  0  0  0  0  0  0  0  0  0
   36.5281  -10.2778  -18.3265 C   0  0  0  0  0  0  0  0  0  0  0  0
   35.2940   -9.9961  -18.1472 O   0  0  0  0  0  0  0  0  0  0  0  0
   37.3589  -11.6893  -12.6792 C   0  0  0  0  0  0  0  0  0  0  0  0
   36.9926  -10.4590  -13.5379 C   0  0  2  0  0  0  0  0  0  0  0  0
   35.5572  -10.1748  -13.1730 C   0  0  0  0  0  0  0  0  0  0  0  0
   37.1608  -10.8362  -14.9529 C   0  0  0  0  0  0  0  0  0  0  0  0
   37.0711   -9.7823  -15.9846 C   0  0  2  0  0  0  0  0  0  0  0  0
   37.4831  -10.1767  -17.2918 N   0  0  0  0  0  0  0  0  0  0  0  0
   37.6893   -8.4803  -15.6524 C   0  0  0  0  0  0  0  0  0  0  0  0
   38.9541   -8.3189  -15.7783 O   0  0  0  0  0  0  0  0  0  0  0  0
   37.2095   -3.6601  -15.0253 C   0  0  0  0  0  0  0  0  0  0  0  0
   36.6965   -4.9996  -15.4953 C   0  0  1  0  0  0  0  0  0  0  0  0
   36.6480   -5.1271  -16.9914 C   0  0  0  0  0  0  0  0  0  0  0  0
   37.5214   -6.1043  -14.8609 C   0  0  2  0  0  0  0  0  0  0  0  0
   36.9104   -7.3758  -15.1913 N   0  0  0  0  0  0  0  0  0  0  0  0
   37.6479   -5.9396  -13.4104 C   0  0  0  0  0  0  0  0  0  0  0  0
   36.5474   -6.1487  -12.5984 O   0  0  0  0  0  0  0  0  0  0  0  0
   38.7490   -5.6056  -12.8598 O   0  0  0  0  0  0  0  0  0  0  0  0
  1  2  1  0
  2  3  2  0
  4  2  1  0
  4  5  1  0
  5  6  1  6
  7  8  2  0
  7  5  1  0
 10  9  1  1
 10 11  1  0
 10 12  1  0
 13 12  1  1
 13 14  1  0
 14  7  1  0
 15 13  1  0
 16 15  2  0
 18 17  1  6
 19 18  1  0
 20 18  1  0
 20 21  1  1
 21 15  1  0
 22 20  1  0
 23 22  1  0
 24 22  2  0
M  END
$$$$
