NLV.pdb
     RDKit          3D

 24 23  0  0  1  0  0  0  0  0999 V2000
   28.3700  -18.8285  -17.8194 N   0  0  0  0  0  0  0  0  0  0  0  0
   28.0266  -18.5436  -16.4740 C   0  0  0  0  0  0  0  0  0  0  0  0
   28.5870  -17.5712  -15.9205 O   0  0  0  0  0  0  0  0  0  0  0  0
   27.0427  -19.3747  -15.7718 C   0  0  0  0  0  0  0  0  0  0  0  0
   27.6794  -20.1437  -14.6245 C   0  0  2  0  0  0  0  0  0  0  0  0
   28.5276  -21.1776  -15.1479 N   0  0  0  0  0  0  0  0  0  0  0  0
   26.5669  -20.6940  -13.8019 C   0  0  0  0  0  0  0  0  0  0  0  0
   26.0803  -21.8002  -14.2189 O   0  0  0  0  0  0  0  0  0  0  0  0
   26.2552  -22.2323   -9.5350 C   0  0  0  0  0  0  0  0  0  0  0  0
   26.2206  -20.6964   -9.6931 C   0  0  2  0  0  0  0  0  0  0  0  0
   26.1782  -20.1855   -8.2749 C   0  0  0  0  0  0  0  0  0  0  0  0
   25.0111  -20.3539  -10.4626 C   0  0  0  0  0  0  0  0  0  0  0  0
   24.9967  -20.6143  -11.9169 C   0  0  2  0  0  0  0  0  0  0  0  0
   26.0823  -20.0448  -12.6458 N   0  0  0  0  0  0  0  0  0  0  0  0
   23.7309  -20.3258  -12.6259 C   0  0  0  0  0  0  0  0  0  0  0  0
   23.4556  -19.1278  -12.9871 O   0  0  0  0  0  0  0  0  0  0  0  0
   22.5854  -21.5302  -15.7827 C   0  0  0  0  0  0  0  0  0  0  0  0
   21.4569  -21.9085  -14.8543 C   0  0  1  0  0  0  0  0  0  0  0  0
   21.4113  -23.3767  -14.5396 C   0  0  0  0  0  0  0  0  0  0  0  0
   21.5368  -21.0636  -13.5961 C   0  0  2  0  0  0  0  0  0  0  0  0
   22.7899  -21.3558  -12.9301 N   0  0  0  0  0  0  0  0  0  0  0  0
   20.3979  -21.2896  -12.7023 C   0  0  0  0  0  0  0  0  0  0  0  0
   19.1679  -20.7332  -13.0055 O   0  0  0  0  0  0  0  0  0  0  0  0
   20.4983  -21.9888  -11.6402 O   0  0  0  0  0  0  0  0  0  0  0  0
  1  2  1  0
  2  3  2  0
  4  2  1  0
  4  5  1  0
  5  6  1  6
  7  8  2  0
  7  5  1  0
 10  9  1  1
 10 11  1  0
 10 12  1  0
 13 12  1  1
 13 14  1  0
 14  7  1  0
 15 13  1  0
 16 15  2  0
 18 17  1  6
 19 18  1  0
 20 18  1  0
 20 21  1  1
 21 15  1  0
 22 20  1  0
 23 22  1  0
 24 22  2  0
M  END
$$$$
