NLV.pdb
     RDKit          3D

 24 23  0  0  1  0  0  0  0  0999 V2000
   18.4502  -14.3093  -19.0103 N   0  0  0  0  0  0  0  0  0  0  0  0
   17.6249  -13.1783  -18.7894 C   0  0  0  0  0  0  0  0  0  0  0  0
   16.5934  -13.0614  -19.4881 O   0  0  0  0  0  0  0  0  0  0  0  0
   17.9868  -12.1889  -17.7687 C   0  0  0  0  0  0  0  0  0  0  0  0
   19.2753  -12.5687  -17.0556 C   0  0  2  0  0  0  0  0  0  0  0  0
   19.0060  -13.5905  -16.0831 N   0  0  0  0  0  0  0  0  0  0  0  0
   19.8069  -11.3261  -16.4307 C   0  0  0  0  0  0  0  0  0  0  0  0
   19.0702  -10.8216  -15.5157 O   0  0  0  0  0  0  0  0  0  0  0  0
   22.7321   -9.9902  -13.3911 C   0  0  0  0  0  0  0  0  0  0  0  0
   23.3351  -10.4712  -14.7290 C   0  0  2  0  0  0  0  0  0  0  0  0
   24.8239  -10.4311  -14.4925 C   0  0  0  0  0  0  0  0  0  0  0  0
   22.8957   -9.5347  -15.7791 C   0  0  0  0  0  0  0  0  0  0  0  0
   21.4765   -9.5430  -16.1899 C   0  0  2  0  0  0  0  0  0  0  0  0
   21.0338  -10.7447  -16.8176 N   0  0  0  0  0  0  0  0  0  0  0  0
   21.0124   -8.3822  -16.9806 C   0  0  0  0  0  0  0  0  0  0  0  0
   21.2723   -8.3131  -18.2333 O   0  0  0  0  0  0  0  0  0  0  0  0
   17.8884   -7.3682  -18.1004 C   0  0  0  0  0  0  0  0  0  0  0  0
   18.3192   -6.2015  -17.2451 C   0  0  1  0  0  0  0  0  0  0  0  0
   17.6826   -6.1935  -15.8843 C   0  0  0  0  0  0  0  0  0  0  0  0
   19.8341   -6.1733  -17.1598 C   0  0  2  0  0  0  0  0  0  0  0  0
   20.2681   -7.3186  -16.3858 N   0  0  0  0  0  0  0  0  0  0  0  0
   20.3345   -4.9237  -16.5808 C   0  0  0  0  0  0  0  0  0  0  0  0
   20.2975   -3.7593  -17.3273 O   0  0  0  0  0  0  0  0  0  0  0  0
   20.8101   -4.8673  -15.3985 O   0  0  0  0  0  0  0  0  0  0  0  0
  1  2  1  0
  2  3  2  0
  4  2  1  0
  4  5  1  0
  5  6  1  1
  7  8  2  0
  7  5  1  0
 10  9  1  1
 10 11  1  0
 10 12  1  0
 13 12  1  6
 13 14  1  0
 14  7  1  0
 15 13  1  0
 16 15  2  0
 18 17  1  1
 19 18  1  0
 20 18  1  0
 20 21  1  1
 21 15  1  0
 22 20  1  0
 23 22  1  0
 24 22  2  0
M  END
$$$$
