NLV.pdb
     RDKit          3D

 24 23  0  0  1  0  0  0  0  0999 V2000
   12.2257  -21.3833    0.6825 N   0  0  0  0  0  0  0  0  0  0  0  0
   12.4010  -22.0710    1.9095 C   0  0  0  0  0  0  0  0  0  0  0  0
   11.3870  -22.5596    2.4562 O   0  0  0  0  0  0  0  0  0  0  0  0
   13.7373  -22.1947    2.5016 C   0  0  0  0  0  0  0  0  0  0  0  0
   14.7706  -21.4002    1.7179 C   0  0  2  0  0  0  0  0  0  0  0  0
   14.9407  -21.9815    0.4157 N   0  0  0  0  0  0  0  0  0  0  0  0
   16.0299  -21.4256    2.5120 C   0  0  0  0  0  0  0  0  0  0  0  0
   16.8294  -22.3824    2.2299 O   0  0  0  0  0  0  0  0  0  0  0  0
   19.4341  -17.6637    5.9025 C   0  0  0  0  0  0  0  0  0  0  0  0
   19.3248  -19.1184    5.3954 C   0  0  2  0  0  0  0  0  0  0  0  0
   20.6426  -19.3628    4.7042 C   0  0  0  0  0  0  0  0  0  0  0  0
   18.1740  -19.1856    4.4768 C   0  0  0  0  0  0  0  0  0  0  0  0
   17.5794  -20.5049    4.1782 C   0  0  2  0  0  0  0  0  0  0  0  0
   16.3229  -20.4654    3.5045 N   0  0  0  0  0  0  0  0  0  0  0  0
   17.4973  -21.4609    5.3040 C   0  0  0  0  0  0  0  0  0  0  0  0
   16.4678  -21.4684    6.0667 O   0  0  0  0  0  0  0  0  0  0  0  0
   19.6833  -24.9129    5.2767 C   0  0  0  0  0  0  0  0  0  0  0  0
   18.4904  -24.7214    6.1815 C   0  0  1  0  0  0  0  0  0  0  0  0
   18.4205  -25.7267    7.2956 C   0  0  0  0  0  0  0  0  0  0  0  0
   18.4804  -23.2969    6.7049 C   0  0  2  0  0  0  0  0  0  0  0  0
   18.5433  -22.3951    5.5727 N   0  0  0  0  0  0  0  0  0  0  0  0
   19.5759  -23.0430    7.6444 C   0  0  0  0  0  0  0  0  0  0  0  0
   19.3584  -23.1802    9.0039 O   0  0  0  0  0  0  0  0  0  0  0  0
   20.7385  -22.6948    7.2517 O   0  0  0  0  0  0  0  0  0  0  0  0
  1  2  1  0
  2  3  2  0
  4  2  1  0
  4  5  1  0
  5  6  1  6
  7  8  2  0
  7  5  1  0
 10  9  1  6
 10 11  1  0
 10 12  1  0
 13 12  1  1
 13 14  1  0
 14  7  1  0
 15 13  1  0
 16 15  2  0
 18 17  1  1
 19 18  1  0
 20 18  1  0
 20 21  1  6
 21 15  1  0
 22 20  1  0
 23 22  1  0
 24 22  2  0
M  END
$$$$
