NLV.pdb
     RDKit          3D

 24 23  0  0  1  0  0  0  0  0999 V2000
   18.4443  -24.3519  -11.8388 N   0  0  0  0  0  0  0  0  0  0  0  0
   18.4609  -23.7279  -13.1114 C   0  0  0  0  0  0  0  0  0  0  0  0
   17.8558  -24.2946  -14.0487 O   0  0  0  0  0  0  0  0  0  0  0  0
   19.1704  -22.4582  -13.3014 C   0  0  0  0  0  0  0  0  0  0  0  0
   19.9248  -22.0474  -12.0462 C   0  0  2  0  0  0  0  0  0  0  0  0
   19.0525  -21.3056  -11.1795 N   0  0  0  0  0  0  0  0  0  0  0  0
   21.0947  -21.2397  -12.4890 C   0  0  0  0  0  0  0  0  0  0  0  0
   20.8353  -20.0204  -12.7729 O   0  0  0  0  0  0  0  0  0  0  0  0
   24.6506  -20.0173  -10.3506 C   0  0  0  0  0  0  0  0  0  0  0  0
   24.9012  -21.4095  -10.9703 C   0  0  2  0  0  0  0  0  0  0  0  0
   26.2956  -21.7635  -10.5179 C   0  0  0  0  0  0  0  0  0  0  0  0
   24.7902  -21.2733  -12.4338 C   0  0  0  0  0  0  0  0  0  0  0  0
   23.4734  -20.9472  -13.0191 C   0  0  2  0  0  0  0  0  0  0  0  0
   22.3962  -21.7772  -12.5892 N   0  0  0  0  0  0  0  0  0  0  0  0
   23.4224  -20.8084  -14.4909 C   0  0  0  0  0  0  0  0  0  0  0  0
   23.2710  -21.8447  -15.2290 O   0  0  0  0  0  0  0  0  0  0  0  0
   22.4331  -18.0504  -18.3716 C   0  0  0  0  0  0  0  0  0  0  0  0
   22.4436  -18.3051  -16.8838 C   0  0  1  0  0  0  0  0  0  0  0  0
   21.0844  -18.6129  -16.3227 C   0  0  0  0  0  0  0  0  0  0  0  0
   23.4458  -19.4003  -16.5686 C   0  0  2  0  0  0  0  0  0  0  0  0
   23.5345  -19.5358  -15.1288 N   0  0  0  0  0  0  0  0  0  0  0  0
   24.7614  -19.1350  -17.1566 C   0  0  0  0  0  0  0  0  0  0  0  0
   25.1052  -19.7235  -18.3607 O   0  0  0  0  0  0  0  0  0  0  0  0
   25.6143  -18.3720  -16.5930 O   0  0  0  0  0  0  0  0  0  0  0  0
  1  2  1  0
  2  3  2  0
  4  2  1  0
  4  5  1  0
  5  6  1  1
  7  8  2  0
  7  5  1  0
 10  9  1  1
 10 11  1  0
 10 12  1  0
 13 12  1  6
 13 14  1  0
 14  7  1  0
 15 13  1  0
 16 15  2  0
 18 17  1  6
 19 18  1  0
 20 18  1  0
 20 21  1  1
 21 15  1  0
 22 20  1  0
 23 22  1  0
 24 22  2  0
M  END
$$$$
