NLV.pdb
     RDKit          3D

 24 23  0  0  1  0  0  0  0  0999 V2000
   27.3446  -40.2236   -8.9170 N   0  0  0  0  0  0  0  0  0  0  0  0
   26.7120  -40.0867   -7.6560 C   0  0  0  0  0  0  0  0  0  0  0  0
   26.0296  -41.0481   -7.2365 O   0  0  0  0  0  0  0  0  0  0  0  0
   26.8659  -38.8491   -6.8837 C   0  0  0  0  0  0  0  0  0  0  0  0
   27.6726  -37.8110   -7.6483 C   0  0  2  0  0  0  0  0  0  0  0  0
   29.0502  -38.2131   -7.7013 N   0  0  0  0  0  0  0  0  0  0  0  0
   27.4938  -36.5146   -6.9382 C   0  0  0  0  0  0  0  0  0  0  0  0
   28.4760  -36.1608   -6.2003 O   0  0  0  0  0  0  0  0  0  0  0  0
   27.0985  -32.2940   -8.1979 C   0  0  0  0  0  0  0  0  0  0  0  0
   25.7397  -33.0219   -8.2925 C   0  0  2  0  0  0  0  0  0  0  0  0
   24.8007  -31.9713   -8.8297 C   0  0  0  0  0  0  0  0  0  0  0  0
   25.3797  -33.4735   -6.9364 C   0  0  0  0  0  0  0  0  0  0  0  0
   26.1892  -34.5349   -6.3028 C   0  0  2  0  0  0  0  0  0  0  0  0
   26.3268  -35.7308   -7.0676 N   0  0  0  0  0  0  0  0  0  0  0  0
   25.8400  -34.8868   -4.9091 C   0  0  0  0  0  0  0  0  0  0  0  0
   24.9360  -35.7642   -4.6754 O   0  0  0  0  0  0  0  0  0  0  0  0
   27.1733  -34.8541   -0.1690 C   0  0  0  0  0  0  0  0  0  0  0  0
   27.4460  -34.4392   -1.5944 C   0  0  1  0  0  0  0  0  0  0  0  0
   28.6591  -35.0997   -2.1852 C   0  0  0  0  0  0  0  0  0  0  0  0
   26.2056  -34.6820   -2.4344 C   0  0  2  0  0  0  0  0  0  0  0  0
   26.4901  -34.2740   -3.7952 N   0  0  0  0  0  0  0  0  0  0  0  0
   25.0319  -33.9811   -1.9069 C   0  0  0  0  0  0  0  0  0  0  0  0
   24.3806  -34.4783   -0.7920 O   0  0  0  0  0  0  0  0  0  0  0  0
   24.5807  -32.9156   -2.4439 O   0  0  0  0  0  0  0  0  0  0  0  0
  1  2  1  0
  2  3  2  0
  4  2  1  0
  4  5  1  0
  5  6  1  1
  7  8  2  0
  7  5  1  0
 10  9  1  1
 10 11  1  0
 10 12  1  0
 13 12  1  6
 13 14  1  0
 14  7  1  0
 15 13  1  0
 16 15  2  0
 18 17  1  1
 19 18  1  0
 20 18  1  0
 20 21  1  6
 21 15  1  0
 22 20  1  0
 23 22  1  0
 24 22  2  0
M  END
$$$$
