TPQ.pdb
     RDKit          3D

 24 24  0  0  1  0  0  0  0  0999 V2000
   26.6930  -11.4657  -14.9992 C   0  0  0  0  0  0  0  0  0  0  0  0
   26.8091  -11.9685  -16.4118 C   0  0  1  0  0  0  0  0  0  0  0  0
   27.8089  -12.8829  -16.4824 O   0  0  0  0  0  0  0  0  0  0  0  0
   25.4702  -12.3860  -16.9819 C   0  0  2  0  0  0  0  0  0  0  0  0
   25.8214  -12.9485  -18.3050 N   0  0  0  0  0  0  0  0  0  0  0  0
   24.5359  -11.2350  -17.1409 C   0  0  0  0  0  0  0  0  0  0  0  0
   25.1064  -10.1927  -17.5899 O   0  0  0  0  0  0  0  0  0  0  0  0
   23.1724  -11.3018  -16.8280 N   0  0  0  0  0  0  0  0  0  0  0  0
   22.3746  -12.5088  -17.1801 C   0  0  0  0  0  0  0  0  0  0  0  0
   21.7017  -12.7753  -15.8557 C   0  0  0  0  0  0  0  0  0  0  0  0
   21.5740  -11.4114  -15.2019 C   0  0  0  0  0  0  0  0  0  0  0  0
   22.1831  -10.4769  -16.2479 C   0  0  1  0  0  0  0  0  0  0  0  0
   22.5113   -9.1792  -15.7213 C   0  0  0  0  0  0  0  0  0  0  0  0
   23.3001   -9.0199  -14.7637 O   0  0  0  0  0  0  0  0  0  0  0  0
   22.7628   -3.4243  -18.4488 N   0  0  0  0  0  0  0  0  0  0  0  0
   21.5620   -4.1692  -18.5107 C   0  0  0  0  0  0  0  0  0  0  0  0
   20.6445   -3.7913  -19.2541 O   0  0  0  0  0  0  0  0  0  0  0  0
   21.4231   -5.3802  -17.6890 C   0  0  0  0  0  0  0  0  0  0  0  0
   22.6084   -5.6832  -16.8219 C   0  0  0  0  0  0  0  0  0  0  0  0
   22.3153   -6.6531  -15.7446 C   0  0  2  0  0  0  0  0  0  0  0  0
   21.9685   -7.9699  -16.2430 N   0  0  0  0  0  0  0  0  0  0  0  0
   21.2420   -6.1561  -14.8453 C   0  0  0  0  0  0  0  0  0  0  0  0
   21.4072   -5.1254  -13.9406 O   0  0  0  0  0  0  0  0  0  0  0  0
   20.0885   -6.6805  -14.8735 O   0  0  0  0  0  0  0  0  0  0  0  0
  2  1  1  1
  2  3  1  0
  4  2  1  0
  4  5  1  6
  6  4  1  0
  7  6  2  0
  8 12  1  0
  8  6  1  0
  9  8  1  0
 10  9  1  0
 10 11  1  0
 11 12  1  0
 12 13  1  1
 13 14  2  0
 16 15  1  0
 17 16  2  0
 18 16  1  0
 19 18  1  0
 20 19  1  6
 21 20  1  0
 21 13  1  0
 22 20  1  0
 23 22  1  0
 24 22  2  0
M  END
$$$$
