TPQ.pdb
     RDKit          3D

 24 24  0  0  1  0  0  0  0  0999 V2000
   26.5276  -22.3170  -15.9312 C   0  0  0  0  0  0  0  0  0  0  0  0
   27.3600  -21.1327  -15.5234 C   0  0  1  0  0  0  0  0  0  0  0  0
   28.6688  -21.4890  -15.5032 O   0  0  0  0  0  0  0  0  0  0  0  0
   27.0104  -19.8891  -16.3129 C   0  0  2  0  0  0  0  0  0  0  0  0
   28.0278  -18.9077  -15.8747 N   0  0  0  0  0  0  0  0  0  0  0  0
   25.6409  -19.3864  -16.0053 C   0  0  0  0  0  0  0  0  0  0  0  0
   25.4248  -19.2694  -14.7591 O   0  0  0  0  0  0  0  0  0  0  0  0
   24.6959  -19.0755  -16.9911 N   0  0  0  0  0  0  0  0  0  0  0  0
   25.0882  -18.2878  -18.1923 C   0  0  0  0  0  0  0  0  0  0  0  0
   24.5078  -19.1588  -19.2796 C   0  0  0  0  0  0  0  0  0  0  0  0
   23.3110  -19.8374  -18.6382 C   0  0  0  0  0  0  0  0  0  0  0  0
   23.3145  -19.2607  -17.2219 C   0  0  1  0  0  0  0  0  0  0  0  0
   22.5012  -20.0135  -16.3050 C   0  0  0  0  0  0  0  0  0  0  0  0
   22.8306  -21.1443  -15.8833 O   0  0  0  0  0  0  0  0  0  0  0  0
   20.7753  -20.4711  -10.7389 N   0  0  0  0  0  0  0  0  0  0  0  0
   21.0079  -19.1836  -11.2765 C   0  0  0  0  0  0  0  0  0  0  0  0
   20.9954  -18.1957  -10.5274 O   0  0  0  0  0  0  0  0  0  0  0  0
   21.2593  -19.0401  -12.7178 C   0  0  0  0  0  0  0  0  0  0  0  0
   21.2182  -20.3263  -13.4876 C   0  0  0  0  0  0  0  0  0  0  0  0
   20.4938  -20.2186  -14.7726 C   0  0  2  0  0  0  0  0  0  0  0  0
   21.2567  -19.5380  -15.8008 N   0  0  0  0  0  0  0  0  0  0  0  0
   19.1771  -19.5525  -14.5982 C   0  0  0  0  0  0  0  0  0  0  0  0
   18.0930  -20.1353  -13.9712 O   0  0  0  0  0  0  0  0  0  0  0  0
   18.9901  -18.3782  -15.0367 O   0  0  0  0  0  0  0  0  0  0  0  0
  2  1  1  6
  2  3  1  0
  4  2  1  0
  4  5  1  1
  6  4  1  0
  7  6  2  0
  8 12  1  0
  8  6  1  0
  9  8  1  0
 10  9  1  0
 10 11  1  0
 11 12  1  0
 12 13  1  1
 13 14  2  0
 16 15  1  0
 17 16  2  0
 18 16  1  0
 19 18  1  0
 20 19  1  1
 21 20  1  0
 21 13  1  0
 22 20  1  0
 23 22  1  0
 24 22  2  0
M  END
$$$$
