TPQ.pdb
     RDKit          3D

 24 24  0  0  1  0  0  0  0  0999 V2000
   19.7723  -10.3406  -19.3533 C   0  0  0  0  0  0  0  0  0  0  0  0
   19.1649  -11.4632  -18.5579 C   0  0  1  0  0  0  0  0  0  0  0  0
   18.7319  -12.4306  -19.4047 O   0  0  0  0  0  0  0  0  0  0  0  0
   20.0616  -11.9103  -17.4231 C   0  0  2  0  0  0  0  0  0  0  0  0
   19.3277  -13.0539  -16.8365 N   0  0  0  0  0  0  0  0  0  0  0  0
   20.2595  -10.8436  -16.4003 C   0  0  0  0  0  0  0  0  0  0  0  0
   19.2642  -10.0606  -16.3028 O   0  0  0  0  0  0  0  0  0  0  0  0
   21.4225  -10.7231  -15.6294 N   0  0  0  0  0  0  0  0  0  0  0  0
   22.0850  -11.9322  -15.0669 C   0  0  0  0  0  0  0  0  0  0  0  0
   23.5078  -11.6795  -15.5022 C   0  0  0  0  0  0  0  0  0  0  0  0
   23.6357  -10.1681  -15.5584 C   0  0  0  0  0  0  0  0  0  0  0  0
   22.2483   -9.6952  -15.1223 C   0  0  1  0  0  0  0  0  0  0  0  0
   21.9981   -8.3148  -15.4397 C   0  0  0  0  0  0  0  0  0  0  0  0
   21.9788   -7.8858  -16.6146 O   0  0  0  0  0  0  0  0  0  0  0  0
   18.6085   -5.0142  -16.9118 N   0  0  0  0  0  0  0  0  0  0  0  0
   19.0276   -3.8913  -16.1605 C   0  0  0  0  0  0  0  0  0  0  0  0
   18.7098   -2.7522  -16.5328 O   0  0  0  0  0  0  0  0  0  0  0  0
   19.8357   -4.0964  -14.9497 C   0  0  0  0  0  0  0  0  0  0  0  0
   20.0940   -5.5339  -14.6101 C   0  0  0  0  0  0  0  0  0  0  0  0
   21.5133   -5.9248  -14.7515 C   0  0  2  0  0  0  0  0  0  0  0  0
   21.7518   -7.3225  -14.4477 N   0  0  0  0  0  0  0  0  0  0  0  0
   22.3966   -5.0701  -13.9167 C   0  0  0  0  0  0  0  0  0  0  0  0
   23.0234   -3.9273  -14.3742 O   0  0  0  0  0  0  0  0  0  0  0  0
   22.6191   -5.3693  -12.7054 O   0  0  0  0  0  0  0  0  0  0  0  0
  2  1  1  6
  2  3  1  0
  4  2  1  0
  4  5  1  1
  6  4  1  0
  7  6  2  0
  8 12  1  0
  8  6  1  0
  9  8  1  0
 10  9  1  0
 10 11  1  0
 11 12  1  0
 12 13  1  6
 13 14  2  0
 16 15  1  0
 17 16  2  0
 18 16  1  0
 19 18  1  0
 20 19  1  1
 21 20  1  0
 21 13  1  0
 22 20  1  0
 23 22  1  0
 24 22  2  0
M  END
$$$$
