TPQ.pdb
     RDKit          3D

 24 24  0  0  1  0  0  0  0  0999 V2000
   14.5898  -12.7914  -17.5380 C   0  0  0  0  0  0  0  0  0  0  0  0
   15.3717  -11.5155  -17.3883 C   0  0  1  0  0  0  0  0  0  0  0  0
   15.1974  -11.0263  -16.1350 O   0  0  0  0  0  0  0  0  0  0  0  0
   16.8015  -11.6620  -17.8637 C   0  0  2  0  0  0  0  0  0  0  0  0
   17.2902  -12.8452  -17.1210 N   0  0  0  0  0  0  0  0  0  0  0  0
   17.6338  -10.4681  -17.5397 C   0  0  0  0  0  0  0  0  0  0  0  0
   17.9993  -10.4347  -16.3237 O   0  0  0  0  0  0  0  0  0  0  0  0
   17.9754   -9.4896  -18.4817 N   0  0  0  0  0  0  0  0  0  0  0  0
   18.2901   -9.8703  -19.8864 C   0  0  0  0  0  0  0  0  0  0  0  0
   17.4071   -8.8961  -20.6274 C   0  0  0  0  0  0  0  0  0  0  0  0
   17.3074   -7.6879  -19.7140 C   0  0  0  0  0  0  0  0  0  0  0  0
   18.1772   -8.0920  -18.5229 C   0  0  1  0  0  0  0  0  0  0  0  0
   17.9566   -7.2737  -17.3608 C   0  0  0  0  0  0  0  0  0  0  0  0
   16.8763   -7.2752  -16.7301 O   0  0  0  0  0  0  0  0  0  0  0  0
   21.9665   -6.0692  -12.8228 N   0  0  0  0  0  0  0  0  0  0  0  0
   22.1961   -5.2826  -13.9758 C   0  0  0  0  0  0  0  0  0  0  0  0
   23.2985   -4.7386  -14.1364 O   0  0  0  0  0  0  0  0  0  0  0  0
   21.1196   -5.1231  -14.9642 C   0  0  0  0  0  0  0  0  0  0  0  0
   19.8529   -5.8516  -14.6277 C   0  0  0  0  0  0  0  0  0  0  0  0
   18.7701   -5.6316  -15.6109 C   0  0  2  0  0  0  0  0  0  0  0  0
   18.9452   -6.3954  -16.8309 N   0  0  0  0  0  0  0  0  0  0  0  0
   18.6186   -4.1898  -15.9366 C   0  0  0  0  0  0  0  0  0  0  0  0
   18.2695   -3.2217  -15.0152 O   0  0  0  0  0  0  0  0  0  0  0  0
   18.8098   -3.7766  -17.1194 O   0  0  0  0  0  0  0  0  0  0  0  0
  2  1  1  1
  2  3  1  0
  4  2  1  0
  4  5  1  1
  6  4  1  0
  7  6  2  0
  8 12  1  0
  8  6  1  0
  9  8  1  0
 10  9  1  0
 10 11  1  0
 11 12  1  0
 12 13  1  1
 13 14  2  0
 16 15  1  0
 17 16  2  0
 18 16  1  0
 19 18  1  0
 20 19  1  1
 21 20  1  0
 21 13  1  0
 22 20  1  0
 23 22  1  0
 24 22  2  0
M  END
$$$$
