TPQ.pdb
     RDKit          3D

 24 24  0  0  1  0  0  0  0  0999 V2000
   17.2098   -7.7836  -16.5306 C   0  0  0  0  0  0  0  0  0  0  0  0
   17.6410   -9.2226  -16.6020 C   0  0  1  0  0  0  0  0  0  0  0  0
   17.7404   -9.5978  -17.9019 O   0  0  0  0  0  0  0  0  0  0  0  0
   18.8417   -9.5039  -15.7239 C   0  0  2  0  0  0  0  0  0  0  0  0
   19.1423  -10.9265  -15.9996 N   0  0  0  0  0  0  0  0  0  0  0  0
   18.5454   -9.3093  -14.2757 C   0  0  0  0  0  0  0  0  0  0  0  0
   17.3721   -9.6767  -13.9568 O   0  0  0  0  0  0  0  0  0  0  0  0
   19.4683   -8.7781  -13.3660 N   0  0  0  0  0  0  0  0  0  0  0  0
   20.9141   -9.1188  -13.4705 C   0  0  0  0  0  0  0  0  0  0  0  0
   21.5159   -7.7363  -13.4047 C   0  0  0  0  0  0  0  0  0  0  0  0
   20.5398   -6.9255  -12.5716 C   0  0  0  0  0  0  0  0  0  0  0  0
   19.4619   -7.9517  -12.2203 C   0  0  1  0  0  0  0  0  0  0  0  0
   18.2454   -7.3503  -11.7433 C   0  0  0  0  0  0  0  0  0  0  0  0
   17.6103   -6.4985  -12.4036 O   0  0  0  0  0  0  0  0  0  0  0  0
   13.4494   -9.8704   -8.7675 N   0  0  0  0  0  0  0  0  0  0  0  0
   13.2469   -8.5086   -8.4433 C   0  0  0  0  0  0  0  0  0  0  0  0
   12.2270   -8.1716   -7.8240 O   0  0  0  0  0  0  0  0  0  0  0  0
   14.2514   -7.5151   -8.8492 C   0  0  0  0  0  0  0  0  0  0  0  0
   15.5325   -8.1000   -9.3641 C   0  0  0  0  0  0  0  0  0  0  0  0
   16.4163   -7.1037  -10.0072 C   0  0  2  0  0  0  0  0  0  0  0  0
   17.6624   -7.6718  -10.4840 N   0  0  0  0  0  0  0  0  0  0  0  0
   16.6982   -5.9626   -9.0983 C   0  0  0  0  0  0  0  0  0  0  0  0
   17.8740   -5.8112   -8.3894 O   0  0  0  0  0  0  0  0  0  0  0  0
   15.8360   -5.0490   -8.9306 O   0  0  0  0  0  0  0  0  0  0  0  0
  2  1  1  6
  2  3  1  0
  4  2  1  0
  4  5  1  1
  6  4  1  0
  7  6  2  0
  8 12  1  0
  8  6  1  0
  9  8  1  0
 10  9  1  0
 10 11  1  0
 11 12  1  0
 12 13  1  6
 13 14  2  0
 16 15  1  0
 17 16  2  0
 18 16  1  0
 19 18  1  0
 20 19  1  1
 21 20  1  0
 21 13  1  0
 22 20  1  0
 23 22  1  0
 24 22  2  0
M  END
$$$$
