TPQ.pdb
     RDKit          3D

 24 24  0  0  1  0  0  0  0  0999 V2000
   16.0918  -14.1230  -18.0312 C   0  0  0  0  0  0  0  0  0  0  0  0
   17.0111  -15.1631  -17.4527 C   0  0  1  0  0  0  0  0  0  0  0  0
   16.7899  -16.3511  -18.0692 O   0  0  0  0  0  0  0  0  0  0  0  0
   18.4476  -14.6885  -17.3959 C   0  0  2  0  0  0  0  0  0  0  0  0
   19.1808  -15.8738  -16.8980 N   0  0  0  0  0  0  0  0  0  0  0  0
   18.6304  -13.5386  -16.4646 C   0  0  0  0  0  0  0  0  0  0  0  0
   17.8858  -13.6099  -15.4380 O   0  0  0  0  0  0  0  0  0  0  0  0
   19.5314  -12.4928  -16.7008 N   0  0  0  0  0  0  0  0  0  0  0  0
   20.8620  -12.7651  -17.3114 C   0  0  0  0  0  0  0  0  0  0  0  0
   20.8670  -11.7263  -18.4062 C   0  0  0  0  0  0  0  0  0  0  0  0
   20.0105  -10.5927  -17.8719 C   0  0  0  0  0  0  0  0  0  0  0  0
   19.6065  -11.0985  -16.4865 C   0  0  1  0  0  0  0  0  0  0  0  0
   18.5013  -10.3718  -15.9216 C   0  0  0  0  0  0  0  0  0  0  0  0
   17.3495  -10.4107  -16.4081 O   0  0  0  0  0  0  0  0  0  0  0  0
   16.4516   -9.6511  -10.1867 N   0  0  0  0  0  0  0  0  0  0  0  0
   15.6177   -8.7751  -10.9202 C   0  0  0  0  0  0  0  0  0  0  0  0
   14.5953   -8.3156  -10.3901 O   0  0  0  0  0  0  0  0  0  0  0  0
   15.9788   -8.4261  -12.3018 C   0  0  0  0  0  0  0  0  0  0  0  0
   17.1766   -9.1540  -12.8347 C   0  0  0  0  0  0  0  0  0  0  0  0
   17.5320   -8.7668  -14.2171 C   0  0  2  0  0  0  0  0  0  0  0  0
   18.6230   -9.5494  -14.7648 N   0  0  0  0  0  0  0  0  0  0  0  0
   17.8549   -7.3194  -14.3085 C   0  0  0  0  0  0  0  0  0  0  0  0
   16.9464   -6.3467  -14.6781 O   0  0  0  0  0  0  0  0  0  0  0  0
   19.0226   -6.9053  -14.0419 O   0  0  0  0  0  0  0  0  0  0  0  0
  2  1  1  6
  2  3  1  0
  4  2  1  0
  4  5  1  1
  6  4  1  0
  7  6  2  0
  8 12  1  0
  8  6  1  0
  9  8  1  0
 10  9  1  0
 10 11  1  0
 11 12  1  0
 12 13  1  6
 13 14  2  0
 16 15  1  0
 17 16  2  0
 18 16  1  0
 19 18  1  0
 20 19  1  1
 21 20  1  0
 21 13  1  0
 22 20  1  0
 23 22  1  0
 24 22  2  0
M  END
$$$$
