TPQ.pdb
     RDKit          3D

 24 24  0  0  1  0  0  0  0  0999 V2000
   26.7913  -22.1639  -19.0747 C   0  0  0  0  0  0  0  0  0  0  0  0
   27.3592  -23.3198  -18.2980 C   0  0  1  0  0  0  0  0  0  0  0  0
   28.2176  -24.0129  -19.0873 O   0  0  0  0  0  0  0  0  0  0  0  0
   27.8809  -22.8958  -16.9416 C   0  0  2  0  0  0  0  0  0  0  0  0
   28.2967  -24.1729  -16.3198 N   0  0  0  0  0  0  0  0  0  0  0  0
   26.8347  -22.2331  -16.1114 C   0  0  0  0  0  0  0  0  0  0  0  0
   25.8310  -22.9797  -15.8913 O   0  0  0  0  0  0  0  0  0  0  0  0
   26.9520  -20.9245  -15.6262 N   0  0  0  0  0  0  0  0  0  0  0  0
   28.2855  -20.3697  -15.2637 C   0  0  0  0  0  0  0  0  0  0  0  0
   28.2362  -19.0579  -16.0082 C   0  0  0  0  0  0  0  0  0  0  0  0
   26.7643  -18.6897  -16.0523 C   0  0  0  0  0  0  0  0  0  0  0  0
   26.1046  -19.8435  -15.2960 C   0  0  1  0  0  0  0  0  0  0  0  0
   24.6843  -19.9189  -15.5106 C   0  0  0  0  0  0  0  0  0  0  0  0
   24.1784  -20.0080  -16.6512 O   0  0  0  0  0  0  0  0  0  0  0  0
   20.2648  -21.8930  -11.3542 N   0  0  0  0  0  0  0  0  0  0  0  0
   19.5104  -21.5604  -12.5036 C   0  0  0  0  0  0  0  0  0  0  0  0
   18.2986  -21.8208  -12.5373 O   0  0  0  0  0  0  0  0  0  0  0  0
   20.1794  -20.9118  -13.6407 C   0  0  0  0  0  0  0  0  0  0  0  0
   21.6437  -20.6592  -13.4396 C   0  0  0  0  0  0  0  0  0  0  0  0
   22.3135  -20.1042  -14.6357 C   0  0  2  0  0  0  0  0  0  0  0  0
   23.7365  -19.8986  -14.4473 N   0  0  0  0  0  0  0  0  0  0  0  0
   21.6753  -18.8363  -15.0749 C   0  0  0  0  0  0  0  0  0  0  0  0
   20.6033  -18.7711  -15.9437 O   0  0  0  0  0  0  0  0  0  0  0  0
   22.1078  -17.7219  -14.6540 O   0  0  0  0  0  0  0  0  0  0  0  0
  2  1  1  6
  2  3  1  0
  4  2  1  0
  4  5  1  1
  6  4  1  0
  7  6  2  0
  8 12  1  0
  8  6  1  0
  9  8  1  0
 10  9  1  0
 10 11  1  0
 11 12  1  0
 12 13  1  6
 13 14  2  0
 16 15  1  0
 17 16  2  0
 18 16  1  0
 19 18  1  0
 20 19  1  1
 21 20  1  0
 21 13  1  0
 22 20  1  0
 23 22  1  0
 24 22  2  0
M  END
$$$$
