TPQ.pdb
     RDKit          3D

 24 24  0  0  1  0  0  0  0  0999 V2000
   23.5065  -11.1931  -14.9191 C   0  0  0  0  0  0  0  0  0  0  0  0
   22.5925  -11.4465  -16.0861 C   0  0  1  0  0  0  0  0  0  0  0  0
   22.9077  -12.6380  -16.6531 O   0  0  0  0  0  0  0  0  0  0  0  0
   21.1369  -11.2319  -15.7295 C   0  0  2  0  0  0  0  0  0  0  0  0
   20.4188  -11.6485  -16.9547 N   0  0  0  0  0  0  0  0  0  0  0  0
   20.8333   -9.8073  -15.4113 C   0  0  0  0  0  0  0  0  0  0  0  0
   21.4867   -8.9894  -16.1305 O   0  0  0  0  0  0  0  0  0  0  0  0
   19.9209   -9.4172  -14.4230 N   0  0  0  0  0  0  0  0  0  0  0  0
   18.6370  -10.1509  -14.2478 C   0  0  0  0  0  0  0  0  0  0  0  0
   18.6704  -10.3882  -12.7578 C   0  0  0  0  0  0  0  0  0  0  0  0
   19.4632   -9.2225  -12.1950 C   0  0  0  0  0  0  0  0  0  0  0  0
   19.7964   -8.4060  -13.4444 C   0  0  1  0  0  0  0  0  0  0  0  0
   20.8463   -7.4472  -13.2273 C   0  0  0  0  0  0  0  0  0  0  0  0
   22.0037   -7.7795  -12.8886 O   0  0  0  0  0  0  0  0  0  0  0  0
   24.1822   -3.7463  -16.2526 N   0  0  0  0  0  0  0  0  0  0  0  0
   22.9619   -4.2856  -16.7225 C   0  0  0  0  0  0  0  0  0  0  0  0
   22.5984   -4.0560  -17.8855 O   0  0  0  0  0  0  0  0  0  0  0  0
   22.1441   -5.1091  -15.8202 C   0  0  0  0  0  0  0  0  0  0  0  0
   22.7243   -5.2948  -14.4500 C   0  0  0  0  0  0  0  0  0  0  0  0
   21.7439   -5.0815  -13.3634 C   0  0  2  0  0  0  0  0  0  0  0  0
   20.6587   -6.0432  -13.3789 N   0  0  0  0  0  0  0  0  0  0  0  0
   21.1944   -3.7014  -13.3925 C   0  0  0  0  0  0  0  0  0  0  0  0
   19.8788   -3.3993  -13.6858 O   0  0  0  0  0  0  0  0  0  0  0  0
   21.9413   -2.7089  -13.1410 O   0  0  0  0  0  0  0  0  0  0  0  0
  2  1  1  1
  2  3  1  0
  4  2  1  0
  4  5  1  6
  6  4  1  0
  7  6  2  0
  8 12  1  0
  8  6  1  0
  9  8  1  0
 10  9  1  0
 10 11  1  0
 11 12  1  0
 12 13  1  1
 13 14  2  0
 16 15  1  0
 17 16  2  0
 18 16  1  0
 19 18  1  0
 20 19  1  6
 21 20  1  0
 21 13  1  0
 22 20  1  0
 23 22  1  0
 24 22  2  0
M  END
$$$$
