TPQ.pdb
     RDKit          3D

 24 24  0  0  1  0  0  0  0  0999 V2000
   24.4237  -21.4586  -17.2743 C   0  0  0  0  0  0  0  0  0  0  0  0
   25.0653  -22.8174  -17.2136 C   0  0  1  0  0  0  0  0  0  0  0  0
   25.4976  -23.1657  -18.4515 O   0  0  0  0  0  0  0  0  0  0  0  0
   26.0752  -22.9232  -16.0907 C   0  0  2  0  0  0  0  0  0  0  0  0
   26.5413  -24.3250  -16.1798 N   0  0  0  0  0  0  0  0  0  0  0  0
   25.4683  -22.6642  -14.7537 C   0  0  0  0  0  0  0  0  0  0  0  0
   24.5120  -23.4548  -14.4826 O   0  0  0  0  0  0  0  0  0  0  0  0
   25.9113  -21.6544  -13.8902 N   0  0  0  0  0  0  0  0  0  0  0  0
   27.3580  -21.3113  -13.8079 C   0  0  0  0  0  0  0  0  0  0  0  0
   27.2822  -19.8117  -13.9596 C   0  0  0  0  0  0  0  0  0  0  0  0
   25.9320  -19.4291  -13.3812 C   0  0  0  0  0  0  0  0  0  0  0  0
   25.3644  -20.7753  -12.9291 C   0  0  1  0  0  0  0  0  0  0  0  0
   23.9486  -20.7342  -12.6785 C   0  0  0  0  0  0  0  0  0  0  0  0
   23.1085  -20.5433  -13.5854 O   0  0  0  0  0  0  0  0  0  0  0  0
   20.8701  -23.1316   -7.8484 N   0  0  0  0  0  0  0  0  0  0  0  0
   19.8265  -22.4080   -8.4714 C   0  0  0  0  0  0  0  0  0  0  0  0
   18.6483  -22.6547   -8.1746 O   0  0  0  0  0  0  0  0  0  0  0  0
   20.1593  -21.3752   -9.4632 C   0  0  0  0  0  0  0  0  0  0  0  0
   21.6280  -21.1970   -9.7073 C   0  0  0  0  0  0  0  0  0  0  0  0
   21.9582  -20.9132  -11.1207 C   0  0  2  0  0  0  0  0  0  0  0  0
   23.3846  -20.9069  -11.3818 N   0  0  0  0  0  0  0  0  0  0  0  0
   21.3582  -19.6304  -11.5703 C   0  0  0  0  0  0  0  0  0  0  0  0
   20.1461  -19.5317  -12.2254 O   0  0  0  0  0  0  0  0  0  0  0  0
   21.9597  -18.5343  -11.3633 O   0  0  0  0  0  0  0  0  0  0  0  0
  2  1  1  6
  2  3  1  0
  4  2  1  0
  4  5  1  1
  6  4  1  0
  7  6  2  0
  8 12  1  0
  8  6  1  0
  9  8  1  0
 10  9  1  0
 10 11  1  0
 11 12  1  0
 12 13  1  6
 13 14  2  0
 16 15  1  0
 17 16  2  0
 18 16  1  0
 19 18  1  0
 20 19  1  1
 21 20  1  0
 21 13  1  0
 22 20  1  0
 23 22  1  0
 24 22  2  0
M  END
$$$$
