TPQ.pdb
     RDKit          3D

 24 24  0  0  1  0  0  0  0  0999 V2000
   33.3544   -8.7128  -20.5914 C   0  0  0  0  0  0  0  0  0  0  0  0
   32.4585   -9.9156  -20.7022 C   0  0  1  0  0  0  0  0  0  0  0  0
   32.2694  -10.2158  -22.0117 O   0  0  0  0  0  0  0  0  0  0  0  0
   32.9109  -11.0498  -19.8075 C   0  0  2  0  0  0  0  0  0  0  0  0
   31.9228  -12.1172  -20.0811 N   0  0  0  0  0  0  0  0  0  0  0  0
   32.8858  -10.6799  -18.3634 C   0  0  0  0  0  0  0  0  0  0  0  0
   31.7482  -10.2670  -17.9778 O   0  0  0  0  0  0  0  0  0  0  0  0
   34.0022  -10.7805  -17.5238 N   0  0  0  0  0  0  0  0  0  0  0  0
   35.0729  -11.7761  -17.8063 C   0  0  0  0  0  0  0  0  0  0  0  0
   36.2898  -10.8886  -17.7106 C   0  0  0  0  0  0  0  0  0  0  0  0
   35.9032   -9.8021  -16.7236 C   0  0  0  0  0  0  0  0  0  0  0  0
   34.4786  -10.1946  -16.3299 C   0  0  1  0  0  0  0  0  0  0  0  0
   33.7587   -9.1296  -15.6847 C   0  0  0  0  0  0  0  0  0  0  0  0
   33.7550   -8.9731  -14.4436 O   0  0  0  0  0  0  0  0  0  0  0  0
   35.8023   -5.0555  -13.8885 N   0  0  0  0  0  0  0  0  0  0  0  0
   34.9889   -4.1396  -14.5956 C   0  0  0  0  0  0  0  0  0  0  0  0
   35.0098   -2.9384  -14.2890 O   0  0  0  0  0  0  0  0  0  0  0  0
   34.1301   -4.6305  -15.6831 C   0  0  0  0  0  0  0  0  0  0  0  0
   34.2211   -6.1068  -15.9297 C   0  0  0  0  0  0  0  0  0  0  0  0
   32.9019   -6.7690  -16.0227 C   0  0  2  0  0  0  0  0  0  0  0  0
   32.9917   -8.1661  -16.4007 N   0  0  0  0  0  0  0  0  0  0  0  0
   31.9998   -6.0506  -16.9596 C   0  0  0  0  0  0  0  0  0  0  0  0
   31.2406   -4.9506  -16.6110 O   0  0  0  0  0  0  0  0  0  0  0  0
   31.8864   -6.4356  -18.1618 O   0  0  0  0  0  0  0  0  0  0  0  0
  2  1  1  6
  2  3  1  0
  4  2  1  0
  4  5  1  1
  6  4  1  0
  7  6  2  0
  8 12  1  0
  8  6  1  0
  9  8  1  0
 10  9  1  0
 10 11  1  0
 11 12  1  0
 12 13  1  6
 13 14  2  0
 16 15  1  0
 17 16  2  0
 18 16  1  0
 19 18  1  0
 20 19  1  6
 21 20  1  0
 21 13  1  0
 22 20  1  0
 23 22  1  0
 24 22  2  0
M  END
$$$$
