TPQ.pdb
     RDKit          3D

 24 24  0  0  1  0  0  0  0  0999 V2000
   28.2777  -18.9131  -16.1171 C   0  0  0  0  0  0  0  0  0  0  0  0
   28.0578  -19.2742  -14.6739 C   0  0  1  0  0  0  0  0  0  0  0  0
   26.9691  -18.6132  -14.2063 O   0  0  0  0  0  0  0  0  0  0  0  0
   28.0882  -20.7708  -14.4479 C   0  0  2  0  0  0  0  0  0  0  0  0
   27.0586  -21.2794  -15.3815 N   0  0  0  0  0  0  0  0  0  0  0  0
   27.7430  -21.1415  -13.0456 C   0  0  0  0  0  0  0  0  0  0  0  0
   26.4955  -21.0902  -12.8128 O   0  0  0  0  0  0  0  0  0  0  0  0
   28.6982  -21.5086  -12.0894 N   0  0  0  0  0  0  0  0  0  0  0  0
   29.8452  -22.3814  -12.4635 C   0  0  0  0  0  0  0  0  0  0  0  0
   30.9856  -21.5807  -11.8838 C   0  0  0  0  0  0  0  0  0  0  0  0
   30.3837  -20.8462  -10.6996 C   0  0  0  0  0  0  0  0  0  0  0  0
   28.9311  -21.3242  -10.7083 C   0  0  1  0  0  0  0  0  0  0  0  0
   28.0623  -20.5010   -9.9106 C   0  0  0  0  0  0  0  0  0  0  0  0
   27.7838  -19.3204  -10.2163 O   0  0  0  0  0  0  0  0  0  0  0  0
   22.6874  -21.5630   -7.5622 N   0  0  0  0  0  0  0  0  0  0  0  0
   23.1150  -21.0199   -8.7963 C   0  0  0  0  0  0  0  0  0  0  0  0
   22.3259  -20.9744   -9.7516 O   0  0  0  0  0  0  0  0  0  0  0  0
   24.4913  -20.5196   -8.9241 C   0  0  0  0  0  0  0  0  0  0  0  0
   25.2833  -20.5446   -7.6511 C   0  0  0  0  0  0  0  0  0  0  0  0
   26.6841  -20.1018   -7.8221 C   0  0  2  0  0  0  0  0  0  0  0  0
   27.4473  -20.9577   -8.7096 N   0  0  0  0  0  0  0  0  0  0  0  0
   27.3790  -19.9850   -6.5141 C   0  0  0  0  0  0  0  0  0  0  0  0
   28.4155  -20.8055   -6.1135 O   0  0  0  0  0  0  0  0  0  0  0  0
   27.0330  -19.0938   -5.6820 O   0  0  0  0  0  0  0  0  0  0  0  0
  2  1  1  6
  2  3  1  0
  4  2  1  0
  4  5  1  6
  6  4  1  0
  7  6  2  0
  8 12  1  0
  8  6  1  0
  9  8  1  0
 10  9  1  0
 10 11  1  0
 11 12  1  0
 12 13  1  6
 13 14  2  0
 16 15  1  0
 17 16  2  0
 18 16  1  0
 19 18  1  0
 20 19  1  1
 21 20  1  0
 21 13  1  0
 22 20  1  0
 23 22  1  0
 24 22  2  0
M  END
$$$$
