DNV.pdb
     RDKit          3D

 24 23  0  0  1  0  0  0  0  0999 V2000
   17.7911  -12.3486  -15.1150 N   0  0  0  0  0  0  0  0  0  0  0  0
   17.0609  -11.0478  -15.1790 C   0  0  1  0  0  0  0  0  0  0  0  0
   15.6071  -11.4160  -15.1324 C   0  0  0  0  0  0  0  0  0  0  0  0
   15.0196  -11.9453  -16.3617 C   0  0  0  0  0  0  0  0  0  0  0  0
   15.6742  -11.9247  -17.4697 O   0  0  0  0  0  0  0  0  0  0  0  0
   17.5225  -10.3229  -13.9534 C   0  0  0  0  0  0  0  0  0  0  0  0
   17.3057  -10.8680  -12.8403 O   0  0  0  0  0  0  0  0  0  0  0  0
   13.7599  -12.4941  -16.4564 O   0  0  0  0  0  0  0  0  0  0  0  0
   20.6898   -5.3931  -12.1627 N   0  0  0  0  0  0  0  0  0  0  0  0
   20.4407   -6.7990  -12.1051 C   0  0  0  0  0  0  0  0  0  0  0  0
   20.6534   -7.3638  -10.9984 O   0  0  0  0  0  0  0  0  0  0  0  0
   19.9600   -7.4765  -13.3252 C   0  0  0  0  0  0  0  0  0  0  0  0
   18.6795   -8.2525  -12.9637 C   0  0  2  0  0  0  0  0  0  0  0  0
   18.1759   -9.0893  -13.9830 N   0  0  0  0  0  0  0  0  0  0  0  0
   17.7706   -7.3336  -12.3149 C   0  0  0  0  0  0  0  0  0  0  0  0
   17.1525   -6.5001  -13.0121 O   0  0  0  0  0  0  0  0  0  0  0  0
   14.9536   -6.1053   -8.4050 C   0  0  0  0  0  0  0  0  0  0  0  0
   16.0125   -7.0159   -8.9863 C   0  0  1  0  0  0  0  0  0  0  0  0
   15.2884   -8.3084   -9.3271 C   0  0  0  0  0  0  0  0  0  0  0  0
   16.5958   -6.4556  -10.2366 C   0  0  2  0  0  0  0  0  0  0  0  0
   17.5201   -7.3027  -10.9246 N   0  0  0  0  0  0  0  0  0  0  0  0
   17.2442   -5.1454   -9.9855 C   0  0  0  0  0  0  0  0  0  0  0  0
   16.4895   -4.0029   -9.6908 O   0  0  0  0  0  0  0  0  0  0  0  0
   18.4964   -4.9812  -10.0208 O   0  0  0  0  0  0  0  0  0  0  0  0
  2  1  1  1
  2  3  1  0
  3  4  1  0
  4  8  1  0
  4  5  2  0
  6  2  1  0
  7  6  2  0
  9 10  1  0
 10 12  1  0
 10 11  2  0
 13 12  1  6
 13 14  1  0
 13 15  1  0
 14  6  1  0
 15 21  1  0
 16 15  2  0
 18 17  1  6
 18 19  1  0
 20 18  1  0
 20 21  1  1
 22 23  1  0
 22 20  1  0
 24 22  2  0
M  END
$$$$
