DNV.pdb
     RDKit          3D

 24 23  0  0  1  0  0  0  0  0999 V2000
   16.3754  -12.2259  -14.5354 N   0  0  0  0  0  0  0  0  0  0  0  0
   17.2861  -12.4431  -15.6986 C   0  0  1  0  0  0  0  0  0  0  0  0
   16.4286  -13.0871  -16.7480 C   0  0  0  0  0  0  0  0  0  0  0  0
   15.8365  -14.3814  -16.4149 C   0  0  0  0  0  0  0  0  0  0  0  0
   16.2778  -15.0752  -15.4249 O   0  0  0  0  0  0  0  0  0  0  0  0
   17.7251  -11.0601  -16.0666 C   0  0  0  0  0  0  0  0  0  0  0  0
   18.3830  -10.9237  -17.1304 O   0  0  0  0  0  0  0  0  0  0  0  0
   14.7932  -14.9659  -17.0979 O   0  0  0  0  0  0  0  0  0  0  0  0
   14.3740   -7.6790  -16.1396 N   0  0  0  0  0  0  0  0  0  0  0  0
   15.7822   -7.6480  -16.3810 C   0  0  0  0  0  0  0  0  0  0  0  0
   16.1485   -7.7056  -17.5858 O   0  0  0  0  0  0  0  0  0  0  0  0
   16.6903   -7.5520  -15.2213 C   0  0  0  0  0  0  0  0  0  0  0  0
   17.8248   -8.5745  -15.4214 C   0  0  2  0  0  0  0  0  0  0  0  0
   17.4424   -9.9280  -15.2999 N   0  0  0  0  0  0  0  0  0  0  0  0
   18.9753   -8.1141  -14.6757 C   0  0  0  0  0  0  0  0  0  0  0  0
   18.9856   -8.2509  -13.4332 O   0  0  0  0  0  0  0  0  0  0  0  0
   23.7809   -7.4470  -14.2897 C   0  0  0  0  0  0  0  0  0  0  0  0
   22.5625   -7.8170  -15.1064 C   0  0  1  0  0  0  0  0  0  0  0  0
   22.4116   -9.3211  -14.9446 C   0  0  0  0  0  0  0  0  0  0  0  0
   21.3312   -7.1587  -14.5889 C   0  0  2  0  0  0  0  0  0  0  0  0
   20.1140   -7.5088  -15.2533 N   0  0  0  0  0  0  0  0  0  0  0  0
   21.4704   -5.6820  -14.5935 C   0  0  0  0  0  0  0  0  0  0  0  0
   22.1334   -5.0090  -13.5595 O   0  0  0  0  0  0  0  0  0  0  0  0
   21.0079   -4.9517  -15.5149 O   0  0  0  0  0  0  0  0  0  0  0  0
  2  1  1  1
  2  3  1  0
  3  4  1  0
  4  8  1  0
  4  5  2  0
  6  2  1  0
  7  6  2  0
  9 10  1  0
 10 12  1  0
 10 11  2  0
 13 12  1  1
 13 14  1  0
 13 15  1  0
 14  6  1  0
 15 21  1  0
 16 15  2  0
 18 17  1  1
 18 19  1  0
 20 18  1  0
 20 21  1  6
 22 23  1  0
 22 20  1  0
 24 22  2  0
M  END
$$$$
