DNV.pdb
     RDKit          3D

 24 23  0  0  1  0  0  0  0  0999 V2000
   18.3025  -13.0088  -17.7814 N   0  0  0  0  0  0  0  0  0  0  0  0
   18.5294  -12.5372  -16.3830 C   0  0  1  0  0  0  0  0  0  0  0  0
   19.7711  -13.2476  -15.9303 C   0  0  0  0  0  0  0  0  0  0  0  0
   19.6200  -14.6391  -15.5089 C   0  0  0  0  0  0  0  0  0  0  0  0
   18.4562  -15.1827  -15.4278 O   0  0  0  0  0  0  0  0  0  0  0  0
   18.7203  -11.0603  -16.5349 C   0  0  0  0  0  0  0  0  0  0  0  0
   19.6390  -10.6694  -17.3008 O   0  0  0  0  0  0  0  0  0  0  0  0
   20.6616  -15.4732  -15.1686 O   0  0  0  0  0  0  0  0  0  0  0  0
   14.3246   -8.7318  -16.0966 N   0  0  0  0  0  0  0  0  0  0  0  0
   15.6413   -8.3767  -16.5237 C   0  0  0  0  0  0  0  0  0  0  0  0
   15.8559   -8.3996  -17.7657 O   0  0  0  0  0  0  0  0  0  0  0  0
   16.6376   -8.0143  -15.4966 C   0  0  0  0  0  0  0  0  0  0  0  0
   17.9689   -8.6954  -15.8661 C   0  0  2  0  0  0  0  0  0  0  0  0
   17.9384  -10.1067  -15.8801 N   0  0  0  0  0  0  0  0  0  0  0  0
   19.0250   -8.0365  -15.1300 C   0  0  0  0  0  0  0  0  0  0  0  0
   19.2072   -8.3395  -13.9309 O   0  0  0  0  0  0  0  0  0  0  0  0
   22.3808   -6.2019  -17.1183 C   0  0  0  0  0  0  0  0  0  0  0  0
   22.3412   -6.7640  -15.7144 C   0  0  1  0  0  0  0  0  0  0  0  0
   23.4395   -6.0342  -14.9579 C   0  0  0  0  0  0  0  0  0  0  0  0
   21.0400   -6.4862  -15.0457 C   0  0  2  0  0  0  0  0  0  0  0  0
   19.8866   -7.0558  -15.6708 N   0  0  0  0  0  0  0  0  0  0  0  0
   20.8228   -5.0283  -14.8801 C   0  0  0  0  0  0  0  0  0  0  0  0
   21.5353   -4.2885  -13.9279 O   0  0  0  0  0  0  0  0  0  0  0  0
   19.9959   -4.3740  -15.5762 O   0  0  0  0  0  0  0  0  0  0  0  0
  2  1  1  6
  2  3  1  0
  3  4  1  0
  4  8  1  0
  4  5  2  0
  6  2  1  0
  7  6  2  0
  9 10  1  0
 10 12  1  0
 10 11  2  0
 13 12  1  1
 13 14  1  0
 13 15  1  0
 14  6  1  0
 15 21  1  0
 16 15  2  0
 18 17  1  6
 18 19  1  0
 20 18  1  0
 20 21  1  6
 22 23  1  0
 22 20  1  0
 24 22  2  0
M  END
$$$$
