DNV.pdb
     RDKit          3D

 24 23  0  0  1  0  0  0  0  0999 V2000
   23.6943  -19.7136  -18.2624 N   0  0  0  0  0  0  0  0  0  0  0  0
   24.8390  -18.9908  -17.6325 C   0  0  1  0  0  0  0  0  0  0  0  0
   24.8243  -17.6248  -18.2530 C   0  0  0  0  0  0  0  0  0  0  0  0
   25.2882  -17.5218  -19.6354 C   0  0  0  0  0  0  0  0  0  0  0  0
   25.5703  -18.5756  -20.3184 O   0  0  0  0  0  0  0  0  0  0  0  0
   24.4906  -18.9781  -16.1768 C   0  0  0  0  0  0  0  0  0  0  0  0
   25.2368  -18.3194  -15.4070 O   0  0  0  0  0  0  0  0  0  0  0  0
   25.4651  -16.3386  -20.3175 O   0  0  0  0  0  0  0  0  0  0  0  0
   21.4265  -17.6943  -14.6913 N   0  0  0  0  0  0  0  0  0  0  0  0
   20.6868  -18.8890  -14.4312 C   0  0  0  0  0  0  0  0  0  0  0  0
   19.4303  -18.7879  -14.4456 O   0  0  0  0  0  0  0  0  0  0  0  0
   21.4352  -20.1340  -14.1695 C   0  0  0  0  0  0  0  0  0  0  0  0
   22.9372  -19.8235  -14.3122 C   0  0  2  0  0  0  0  0  0  0  0  0
   23.3917  -19.6496  -15.6373 N   0  0  0  0  0  0  0  0  0  0  0  0
   23.6626  -20.7284  -13.4483 C   0  0  0  0  0  0  0  0  0  0  0  0
   23.7682  -21.9288  -13.7810 O   0  0  0  0  0  0  0  0  0  0  0  0
   27.0777  -21.0839  -12.6642 C   0  0  0  0  0  0  0  0  0  0  0  0
   26.4616  -21.0151  -11.2843 C   0  0  1  0  0  0  0  0  0  0  0  0
   26.7508  -19.6089  -10.7844 C   0  0  0  0  0  0  0  0  0  0  0  0
   24.9857  -21.2080  -11.3293 C   0  0  2  0  0  0  0  0  0  0  0  0
   24.2753  -20.3549  -12.2310 N   0  0  0  0  0  0  0  0  0  0  0  0
   24.3869  -21.0798   -9.9784 C   0  0  0  0  0  0  0  0  0  0  0  0
   23.4531  -20.0774   -9.6869 O   0  0  0  0  0  0  0  0  0  0  0  0
   24.6764  -21.8540   -9.0228 O   0  0  0  0  0  0  0  0  0  0  0  0
  2  1  1  6
  2  3  1  0
  3  4  1  0
  4  8  1  0
  4  5  2  0
  6  2  1  0
  7  6  2  0
  9 10  1  0
 10 12  1  0
 10 11  2  0
 13 12  1  6
 13 14  1  0
 13 15  1  0
 14  6  1  0
 15 21  1  0
 16 15  2  0
 18 17  1  6
 18 19  1  0
 20 18  1  0
 20 21  1  6
 22 23  1  0
 22 20  1  0
 24 22  2  0
M  END
$$$$
