DNV.pdb
     RDKit          3D

 24 23  0  0  1  0  0  0  0  0999 V2000
   15.0974  -10.9646  -13.1218 N   0  0  0  0  0  0  0  0  0  0  0  0
   15.2937   -9.8834  -14.1326 C   0  0  1  0  0  0  0  0  0  0  0  0
   13.9642   -9.7424  -14.8136 C   0  0  0  0  0  0  0  0  0  0  0  0
   13.7114  -10.6170  -15.9572 C   0  0  0  0  0  0  0  0  0  0  0  0
   14.6356  -11.3838  -16.4202 O   0  0  0  0  0  0  0  0  0  0  0  0
   15.6597   -8.6898  -13.3066 C   0  0  0  0  0  0  0  0  0  0  0  0
   14.7193   -8.0133  -12.8154 O   0  0  0  0  0  0  0  0  0  0  0  0
   12.5118  -10.7043  -16.6281 O   0  0  0  0  0  0  0  0  0  0  0  0
   17.6077   -4.9127  -10.3000 N   0  0  0  0  0  0  0  0  0  0  0  0
   17.8390   -6.2964  -10.0278 C   0  0  0  0  0  0  0  0  0  0  0  0
   18.7136   -6.5610   -9.1593 O   0  0  0  0  0  0  0  0  0  0  0  0
   17.0500   -7.2985  -10.7706 C   0  0  0  0  0  0  0  0  0  0  0  0
   17.5286   -7.2889  -12.2347 C   0  0  2  0  0  0  0  0  0  0  0  0
   16.9754   -8.2961  -13.0546 N   0  0  0  0  0  0  0  0  0  0  0  0
   18.9641   -7.1138  -12.2323 C   0  0  0  0  0  0  0  0  0  0  0  0
   19.6785   -7.9788  -11.6804 O   0  0  0  0  0  0  0  0  0  0  0  0
   22.7093   -6.1146  -15.0410 C   0  0  0  0  0  0  0  0  0  0  0  0
   21.2361   -6.1516  -14.6993 C   0  0  1  0  0  0  0  0  0  0  0  0
   20.7651   -7.5403  -15.1003 C   0  0  0  0  0  0  0  0  0  0  0  0
   21.0044   -5.9759  -13.2389 C   0  0  2  0  0  0  0  0  0  0  0  0
   19.6383   -6.0185  -12.8175 N   0  0  0  0  0  0  0  0  0  0  0  0
   21.6173   -4.7183  -12.7462 C   0  0  0  0  0  0  0  0  0  0  0  0
   22.9493   -4.6765  -12.3152 O   0  0  0  0  0  0  0  0  0  0  0  0
   20.9871   -3.6249  -12.6862 O   0  0  0  0  0  0  0  0  0  0  0  0
  2  1  1  1
  2  3  1  0
  3  4  1  0
  4  8  1  0
  4  5  2  0
  6  2  1  0
  7  6  2  0
  9 10  1  0
 10 12  1  0
 10 11  2  0
 13 12  1  1
 13 14  1  0
 13 15  1  0
 14  6  1  0
 15 21  1  0
 16 15  2  0
 18 17  1  1
 18 19  1  0
 20 18  1  0
 20 21  1  6
 22 23  1  0
 22 20  1  0
 24 22  2  0
M  END
$$$$
