DNV.pdb
     RDKit          3D

 24 23  0  0  1  0  0  0  0  0999 V2000
   18.3133  -11.1714  -15.7173 N   0  0  0  0  0  0  0  0  0  0  0  0
   17.6779   -9.9621  -16.3201 C   0  0  1  0  0  0  0  0  0  0  0  0
   16.2028  -10.1670  -16.1377 C   0  0  0  0  0  0  0  0  0  0  0  0
   15.5725  -11.1997  -16.9579 C   0  0  0  0  0  0  0  0  0  0  0  0
   14.7279  -12.0257  -16.4472 O   0  0  0  0  0  0  0  0  0  0  0  0
   18.2196   -8.8328  -15.5004 C   0  0  0  0  0  0  0  0  0  0  0  0
   17.7613   -8.6874  -14.3376 O   0  0  0  0  0  0  0  0  0  0  0  0
   15.8093  -11.3875  -18.3016 O   0  0  0  0  0  0  0  0  0  0  0  0
   20.7580   -4.6832  -14.1390 N   0  0  0  0  0  0  0  0  0  0  0  0
   21.6090   -5.8280  -14.0537 C   0  0  0  0  0  0  0  0  0  0  0  0
   22.6718   -5.6916  -13.3897 O   0  0  0  0  0  0  0  0  0  0  0  0
   21.1885   -7.0667  -14.7376 C   0  0  0  0  0  0  0  0  0  0  0  0
   19.8054   -6.8149  -15.3671 C   0  0  2  0  0  0  0  0  0  0  0  0
   19.1975   -7.9455  -15.9543 N   0  0  0  0  0  0  0  0  0  0  0  0
   19.8840   -5.5954  -16.1405 C   0  0  0  0  0  0  0  0  0  0  0  0
   20.6120   -5.5688  -17.1565 O   0  0  0  0  0  0  0  0  0  0  0  0
   17.1255   -3.9860  -17.9678 C   0  0  0  0  0  0  0  0  0  0  0  0
   17.7195   -2.8859  -17.1160 C   0  0  1  0  0  0  0  0  0  0  0  0
   16.8048   -2.7754  -15.9068 C   0  0  0  0  0  0  0  0  0  0  0  0
   19.0888   -3.2323  -16.6444 C   0  0  2  0  0  0  0  0  0  0  0  0
   19.1876   -4.4052  -15.8321 N   0  0  0  0  0  0  0  0  0  0  0  0
   19.7099   -2.0962  -15.9207 C   0  0  0  0  0  0  0  0  0  0  0  0
   20.0507   -0.9094  -16.5819 O   0  0  0  0  0  0  0  0  0  0  0  0
   19.9656   -2.1276  -14.6838 O   0  0  0  0  0  0  0  0  0  0  0  0
  2  1  1  1
  2  3  1  0
  3  4  1  0
  4  8  1  0
  4  5  2  0
  6  2  1  0
  7  6  2  0
  9 10  1  0
 10 12  1  0
 10 11  2  0
 13 12  1  6
 13 14  1  0
 13 15  1  0
 14  6  1  0
 15 21  1  0
 16 15  2  0
 18 17  1  6
 18 19  1  0
 20 18  1  0
 20 21  1  1
 22 23  1  0
 22 20  1  0
 24 22  2  0
M  END
$$$$
