DNV.pdb
     RDKit          3D

 24 23  0  0  1  0  0  0  0  0999 V2000
   20.9740  -10.2940  -15.4472 N   0  0  0  0  0  0  0  0  0  0  0  0
   20.8480   -8.8071  -15.4984 C   0  0  1  0  0  0  0  0  0  0  0  0
   20.3382   -8.5079  -16.8775 C   0  0  0  0  0  0  0  0  0  0  0  0
   21.2818   -8.6741  -17.9815 C   0  0  0  0  0  0  0  0  0  0  0  0
   22.5501   -8.5709  -17.7884 O   0  0  0  0  0  0  0  0  0  0  0  0
   19.8514   -8.4998  -14.4246 C   0  0  0  0  0  0  0  0  0  0  0  0
   18.8184   -9.2161  -14.3691 O   0  0  0  0  0  0  0  0  0  0  0  0
   20.9256   -8.9439  -19.2841 O   0  0  0  0  0  0  0  0  0  0  0  0
   18.8196   -5.2423   -9.4534 N   0  0  0  0  0  0  0  0  0  0  0  0
   18.8468   -6.5252  -10.0823 C   0  0  0  0  0  0  0  0  0  0  0  0
   17.9668   -7.3505   -9.7166 O   0  0  0  0  0  0  0  0  0  0  0  0
   19.8856   -6.7863  -11.0979 C   0  0  0  0  0  0  0  0  0  0  0  0
   19.1829   -6.9931  -12.4529 C   0  0  2  0  0  0  0  0  0  0  0  0
   20.0097   -7.4732  -13.4916 N   0  0  0  0  0  0  0  0  0  0  0  0
   18.3594   -5.8322  -12.7087 C   0  0  0  0  0  0  0  0  0  0  0  0
   18.9090   -4.7655  -13.0593 O   0  0  0  0  0  0  0  0  0  0  0  0
   14.3049   -6.0032  -14.0770 C   0  0  0  0  0  0  0  0  0  0  0  0
   15.2950   -4.8629  -14.1650 C   0  0  1  0  0  0  0  0  0  0  0  0
   14.4521   -3.6122  -14.3553 C   0  0  0  0  0  0  0  0  0  0  0  0
   16.0816   -4.7176  -12.9090 C   0  0  2  0  0  0  0  0  0  0  0  0
   16.9514   -5.8076  -12.5915 N   0  0  0  0  0  0  0  0  0  0  0  0
   15.1952   -4.4599  -11.7480 C   0  0  0  0  0  0  0  0  0  0  0  0
   14.5657   -3.2212  -11.5721 O   0  0  0  0  0  0  0  0  0  0  0  0
   14.9564   -5.3271  -10.8607 O   0  0  0  0  0  0  0  0  0  0  0  0
  2  1  1  6
  2  3  1  0
  3  4  1  0
  4  8  1  0
  4  5  2  0
  6  2  1  0
  7  6  2  0
  9 10  1  0
 10 12  1  0
 10 11  2  0
 13 12  1  1
 13 14  1  0
 13 15  1  0
 14  6  1  0
 15 21  1  0
 16 15  2  0
 18 17  1  1
 18 19  1  0
 20 18  1  0
 20 21  1  1
 22 23  1  0
 22 20  1  0
 24 22  2  0
M  END
$$$$
