DNV.pdb
     RDKit          3D

 24 23  0  0  1  0  0  0  0  0999 V2000
   19.1055  -10.9841  -17.7068 N   0  0  0  0  0  0  0  0  0  0  0  0
   18.1121  -10.6874  -16.6323 C   0  0  1  0  0  0  0  0  0  0  0  0
   17.7298  -12.0276  -16.0762 C   0  0  0  0  0  0  0  0  0  0  0  0
   16.4465  -12.5798  -16.5060 C   0  0  0  0  0  0  0  0  0  0  0  0
   15.7821  -12.0386  -17.4662 O   0  0  0  0  0  0  0  0  0  0  0  0
   18.8819   -9.8470  -15.6618 C   0  0  0  0  0  0  0  0  0  0  0  0
   18.2481   -9.3468  -14.6968 O   0  0  0  0  0  0  0  0  0  0  0  0
   15.8426  -13.6858  -15.9502 O   0  0  0  0  0  0  0  0  0  0  0  0
   22.4262   -9.0875  -17.2755 N   0  0  0  0  0  0  0  0  0  0  0  0
   23.1797   -9.5298  -16.1448 C   0  0  0  0  0  0  0  0  0  0  0  0
   24.3456   -9.9507  -16.3745 O   0  0  0  0  0  0  0  0  0  0  0  0
   22.5489   -9.4624  -14.8120 C   0  0  0  0  0  0  0  0  0  0  0  0
   21.1481   -8.8444  -14.9809 C   0  0  2  0  0  0  0  0  0  0  0  0
   20.2510   -9.5957  -15.7706 N   0  0  0  0  0  0  0  0  0  0  0  0
   21.3147   -7.4386  -15.2761 C   0  0  0  0  0  0  0  0  0  0  0  0
   21.3790   -7.0743  -16.4702 O   0  0  0  0  0  0  0  0  0  0  0  0
   20.1510   -2.8534  -14.5487 C   0  0  0  0  0  0  0  0  0  0  0  0
   20.0704   -4.3452  -14.3115 C   0  0  1  0  0  0  0  0  0  0  0  0
   19.0914   -4.8655  -15.3516 C   0  0  0  0  0  0  0  0  0  0  0  0
   21.3860   -5.0093  -14.5249 C   0  0  2  0  0  0  0  0  0  0  0  0
   21.4124   -6.4215  -14.3000 N   0  0  0  0  0  0  0  0  0  0  0  0
   22.4462   -4.3749  -13.7043 C   0  0  0  0  0  0  0  0  0  0  0  0
   23.0763   -3.1930  -14.1142 O   0  0  0  0  0  0  0  0  0  0  0  0
   22.8401   -4.8526  -12.6029 O   0  0  0  0  0  0  0  0  0  0  0  0
  2  1  1  6
  2  3  1  0
  3  4  1  0
  4  8  1  0
  4  5  2  0
  6  2  1  0
  7  6  2  0
  9 10  1  0
 10 12  1  0
 10 11  2  0
 13 12  1  6
 13 14  1  0
 13 15  1  0
 14  6  1  0
 15 21  1  0
 16 15  2  0
 18 17  1  6
 18 19  1  0
 20 18  1  0
 20 21  1  1
 22 23  1  0
 22 20  1  0
 24 22  2  0
M  END
$$$$
