DNV.pdb
     RDKit          3D

 24 23  0  0  1  0  0  0  0  0999 V2000
   26.8149  -20.7739  -15.5790 N   0  0  0  0  0  0  0  0  0  0  0  0
   25.9604  -21.9814  -15.7819 C   0  0  1  0  0  0  0  0  0  0  0  0
   26.8683  -23.1475  -15.5224 C   0  0  0  0  0  0  0  0  0  0  0  0
   27.9385  -23.3801  -16.4905 C   0  0  0  0  0  0  0  0  0  0  0  0
   28.1194  -22.5789  -17.4814 O   0  0  0  0  0  0  0  0  0  0  0  0
   24.8869  -21.8320  -14.7494 C   0  0  0  0  0  0  0  0  0  0  0  0
   25.1686  -22.1592  -13.5675 O   0  0  0  0  0  0  0  0  0  0  0  0
   28.8225  -24.4351  -16.4444 O   0  0  0  0  0  0  0  0  0  0  0  0
   21.3045  -20.0688  -11.4946 N   0  0  0  0  0  0  0  0  0  0  0  0
   21.1027  -19.6504  -12.8459 C   0  0  0  0  0  0  0  0  0  0  0  0
   19.9365  -19.2843  -13.1541 O   0  0  0  0  0  0  0  0  0  0  0  0
   22.2555  -19.6763  -13.7675 C   0  0  0  0  0  0  0  0  0  0  0  0
   22.4719  -21.1341  -14.2156 C   0  0  2  0  0  0  0  0  0  0  0  0
   23.6060  -21.3512  -15.0277 N   0  0  0  0  0  0  0  0  0  0  0  0
   21.1981  -21.6574  -14.6570 C   0  0  0  0  0  0  0  0  0  0  0  0
   20.7582  -21.3156  -15.7762 O   0  0  0  0  0  0  0  0  0  0  0  0
   20.1947  -25.4299  -14.3096 C   0  0  0  0  0  0  0  0  0  0  0  0
   18.9997  -24.5864  -13.9235 C   0  0  1  0  0  0  0  0  0  0  0  0
   18.9335  -24.6535  -12.4062 C   0  0  0  0  0  0  0  0  0  0  0  0
   19.1751  -23.1640  -14.3279 C   0  0  2  0  0  0  0  0  0  0  0  0
   20.3936  -22.5446  -13.9071 N   0  0  0  0  0  0  0  0  0  0  0  0
   18.0343  -22.3326  -13.8724 C   0  0  0  0  0  0  0  0  0  0  0  0
   16.7641  -22.4589  -14.4488 O   0  0  0  0  0  0  0  0  0  0  0  0
   18.1355  -21.4736  -12.9514 O   0  0  0  0  0  0  0  0  0  0  0  0
  2  1  1  1
  2  3  1  0
  3  4  1  0
  4  8  1  0
  4  5  2  0
  6  2  1  0
  7  6  2  0
  9 10  1  0
 10 12  1  0
 10 11  2  0
 13 12  1  6
 13 14  1  0
 13 15  1  0
 14  6  1  0
 15 21  1  0
 16 15  2  0
 18 17  1  1
 18 19  1  0
 20 18  1  0
 20 21  1  1
 22 23  1  0
 22 20  1  0
 24 22  2  0
M  END
$$$$
