DNV.pdb
     RDKit          3D

 24 23  0  0  1  0  0  0  0  0999 V2000
   25.0259  -17.9011  -18.9026 N   0  0  0  0  0  0  0  0  0  0  0  0
   25.3829  -19.1839  -18.2271 C   0  0  1  0  0  0  0  0  0  0  0  0
   26.8830  -19.2167  -18.2239 C   0  0  0  0  0  0  0  0  0  0  0  0
   27.5365  -19.6845  -19.4449 C   0  0  0  0  0  0  0  0  0  0  0  0
   26.8464  -20.0053  -20.4829 O   0  0  0  0  0  0  0  0  0  0  0  0
   24.7959  -19.0374  -16.8580 C   0  0  0  0  0  0  0  0  0  0  0  0
   25.0369  -17.9717  -16.2340 O   0  0  0  0  0  0  0  0  0  0  0  0
   28.8974  -19.8257  -19.6016 O   0  0  0  0  0  0  0  0  0  0  0  0
   21.6923  -19.6004  -12.5167 N   0  0  0  0  0  0  0  0  0  0  0  0
   21.7676  -20.7566  -13.3531 C   0  0  0  0  0  0  0  0  0  0  0  0
   21.5763  -21.8699  -12.7936 O   0  0  0  0  0  0  0  0  0  0  0  0
   22.0585  -20.5664  -14.7877 C   0  0  0  0  0  0  0  0  0  0  0  0
   23.5411  -20.1708  -14.9227 C   0  0  2  0  0  0  0  0  0  0  0  0
   24.0021  -20.0103  -16.2472 N   0  0  0  0  0  0  0  0  0  0  0  0
   24.3075  -21.0040  -14.0227 C   0  0  0  0  0  0  0  0  0  0  0  0
   24.3754  -22.2323  -14.2450 O   0  0  0  0  0  0  0  0  0  0  0  0
   27.8641  -20.9214  -13.4385 C   0  0  0  0  0  0  0  0  0  0  0  0
   27.2932  -20.9007  -12.0377 C   0  0  1  0  0  0  0  0  0  0  0  0
   27.4135  -19.4574  -11.5757 C   0  0  0  0  0  0  0  0  0  0  0  0
   25.8545  -21.2847  -12.0231 C   0  0  2  0  0  0  0  0  0  0  0  0
   25.0013  -20.5290  -12.8871 N   0  0  0  0  0  0  0  0  0  0  0  0
   25.3017  -21.2402  -10.6474 C   0  0  0  0  0  0  0  0  0  0  0  0
   25.7039  -22.1592   -9.6700 O   0  0  0  0  0  0  0  0  0  0  0  0
   24.4485  -20.3848  -10.2777 O   0  0  0  0  0  0  0  0  0  0  0  0
  2  1  1  6
  2  3  1  0
  3  4  1  0
  4  8  1  0
  4  5  2  0
  6  2  1  0
  7  6  2  0
  9 10  1  0
 10 12  1  0
 10 11  2  0
 13 12  1  6
 13 14  1  0
 13 15  1  0
 14  6  1  0
 15 21  1  0
 16 15  2  0
 18 17  1  6
 18 19  1  0
 20 18  1  0
 20 21  1  6
 22 23  1  0
 22 20  1  0
 24 22  2  0
M  END
$$$$
