DNV.pdb
     RDKit          3D

 24 23  0  0  1  0  0  0  0  0999 V2000
   18.1961  -14.8800  -17.7053 N   0  0  0  0  0  0  0  0  0  0  0  0
   17.4101  -13.8530  -16.9590 C   0  0  1  0  0  0  0  0  0  0  0  0
   17.2634  -14.4082  -15.5728 C   0  0  0  0  0  0  0  0  0  0  0  0
   16.2971  -15.4901  -15.3930 C   0  0  0  0  0  0  0  0  0  0  0  0
   15.2603  -15.5832  -16.1500 O   0  0  0  0  0  0  0  0  0  0  0  0
   18.2781  -12.6347  -17.0147 C   0  0  0  0  0  0  0  0  0  0  0  0
   19.5231  -12.8055  -16.9509 O   0  0  0  0  0  0  0  0  0  0  0  0
   16.3920  -16.4758  -14.4359 O   0  0  0  0  0  0  0  0  0  0  0  0
   19.7344   -7.8486  -17.6277 N   0  0  0  0  0  0  0  0  0  0  0  0
   18.3148   -7.6851  -17.6189 C   0  0  0  0  0  0  0  0  0  0  0  0
   17.8806   -6.5210  -17.8319 O   0  0  0  0  0  0  0  0  0  0  0  0
   17.4740   -8.8716  -17.3658 C   0  0  0  0  0  0  0  0  0  0  0  0
   18.4083  -10.0700  -17.1136 C   0  0  2  0  0  0  0  0  0  0  0  0
   17.7822  -11.3351  -17.1352 N   0  0  0  0  0  0  0  0  0  0  0  0
   19.2599   -9.7419  -15.9918 C   0  0  0  0  0  0  0  0  0  0  0  0
   18.7878   -9.8010  -14.8358 O   0  0  0  0  0  0  0  0  0  0  0  0
   23.7736   -9.5790  -14.0168 C   0  0  0  0  0  0  0  0  0  0  0  0
   22.8769   -9.8014  -15.2146 C   0  0  1  0  0  0  0  0  0  0  0  0
   22.6866  -11.3072  -15.3004 C   0  0  0  0  0  0  0  0  0  0  0  0
   21.5433   -9.1649  -15.0308 C   0  0  2  0  0  0  0  0  0  0  0  0
   20.6135   -9.3513  -16.1013 N   0  0  0  0  0  0  0  0  0  0  0  0
   21.6752   -7.7125  -14.7600 C   0  0  0  0  0  0  0  0  0  0  0  0
   22.2180   -7.2414  -13.5578 O   0  0  0  0  0  0  0  0  0  0  0  0
   21.3128   -6.8250  -15.5829 O   0  0  0  0  0  0  0  0  0  0  0  0
  2  1  1  6
  2  3  1  0
  3  4  1  0
  4  8  1  0
  4  5  2  0
  6  2  1  0
  7  6  2  0
  9 10  1  0
 10 12  1  0
 10 11  2  0
 13 12  1  1
 13 14  1  0
 13 15  1  0
 14  6  1  0
 15 21  1  0
 16 15  2  0
 18 17  1  1
 18 19  1  0
 20 18  1  0
 20 21  1  6
 22 23  1  0
 22 20  1  0
 24 22  2  0
M  END
$$$$
