DNV.pdb
     RDKit          3D

 24 23  0  0  1  0  0  0  0  0999 V2000
   14.1575  -10.6950  -11.8103 N   0  0  0  0  0  0  0  0  0  0  0  0
   15.5227  -10.0923  -11.7603 C   0  0  1  0  0  0  0  0  0  0  0  0
   16.1111  -10.3510  -13.1161 C   0  0  0  0  0  0  0  0  0  0  0  0
   16.5970  -11.7044  -13.3785 C   0  0  0  0  0  0  0  0  0  0  0  0
   15.7788  -12.6586  -13.6551 O   0  0  0  0  0  0  0  0  0  0  0  0
   15.2592   -8.6417  -11.5017 C   0  0  0  0  0  0  0  0  0  0  0  0
   14.3889   -8.0742  -12.2114 O   0  0  0  0  0  0  0  0  0  0  0  0
   17.9216  -12.0807  -13.3554 O   0  0  0  0  0  0  0  0  0  0  0  0
   14.9116   -7.8476   -7.0045 N   0  0  0  0  0  0  0  0  0  0  0  0
   14.7619   -6.7999   -7.9647 C   0  0  0  0  0  0  0  0  0  0  0  0
   13.5874   -6.3936   -8.1764 O   0  0  0  0  0  0  0  0  0  0  0  0
   15.9730   -6.2778   -8.6274 C   0  0  0  0  0  0  0  0  0  0  0  0
   15.8374   -6.5409  -10.1391 C   0  0  2  0  0  0  0  0  0  0  0  0
   15.9201   -7.8968  -10.5230 N   0  0  0  0  0  0  0  0  0  0  0  0
   16.6611   -5.5766  -10.8341 C   0  0  0  0  0  0  0  0  0  0  0  0
   17.8994   -5.7463  -10.8614 O   0  0  0  0  0  0  0  0  0  0  0  0
   17.1970   -4.9173  -14.2435 C   0  0  0  0  0  0  0  0  0  0  0  0
   16.8015   -3.5537  -13.7215 C   0  0  1  0  0  0  0  0  0  0  0  0
   15.3366   -3.3900  -14.0936 C   0  0  0  0  0  0  0  0  0  0  0  0
   16.9260   -3.4732  -12.2398 C   0  0  2  0  0  0  0  0  0  0  0  0
   16.1662   -4.4327  -11.4998 N   0  0  0  0  0  0  0  0  0  0  0  0
   16.5907   -2.1151  -11.7466 C   0  0  0  0  0  0  0  0  0  0  0  0
   17.4802   -1.0440  -11.8986 O   0  0  0  0  0  0  0  0  0  0  0  0
   15.5002   -1.8444  -11.1688 O   0  0  0  0  0  0  0  0  0  0  0  0
  2  1  1  6
  2  3  1  0
  3  4  1  0
  4  8  1  0
  4  5  2  0
  6  2  1  0
  7  6  2  0
  9 10  1  0
 10 12  1  0
 10 11  2  0
 13 12  1  1
 13 14  1  0
 13 15  1  0
 14  6  1  0
 15 21  1  0
 16 15  2  0
 18 17  1  1
 18 19  1  0
 20 18  1  0
 20 21  1  1
 22 23  1  0
 22 20  1  0
 24 22  2  0
M  END
$$$$
