DNV.pdb
     RDKit          3D

 24 23  0  0  1  0  0  0  0  0999 V2000
   22.5322  -12.2801  -17.2152 N   0  0  0  0  0  0  0  0  0  0  0  0
   22.0926  -11.5410  -18.4358 C   0  0  1  0  0  0  0  0  0  0  0  0
   21.2101  -12.5030  -19.1754 C   0  0  0  0  0  0  0  0  0  0  0  0
   21.8620  -13.6545  -19.7965 C   0  0  0  0  0  0  0  0  0  0  0  0
   21.1706  -14.6412  -20.2491 O   0  0  0  0  0  0  0  0  0  0  0  0
   21.3480  -10.3641  -17.8871 C   0  0  0  0  0  0  0  0  0  0  0  0
   20.7794   -9.6015  -18.7106 O   0  0  0  0  0  0  0  0  0  0  0  0
   23.2231  -13.7960  -19.9520 O   0  0  0  0  0  0  0  0  0  0  0  0
   18.7555   -7.4605  -14.7670 N   0  0  0  0  0  0  0  0  0  0  0  0
   19.2820   -8.4156  -13.8437 C   0  0  0  0  0  0  0  0  0  0  0  0
   18.8531   -8.3505  -12.6601 O   0  0  0  0  0  0  0  0  0  0  0  0
   20.2729   -9.3932  -14.3349 C   0  0  0  0  0  0  0  0  0  0  0  0
   20.5721   -9.0650  -15.8098 C   0  0  2  0  0  0  0  0  0  0  0  0
   21.2516  -10.0752  -16.5244 N   0  0  0  0  0  0  0  0  0  0  0  0
   21.0858   -7.7145  -15.8697 C   0  0  0  0  0  0  0  0  0  0  0  0
   22.2546   -7.4938  -15.4851 O   0  0  0  0  0  0  0  0  0  0  0  0
   21.8188   -5.6863  -18.7874 C   0  0  0  0  0  0  0  0  0  0  0  0
   20.9097   -4.8111  -17.9530 C   0  0  1  0  0  0  0  0  0  0  0  0
   19.5292   -4.9599  -18.5720 C   0  0  0  0  0  0  0  0  0  0  0  0
   20.8471   -5.2718  -16.5384 C   0  0  2  0  0  0  0  0  0  0  0  0
   20.3551   -6.5999  -16.3392 N   0  0  0  0  0  0  0  0  0  0  0  0
   20.0517   -4.3375  -15.7050 C   0  0  0  0  0  0  0  0  0  0  0  0
   20.4964   -3.0356  -15.4426 O   0  0  0  0  0  0  0  0  0  0  0  0
   18.9423   -4.6524  -15.1890 O   0  0  0  0  0  0  0  0  0  0  0  0
  2  1  1  1
  2  3  1  0
  3  4  1  0
  4  8  1  0
  4  5  2  0
  6  2  1  0
  7  6  2  0
  9 10  1  0
 10 12  1  0
 10 11  2  0
 13 12  1  1
 13 14  1  0
 13 15  1  0
 14  6  1  0
 15 21  1  0
 16 15  2  0
 18 17  1  6
 18 19  1  0
 20 18  1  0
 20 21  1  6
 22 23  1  0
 22 20  1  0
 24 22  2  0
M  END
$$$$
