DNV.pdb
     RDKit          3D

 24 23  0  0  1  0  0  0  0  0999 V2000
   16.9050  -14.2901  -16.3583 N   0  0  0  0  0  0  0  0  0  0  0  0
   16.3595  -12.9052  -16.2395 C   0  0  1  0  0  0  0  0  0  0  0  0
   15.8138  -12.8213  -14.8443 C   0  0  0  0  0  0  0  0  0  0  0  0
   14.5552  -13.5175  -14.5839 C   0  0  0  0  0  0  0  0  0  0  0  0
   13.6465  -13.6025  -15.4915 O   0  0  0  0  0  0  0  0  0  0  0  0
   17.5576  -12.0341  -16.4546 C   0  0  0  0  0  0  0  0  0  0  0  0
   18.6905  -12.5477  -16.2650 O   0  0  0  0  0  0  0  0  0  0  0  0
   14.2266  -14.1251  -13.3925 O   0  0  0  0  0  0  0  0  0  0  0  0
   20.2050   -8.5083  -19.6658 N   0  0  0  0  0  0  0  0  0  0  0  0
   19.2448   -8.0021  -18.7364 C   0  0  0  0  0  0  0  0  0  0  0  0
   19.4717   -6.8576  -18.2591 O   0  0  0  0  0  0  0  0  0  0  0  0
   18.0760   -8.8420  -18.4085 C   0  0  0  0  0  0  0  0  0  0  0  0
   18.4660   -9.7602  -17.2348 C   0  0  2  0  0  0  0  0  0  0  0  0
   17.4824  -10.6979  -16.8529 N   0  0  0  0  0  0  0  0  0  0  0  0
   19.0699   -8.9388  -16.2091 C   0  0  0  0  0  0  0  0  0  0  0  0
   18.3298   -8.3460  -15.3945 O   0  0  0  0  0  0  0  0  0  0  0  0
   21.5335  -10.2119  -13.7068 C   0  0  0  0  0  0  0  0  0  0  0  0
   22.1325   -8.9284  -14.2381 C   0  0  1  0  0  0  0  0  0  0  0  0
   23.1990   -9.3630  -15.2304 C   0  0  0  0  0  0  0  0  0  0  0  0
   21.1221   -8.1052  -14.9584 C   0  0  2  0  0  0  0  0  0  0  0  0
   20.4613   -8.7493  -16.0511 N   0  0  0  0  0  0  0  0  0  0  0  0
   21.7123   -6.8326  -15.4403 C   0  0  0  0  0  0  0  0  0  0  0  0
   21.7265   -6.5049  -16.8019 O   0  0  0  0  0  0  0  0  0  0  0  0
   22.2298   -5.9791  -14.6656 O   0  0  0  0  0  0  0  0  0  0  0  0
  2  1  1  1
  2  3  1  0
  3  4  1  0
  4  8  1  0
  4  5  2  0
  6  2  1  0
  7  6  2  0
  9 10  1  0
 10 12  1  0
 10 11  2  0
 13 12  1  6
 13 14  1  0
 13 15  1  0
 14  6  1  0
 15 21  1  0
 16 15  2  0
 18 17  1  6
 18 19  1  0
 20 18  1  0
 20 21  1  6
 22 23  1  0
 22 20  1  0
 24 22  2  0
M  END
$$$$
