RRI.pdb
     RDKit          3D

 31 30  0  0  1  0  0  0  0  0999 V2000
   13.7280  -12.9142   19.2217 N   0  0  0  0  0  0  0  0  0  0  0  0
   12.6986  -13.8269   19.6651 C   0  0  0  0  0  0  0  0  0  0  0  0
   12.5852  -14.1178   20.9089 N   0  0  0  0  0  0  0  0  0  0  0  0
   11.8370  -14.3797   18.7028 N   0  0  0  0  0  0  0  0  0  0  0  0
   10.6755  -13.6395   18.2603 C   0  0  0  0  0  0  0  0  0  0  0  0
    9.8619  -13.3076   19.4602 C   0  0  0  0  0  0  0  0  0  0  0  0
    8.4618  -13.7933   19.4784 C   0  0  0  0  0  0  0  0  0  0  0  0
    8.2574  -15.2648   19.4246 C   0  0  2  0  0  0  0  0  0  0  0  0
    7.1553  -15.6407   18.6052 N   0  0  0  0  0  0  0  0  0  0  0  0
    7.9657  -15.6996   20.8454 C   0  0  0  0  0  0  0  0  0  0  0  0
    6.8872  -15.3235   21.3459 O   0  0  0  0  0  0  0  0  0  0  0  0
   11.9679  -14.8418   21.2731 N   0  0  0  0  0  0  0  0  0  0  0  0
   11.9642  -22.0432   24.1803 C   0  0  0  0  0  0  0  0  0  0  0  0
   10.6081  -21.7482   23.8033 N   0  0  0  0  0  0  0  0  0  0  0  0
   10.0872  -22.2820   22.7522 N   0  0  0  0  0  0  0  0  0  0  0  0
    9.8048  -20.8675   24.5694 C   0  0  0  0  0  0  0  0  0  0  0  0
   10.2551  -19.6476   25.1666 C   0  0  0  0  0  0  0  0  0  0  0  0
    9.4323  -18.4308   24.7506 C   0  0  0  0  0  0  0  0  0  0  0  0
    9.6174  -18.0777   23.3164 C   0  0  2  0  0  0  0  0  0  0  0  0
    8.7875  -16.8376   22.9499 N   0  0  0  0  0  0  0  0  0  0  0  0
    8.8879  -16.5002   21.5621 C   0  0  0  0  0  0  0  0  0  0  0  0
    9.2285  -15.6950   23.8147 O   0  0  0  0  0  0  0  0  0  0  0  0
   10.4094  -15.2384   23.7022 C   0  0  0  0  0  0  0  0  0  0  0  0
    9.1169  -22.0278   22.5012 C   0  0  0  0  0  0  0  0  0  0  0  0
    6.7964  -10.8436   26.6516 C   0  0  1  0  0  0  0  0  0  0  0  0
    7.7806  -11.9946   26.7445 C   0  0  0  0  0  0  0  0  0  0  0  0
    7.5406  -13.0496   25.7334 C   0  0  2  0  0  0  0  0  0  0  0  0
    6.1422  -13.6380   25.9737 N   0  0  0  0  0  0  0  0  0  0  0  0
    8.5732  -14.1563   25.7412 C   0  0  0  0  0  0  0  0  0  0  0  0
    8.3284  -15.1515   24.7300 O   0  0  0  0  0  0  0  0  0  0  0  0
    8.6230  -14.7432   27.0894 O   0  0  0  0  0  0  0  0  0  0  0  0
  2  1  1  0
  3  2  2  0
  4  2  1  0
  5  4  1  0
  6  7  1  0
  6  5  1  0
  8  9  1  6
  8 10  1  0
  8  7  1  0
 10 11  2  0
 13 12  1  0
 14 13  2  0
 15 13  1  0
 16 15  1  0
 17 16  1  0
 18 17  1  0
 19 18  1  6
 19 21  1  0
 20 10  1  0
 20 19  1  0
 21 22  2  0
 21 28  1  0
 24 25  1  0
 24 23  1  0
 25 27  1  0
 25 26  1  6
 27 29  1  0
 27 28  1  1
 29 31  2  0
 29 30  1  0
M  END
$$$$
