RRI.pdb
     RDKit          3D

 31 30  0  0  1  0  0  0  0  0999 V2000
    7.3297  -14.2514   14.2251 N   0  0  0  0  0  0  0  0  0  0  0  0
    8.3966  -14.9427   14.9128 C   0  0  0  0  0  0  0  0  0  0  0  0
    9.4629  -15.2748   14.2825 N   0  0  0  0  0  0  0  0  0  0  0  0
    8.2310  -15.2371   16.2766 N   0  0  0  0  0  0  0  0  0  0  0  0
    7.3376  -14.4381   17.0867 C   0  0  0  0  0  0  0  0  0  0  0  0
    8.1412  -13.3623   17.7260 C   0  0  0  0  0  0  0  0  0  0  0  0
    8.0370  -13.2303   19.1986 C   0  0  0  0  0  0  0  0  0  0  0  0
    9.0571  -13.9411   20.0135 C   0  0  2  0  0  0  0  0  0  0  0  0
    9.5582  -15.1110   19.3749 N   0  0  0  0  0  0  0  0  0  0  0  0
    8.3579  -14.3571   21.2906 C   0  0  0  0  0  0  0  0  0  0  0  0
    7.7317  -13.4745   21.9103 O   0  0  0  0  0  0  0  0  0  0  0  0
   10.2449  -15.7734   14.7042 N   0  0  0  0  0  0  0  0  0  0  0  0
    6.5503  -22.5495   25.0783 C   0  0  0  0  0  0  0  0  0  0  0  0
    6.4409  -21.4960   26.0510 N   0  0  0  0  0  0  0  0  0  0  0  0
    6.0557  -21.7499   27.2544 N   0  0  0  0  0  0  0  0  0  0  0  0
    6.7512  -20.1533   25.7216 C   0  0  0  0  0  0  0  0  0  0  0  0
    7.1344  -19.6888   24.4235 C   0  0  0  0  0  0  0  0  0  0  0  0
    7.2320  -18.1682   24.3296 C   0  0  0  0  0  0  0  0  0  0  0  0
    7.7439  -17.7078   23.0098 C   0  0  1  0  0  0  0  0  0  0  0  0
    7.8682  -16.1766   22.9785 N   0  0  0  0  0  0  0  0  0  0  0  0
    8.4208  -15.6956   21.7484 C   0  0  0  0  0  0  0  0  0  0  0  0
    8.6985  -15.7406   24.1482 O   0  0  0  0  0  0  0  0  0  0  0  0
    9.9534  -15.9426   24.1408 C   0  0  0  0  0  0  0  0  0  0  0  0
    6.0773  -20.9846   27.9493 C   0  0  0  0  0  0  0  0  0  0  0  0
    7.6129  -11.5364   28.6302 C   0  0  1  0  0  0  0  0  0  0  0  0
    8.4376  -12.7032   28.1197 C   0  0  0  0  0  0  0  0  0  0  0  0
    7.8446  -13.3609   26.9328 C   0  0  2  0  0  0  0  0  0  0  0  0
    6.4524  -13.8840   27.3171 N   0  0  0  0  0  0  0  0  0  0  0  0
    8.6822  -14.4900   26.3718 C   0  0  0  0  0  0  0  0  0  0  0  0
    8.0739  -15.1170   25.2273 O   0  0  0  0  0  0  0  0  0  0  0  0
    8.9519  -15.4552   27.4488 O   0  0  0  0  0  0  0  0  0  0  0  0
  2  1  1  0
  3  2  2  0
  4  2  1  0
  5  4  1  0
  6  7  1  0
  6  5  1  0
  8  9  1  6
  8 10  1  0
  8  7  1  0
 10 11  2  0
 13 12  1  0
 14 13  2  0
 15 13  1  0
 16 15  1  0
 17 16  1  0
 18 17  1  0
 19 18  1  6
 19 21  1  0
 20 10  1  0
 20 19  1  0
 21 22  2  0
 21 28  1  0
 24 25  1  0
 24 23  1  0
 25 27  1  0
 25 26  1  6
 27 29  1  0
 27 28  1  1
 29 31  2  0
 29 30  1  0
M  END
$$$$
