RRI.pdb
     RDKit          3D

 31 30  0  0  1  0  0  0  0  0999 V2000
   10.6997  -14.0983   19.2779 N   0  0  0  0  0  0  0  0  0  0  0  0
    9.3583  -13.6746   18.9457 C   0  0  0  0  0  0  0  0  0  0  0  0
    9.1579  -12.8763   17.9623 N   0  0  0  0  0  0  0  0  0  0  0  0
    8.2935  -14.1578   19.7246 N   0  0  0  0  0  0  0  0  0  0  0  0
    6.9523  -14.1812   19.1830 C   0  0  0  0  0  0  0  0  0  0  0  0
    6.2043  -15.2712   19.8644 C   0  0  0  0  0  0  0  0  0  0  0  0
    6.9165  -16.5567   20.0569 C   0  0  0  0  0  0  0  0  0  0  0  0
    6.1602  -17.6551   20.7138 C   0  0  2  0  0  0  0  0  0  0  0  0
    4.7980  -17.7117   20.3029 N   0  0  0  0  0  0  0  0  0  0  0  0
    6.1987  -17.3609   22.1987 C   0  0  0  0  0  0  0  0  0  0  0  0
    5.3656  -16.5441   22.6391 O   0  0  0  0  0  0  0  0  0  0  0  0
    8.2392  -12.5442   17.6731 N   0  0  0  0  0  0  0  0  0  0  0  0
   10.0958  -21.8404   29.1830 C   0  0  0  0  0  0  0  0  0  0  0  0
    9.4724  -20.6287   29.6427 N   0  0  0  0  0  0  0  0  0  0  0  0
    9.4749  -20.3224   30.8946 N   0  0  0  0  0  0  0  0  0  0  0  0
    8.8394  -19.7373   28.7413 C   0  0  0  0  0  0  0  0  0  0  0  0
    8.6274  -19.9842   27.3478 C   0  0  0  0  0  0  0  0  0  0  0  0
    7.9486  -18.8238   26.6244 C   0  0  0  0  0  0  0  0  0  0  0  0
    7.7925  -19.0718   25.1650 C   0  0  1  0  0  0  0  0  0  0  0  0
    7.2385  -17.8254   24.4575 N   0  0  0  0  0  0  0  0  0  0  0  0
    7.1457  -17.9950   23.0388 C   0  0  0  0  0  0  0  0  0  0  0  0
    8.1074  -16.6538   24.8036 O   0  0  0  0  0  0  0  0  0  0  0  0
    9.2236  -16.5010   24.2151 C   0  0  0  0  0  0  0  0  0  0  0  0
    9.0514  -19.4238   31.1816 C   0  0  0  0  0  0  0  0  0  0  0  0
    5.2980  -12.3663   27.0667 C   0  0  2  0  0  0  0  0  0  0  0  0
    6.2923  -13.1698   26.2496 C   0  0  0  0  0  0  0  0  0  0  0  0
    7.4404  -13.6599   27.0463 C   0  0  2  0  0  0  0  0  0  0  0  0
    8.2325  -12.4434   27.5485 N   0  0  0  0  0  0  0  0  0  0  0  0
    8.3589  -14.5965   26.2911 C   0  0  0  0  0  0  0  0  0  0  0  0
    7.6706  -15.7484   25.7695 O   0  0  0  0  0  0  0  0  0  0  0  0
    9.4733  -14.9749   27.1739 O   0  0  0  0  0  0  0  0  0  0  0  0
  2  1  1  0
  3  2  2  0
  4  2  1  0
  5  4  1  0
  6  7  1  0
  6  5  1  0
  8  9  1  6
  8 10  1  0
  8  7  1  0
 10 11  2  0
 13 12  1  0
 14 13  2  0
 15 13  1  0
 16 15  1  0
 17 16  1  0
 18 17  1  0
 19 18  1  1
 19 21  1  0
 20 10  1  0
 20 19  1  0
 21 22  2  0
 21 28  1  0
 24 25  1  0
 24 23  1  0
 25 27  1  0
 25 26  1  6
 27 29  1  0
 27 28  1  6
 29 31  2  0
 29 30  1  0
M  END
$$$$
