RRI.pdb
     RDKit          3D

 31 30  0  0  1  0  0  0  0  0999 V2000
   12.9407  -21.4425   19.2639 N   0  0  0  0  0  0  0  0  0  0  0  0
   11.7117  -22.0758   18.8425 C   0  0  0  0  0  0  0  0  0  0  0  0
   11.7127  -22.8966   17.8571 N   0  0  0  0  0  0  0  0  0  0  0  0
   10.5297  -21.7674   19.5367 N   0  0  0  0  0  0  0  0  0  0  0  0
   10.2848  -20.4137   19.9840 C   0  0  0  0  0  0  0  0  0  0  0  0
   10.9284  -20.2497   21.3147 C   0  0  0  0  0  0  0  0  0  0  0  0
   10.8524  -18.9068   21.9373 C   0  0  0  0  0  0  0  0  0  0  0  0
   11.1957  -17.7440   21.0770 C   0  0  2  0  0  0  0  0  0  0  0  0
   12.5969  -17.6083   20.8634 N   0  0  0  0  0  0  0  0  0  0  0  0
   10.7046  -16.5167   21.8156 C   0  0  0  0  0  0  0  0  0  0  0  0
   11.4214  -16.0836   22.7397 O   0  0  0  0  0  0  0  0  0  0  0  0
   10.8902  -23.4035   17.5340 N   0  0  0  0  0  0  0  0  0  0  0  0
    8.6158  -13.0897   16.1641 C   0  0  0  0  0  0  0  0  0  0  0  0
    7.8405  -13.7802   17.1591 N   0  0  0  0  0  0  0  0  0  0  0  0
    7.9491  -15.0557   17.3085 N   0  0  0  0  0  0  0  0  0  0  0  0
    6.9380  -13.0864   18.0029 C   0  0  0  0  0  0  0  0  0  0  0  0
    6.6603  -13.4194   19.3666 C   0  0  0  0  0  0  0  0  0  0  0  0
    7.8841  -13.9230   20.1276 C   0  0  0  0  0  0  0  0  0  0  0  0
    7.5595  -14.3486   21.5165 C   0  0  2  0  0  0  0  0  0  0  0  0
    8.8099  -14.8916   22.2255 N   0  0  0  0  0  0  0  0  0  0  0  0
    9.4819  -15.8977   21.4599 C   0  0  0  0  0  0  0  0  0  0  0  0
    8.4059  -15.4186   23.5697 O   0  0  0  0  0  0  0  0  0  0  0  0
    8.2921  -16.6721   23.7473 C   0  0  0  0  0  0  0  0  0  0  0  0
    7.4121  -15.5094   18.0667 C   0  0  0  0  0  0  0  0  0  0  0  0
    5.1585  -11.9513   26.6226 C   0  0  1  0  0  0  0  0  0  0  0  0
    5.8282  -13.1102   25.9082 C   0  0  0  0  0  0  0  0  0  0  0  0
    7.0519  -13.5876   26.5919 C   0  0  2  0  0  0  0  0  0  0  0  0
    8.0571  -12.4273   26.6462 N   0  0  0  0  0  0  0  0  0  0  0  0
    7.6921  -14.7933   25.9378 C   0  0  0  0  0  0  0  0  0  0  0  0
    8.1629  -14.5177   24.6054 O   0  0  0  0  0  0  0  0  0  0  0  0
    6.7310  -15.9068   25.9620 O   0  0  0  0  0  0  0  0  0  0  0  0
  2  1  1  0
  3  2  2  0
  4  2  1  0
  5  4  1  0
  6  7  1  0
  6  5  1  0
  8  9  1  1
  8 10  1  0
  8  7  1  0
 10 11  2  0
 13 12  1  0
 14 13  2  0
 15 13  1  0
 16 15  1  0
 17 16  1  0
 18 17  1  0
 19 18  1  6
 19 21  1  0
 20 10  1  0
 20 19  1  0
 21 22  2  0
 21 28  1  0
 24 25  1  0
 24 23  1  0
 25 27  1  0
 25 26  1  6
 27 29  1  0
 27 28  1  6
 29 31  2  0
 29 30  1  0
M  END
$$$$
