RRI.pdb
     RDKit          3D

 31 30  0  0  1  0  0  0  0  0999 V2000
   14.4513  -16.7227   16.2094 N   0  0  0  0  0  0  0  0  0  0  0  0
   13.3097  -17.4492   15.7013 C   0  0  0  0  0  0  0  0  0  0  0  0
   12.9295  -17.2878   14.4872 N   0  0  0  0  0  0  0  0  0  0  0  0
   12.6369  -18.3264   16.5683 N   0  0  0  0  0  0  0  0  0  0  0  0
   11.8461  -17.8010   17.6598 C   0  0  0  0  0  0  0  0  0  0  0  0
   12.2997  -18.4633   18.9117 C   0  0  0  0  0  0  0  0  0  0  0  0
   12.2741  -17.6494   20.1501 C   0  0  0  0  0  0  0  0  0  0  0  0
   11.2218  -17.9736   21.1488 C   0  0  2  0  0  0  0  0  0  0  0  0
   10.1443  -18.7213   20.5942 N   0  0  0  0  0  0  0  0  0  0  0  0
   10.6807  -16.6452   21.6340 C   0  0  0  0  0  0  0  0  0  0  0  0
   11.5051  -15.8250   22.0843 O   0  0  0  0  0  0  0  0  0  0  0  0
   12.0921  -17.7100   14.0891 N   0  0  0  0  0  0  0  0  0  0  0  0
    7.5219  -13.4738   16.1033 C   0  0  0  0  0  0  0  0  0  0  0  0
    8.3339  -14.1566   17.0741 N   0  0  0  0  0  0  0  0  0  0  0  0
    8.7859  -15.3401   16.8373 N   0  0  0  0  0  0  0  0  0  0  0  0
    8.6623  -13.5553   18.3144 C   0  0  0  0  0  0  0  0  0  0  0  0
    8.6416  -14.2159   19.5837 C   0  0  0  0  0  0  0  0  0  0  0  0
    7.2541  -14.2625   20.2187 C   0  0  0  0  0  0  0  0  0  0  0  0
    7.2437  -14.9869   21.5190 C   0  0  2  0  0  0  0  0  0  0  0  0
    8.6730  -15.1648   22.0542 N   0  0  0  0  0  0  0  0  0  0  0  0
    9.2951  -16.3608   21.5718 C   0  0  0  0  0  0  0  0  0  0  0  0
    8.6275  -15.1488   23.5527 O   0  0  0  0  0  0  0  0  0  0  0  0
    8.5513  -16.2443   24.1929 C   0  0  0  0  0  0  0  0  0  0  0  0
    9.4721  -15.7452   17.4962 C   0  0  0  0  0  0  0  0  0  0  0  0
    6.6993  -10.7845   27.4953 C   0  0  2  0  0  0  0  0  0  0  0  0
    7.5044  -12.0536   27.2872 C   0  0  0  0  0  0  0  0  0  0  0  0
    7.5593  -12.4833   25.8711 C   0  0  2  0  0  0  0  0  0  0  0  0
    6.1324  -12.8233   25.4152 N   0  0  0  0  0  0  0  0  0  0  0  0
    8.4747  -13.6626   25.6206 C   0  0  0  0  0  0  0  0  0  0  0  0
    8.6713  -13.9249   24.2187 O   0  0  0  0  0  0  0  0  0  0  0  0
    7.9363  -14.8343   26.3289 O   0  0  0  0  0  0  0  0  0  0  0  0
  2  1  1  0
  3  2  2  0
  4  2  1  0
  5  4  1  0
  6  7  1  0
  6  5  1  0
  8  9  1  6
  8 10  1  0
  8  7  1  0
 10 11  2  0
 13 12  1  0
 14 13  2  0
 15 13  1  0
 16 15  1  0
 17 16  1  0
 18 17  1  0
 19 18  1  6
 19 21  1  0
 20 10  1  0
 20 19  1  0
 21 22  2  0
 21 28  1  0
 24 25  1  0
 24 23  1  0
 25 27  1  0
 25 26  1  1
 27 29  1  0
 27 28  1  1
 29 31  2  0
 29 30  1  0
M  END
$$$$
