RRI.pdb
     RDKit          3D

 31 30  0  0  1  0  0  0  0  0999 V2000
   13.7759  -22.3462   25.3403 N   0  0  0  0  0  0  0  0  0  0  0  0
   13.4548  -23.2143   24.2302 C   0  0  0  0  0  0  0  0  0  0  0  0
   12.9560  -24.3766   24.4423 N   0  0  0  0  0  0  0  0  0  0  0  0
   13.7037  -22.7516   22.9272 N   0  0  0  0  0  0  0  0  0  0  0  0
   13.6210  -21.3377   22.6326 C   0  0  0  0  0  0  0  0  0  0  0  0
   12.7354  -20.7110   23.6499 C   0  0  0  0  0  0  0  0  0  0  0  0
   12.5561  -19.2419   23.5716 C   0  0  0  0  0  0  0  0  0  0  0  0
   12.3466  -18.6589   22.2203 C   0  0  2  0  0  0  0  0  0  0  0  0
   13.5676  -18.3654   21.5489 N   0  0  0  0  0  0  0  0  0  0  0  0
   11.5965  -17.3611   22.4353 C   0  0  0  0  0  0  0  0  0  0  0  0
   12.2771  -16.3411   22.6622 O   0  0  0  0  0  0  0  0  0  0  0  0
   12.6703  -25.0197   23.7055 N   0  0  0  0  0  0  0  0  0  0  0  0
    8.0584  -14.0749   18.0212 C   0  0  0  0  0  0  0  0  0  0  0  0
    7.7538  -13.0167   18.9461 N   0  0  0  0  0  0  0  0  0  0  0  0
    8.2050  -11.8250   18.7530 N   0  0  0  0  0  0  0  0  0  0  0  0
    6.9529  -13.2469   20.0921 C   0  0  0  0  0  0  0  0  0  0  0  0
    6.5936  -14.5342   20.6035 C   0  0  0  0  0  0  0  0  0  0  0  0
    7.3384  -14.9062   21.8830 C   0  0  0  0  0  0  0  0  0  0  0  0
    8.0726  -16.1956   21.7637 C   0  0  2  0  0  0  0  0  0  0  0  0
    9.3766  -16.1564   22.5756 N   0  0  0  0  0  0  0  0  0  0  0  0
   10.1823  -17.3232   22.3772 C   0  0  0  0  0  0  0  0  0  0  0  0
    9.0324  -15.9803   24.0241 O   0  0  0  0  0  0  0  0  0  0  0  0
    8.6425  -16.9799   24.7056 C   0  0  0  0  0  0  0  0  0  0  0  0
    7.9520  -11.0875   19.4323 C   0  0  0  0  0  0  0  0  0  0  0  0
    6.4877  -11.4946   25.4557 C   0  0  2  0  0  0  0  0  0  0  0  0
    7.6537  -12.4236   25.1739 C   0  0  0  0  0  0  0  0  0  0  0  0
    7.8915  -13.4054   26.2568 C   0  0  2  0  0  0  0  0  0  0  0  0
    8.1439  -12.6331   27.5604 N   0  0  0  0  0  0  0  0  0  0  0  0
    9.0417  -14.3520   25.9880 C   0  0  0  0  0  0  0  0  0  0  0  0
    9.1487  -14.7157   24.5991 O   0  0  0  0  0  0  0  0  0  0  0  0
    8.8927  -15.5310   26.8552 O   0  0  0  0  0  0  0  0  0  0  0  0
  2  1  1  0
  3  2  2  0
  4  2  1  0
  5  4  1  0
  6  7  1  0
  6  5  1  0
  8  9  1  1
  8 10  1  0
  8  7  1  0
 10 11  2  0
 13 12  1  0
 14 13  2  0
 15 13  1  0
 16 15  1  0
 17 16  1  0
 18 17  1  0
 19 18  1  6
 19 21  1  0
 20 10  1  0
 20 19  1  0
 21 22  2  0
 21 28  1  0
 24 25  1  0
 24 23  1  0
 25 27  1  0
 25 26  1  1
 27 29  1  0
 27 28  1  1
 29 31  2  0
 29 30  1  0
M  END
$$$$
