RRI.pdb
     RDKit          3D

 31 30  0  0  1  0  0  0  0  0999 V2000
   14.2155  -14.9807   17.1624 N   0  0  0  0  0  0  0  0  0  0  0  0
   14.6971  -14.7528   18.5060 C   0  0  0  0  0  0  0  0  0  0  0  0
   15.9281  -14.9657   18.7958 N   0  0  0  0  0  0  0  0  0  0  0  0
   13.7859  -14.2973   19.4735 N   0  0  0  0  0  0  0  0  0  0  0  0
   12.5531  -13.6604   19.0643 C   0  0  0  0  0  0  0  0  0  0  0  0
   11.5121  -14.7160   18.9459 C   0  0  0  0  0  0  0  0  0  0  0  0
   10.5117  -14.7988   20.0364 C   0  0  0  0  0  0  0  0  0  0  0  0
    9.1046  -15.0710   19.6418 C   0  0  2  0  0  0  0  0  0  0  0  0
    8.5778  -14.0873   18.7572 N   0  0  0  0  0  0  0  0  0  0  0  0
    8.2970  -15.0425   20.9224 C   0  0  0  0  0  0  0  0  0  0  0  0
    7.9252  -13.9265   21.3362 O   0  0  0  0  0  0  0  0  0  0  0  0
   16.3299  -14.8278   19.7218 N   0  0  0  0  0  0  0  0  0  0  0  0
   10.3237  -19.9448   22.4146 C   0  0  0  0  0  0  0  0  0  0  0  0
    9.7901  -20.7703   23.4643 N   0  0  0  0  0  0  0  0  0  0  0  0
   10.5592  -21.2426   24.3843 N   0  0  0  0  0  0  0  0  0  0  0  0
    8.4107  -21.0894   23.5222 C   0  0  0  0  0  0  0  0  0  0  0  0
    7.3397  -20.1460   23.4188 C   0  0  0  0  0  0  0  0  0  0  0  0
    7.8165  -18.7069   23.2395 C   0  0  0  0  0  0  0  0  0  0  0  0
    6.6905  -17.7469   23.0772 C   0  0  1  0  0  0  0  0  0  0  0  0
    7.2188  -16.3279   22.8156 N   0  0  0  0  0  0  0  0  0  0  0  0
    7.9845  -16.2408   21.6089 C   0  0  0  0  0  0  0  0  0  0  0  0
    8.0295  -15.8941   23.9998 O   0  0  0  0  0  0  0  0  0  0  0  0
    9.2522  -16.2309   24.0843 C   0  0  0  0  0  0  0  0  0  0  0  0
   10.1344  -21.8112   25.1362 C   0  0  0  0  0  0  0  0  0  0  0  0
    5.7608  -11.3765   26.2303 C   0  0  2  0  0  0  0  0  0  0  0  0
    6.7968  -12.3535   25.7065 C   0  0  0  0  0  0  0  0  0  0  0  0
    7.1911  -13.3750   26.7034 C   0  0  2  0  0  0  0  0  0  0  0  0
    7.9541  -12.6728   27.8367 N   0  0  0  0  0  0  0  0  0  0  0  0
    8.0323  -14.4977   26.1349 C   0  0  0  0  0  0  0  0  0  0  0  0
    7.4227  -15.1237   24.9905 O   0  0  0  0  0  0  0  0  0  0  0  0
    8.3114  -15.4653   27.2072 O   0  0  0  0  0  0  0  0  0  0  0  0
  2  1  1  0
  3  2  2  0
  4  2  1  0
  5  4  1  0
  6  7  1  0
  6  5  1  0
  8  9  1  6
  8 10  1  0
  8  7  1  0
 10 11  2  0
 13 12  1  0
 14 13  2  0
 15 13  1  0
 16 15  1  0
 17 16  1  0
 18 17  1  0
 19 18  1  6
 19 21  1  0
 20 10  1  0
 20 19  1  0
 21 22  2  0
 21 28  1  0
 24 25  1  0
 24 23  1  0
 25 27  1  0
 25 26  1  6
 27 29  1  0
 27 28  1  1
 29 31  2  0
 29 30  1  0
M  END
$$$$
