RRI.pdb
     RDKit          3D

 31 30  0  0  1  0  0  0  0  0999 V2000
    7.8752  -12.0218   18.7337 N   0  0  0  0  0  0  0  0  0  0  0  0
    8.4390  -13.1827   18.0829 C   0  0  0  0  0  0  0  0  0  0  0  0
    8.3186  -13.3348   16.8152 N   0  0  0  0  0  0  0  0  0  0  0  0
    9.1142  -14.1285   18.8725 N   0  0  0  0  0  0  0  0  0  0  0  0
    9.6438  -15.3312   18.2675 C   0  0  0  0  0  0  0  0  0  0  0  0
    8.7664  -16.4650   18.6631 C   0  0  0  0  0  0  0  0  0  0  0  0
    8.0736  -16.3551   19.9687 C   0  0  0  0  0  0  0  0  0  0  0  0
    7.2902  -17.5359   20.4182 C   0  0  2  0  0  0  0  0  0  0  0  0
    6.1249  -17.7591   19.6308 N   0  0  0  0  0  0  0  0  0  0  0  0
    6.8565  -17.2356   21.8376 C   0  0  0  0  0  0  0  0  0  0  0  0
    6.2054  -16.1886   22.0246 O   0  0  0  0  0  0  0  0  0  0  0  0
    8.7228  -14.1092   16.2910 N   0  0  0  0  0  0  0  0  0  0  0  0
    7.1847  -23.1326   28.0385 C   0  0  0  0  0  0  0  0  0  0  0  0
    7.9278  -21.9717   28.4486 N   0  0  0  0  0  0  0  0  0  0  0  0
    8.6744  -22.0064   29.4985 N   0  0  0  0  0  0  0  0  0  0  0  0
    7.8648  -20.7597   27.7172 C   0  0  0  0  0  0  0  0  0  0  0  0
    6.6701  -20.0208   27.4445 C   0  0  0  0  0  0  0  0  0  0  0  0
    6.9100  -18.7744   26.5963 C   0  0  0  0  0  0  0  0  0  0  0  0
    7.1572  -19.0955   25.1640 C   0  0  2  0  0  0  0  0  0  0  0  0
    6.9943  -17.8426   24.2895 N   0  0  0  0  0  0  0  0  0  0  0  0
    7.1832  -18.1165   22.8969 C   0  0  0  0  0  0  0  0  0  0  0  0
    7.9573  -16.7977   24.7677 O   0  0  0  0  0  0  0  0  0  0  0  0
    9.1770  -16.8557   24.4150 C   0  0  0  0  0  0  0  0  0  0  0  0
    9.2677  -21.1856   29.7072 C   0  0  0  0  0  0  0  0  0  0  0  0
    5.6136  -11.9033   26.0653 C   0  0  2  0  0  0  0  0  0  0  0  0
    6.5933  -12.9547   25.5787 C   0  0  0  0  0  0  0  0  0  0  0  0
    7.3800  -13.5690   26.6726 C   0  0  2  0  0  0  0  0  0  0  0  0
    8.2519  -12.4773   27.3108 N   0  0  0  0  0  0  0  0  0  0  0  0
    8.2474  -14.7283   26.2313 C   0  0  0  0  0  0  0  0  0  0  0  0
    7.4925  -15.7758   25.5942 O   0  0  0  0  0  0  0  0  0  0  0  0
    8.9994  -15.2225   27.3952 O   0  0  0  0  0  0  0  0  0  0  0  0
  2  1  1  0
  3  2  2  0
  4  2  1  0
  5  4  1  0
  6  7  1  0
  6  5  1  0
  8  9  1  6
  8 10  1  0
  8  7  1  0
 10 11  2  0
 13 12  1  0
 14 13  2  0
 15 13  1  0
 16 15  1  0
 17 16  1  0
 18 17  1  0
 19 18  1  6
 19 21  1  0
 20 10  1  0
 20 19  1  0
 21 22  2  0
 21 28  1  0
 24 25  1  0
 24 23  1  0
 25 27  1  0
 25 26  1  6
 27 29  1  0
 27 28  1  6
 29 31  2  0
 29 30  1  0
M  END
$$$$
