RRI.pdb
     RDKit          3D

 31 30  0  0  1  0  0  0  0  0999 V2000
    8.5053  -14.4617   13.8164 N   0  0  0  0  0  0  0  0  0  0  0  0
    8.6153  -13.7161   15.0497 C   0  0  0  0  0  0  0  0  0  0  0  0
    7.7318  -12.8380   15.3547 N   0  0  0  0  0  0  0  0  0  0  0  0
    9.7073  -13.9792   15.8937 N   0  0  0  0  0  0  0  0  0  0  0  0
    9.4920  -14.5888   17.1879 C   0  0  0  0  0  0  0  0  0  0  0  0
    8.1049  -14.2680   17.6179 C   0  0  0  0  0  0  0  0  0  0  0  0
    7.7451  -14.5867   19.0199 C   0  0  0  0  0  0  0  0  0  0  0  0
    8.1948  -15.9008   19.5497 C   0  0  2  0  0  0  0  0  0  0  0  0
    7.5925  -17.0032   18.8791 N   0  0  0  0  0  0  0  0  0  0  0  0
    7.7684  -15.9353   21.0023 C   0  0  0  0  0  0  0  0  0  0  0  0
    6.8583  -15.1557   21.3472 O   0  0  0  0  0  0  0  0  0  0  0  0
    7.7568  -12.2713   16.2010 N   0  0  0  0  0  0  0  0  0  0  0  0
    6.3293  -22.7458   25.8147 C   0  0  0  0  0  0  0  0  0  0  0  0
    6.6383  -21.3839   25.4714 N   0  0  0  0  0  0  0  0  0  0  0  0
    5.6975  -20.5205   25.2968 N   0  0  0  0  0  0  0  0  0  0  0  0
    7.9776  -20.9486   25.3151 C   0  0  0  0  0  0  0  0  0  0  0  0
    8.5410  -19.7782   25.9155 C   0  0  0  0  0  0  0  0  0  0  0  0
    8.0488  -18.4781   25.2847 C   0  0  0  0  0  0  0  0  0  0  0  0
    8.4252  -18.3598   23.8494 C   0  0  1  0  0  0  0  0  0  0  0  0
    8.0077  -16.9916   23.2884 N   0  0  0  0  0  0  0  0  0  0  0  0
    8.3858  -16.8215   21.9180 C   0  0  0  0  0  0  0  0  0  0  0  0
    8.6062  -15.9196   24.1488 O   0  0  0  0  0  0  0  0  0  0  0  0
    9.8675  -15.7647   24.1771 C   0  0  0  0  0  0  0  0  0  0  0  0
    5.9560  -19.5662   24.9939 C   0  0  0  0  0  0  0  0  0  0  0  0
    6.3919  -10.7420   26.8033 C   0  0  1  0  0  0  0  0  0  0  0  0
    7.4675  -11.8091   26.7225 C   0  0  0  0  0  0  0  0  0  0  0  0
    7.0442  -13.0068   25.9615 C   0  0  2  0  0  0  0  0  0  0  0  0
    5.8054  -13.6011   26.6483 N   0  0  0  0  0  0  0  0  0  0  0  0
    8.1185  -14.0653   25.8317 C   0  0  0  0  0  0  0  0  0  0  0  0
    7.7620  -15.1077   24.9047 O   0  0  0  0  0  0  0  0  0  0  0  0
    8.4173  -14.5983   27.1700 O   0  0  0  0  0  0  0  0  0  0  0  0
  2  1  1  0
  3  2  2  0
  4  2  1  0
  5  4  1  0
  6  7  1  0
  6  5  1  0
  8  9  1  6
  8 10  1  0
  8  7  1  0
 10 11  2  0
 13 12  1  0
 14 13  2  0
 15 13  1  0
 16 15  1  0
 17 16  1  0
 18 17  1  0
 19 18  1  6
 19 21  1  0
 20 10  1  0
 20 19  1  0
 21 22  2  0
 21 28  1  0
 24 25  1  0
 24 23  1  0
 25 27  1  0
 25 26  1  6
 27 29  1  0
 27 28  1  1
 29 31  2  0
 29 30  1  0
M  END
$$$$
