RRI.pdb
     RDKit          3D

 31 30  0  0  1  0  0  0  0  0999 V2000
    9.1255  -14.8970   14.1731 N   0  0  0  0  0  0  0  0  0  0  0  0
    9.5052  -14.4684   15.5002 C   0  0  0  0  0  0  0  0  0  0  0  0
   10.7438  -14.3586   15.8139 N   0  0  0  0  0  0  0  0  0  0  0  0
    8.4877  -14.1802   16.4252 N   0  0  0  0  0  0  0  0  0  0  0  0
    8.8129  -13.5522   17.6872 C   0  0  0  0  0  0  0  0  0  0  0  0
    7.5578  -13.4393   18.4771 C   0  0  0  0  0  0  0  0  0  0  0  0
    7.5602  -14.0394   19.8323 C   0  0  0  0  0  0  0  0  0  0  0  0
    7.2691  -15.4941   19.9264 C   0  0  2  0  0  0  0  0  0  0  0  0
    6.1567  -15.8884   19.1297 N   0  0  0  0  0  0  0  0  0  0  0  0
    6.9343  -15.7615   21.3788 C   0  0  0  0  0  0  0  0  0  0  0  0
    6.0094  -15.0935   21.8822 O   0  0  0  0  0  0  0  0  0  0  0  0
   11.0792  -14.1314   16.7487 N   0  0  0  0  0  0  0  0  0  0  0  0
    7.4280  -20.2070   29.2462 C   0  0  0  0  0  0  0  0  0  0  0  0
    7.7226  -21.0270   28.1022 N   0  0  0  0  0  0  0  0  0  0  0  0
    7.5837  -22.3072   28.1580 N   0  0  0  0  0  0  0  0  0  0  0  0
    8.1716  -20.4594   26.8841 C   0  0  0  0  0  0  0  0  0  0  0  0
    7.3445  -19.7772   25.9364 C   0  0  0  0  0  0  0  0  0  0  0  0
    7.9368  -18.4538   25.4587 C   0  0  0  0  0  0  0  0  0  0  0  0
    7.9512  -18.3353   23.9750 C   0  0  1  0  0  0  0  0  0  0  0  0
    7.5761  -16.9104   23.5392 N   0  0  0  0  0  0  0  0  0  0  0  0
    7.6496  -16.7328   22.1204 C   0  0  0  0  0  0  0  0  0  0  0  0
    8.4730  -15.9418   24.2499 O   0  0  0  0  0  0  0  0  0  0  0  0
    9.6839  -15.8185   23.8837 C   0  0  0  0  0  0  0  0  0  0  0  0
    7.7221  -22.8548   27.2919 C   0  0  0  0  0  0  0  0  0  0  0  0
    5.8601  -11.8242   27.3105 C   0  0  1  0  0  0  0  0  0  0  0  0
    6.5785  -13.1346   27.0477 C   0  0  0  0  0  0  0  0  0  0  0  0
    7.8670  -12.9609   26.3387 C   0  0  2  0  0  0  0  0  0  0  0  0
    7.5828  -12.3153   24.9742 N   0  0  0  0  0  0  0  0  0  0  0  0
    8.6433  -14.2463   26.1486 C   0  0  0  0  0  0  0  0  0  0  0  0
    7.9574  -15.1895   25.3043 O   0  0  0  0  0  0  0  0  0  0  0  0
    8.9466  -14.8124   27.4721 O   0  0  0  0  0  0  0  0  0  0  0  0
  2  1  1  0
  3  2  2  0
  4  2  1  0
  5  4  1  0
  6  7  1  0
  6  5  1  0
  8  9  1  6
  8 10  1  0
  8  7  1  0
 10 11  2  0
 13 12  1  0
 14 13  2  0
 15 13  1  0
 16 15  1  0
 17 16  1  0
 18 17  1  0
 19 18  1  6
 19 21  1  0
 20 10  1  0
 20 19  1  0
 21 22  2  0
 21 28  1  0
 24 25  1  0
 24 23  1  0
 25 27  1  0
 25 26  1  6
 27 29  1  0
 27 28  1  6
 29 31  2  0
 29 30  1  0
M  END
$$$$
