RRI.pdb
     RDKit          3D

 31 30  0  0  1  0  0  0  0  0999 V2000
    9.1204  -15.4965   14.5122 N   0  0  0  0  0  0  0  0  0  0  0  0
    8.7546  -14.1753   14.0542 C   0  0  0  0  0  0  0  0  0  0  0  0
    9.2257  -13.7205   12.9515 N   0  0  0  0  0  0  0  0  0  0  0  0
    7.8782  -13.4135   14.8451 N   0  0  0  0  0  0  0  0  0  0  0  0
    8.1671  -13.2005   16.2465 C   0  0  0  0  0  0  0  0  0  0  0  0
    7.8345  -14.4531   16.9760 C   0  0  0  0  0  0  0  0  0  0  0  0
    7.6762  -14.3529   18.4463 C   0  0  0  0  0  0  0  0  0  0  0  0
    8.8975  -14.5476   19.2711 C   0  0  2  0  0  0  0  0  0  0  0  0
    9.6993  -15.6362   18.8241 N   0  0  0  0  0  0  0  0  0  0  0  0
    8.4125  -14.8560   20.6720 C   0  0  0  0  0  0  0  0  0  0  0  0
    7.6387  -14.0333   21.2006 O   0  0  0  0  0  0  0  0  0  0  0  0
    9.0024  -12.8028   12.5693 N   0  0  0  0  0  0  0  0  0  0  0  0
   11.1709  -19.8268   19.7358 C   0  0  0  0  0  0  0  0  0  0  0  0
   11.9298  -19.7896   20.9567 N   0  0  0  0  0  0  0  0  0  0  0  0
   13.2178  -19.7513   20.9290 N   0  0  0  0  0  0  0  0  0  0  0  0
   11.2918  -19.7935   22.2219 C   0  0  0  0  0  0  0  0  0  0  0  0
    9.8889  -19.9743   22.4388 C   0  0  0  0  0  0  0  0  0  0  0  0
    9.0617  -18.7331   22.1137 C   0  0  0  0  0  0  0  0  0  0  0  0
    9.1879  -17.6731   23.1511 C   0  0  2  0  0  0  0  0  0  0  0  0
    8.5022  -16.3772   22.6912 N   0  0  0  0  0  0  0  0  0  0  0  0
    8.8280  -16.0333   21.3400 C   0  0  0  0  0  0  0  0  0  0  0  0
    8.8825  -15.2750   23.6336 O   0  0  0  0  0  0  0  0  0  0  0  0
   10.0666  -14.8132   23.6187 C   0  0  0  0  0  0  0  0  0  0  0  0
   13.7287  -19.7393   21.8279 C   0  0  0  0  0  0  0  0  0  0  0  0
    5.9181  -10.7208   26.5502 C   0  0  2  0  0  0  0  0  0  0  0  0
    7.0638  -11.7154   26.5686 C   0  0  0  0  0  0  0  0  0  0  0  0
    6.9136  -12.7961   25.5674 C   0  0  2  0  0  0  0  0  0  0  0  0
    5.6156  -13.5586   25.8727 N   0  0  0  0  0  0  0  0  0  0  0  0
    8.0793  -13.7607   25.5231 C   0  0  0  0  0  0  0  0  0  0  0  0
    7.9232  -14.7742   24.5125 O   0  0  0  0  0  0  0  0  0  0  0  0
    8.2588  -14.3427   26.8623 O   0  0  0  0  0  0  0  0  0  0  0  0
  2  1  1  0
  3  2  2  0
  4  2  1  0
  5  4  1  0
  6  7  1  0
  6  5  1  0
  8  9  1  6
  8 10  1  0
  8  7  1  0
 10 11  2  0
 13 12  1  0
 14 13  2  0
 15 13  1  0
 16 15  1  0
 17 16  1  0
 18 17  1  0
 19 18  1  6
 19 21  1  0
 20 10  1  0
 20 19  1  0
 21 22  2  0
 21 28  1  0
 24 25  1  0
 24 23  1  0
 25 27  1  0
 25 26  1  1
 27 29  1  0
 27 28  1  1
 29 31  2  0
 29 30  1  0
M  END
$$$$
