SHQ.pdb
     RDKit          3D

 26 26  0  0  1  0  0  0  0  0999 V2000
    8.0474  -17.2790   15.5317 O   0  0  0  0  0  0  0  0  0  0  0  0
    8.9434  -16.6337   16.3772 C   0  0  0  0  0  0  0  0  0  0  0  0
    8.4504  -15.2280   16.6684 C   0  0  2  0  0  0  0  0  0  0  0  0
    9.0184  -14.2572   15.7900 N   0  0  0  0  0  0  0  0  0  0  0  0
    8.7725  -14.9210   18.0841 C   0  0  0  0  0  0  0  0  0  0  0  0
    9.9195  -14.5590   18.3682 O   0  0  0  0  0  0  0  0  0  0  0  0
    7.8087  -15.0280   19.1253 N   0  0  0  0  0  0  0  0  0  0  0  0
    8.1372  -14.8821   20.5211 C   0  0  1  0  0  0  0  0  0  0  0  0
    6.9259  -14.8327   21.4064 C   0  0  0  0  0  0  0  0  0  0  0  0
    7.2309  -14.5746   22.8307 C   0  0  0  0  0  0  0  0  0  0  0  0
    8.4374  -14.4074   23.4825 C   0  0  0  0  0  0  0  0  0  0  0  0
    8.1374  -14.2152   24.7724 N   0  0  0  0  0  0  0  0  0  0  0  0
    6.8103  -14.2554   24.9459 C   0  0  0  0  0  0  0  0  0  0  0  0
    6.2297  -14.4772   23.7554 N   0  0  0  0  0  0  0  0  0  0  0  0
    9.1241  -15.8872   20.9779 C   0  0  0  0  0  0  0  0  0  0  0  0
    9.0562  -17.0965   20.6400 O   0  0  0  0  0  0  0  0  0  0  0  0
   13.2315  -14.2492   18.8981 N   0  0  0  0  0  0  0  0  0  0  0  0
   13.7093  -15.1783   19.8711 C   0  0  0  0  0  0  0  0  0  0  0  0
   14.9147  -15.1817   20.2712 O   0  0  0  0  0  0  0  0  0  0  0  0
   12.8192  -16.1915   20.4761 C   0  0  0  0  0  0  0  0  0  0  0  0
   12.4733  -15.9584   21.8994 C   0  0  0  0  0  0  0  0  0  0  0  0
   11.1593  -16.4253   22.3928 C   0  0  2  0  0  0  0  0  0  0  0  0
   10.1681  -15.4776   21.8138 N   0  0  0  0  0  0  0  0  0  0  0  0
   10.9435  -16.5389   23.8173 C   0  0  0  0  0  0  0  0  0  0  0  0
   10.0620  -15.7884   24.5802 O   0  0  0  0  0  0  0  0  0  0  0  0
   11.6149  -17.3997   24.4827 O   0  0  0  0  0  0  0  0  0  0  0  0
  2  1  1  0
  2  3  1  0
  3  4  1  6
  5  3  1  0
  5  6  2  0
  7  5  1  0
  8  7  1  0
  8  9  1  1
 10  9  1  0
 10 11  2  0
 12 11  1  0
 13 12  1  0
 14 13  2  0
 14 10  1  0
 15  8  1  0
 16 15  2  0
 17 18  1  0
 18 19  2  0
 18 20  1  0
 20 21  1  0
 22 21  1  1
 22 24  1  0
 22 23  1  0
 23 15  1  0
 24 25  1  0
 26 24  2  0
M  END
$$$$
