SHQ.pdb
     RDKit          3D

 26 26  0  0  1  0  0  0  0  0999 V2000
   11.0434  -13.1796   19.3987 O   0  0  0  0  0  0  0  0  0  0  0  0
   10.2489  -14.0161   18.6220 C   0  0  0  0  0  0  0  0  0  0  0  0
    8.7914  -13.6185   18.7685 C   0  0  2  0  0  0  0  0  0  0  0  0
    8.5853  -12.2193   18.5776 N   0  0  0  0  0  0  0  0  0  0  0  0
    8.3402  -14.0462   20.1160 C   0  0  0  0  0  0  0  0  0  0  0  0
    8.3073  -13.2100   21.0255 O   0  0  0  0  0  0  0  0  0  0  0  0
    7.9441  -15.3833   20.3981 N   0  0  0  0  0  0  0  0  0  0  0  0
    7.5907  -15.8383   21.7193 C   0  0  1  0  0  0  0  0  0  0  0  0
    6.8342  -17.1348   21.7100 C   0  0  0  0  0  0  0  0  0  0  0  0
    7.6310  -18.2939   21.2519 C   0  0  0  0  0  0  0  0  0  0  0  0
    8.4769  -18.4402   20.1696 C   0  0  0  0  0  0  0  0  0  0  0  0
    8.9259  -19.6999   20.2187 N   0  0  0  0  0  0  0  0  0  0  0  0
    8.4000  -20.3339   21.2744 C   0  0  0  0  0  0  0  0  0  0  0  0
    7.5946  -19.4807   21.9281 N   0  0  0  0  0  0  0  0  0  0  0  0
    8.7542  -15.8753   22.6348 C   0  0  0  0  0  0  0  0  0  0  0  0
    9.9366  -15.9556   22.2146 O   0  0  0  0  0  0  0  0  0  0  0  0
    8.3092  -13.4353   28.3281 N   0  0  0  0  0  0  0  0  0  0  0  0
    9.5008  -14.2078   28.4753 C   0  0  0  0  0  0  0  0  0  0  0  0
   10.1518  -14.2496   29.5650 O   0  0  0  0  0  0  0  0  0  0  0  0
   10.0434  -15.0131   27.3609 C   0  0  0  0  0  0  0  0  0  0  0  0
    9.1876  -15.0737   26.1511 C   0  0  0  0  0  0  0  0  0  0  0  0
    9.6277  -15.9136   25.0157 C   0  0  2  0  0  0  0  0  0  0  0  0
    8.5304  -15.8186   24.0143 N   0  0  0  0  0  0  0  0  0  0  0  0
    9.9468  -17.3032   25.2518 C   0  0  0  0  0  0  0  0  0  0  0  0
   11.1613  -17.8072   25.6916 O   0  0  0  0  0  0  0  0  0  0  0  0
    9.0527  -18.1925   25.0416 O   0  0  0  0  0  0  0  0  0  0  0  0
  2  1  1  0
  2  3  1  0
  3  4  1  1
  5  3  1  0
  5  6  2  0
  7  5  1  0
  8  7  1  0
  8  9  1  6
 10  9  1  0
 10 11  2  0
 12 11  1  0
 13 12  1  0
 14 13  2  0
 14 10  1  0
 15  8  1  0
 16 15  2  0
 17 18  1  0
 18 19  2  0
 18 20  1  0
 20 21  1  0
 22 21  1  1
 22 24  1  0
 22 23  1  0
 23 15  1  0
 24 25  1  0
 26 24  2  0
M  END
$$$$
