SHQ.pdb
     RDKit          3D

 26 26  0  0  1  0  0  0  0  0999 V2000
   14.5420  -17.2712   18.5862 O   0  0  0  0  0  0  0  0  0  0  0  0
   13.8383  -16.7174   19.6503 C   0  0  0  0  0  0  0  0  0  0  0  0
   13.0348  -15.5239   19.1666 C   0  0  2  0  0  0  0  0  0  0  0  0
   13.8641  -14.4605   18.6996 N   0  0  0  0  0  0  0  0  0  0  0  0
   12.1723  -15.0760   20.2880 C   0  0  0  0  0  0  0  0  0  0  0  0
   12.6135  -14.2346   21.0784 O   0  0  0  0  0  0  0  0  0  0  0  0
   10.8565  -15.5800   20.4855 N   0  0  0  0  0  0  0  0  0  0  0  0
   10.0092  -15.1650   21.5751 C   0  0  1  0  0  0  0  0  0  0  0  0
    8.5643  -15.0523   21.1840 C   0  0  0  0  0  0  0  0  0  0  0  0
    8.3245  -14.1896   20.0065 C   0  0  0  0  0  0  0  0  0  0  0  0
    8.2002  -12.8179   19.8993 C   0  0  0  0  0  0  0  0  0  0  0  0
    7.9769  -12.5670   18.6039 N   0  0  0  0  0  0  0  0  0  0  0  0
    7.9579  -13.7126   17.9110 C   0  0  0  0  0  0  0  0  0  0  0  0
    8.1712  -14.7303   18.7611 N   0  0  0  0  0  0  0  0  0  0  0  0
   10.1983  -15.9954   22.7867 C   0  0  0  0  0  0  0  0  0  0  0  0
   10.5135  -17.2111   22.7247 O   0  0  0  0  0  0  0  0  0  0  0  0
   10.0436  -13.0839   28.3892 N   0  0  0  0  0  0  0  0  0  0  0  0
   10.2755  -14.4369   28.7813 C   0  0  0  0  0  0  0  0  0  0  0  0
   10.4260  -14.7748   29.9963 O   0  0  0  0  0  0  0  0  0  0  0  0
   10.3474  -15.5290   27.7878 C   0  0  0  0  0  0  0  0  0  0  0  0
   10.1806  -15.1088   26.3751 C   0  0  0  0  0  0  0  0  0  0  0  0
   10.2451  -16.1419   25.3184 C   0  0  2  0  0  0  0  0  0  0  0  0
   10.0205  -15.4074   24.0433 N   0  0  0  0  0  0  0  0  0  0  0  0
    9.3500  -17.2744   25.3873 C   0  0  0  0  0  0  0  0  0  0  0  0
    8.1344  -17.4056   24.7334 O   0  0  0  0  0  0  0  0  0  0  0  0
    9.6666  -18.2757   26.1165 O   0  0  0  0  0  0  0  0  0  0  0  0
  2  1  1  0
  2  3  1  0
  3  4  1  1
  5  3  1  0
  5  6  2  0
  7  5  1  0
  8  7  1  0
  8  9  1  6
 10  9  1  0
 10 11  2  0
 12 11  1  0
 13 12  1  0
 14 13  2  0
 14 10  1  0
 15  8  1  0
 16 15  2  0
 17 18  1  0
 18 19  2  0
 18 20  1  0
 20 21  1  0
 22 21  1  1
 22 24  1  0
 22 23  1  0
 23 15  1  0
 24 25  1  0
 26 24  2  0
M  END
$$$$
