SHQ.pdb
     RDKit          3D

 26 26  0  0  1  0  0  0  0  0999 V2000
   -4.4709  -22.4052   22.2691 O   0  0  0  0  0  0  0  0  0  0  0  0
   -3.9100  -23.3578   23.1130 C   0  0  0  0  0  0  0  0  0  0  0  0
   -4.8797  -24.5105   23.2996 C   0  0  2  0  0  0  0  0  0  0  0  0
   -6.1476  -24.2608   22.6941 N   0  0  0  0  0  0  0  0  0  0  0  0
   -5.0214  -24.7496   24.7574 C   0  0  0  0  0  0  0  0  0  0  0  0
   -5.6579  -25.7379   25.1389 O   0  0  0  0  0  0  0  0  0  0  0  0
   -4.4511  -23.8826   25.7306 N   0  0  0  0  0  0  0  0  0  0  0  0
   -4.5186  -24.1361   27.1479 C   0  0  1  0  0  0  0  0  0  0  0  0
   -3.1786  -24.0655   27.8206 C   0  0  0  0  0  0  0  0  0  0  0  0
   -2.2304  -25.1145   27.3861 C   0  0  0  0  0  0  0  0  0  0  0  0
   -1.1923  -25.0759   26.4754 C   0  0  0  0  0  0  0  0  0  0  0  0
   -0.6708  -26.3082   26.4565 N   0  0  0  0  0  0  0  0  0  0  0  0
   -1.3344  -27.1005   27.3079 C   0  0  0  0  0  0  0  0  0  0  0  0
   -2.3048  -26.3807   27.8943 N   0  0  0  0  0  0  0  0  0  0  0  0
   -5.5306  -23.2937   27.8256 C   0  0  0  0  0  0  0  0  0  0  0  0
   -5.6643  -22.0696   27.5710 O   0  0  0  0  0  0  0  0  0  0  0  0
  -10.3763  -22.8739   26.0994 N   0  0  0  0  0  0  0  0  0  0  0  0
  -10.7247  -22.3126   27.3650 C   0  0  0  0  0  0  0  0  0  0  0  0
  -11.8338  -21.7271   27.5653 O   0  0  0  0  0  0  0  0  0  0  0  0
   -9.8093  -22.3878   28.5232 C   0  0  0  0  0  0  0  0  0  0  0  0
   -8.5018  -23.0338   28.2531 C   0  0  0  0  0  0  0  0  0  0  0  0
   -7.5405  -23.1767   29.3683 C   0  0  2  0  0  0  0  0  0  0  0  0
   -6.3668  -23.8796   28.7815 N   0  0  0  0  0  0  0  0  0  0  0  0
   -7.9580  -23.8570   30.5730 C   0  0  0  0  0  0  0  0  0  0  0  0
   -8.4950  -23.2691   31.7081 O   0  0  0  0  0  0  0  0  0  0  0  0
   -7.8323  -25.1272   30.6470 O   0  0  0  0  0  0  0  0  0  0  0  0
  2  1  1  0
  2  3  1  0
  3  4  1  1
  5  3  1  0
  5  6  2  0
  7  5  1  0
  8  7  1  0
  8  9  1  1
 10  9  1  0
 10 11  2  0
 12 11  1  0
 13 12  1  0
 14 13  2  0
 14 10  1  0
 15  8  1  0
 16 15  2  0
 17 18  1  0
 18 19  2  0
 18 20  1  0
 20 21  1  0
 22 21  1  6
 22 24  1  0
 22 23  1  0
 23 15  1  0
 24 25  1  0
 26 24  2  0
M  END
$$$$
