SHQ.pdb
     RDKit          3D

 26 26  0  0  1  0  0  0  0  0999 V2000
   12.6344  -17.7919   14.6471 O   0  0  0  0  0  0  0  0  0  0  0  0
   11.4197  -17.6916   13.9774 C   0  0  0  0  0  0  0  0  0  0  0  0
   11.1156  -16.2336   13.6847 C   0  0  2  0  0  0  0  0  0  0  0  0
   12.1261  -15.6141   12.8900 N   0  0  0  0  0  0  0  0  0  0  0  0
   10.9555  -15.5361   14.9847 C   0  0  0  0  0  0  0  0  0  0  0  0
   11.9649  -15.1237   15.5666 O   0  0  0  0  0  0  0  0  0  0  0  0
    9.6828  -15.3252   15.5846 N   0  0  0  0  0  0  0  0  0  0  0  0
    9.5165  -14.7855   16.9107 C   0  0  1  0  0  0  0  0  0  0  0  0
    8.0821  -14.5065   17.2544 C   0  0  0  0  0  0  0  0  0  0  0  0
    7.8891  -13.9066   18.5928 C   0  0  0  0  0  0  0  0  0  0  0  0
    8.0541  -12.6084   19.0355 C   0  0  0  0  0  0  0  0  0  0  0  0
    7.7568  -12.6220   20.3403 N   0  0  0  0  0  0  0  0  0  0  0  0
    7.4180  -13.8603   20.7209 C   0  0  0  0  0  0  0  0  0  0  0  0
    7.4934  -14.6718   19.6534 N   0  0  0  0  0  0  0  0  0  0  0  0
   10.1907  -15.6051   17.9435 C   0  0  0  0  0  0  0  0  0  0  0  0
   10.5925  -16.7746   17.7156 O   0  0  0  0  0  0  0  0  0  0  0  0
   15.1144  -13.8636   18.4985 N   0  0  0  0  0  0  0  0  0  0  0  0
   15.1780  -14.5859   19.7283 C   0  0  0  0  0  0  0  0  0  0  0  0
   16.2574  -14.7124   20.3856 O   0  0  0  0  0  0  0  0  0  0  0  0
   13.9807  -15.2262   20.3124 C   0  0  0  0  0  0  0  0  0  0  0  0
   12.7157  -14.9903   19.5748 C   0  0  0  0  0  0  0  0  0  0  0  0
   11.4581  -15.5272   20.1392 C   0  0  2  0  0  0  0  0  0  0  0  0
   10.3878  -15.0596   19.2163 N   0  0  0  0  0  0  0  0  0  0  0  0
   11.1009  -15.1962   21.4999 C   0  0  0  0  0  0  0  0  0  0  0  0
    9.9949  -14.4662   21.9077 O   0  0  0  0  0  0  0  0  0  0  0  0
   11.8538  -15.5896   22.4553 O   0  0  0  0  0  0  0  0  0  0  0  0
  2  1  1  0
  2  3  1  0
  3  4  1  1
  5  3  1  0
  5  6  2  0
  7  5  1  0
  8  7  1  0
  8  9  1  1
 10  9  1  0
 10 11  2  0
 12 11  1  0
 13 12  1  0
 14 13  2  0
 14 10  1  0
 15  8  1  0
 16 15  2  0
 17 18  1  0
 18 19  2  0
 18 20  1  0
 20 21  1  0
 22 21  1  6
 22 24  1  0
 22 23  1  0
 23 15  1  0
 24 25  1  0
 26 24  2  0
M  END
$$$$
