SHQ.pdb
     RDKit          3D

 26 26  0  0  1  0  0  0  0  0999 V2000
    7.4208  -11.8795   17.6069 O   0  0  0  0  0  0  0  0  0  0  0  0
    8.2888  -12.8866   18.0148 C   0  0  0  0  0  0  0  0  0  0  0  0
    8.7582  -13.6777   16.8075 C   0  0  2  0  0  0  0  0  0  0  0  0
    7.6961  -14.3919   16.1761 N   0  0  0  0  0  0  0  0  0  0  0  0
    9.8277  -14.6012   17.2610 C   0  0  0  0  0  0  0  0  0  0  0  0
    9.5053  -15.6787   17.7734 O   0  0  0  0  0  0  0  0  0  0  0  0
   11.2097  -14.2909   17.1268 N   0  0  0  0  0  0  0  0  0  0  0  0
   12.2613  -15.1645   17.5835 C   0  0  1  0  0  0  0  0  0  0  0  0
   13.3667  -15.3253   16.5806 C   0  0  0  0  0  0  0  0  0  0  0  0
   13.0960  -16.3455   15.5442 C   0  0  0  0  0  0  0  0  0  0  0  0
   11.9324  -17.0115   15.2113 C   0  0  0  0  0  0  0  0  0  0  0  0
   12.2528  -17.8368   14.2077 N   0  0  0  0  0  0  0  0  0  0  0  0
   13.5518  -17.7117   13.9075 C   0  0  0  0  0  0  0  0  0  0  0  0
   14.0930  -16.7929   14.7239 N   0  0  0  0  0  0  0  0  0  0  0  0
   12.7699  -14.7858   18.9218 C   0  0  0  0  0  0  0  0  0  0  0  0
   13.1856  -13.6273   19.1788 O   0  0  0  0  0  0  0  0  0  0  0  0
   10.2966  -17.6933   23.7071 N   0  0  0  0  0  0  0  0  0  0  0  0
   11.2415  -16.8628   24.3821 C   0  0  0  0  0  0  0  0  0  0  0  0
   11.3269  -16.8233   25.6487 O   0  0  0  0  0  0  0  0  0  0  0  0
   12.1845  -16.0011   23.6384 C   0  0  0  0  0  0  0  0  0  0  0  0
   12.0992  -16.1005   22.1610 C   0  0  0  0  0  0  0  0  0  0  0  0
   13.1376  -15.4320   21.3468 C   0  0  2  0  0  0  0  0  0  0  0  0
   12.7883  -15.7498   19.9351 N   0  0  0  0  0  0  0  0  0  0  0  0
   14.5277  -15.7487   21.5831 C   0  0  0  0  0  0  0  0  0  0  0  0
   15.4013  -15.0594   22.4103 O   0  0  0  0  0  0  0  0  0  0  0  0
   15.0486  -16.7522   20.9864 O   0  0  0  0  0  0  0  0  0  0  0  0
  2  1  1  0
  2  3  1  0
  3  4  1  1
  5  3  1  0
  5  6  2  0
  7  5  1  0
  8  7  1  0
  8  9  1  6
 10  9  1  0
 10 11  2  0
 12 11  1  0
 13 12  1  0
 14 13  2  0
 14 10  1  0
 15  8  1  0
 16 15  2  0
 17 18  1  0
 18 19  2  0
 18 20  1  0
 20 21  1  0
 22 21  1  1
 22 24  1  0
 22 23  1  0
 23 15  1  0
 24 25  1  0
 26 24  2  0
M  END
$$$$
