SHQ.pdb
     RDKit          3D

 26 26  0  0  1  0  0  0  0  0999 V2000
   14.9968  -16.6371   18.2120 O   0  0  0  0  0  0  0  0  0  0  0  0
   14.1090  -16.3196   17.1897 C   0  0  0  0  0  0  0  0  0  0  0  0
   13.6864  -14.8669   17.3117 C   0  0  2  0  0  0  0  0  0  0  0  0
   14.7902  -13.9673   17.2161 N   0  0  0  0  0  0  0  0  0  0  0  0
   12.9796  -14.7097   18.6071 C   0  0  0  0  0  0  0  0  0  0  0  0
   13.6002  -14.2482   19.5711 O   0  0  0  0  0  0  0  0  0  0  0  0
   11.6142  -15.0708   18.7787 N   0  0  0  0  0  0  0  0  0  0  0  0
   10.9379  -15.0135   20.0502 C   0  0  1  0  0  0  0  0  0  0  0  0
    9.4427  -15.0479   19.9211 C   0  0  0  0  0  0  0  0  0  0  0  0
    8.9000  -14.0789   18.9439 C   0  0  0  0  0  0  0  0  0  0  0  0
    8.8564  -12.6984   18.9664 C   0  0  0  0  0  0  0  0  0  0  0  0
    8.2423  -12.3293   17.8361 N   0  0  0  0  0  0  0  0  0  0  0  0
    7.9072  -13.4109   17.1215 C   0  0  0  0  0  0  0  0  0  0  0  0
    8.3056  -14.5055   17.7900 N   0  0  0  0  0  0  0  0  0  0  0  0
   11.4411  -16.0279   21.0047 C   0  0  0  0  0  0  0  0  0  0  0  0
   11.6579  -17.2192   20.6657 O   0  0  0  0  0  0  0  0  0  0  0  0
   16.4029  -15.0365   23.6263 N   0  0  0  0  0  0  0  0  0  0  0  0
   16.0280  -16.1729   24.4049 C   0  0  0  0  0  0  0  0  0  0  0  0
   16.8182  -16.7146   25.2386 O   0  0  0  0  0  0  0  0  0  0  0  0
   14.6867  -16.7828   24.2875 C   0  0  0  0  0  0  0  0  0  0  0  0
   13.7399  -16.0600   23.4038 C   0  0  0  0  0  0  0  0  0  0  0  0
   12.3443  -16.5427   23.3182 C   0  0  2  0  0  0  0  0  0  0  0  0
   11.6840  -15.6480   22.3287 N   0  0  0  0  0  0  0  0  0  0  0  0
   11.5467  -16.6034   24.5218 C   0  0  0  0  0  0  0  0  0  0  0  0
   11.5948  -17.5909   25.4940 O   0  0  0  0  0  0  0  0  0  0  0  0
   10.6939  -15.6791   24.7517 O   0  0  0  0  0  0  0  0  0  0  0  0
  2  1  1  0
  2  3  1  0
  3  4  1  1
  5  3  1  0
  5  6  2  0
  7  5  1  0
  8  7  1  0
  8  9  1  6
 10  9  1  0
 10 11  2  0
 12 11  1  0
 13 12  1  0
 14 13  2  0
 14 10  1  0
 15  8  1  0
 16 15  2  0
 17 18  1  0
 18 19  2  0
 18 20  1  0
 20 21  1  0
 22 21  1  1
 22 24  1  0
 22 23  1  0
 23 15  1  0
 24 25  1  0
 26 24  2  0
M  END
$$$$
