SHQ.pdb
     RDKit          3D

 26 26  0  0  1  0  0  0  0  0999 V2000
   15.2487  -14.9346   22.1729 O   0  0  0  0  0  0  0  0  0  0  0  0
   15.2967  -16.3003   22.4313 C   0  0  0  0  0  0  0  0  0  0  0  0
   13.8863  -16.8505   22.5397 C   0  0  2  0  0  0  0  0  0  0  0  0
   12.9631  -15.8895   23.0505 N   0  0  0  0  0  0  0  0  0  0  0  0
   13.9370  -18.0552   23.4047 C   0  0  0  0  0  0  0  0  0  0  0  0
   12.9434  -18.3447   24.0803 O   0  0  0  0  0  0  0  0  0  0  0  0
   15.0875  -18.8885   23.4838 N   0  0  0  0  0  0  0  0  0  0  0  0
   15.1379  -20.0886   24.2804 C   0  0  1  0  0  0  0  0  0  0  0  0
   16.2505  -21.0128   23.8785 C   0  0  0  0  0  0  0  0  0  0  0  0
   16.0713  -21.6270   22.5447 C   0  0  0  0  0  0  0  0  0  0  0  0
   14.9848  -21.6384   21.6917 C   0  0  0  0  0  0  0  0  0  0  0  0
   15.3607  -22.3515   20.6235 N   0  0  0  0  0  0  0  0  0  0  0  0
   16.6208  -22.7779   20.7765 C   0  0  0  0  0  0  0  0  0  0  0  0
   17.0798  -22.3400   21.9603 N   0  0  0  0  0  0  0  0  0  0  0  0
   15.1444  -19.8031   25.7335 C   0  0  0  0  0  0  0  0  0  0  0  0
   15.7736  -18.8311   26.2238 O   0  0  0  0  0  0  0  0  0  0  0  0
   10.9603  -21.7101   31.5666 N   0  0  0  0  0  0  0  0  0  0  0  0
   11.3215  -21.3694   30.2281 C   0  0  0  0  0  0  0  0  0  0  0  0
   10.5212  -21.5121   29.2523 O   0  0  0  0  0  0  0  0  0  0  0  0
   12.6551  -20.8215   29.9021 C   0  0  0  0  0  0  0  0  0  0  0  0
   13.0037  -20.8255   28.4605 C   0  0  0  0  0  0  0  0  0  0  0  0
   14.3769  -20.4436   28.0646 C   0  0  2  0  0  0  0  0  0  0  0  0
   14.4256  -20.6431   26.5903 N   0  0  0  0  0  0  0  0  0  0  0  0
   15.4983  -21.1161   28.6801 C   0  0  0  0  0  0  0  0  0  0  0  0
   16.2785  -22.1098   28.1088 O   0  0  0  0  0  0  0  0  0  0  0  0
   15.8372  -20.8001   29.8716 O   0  0  0  0  0  0  0  0  0  0  0  0
  2  1  1  0
  2  3  1  0
  3  4  1  1
  5  3  1  0
  5  6  2  0
  7  5  1  0
  8  7  1  0
  8  9  1  6
 10  9  1  0
 10 11  2  0
 12 11  1  0
 13 12  1  0
 14 13  2  0
 14 10  1  0
 15  8  1  0
 16 15  2  0
 17 18  1  0
 18 19  2  0
 18 20  1  0
 20 21  1  0
 22 21  1  1
 22 24  1  0
 22 23  1  0
 23 15  1  0
 24 25  1  0
 26 24  2  0
M  END
$$$$
