SHQ.pdb
     RDKit          3D

 26 26  0  0  1  0  0  0  0  0999 V2000
    5.3592  -19.7167   24.2331 O   0  0  0  0  0  0  0  0  0  0  0  0
    4.2718  -19.1060   23.6177 C   0  0  0  0  0  0  0  0  0  0  0  0
    4.4562  -19.1305   22.1113 C   0  0  2  0  0  0  0  0  0  0  0  0
    4.6763  -20.4482   21.6096 N   0  0  0  0  0  0  0  0  0  0  0  0
    5.5934  -18.2361   21.7811 C   0  0  0  0  0  0  0  0  0  0  0  0
    6.7231  -18.7254   21.6731 O   0  0  0  0  0  0  0  0  0  0  0  0
    5.4297  -16.8365   21.5844 N   0  0  0  0  0  0  0  0  0  0  0  0
    6.5378  -15.9271   21.4338 C   0  0  1  0  0  0  0  0  0  0  0  0
    6.1707  -14.6728   20.6954 C   0  0  0  0  0  0  0  0  0  0  0  0
    7.3334  -13.8914   20.2201 C   0  0  0  0  0  0  0  0  0  0  0  0
    7.7700  -12.6239   20.5537 C   0  0  0  0  0  0  0  0  0  0  0  0
    8.8643  -12.4035   19.8157 N   0  0  0  0  0  0  0  0  0  0  0  0
    9.1220  -13.4693   19.0472 C   0  0  0  0  0  0  0  0  0  0  0  0
    8.1854  -14.4027   19.2822 N   0  0  0  0  0  0  0  0  0  0  0  0
    7.2144  -15.6422   22.7200 C   0  0  0  0  0  0  0  0  0  0  0  0
    6.5822  -15.2828   23.7458 O   0  0  0  0  0  0  0  0  0  0  0  0
    8.2474  -19.1115   26.3869 N   0  0  0  0  0  0  0  0  0  0  0  0
    9.1534  -18.1696   26.9616 C   0  0  0  0  0  0  0  0  0  0  0  0
    9.6820  -18.3462   28.1029 O   0  0  0  0  0  0  0  0  0  0  0  0
    9.5345  -16.9303   26.2519 C   0  0  0  0  0  0  0  0  0  0  0  0
    8.8900  -16.7364   24.9302 C   0  0  0  0  0  0  0  0  0  0  0  0
    9.3619  -15.6297   24.0696 C   0  0  2  0  0  0  0  0  0  0  0  0
    8.6044  -15.7777   22.7967 N   0  0  0  0  0  0  0  0  0  0  0  0
   10.7735  -15.5168   23.7810 C   0  0  0  0  0  0  0  0  0  0  0  0
   11.7596  -15.0732   24.6488 O   0  0  0  0  0  0  0  0  0  0  0  0
   11.2003  -15.8412   22.6204 O   0  0  0  0  0  0  0  0  0  0  0  0
  2  1  1  0
  2  3  1  0
  3  4  1  1
  5  3  1  0
  5  6  2  0
  7  5  1  0
  8  7  1  0
  8  9  1  1
 10  9  1  0
 10 11  2  0
 12 11  1  0
 13 12  1  0
 14 13  2  0
 14 10  1  0
 15  8  1  0
 16 15  2  0
 17 18  1  0
 18 19  2  0
 18 20  1  0
 20 21  1  0
 22 21  1  1
 22 24  1  0
 22 23  1  0
 23 15  1  0
 24 25  1  0
 26 24  2  0
M  END
$$$$
