SHQ.pdb
     RDKit          3D

 26 26  0  0  1  0  0  0  0  0999 V2000
    9.7127  -17.3120   21.2114 O   0  0  0  0  0  0  0  0  0  0  0  0
    9.8332  -17.0046   19.8604 C   0  0  0  0  0  0  0  0  0  0  0  0
   10.5307  -18.1421   19.1370 C   0  0  2  0  0  0  0  0  0  0  0  0
    9.8786  -19.3961   19.3345 N   0  0  0  0  0  0  0  0  0  0  0  0
   11.9344  -18.1884   19.6163 C   0  0  0  0  0  0  0  0  0  0  0  0
   12.1848  -18.7901   20.6664 O   0  0  0  0  0  0  0  0  0  0  0  0
   13.0014  -17.5655   18.9107 N   0  0  0  0  0  0  0  0  0  0  0  0
   14.3543  -17.5223   19.4059 C   0  0  1  0  0  0  0  0  0  0  0  0
   15.3744  -17.3849   18.3133 C   0  0  0  0  0  0  0  0  0  0  0  0
   15.4308  -18.5416   17.3928 C   0  0  0  0  0  0  0  0  0  0  0  0
   15.1987  -19.8856   17.6123 C   0  0  0  0  0  0  0  0  0  0  0  0
   15.4031  -20.4929   16.4375 N   0  0  0  0  0  0  0  0  0  0  0  0
   15.7482  -19.5920   15.5089 C   0  0  0  0  0  0  0  0  0  0  0  0
   15.7714  -18.3766   16.0799 N   0  0  0  0  0  0  0  0  0  0  0  0
   14.5346  -16.5095   20.4711 C   0  0  0  0  0  0  0  0  0  0  0  0
   14.4347  -15.2760   20.2483 O   0  0  0  0  0  0  0  0  0  0  0  0
   10.6648  -15.9651   25.1137 N   0  0  0  0  0  0  0  0  0  0  0  0
   11.7043  -16.7971   24.5985 C   0  0  0  0  0  0  0  0  0  0  0  0
   11.8822  -17.9883   25.0014 O   0  0  0  0  0  0  0  0  0  0  0  0
   12.6344  -16.3166   23.5549 C   0  0  0  0  0  0  0  0  0  0  0  0
   14.0705  -16.3542   23.9238 C   0  0  0  0  0  0  0  0  0  0  0  0
   15.0734  -15.9983   22.8963 C   0  0  2  0  0  0  0  0  0  0  0  0
   14.8258  -16.9394   21.7699 N   0  0  0  0  0  0  0  0  0  0  0  0
   16.4756  -16.0215   23.2454 C   0  0  0  0  0  0  0  0  0  0  0  0
   17.4214  -16.9323   22.7999 O   0  0  0  0  0  0  0  0  0  0  0  0
   16.9332  -15.1367   24.0468 O   0  0  0  0  0  0  0  0  0  0  0  0
  2  1  1  0
  2  3  1  0
  3  4  1  1
  5  3  1  0
  5  6  2  0
  7  5  1  0
  8  7  1  0
  8  9  1  6
 10  9  1  0
 10 11  2  0
 12 11  1  0
 13 12  1  0
 14 13  2  0
 14 10  1  0
 15  8  1  0
 16 15  2  0
 17 18  1  0
 18 19  2  0
 18 20  1  0
 20 21  1  0
 22 21  1  1
 22 24  1  0
 22 23  1  0
 23 15  1  0
 24 25  1  0
 26 24  2  0
M  END
$$$$
