SHQ.pdb
     RDKit          3D

 26 26  0  0  1  0  0  0  0  0999 V2000
    7.0033  -20.8801   20.8777 O   0  0  0  0  0  0  0  0  0  0  0  0
    6.9843  -19.5614   21.3190 C   0  0  0  0  0  0  0  0  0  0  0  0
    7.7549  -18.6856   20.3479 C   0  0  2  0  0  0  0  0  0  0  0  0
    8.8734  -19.3606   19.7734 N   0  0  0  0  0  0  0  0  0  0  0  0
    8.1838  -17.4685   21.0805 C   0  0  0  0  0  0  0  0  0  0  0  0
    9.3456  -17.4034   21.4971 O   0  0  0  0  0  0  0  0  0  0  0  0
    7.3063  -16.3744   21.3199 N   0  0  0  0  0  0  0  0  0  0  0  0
    7.6982  -15.1952   22.0502 C   0  0  1  0  0  0  0  0  0  0  0  0
    7.0644  -13.9410   21.5222 C   0  0  0  0  0  0  0  0  0  0  0  0
    7.4954  -13.5780   20.1544 C   0  0  0  0  0  0  0  0  0  0  0  0
    8.2164  -12.4951   19.6897 C   0  0  0  0  0  0  0  0  0  0  0  0
    8.3106  -12.6547   18.3644 N   0  0  0  0  0  0  0  0  0  0  0  0
    7.6855  -13.7788   17.9919 C   0  0  0  0  0  0  0  0  0  0  0  0
    7.1733  -14.3661   19.0857 N   0  0  0  0  0  0  0  0  0  0  0  0
    7.5094  -15.3459   23.5112 C   0  0  0  0  0  0  0  0  0  0  0  0
    6.3791  -15.2557   24.0548 O   0  0  0  0  0  0  0  0  0  0  0  0
    6.5230  -20.0012   24.9966 N   0  0  0  0  0  0  0  0  0  0  0  0
    6.9216  -19.6598   26.3242 C   0  0  0  0  0  0  0  0  0  0  0  0
    6.6948  -20.4188   27.3170 O   0  0  0  0  0  0  0  0  0  0  0  0
    7.6316  -18.3971   26.6184 C   0  0  0  0  0  0  0  0  0  0  0  0
    7.8191  -17.4935   25.4574 C   0  0  0  0  0  0  0  0  0  0  0  0
    8.5279  -16.2120   25.6667 C   0  0  2  0  0  0  0  0  0  0  0  0
    8.6265  -15.5976   24.3144 N   0  0  0  0  0  0  0  0  0  0  0  0
    9.8327  -16.2240   26.2879 C   0  0  0  0  0  0  0  0  0  0  0  0
   11.0527  -16.0740   25.6464 O   0  0  0  0  0  0  0  0  0  0  0  0
    9.9196  -16.3930   27.5521 O   0  0  0  0  0  0  0  0  0  0  0  0
  2  1  1  0
  2  3  1  0
  3  4  1  1
  5  3  1  0
  5  6  2  0
  7  5  1  0
  8  7  1  0
  8  9  1  6
 10  9  1  0
 10 11  2  0
 12 11  1  0
 13 12  1  0
 14 13  2  0
 14 10  1  0
 15  8  1  0
 16 15  2  0
 17 18  1  0
 18 19  2  0
 18 20  1  0
 20 21  1  0
 22 21  1  6
 22 24  1  0
 22 23  1  0
 23 15  1  0
 24 25  1  0
 26 24  2  0
M  END
$$$$
