SHQ.pdb
     RDKit          3D

 26 26  0  0  1  0  0  0  0  0999 V2000
    8.0479  -12.7644   21.1576 O   0  0  0  0  0  0  0  0  0  0  0  0
    7.8489  -13.2545   19.8714 C   0  0  0  0  0  0  0  0  0  0  0  0
    7.1692  -14.6100   19.9397 C   0  0  2  0  0  0  0  0  0  0  0  0
    6.0026  -14.5949   20.7615 N   0  0  0  0  0  0  0  0  0  0  0  0
    8.1645  -15.5891   20.4425 C   0  0  0  0  0  0  0  0  0  0  0  0
    8.0577  -16.0038   21.6018 O   0  0  0  0  0  0  0  0  0  0  0  0
    9.2362  -16.0674   19.6382 N   0  0  0  0  0  0  0  0  0  0  0  0
   10.1748  -17.0645   20.0881 C   0  0  1  0  0  0  0  0  0  0  0  0
   10.9004  -17.7381   18.9597 C   0  0  0  0  0  0  0  0  0  0  0  0
   10.0459  -18.6208   18.1358 C   0  0  0  0  0  0  0  0  0  0  0  0
    8.9244  -19.3580   18.4630 C   0  0  0  0  0  0  0  0  0  0  0  0
    8.5551  -19.9874   17.3412 N   0  0  0  0  0  0  0  0  0  0  0  0
    9.3911  -19.6746   16.3431 C   0  0  0  0  0  0  0  0  0  0  0  0
   10.3223  -18.8292   16.8139 N   0  0  0  0  0  0  0  0  0  0  0  0
   11.1021  -16.5441   21.1188 C   0  0  0  0  0  0  0  0  0  0  0  0
   11.6054  -15.3939   21.0497 O   0  0  0  0  0  0  0  0  0  0  0  0
   10.4442  -18.9440   26.7013 N   0  0  0  0  0  0  0  0  0  0  0  0
   11.8685  -18.8865   26.6219 C   0  0  0  0  0  0  0  0  0  0  0  0
   12.6190  -19.4770   27.4592 O   0  0  0  0  0  0  0  0  0  0  0  0
   12.5540  -18.1360   25.5487 C   0  0  0  0  0  0  0  0  0  0  0  0
   11.6585  -17.5071   24.5475 C   0  0  0  0  0  0  0  0  0  0  0  0
   12.2637  -16.8905   23.3468 C   0  0  2  0  0  0  0  0  0  0  0  0
   11.4293  -17.3598   22.2069 N   0  0  0  0  0  0  0  0  0  0  0  0
   13.6582  -17.1364   23.0577 C   0  0  0  0  0  0  0  0  0  0  0  0
   14.1725  -18.1810   22.3048 O   0  0  0  0  0  0  0  0  0  0  0  0
   14.5419  -16.3410   23.5275 O   0  0  0  0  0  0  0  0  0  0  0  0
  2  1  1  0
  2  3  1  0
  3  4  1  1
  5  3  1  0
  5  6  2  0
  7  5  1  0
  8  7  1  0
  8  9  1  6
 10  9  1  0
 10 11  2  0
 12 11  1  0
 13 12  1  0
 14 13  2  0
 14 10  1  0
 15  8  1  0
 16 15  2  0
 17 18  1  0
 18 19  2  0
 18 20  1  0
 20 21  1  0
 22 21  1  1
 22 24  1  0
 22 23  1  0
 23 15  1  0
 24 25  1  0
 26 24  2  0
M  END
$$$$
