RYW.pdb
     RDKit          3D

 38 40  0  0  1  0  0  0  0  0999 V2000
   33.4126  -25.4588  -15.8399 N   0  0  0  0  0  0  0  0  0  0  0  0
   33.2599  -24.7799  -14.6144 C   0  0  0  0  0  0  0  0  0  0  0  0
   34.1835  -24.7719  -13.7039 N   0  0  0  0  0  0  0  0  0  0  0  0
   32.0515  -24.0907  -14.3900 N   0  0  0  0  0  0  0  0  0  0  0  0
   30.9441  -24.2954  -15.2967 C   0  0  0  0  0  0  0  0  0  0  0  0
   30.8195  -23.1550  -16.2764 C   0  0  0  0  0  0  0  0  0  0  0  0
   29.8590  -22.1433  -15.7062 C   0  0  0  0  0  0  0  0  0  0  0  0
   28.5984  -22.0484  -16.5345 C   0  0  2  0  0  0  0  0  0  0  0  0
   28.8354  -21.4863  -17.8377 N   0  0  0  0  0  0  0  0  0  0  0  0
   27.5801  -21.1962  -15.8531 C   0  0  0  0  0  0  0  0  0  0  0  0
   27.6874  -19.9221  -15.8464 O   0  0  0  0  0  0  0  0  0  0  0  0
   34.0354  -24.2658  -12.8214 O   0  0  0  0  0  0  0  0  0  0  0  0
   19.8406  -17.9234  -13.5363 C   0  0  0  0  0  0  0  0  0  0  0  0
   20.8815  -18.7147  -14.0046 C   0  0  0  0  0  0  0  0  0  0  0  0
   20.9361  -20.0864  -13.7883 C   0  0  0  0  0  0  0  0  0  0  0  0
   21.9641  -20.8296  -14.2578 C   0  0  0  0  0  0  0  0  0  0  0  0
   22.9843  -20.2435  -14.9628 C   0  0  0  0  0  0  0  0  0  0  0  0
   24.1329  -21.0248  -15.4811 C   0  0  1  0  0  0  0  0  0  0  0  0
   25.3769  -20.8911  -14.6709 N   0  0  0  0  0  0  0  0  0  0  0  0
   26.4587  -21.7245  -15.1875 C   0  0  0  0  0  0  0  0  0  0  0  0
   25.1045  -21.3143  -13.2932 O   0  0  0  0  0  0  0  0  0  0  0  0
   24.7890  -22.4968  -12.9744 C   0  0  0  0  0  0  0  0  0  0  0  0
   22.9638  -18.8895  -15.1958 C   0  0  0  0  0  0  0  0  0  0  0  0
   21.9254  -18.1366  -14.7223 N   0  0  0  0  0  0  0  0  0  0  0  0
   25.1930  -20.3665  -12.2462 C   0  0  2  0  0  0  0  0  0  0  0  0
   24.6487  -20.6007  -10.9139 C   0  0  0  0  0  0  0  0  0  0  0  0
   25.4947  -19.7423  -10.0004 C   0  0  0  0  0  0  0  0  0  0  0  0
   26.7297  -20.4741   -9.6622 C   0  0  0  0  0  0  0  0  0  0  0  0
   27.2012  -21.5914  -10.3437 N   0  0  0  0  0  0  0  0  0  0  0  0
   28.3620  -21.9598   -9.8076 C   0  0  0  0  0  0  0  0  0  0  0  0
   28.6694  -21.1355   -8.8075 C   0  0  0  0  0  0  0  0  0  0  0  0
   29.7360  -21.0783   -7.9325 C   0  0  0  0  0  0  0  0  0  0  0  0
   29.8128  -20.1097   -6.9551 C   0  0  0  0  0  0  0  0  0  0  0  0
   28.8069  -19.1708   -6.8387 C   0  0  0  0  0  0  0  0  0  0  0  0
   27.7528  -19.2405   -7.7168 C   0  0  0  0  0  0  0  0  0  0  0  0
   27.6572  -20.2004   -8.7030 C   0  0  0  0  0  0  0  0  0  0  0  0
   23.2179  -20.4151  -10.8486 O   0  0  0  0  0  0  0  0  0  0  0  0
   22.6330  -19.4661  -11.4376 O   0  0  0  0  0  0  0  0  0  0  0  0
  2  1  1  0
  2  3  2  0
  4  5  1  0
  4  2  1  0
  5  6  1  0
  6  7  1  0
  7  8  1  0
  8  9  1  6
 10 11  2  0
 10  8  1  0
 12 13  1  0
 13 23  2  0
 13 14  1  0
 14 15  2  0
 15 16  1  0
 16 17  1  0
 18 17  1  6
 18 19  1  0
 18 20  1  0
 19 10  1  0
 20 21  2  0
 22 16  2  0
 23 22  1  0
 24 20  1  0
 24 25  1  0
 25 26  1  6
 26 27  1  0
 27 28  2  0
 28 29  1  0
 30 31  2  0
 30 29  1  0
 32 31  1  0
 33 32  2  0
 34 33  1  0
 34 35  2  0
 35 27  1  0
 35 30  1  0
 36 25  1  0
 36 38  1  0
 37 36  2  0
M  END
$$$$
