RYW.pdb
     RDKit          3D

 38 40  0  0  1  0  0  0  0  0999 V2000
   30.5565  -23.6874  -18.0628 N   0  0  0  0  0  0  0  0  0  0  0  0
   30.7909  -24.0504  -16.7214 C   0  0  0  0  0  0  0  0  0  0  0  0
   31.7654  -24.8318  -16.3724 N   0  0  0  0  0  0  0  0  0  0  0  0
   29.9229  -23.5343  -15.7387 N   0  0  0  0  0  0  0  0  0  0  0  0
   28.8292  -22.6792  -16.1426 C   0  0  0  0  0  0  0  0  0  0  0  0
   29.2507  -21.2311  -16.1807 C   0  0  0  0  0  0  0  0  0  0  0  0
   28.4545  -20.4785  -15.1458 C   0  0  0  0  0  0  0  0  0  0  0  0
   26.9691  -20.5897  -15.4013 C   0  0  2  0  0  0  0  0  0  0  0  0
   26.5425  -19.8033  -16.5282 N   0  0  0  0  0  0  0  0  0  0  0  0
   26.1917  -20.1336  -14.2117 C   0  0  0  0  0  0  0  0  0  0  0  0
   25.9099  -18.8976  -14.0451 O   0  0  0  0  0  0  0  0  0  0  0  0
   31.8699  -25.1219  -15.3917 O   0  0  0  0  0  0  0  0  0  0  0  0
   20.0264  -18.9775  -15.4637 C   0  0  0  0  0  0  0  0  0  0  0  0
   20.9281  -19.4761  -14.5324 C   0  0  0  0  0  0  0  0  0  0  0  0
   20.9788  -19.0213  -13.2202 C   0  0  0  0  0  0  0  0  0  0  0  0
   21.8692  -19.5276  -12.3368 C   0  0  0  0  0  0  0  0  0  0  0  0
   22.7496  -20.5082  -12.7174 C   0  0  0  0  0  0  0  0  0  0  0  0
   23.7473  -21.0771  -11.7796 C   0  0  2  0  0  0  0  0  0  0  0  0
   25.1293  -20.5508  -11.9662 N   0  0  0  0  0  0  0  0  0  0  0  0
   25.7266  -21.0122  -13.2161 C   0  0  0  0  0  0  0  0  0  0  0  0
   25.9777  -21.0187  -10.8650 O   0  0  0  0  0  0  0  0  0  0  0  0
   27.0846  -21.6062  -11.0362 C   0  0  0  0  0  0  0  0  0  0  0  0
   22.7285  -20.9822  -14.0069 C   0  0  0  0  0  0  0  0  0  0  0  0
   21.8290  -20.4719  -14.9012 N   0  0  0  0  0  0  0  0  0  0  0  0
   25.5569  -20.8134   -9.5297 C   0  0  1  0  0  0  0  0  0  0  0  0
   26.3857  -21.1411   -8.3758 C   0  0  0  0  0  0  0  0  0  0  0  0
   27.6558  -20.3463   -8.5809 C   0  0  0  0  0  0  0  0  0  0  0  0
   28.5808  -20.6240   -7.4662 C   0  0  0  0  0  0  0  0  0  0  0  0
   29.5742  -21.5977   -7.4837 N   0  0  0  0  0  0  0  0  0  0  0  0
   30.2521  -21.5363   -6.3405 C   0  0  0  0  0  0  0  0  0  0  0  0
   29.7469  -20.5684   -5.5774 C   0  0  0  0  0  0  0  0  0  0  0  0
   30.0678  -20.1023   -4.3179 C   0  0  0  0  0  0  0  0  0  0  0  0
   29.3648  -19.0716   -3.7322 C   0  0  0  0  0  0  0  0  0  0  0  0
   28.3145  -18.4849   -4.4101 C   0  0  0  0  0  0  0  0  0  0  0  0
   28.0079  -18.9594   -5.6623 C   0  0  0  0  0  0  0  0  0  0  0  0
   28.6993  -19.9884   -6.2673 C   0  0  0  0  0  0  0  0  0  0  0  0
   25.6974  -20.9640   -7.1185 O   0  0  0  0  0  0  0  0  0  0  0  0
   24.8126  -20.0814   -6.9521 O   0  0  0  0  0  0  0  0  0  0  0  0
  2  1  1  0
  2  3  2  0
  4  5  1  0
  4  2  1  0
  5  6  1  0
  6  7  1  0
  7  8  1  0
  8  9  1  6
 10 11  2  0
 10  8  1  0
 12 13  1  0
 13 23  2  0
 13 14  1  0
 14 15  2  0
 15 16  1  0
 16 17  1  0
 18 17  1  6
 18 19  1  0
 18 20  1  0
 19 10  1  0
 20 21  2  0
 22 16  2  0
 23 22  1  0
 24 20  1  0
 24 25  1  0
 25 26  1  6
 26 27  1  0
 27 28  2  0
 28 29  1  0
 30 31  2  0
 30 29  1  0
 32 31  1  0
 33 32  2  0
 34 33  1  0
 34 35  2  0
 35 27  1  0
 35 30  1  0
 36 25  1  0
 36 38  1  0
 37 36  2  0
M  END
$$$$
