RYW.pdb
     RDKit          3D

 38 40  0  0  1  0  0  0  0  0999 V2000
   25.0745  -25.2270  -14.8561 N   0  0  0  0  0  0  0  0  0  0  0  0
   24.7347  -25.2920  -16.2222 C   0  0  0  0  0  0  0  0  0  0  0  0
   23.5046  -25.3221  -16.6324 N   0  0  0  0  0  0  0  0  0  0  0  0
   25.7851  -25.3245  -17.1608 N   0  0  0  0  0  0  0  0  0  0  0  0
   27.1468  -25.1666  -16.7010 C   0  0  0  0  0  0  0  0  0  0  0  0
   27.8263  -24.0076  -17.3871 C   0  0  0  0  0  0  0  0  0  0  0  0
   28.0263  -22.9090  -16.3749 C   0  0  0  0  0  0  0  0  0  0  0  0
   27.1084  -21.7379  -16.6401 C   0  0  2  0  0  0  0  0  0  0  0  0
   27.5837  -20.8942  -17.7044 N   0  0  0  0  0  0  0  0  0  0  0  0
   26.9663  -20.8898  -15.4202 C   0  0  0  0  0  0  0  0  0  0  0  0
   27.8582  -20.0271  -15.1119 O   0  0  0  0  0  0  0  0  0  0  0  0
   23.2947  -25.4720  -17.6275 O   0  0  0  0  0  0  0  0  0  0  0  0
   19.8396  -22.6639  -13.6557 C   0  0  0  0  0  0  0  0  0  0  0  0
   20.9620  -21.8509  -13.5651 C   0  0  0  0  0  0  0  0  0  0  0  0
   21.3885  -21.2927  -12.3660 C   0  0  0  0  0  0  0  0  0  0  0  0
   22.4865  -20.5047  -12.3111 C   0  0  0  0  0  0  0  0  0  0  0  0
   23.2098  -20.2353  -13.4448 C   0  0  0  0  0  0  0  0  0  0  0  0
   24.4107  -19.3659  -13.4241 C   0  0  1  0  0  0  0  0  0  0  0  0
   25.7018  -20.1097  -13.3862 N   0  0  0  0  0  0  0  0  0  0  0  0
   25.8666  -20.9796  -14.5471 C   0  0  0  0  0  0  0  0  0  0  0  0
   25.7393  -20.9525  -12.1863 O   0  0  0  0  0  0  0  0  0  0  0  0
   25.3839  -22.1662  -12.1731 C   0  0  0  0  0  0  0  0  0  0  0  0
   22.8178  -20.7700  -14.6484 C   0  0  0  0  0  0  0  0  0  0  0  0
   21.7085  -21.5670  -14.7060 N   0  0  0  0  0  0  0  0  0  0  0  0
   26.1938  -20.4008  -10.9650 C   0  0  2  0  0  0  0  0  0  0  0  0
   25.9871  -21.0478   -9.6748 C   0  0  0  0  0  0  0  0  0  0  0  0
   27.3255  -20.9448   -8.9783 C   0  0  0  0  0  0  0  0  0  0  0  0
   27.1060  -20.5559   -7.5726 C   0  0  0  0  0  0  0  0  0  0  0  0
   25.9687  -20.8636   -6.8330 N   0  0  0  0  0  0  0  0  0  0  0  0
   26.1298  -20.4081   -5.5932 C   0  0  0  0  0  0  0  0  0  0  0  0
   27.3188  -19.8168   -5.4896 C   0  0  0  0  0  0  0  0  0  0  0  0
   27.9642  -19.1831   -4.4463 C   0  0  0  0  0  0  0  0  0  0  0  0
   29.2163  -18.6297   -4.6056 C   0  0  0  0  0  0  0  0  0  0  0  0
   29.8488  -18.7041   -5.8309 C   0  0  0  0  0  0  0  0  0  0  0  0
   29.1941  -19.3380   -6.8588 C   0  0  0  0  0  0  0  0  0  0  0  0
   27.9419  -19.8999   -6.7204 C   0  0  0  0  0  0  0  0  0  0  0  0
   24.8377  -20.5365   -8.9653 O   0  0  0  0  0  0  0  0  0  0  0  0
   24.3786  -19.3800   -9.1687 O   0  0  0  0  0  0  0  0  0  0  0  0
  2  1  1  0
  2  3  2  0
  4  5  1  0
  4  2  1  0
  5  6  1  0
  6  7  1  0
  7  8  1  0
  8  9  1  6
 10 11  2  0
 10  8  1  0
 12 13  1  0
 13 23  2  0
 13 14  1  0
 14 15  2  0
 15 16  1  0
 16 17  1  0
 18 17  1  6
 18 19  1  0
 18 20  1  0
 19 10  1  0
 20 21  2  0
 22 16  2  0
 23 22  1  0
 24 20  1  0
 24 25  1  0
 25 26  1  6
 26 27  1  0
 27 28  2  0
 28 29  1  0
 30 31  2  0
 30 29  1  0
 32 31  1  0
 33 32  2  0
 34 33  1  0
 34 35  2  0
 35 27  1  0
 35 30  1  0
 36 25  1  0
 36 38  1  0
 37 36  2  0
M  END
$$$$
