RYW.pdb
     RDKit          3D

 38 40  0  0  1  0  0  0  0  0999 V2000
   27.5186  -19.0825  -15.1360 N   0  0  0  0  0  0  0  0  0  0  0  0
   27.9591  -18.0256  -15.9574 C   0  0  0  0  0  0  0  0  0  0  0  0
   29.0907  -17.4212  -15.7663 N   0  0  0  0  0  0  0  0  0  0  0  0
   27.1244  -17.6261  -17.0200 N   0  0  0  0  0  0  0  0  0  0  0  0
   25.8411  -18.2703  -17.1893 C   0  0  0  0  0  0  0  0  0  0  0  0
   24.7130  -17.3675  -16.7554 C   0  0  0  0  0  0  0  0  0  0  0  0
   24.1861  -17.8687  -15.4354 C   0  0  0  0  0  0  0  0  0  0  0  0
   23.5511  -19.2331  -15.5745 C   0  0  2  0  0  0  0  0  0  0  0  0
   22.1476  -19.1597  -15.8832 N   0  0  0  0  0  0  0  0  0  0  0  0
   23.6958  -20.0156  -14.3119 C   0  0  0  0  0  0  0  0  0  0  0  0
   22.8426  -19.9016  -13.3664 O   0  0  0  0  0  0  0  0  0  0  0  0
   29.4070  -16.6959  -16.4225 O   0  0  0  0  0  0  0  0  0  0  0  0
   21.2403  -26.2169  -15.4714 C   0  0  0  0  0  0  0  0  0  0  0  0
   22.2303  -25.4591  -14.8594 C   0  0  0  0  0  0  0  0  0  0  0  0
   22.3780  -25.3932  -13.4791 C   0  0  0  0  0  0  0  0  0  0  0  0
   23.3530  -24.6456  -12.9134 C   0  0  0  0  0  0  0  0  0  0  0  0
   24.2247  -23.9294  -13.6934 C   0  0  0  0  0  0  0  0  0  0  0  0
   25.2970  -23.0895  -13.1075 C   0  0  2  0  0  0  0  0  0  0  0  0
   24.8929  -21.6786  -12.8469 N   0  0  0  0  0  0  0  0  0  0  0  0
   24.7559  -20.9115  -14.0817 C   0  0  0  0  0  0  0  0  0  0  0  0
   25.9180  -21.0258  -12.0256 O   0  0  0  0  0  0  0  0  0  0  0  0
   27.0354  -20.6419  -12.4768 C   0  0  0  0  0  0  0  0  0  0  0  0
   24.1088  -23.9705  -15.0619 C   0  0  0  0  0  0  0  0  0  0  0  0
   23.1241  -24.7259  -15.6356 N   0  0  0  0  0  0  0  0  0  0  0  0
   25.6668  -20.8023  -10.6511 C   0  0  2  0  0  0  0  0  0  0  0  0
   26.6567  -20.2329   -9.7445 C   0  0  0  0  0  0  0  0  0  0  0  0
   25.9090  -20.0238   -8.4467 C   0  0  0  0  0  0  0  0  0  0  0  0
   26.8143  -19.3935   -7.4678 C   0  0  0  0  0  0  0  0  0  0  0  0
   26.9682  -18.0213   -7.2988 N   0  0  0  0  0  0  0  0  0  0  0  0
   27.8186  -17.8072   -6.2981 C   0  0  0  0  0  0  0  0  0  0  0  0
   28.2274  -18.9758   -5.8066 C   0  0  0  0  0  0  0  0  0  0  0  0
   29.0990  -19.3133   -4.7903 C   0  0  0  0  0  0  0  0  0  0  0  0
   29.3673  -20.6292   -4.4807 C   0  0  0  0  0  0  0  0  0  0  0  0
   28.7573  -21.6408   -5.1960 C   0  0  0  0  0  0  0  0  0  0  0  0
   27.8923  -21.2890   -6.2037 C   0  0  0  0  0  0  0  0  0  0  0  0
   27.6087  -19.9787   -6.5286 C   0  0  0  0  0  0  0  0  0  0  0  0
   27.8748  -21.0062   -9.6820 O   0  0  0  0  0  0  0  0  0  0  0  0
   27.8764  -22.2666   -9.7129 O   0  0  0  0  0  0  0  0  0  0  0  0
  2  1  1  0
  2  3  2  0
  4  5  1  0
  4  2  1  0
  5  6  1  0
  6  7  1  0
  7  8  1  0
  8  9  1  1
 10 11  2  0
 10  8  1  0
 12 13  1  0
 13 23  2  0
 13 14  1  0
 14 15  2  0
 15 16  1  0
 16 17  1  0
 18 17  1  6
 18 19  1  0
 18 20  1  0
 19 10  1  0
 20 21  2  0
 22 16  2  0
 23 22  1  0
 24 20  1  0
 24 25  1  0
 25 26  1  1
 26 27  1  0
 27 28  2  0
 28 29  1  0
 30 31  2  0
 30 29  1  0
 32 31  1  0
 33 32  2  0
 34 33  1  0
 34 35  2  0
 35 27  1  0
 35 30  1  0
 36 25  1  0
 36 38  1  0
 37 36  2  0
M  END
$$$$
