RYW.pdb
     RDKit          3D

 38 40  0  0  1  0  0  0  0  0999 V2000
   27.4675  -18.9635  -19.1454 N   0  0  0  0  0  0  0  0  0  0  0  0
   28.0769  -19.8990  -20.0053 C   0  0  0  0  0  0  0  0  0  0  0  0
   28.2282  -19.6813  -21.2749 N   0  0  0  0  0  0  0  0  0  0  0  0
   28.5317  -21.1092  -19.4449 N   0  0  0  0  0  0  0  0  0  0  0  0
   28.2267  -21.4050  -18.0629 C   0  0  0  0  0  0  0  0  0  0  0  0
   26.7910  -21.8385  -17.8990 C   0  0  0  0  0  0  0  0  0  0  0  0
   26.7795  -23.2584  -17.3942 C   0  0  0  0  0  0  0  0  0  0  0  0
   27.7069  -23.4341  -16.2138 C   0  0  2  0  0  0  0  0  0  0  0  0
   28.0996  -24.8047  -16.0197 N   0  0  0  0  0  0  0  0  0  0  0  0
   27.0552  -22.9681  -14.9546 C   0  0  0  0  0  0  0  0  0  0  0  0
   26.1421  -23.6632  -14.3908 O   0  0  0  0  0  0  0  0  0  0  0  0
   28.7446  -20.3531  -21.8569 O   0  0  0  0  0  0  0  0  0  0  0  0
   26.8552  -20.5928   -6.7670 C   0  0  0  0  0  0  0  0  0  0  0  0
   26.9865  -20.5106   -8.1471 C   0  0  0  0  0  0  0  0  0  0  0  0
   25.9093  -20.2618   -8.9891 C   0  0  0  0  0  0  0  0  0  0  0  0
   26.0703  -20.1876  -10.3300 C   0  0  0  0  0  0  0  0  0  0  0  0
   27.3085  -20.3579  -10.8949 C   0  0  0  0  0  0  0  0  0  0  0  0
   27.5198  -20.2960  -12.3612 C   0  0  2  0  0  0  0  0  0  0  0  0
   26.6914  -21.2613  -13.1381 N   0  0  0  0  0  0  0  0  0  0  0  0
   27.3937  -21.7605  -14.3168 C   0  0  0  0  0  0  0  0  0  0  0  0
   25.4694  -20.5912  -13.5954 O   0  0  0  0  0  0  0  0  0  0  0  0
   25.4587  -19.6761  -14.4683 C   0  0  0  0  0  0  0  0  0  0  0  0
   28.3968  -20.6058  -10.0934 C   0  0  0  0  0  0  0  0  0  0  0  0
   28.2361  -20.6808   -8.7378 N   0  0  0  0  0  0  0  0  0  0  0  0
   24.2224  -20.9717  -13.0452 C   0  0  2  0  0  0  0  0  0  0  0  0
   22.9727  -20.2908  -13.3625 C   0  0  0  0  0  0  0  0  0  0  0  0
   22.7707  -20.5348  -14.8412 C   0  0  0  0  0  0  0  0  0  0  0  0
   22.0666  -21.8178  -15.0239 C   0  0  0  0  0  0  0  0  0  0  0  0
   20.7678  -22.0772  -14.5986 N   0  0  0  0  0  0  0  0  0  0  0  0
   20.4338  -23.3092  -14.9740 C   0  0  0  0  0  0  0  0  0  0  0  0
   21.4545  -23.8662  -15.6238 C   0  0  0  0  0  0  0  0  0  0  0  0
   21.6338  -25.1069  -16.2027 C   0  0  0  0  0  0  0  0  0  0  0  0
   22.8189  -25.4488  -16.8174 C   0  0  0  0  0  0  0  0  0  0  0  0
   23.8569  -24.5391  -16.8612 C   0  0  0  0  0  0  0  0  0  0  0  0
   23.6630  -23.3089  -16.2814 C   0  0  0  0  0  0  0  0  0  0  0  0
   22.4847  -22.9459  -15.6627 C   0  0  0  0  0  0  0  0  0  0  0  0
   21.8892  -20.6620  -12.4828 O   0  0  0  0  0  0  0  0  0  0  0  0
   21.9788  -21.6211  -11.6693 O   0  0  0  0  0  0  0  0  0  0  0  0
  2  1  1  0
  2  3  2  0
  4  5  1  0
  4  2  1  0
  5  6  1  0
  6  7  1  0
  7  8  1  0
  8  9  1  1
 10 11  2  0
 10  8  1  0
 12 13  1  0
 13 23  2  0
 13 14  1  0
 14 15  2  0
 15 16  1  0
 16 17  1  0
 18 17  1  1
 18 19  1  0
 18 20  1  0
 19 10  1  0
 20 21  2  0
 22 16  2  0
 23 22  1  0
 24 20  1  0
 24 25  1  0
 25 26  1  6
 26 27  1  0
 27 28  2  0
 28 29  1  0
 30 31  2  0
 30 29  1  0
 32 31  1  0
 33 32  2  0
 34 33  1  0
 34 35  2  0
 35 27  1  0
 35 30  1  0
 36 25  1  0
 36 38  1  0
 37 36  2  0
M  END
$$$$
