RYW.pdb
     RDKit          3D

 38 40  0  0  1  0  0  0  0  0999 V2000
   17.1710  -15.9757  -19.8247 N   0  0  0  0  0  0  0  0  0  0  0  0
   16.5104  -15.6704  -18.6179 C   0  0  0  0  0  0  0  0  0  0  0  0
   16.1388  -16.5857  -17.7775 N   0  0  0  0  0  0  0  0  0  0  0  0
   16.2538  -14.3145  -18.3329 N   0  0  0  0  0  0  0  0  0  0  0  0
   17.2816  -13.5209  -17.6971 C   0  0  0  0  0  0  0  0  0  0  0  0
   18.2003  -12.8948  -18.7169 C   0  0  0  0  0  0  0  0  0  0  0  0
   19.2913  -12.1584  -17.9830 C   0  0  0  0  0  0  0  0  0  0  0  0
   18.7864  -10.8592  -17.3988 C   0  0  2  0  0  0  0  0  0  0  0  0
   18.1462  -10.0246  -18.3807 N   0  0  0  0  0  0  0  0  0  0  0  0
   19.9078  -10.0759  -16.8018 C   0  0  0  0  0  0  0  0  0  0  0  0
   20.7310  -10.6212  -15.9895 O   0  0  0  0  0  0  0  0  0  0  0  0
   15.6633  -16.3240  -16.9045 O   0  0  0  0  0  0  0  0  0  0  0  0
   17.5244   -3.0568  -18.3776 C   0  0  0  0  0  0  0  0  0  0  0  0
   18.5399   -3.9585  -18.0866 C   0  0  0  0  0  0  0  0  0  0  0  0
   19.4084   -3.7890  -17.0151 C   0  0  0  0  0  0  0  0  0  0  0  0
   20.3878   -4.6858  -16.7581 C   0  0  0  0  0  0  0  0  0  0  0  0
   20.5488   -5.7910  -17.5544 C   0  0  0  0  0  0  0  0  0  0  0  0
   21.6191   -6.7877  -17.3102 C   0  0  1  0  0  0  0  0  0  0  0  0
   21.1982   -7.9394  -16.4628 N   0  0  0  0  0  0  0  0  0  0  0  0
   20.1304   -8.7160  -17.0859 C   0  0  0  0  0  0  0  0  0  0  0  0
   20.6963   -7.4374  -15.1792 O   0  0  0  0  0  0  0  0  0  0  0  0
   19.4779   -7.1820  -14.9566 C   0  0  0  0  0  0  0  0  0  0  0  0
   19.7086   -5.9912  -18.6231 C   0  0  0  0  0  0  0  0  0  0  0  0
   18.7178   -5.0860  -18.8842 N   0  0  0  0  0  0  0  0  0  0  0  0
   21.6051   -7.2190  -14.1167 C   0  0  1  0  0  0  0  0  0  0  0  0
   21.1914   -6.7426  -12.8022 C   0  0  0  0  0  0  0  0  0  0  0  0
   21.4687   -7.9022  -11.8721 C   0  0  0  0  0  0  0  0  0  0  0  0
   21.2520   -7.4636  -10.4807 C   0  0  0  0  0  0  0  0  0  0  0  0
   20.0863   -6.8685  -10.0092 N   0  0  0  0  0  0  0  0  0  0  0  0
   20.2151   -6.6541   -8.7024 C   0  0  0  0  0  0  0  0  0  0  0  0
   21.4108   -7.0808   -8.2992 C   0  0  0  0  0  0  0  0  0  0  0  0
   22.0402   -7.0859   -7.0703 C   0  0  0  0  0  0  0  0  0  0  0  0
   23.3154   -7.5856   -6.9178 C   0  0  0  0  0  0  0  0  0  0  0  0
   23.9884   -8.0947   -8.0109 C   0  0  0  0  0  0  0  0  0  0  0  0
   23.3488   -8.0832   -9.2266 C   0  0  0  0  0  0  0  0  0  0  0  0
   22.0725   -7.5893   -9.4007 C   0  0  0  0  0  0  0  0  0  0  0  0
   21.7764   -5.4687  -12.4543 O   0  0  0  0  0  0  0  0  0  0  0  0
   22.9451   -5.1459  -12.8001 O   0  0  0  0  0  0  0  0  0  0  0  0
  2  1  1  0
  2  3  2  0
  4  5  1  0
  4  2  1  0
  5  6  1  0
  6  7  1  0
  7  8  1  0
  8  9  1  6
 10 11  2  0
 10  8  1  0
 12 13  1  0
 13 23  2  0
 13 14  1  0
 14 15  2  0
 15 16  1  0
 16 17  1  0
 18 17  1  6
 18 19  1  0
 18 20  1  0
 19 10  1  0
 20 21  2  0
 22 16  2  0
 23 22  1  0
 24 20  1  0
 24 25  1  0
 25 26  1  1
 26 27  1  0
 27 28  2  0
 28 29  1  0
 30 31  2  0
 30 29  1  0
 32 31  1  0
 33 32  2  0
 34 33  1  0
 34 35  2  0
 35 27  1  0
 35 30  1  0
 36 25  1  0
 36 38  1  0
 37 36  2  0
M  END
$$$$
