RYW.pdb
     RDKit          3D

 38 40  0  0  1  0  0  0  0  0999 V2000
   23.4059  -27.3930  -17.2869 N   0  0  0  0  0  0  0  0  0  0  0  0
   22.5415  -26.9451  -16.2681 C   0  0  0  0  0  0  0  0  0  0  0  0
   21.7591  -27.7486  -15.6166 N   0  0  0  0  0  0  0  0  0  0  0  0
   22.5427  -25.5699  -15.9613 N   0  0  0  0  0  0  0  0  0  0  0  0
   23.4214  -24.6849  -16.6929 C   0  0  0  0  0  0  0  0  0  0  0  0
   24.8521  -25.1593  -16.6320 C   0  0  0  0  0  0  0  0  0  0  0  0
   25.5660  -24.3755  -15.5608 C   0  0  0  0  0  0  0  0  0  0  0  0
   25.7444  -22.9286  -15.9592 C   0  0  2  0  0  0  0  0  0  0  0  0
   26.4536  -22.7820  -17.2026 N   0  0  0  0  0  0  0  0  0  0  0  0
   26.5047  -22.1817  -14.9145 C   0  0  0  0  0  0  0  0  0  0  0  0
   27.7475  -22.4089  -14.7175 O   0  0  0  0  0  0  0  0  0  0  0  0
   21.0817  -27.3751  -14.9396 O   0  0  0  0  0  0  0  0  0  0  0  0
   29.1217  -17.2801  -17.9328 C   0  0  0  0  0  0  0  0  0  0  0  0
   28.5467  -17.7266  -16.7500 C   0  0  0  0  0  0  0  0  0  0  0  0
   29.2756  -18.3756  -15.7606 C   0  0  0  0  0  0  0  0  0  0  0  0
   28.6859  -18.7985  -14.6191 C   0  0  0  0  0  0  0  0  0  0  0  0
   27.3457  -18.5962  -14.4094 C   0  0  0  0  0  0  0  0  0  0  0  0
   26.6637  -19.0575  -13.1763 C   0  0  2  0  0  0  0  0  0  0  0  0
   26.6397  -20.5385  -13.0101 N   0  0  0  0  0  0  0  0  0  0  0  0
   25.9194  -21.1994  -14.0947 C   0  0  0  0  0  0  0  0  0  0  0  0
   25.9617  -20.8732  -11.7532 O   0  0  0  0  0  0  0  0  0  0  0  0
   24.7100  -20.7932  -11.5912 C   0  0  0  0  0  0  0  0  0  0  0  0
   26.5932  -17.9582  -15.3659 C   0  0  0  0  0  0  0  0  0  0  0  0
   27.1875  -17.5297  -16.5202 N   0  0  0  0  0  0  0  0  0  0  0  0
   26.7279  -21.3118  -10.6473 C   0  0  2  0  0  0  0  0  0  0  0  0
   26.1590  -21.5304   -9.3228 C   0  0  0  0  0  0  0  0  0  0  0  0
   27.3577  -21.6921   -8.4151 C   0  0  0  0  0  0  0  0  0  0  0  0
   27.2407  -20.7431   -7.2922 C   0  0  0  0  0  0  0  0  0  0  0  0
   26.0624  -20.1121   -6.9067 N   0  0  0  0  0  0  0  0  0  0  0  0
   26.3080  -19.3710   -5.8293 C   0  0  0  0  0  0  0  0  0  0  0  0
   27.5918  -19.4883   -5.4943 C   0  0  0  0  0  0  0  0  0  0  0  0
   28.3525  -18.9344   -4.4838 C   0  0  0  0  0  0  0  0  0  0  0  0
   29.6964  -19.2137   -4.3601 C   0  0  0  0  0  0  0  0  0  0  0  0
   30.3064  -20.0644   -5.2607 C   0  0  0  0  0  0  0  0  0  0  0  0
   29.5362  -20.6079   -6.2600 C   0  0  0  0  0  0  0  0  0  0  0  0
   28.1898  -20.3430   -6.4008 C   0  0  0  0  0  0  0  0  0  0  0  0
   25.1878  -20.5272   -8.9536 O   0  0  0  0  0  0  0  0  0  0  0  0
   25.3815  -19.2966   -9.1482 O   0  0  0  0  0  0  0  0  0  0  0  0
  2  1  1  0
  2  3  2  0
  4  5  1  0
  4  2  1  0
  5  6  1  0
  6  7  1  0
  7  8  1  0
  8  9  1  6
 10 11  2  0
 10  8  1  0
 12 13  1  0
 13 23  2  0
 13 14  1  0
 14 15  2  0
 15 16  1  0
 16 17  1  0
 18 17  1  6
 18 19  1  0
 18 20  1  0
 19 10  1  0
 20 21  2  0
 22 16  2  0
 23 22  1  0
 24 20  1  0
 24 25  1  0
 25 26  1  6
 26 27  1  0
 27 28  2  0
 28 29  1  0
 30 31  2  0
 30 29  1  0
 32 31  1  0
 33 32  2  0
 34 33  1  0
 34 35  2  0
 35 27  1  0
 35 30  1  0
 36 25  1  0
 36 38  1  0
 37 36  2  0
M  END
$$$$
