RYW.pdb
     RDKit          3D

 38 40  0  0  1  0  0  0  0  0999 V2000
   26.6840  -25.9106  -17.0917 N   0  0  0  0  0  0  0  0  0  0  0  0
   27.7901  -25.0737  -17.3409 C   0  0  0  0  0  0  0  0  0  0  0  0
   28.7817  -24.9661  -16.5118 N   0  0  0  0  0  0  0  0  0  0  0  0
   27.7995  -24.3352  -18.5409 N   0  0  0  0  0  0  0  0  0  0  0  0
   26.5699  -23.7365  -19.0101 C   0  0  0  0  0  0  0  0  0  0  0  0
   26.2260  -22.4987  -18.2191 C   0  0  0  0  0  0  0  0  0  0  0  0
   25.3159  -22.8981  -17.0862 C   0  0  0  0  0  0  0  0  0  0  0  0
   23.9766  -22.2042  -17.1808 C   0  0  2  0  0  0  0  0  0  0  0  0
   23.9055  -21.2907  -18.2903 N   0  0  0  0  0  0  0  0  0  0  0  0
   23.6932  -21.4283  -15.9377 C   0  0  0  0  0  0  0  0  0  0  0  0
   23.9385  -20.1751  -15.8748 O   0  0  0  0  0  0  0  0  0  0  0  0
   29.5410  -24.2985  -16.6974 O   0  0  0  0  0  0  0  0  0  0  0  0
   17.4540  -21.3984  -16.7553 C   0  0  0  0  0  0  0  0  0  0  0  0
   18.4870  -21.4413  -15.8280 C   0  0  0  0  0  0  0  0  0  0  0  0
   19.2091  -22.5988  -15.5634 C   0  0  0  0  0  0  0  0  0  0  0  0
   20.2102  -22.6079  -14.6538 C   0  0  0  0  0  0  0  0  0  0  0  0
   20.5385  -21.4677  -13.9658 C   0  0  0  0  0  0  0  0  0  0  0  0
   21.6211  -21.4440  -12.9528 C   0  0  2  0  0  0  0  0  0  0  0  0
   22.9877  -21.2784  -13.5243 N   0  0  0  0  0  0  0  0  0  0  0  0
   23.1492  -22.0096  -14.7777 C   0  0  0  0  0  0  0  0  0  0  0  0
   23.9760  -21.7972  -12.5727 O   0  0  0  0  0  0  0  0  0  0  0  0
   24.4142  -22.9833  -12.5969 C   0  0  0  0  0  0  0  0  0  0  0  0
   19.8461  -20.3044  -14.2012 C   0  0  0  0  0  0  0  0  0  0  0  0
   18.8341  -20.2931  -15.1205 N   0  0  0  0  0  0  0  0  0  0  0  0
   24.4817  -20.9438  -11.5635 C   0  0  1  0  0  0  0  0  0  0  0  0
   25.5666  -21.3275  -10.6682 C   0  0  0  0  0  0  0  0  0  0  0  0
   26.7780  -21.4446  -11.5658 C   0  0  0  0  0  0  0  0  0  0  0  0
   26.8265  -20.2736  -12.4611 C   0  0  0  0  0  0  0  0  0  0  0  0
   26.5518  -18.9664  -12.0727 N   0  0  0  0  0  0  0  0  0  0  0  0
   26.7442  -18.1621  -13.1151 C   0  0  0  0  0  0  0  0  0  0  0  0
   27.1309  -18.8836  -14.1658 C   0  0  0  0  0  0  0  0  0  0  0  0
   27.4464  -18.5507  -15.4682 C   0  0  0  0  0  0  0  0  0  0  0  0
   27.8139  -19.5102  -16.3866 C   0  0  0  0  0  0  0  0  0  0  0  0
   27.8712  -20.8369  -16.0076 C   0  0  0  0  0  0  0  0  0  0  0  0
   27.5550  -21.1522  -14.7085 C   0  0  0  0  0  0  0  0  0  0  0  0
   27.1864  -20.2075  -13.7732 C   0  0  0  0  0  0  0  0  0  0  0  0
   25.6832  -20.4600   -9.5194 O   0  0  0  0  0  0  0  0  0  0  0  0
   24.9325  -19.4615   -9.3488 O   0  0  0  0  0  0  0  0  0  0  0  0
  2  1  1  0
  2  3  2  0
  4  5  1  0
  4  2  1  0
  5  6  1  0
  6  7  1  0
  7  8  1  0
  8  9  1  6
 10 11  2  0
 10  8  1  0
 12 13  1  0
 13 23  2  0
 13 14  1  0
 14 15  2  0
 15 16  1  0
 16 17  1  0
 18 17  1  6
 18 19  1  0
 18 20  1  0
 19 10  1  0
 20 21  2  0
 22 16  2  0
 23 22  1  0
 24 20  1  0
 24 25  1  0
 25 26  1  6
 26 27  1  0
 27 28  2  0
 28 29  1  0
 30 31  2  0
 30 29  1  0
 32 31  1  0
 33 32  2  0
 34 33  1  0
 34 35  2  0
 35 27  1  0
 35 30  1  0
 36 25  1  0
 36 38  1  0
 37 36  2  0
M  END
$$$$
