RYW.pdb
     RDKit          3D

 38 40  0  0  1  0  0  0  0  0999 V2000
   28.2748  -22.1406  -17.7208 N   0  0  0  0  0  0  0  0  0  0  0  0
   28.4517  -23.5371  -17.6546 C   0  0  0  0  0  0  0  0  0  0  0  0
   28.6544  -24.1603  -16.5353 N   0  0  0  0  0  0  0  0  0  0  0  0
   28.4029  -24.2646  -18.8604 N   0  0  0  0  0  0  0  0  0  0  0  0
   27.2521  -24.1220  -19.7239 C   0  0  0  0  0  0  0  0  0  0  0  0
   26.7930  -22.6866  -19.7932 C   0  0  0  0  0  0  0  0  0  0  0  0
   25.4303  -22.6555  -20.4360 C   0  0  0  0  0  0  0  0  0  0  0  0
   24.5301  -23.7338  -19.8784 C   0  0  2  0  0  0  0  0  0  0  0  0
   24.5390  -24.9290  -20.6797 N   0  0  0  0  0  0  0  0  0  0  0  0
   23.1188  -23.2553  -19.7961 C   0  0  0  0  0  0  0  0  0  0  0  0
   22.3803  -23.2044  -20.8386 O   0  0  0  0  0  0  0  0  0  0  0  0
   28.8330  -25.1726  -16.5319 O   0  0  0  0  0  0  0  0  0  0  0  0
   19.0453  -27.9203  -20.7872 C   0  0  0  0  0  0  0  0  0  0  0  0
   19.3110  -26.7620  -20.0684 C   0  0  0  0  0  0  0  0  0  0  0  0
   18.5315  -25.6166  -20.1778 C   0  0  0  0  0  0  0  0  0  0  0  0
   18.8167  -24.5039  -19.4637 C   0  0  0  0  0  0  0  0  0  0  0  0
   19.8893  -24.4787  -18.6092 C   0  0  0  0  0  0  0  0  0  0  0  0
   20.2391  -23.2727  -17.8206 C   0  0  2  0  0  0  0  0  0  0  0  0
   21.1527  -22.3280  -18.5237 N   0  0  0  0  0  0  0  0  0  0  0  0
   22.5190  -22.8379  -18.5939 C   0  0  0  0  0  0  0  0  0  0  0  0
   21.1866  -21.0555  -17.7950 O   0  0  0  0  0  0  0  0  0  0  0  0
   21.8803  -20.8636  -16.7551 C   0  0  0  0  0  0  0  0  0  0  0  0
   20.6825  -25.5927  -18.4755 C   0  0  0  0  0  0  0  0  0  0  0  0
   20.3957  -26.7186  -19.1962 N   0  0  0  0  0  0  0  0  0  0  0  0
   20.4095  -19.9685  -18.2610 C   0  0  1  0  0  0  0  0  0  0  0  0
   20.4804  -18.6335  -17.6789 C   0  0  0  0  0  0  0  0  0  0  0  0
   21.0344  -17.7643  -18.7854 C   0  0  0  0  0  0  0  0  0  0  0  0
   19.9973  -17.5836  -19.8183 C   0  0  0  0  0  0  0  0  0  0  0  0
   18.9153  -16.7157  -19.7124 N   0  0  0  0  0  0  0  0  0  0  0  0
   18.2155  -16.7661  -20.8430 C   0  0  0  0  0  0  0  0  0  0  0  0
   18.7900  -17.6272  -21.6814 C   0  0  0  0  0  0  0  0  0  0  0  0
   18.4710  -18.0505  -22.9564 C   0  0  0  0  0  0  0  0  0  0  0  0
   19.2404  -18.9832  -23.6177 C   0  0  0  0  0  0  0  0  0  0  0  0
   20.3569  -19.5132  -23.0017 C   0  0  0  0  0  0  0  0  0  0  0  0
   20.6614  -19.0817  -21.7335 C   0  0  0  0  0  0  0  0  0  0  0  0
   19.9060  -18.1482  -21.0546 C   0  0  0  0  0  0  0  0  0  0  0  0
   19.2366  -18.2143  -17.0764 O   0  0  0  0  0  0  0  0  0  0  0  0
   19.1607  -17.2161  -16.3100 O   0  0  0  0  0  0  0  0  0  0  0  0
  2  1  1  0
  2  3  2  0
  4  5  1  0
  4  2  1  0
  5  6  1  0
  6  7  1  0
  7  8  1  0
  8  9  1  6
 10 11  2  0
 10  8  1  0
 12 13  1  0
 13 23  2  0
 13 14  1  0
 14 15  2  0
 15 16  1  0
 16 17  1  0
 18 17  1  6
 18 19  1  0
 18 20  1  0
 19 10  1  0
 20 21  2  0
 22 16  2  0
 23 22  1  0
 24 20  1  0
 24 25  1  0
 25 26  1  6
 26 27  1  0
 27 28  2  0
 28 29  1  0
 30 31  2  0
 30 29  1  0
 32 31  1  0
 33 32  2  0
 34 33  1  0
 34 35  2  0
 35 27  1  0
 35 30  1  0
 36 25  1  0
 36 38  1  0
 37 36  2  0
M  END
$$$$
