RYW.pdb
     RDKit          3D

 38 40  0  0  1  0  0  0  0  0999 V2000
   31.9348  -24.8248  -15.2035 N   0  0  0  0  0  0  0  0  0  0  0  0
   31.7073  -24.5124  -16.5587 C   0  0  0  0  0  0  0  0  0  0  0  0
   32.1236  -25.2692  -17.5263 N   0  0  0  0  0  0  0  0  0  0  0  0
   30.9996  -23.3298  -16.8517 N   0  0  0  0  0  0  0  0  0  0  0  0
   30.3263  -22.6275  -15.7822 C   0  0  0  0  0  0  0  0  0  0  0  0
   28.8402  -22.8861  -15.8066 C   0  0  0  0  0  0  0  0  0  0  0  0
   28.1274  -21.5597  -15.7459 C   0  0  0  0  0  0  0  0  0  0  0  0
   26.6265  -21.7371  -15.7445 C   0  0  2  0  0  0  0  0  0  0  0  0
   26.0088  -21.2223  -16.9378 N   0  0  0  0  0  0  0  0  0  0  0  0
   26.0116  -21.0365  -14.5790 C   0  0  0  0  0  0  0  0  0  0  0  0
   25.9007  -19.7628  -14.5615 O   0  0  0  0  0  0  0  0  0  0  0  0
   31.8999  -25.0322  -18.5013 O   0  0  0  0  0  0  0  0  0  0  0  0
   20.1786  -19.0891  -16.0985 C   0  0  0  0  0  0  0  0  0  0  0  0
   20.9902  -19.6168  -15.1026 C   0  0  0  0  0  0  0  0  0  0  0  0
   21.3423  -18.9006  -13.9649 C   0  0  0  0  0  0  0  0  0  0  0  0
   22.1348  -19.4432  -13.0125 C   0  0  0  0  0  0  0  0  0  0  0  0
   22.6136  -20.7214  -13.1478 C   0  0  0  0  0  0  0  0  0  0  0  0
   23.4947  -21.3435  -12.1304 C   0  0  2  0  0  0  0  0  0  0  0  0
   24.9410  -21.0247  -12.2990 N   0  0  0  0  0  0  0  0  0  0  0  0
   25.5232  -21.7141  -13.4468 C   0  0  0  0  0  0  0  0  0  0  0  0
   25.6730  -21.4514  -11.1017 O   0  0  0  0  0  0  0  0  0  0  0  0
   25.8426  -22.6629  -10.7807 C   0  0  0  0  0  0  0  0  0  0  0  0
   22.2863  -21.4594  -14.2597 C   0  0  0  0  0  0  0  0  0  0  0  0
   21.4851  -20.9128  -15.2233 N   0  0  0  0  0  0  0  0  0  0  0  0
   26.2292  -20.4734  -10.2435 C   0  0  2  0  0  0  0  0  0  0  0  0
   26.7305  -20.7796   -8.9089 C   0  0  0  0  0  0  0  0  0  0  0  0
   27.9190  -19.8620   -8.7286 C   0  0  0  0  0  0  0  0  0  0  0  0
   27.9001  -19.3162   -7.3586 C   0  0  0  0  0  0  0  0  0  0  0  0
   27.1249  -18.2376   -6.9453 N   0  0  0  0  0  0  0  0  0  0  0  0
   27.3128  -18.0518   -5.6412 C   0  0  0  0  0  0  0  0  0  0  0  0
   28.1752  -18.9584   -5.1844 C   0  0  0  0  0  0  0  0  0  0  0  0
   28.7101  -19.1986   -3.9344 C   0  0  0  0  0  0  0  0  0  0  0  0
   29.6147  -20.2167   -3.7232 C   0  0  0  0  0  0  0  0  0  0  0  0
   30.0021  -21.0204   -4.7772 C   0  0  0  0  0  0  0  0  0  0  0  0
   29.4607  -20.7692   -6.0145 C   0  0  0  0  0  0  0  0  0  0  0  0
   28.5530  -19.7568   -6.2473 C   0  0  0  0  0  0  0  0  0  0  0  0
   25.7030  -20.7285   -7.8952 O   0  0  0  0  0  0  0  0  0  0  0  0
   25.7994  -21.3538   -6.8046 O   0  0  0  0  0  0  0  0  0  0  0  0
  2  1  1  0
  2  3  2  0
  4  5  1  0
  4  2  1  0
  5  6  1  0
  6  7  1  0
  7  8  1  0
  8  9  1  6
 10 11  2  0
 10  8  1  0
 12 13  1  0
 13 23  2  0
 13 14  1  0
 14 15  2  0
 15 16  1  0
 16 17  1  0
 18 17  1  6
 18 19  1  0
 18 20  1  0
 19 10  1  0
 20 21  2  0
 22 16  2  0
 23 22  1  0
 24 20  1  0
 24 25  1  0
 25 26  1  6
 26 27  1  0
 27 28  2  0
 28 29  1  0
 30 31  2  0
 30 29  1  0
 32 31  1  0
 33 32  2  0
 34 33  1  0
 34 35  2  0
 35 27  1  0
 35 30  1  0
 36 25  1  0
 36 38  1  0
 37 36  2  0
M  END
$$$$
