RYW.pdb
     RDKit          3D

 38 40  0  0  1  0  0  0  0  0999 V2000
   27.1748  -28.5083  -18.4772 N   0  0  0  0  0  0  0  0  0  0  0  0
   27.0983  -27.6494  -19.5917 C   0  0  0  0  0  0  0  0  0  0  0  0
   26.3636  -27.9164  -20.6267 N   0  0  0  0  0  0  0  0  0  0  0  0
   27.8559  -26.4616  -19.5605 N   0  0  0  0  0  0  0  0  0  0  0  0
   28.5469  -26.0978  -18.3437 C   0  0  0  0  0  0  0  0  0  0  0  0
   27.5799  -25.6415  -17.2794 C   0  0  0  0  0  0  0  0  0  0  0  0
   28.2415  -24.5536  -16.4731 C   0  0  0  0  0  0  0  0  0  0  0  0
   28.0000  -23.1904  -17.0792 C   0  0  2  0  0  0  0  0  0  0  0  0
   28.9473  -22.8708  -18.1141 N   0  0  0  0  0  0  0  0  0  0  0  0
   28.0911  -22.1246  -16.0384 C   0  0  0  0  0  0  0  0  0  0  0  0
   29.2074  -21.8429  -15.4819 O   0  0  0  0  0  0  0  0  0  0  0  0
   26.4195  -27.3266  -21.4668 O   0  0  0  0  0  0  0  0  0  0  0  0
   29.6843  -16.9150  -19.3525 C   0  0  0  0  0  0  0  0  0  0  0  0
   28.9460  -17.4185  -18.2893 C   0  0  0  0  0  0  0  0  0  0  0  0
   29.3960  -17.3715  -16.9753 C   0  0  0  0  0  0  0  0  0  0  0  0
   28.6527  -17.8708  -15.9616 C   0  0  0  0  0  0  0  0  0  0  0  0
   27.4292  -18.4397  -16.2076 C   0  0  0  0  0  0  0  0  0  0  0  0
   26.5933  -19.0083  -15.1229 C   0  0  2  0  0  0  0  0  0  0  0  0
   27.0764  -20.3195  -14.6042 N   0  0  0  0  0  0  0  0  0  0  0  0
   26.9809  -21.3745  -15.6090 C   0  0  0  0  0  0  0  0  0  0  0  0
   26.2543  -20.7182  -13.4568 O   0  0  0  0  0  0  0  0  0  0  0  0
   25.0454  -21.0770  -13.5539 C   0  0  0  0  0  0  0  0  0  0  0  0
   26.9519  -18.5038  -17.4945 C   0  0  0  0  0  0  0  0  0  0  0  0
   27.7016  -17.9993  -18.5206 N   0  0  0  0  0  0  0  0  0  0  0  0
   26.8217  -20.7094  -12.1605 C   0  0  2  0  0  0  0  0  0  0  0  0
   26.0569  -21.0096  -10.9560 C   0  0  0  0  0  0  0  0  0  0  0  0
   27.1014  -21.2014   -9.8793 C   0  0  0  0  0  0  0  0  0  0  0  0
   26.5788  -20.6743   -8.6048 C   0  0  0  0  0  0  0  0  0  0  0  0
   25.2661  -20.8159   -8.1667 N   0  0  0  0  0  0  0  0  0  0  0  0
   25.1585  -20.2705   -6.9578 C   0  0  0  0  0  0  0  0  0  0  0  0
   26.3396  -19.7789   -6.5869 C   0  0  0  0  0  0  0  0  0  0  0  0
   26.7663  -19.1162   -5.4532 C   0  0  0  0  0  0  0  0  0  0  0  0
   28.0700  -18.6905   -5.3172 C   0  0  0  0  0  0  0  0  0  0  0  0
   28.9782  -18.9260   -6.3304 C   0  0  0  0  0  0  0  0  0  0  0  0
   28.5387  -19.5869   -7.4517 C   0  0  0  0  0  0  0  0  0  0  0  0
   27.2391  -20.0227   -7.6073 C   0  0  0  0  0  0  0  0  0  0  0  0
   25.0151  -20.0441  -10.6942 O   0  0  0  0  0  0  0  0  0  0  0  0
   25.1720  -18.8099  -10.8987 O   0  0  0  0  0  0  0  0  0  0  0  0
  2  1  1  0
  2  3  2  0
  4  5  1  0
  4  2  1  0
  5  6  1  0
  6  7  1  0
  7  8  1  0
  8  9  1  6
 10 11  2  0
 10  8  1  0
 12 13  1  0
 13 23  2  0
 13 14  1  0
 14 15  2  0
 15 16  1  0
 16 17  1  0
 18 17  1  6
 18 19  1  0
 18 20  1  0
 19 10  1  0
 20 21  2  0
 22 16  2  0
 23 22  1  0
 24 20  1  0
 24 25  1  0
 25 26  1  6
 26 27  1  0
 27 28  2  0
 28 29  1  0
 30 31  2  0
 30 29  1  0
 32 31  1  0
 33 32  2  0
 34 33  1  0
 34 35  2  0
 35 27  1  0
 35 30  1  0
 36 25  1  0
 36 38  1  0
 37 36  2  0
M  END
$$$$
