RYW.pdb
     RDKit          3D

 38 40  0  0  1  0  0  0  0  0999 V2000
   29.6820  -27.2749  -16.5187 N   0  0  0  0  0  0  0  0  0  0  0  0
   28.4349  -27.1041  -17.1524 C   0  0  0  0  0  0  0  0  0  0  0  0
   27.5498  -28.0503  -17.2125 N   0  0  0  0  0  0  0  0  0  0  0  0
   28.1592  -25.8515  -17.7359 N   0  0  0  0  0  0  0  0  0  0  0  0
   29.0835  -24.7589  -17.5299 C   0  0  0  0  0  0  0  0  0  0  0  0
   28.9409  -24.1734  -16.1469 C   0  0  0  0  0  0  0  0  0  0  0  0
   28.5841  -22.7156  -16.2839 C   0  0  0  0  0  0  0  0  0  0  0  0
   27.0979  -22.4919  -16.1246 C   0  0  2  0  0  0  0  0  0  0  0  0
   26.4605  -22.1188  -17.3595 N   0  0  0  0  0  0  0  0  0  0  0  0
   26.8287  -21.4102  -15.1322 C   0  0  0  0  0  0  0  0  0  0  0  0
   27.2340  -20.2149  -15.3366 O   0  0  0  0  0  0  0  0  0  0  0  0
   26.6195  -27.8640  -17.6079 O   0  0  0  0  0  0  0  0  0  0  0  0
   20.2649  -23.6078  -12.9903 C   0  0  0  0  0  0  0  0  0  0  0  0
   21.3250  -22.7126  -13.0509 C   0  0  0  0  0  0  0  0  0  0  0  0
   22.0947  -22.5386  -14.1949 C   0  0  0  0  0  0  0  0  0  0  0  0
   23.1210  -21.6580  -14.2219 C   0  0  0  0  0  0  0  0  0  0  0  0
   23.4291  -20.9109  -13.1136 C   0  0  0  0  0  0  0  0  0  0  0  0
   24.5547  -19.9458  -13.1032 C   0  0  1  0  0  0  0  0  0  0  0  0
   25.8966  -20.5753  -12.9461 N   0  0  0  0  0  0  0  0  0  0  0  0
   26.1266  -21.6271  -13.9324 C   0  0  0  0  0  0  0  0  0  0  0  0
   25.9934  -21.1817  -11.6141 O   0  0  0  0  0  0  0  0  0  0  0  0
   25.2100  -22.0830  -11.1976 C   0  0  0  0  0  0  0  0  0  0  0  0
   22.6898  -21.0564  -11.9646 C   0  0  0  0  0  0  0  0  0  0  0  0
   21.6518  -21.9458  -11.9354 N   0  0  0  0  0  0  0  0  0  0  0  0
   27.0100  -20.7518  -10.7285 C   0  0  2  0  0  0  0  0  0  0  0  0
   26.8485  -20.7386   -9.2795 C   0  0  0  0  0  0  0  0  0  0  0  0
   27.6416  -19.5363   -8.8187 C   0  0  0  0  0  0  0  0  0  0  0  0
   27.5688  -19.4485   -7.3482 C   0  0  0  0  0  0  0  0  0  0  0  0
   26.7982  -18.5276   -6.6459 N   0  0  0  0  0  0  0  0  0  0  0  0
   26.9275  -18.7680   -5.3436 C   0  0  0  0  0  0  0  0  0  0  0  0
   27.7472  -19.8024   -5.1634 C   0  0  0  0  0  0  0  0  0  0  0  0
   28.2163  -20.4423   -4.0334 C   0  0  0  0  0  0  0  0  0  0  0  0
   29.0875  -21.5067   -4.1196 C   0  0  0  0  0  0  0  0  0  0  0  0
   29.5075  -21.9515   -5.3576 C   0  0  0  0  0  0  0  0  0  0  0  0
   29.0316  -21.3049   -6.4723 C   0  0  0  0  0  0  0  0  0  0  0  0
   28.1581  -20.2391   -6.4085 C   0  0  0  0  0  0  0  0  0  0  0  0
   25.4668  -20.8105   -8.8654 O   0  0  0  0  0  0  0  0  0  0  0  0
   25.0501  -21.6802   -8.0531 O   0  0  0  0  0  0  0  0  0  0  0  0
  2  1  1  0
  2  3  2  0
  4  5  1  0
  4  2  1  0
  5  6  1  0
  6  7  1  0
  7  8  1  0
  8  9  1  6
 10 11  2  0
 10  8  1  0
 12 13  1  0
 13 23  2  0
 13 14  1  0
 14 15  2  0
 15 16  1  0
 16 17  1  0
 18 17  1  6
 18 19  1  0
 18 20  1  0
 19 10  1  0
 20 21  2  0
 22 16  2  0
 23 22  1  0
 24 20  1  0
 24 25  1  0
 25 26  1  6
 26 27  1  0
 27 28  2  0
 28 29  1  0
 30 31  2  0
 30 29  1  0
 32 31  1  0
 33 32  2  0
 34 33  1  0
 34 35  2  0
 35 27  1  0
 35 30  1  0
 36 25  1  0
 36 38  1  0
 37 36  2  0
M  END
$$$$
