RYW.pdb
     RDKit          3D

 38 40  0  0  1  0  0  0  0  0999 V2000
   18.8511  -18.5286  -14.6811 N   0  0  0  0  0  0  0  0  0  0  0  0
   19.6027  -19.7089  -14.8480 C   0  0  0  0  0  0  0  0  0  0  0  0
   19.0536  -20.8486  -15.1342 N   0  0  0  0  0  0  0  0  0  0  0  0
   21.0009  -19.6261  -14.6939 N   0  0  0  0  0  0  0  0  0  0  0  0
   21.6356  -18.3271  -14.7025 C   0  0  0  0  0  0  0  0  0  0  0  0
   23.0006  -18.3880  -15.3419 C   0  0  0  0  0  0  0  0  0  0  0  0
   23.8790  -19.2772  -14.4998 C   0  0  0  0  0  0  0  0  0  0  0  0
   25.2405  -19.4661  -15.1281 C   0  0  2  0  0  0  0  0  0  0  0  0
   25.1714  -20.1171  -16.4095 N   0  0  0  0  0  0  0  0  0  0  0  0
   26.1196  -20.2914  -14.2487 C   0  0  0  0  0  0  0  0  0  0  0  0
   26.0623  -21.5685  -14.2745 O   0  0  0  0  0  0  0  0  0  0  0  0
   19.6370  -21.6838  -15.2715 O   0  0  0  0  0  0  0  0  0  0  0  0
   32.7755  -23.4305   -9.5010 C   0  0  0  0  0  0  0  0  0  0  0  0
   31.9222  -22.6659  -10.2860 C   0  0  0  0  0  0  0  0  0  0  0  0
   31.4048  -23.1209  -11.4929 C   0  0  0  0  0  0  0  0  0  0  0  0
   30.5756  -22.3516  -12.2346 C   0  0  0  0  0  0  0  0  0  0  0  0
   30.2236  -21.0954  -11.8110 C   0  0  0  0  0  0  0  0  0  0  0  0
   29.3276  -20.2198  -12.6041 C   0  0  2  0  0  0  0  0  0  0  0  0
   27.8791  -20.5420  -12.4637 N   0  0  0  0  0  0  0  0  0  0  0  0
   27.0498  -19.7334  -13.3527 C   0  0  0  0  0  0  0  0  0  0  0  0
   27.4547  -20.2710  -11.0860 O   0  0  0  0  0  0  0  0  0  0  0  0
   27.9513  -19.3554  -10.3688 C   0  0  0  0  0  0  0  0  0  0  0  0
   30.7161  -20.6122  -10.6227 C   0  0  0  0  0  0  0  0  0  0  0  0
   31.5541  -21.3885   -9.8715 N   0  0  0  0  0  0  0  0  0  0  0  0
   26.4361  -21.0634  -10.5055 C   0  0  1  0  0  0  0  0  0  0  0  0
   26.1326  -21.0478   -9.0795 C   0  0  0  0  0  0  0  0  0  0  0  0
   25.9970  -19.5816   -8.7347 C   0  0  0  0  0  0  0  0  0  0  0  0
   27.0649  -19.2109   -7.7873 C   0  0  0  0  0  0  0  0  0  0  0  0
   27.9501  -18.1526   -7.9646 N   0  0  0  0  0  0  0  0  0  0  0  0
   28.7399  -18.0734   -6.8967 C   0  0  0  0  0  0  0  0  0  0  0  0
   28.4118  -19.0313   -6.0312 C   0  0  0  0  0  0  0  0  0  0  0  0
   28.9119  -19.3912   -4.7955 C   0  0  0  0  0  0  0  0  0  0  0  0
   28.3916  -20.4558   -4.0918 C   0  0  0  0  0  0  0  0  0  0  0  0
   27.3476  -21.1861   -4.6243 C   0  0  0  0  0  0  0  0  0  0  0  0
   26.8607  -20.8155   -5.8542 C   0  0  0  0  0  0  0  0  0  0  0  0
   27.3657  -19.7527   -6.5743 C   0  0  0  0  0  0  0  0  0  0  0  0
   25.0271  -21.9086   -8.7288 O   0  0  0  0  0  0  0  0  0  0  0  0
   24.2223  -22.3577   -9.5891 O   0  0  0  0  0  0  0  0  0  0  0  0
  2  1  1  0
  2  3  2  0
  4  5  1  0
  4  2  1  0
  5  6  1  0
  6  7  1  0
  7  8  1  0
  8  9  1  6
 10 11  2  0
 10  8  1  0
 12 13  1  0
 13 23  2  0
 13 14  1  0
 14 15  2  0
 15 16  1  0
 16 17  1  0
 18 17  1  6
 18 19  1  0
 18 20  1  0
 19 10  1  0
 20 21  2  0
 22 16  2  0
 23 22  1  0
 24 20  1  0
 24 25  1  0
 25 26  1  1
 26 27  1  0
 27 28  2  0
 28 29  1  0
 30 31  2  0
 30 29  1  0
 32 31  1  0
 33 32  2  0
 34 33  1  0
 34 35  2  0
 35 27  1  0
 35 30  1  0
 36 25  1  0
 36 38  1  0
 37 36  2  0
M  END
$$$$
