RYW.pdb
     RDKit          3D

 38 40  0  0  1  0  0  0  0  0999 V2000
   30.6140  -24.9502  -15.8358 N   0  0  0  0  0  0  0  0  0  0  0  0
   29.3103  -24.9189  -16.3700 C   0  0  0  0  0  0  0  0  0  0  0  0
   28.3375  -25.6175  -15.8720 N   0  0  0  0  0  0  0  0  0  0  0  0
   29.0763  -24.0917  -17.4864 N   0  0  0  0  0  0  0  0  0  0  0  0
   30.1469  -23.2555  -17.9813 C   0  0  0  0  0  0  0  0  0  0  0  0
   30.1137  -21.8882  -17.3447 C   0  0  0  0  0  0  0  0  0  0  0  0
   29.8091  -20.8737  -18.4167 C   0  0  0  0  0  0  0  0  0  0  0  0
   28.3260  -20.5996  -18.5144 C   0  0  2  0  0  0  0  0  0  0  0  0
   27.9998  -19.7067  -19.5946 N   0  0  0  0  0  0  0  0  0  0  0  0
   27.8165  -19.9872  -17.2523 C   0  0  0  0  0  0  0  0  0  0  0  0
   28.2845  -18.8767  -16.8249 O   0  0  0  0  0  0  0  0  0  0  0  0
   27.4024  -25.5785  -16.2970 O   0  0  0  0  0  0  0  0  0  0  0  0
   24.7234  -14.9466  -18.7587 C   0  0  0  0  0  0  0  0  0  0  0  0
   24.7926  -16.0251  -17.8865 C   0  0  0  0  0  0  0  0  0  0  0  0
   25.0900  -15.8798  -16.5367 C   0  0  0  0  0  0  0  0  0  0  0  0
   25.1498  -16.9508  -15.7129 C   0  0  0  0  0  0  0  0  0  0  0  0
   24.9174  -18.2145  -16.1929 C   0  0  0  0  0  0  0  0  0  0  0  0
   24.9870  -19.4124  -15.3217 C   0  0  2  0  0  0  0  0  0  0  0  0
   26.3507  -20.0025  -15.2039 N   0  0  0  0  0  0  0  0  0  0  0  0
   26.8097  -20.5762  -16.4656 C   0  0  0  0  0  0  0  0  0  0  0  0
   26.3282  -21.0767  -14.2055 O   0  0  0  0  0  0  0  0  0  0  0  0
   25.9867  -22.2662  -14.4659 C   0  0  0  0  0  0  0  0  0  0  0  0
   24.6206  -18.3965  -17.5221 C   0  0  0  0  0  0  0  0  0  0  0  0
   24.5593  -17.3151  -18.3564 N   0  0  0  0  0  0  0  0  0  0  0  0
   26.7047  -20.7917  -12.8715 C   0  0  2  0  0  0  0  0  0  0  0  0
   26.6956  -21.7933  -11.8118 C   0  0  0  0  0  0  0  0  0  0  0  0
   27.8135  -21.3754  -10.8831 C   0  0  0  0  0  0  0  0  0  0  0  0
   27.2462  -20.5843   -9.7751 C   0  0  0  0  0  0  0  0  0  0  0  0
   26.0558  -19.8674   -9.8408 N   0  0  0  0  0  0  0  0  0  0  0  0
   25.8208  -19.3205   -8.6509 C   0  0  0  0  0  0  0  0  0  0  0  0
   26.8027  -19.6464   -7.8119 C   0  0  0  0  0  0  0  0  0  0  0  0
   27.0463  -19.3399   -6.4878 C   0  0  0  0  0  0  0  0  0  0  0  0
   28.1697  -19.8033   -5.8376 C   0  0  0  0  0  0  0  0  0  0  0  0
   29.0786  -20.5918   -6.5150 C   0  0  0  0  0  0  0  0  0  0  0  0
   28.8221  -20.8884   -7.8316 C   0  0  0  0  0  0  0  0  0  0  0  0
   27.7035  -20.4364   -8.5006 C   0  0  0  0  0  0  0  0  0  0  0  0
   25.3899  -21.9800  -11.2236 O   0  0  0  0  0  0  0  0  0  0  0  0
   25.0795  -23.0229  -10.5866 O   0  0  0  0  0  0  0  0  0  0  0  0
  2  1  1  0
  2  3  2  0
  4  5  1  0
  4  2  1  0
  5  6  1  0
  6  7  1  0
  7  8  1  0
  8  9  1  6
 10 11  2  0
 10  8  1  0
 12 13  1  0
 13 23  2  0
 13 14  1  0
 14 15  2  0
 15 16  1  0
 16 17  1  0
 18 17  1  6
 18 19  1  0
 18 20  1  0
 19 10  1  0
 20 21  2  0
 22 16  2  0
 23 22  1  0
 24 20  1  0
 24 25  1  0
 25 26  1  6
 26 27  1  0
 27 28  2  0
 28 29  1  0
 30 31  2  0
 30 29  1  0
 32 31  1  0
 33 32  2  0
 34 33  1  0
 34 35  2  0
 35 27  1  0
 35 30  1  0
 36 25  1  0
 36 38  1  0
 37 36  2  0
M  END
$$$$
