RYW.pdb
     RDKit          3D

 38 40  0  0  1  0  0  0  0  0999 V2000
   26.7759  -24.6427  -16.3464 N   0  0  0  0  0  0  0  0  0  0  0  0
   27.8199  -24.9363  -17.2462 C   0  0  0  0  0  0  0  0  0  0  0  0
   27.7088  -25.8403  -18.1696 N   0  0  0  0  0  0  0  0  0  0  0  0
   29.0205  -24.2094  -17.1210 N   0  0  0  0  0  0  0  0  0  0  0  0
   29.1320  -23.2047  -16.0874 C   0  0  0  0  0  0  0  0  0  0  0  0
   28.8685  -21.8237  -16.6345 C   0  0  0  0  0  0  0  0  0  0  0  0
   28.1871  -21.0117  -15.5632 C   0  0  0  0  0  0  0  0  0  0  0  0
   26.6849  -21.0269  -15.7281 C   0  0  2  0  0  0  0  0  0  0  0  0
   26.2481  -20.2772  -16.8760 N   0  0  0  0  0  0  0  0  0  0  0  0
   26.0146  -20.4466  -14.5275 C   0  0  0  0  0  0  0  0  0  0  0  0
   26.0714  -19.1925  -14.2849 O   0  0  0  0  0  0  0  0  0  0  0  0
   28.5308  -26.1231  -18.7182 O   0  0  0  0  0  0  0  0  0  0  0  0
   20.4079  -18.1543  -16.6594 C   0  0  0  0  0  0  0  0  0  0  0  0
   21.0804  -18.8582  -15.6689 C   0  0  0  0  0  0  0  0  0  0  0  0
   21.6274  -20.1174  -15.8842 C   0  0  0  0  0  0  0  0  0  0  0  0
   22.2769  -20.7773  -14.8982 C   0  0  0  0  0  0  0  0  0  0  0  0
   22.4117  -20.2163  -13.6539 C   0  0  0  0  0  0  0  0  0  0  0  0
   23.1059  -20.9160  -12.5462 C   0  0  2  0  0  0  0  0  0  0  0  0
   24.5693  -20.6422  -12.4738 N   0  0  0  0  0  0  0  0  0  0  0  0
   25.2910  -21.2219  -13.6029 C   0  0  0  0  0  0  0  0  0  0  0  0
   25.1115  -21.2322  -11.2453 O   0  0  0  0  0  0  0  0  0  0  0  0
   25.3123  -22.4717  -11.0945 C   0  0  0  0  0  0  0  0  0  0  0  0
   21.8833  -18.9726  -13.4044 C   0  0  0  0  0  0  0  0  0  0  0  0
   21.2268  -18.3038  -14.3998 N   0  0  0  0  0  0  0  0  0  0  0  0
   25.4354  -20.3896  -10.1555 C   0  0  2  0  0  0  0  0  0  0  0  0
   25.8985  -20.8965   -8.8692 C   0  0  0  0  0  0  0  0  0  0  0  0
   26.9492  -19.9038   -8.4245 C   0  0  0  0  0  0  0  0  0  0  0  0
   27.2452  -20.1260   -6.9968 C   0  0  0  0  0  0  0  0  0  0  0  0
   26.7993  -21.2147   -6.2545 N   0  0  0  0  0  0  0  0  0  0  0  0
   27.2961  -21.1242   -5.0235 C   0  0  0  0  0  0  0  0  0  0  0  0
   28.0448  -20.0267   -4.9277 C   0  0  0  0  0  0  0  0  0  0  0  0
   28.7654  -19.4697   -3.8898 C   0  0  0  0  0  0  0  0  0  0  0  0
   29.4619  -18.2913   -4.0494 C   0  0  0  0  0  0  0  0  0  0  0  0
   29.4459  -17.6443   -5.2693 C   0  0  0  0  0  0  0  0  0  0  0  0
   28.7250  -18.2111   -6.2921 C   0  0  0  0  0  0  0  0  0  0  0  0
   28.0224  -19.3902   -6.1542 C   0  0  0  0  0  0  0  0  0  0  0  0
   24.8196  -21.1661   -7.9478 O   0  0  0  0  0  0  0  0  0  0  0  0
   23.7329  -20.5274   -7.9756 O   0  0  0  0  0  0  0  0  0  0  0  0
  2  1  1  0
  2  3  2  0
  4  5  1  0
  4  2  1  0
  5  6  1  0
  6  7  1  0
  7  8  1  0
  8  9  1  6
 10 11  2  0
 10  8  1  0
 12 13  1  0
 13 23  2  0
 13 14  1  0
 14 15  2  0
 15 16  1  0
 16 17  1  0
 18 17  1  6
 18 19  1  0
 18 20  1  0
 19 10  1  0
 20 21  2  0
 22 16  2  0
 23 22  1  0
 24 20  1  0
 24 25  1  0
 25 26  1  6
 26 27  1  0
 27 28  2  0
 28 29  1  0
 30 31  2  0
 30 29  1  0
 32 31  1  0
 33 32  2  0
 34 33  1  0
 34 35  2  0
 35 27  1  0
 35 30  1  0
 36 25  1  0
 36 38  1  0
 37 36  2  0
M  END
$$$$
