TEN.pdb
     RDKit          3D

 25 24  0  0  1  0  0  0  0  0999 V2000
    8.8883  -16.0720   16.2980 C   0  0  0  0  0  0  0  0  0  0  0  0
    8.6818  -14.5666   16.3259 C   0  0  1  0  0  0  0  0  0  0  0  0
    7.7045  -14.1828   15.4025 O   0  0  0  0  0  0  0  0  0  0  0  0
    8.2655  -14.0977   17.6924 C   0  0  2  0  0  0  0  0  0  0  0  0
    7.7328  -12.7693   17.6980 N   0  0  0  0  0  0  0  0  0  0  0  0
    9.4334  -14.2308   18.6028 C   0  0  0  0  0  0  0  0  0  0  0  0
   10.2266  -13.2617   18.7407 O   0  0  0  0  0  0  0  0  0  0  0  0
    9.7065  -15.4122   19.3375 N   0  0  0  0  0  0  0  0  0  0  0  0
   10.8300  -15.4546   20.2288 C   0  0  1  0  0  0  0  0  0  0  0  0
   10.8223  -16.6777   21.1170 C   0  0  0  0  0  0  0  0  0  0  0  0
   10.7500  -17.9542   20.3474 C   0  0  0  0  0  0  0  0  0  0  0  0
   10.6531  -19.0839   21.2994 C   0  0  0  0  0  0  0  0  0  0  0  0
   10.3729  -18.8691   22.4859 O   0  0  0  0  0  0  0  0  0  0  0  0
   12.0731  -15.5337   19.4096 C   0  0  0  0  0  0  0  0  0  0  0  0
   12.0349  -16.1009   18.2862 O   0  0  0  0  0  0  0  0  0  0  0  0
   10.8744  -20.3738   20.8666 O   0  0  0  0  0  0  0  0  0  0  0  0
   17.1167  -12.7594   18.4105 N   0  0  0  0  0  0  0  0  0  0  0  0
   15.9724  -13.3451   17.8324 C   0  0  0  0  0  0  0  0  0  0  0  0
   16.0048  -13.6200   16.6147 O   0  0  0  0  0  0  0  0  0  0  0  0
   14.7942  -13.6181   18.6344 C   0  0  0  0  0  0  0  0  0  0  0  0
   14.4679  -15.0365   18.9298 C   0  0  2  0  0  0  0  0  0  0  0  0
   13.3025  -15.0091   19.8147 N   0  0  0  0  0  0  0  0  0  0  0  0
   15.5047  -15.8393   19.5669 C   0  0  0  0  0  0  0  0  0  0  0  0
   15.4946  -16.1241   20.9125 O   0  0  0  0  0  0  0  0  0  0  0  0
   16.4835  -16.3226   18.9038 O   0  0  0  0  0  0  0  0  0  0  0  0
  2  1  1  1
  2  3  1  0
  4  6  1  0
  4  2  1  0
  4  5  1  6
  6  7  2  0
  8  9  1  0
  8  6  1  0
  9 14  1  0
 10 11  1  0
  9 10  1  1
 12 11  1  0
 13 12  2  0
 14 22  1  0
 14 15  2  0
 16 12  1  0
 18 17  1  0
 18 20  1  0
 19 18  2  0
 21 20  1  1
 21 23  1  0
 22 21  1  0
 23 25  2  0
 23 24  1  0
M  END
$$$$
