TEN.pdb
     RDKit          3D

 25 24  0  0  1  0  0  0  0  0999 V2000
    7.2395  -15.2007   16.5082 C   0  0  0  0  0  0  0  0  0  0  0  0
    8.0948  -15.0566   17.7561 C   0  0  1  0  0  0  0  0  0  0  0  0
    9.4539  -15.1416   17.4386 O   0  0  0  0  0  0  0  0  0  0  0  0
    7.8410  -13.7437   18.4436 C   0  0  2  0  0  0  0  0  0  0  0  0
    8.0391  -12.6104   17.5923 N   0  0  0  0  0  0  0  0  0  0  0  0
    8.6989  -13.6832   19.6564 C   0  0  0  0  0  0  0  0  0  0  0  0
    9.7752  -13.0291   19.6233 O   0  0  0  0  0  0  0  0  0  0  0  0
    8.3635  -14.3344   20.8703 N   0  0  0  0  0  0  0  0  0  0  0  0
    9.2780  -14.2992   21.9752 C   0  0  1  0  0  0  0  0  0  0  0  0
    8.6315  -14.7081   23.2789 C   0  0  0  0  0  0  0  0  0  0  0  0
    8.0529  -16.0830   23.2344 C   0  0  0  0  0  0  0  0  0  0  0  0
    7.5257  -16.4256   24.5748 C   0  0  0  0  0  0  0  0  0  0  0  0
    6.3802  -16.0820   24.8940 O   0  0  0  0  0  0  0  0  0  0  0  0
   10.3647  -15.2858   21.7134 C   0  0  0  0  0  0  0  0  0  0  0  0
   10.0983  -16.3415   21.0811 O   0  0  0  0  0  0  0  0  0  0  0  0
    8.3085  -17.1262   25.4673 O   0  0  0  0  0  0  0  0  0  0  0  0
   13.3446  -15.5928   18.8967 N   0  0  0  0  0  0  0  0  0  0  0  0
   13.7220  -14.8269   20.0181 C   0  0  0  0  0  0  0  0  0  0  0  0
   13.9209  -13.6050   19.8548 O   0  0  0  0  0  0  0  0  0  0  0  0
   13.8733  -15.4464   21.3217 C   0  0  0  0  0  0  0  0  0  0  0  0
   12.6971  -16.1447   21.9001 C   0  0  2  0  0  0  0  0  0  0  0  0
   11.6858  -15.1124   22.1321 N   0  0  0  0  0  0  0  0  0  0  0  0
   12.9011  -16.8708   23.1476 C   0  0  0  0  0  0  0  0  0  0  0  0
   13.7447  -17.9531   23.2418 O   0  0  0  0  0  0  0  0  0  0  0  0
   12.3020  -16.5375   24.2254 O   0  0  0  0  0  0  0  0  0  0  0  0
  2  1  1  6
  2  3  1  0
  4  6  1  0
  4  2  1  0
  4  5  1  6
  6  7  2  0
  8  9  1  0
  8  6  1  0
  9 14  1  0
 10 11  1  0
  9 10  1  1
 12 11  1  0
 13 12  2  0
 14 22  1  0
 14 15  2  0
 16 12  1  0
 18 17  1  0
 18 20  1  0
 19 18  2  0
 21 20  1  1
 21 23  1  0
 22 21  1  0
 23 25  2  0
 23 24  1  0
M  END
$$$$
