TEN.pdb
     RDKit          3D

 25 24  0  0  1  0  0  0  0  0999 V2000
   10.8354  -14.4890   18.0073 C   0  0  0  0  0  0  0  0  0  0  0  0
    9.9290  -13.3122   18.3290 C   0  0  1  0  0  0  0  0  0  0  0  0
   10.0395  -12.3191   17.3510 O   0  0  0  0  0  0  0  0  0  0  0  0
    8.4907  -13.7402   18.4220 C   0  0  2  0  0  0  0  0  0  0  0  0
    7.5808  -12.6441   18.5590 N   0  0  0  0  0  0  0  0  0  0  0  0
    8.3674  -14.7071   19.5448 C   0  0  0  0  0  0  0  0  0  0  0  0
    8.0711  -14.2878   20.6953 O   0  0  0  0  0  0  0  0  0  0  0  0
    8.5694  -16.1014   19.3861 N   0  0  0  0  0  0  0  0  0  0  0  0
    8.5493  -16.9605   20.5349 C   0  0  1  0  0  0  0  0  0  0  0  0
    7.8624  -18.2794   20.2633 C   0  0  0  0  0  0  0  0  0  0  0  0
    6.4431  -18.1173   19.8317 C   0  0  0  0  0  0  0  0  0  0  0  0
    5.8822  -19.4505   19.5158 C   0  0  0  0  0  0  0  0  0  0  0  0
    5.0532  -19.9675   20.2759 O   0  0  0  0  0  0  0  0  0  0  0  0
    9.9579  -17.2840   20.9007 C   0  0  0  0  0  0  0  0  0  0  0  0
   10.7949  -17.5092   19.9874 O   0  0  0  0  0  0  0  0  0  0  0  0
    6.2816  -20.1165   18.3769 O   0  0  0  0  0  0  0  0  0  0  0  0
   14.2391  -14.7710   22.8370 N   0  0  0  0  0  0  0  0  0  0  0  0
   13.7516  -15.7299   21.9263 C   0  0  0  0  0  0  0  0  0  0  0  0
   14.5747  -16.3108   21.1884 O   0  0  0  0  0  0  0  0  0  0  0  0
   12.3334  -16.0289   21.8532 C   0  0  0  0  0  0  0  0  0  0  0  0
   11.8470  -17.2599   22.5266 C   0  0  2  0  0  0  0  0  0  0  0  0
   10.4197  -17.3550   22.2169 N   0  0  0  0  0  0  0  0  0  0  0  0
   12.0048  -17.3335   23.9740 C   0  0  0  0  0  0  0  0  0  0  0  0
   11.0579  -16.8471   24.8450 O   0  0  0  0  0  0  0  0  0  0  0  0
   13.0384  -17.8567   24.5120 O   0  0  0  0  0  0  0  0  0  0  0  0
  2  1  1  6
  2  3  1  0
  4  6  1  0
  4  2  1  0
  4  5  1  1
  6  7  2  0
  8  9  1  0
  8  6  1  0
  9 14  1  0
 10 11  1  0
  9 10  1  6
 12 11  1  0
 13 12  2  0
 14 22  1  0
 14 15  2  0
 16 12  1  0
 18 17  1  0
 18 20  1  0
 19 18  2  0
 21 20  1  1
 21 23  1  0
 22 21  1  0
 23 25  2  0
 23 24  1  0
M  END
$$$$
