TEN.pdb
     RDKit          3D

 25 24  0  0  1  0  0  0  0  0999 V2000
    9.3924  -15.6233   17.2334 C   0  0  0  0  0  0  0  0  0  0  0  0
    9.0908  -14.1429   17.3984 C   0  0  1  0  0  0  0  0  0  0  0  0
    9.0106  -13.5113   16.1534 O   0  0  0  0  0  0  0  0  0  0  0  0
    7.7968  -13.9278   18.1330 C   0  0  2  0  0  0  0  0  0  0  0  0
    7.3759  -12.5600   18.1513 N   0  0  0  0  0  0  0  0  0  0  0  0
    7.9465  -14.4804   19.5052 C   0  0  0  0  0  0  0  0  0  0  0  0
    8.4087  -13.7497   20.4216 O   0  0  0  0  0  0  0  0  0  0  0  0
    7.5899  -15.8103   19.8429 N   0  0  0  0  0  0  0  0  0  0  0  0
    7.7854  -16.2829   21.1834 C   0  0  1  0  0  0  0  0  0  0  0  0
    7.0489  -17.5740   21.4585 C   0  0  0  0  0  0  0  0  0  0  0  0
    5.5708  -17.4452   21.2983 C   0  0  0  0  0  0  0  0  0  0  0  0
    4.9487  -18.7738   21.4981 C   0  0  0  0  0  0  0  0  0  0  0  0
    3.8359  -18.8603   22.0334 O   0  0  0  0  0  0  0  0  0  0  0  0
    9.2356  -16.5748   21.3687 C   0  0  0  0  0  0  0  0  0  0  0  0
    9.8834  -17.0994   20.4250 O   0  0  0  0  0  0  0  0  0  0  0  0
    5.6067  -19.9139   21.0890 O   0  0  0  0  0  0  0  0  0  0  0  0
   14.2305  -16.5952   22.5653 N   0  0  0  0  0  0  0  0  0  0  0  0
   13.5312  -15.5080   22.0036 C   0  0  0  0  0  0  0  0  0  0  0  0
   14.1965  -14.5793   21.4991 O   0  0  0  0  0  0  0  0  0  0  0  0
   12.0805  -15.4747   22.0144 C   0  0  0  0  0  0  0  0  0  0  0  0
   11.3643  -16.6013   22.6651 C   0  0  2  0  0  0  0  0  0  0  0  0
    9.9374  -16.2990   22.5443 N   0  0  0  0  0  0  0  0  0  0  0  0
   11.6588  -16.8544   24.0703 C   0  0  0  0  0  0  0  0  0  0  0  0
   12.8790  -17.3263   24.4949 O   0  0  0  0  0  0  0  0  0  0  0  0
   10.7923  -16.6503   24.9863 O   0  0  0  0  0  0  0  0  0  0  0  0
  2  1  1  6
  2  3  1  0
  4  6  1  0
  4  2  1  0
  4  5  1  1
  6  7  2  0
  8  9  1  0
  8  6  1  0
  9 14  1  0
 10 11  1  0
  9 10  1  6
 12 11  1  0
 13 12  2  0
 14 22  1  0
 14 15  2  0
 16 12  1  0
 18 17  1  0
 18 20  1  0
 19 18  2  0
 21 20  1  1
 21 23  1  0
 22 21  1  0
 23 25  2  0
 23 24  1  0
M  END
$$$$
