TEN.pdb
     RDKit          3D

 25 24  0  0  1  0  0  0  0  0999 V2000
    9.2131  -12.7209   19.9342 C   0  0  0  0  0  0  0  0  0  0  0  0
    8.3261  -13.2165   18.8041 C   0  0  1  0  0  0  0  0  0  0  0  0
    8.0323  -12.1797   17.9130 O   0  0  0  0  0  0  0  0  0  0  0  0
    8.9837  -14.3346   18.0438 C   0  0  2  0  0  0  0  0  0  0  0  0
    8.2527  -14.7361   16.8808 N   0  0  0  0  0  0  0  0  0  0  0  0
    9.1994  -15.4676   18.9821 C   0  0  0  0  0  0  0  0  0  0  0  0
    8.2860  -16.3198   19.1465 O   0  0  0  0  0  0  0  0  0  0  0  0
   10.4004  -15.6430   19.7147 N   0  0  0  0  0  0  0  0  0  0  0  0
   10.5106  -16.7191   20.6572 C   0  0  1  0  0  0  0  0  0  0  0  0
   11.8091  -17.4810   20.5212 C   0  0  0  0  0  0  0  0  0  0  0  0
   11.9263  -18.2016   19.2197 C   0  0  0  0  0  0  0  0  0  0  0  0
   13.2935  -18.7568   19.0998 C   0  0  0  0  0  0  0  0  0  0  0  0
   13.6175  -19.7492   19.7651 O   0  0  0  0  0  0  0  0  0  0  0  0
   10.5015  -16.1395   22.0307 C   0  0  0  0  0  0  0  0  0  0  0  0
   11.2751  -15.1834   22.3005 O   0  0  0  0  0  0  0  0  0  0  0  0
   14.2057  -18.1705   18.2488 O   0  0  0  0  0  0  0  0  0  0  0  0
    7.5411  -13.8579   23.0045 N   0  0  0  0  0  0  0  0  0  0  0  0
    7.4196  -15.1637   23.5209 C   0  0  0  0  0  0  0  0  0  0  0  0
    6.5898  -15.9307   22.9893 O   0  0  0  0  0  0  0  0  0  0  0  0
    8.2379  -15.5980   24.6379 C   0  0  0  0  0  0  0  0  0  0  0  0
    9.6573  -15.9412   24.3676 C   0  0  2  0  0  0  0  0  0  0  0  0
    9.6743  -16.5966   23.0590 N   0  0  0  0  0  0  0  0  0  0  0  0
   10.3244  -16.8163   25.3238 C   0  0  0  0  0  0  0  0  0  0  0  0
   10.8747  -18.0232   24.9601 O   0  0  0  0  0  0  0  0  0  0  0  0
   10.4323  -16.5055   26.5580 O   0  0  0  0  0  0  0  0  0  0  0  0
  2  1  1  1
  2  3  1  0
  4  6  1  0
  4  2  1  0
  4  5  1  6
  6  7  2  0
  8  9  1  0
  8  6  1  0
  9 14  1  0
 10 11  1  0
  9 10  1  6
 12 11  1  0
 13 12  2  0
 14 22  1  0
 14 15  2  0
 16 12  1  0
 18 17  1  0
 18 20  1  0
 19 18  2  0
 21 20  1  1
 21 23  1  0
 22 21  1  0
 23 25  2  0
 23 24  1  0
M  END
$$$$
