TEN.pdb
     RDKit          3D

 25 24  0  0  1  0  0  0  0  0999 V2000
   10.1917  -12.3036   19.2264 C   0  0  0  0  0  0  0  0  0  0  0  0
    9.4684  -13.2897   20.1288 C   0  0  1  0  0  0  0  0  0  0  0  0
    8.9031  -12.6344   21.2272 O   0  0  0  0  0  0  0  0  0  0  0  0
    8.3798  -14.0131   19.3856 C   0  0  2  0  0  0  0  0  0  0  0  0
    7.4309  -13.1341   18.7731 N   0  0  0  0  0  0  0  0  0  0  0  0
    7.7294  -14.9626   20.3268 C   0  0  0  0  0  0  0  0  0  0  0  0
    6.6213  -15.4785   20.0211 O   0  0  0  0  0  0  0  0  0  0  0  0
    8.3007  -15.3248   21.5728 N   0  0  0  0  0  0  0  0  0  0  0  0
    7.8527  -16.5102   22.2455 C   0  0  1  0  0  0  0  0  0  0  0  0
    8.1357  -17.7687   21.4574 C   0  0  0  0  0  0  0  0  0  0  0  0
    7.8034  -19.0132   22.2108 C   0  0  0  0  0  0  0  0  0  0  0  0
    8.1349  -20.1862   21.3703 C   0  0  0  0  0  0  0  0  0  0  0  0
    7.2478  -20.9896   21.0542 O   0  0  0  0  0  0  0  0  0  0  0  0
    8.6065  -16.6337   23.5258 C   0  0  0  0  0  0  0  0  0  0  0  0
    9.7422  -17.1774   23.5215 O   0  0  0  0  0  0  0  0  0  0  0  0
    9.4291  -20.3846   20.9396 O   0  0  0  0  0  0  0  0  0  0  0  0
    7.0652  -19.2926   27.5259 N   0  0  0  0  0  0  0  0  0  0  0  0
    6.5472  -19.2074   26.2178 C   0  0  0  0  0  0  0  0  0  0  0  0
    5.7840  -20.1157   25.8280 O   0  0  0  0  0  0  0  0  0  0  0  0
    6.8945  -18.0941   25.3542 C   0  0  0  0  0  0  0  0  0  0  0  0
    7.8737  -17.0997   25.8621 C   0  0  2  0  0  0  0  0  0  0  0  0
    8.1260  -16.1764   24.7549 N   0  0  0  0  0  0  0  0  0  0  0  0
    9.1564  -17.6087   26.3320 C   0  0  0  0  0  0  0  0  0  0  0  0
    9.7215  -17.2025   27.5184 O   0  0  0  0  0  0  0  0  0  0  0  0
    9.8272  -18.4638   25.6608 O   0  0  0  0  0  0  0  0  0  0  0  0
  2  1  1  6
  2  3  1  0
  4  6  1  0
  4  2  1  0
  4  5  1  1
  6  7  2  0
  8  9  1  0
  8  6  1  0
  9 14  1  0
 10 11  1  0
  9 10  1  6
 12 11  1  0
 13 12  2  0
 14 22  1  0
 14 15  2  0
 16 12  1  0
 18 17  1  0
 18 20  1  0
 19 18  2  0
 21 20  1  6
 21 23  1  0
 22 21  1  0
 23 25  2  0
 23 24  1  0
M  END
$$$$
