TEN.pdb
     RDKit          3D

 25 24  0  0  1  0  0  0  0  0999 V2000
    8.8025  -12.0421   19.2161 C   0  0  0  0  0  0  0  0  0  0  0  0
    7.9753  -13.1275   18.5473 C   0  0  1  0  0  0  0  0  0  0  0  0
    6.9589  -12.5669   17.7676 O   0  0  0  0  0  0  0  0  0  0  0  0
    8.8284  -14.0028   17.6716 C   0  0  2  0  0  0  0  0  0  0  0  0
    8.0695  -14.9089   16.8647 N   0  0  0  0  0  0  0  0  0  0  0  0
    9.8029  -14.7155   18.5393 C   0  0  0  0  0  0  0  0  0  0  0  0
    9.5236  -15.8653   18.9721 O   0  0  0  0  0  0  0  0  0  0  0  0
   11.0527  -14.1596   18.9119 N   0  0  0  0  0  0  0  0  0  0  0  0
   12.0214  -14.9722   19.5900 C   0  0  1  0  0  0  0  0  0  0  0  0
   13.4352  -14.4713   19.4018 C   0  0  0  0  0  0  0  0  0  0  0  0
   14.1920  -15.2410   18.3713 C   0  0  0  0  0  0  0  0  0  0  0  0
   15.4794  -14.5577   18.1114 C   0  0  0  0  0  0  0  0  0  0  0  0
   15.7462  -14.1566   16.9711 O   0  0  0  0  0  0  0  0  0  0  0  0
   11.7412  -14.9098   21.0529 C   0  0  0  0  0  0  0  0  0  0  0  0
   11.2070  -13.8761   21.5338 O   0  0  0  0  0  0  0  0  0  0  0  0
   16.3809  -14.3678   19.1367 O   0  0  0  0  0  0  0  0  0  0  0  0
    8.8095  -14.6804   23.5690 N   0  0  0  0  0  0  0  0  0  0  0  0
    8.7025  -15.7978   22.7166 C   0  0  0  0  0  0  0  0  0  0  0  0
    7.5944  -16.0308   22.1899 O   0  0  0  0  0  0  0  0  0  0  0  0
    9.8503  -16.6487   22.4624 C   0  0  0  0  0  0  0  0  0  0  0  0
   11.1510  -16.2591   23.0639 C   0  0  2  0  0  0  0  0  0  0  0  0
   12.0383  -15.9440   21.9434 N   0  0  0  0  0  0  0  0  0  0  0  0
   11.8158  -17.2442   23.9081 C   0  0  0  0  0  0  0  0  0  0  0  0
   12.6668  -18.1975   23.3993 O   0  0  0  0  0  0  0  0  0  0  0  0
   11.6404  -17.2738   25.1729 O   0  0  0  0  0  0  0  0  0  0  0  0
  2  1  1  6
  2  3  1  0
  4  6  1  0
  4  2  1  0
  4  5  1  1
  6  7  2  0
  8  9  1  0
  8  6  1  0
  9 14  1  0
 10 11  1  0
  9 10  1  1
 12 11  1  0
 13 12  2  0
 14 22  1  0
 14 15  2  0
 16 12  1  0
 18 17  1  0
 18 20  1  0
 19 18  2  0
 21 20  1  6
 21 23  1  0
 22 21  1  0
 23 25  2  0
 23 24  1  0
M  END
$$$$
