TEN.pdb
     RDKit          3D

 25 24  0  0  1  0  0  0  0  0999 V2000
    8.9577  -12.6443   19.7217 C   0  0  0  0  0  0  0  0  0  0  0  0
    7.9989  -13.0710   18.6226 C   0  0  1  0  0  0  0  0  0  0  0  0
    7.7323  -12.0065   17.7559 O   0  0  0  0  0  0  0  0  0  0  0  0
    8.5583  -14.2153   17.8237 C   0  0  2  0  0  0  0  0  0  0  0  0
    7.7138  -14.6167   16.7402 N   0  0  0  0  0  0  0  0  0  0  0  0
    8.8352  -15.3392   18.7569 C   0  0  0  0  0  0  0  0  0  0  0  0
    7.9190  -16.1601   19.0290 O   0  0  0  0  0  0  0  0  0  0  0  0
   10.0988  -15.5395   19.3678 N   0  0  0  0  0  0  0  0  0  0  0  0
   10.3035  -16.6677   20.2302 C   0  0  1  0  0  0  0  0  0  0  0  0
   11.5196  -17.4797   19.8472 C   0  0  0  0  0  0  0  0  0  0  0  0
   11.3445  -18.2173   18.5617 C   0  0  0  0  0  0  0  0  0  0  0  0
   12.5777  -18.9857   18.2774 C   0  0  0  0  0  0  0  0  0  0  0  0
   13.4281  -18.5247   17.5050 O   0  0  0  0  0  0  0  0  0  0  0  0
   10.5498  -16.1615   21.6106 C   0  0  0  0  0  0  0  0  0  0  0  0
   11.4469  -15.2983   21.7988 O   0  0  0  0  0  0  0  0  0  0  0  0
   12.7799  -20.2132   18.8712 O   0  0  0  0  0  0  0  0  0  0  0  0
    8.1964  -14.2224   23.0449 N   0  0  0  0  0  0  0  0  0  0  0  0
    7.8573  -15.0165   24.1588 C   0  0  0  0  0  0  0  0  0  0  0  0
    6.6988  -14.9235   24.6156 O   0  0  0  0  0  0  0  0  0  0  0  0
    8.8306  -15.9141   24.7530 C   0  0  0  0  0  0  0  0  0  0  0  0
   10.1383  -16.0734   24.0674 C   0  0  2  0  0  0  0  0  0  0  0  0
    9.8362  -16.5905   22.7320 N   0  0  0  0  0  0  0  0  0  0  0  0
   11.1124  -16.9615   24.6899 C   0  0  0  0  0  0  0  0  0  0  0  0
   11.8161  -16.6098   25.8182 O   0  0  0  0  0  0  0  0  0  0  0  0
   11.3652  -18.1204   24.2159 O   0  0  0  0  0  0  0  0  0  0  0  0
  2  1  1  1
  2  3  1  0
  4  6  1  0
  4  2  1  0
  4  5  1  6
  6  7  2  0
  8  9  1  0
  8  6  1  0
  9 14  1  0
 10 11  1  0
  9 10  1  6
 12 11  1  0
 13 12  2  0
 14 22  1  0
 14 15  2  0
 16 12  1  0
 18 17  1  0
 18 20  1  0
 19 18  2  0
 21 20  1  1
 21 23  1  0
 22 21  1  0
 23 25  2  0
 23 24  1  0
M  END
$$$$
