TEN.pdb
     RDKit          3D

 25 24  0  0  1  0  0  0  0  0999 V2000
   13.3805  -18.6622   15.6640 C   0  0  0  0  0  0  0  0  0  0  0  0
   12.3990  -17.8363   14.8489 C   0  0  1  0  0  0  0  0  0  0  0  0
   12.5776  -18.0619   13.4805 O   0  0  0  0  0  0  0  0  0  0  0  0
   10.9770  -18.1643   15.2106 C   0  0  2  0  0  0  0  0  0  0  0  0
   10.0144  -17.4914   14.3927 N   0  0  0  0  0  0  0  0  0  0  0  0
   10.7857  -17.8633   16.6540 C   0  0  0  0  0  0  0  0  0  0  0  0
   10.3368  -16.7378   16.9992 O   0  0  0  0  0  0  0  0  0  0  0  0
   11.0871  -18.7930   17.6811 N   0  0  0  0  0  0  0  0  0  0  0  0
   10.9378  -18.4107   19.0558 C   0  0  1  0  0  0  0  0  0  0  0  0
   10.8167  -19.6002   19.9807 C   0  0  0  0  0  0  0  0  0  0  0  0
   10.7666  -19.2135   21.4212 C   0  0  0  0  0  0  0  0  0  0  0  0
   10.6264  -20.4375   22.2422 C   0  0  0  0  0  0  0  0  0  0  0  0
   11.5558  -21.2531   22.2983 O   0  0  0  0  0  0  0  0  0  0  0  0
   12.1656  -17.6741   19.4716 C   0  0  0  0  0  0  0  0  0  0  0  0
   13.2783  -18.0097   18.9873 O   0  0  0  0  0  0  0  0  0  0  0  0
    9.4628  -20.6699   22.9438 O   0  0  0  0  0  0  0  0  0  0  0  0
   11.5554  -13.4928   18.9131 N   0  0  0  0  0  0  0  0  0  0  0  0
   12.8401  -13.9562   19.2613 C   0  0  0  0  0  0  0  0  0  0  0  0
   13.7354  -13.9140   18.3918 O   0  0  0  0  0  0  0  0  0  0  0  0
   13.1081  -14.4664   20.5932 C   0  0  0  0  0  0  0  0  0  0  0  0
   13.3985  -15.9158   20.7368 C   0  0  2  0  0  0  0  0  0  0  0  0
   12.1625  -16.6146   20.3815 N   0  0  0  0  0  0  0  0  0  0  0  0
   13.8239  -16.3825   22.0507 C   0  0  0  0  0  0  0  0  0  0  0  0
   15.0819  -16.1363   22.5494 O   0  0  0  0  0  0  0  0  0  0  0  0
   13.0449  -17.0496   22.8120 O   0  0  0  0  0  0  0  0  0  0  0  0
  2  1  1  1
  2  3  1  0
  4  6  1  0
  4  2  1  0
  4  5  1  6
  6  7  2  0
  8  9  1  0
  8  6  1  0
  9 14  1  0
 10 11  1  0
  9 10  1  1
 12 11  1  0
 13 12  2  0
 14 22  1  0
 14 15  2  0
 16 12  1  0
 18 17  1  0
 18 20  1  0
 19 18  2  0
 21 20  1  1
 21 23  1  0
 22 21  1  0
 23 25  2  0
 23 24  1  0
M  END
$$$$
