TEN.pdb
     RDKit          3D

 25 24  0  0  1  0  0  0  0  0999 V2000
   13.1466  -17.5610   14.9405 C   0  0  0  0  0  0  0  0  0  0  0  0
   12.4380  -16.5316   14.0757 C   0  0  1  0  0  0  0  0  0  0  0  0
   12.6316  -16.8062   12.7184 O   0  0  0  0  0  0  0  0  0  0  0  0
   10.9612  -16.5054   14.3571 C   0  0  2  0  0  0  0  0  0  0  0  0
   10.2350  -15.6254   13.4931 N   0  0  0  0  0  0  0  0  0  0  0  0
   10.7695  -16.1589   15.7901 C   0  0  0  0  0  0  0  0  0  0  0  0
   10.9758  -14.9774   16.1760 O   0  0  0  0  0  0  0  0  0  0  0  0
   10.3591  -17.1050   16.7630 N   0  0  0  0  0  0  0  0  0  0  0  0
   10.1697  -16.6925   18.1241 C   0  0  1  0  0  0  0  0  0  0  0  0
    9.3335  -17.6704   18.9174 C   0  0  0  0  0  0  0  0  0  0  0  0
    7.9164  -17.7329   18.4538 C   0  0  0  0  0  0  0  0  0  0  0  0
    7.1817  -18.7123   19.2863 C   0  0  0  0  0  0  0  0  0  0  0  0
    6.5261  -18.3244   20.2620 O   0  0  0  0  0  0  0  0  0  0  0  0
   11.5043  -16.6416   18.7865 C   0  0  0  0  0  0  0  0  0  0  0  0
   12.3337  -17.5643   18.5718 O   0  0  0  0  0  0  0  0  0  0  0  0
    7.2267  -20.0547   18.9765 O   0  0  0  0  0  0  0  0  0  0  0  0
   14.6838  -15.0724   17.7864 N   0  0  0  0  0  0  0  0  0  0  0  0
   14.3037  -14.0102   18.6313 C   0  0  0  0  0  0  0  0  0  0  0  0
   14.4054  -12.8454   18.1927 O   0  0  0  0  0  0  0  0  0  0  0  0
   13.8095  -14.2693   19.9709 C   0  0  0  0  0  0  0  0  0  0  0  0
   13.2358  -15.6098   20.2529 C   0  0  2  0  0  0  0  0  0  0  0  0
   11.9034  -15.6166   19.6473 N   0  0  0  0  0  0  0  0  0  0  0  0
   13.1019  -15.9957   21.6523 C   0  0  0  0  0  0  0  0  0  0  0  0
   11.8787  -16.1965   22.2484 O   0  0  0  0  0  0  0  0  0  0  0  0
   14.1210  -16.1677   22.4029 O   0  0  0  0  0  0  0  0  0  0  0  0
  2  1  1  1
  2  3  1  0
  4  6  1  0
  4  2  1  0
  4  5  1  6
  6  7  2  0
  8  9  1  0
  8  6  1  0
  9 14  1  0
 10 11  1  0
  9 10  1  1
 12 11  1  0
 13 12  2  0
 14 22  1  0
 14 15  2  0
 16 12  1  0
 18 17  1  0
 18 20  1  0
 19 18  2  0
 21 20  1  1
 21 23  1  0
 22 21  1  0
 23 25  2  0
 23 24  1  0
M  END
$$$$
