TEN.pdb
     RDKit          3D

 25 24  0  0  1  0  0  0  0  0999 V2000
    8.6890  -12.9657   20.9062 C   0  0  0  0  0  0  0  0  0  0  0  0
    7.8792  -13.6114   19.7940 C   0  0  1  0  0  0  0  0  0  0  0  0
    7.7510  -12.7431   18.7055 O   0  0  0  0  0  0  0  0  0  0  0  0
    8.5201  -14.8867   19.3214 C   0  0  2  0  0  0  0  0  0  0  0  0
    7.8632  -15.4656   18.1893 N   0  0  0  0  0  0  0  0  0  0  0  0
    8.5784  -15.8285   20.4704 C   0  0  0  0  0  0  0  0  0  0  0  0
    7.7350  -16.7609   20.5522 O   0  0  0  0  0  0  0  0  0  0  0  0
    9.5507  -15.7309   21.4976 N   0  0  0  0  0  0  0  0  0  0  0  0
    9.8145  -16.8619   22.3401 C   0  0  1  0  0  0  0  0  0  0  0  0
   11.1471  -17.5107   22.0427 C   0  0  0  0  0  0  0  0  0  0  0  0
   12.2618  -16.5246   21.9326 C   0  0  0  0  0  0  0  0  0  0  0  0
   13.5144  -17.2491   21.6195 C   0  0  0  0  0  0  0  0  0  0  0  0
   14.2364  -17.6592   22.5376 O   0  0  0  0  0  0  0  0  0  0  0  0
    9.8801  -16.3873   23.7518 C   0  0  0  0  0  0  0  0  0  0  0  0
   10.5090  -15.3292   24.0169 O   0  0  0  0  0  0  0  0  0  0  0  0
   13.8775  -17.4675   20.3078 O   0  0  0  0  0  0  0  0  0  0  0  0
    5.9979  -14.2081   25.1078 N   0  0  0  0  0  0  0  0  0  0  0  0
    7.3166  -14.6157   25.3929 C   0  0  0  0  0  0  0  0  0  0  0  0
    8.2471  -13.8301   25.1162 O   0  0  0  0  0  0  0  0  0  0  0  0
    7.5789  -15.9118   25.9906 C   0  0  0  0  0  0  0  0  0  0  0  0
    8.9910  -16.3629   26.0803 C   0  0  2  0  0  0  0  0  0  0  0  0
    9.2774  -17.0528   24.8217 N   0  0  0  0  0  0  0  0  0  0  0  0
    9.3357  -17.2574   27.1785 C   0  0  0  0  0  0  0  0  0  0  0  0
    9.8475  -18.5171   26.9712 O   0  0  0  0  0  0  0  0  0  0  0  0
    9.1784  -16.9153   28.3991 O   0  0  0  0  0  0  0  0  0  0  0  0
  2  1  1  1
  2  3  1  0
  4  6  1  0
  4  2  1  0
  4  5  1  6
  6  7  2  0
  8  9  1  0
  8  6  1  0
  9 14  1  0
 10 11  1  0
  9 10  1  6
 12 11  1  0
 13 12  2  0
 14 22  1  0
 14 15  2  0
 16 12  1  0
 18 17  1  0
 18 20  1  0
 19 18  2  0
 21 20  1  6
 21 23  1  0
 22 21  1  0
 23 25  2  0
 23 24  1  0
M  END
$$$$
