PAA.pdb
     RDKit          3D

 18 18  0  0  1  0  0  0  0  0999 V2000
    8.2321  -17.4976   16.7434 N   0  0  0  0  0  0  0  0  0  0  0  0
    9.1955  -18.3374   17.4392 C   0  0  0  0  0  0  0  0  0  0  0  0
    8.4865  -18.7780   18.6885 C   0  0  0  0  0  0  0  0  0  0  0  0
    7.1398  -18.0778   18.7013 C   0  0  0  0  0  0  0  0  0  0  0  0
    7.3977  -16.9084   17.7709 C   0  0  1  0  0  0  0  0  0  0  0  0
    8.1236  -15.8228   18.4754 C   0  0  0  0  0  0  0  0  0  0  0  0
    9.3778  -15.8399   18.4657 O   0  0  0  0  0  0  0  0  0  0  0  0
    7.1253  -12.5310   19.9415 C   0  0  0  0  0  0  0  0  0  0  0  0
    8.1622  -13.6396   19.7329 C   0  0  2  0  0  0  0  0  0  0  0  0
    7.4856  -14.7674   19.1588 N   0  0  0  0  0  0  0  0  0  0  0  0
    8.7667  -13.9347   21.0483 C   0  0  0  0  0  0  0  0  0  0  0  0
    9.5272  -13.1585   21.6709 O   0  0  0  0  0  0  0  0  0  0  0  0
    8.1068  -16.6181   23.6120 C   0  0  0  0  0  0  0  0  0  0  0  0
    8.9692  -15.5330   22.9554 C   0  0  2  0  0  0  0  0  0  0  0  0
    8.4589  -15.1906   21.6435 N   0  0  0  0  0  0  0  0  0  0  0  0
   10.3430  -16.1192   22.8580 C   0  0  0  0  0  0  0  0  0  0  0  0
   10.8654  -16.4230   21.6096 O   0  0  0  0  0  0  0  0  0  0  0  0
   11.0427  -16.3473   23.8643 O   0  0  0  0  0  0  0  0  0  0  0  0
  1  2  1  0
  1  5  1  0
  2  3  1  0
  3  4  1  0
  5  4  1  0
  5  6  1  1
  6  7  2  0
  9  8  1  1
  9 10  1  0
 10  6  1  0
 11 15  1  0
 11  9  1  0
 12 11  2  0
 14 13  1  6
 14 15  1  0
 14 16  1  0
 16 18  2  0
 16 17  1  0
M  END
$$$$
