PAA.pdb
     RDKit          3D

 18 18  0  0  1  0  0  0  0  0999 V2000
    8.9857  -14.5763   20.4650 N   0  0  0  0  0  0  0  0  0  0  0  0
    7.7877  -14.5870   19.6390 C   0  0  0  0  0  0  0  0  0  0  0  0
    7.1361  -13.2573   19.8934 C   0  0  0  0  0  0  0  0  0  0  0  0
    7.9640  -12.5567   20.9553 C   0  0  0  0  0  0  0  0  0  0  0  0
    8.6836  -13.7263   21.5988 C   0  0  1  0  0  0  0  0  0  0  0  0
    7.7964  -14.4295   22.5581 C   0  0  0  0  0  0  0  0  0  0  0  0
    7.3729  -13.7952   23.5539 O   0  0  0  0  0  0  0  0  0  0  0  0
    5.7141  -17.4665   22.6287 C   0  0  0  0  0  0  0  0  0  0  0  0
    6.6353  -16.5061   23.3879 C   0  0  2  0  0  0  0  0  0  0  0  0
    7.3984  -15.7747   22.4173 N   0  0  0  0  0  0  0  0  0  0  0  0
    7.4749  -17.3185   24.2922 C   0  0  0  0  0  0  0  0  0  0  0  0
    7.0299  -18.1040   25.1603 O   0  0  0  0  0  0  0  0  0  0  0  0
   11.2323  -17.7953   24.5812 C   0  0  0  0  0  0  0  0  0  0  0  0
    9.7779  -17.9079   25.0547 C   0  0  2  0  0  0  0  0  0  0  0  0
    8.8870  -17.1950   24.1621 N   0  0  0  0  0  0  0  0  0  0  0  0
    9.7560  -17.3056   26.4247 C   0  0  0  0  0  0  0  0  0  0  0  0
    9.0566  -16.1271   26.6381 O   0  0  0  0  0  0  0  0  0  0  0  0
   10.3474  -17.8265   27.3909 O   0  0  0  0  0  0  0  0  0  0  0  0
  1  2  1  0
  1  5  1  0
  2  3  1  0
  3  4  1  0
  5  4  1  0
  5  6  1  1
  6  7  2  0
  9  8  1  6
  9 10  1  0
 10  6  1  0
 11 15  1  0
 11  9  1  0
 12 11  2  0
 14 13  1  6
 14 15  1  0
 14 16  1  0
 16 18  2  0
 16 17  1  0
M  END
$$$$
