PAA.pdb
     RDKit          3D

 18 18  0  0  1  0  0  0  0  0999 V2000
    8.0924  -14.7990   18.9800 N   0  0  0  0  0  0  0  0  0  0  0  0
    7.1143  -13.7284   18.8594 C   0  0  0  0  0  0  0  0  0  0  0  0
    7.8002  -12.5182   19.4270 C   0  0  0  0  0  0  0  0  0  0  0  0
    9.1490  -12.9799   19.9481 C   0  0  0  0  0  0  0  0  0  0  0  0
    8.9112  -14.4667   20.1282 C   0  0  1  0  0  0  0  0  0  0  0  0
    8.1773  -14.7356   21.3895 C   0  0  0  0  0  0  0  0  0  0  0  0
    7.0205  -14.2678   21.5177 O   0  0  0  0  0  0  0  0  0  0  0  0
    8.6088  -16.9865   24.3271 C   0  0  0  0  0  0  0  0  0  0  0  0
    8.0384  -15.7048   23.7112 C   0  0  2  0  0  0  0  0  0  0  0  0
    8.7041  -15.4890   22.4583 N   0  0  0  0  0  0  0  0  0  0  0  0
    8.2583  -14.6112   24.6799 C   0  0  0  0  0  0  0  0  0  0  0  0
    9.3587  -14.0458   24.8753 O   0  0  0  0  0  0  0  0  0  0  0  0
    5.8646  -12.4549   26.6486 C   0  0  0  0  0  0  0  0  0  0  0  0
    7.2467  -13.0430   26.3382 C   0  0  2  0  0  0  0  0  0  0  0  0
    7.1371  -14.1748   25.4406 N   0  0  0  0  0  0  0  0  0  0  0  0
    7.8086  -13.4622   27.6606 C   0  0  0  0  0  0  0  0  0  0  0  0
    8.2339  -12.4926   28.5566 O   0  0  0  0  0  0  0  0  0  0  0  0
    7.9103  -14.6599   27.9916 O   0  0  0  0  0  0  0  0  0  0  0  0
  1  2  1  0
  1  5  1  0
  2  3  1  0
  3  4  1  0
  5  4  1  0
  5  6  1  1
  6  7  2  0
  9  8  1  1
  9 10  1  0
 10  6  1  0
 11 15  1  0
 11  9  1  0
 12 11  2  0
 14 13  1  1
 14 15  1  0
 14 16  1  0
 16 18  2  0
 16 17  1  0
M  END
$$$$
