PAA.pdb
     RDKit          3D

 18 18  0  0  1  0  0  0  0  0999 V2000
    8.8791  -15.2367   21.0302 N   0  0  0  0  0  0  0  0  0  0  0  0
    7.7871  -15.3322   20.0732 C   0  0  0  0  0  0  0  0  0  0  0  0
    6.9316  -14.1280   20.3479 C   0  0  0  0  0  0  0  0  0  0  0  0
    7.5376  -13.4211   21.5467 C   0  0  0  0  0  0  0  0  0  0  0  0
    8.3439  -14.5378   22.1810 C   0  0  1  0  0  0  0  0  0  0  0  0
    7.4698  -15.4342   22.9774 C   0  0  0  0  0  0  0  0  0  0  0  0
    6.7955  -14.9353   23.9100 O   0  0  0  0  0  0  0  0  0  0  0  0
    5.8747  -18.7004   22.5748 C   0  0  0  0  0  0  0  0  0  0  0  0
    6.5452  -17.7112   23.5336 C   0  0  2  0  0  0  0  0  0  0  0  0
    7.3507  -16.8202   22.7483 N   0  0  0  0  0  0  0  0  0  0  0  0
    7.3316  -18.4988   24.5051 C   0  0  0  0  0  0  0  0  0  0  0  0
    6.8573  -19.3884   25.2482 O   0  0  0  0  0  0  0  0  0  0  0  0
   11.0499  -18.7491   25.1917 C   0  0  0  0  0  0  0  0  0  0  0  0
    9.5663  -18.9578   25.5193 C   0  0  2  0  0  0  0  0  0  0  0  0
    8.7249  -18.2220   24.5977 N   0  0  0  0  0  0  0  0  0  0  0  0
    9.3918  -18.4563   26.9187 C   0  0  0  0  0  0  0  0  0  0  0  0
    8.6471  -17.3075   27.1412 O   0  0  0  0  0  0  0  0  0  0  0  0
    9.8941  -19.0360   27.9015 O   0  0  0  0  0  0  0  0  0  0  0  0
  1  2  1  0
  1  5  1  0
  2  3  1  0
  3  4  1  0
  5  4  1  0
  5  6  1  6
  6  7  2  0
  9  8  1  6
  9 10  1  0
 10  6  1  0
 11 15  1  0
 11  9  1  0
 12 11  2  0
 14 13  1  6
 14 15  1  0
 14 16  1  0
 16 18  2  0
 16 17  1  0
M  END
$$$$
