PAA.pdb
     RDKit          3D

 18 18  0  0  1  0  0  0  0  0999 V2000
    7.2660  -18.6847   20.4297 N   0  0  0  0  0  0  0  0  0  0  0  0
    7.7069  -19.7755   21.2860 C   0  0  0  0  0  0  0  0  0  0  0  0
    6.6638  -19.8610   22.3639 C   0  0  0  0  0  0  0  0  0  0  0  0
    5.6884  -18.7229   22.1246 C   0  0  0  0  0  0  0  0  0  0  0  0
    6.5255  -17.7784   21.2838 C   0  0  1  0  0  0  0  0  0  0  0  0
    7.4497  -16.9903   22.1361 C   0  0  0  0  0  0  0  0  0  0  0  0
    8.6575  -17.3266   22.1756 O   0  0  0  0  0  0  0  0  0  0  0  0
    7.2043  -13.6262   23.7074 C   0  0  0  0  0  0  0  0  0  0  0  0
    7.9512  -14.9522   23.5301 C   0  0  2  0  0  0  0  0  0  0  0  0
    7.0506  -15.8805   22.9085 N   0  0  0  0  0  0  0  0  0  0  0  0
    8.4020  -15.3894   24.8674 C   0  0  0  0  0  0  0  0  0  0  0  0
    9.2429  -14.7805   25.5679 O   0  0  0  0  0  0  0  0  0  0  0  0
    7.1098  -17.9318   27.3131 C   0  0  0  0  0  0  0  0  0  0  0  0
    8.2263  -17.0814   26.6947 C   0  0  2  0  0  0  0  0  0  0  0  0
    7.8372  -16.5871   25.3897 N   0  0  0  0  0  0  0  0  0  0  0  0
    9.4101  -17.9912   26.5902 C   0  0  0  0  0  0  0  0  0  0  0  0
    9.9479  -18.5421   27.7439 O   0  0  0  0  0  0  0  0  0  0  0  0
    9.9368  -18.2761   25.4967 O   0  0  0  0  0  0  0  0  0  0  0  0
  1  2  1  0
  1  5  1  0
  2  3  1  0
  3  4  1  0
  5  4  1  0
  5  6  1  1
  6  7  2  0
  9  8  1  1
  9 10  1  0
 10  6  1  0
 11 15  1  0
 11  9  1  0
 12 11  2  0
 14 13  1  6
 14 15  1  0
 14 16  1  0
 16 18  2  0
 16 17  1  0
M  END
$$$$
