PAA.pdb
     RDKit          3D

 18 18  0  0  1  0  0  0  0  0999 V2000
    9.1076  -14.2153   18.8351 N   0  0  0  0  0  0  0  0  0  0  0  0
    7.7445  -13.9749   18.3862 C   0  0  0  0  0  0  0  0  0  0  0  0
    7.3765  -12.6434   18.9771 C   0  0  0  0  0  0  0  0  0  0  0  0
    8.5458  -12.2062   19.8405 C   0  0  0  0  0  0  0  0  0  0  0  0
    9.2387  -13.5289   20.1044 C   0  0  1  0  0  0  0  0  0  0  0  0
    8.5478  -14.2821   21.1801 C   0  0  0  0  0  0  0  0  0  0  0  0
    8.5584  -13.8081   22.3414 O   0  0  0  0  0  0  0  0  0  0  0  0
    6.0756  -17.0340   21.3778 C   0  0  0  0  0  0  0  0  0  0  0  0
    7.2460  -16.2735   22.0098 C   0  0  2  0  0  0  0  0  0  0  0  0
    7.8764  -15.5047   20.9750 N   0  0  0  0  0  0  0  0  0  0  0  0
    8.1470  -17.2731   22.6194 C   0  0  0  0  0  0  0  0  0  0  0  0
    7.8095  -18.0816   23.5144 O   0  0  0  0  0  0  0  0  0  0  0  0
   11.4868  -18.6578   21.6530 C   0  0  0  0  0  0  0  0  0  0  0  0
   10.4360  -18.2665   22.6994 C   0  0  2  0  0  0  0  0  0  0  0  0
    9.4910  -17.3146   22.1521 N   0  0  0  0  0  0  0  0  0  0  0  0
   11.2059  -17.6638   23.8326 C   0  0  0  0  0  0  0  0  0  0  0  0
   10.9889  -16.3366   24.1719 O   0  0  0  0  0  0  0  0  0  0  0  0
   12.0425  -18.3139   24.4897 O   0  0  0  0  0  0  0  0  0  0  0  0
  1  2  1  0
  1  5  1  0
  2  3  1  0
  3  4  1  0
  5  4  1  0
  5  6  1  1
  6  7  2  0
  9  8  1  6
  9 10  1  0
 10  6  1  0
 11 15  1  0
 11  9  1  0
 12 11  2  0
 14 13  1  6
 14 15  1  0
 14 16  1  0
 16 18  2  0
 16 17  1  0
M  END
$$$$
