PAA.pdb
     RDKit          3D

 18 18  0  0  1  0  0  0  0  0999 V2000
    7.7275  -14.6771   18.9631 N   0  0  0  0  0  0  0  0  0  0  0  0
    7.0391  -13.3952   18.9808 C   0  0  0  0  0  0  0  0  0  0  0  0
    8.0660  -12.4166   19.4763 C   0  0  0  0  0  0  0  0  0  0  0  0
    9.3090  -13.2177   19.8187 C   0  0  0  0  0  0  0  0  0  0  0  0
    8.7317  -14.6075   20.0051 C   0  0  1  0  0  0  0  0  0  0  0  0
    8.1067  -14.7449   21.3439 C   0  0  0  0  0  0  0  0  0  0  0  0
    7.0483  -14.1130   21.5756 O   0  0  0  0  0  0  0  0  0  0  0  0
    8.4635  -17.1157   24.1808 C   0  0  0  0  0  0  0  0  0  0  0  0
    8.0059  -15.7528   23.6510 C   0  0  2  0  0  0  0  0  0  0  0  0
    8.6332  -15.5471   22.3768 N   0  0  0  0  0  0  0  0  0  0  0  0
    8.3852  -14.7369   24.6543 C   0  0  0  0  0  0  0  0  0  0  0  0
    9.5533  -14.3264   24.8432 O   0  0  0  0  0  0  0  0  0  0  0  0
    6.3439  -12.4116   26.8253 C   0  0  0  0  0  0  0  0  0  0  0  0
    7.6273  -13.1506   26.4269 C   0  0  2  0  0  0  0  0  0  0  0  0
    7.3455  -14.1908   25.4587 N   0  0  0  0  0  0  0  0  0  0  0  0
    8.1631  -13.7338   27.6969 C   0  0  0  0  0  0  0  0  0  0  0  0
    8.1078  -15.1060   27.8912 O   0  0  0  0  0  0  0  0  0  0  0  0
    8.6620  -13.0281   28.5955 O   0  0  0  0  0  0  0  0  0  0  0  0
  1  2  1  0
  1  5  1  0
  2  3  1  0
  3  4  1  0
  5  4  1  0
  5  6  1  1
  6  7  2  0
  9  8  1  1
  9 10  1  0
 10  6  1  0
 11 15  1  0
 11  9  1  0
 12 11  2  0
 14 13  1  1
 14 15  1  0
 14 16  1  0
 16 18  2  0
 16 17  1  0
M  END
$$$$
