PAA.pdb
     RDKit          3D

 18 18  0  0  1  0  0  0  0  0999 V2000
    9.0866  -12.9590   17.5437 N   0  0  0  0  0  0  0  0  0  0  0  0
    8.3505  -13.7211   16.5463 C   0  0  0  0  0  0  0  0  0  0  0  0
    7.0472  -14.0627   17.2114 C   0  0  0  0  0  0  0  0  0  0  0  0
    7.1305  -13.5451   18.6359 C   0  0  0  0  0  0  0  0  0  0  0  0
    8.6304  -13.4390   18.8324 C   0  0  1  0  0  0  0  0  0  0  0  0
    9.2191  -14.7672   19.1342 C   0  0  0  0  0  0  0  0  0  0  0  0
    9.0773  -15.6873   18.2936 O   0  0  0  0  0  0  0  0  0  0  0  0
   12.1817  -14.4409   19.7662 C   0  0  0  0  0  0  0  0  0  0  0  0
   11.2853  -15.5353   20.3546 C   0  0  2  0  0  0  0  0  0  0  0  0
    9.9321  -15.0592   20.3148 N   0  0  0  0  0  0  0  0  0  0  0  0
   11.7626  -15.8102   21.7255 C   0  0  0  0  0  0  0  0  0  0  0  0
   12.9299  -16.1600   22.0146 O   0  0  0  0  0  0  0  0  0  0  0  0
   10.1467  -15.4742   25.1405 C   0  0  0  0  0  0  0  0  0  0  0  0
   11.1892  -16.0032   24.1477 C   0  0  2  0  0  0  0  0  0  0  0  0
   10.8251  -15.6653   22.7868 N   0  0  0  0  0  0  0  0  0  0  0  0
   11.2095  -17.4870   24.3425 C   0  0  0  0  0  0  0  0  0  0  0  0
   11.6795  -18.0092   25.5385 O   0  0  0  0  0  0  0  0  0  0  0  0
   10.8171  -18.2797   23.4639 O   0  0  0  0  0  0  0  0  0  0  0  0
  1  2  1  0
  1  5  1  0
  2  3  1  0
  3  4  1  0
  5  4  1  0
  5  6  1  6
  6  7  2  0
  9  8  1  1
  9 10  1  0
 10  6  1  0
 11 15  1  0
 11  9  1  0
 12 11  2  0
 14 13  1  1
 14 15  1  0
 14 16  1  0
 16 18  2  0
 16 17  1  0
M  END
$$$$
