PAA.pdb
     RDKit          3D

 18 18  0  0  1  0  0  0  0  0999 V2000
    7.8058  -18.0093   20.4399 N   0  0  0  0  0  0  0  0  0  0  0  0
    6.7561  -17.1329   19.9426 C   0  0  0  0  0  0  0  0  0  0  0  0
    7.4048  -16.3481   18.8377 C   0  0  0  0  0  0  0  0  0  0  0  0
    8.8669  -16.7547   18.8080 C   0  0  0  0  0  0  0  0  0  0  0  0
    9.0544  -17.3127   20.2055 C   0  0  1  0  0  0  0  0  0  0  0  0
    9.2361  -16.2187   21.1914 C   0  0  0  0  0  0  0  0  0  0  0  0
   10.3420  -15.6281   21.2299 O   0  0  0  0  0  0  0  0  0  0  0  0
    6.9860  -14.1439   23.2916 C   0  0  0  0  0  0  0  0  0  0  0  0
    8.3798  -14.7240   23.0303 C   0  0  2  0  0  0  0  0  0  0  0  0
    8.2355  -15.8005   22.0923 N   0  0  0  0  0  0  0  0  0  0  0  0
    8.9302  -15.1586   24.3307 C   0  0  0  0  0  0  0  0  0  0  0  0
    9.1269  -14.4004   25.3079 O   0  0  0  0  0  0  0  0  0  0  0  0
    9.2657  -18.3750   26.1054 C   0  0  0  0  0  0  0  0  0  0  0  0
    9.8707  -17.0274   25.6930 C   0  0  2  0  0  0  0  0  0  0  0  0
    9.2575  -16.5363   24.4758 N   0  0  0  0  0  0  0  0  0  0  0  0
   11.3297  -17.2906   25.4877 C   0  0  0  0  0  0  0  0  0  0  0  0
   12.1025  -17.7090   26.5608 O   0  0  0  0  0  0  0  0  0  0  0  0
   11.8830  -17.1472   24.3797 O   0  0  0  0  0  0  0  0  0  0  0  0
  1  2  1  0
  1  5  1  0
  2  3  1  0
  3  4  1  0
  5  4  1  0
  5  6  1  1
  6  7  2  0
  9  8  1  1
  9 10  1  0
 10  6  1  0
 11 15  1  0
 11  9  1  0
 12 11  2  0
 14 13  1  6
 14 15  1  0
 14 16  1  0
 16 18  2  0
 16 17  1  0
M  END
$$$$
