PAA.pdb
     RDKit          3D

 18 18  0  0  1  0  0  0  0  0999 V2000
    8.0513  -14.6878   19.6130 N   0  0  0  0  0  0  0  0  0  0  0  0
    6.8239  -13.9374   19.8315 C   0  0  0  0  0  0  0  0  0  0  0  0
    7.2772  -12.6142   20.3801 C   0  0  0  0  0  0  0  0  0  0  0  0
    8.7840  -12.6979   20.5435 C   0  0  0  0  0  0  0  0  0  0  0  0
    9.0005  -14.1979   20.5918 C   0  0  1  0  0  0  0  0  0  0  0  0
    8.6862  -14.7342   21.9392 C   0  0  0  0  0  0  0  0  0  0  0  0
    7.5760  -14.4510   22.4497 O   0  0  0  0  0  0  0  0  0  0  0  0
    9.6654  -17.5676   23.9693 C   0  0  0  0  0  0  0  0  0  0  0  0
    9.2746  -16.0862   23.9824 C   0  0  2  0  0  0  0  0  0  0  0  0
    9.5646  -15.5470   22.6845 N   0  0  0  0  0  0  0  0  0  0  0  0
   10.0409  -15.4349   25.0647 C   0  0  0  0  0  0  0  0  0  0  0  0
   11.2492  -15.1149   24.9864 O   0  0  0  0  0  0  0  0  0  0  0  0
    9.1352  -13.4068   27.9914 C   0  0  0  0  0  0  0  0  0  0  0  0
   10.0257  -14.4940   27.3771 C   0  0  2  0  0  0  0  0  0  0  0  0
    9.3514  -15.1545   26.2781 N   0  0  0  0  0  0  0  0  0  0  0  0
   10.3050  -15.4567   28.4886 C   0  0  0  0  0  0  0  0  0  0  0  0
    9.8289  -16.7562   28.3980 O   0  0  0  0  0  0  0  0  0  0  0  0
   10.9550  -15.1334   29.5022 O   0  0  0  0  0  0  0  0  0  0  0  0
  1  2  1  0
  1  5  1  0
  2  3  1  0
  3  4  1  0
  5  4  1  0
  5  6  1  1
  6  7  2  0
  9  8  1  6
  9 10  1  0
 10  6  1  0
 11 15  1  0
 11  9  1  0
 12 11  2  0
 14 13  1  1
 14 15  1  0
 14 16  1  0
 16 18  2  0
 16 17  1  0
M  END
$$$$
