PAA.pdb
     RDKit          3D

 18 18  0  0  1  0  0  0  0  0999 V2000
    8.6192  -16.9663   16.5346 N   0  0  0  0  0  0  0  0  0  0  0  0
    9.6899  -17.8030   17.0551 C   0  0  0  0  0  0  0  0  0  0  0  0
    9.0743  -18.5347   18.2141 C   0  0  0  0  0  0  0  0  0  0  0  0
    7.6612  -18.0030   18.3705 C   0  0  0  0  0  0  0  0  0  0  0  0
    7.7607  -16.6658   17.6623 C   0  0  1  0  0  0  0  0  0  0  0  0
    8.3883  -15.6479   18.5409 C   0  0  0  0  0  0  0  0  0  0  0  0
    9.6405  -15.5914   18.5881 O   0  0  0  0  0  0  0  0  0  0  0  0
    7.1198  -12.6567   20.3940 C   0  0  0  0  0  0  0  0  0  0  0  0
    8.2383  -13.6537   20.0736 C   0  0  2  0  0  0  0  0  0  0  0  0
    7.6586  -14.7356   19.3301 N   0  0  0  0  0  0  0  0  0  0  0  0
    8.8298  -14.0842   21.3571 C   0  0  0  0  0  0  0  0  0  0  0  0
    9.4484  -13.3300   22.1427 O   0  0  0  0  0  0  0  0  0  0  0  0
    8.3670  -17.1797   23.4386 C   0  0  0  0  0  0  0  0  0  0  0  0
    9.1468  -15.9321   23.0056 C   0  0  2  0  0  0  0  0  0  0  0  0
    8.6826  -15.4528   21.7197 N   0  0  0  0  0  0  0  0  0  0  0  0
   10.5785  -16.3619   22.9305 C   0  0  0  0  0  0  0  0  0  0  0  0
   11.2443  -16.2988   21.7153 O   0  0  0  0  0  0  0  0  0  0  0  0
   11.2021  -16.7784   23.9265 O   0  0  0  0  0  0  0  0  0  0  0  0
  1  2  1  0
  1  5  1  0
  2  3  1  0
  3  4  1  0
  5  4  1  0
  5  6  1  1
  6  7  2  0
  9  8  1  1
  9 10  1  0
 10  6  1  0
 11 15  1  0
 11  9  1  0
 12 11  2  0
 14 13  1  6
 14 15  1  0
 14 16  1  0
 16 18  2  0
 16 17  1  0
M  END
$$$$
