PAA.pdb
     RDKit          3D

 18 18  0  0  1  0  0  0  0  0999 V2000
    9.1860  -16.2674   15.6524 N   0  0  0  0  0  0  0  0  0  0  0  0
   10.1550  -17.2004   16.2074 C   0  0  0  0  0  0  0  0  0  0  0  0
    9.4231  -17.8943   17.3211 C   0  0  0  0  0  0  0  0  0  0  0  0
    8.0541  -17.2463   17.4198 C   0  0  0  0  0  0  0  0  0  0  0  0
    8.3012  -15.9118   16.7433 C   0  0  1  0  0  0  0  0  0  0  0  0
    8.9686  -14.9649   17.6706 C   0  0  0  0  0  0  0  0  0  0  0  0
   10.2220  -14.9604   17.7183 O   0  0  0  0  0  0  0  0  0  0  0  0
    7.8319  -12.0315   19.6941 C   0  0  0  0  0  0  0  0  0  0  0  0
    8.8998  -13.0670   19.3266 C   0  0  2  0  0  0  0  0  0  0  0  0
    8.2755  -14.0650   18.5058 N   0  0  0  0  0  0  0  0  0  0  0  0
    9.4426  -13.6113   20.5882 C   0  0  0  0  0  0  0  0  0  0  0  0
   10.1291  -12.9576   21.4067 O   0  0  0  0  0  0  0  0  0  0  0  0
    8.6384  -16.4844   22.7538 C   0  0  0  0  0  0  0  0  0  0  0  0
    9.6926  -15.5934   22.0854 C   0  0  2  0  0  0  0  0  0  0  0  0
    9.1620  -14.9742   20.8879 N   0  0  0  0  0  0  0  0  0  0  0  0
   10.8339  -16.5037   21.7553 C   0  0  0  0  0  0  0  0  0  0  0  0
   11.5308  -17.1206   22.7838 O   0  0  0  0  0  0  0  0  0  0  0  0
   11.1862  -16.7315   20.5813 O   0  0  0  0  0  0  0  0  0  0  0  0
  1  2  1  0
  1  5  1  0
  2  3  1  0
  3  4  1  0
  5  4  1  0
  5  6  1  1
  6  7  2  0
  9  8  1  1
  9 10  1  0
 10  6  1  0
 11 15  1  0
 11  9  1  0
 12 11  2  0
 14 13  1  6
 14 15  1  0
 14 16  1  0
 16 18  2  0
 16 17  1  0
M  END
$$$$
