PAA.pdb
     RDKit          3D

 18 18  0  0  1  0  0  0  0  0999 V2000
    8.5509  -14.8958   19.7810 N   0  0  0  0  0  0  0  0  0  0  0  0
    7.1887  -14.5031   19.4527 C   0  0  0  0  0  0  0  0  0  0  0  0
    7.1232  -13.0386   19.7818 C   0  0  0  0  0  0  0  0  0  0  0  0
    8.4629  -12.6628   20.3885 C   0  0  0  0  0  0  0  0  0  0  0  0
    8.9765  -14.0134   20.8485 C   0  0  1  0  0  0  0  0  0  0  0  0
    8.3491  -14.4074   22.1342 C   0  0  0  0  0  0  0  0  0  0  0  0
    7.5638  -13.6003   22.6867 O   0  0  0  0  0  0  0  0  0  0  0  0
    8.4695  -17.4135   24.3846 C   0  0  0  0  0  0  0  0  0  0  0  0
    8.3067  -15.9069   24.1587 C   0  0  2  0  0  0  0  0  0  0  0  0
    8.5834  -15.6406   22.7760 N   0  0  0  0  0  0  0  0  0  0  0  0
    9.2351  -15.2177   25.0784 C   0  0  0  0  0  0  0  0  0  0  0  0
    9.9422  -14.2319   24.7672 O   0  0  0  0  0  0  0  0  0  0  0  0
    9.2365  -13.6611   27.7565 C   0  0  0  0  0  0  0  0  0  0  0  0
   10.0030  -14.9510   27.4389 C   0  0  2  0  0  0  0  0  0  0  0  0
    9.3271  -15.7139   26.4094 N   0  0  0  0  0  0  0  0  0  0  0  0
   10.0505  -15.7145   28.7254 C   0  0  0  0  0  0  0  0  0  0  0  0
    9.4359  -16.9555   28.8024 O   0  0  0  0  0  0  0  0  0  0  0  0
   10.6261  -15.2747   29.7401 O   0  0  0  0  0  0  0  0  0  0  0  0
  1  2  1  0
  1  5  1  0
  2  3  1  0
  3  4  1  0
  5  4  1  0
  5  6  1  1
  6  7  2  0
  9  8  1  6
  9 10  1  0
 10  6  1  0
 11 15  1  0
 11  9  1  0
 12 11  2  0
 14 13  1  1
 14 15  1  0
 14 16  1  0
 16 18  2  0
 16 17  1  0
M  END
$$$$
