VER.pdb
     RDKit          3D

 28 27  0  0  1  0  0  0  0  0999 V2000
   25.9676  -19.2092  -11.6706 C   0  0  0  0  0  0  0  0  0  0  0  0
   25.0754  -20.2092  -11.0129 C   0  0  2  0  0  0  0  0  0  0  0  0
   25.5057  -20.3202   -9.5461 C   0  0  0  0  0  0  0  0  0  0  0  0
   25.2160  -21.5950  -11.6339 C   0  0  2  0  0  0  0  0  0  0  0  0
   26.5692  -22.0977  -11.4460 N   0  0  0  0  0  0  0  0  0  0  0  0
   24.8942  -21.5792  -13.0796 C   0  0  0  0  0  0  0  0  0  0  0  0
   23.7605  -21.2629  -13.5058 O   0  0  0  0  0  0  0  0  0  0  0  0
   25.8725  -21.9278  -14.0628 N   0  0  0  0  0  0  0  0  0  0  0  0
   25.6125  -21.9833  -15.4791 C   0  0  1  0  0  0  0  0  0  0  0  0
   26.7004  -21.2561  -16.2074 C   0  0  0  0  0  0  0  0  0  0  0  0
   26.7212  -19.7799  -15.9169 C   0  0  0  0  0  0  0  0  0  0  0  0
   27.8412  -19.1169  -16.6336 C   0  0  0  0  0  0  0  0  0  0  0  0
   28.6210  -19.8306  -17.3109 O   0  0  0  0  0  0  0  0  0  0  0  0
   25.4401  -23.3921  -15.9486 C   0  0  0  0  0  0  0  0  0  0  0  0
   26.1934  -24.2960  -15.5142 O   0  0  0  0  0  0  0  0  0  0  0  0
   28.0721  -17.7496  -16.5944 O   0  0  0  0  0  0  0  0  0  0  0  0
   20.8990  -28.1888  -12.1738 N   0  0  0  0  0  0  0  0  0  0  0  0
   20.8263  -28.9392  -13.3720 C   0  0  0  0  0  0  0  0  0  0  0  0
   20.2214  -30.0721  -13.4601 N   0  0  0  0  0  0  0  0  0  0  0  0
   21.4423  -28.4421  -14.5494 N   0  0  0  0  0  0  0  0  0  0  0  0
   22.2488  -27.2186  -14.5408 C   0  0  0  0  0  0  0  0  0  0  0  0
   22.7533  -26.8764  -15.8830 C   0  0  0  0  0  0  0  0  0  0  0  0
   23.4766  -25.6170  -16.0084 C   0  0  0  0  0  0  0  0  0  0  0  0
   24.0740  -25.0966  -17.2503 C   0  0  2  0  0  0  0  0  0  0  0  0
   24.4334  -23.6613  -16.8681 N   0  0  0  0  0  0  0  0  0  0  0  0
   23.2199  -24.8780  -18.4218 C   0  0  0  0  0  0  0  0  0  0  0  0
   22.6468  -25.8778  -18.9792 O   0  0  0  0  0  0  0  0  0  0  0  0
   22.9439  -23.6755  -19.0136 O   0  0  0  0  0  0  0  0  0  0  0  0
  2  1  1  6
  2  3  1  0
  4  2  1  0
  4  5  1  6
  6  7  2  0
  6  4  1  0
  8  6  1  0
  9  8  1  0
  9 10  1  6
 11 10  1  0
 12 11  1  0
 13 12  2  0
 14  9  1  0
 15 14  2  0
 16 12  1  0
 18 17  1  0
 19 18  2  0
 20 18  1  0
 21 20  1  0
 22 21  1  0
 23 22  1  0
 24 23  1  1
 24 25  1  0
 25 14  1  0
 26 28  1  0
 26 24  1  0
 27 26  2  0
M  END
$$$$
