VER.pdb
     RDKit          3D

 28 27  0  0  1  0  0  0  0  0999 V2000
   23.8044  -18.5399  -24.0472 C   0  0  0  0  0  0  0  0  0  0  0  0
   22.5591  -18.5012  -24.8695 C   0  0  2  0  0  0  0  0  0  0  0  0
   22.8456  -17.6397  -26.1043 C   0  0  0  0  0  0  0  0  0  0  0  0
   21.4006  -17.8510  -24.1206 C   0  0  2  0  0  0  0  0  0  0  0  0
   21.6011  -16.4118  -24.0317 N   0  0  0  0  0  0  0  0  0  0  0  0
   21.2503  -18.4111  -22.7577 C   0  0  0  0  0  0  0  0  0  0  0  0
   21.0484  -19.6303  -22.5575 O   0  0  0  0  0  0  0  0  0  0  0  0
   21.3295  -17.5774  -21.5984 N   0  0  0  0  0  0  0  0  0  0  0  0
   21.0807  -18.0341  -20.2546 C   0  0  1  0  0  0  0  0  0  0  0  0
   21.8509  -17.1805  -19.2948 C   0  0  0  0  0  0  0  0  0  0  0  0
   21.7155  -17.6295  -17.8651 C   0  0  0  0  0  0  0  0  0  0  0  0
   22.5615  -16.7994  -16.9691 C   0  0  0  0  0  0  0  0  0  0  0  0
   23.2604  -15.8912  -17.4819 O   0  0  0  0  0  0  0  0  0  0  0  0
   19.6172  -18.0728  -19.9522 C   0  0  0  0  0  0  0  0  0  0  0  0
   18.8676  -17.1514  -20.3552 O   0  0  0  0  0  0  0  0  0  0  0  0
   22.6209  -16.9743  -15.5942 O   0  0  0  0  0  0  0  0  0  0  0  0
   15.3866  -23.6226  -15.4759 N   0  0  0  0  0  0  0  0  0  0  0  0
   14.5403  -23.8116  -16.5949 C   0  0  0  0  0  0  0  0  0  0  0  0
   13.3553  -24.3069  -16.5084 N   0  0  0  0  0  0  0  0  0  0  0  0
   14.9953  -23.4461  -17.8881 N   0  0  0  0  0  0  0  0  0  0  0  0
   16.3205  -22.8583  -18.1024 C   0  0  0  0  0  0  0  0  0  0  0  0
   16.2621  -21.3917  -18.2389 C   0  0  0  0  0  0  0  0  0  0  0  0
   17.4987  -20.7206  -18.6204 C   0  0  0  0  0  0  0  0  0  0  0  0
   17.6301  -19.2865  -18.9303 C   0  0  2  0  0  0  0  0  0  0  0  0
   19.1239  -19.1467  -19.2210 N   0  0  0  0  0  0  0  0  0  0  0  0
   17.4510  -18.3008  -17.8598 C   0  0  0  0  0  0  0  0  0  0  0  0
   18.4498  -17.9779  -17.1269 O   0  0  0  0  0  0  0  0  0  0  0  0
   16.2910  -17.6492  -17.5404 O   0  0  0  0  0  0  0  0  0  0  0  0
  2  1  1  1
  2  3  1  0
  4  2  1  0
  4  5  1  1
  6  7  2  0
  6  4  1  0
  8  6  1  0
  9  8  1  0
  9 10  1  1
 11 10  1  0
 12 11  1  0
 13 12  2  0
 14  9  1  0
 15 14  2  0
 16 12  1  0
 18 17  1  0
 19 18  2  0
 20 18  1  0
 21 20  1  0
 22 21  1  0
 23 22  1  0
 24 23  1  1
 24 25  1  0
 25 14  1  0
 26 28  1  0
 26 24  1  0
 27 26  2  0
M  END
$$$$
