VER.pdb
     RDKit          3D

 28 27  0  0  1  0  0  0  0  0999 V2000
   15.8323  -22.1056   -1.3699 C   0  0  0  0  0  0  0  0  0  0  0  0
   14.3937  -22.4557   -1.5608 C   0  0  2  0  0  0  0  0  0  0  0  0
   13.5571  -21.3057   -0.9893 C   0  0  0  0  0  0  0  0  0  0  0  0
   14.0081  -23.7199   -0.8000 C   0  0  2  0  0  0  0  0  0  0  0  0
   12.5904  -24.0012   -0.9738 N   0  0  0  0  0  0  0  0  0  0  0  0
   14.3115  -23.6001    0.6449 C   0  0  0  0  0  0  0  0  0  0  0  0
   13.4517  -23.2333    1.4775 O   0  0  0  0  0  0  0  0  0  0  0  0
   15.6119  -23.9004    1.1588 N   0  0  0  0  0  0  0  0  0  0  0  0
   15.9712  -23.8150    2.5516 C   0  0  1  0  0  0  0  0  0  0  0  0
   16.4929  -25.1430    3.0070 C   0  0  0  0  0  0  0  0  0  0  0  0
   15.4110  -26.1736    3.1835 C   0  0  0  0  0  0  0  0  0  0  0  0
   15.9705  -27.4381    3.7272 C   0  0  0  0  0  0  0  0  0  0  0  0
   17.2055  -27.4985    3.9448 O   0  0  0  0  0  0  0  0  0  0  0  0
   16.9318  -22.6969    2.8011 C   0  0  0  0  0  0  0  0  0  0  0  0
   17.7376  -22.3490    1.9052 O   0  0  0  0  0  0  0  0  0  0  0  0
   15.2005  -28.5574    4.0078 O   0  0  0  0  0  0  0  0  0  0  0  0
   14.7903  -14.9583    3.2963 N   0  0  0  0  0  0  0  0  0  0  0  0
   16.2012  -14.8423    3.2996 C   0  0  0  0  0  0  0  0  0  0  0  0
   16.8199  -13.7419    3.0477 N   0  0  0  0  0  0  0  0  0  0  0  0
   16.9978  -15.9796    3.5911 N   0  0  0  0  0  0  0  0  0  0  0  0
   16.4268  -17.3281    3.6465 C   0  0  0  0  0  0  0  0  0  0  0  0
   17.4302  -18.3412    4.0204 C   0  0  0  0  0  0  0  0  0  0  0  0
   16.9806  -19.7276    4.0489 C   0  0  0  0  0  0  0  0  0  0  0  0
   17.8287  -20.8931    4.3527 C   0  0  2  0  0  0  0  0  0  0  0  0
   16.9018  -22.0670    4.0396 N   0  0  0  0  0  0  0  0  0  0  0  0
   18.1907  -21.1748    5.7453 C   0  0  0  0  0  0  0  0  0  0  0  0
   17.8811  -22.3051    6.2606 O   0  0  0  0  0  0  0  0  0  0  0  0
   18.8573  -20.3370    6.5975 O   0  0  0  0  0  0  0  0  0  0  0  0
  2  1  1  1
  2  3  1  0
  4  2  1  0
  4  5  1  1
  6  7  2  0
  6  4  1  0
  8  6  1  0
  9  8  1  0
  9 10  1  6
 11 10  1  0
 12 11  1  0
 13 12  2  0
 14  9  1  0
 15 14  2  0
 16 12  1  0
 18 17  1  0
 19 18  2  0
 20 18  1  0
 21 20  1  0
 22 21  1  0
 23 22  1  0
 24 23  1  1
 24 25  1  0
 25 14  1  0
 26 28  1  0
 26 24  1  0
 27 26  2  0
M  END
$$$$
