VER.pdb
     RDKit          3D

 28 27  0  0  1  0  0  0  0  0999 V2000
   19.6837  -18.0242  -16.9467 C   0  0  0  0  0  0  0  0  0  0  0  0
   21.1165  -17.7874  -17.2924 C   0  0  2  0  0  0  0  0  0  0  0  0
   21.9363  -18.9266  -16.6766 C   0  0  0  0  0  0  0  0  0  0  0  0
   21.6379  -16.4816  -16.7016 C   0  0  2  0  0  0  0  0  0  0  0  0
   21.5911  -16.5311  -15.2475 N   0  0  0  0  0  0  0  0  0  0  0  0
   20.8562  -15.3175  -17.1788 C   0  0  0  0  0  0  0  0  0  0  0  0
   20.7773  -15.0209  -18.3925 O   0  0  0  0  0  0  0  0  0  0  0  0
   20.1499  -14.4720  -16.2669 N   0  0  0  0  0  0  0  0  0  0  0  0
   19.3427  -13.3470  -16.6658 C   0  0  1  0  0  0  0  0  0  0  0  0
   18.0456  -13.3828  -15.9179 C   0  0  0  0  0  0  0  0  0  0  0  0
   17.1204  -14.4705  -16.3919 C   0  0  0  0  0  0  0  0  0  0  0  0
   15.8169  -14.4007  -15.6822 C   0  0  0  0  0  0  0  0  0  0  0  0
   15.6457  -13.4869  -14.8385 O   0  0  0  0  0  0  0  0  0  0  0  0
   20.0782  -12.0571  -16.4919 C   0  0  0  0  0  0  0  0  0  0  0  0
   20.8913  -11.9198  -15.5468 O   0  0  0  0  0  0  0  0  0  0  0  0
   14.7772  -15.2924  -15.9020 O   0  0  0  0  0  0  0  0  0  0  0  0
   20.4156   -7.9452  -23.7795 N   0  0  0  0  0  0  0  0  0  0  0  0
   19.1156   -8.1231  -23.2479 C   0  0  0  0  0  0  0  0  0  0  0  0
   18.0482   -8.0913  -23.9668 N   0  0  0  0  0  0  0  0  0  0  0  0
   18.9515   -8.3489  -21.8568 N   0  0  0  0  0  0  0  0  0  0  0  0
   20.0861   -8.6761  -20.9890 C   0  0  0  0  0  0  0  0  0  0  0  0
   19.6720   -8.8903  -19.5905 C   0  0  0  0  0  0  0  0  0  0  0  0
   20.7199   -9.2624  -18.6479 C   0  0  0  0  0  0  0  0  0  0  0  0
   20.5034   -9.6669  -17.2480 C   0  0  2  0  0  0  0  0  0  0  0  0
   19.8338  -11.0323  -17.3982 N   0  0  0  0  0  0  0  0  0  0  0  0
   19.5154   -8.9486  -16.4372 C   0  0  0  0  0  0  0  0  0  0  0  0
   18.3056   -9.3660  -16.4021 O   0  0  0  0  0  0  0  0  0  0  0  0
   19.7445   -7.8373  -15.6723 O   0  0  0  0  0  0  0  0  0  0  0  0
  2  1  1  1
  2  3  1  0
  4  2  1  0
  4  5  1  1
  6  7  2  0
  6  4  1  0
  8  6  1  0
  9  8  1  0
  9 10  1  1
 11 10  1  0
 12 11  1  0
 13 12  2  0
 14  9  1  0
 15 14  2  0
 16 12  1  0
 18 17  1  0
 19 18  2  0
 20 18  1  0
 21 20  1  0
 22 21  1  0
 23 22  1  0
 24 23  1  6
 24 25  1  0
 25 14  1  0
 26 28  1  0
 26 24  1  0
 27 26  2  0
M  END
$$$$
