VER.pdb
     RDKit          3D

 28 27  0  0  1  0  0  0  0  0999 V2000
   14.9829  -11.7759  -15.7368 C   0  0  0  0  0  0  0  0  0  0  0  0
   16.1102  -11.0009  -15.1392 C   0  0  2  0  0  0  0  0  0  0  0  0
   15.9063   -9.5273  -15.5078 C   0  0  0  0  0  0  0  0  0  0  0  0
   17.4602  -11.4284  -15.7055 C   0  0  2  0  0  0  0  0  0  0  0  0
   17.7526  -12.8041  -15.3295 N   0  0  0  0  0  0  0  0  0  0  0  0
   18.5528  -10.5472  -15.2328 C   0  0  0  0  0  0  0  0  0  0  0  0
   18.8810  -10.4821  -14.0265 O   0  0  0  0  0  0  0  0  0  0  0  0
   19.2891   -9.7234  -16.1410 N   0  0  0  0  0  0  0  0  0  0  0  0
   20.3586   -8.8413  -15.7482 C   0  0  1  0  0  0  0  0  0  0  0  0
   21.1463   -8.4532  -16.9615 C   0  0  0  0  0  0  0  0  0  0  0  0
   22.3163   -7.5614  -16.6457 C   0  0  0  0  0  0  0  0  0  0  0  0
   22.9966   -7.1227  -17.8916 C   0  0  0  0  0  0  0  0  0  0  0  0
   22.5308   -7.5073  -18.9923 O   0  0  0  0  0  0  0  0  0  0  0  0
   19.8434   -7.6615  -14.9883 C   0  0  0  0  0  0  0  0  0  0  0  0
   18.7314   -7.1612  -15.2825 O   0  0  0  0  0  0  0  0  0  0  0  0
   24.1207   -6.3099  -17.9043 O   0  0  0  0  0  0  0  0  0  0  0  0
   15.4153   -7.7166   -8.6674 N   0  0  0  0  0  0  0  0  0  0  0  0
   15.5450   -6.3118   -8.7843 C   0  0  0  0  0  0  0  0  0  0  0  0
   14.7730   -5.4785   -8.1786 N   0  0  0  0  0  0  0  0  0  0  0  0
   16.5676   -5.7675   -9.6035 N   0  0  0  0  0  0  0  0  0  0  0  0
   17.2966   -6.5875  -10.5748 C   0  0  0  0  0  0  0  0  0  0  0  0
   18.3022   -5.8063  -11.3175 C   0  0  0  0  0  0  0  0  0  0  0  0
   19.1326   -6.5410  -12.2640 C   0  0  0  0  0  0  0  0  0  0  0  0
   20.1599   -5.9473  -13.1370 C   0  0  2  0  0  0  0  0  0  0  0  0
   20.6260   -7.1463  -13.9619 N   0  0  0  0  0  0  0  0  0  0  0  0
   21.4242   -5.4911  -12.5513 C   0  0  0  0  0  0  0  0  0  0  0  0
   22.3750   -6.3296  -12.3731 O   0  0  0  0  0  0  0  0  0  0  0  0
   21.7255   -4.2147  -12.1607 O   0  0  0  0  0  0  0  0  0  0  0  0
  2  1  1  6
  2  3  1  0
  4  2  1  0
  4  5  1  1
  6  7  2  0
  6  4  1  0
  8  6  1  0
  9  8  1  0
  9 10  1  6
 11 10  1  0
 12 11  1  0
 13 12  2  0
 14  9  1  0
 15 14  2  0
 16 12  1  0
 18 17  1  0
 19 18  2  0
 20 18  1  0
 21 20  1  0
 22 21  1  0
 23 22  1  0
 24 23  1  1
 24 25  1  0
 25 14  1  0
 26 28  1  0
 26 24  1  0
 27 26  2  0
M  END
$$$$
