VER.pdb
     RDKit          3D

 28 27  0  0  1  0  0  0  0  0999 V2000
   26.5678  -23.1791  -16.2550 C   0  0  0  0  0  0  0  0  0  0  0  0
   26.2840  -24.6316  -16.0596 C   0  0  2  0  0  0  0  0  0  0  0  0
   27.0569  -25.4036  -17.1346 C   0  0  0  0  0  0  0  0  0  0  0  0
   24.8048  -24.9540  -16.2438 C   0  0  2  0  0  0  0  0  0  0  0  0
   24.3752  -24.6026  -17.5896 N   0  0  0  0  0  0  0  0  0  0  0  0
   23.9642  -24.2371  -15.2571 C   0  0  0  0  0  0  0  0  0  0  0  0
   24.0660  -24.4373  -14.0255 O   0  0  0  0  0  0  0  0  0  0  0  0
   22.9895  -23.2755  -15.6700 N   0  0  0  0  0  0  0  0  0  0  0  0
   22.0401  -22.6530  -14.7826 C   0  0  1  0  0  0  0  0  0  0  0  0
   21.9417  -21.1954  -15.1121 C   0  0  0  0  0  0  0  0  0  0  0  0
   20.9500  -20.4609  -14.2513 C   0  0  0  0  0  0  0  0  0  0  0  0
   20.8517  -19.0354  -14.6587 C   0  0  0  0  0  0  0  0  0  0  0  0
   20.4037  -18.7716  -15.8015 O   0  0  0  0  0  0  0  0  0  0  0  0
   20.7172  -23.3482  -14.8223 C   0  0  0  0  0  0  0  0  0  0  0  0
   20.2502  -23.7485  -15.9153 O   0  0  0  0  0  0  0  0  0  0  0  0
   21.2290  -17.9786  -13.8431 O   0  0  0  0  0  0  0  0  0  0  0  0
   20.6516  -28.1492   -9.7745 N   0  0  0  0  0  0  0  0  0  0  0  0
   19.6361  -28.8429  -10.4756 C   0  0  0  0  0  0  0  0  0  0  0  0
   19.7171  -30.0898  -10.7852 N   0  0  0  0  0  0  0  0  0  0  0  0
   18.4598  -28.1543  -10.8695 N   0  0  0  0  0  0  0  0  0  0  0  0
   18.2518  -26.7387  -10.5531 C   0  0  0  0  0  0  0  0  0  0  0  0
   17.8568  -25.9568  -11.7386 C   0  0  0  0  0  0  0  0  0  0  0  0
   18.8789  -25.1003  -12.3276 C   0  0  0  0  0  0  0  0  0  0  0  0
   18.7310  -24.3292  -13.5740 C   0  0  2  0  0  0  0  0  0  0  0  0
   20.0338  -23.5323  -13.6263 N   0  0  0  0  0  0  0  0  0  0  0  0
   17.7337  -23.2566  -13.6411 C   0  0  0  0  0  0  0  0  0  0  0  0
   16.6320  -23.4583  -14.2611 O   0  0  0  0  0  0  0  0  0  0  0  0
   17.8425  -22.0096  -13.0883 O   0  0  0  0  0  0  0  0  0  0  0  0
  2  1  1  6
  2  3  1  0
  4  2  1  0
  4  5  1  6
  6  7  2  0
  6  4  1  0
  8  6  1  0
  9  8  1  0
  9 10  1  6
 11 10  1  0
 12 11  1  0
 13 12  2  0
 14  9  1  0
 15 14  2  0
 16 12  1  0
 18 17  1  0
 19 18  2  0
 20 18  1  0
 21 20  1  0
 22 21  1  0
 23 22  1  0
 24 23  1  1
 24 25  1  0
 25 14  1  0
 26 28  1  0
 26 24  1  0
 27 26  2  0
M  END
$$$$
