VER.pdb
     RDKit          3D

 28 27  0  0  1  0  0  0  0  0999 V2000
   24.0469  -10.1415  -15.3701 C   0  0  0  0  0  0  0  0  0  0  0  0
   23.0187  -11.2225  -15.3172 C   0  0  2  0  0  0  0  0  0  0  0  0
   23.5073  -12.3709  -16.2069 C   0  0  0  0  0  0  0  0  0  0  0  0
   21.6748  -10.7596  -15.8700 C   0  0  2  0  0  0  0  0  0  0  0  0
   21.8055  -10.3916  -17.2724 N   0  0  0  0  0  0  0  0  0  0  0  0
   21.1400   -9.6077  -15.1077 C   0  0  0  0  0  0  0  0  0  0  0  0
   20.7848   -9.7082  -13.9115 O   0  0  0  0  0  0  0  0  0  0  0  0
   21.0038   -8.3172  -15.7088 N   0  0  0  0  0  0  0  0  0  0  0  0
   20.3681   -7.1911  -15.0728 C   0  0  1  0  0  0  0  0  0  0  0  0
   21.3908   -6.1260  -14.8228 C   0  0  0  0  0  0  0  0  0  0  0  0
   20.8375   -4.9377  -14.0841 C   0  0  0  0  0  0  0  0  0  0  0  0
   21.9123   -3.9575  -13.7812 C   0  0  0  0  0  0  0  0  0  0  0  0
   23.0972   -4.2683  -14.0561 O   0  0  0  0  0  0  0  0  0  0  0  0
   19.2012   -6.7008  -15.8683 C   0  0  0  0  0  0  0  0  0  0  0  0
   19.3469   -6.3981  -17.0767 O   0  0  0  0  0  0  0  0  0  0  0  0
   21.6765   -2.7155  -13.2101 O   0  0  0  0  0  0  0  0  0  0  0  0
   16.3322  -11.5362  -16.8086 N   0  0  0  0  0  0  0  0  0  0  0  0
   14.9513  -11.2987  -16.6069 C   0  0  0  0  0  0  0  0  0  0  0  0
   14.0442  -12.1887  -16.8127 N   0  0  0  0  0  0  0  0  0  0  0  0
   14.5169  -10.0254  -16.1565 N   0  0  0  0  0  0  0  0  0  0  0  0
   15.4645   -8.9489  -15.8553 C   0  0  0  0  0  0  0  0  0  0  0  0
   14.7868   -7.7296  -15.3787 C   0  0  0  0  0  0  0  0  0  0  0  0
   15.6318   -6.5699  -15.1211 C   0  0  0  0  0  0  0  0  0  0  0  0
   16.7314   -6.1071  -15.9851 C   0  0  2  0  0  0  0  0  0  0  0  0
   17.9697   -6.5933  -15.2331 N   0  0  0  0  0  0  0  0  0  0  0  0
   17.0047   -4.6707  -16.0928 C   0  0  0  0  0  0  0  0  0  0  0  0
   17.3707   -4.0192  -15.0533 O   0  0  0  0  0  0  0  0  0  0  0  0
   16.9179   -3.9093  -17.2264 O   0  0  0  0  0  0  0  0  0  0  0  0
  2  1  1  6
  2  3  1  0
  4  2  1  0
  4  5  1  6
  6  7  2  0
  6  4  1  0
  8  6  1  0
  9  8  1  0
  9 10  1  6
 11 10  1  0
 12 11  1  0
 13 12  2  0
 14  9  1  0
 15 14  2  0
 16 12  1  0
 18 17  1  0
 19 18  2  0
 20 18  1  0
 21 20  1  0
 22 21  1  0
 23 22  1  0
 24 23  1  1
 24 25  1  0
 25 14  1  0
 26 28  1  0
 26 24  1  0
 27 26  2  0
M  END
$$$$
