VER.pdb
     RDKit          3D

 28 27  0  0  1  0  0  0  0  0999 V2000
   12.4621  -16.8320    4.7626 C   0  0  0  0  0  0  0  0  0  0  0  0
   13.6366  -17.7387    4.5988 C   0  0  2  0  0  0  0  0  0  0  0  0
   13.6502  -18.6998    5.7925 C   0  0  0  0  0  0  0  0  0  0  0  0
   14.9555  -16.9732    4.6166 C   0  0  2  0  0  0  0  0  0  0  0  0
   15.0857  -16.1635    3.4138 N   0  0  0  0  0  0  0  0  0  0  0  0
   16.1153  -17.8887    4.7203 C   0  0  0  0  0  0  0  0  0  0  0  0
   16.4417  -18.6578    3.7881 O   0  0  0  0  0  0  0  0  0  0  0  0
   16.9219  -17.9361    5.9003 N   0  0  0  0  0  0  0  0  0  0  0  0
   18.0444  -18.8219    6.0783 C   0  0  1  0  0  0  0  0  0  0  0  0
   18.9799  -18.2330    7.0888 C   0  0  0  0  0  0  0  0  0  0  0  0
   20.2114  -19.0684    7.3110 C   0  0  0  0  0  0  0  0  0  0  0  0
   21.1499  -18.3880    8.2404 C   0  0  0  0  0  0  0  0  0  0  0  0
   20.8183  -17.2726    8.7116 O   0  0  0  0  0  0  0  0  0  0  0  0
   17.5994  -20.2039    6.4347 C   0  0  0  0  0  0  0  0  0  0  0  0
   16.6724  -20.3716    7.2628 O   0  0  0  0  0  0  0  0  0  0  0  0
   22.3749  -18.9198    8.6162 O   0  0  0  0  0  0  0  0  0  0  0  0
   13.5565  -26.8904    1.5844 N   0  0  0  0  0  0  0  0  0  0  0  0
   14.7223  -26.0948    1.6940 C   0  0  0  0  0  0  0  0  0  0  0  0
   15.4632  -25.7852    0.6878 N   0  0  0  0  0  0  0  0  0  0  0  0
   15.1177  -25.6010    2.9640 N   0  0  0  0  0  0  0  0  0  0  0  0
   16.1740  -24.5952    3.1061 C   0  0  0  0  0  0  0  0  0  0  0  0
   16.4587  -24.2847    4.5187 C   0  0  0  0  0  0  0  0  0  0  0  0
   17.3813  -23.1852    4.7736 C   0  0  0  0  0  0  0  0  0  0  0  0
   17.8031  -22.7170    6.1051 C   0  0  2  0  0  0  0  0  0  0  0  0
   18.2378  -21.2785    5.8274 N   0  0  0  0  0  0  0  0  0  0  0  0
   19.0167  -23.2733    6.7112 C   0  0  0  0  0  0  0  0  0  0  0  0
   20.1493  -22.7286    6.4676 O   0  0  0  0  0  0  0  0  0  0  0  0
   19.0853  -24.3514    7.5510 O   0  0  0  0  0  0  0  0  0  0  0  0
  2  1  1  1
  2  3  1  0
  4  2  1  0
  4  5  1  6
  6  7  2  0
  6  4  1  0
  8  6  1  0
  9  8  1  0
  9 10  1  1
 11 10  1  0
 12 11  1  0
 13 12  2  0
 14  9  1  0
 15 14  2  0
 16 12  1  0
 18 17  1  0
 19 18  2  0
 20 18  1  0
 21 20  1  0
 22 21  1  0
 23 22  1  0
 24 23  1  6
 24 25  1  0
 25 14  1  0
 26 28  1  0
 26 24  1  0
 27 26  2  0
M  END
$$$$
