VER.pdb
     RDKit          3D

 28 27  0  0  1  0  0  0  0  0999 V2000
   16.6041  -13.0372  -14.6441 C   0  0  0  0  0  0  0  0  0  0  0  0
   15.2079  -12.5234  -14.7673 C   0  0  2  0  0  0  0  0  0  0  0  0
   14.4346  -13.4938  -15.6670 C   0  0  0  0  0  0  0  0  0  0  0  0
   15.1610  -11.1518  -15.4324 C   0  0  2  0  0  0  0  0  0  0  0  0
   15.7757  -11.2087  -16.7508 N   0  0  0  0  0  0  0  0  0  0  0  0
   15.8480  -10.1260  -14.6140 C   0  0  0  0  0  0  0  0  0  0  0  0
   15.4364   -9.7946  -13.4792 O   0  0  0  0  0  0  0  0  0  0  0  0
   17.0227   -9.4616  -15.0873 N   0  0  0  0  0  0  0  0  0  0  0  0
   17.7453   -8.4642  -14.3393 C   0  0  1  0  0  0  0  0  0  0  0  0
   19.0880   -8.2548  -14.9688 C   0  0  0  0  0  0  0  0  0  0  0  0
   19.9269   -7.2363  -14.2457 C   0  0  0  0  0  0  0  0  0  0  0  0
   21.3127   -7.2183  -14.7811 C   0  0  0  0  0  0  0  0  0  0  0  0
   22.0069   -8.2589  -14.6734 O   0  0  0  0  0  0  0  0  0  0  0  0
   16.9590   -7.1990  -14.2133 C   0  0  0  0  0  0  0  0  0  0  0  0
   16.3535   -6.7336  -15.2083 O   0  0  0  0  0  0  0  0  0  0  0  0
   21.8819   -6.1118  -15.3944 O   0  0  0  0  0  0  0  0  0  0  0  0
   12.8882   -5.2070   -6.9017 N   0  0  0  0  0  0  0  0  0  0  0  0
   12.7371   -3.9815   -7.5941 C   0  0  0  0  0  0  0  0  0  0  0  0
   12.0692   -2.9846   -7.1279 N   0  0  0  0  0  0  0  0  0  0  0  0
   13.3408   -3.8162   -8.8674 N   0  0  0  0  0  0  0  0  0  0  0  0
   14.0193   -4.9218   -9.5491 C   0  0  0  0  0  0  0  0  0  0  0  0
   14.6132   -4.5028  -10.8315 C   0  0  0  0  0  0  0  0  0  0  0  0
   15.4626   -5.4755  -11.5078 C   0  0  0  0  0  0  0  0  0  0  0  0
   16.1680   -5.2521  -12.7815 C   0  0  2  0  0  0  0  0  0  0  0  0
   16.9229   -6.5665  -12.9764 N   0  0  0  0  0  0  0  0  0  0  0  0
   17.2637   -4.2795  -12.8350 C   0  0  0  0  0  0  0  0  0  0  0  0
   16.9946   -3.0319  -12.9347 O   0  0  0  0  0  0  0  0  0  0  0  0
   18.6022   -4.5589  -12.7814 O   0  0  0  0  0  0  0  0  0  0  0  0
  2  1  1  6
  2  3  1  0
  4  2  1  0
  4  5  1  6
  6  7  2  0
  6  4  1  0
  8  6  1  0
  9  8  1  0
  9 10  1  6
 11 10  1  0
 12 11  1  0
 13 12  2  0
 14  9  1  0
 15 14  2  0
 16 12  1  0
 18 17  1  0
 19 18  2  0
 20 18  1  0
 21 20  1  0
 22 21  1  0
 23 22  1  0
 24 23  1  1
 24 25  1  0
 25 14  1  0
 26 28  1  0
 26 24  1  0
 27 26  2  0
M  END
$$$$
