VER.pdb
     RDKit          3D

 28 27  0  0  1  0  0  0  0  0999 V2000
   26.6063  -21.9039  -10.7336 C   0  0  0  0  0  0  0  0  0  0  0  0
   26.1088  -20.6020  -10.1987 C   0  0  2  0  0  0  0  0  0  0  0  0
   25.9913  -20.7407   -8.6768 C   0  0  0  0  0  0  0  0  0  0  0  0
   24.7220  -20.2583  -10.7320 C   0  0  2  0  0  0  0  0  0  0  0  0
   23.7645  -21.2855  -10.3482 N   0  0  0  0  0  0  0  0  0  0  0  0
   24.7253  -20.1162  -12.2064 C   0  0  0  0  0  0  0  0  0  0  0  0
   25.4321  -19.2646  -12.7915 O   0  0  0  0  0  0  0  0  0  0  0  0
   23.9141  -20.9526  -13.0357 N   0  0  0  0  0  0  0  0  0  0  0  0
   23.8525  -20.8527  -14.4719 C   0  0  1  0  0  0  0  0  0  0  0  0
   24.1422  -22.1944  -15.0709 C   0  0  0  0  0  0  0  0  0  0  0  0
   25.5771  -22.6167  -14.9076 C   0  0  0  0  0  0  0  0  0  0  0  0
   26.4618  -21.8411  -15.8149 C   0  0  0  0  0  0  0  0  0  0  0  0
   27.2965  -21.0544  -15.3045 O   0  0  0  0  0  0  0  0  0  0  0  0
   22.5462  -20.2839  -14.9249 C   0  0  0  0  0  0  0  0  0  0  0  0
   21.5079  -20.4783  -14.2488 O   0  0  0  0  0  0  0  0  0  0  0  0
   26.4151  -21.9396  -17.1979 O   0  0  0  0  0  0  0  0  0  0  0  0
   18.6699  -17.0054  -20.3513 N   0  0  0  0  0  0  0  0  0  0  0  0
   19.2019  -15.7058  -20.5305 C   0  0  0  0  0  0  0  0  0  0  0  0
   18.5334  -14.7341  -21.0464 N   0  0  0  0  0  0  0  0  0  0  0  0
   20.5356  -15.4325  -20.1311 N   0  0  0  0  0  0  0  0  0  0  0  0
   21.3874  -16.4622  -19.5298 C   0  0  0  0  0  0  0  0  0  0  0  0
   20.9771  -16.7874  -18.1518 C   0  0  0  0  0  0  0  0  0  0  0  0
   21.7801  -17.7792  -17.4471 C   0  0  0  0  0  0  0  0  0  0  0  0
   21.2518  -18.8321  -16.5627 C   0  0  2  0  0  0  0  0  0  0  0  0
   22.5224  -19.5451  -16.1017 N   0  0  0  0  0  0  0  0  0  0  0  0
   20.4917  -19.9434  -17.1430 C   0  0  0  0  0  0  0  0  0  0  0  0
   21.0928  -21.0372  -17.4277 O   0  0  0  0  0  0  0  0  0  0  0  0
   19.1523  -19.9536  -17.4232 O   0  0  0  0  0  0  0  0  0  0  0  0
  2  1  1  6
  2  3  1  0
  4  2  1  0
  4  5  1  6
  6  7  2  0
  6  4  1  0
  8  6  1  0
  9  8  1  0
  9 10  1  6
 11 10  1  0
 12 11  1  0
 13 12  2  0
 14  9  1  0
 15 14  2  0
 16 12  1  0
 18 17  1  0
 19 18  2  0
 20 18  1  0
 21 20  1  0
 22 21  1  0
 23 22  1  0
 24 23  1  6
 24 25  1  0
 25 14  1  0
 26 28  1  0
 26 24  1  0
 27 26  2  0
M  END
$$$$
