VER.pdb
     RDKit          3D

 28 27  0  0  1  0  0  0  0  0999 V2000
   22.6322  -25.1647  -17.2070 C   0  0  0  0  0  0  0  0  0  0  0  0
   23.9158  -25.4069  -16.4842 C   0  0  2  0  0  0  0  0  0  0  0  0
   23.6533  -26.4780  -15.4197 C   0  0  0  0  0  0  0  0  0  0  0  0
   24.4077  -24.1579  -15.7604 C   0  0  2  0  0  0  0  0  0  0  0  0
   25.6237  -24.4518  -15.0159 N   0  0  0  0  0  0  0  0  0  0  0  0
   23.3816  -23.6252  -14.8346 C   0  0  0  0  0  0  0  0  0  0  0  0
   23.2124  -24.0951  -13.6867 O   0  0  0  0  0  0  0  0  0  0  0  0
   22.5301  -22.5403  -15.2132 N   0  0  0  0  0  0  0  0  0  0  0  0
   21.5160  -21.9722  -14.3617 C   0  0  1  0  0  0  0  0  0  0  0  0
   21.4686  -20.4905  -14.5748 C   0  0  0  0  0  0  0  0  0  0  0  0
   20.4738  -19.7972  -13.6840 C   0  0  0  0  0  0  0  0  0  0  0  0
   20.3817  -18.3528  -14.0200 C   0  0  0  0  0  0  0  0  0  0  0  0
   21.0924  -17.9121  -14.9564 O   0  0  0  0  0  0  0  0  0  0  0  0
   20.1914  -22.6322  -14.5734 C   0  0  0  0  0  0  0  0  0  0  0  0
   19.8202  -22.9393  -15.7314 O   0  0  0  0  0  0  0  0  0  0  0  0
   19.5512  -17.4635  -13.3536 O   0  0  0  0  0  0  0  0  0  0  0  0
   19.4601  -24.5289   -7.4601 N   0  0  0  0  0  0  0  0  0  0  0  0
   18.4251  -25.3932   -7.8912 C   0  0  0  0  0  0  0  0  0  0  0  0
   18.0457  -26.4277   -7.2256 N   0  0  0  0  0  0  0  0  0  0  0  0
   17.7557  -25.1304   -9.1143 N   0  0  0  0  0  0  0  0  0  0  0  0
   17.9954  -23.9021   -9.8767 C   0  0  0  0  0  0  0  0  0  0  0  0
   17.2368  -23.8758  -11.1404 C   0  0  0  0  0  0  0  0  0  0  0  0
   17.9388  -24.3308  -12.3342 C   0  0  0  0  0  0  0  0  0  0  0  0
   18.0437  -23.5829  -13.5989 C   0  0  2  0  0  0  0  0  0  0  0  0
   19.3984  -22.8892  -13.4614 N   0  0  0  0  0  0  0  0  0  0  0  0
   17.1565  -22.4394  -13.8331 C   0  0  0  0  0  0  0  0  0  0  0  0
   17.5240  -21.2704  -13.4628 O   0  0  0  0  0  0  0  0  0  0  0  0
   15.9280  -22.4735  -14.4349 O   0  0  0  0  0  0  0  0  0  0  0  0
  2  1  1  1
  2  3  1  0
  4  2  1  0
  4  5  1  1
  6  7  2  0
  6  4  1  0
  8  6  1  0
  9  8  1  0
  9 10  1  6
 11 10  1  0
 12 11  1  0
 13 12  2  0
 14  9  1  0
 15 14  2  0
 16 12  1  0
 18 17  1  0
 19 18  2  0
 20 18  1  0
 21 20  1  0
 22 21  1  0
 23 22  1  0
 24 23  1  1
 24 25  1  0
 25 14  1  0
 26 28  1  0
 26 24  1  0
 27 26  2  0
M  END
$$$$
