VER.pdb
     RDKit          3D

 28 27  0  0  1  0  0  0  0  0999 V2000
   25.4234  -19.9044  -15.4926 C   0  0  0  0  0  0  0  0  0  0  0  0
   25.6067  -21.2867  -14.9596 C   0  0  2  0  0  0  0  0  0  0  0  0
   26.7026  -21.9625  -15.7911 C   0  0  0  0  0  0  0  0  0  0  0  0
   24.3424  -22.1270  -15.1055 C   0  0  2  0  0  0  0  0  0  0  0  0
   23.9504  -22.2108  -16.5050 N   0  0  0  0  0  0  0  0  0  0  0  0
   23.2222  -21.5674  -14.3143 C   0  0  0  0  0  0  0  0  0  0  0  0
   23.2542  -21.5088  -13.0642 O   0  0  0  0  0  0  0  0  0  0  0  0
   22.0430  -21.0643  -14.9480 N   0  0  0  0  0  0  0  0  0  0  0  0
   20.8917  -20.5676  -14.2378 C   0  0  1  0  0  0  0  0  0  0  0  0
   20.3687  -19.3518  -14.9387 C   0  0  0  0  0  0  0  0  0  0  0  0
   21.0388  -18.0799  -14.4946 C   0  0  0  0  0  0  0  0  0  0  0  0
   20.4868  -16.9098  -15.2251 C   0  0  0  0  0  0  0  0  0  0  0  0
   19.6047  -17.1123  -16.0953 O   0  0  0  0  0  0  0  0  0  0  0  0
   19.8545  -21.6304  -14.0661 C   0  0  0  0  0  0  0  0  0  0  0  0
   19.6029  -22.4208  -15.0069 O   0  0  0  0  0  0  0  0  0  0  0  0
   20.8941  -15.6035  -14.9970 O   0  0  0  0  0  0  0  0  0  0  0  0
   19.2770  -24.4271   -7.5022 N   0  0  0  0  0  0  0  0  0  0  0  0
   18.3588  -25.4921   -7.6664 C   0  0  0  0  0  0  0  0  0  0  0  0
   17.6426  -25.9615   -6.7052 N   0  0  0  0  0  0  0  0  0  0  0  0
   18.2002  -26.0911   -8.9427 N   0  0  0  0  0  0  0  0  0  0  0  0
   18.9466  -25.6221  -10.1133 C   0  0  0  0  0  0  0  0  0  0  0  0
   18.1066  -24.8237  -11.0243 C   0  0  0  0  0  0  0  0  0  0  0  0
   18.7040  -23.6116  -11.5713 C   0  0  0  0  0  0  0  0  0  0  0  0
   18.1015  -22.7571  -12.6089 C   0  0  2  0  0  0  0  0  0  0  0  0
   19.1895  -21.7110  -12.8485 N   0  0  0  0  0  0  0  0  0  0  0  0
   16.9562  -21.9087  -12.2652 C   0  0  0  0  0  0  0  0  0  0  0  0
   17.1593  -20.7242  -11.8241 O   0  0  0  0  0  0  0  0  0  0  0  0
   15.6342  -22.2454  -12.3714 O   0  0  0  0  0  0  0  0  0  0  0  0
  2  1  1  6
  2  3  1  0
  4  2  1  0
  4  5  1  6
  6  7  2  0
  6  4  1  0
  8  6  1  0
  9  8  1  0
  9 10  1  6
 11 10  1  0
 12 11  1  0
 13 12  2  0
 14  9  1  0
 15 14  2  0
 16 12  1  0
 18 17  1  0
 19 18  2  0
 20 18  1  0
 21 20  1  0
 22 21  1  0
 23 22  1  0
 24 23  1  1
 24 25  1  0
 25 14  1  0
 26 28  1  0
 26 24  1  0
 27 26  2  0
M  END
$$$$
