VER.pdb
     RDKit          3D

 28 27  0  0  1  0  0  0  0  0999 V2000
   24.8356  -18.3856  -14.8647 C   0  0  0  0  0  0  0  0  0  0  0  0
   24.2512  -19.0482  -16.0680 C   0  0  2  0  0  0  0  0  0  0  0  0
   23.2795  -18.0565  -16.7172 C   0  0  0  0  0  0  0  0  0  0  0  0
   23.4516  -20.2941  -15.7016 C   0  0  2  0  0  0  0  0  0  0  0  0
   22.9532  -20.9459  -16.9042 N   0  0  0  0  0  0  0  0  0  0  0  0
   22.3132  -19.9685  -14.8117 C   0  0  0  0  0  0  0  0  0  0  0  0
   22.4794  -19.5801  -13.6333 O   0  0  0  0  0  0  0  0  0  0  0  0
   20.9607  -20.0842  -15.2620 N   0  0  0  0  0  0  0  0  0  0  0  0
   19.8081  -19.9137  -14.4143 C   0  0  1  0  0  0  0  0  0  0  0  0
   18.8519  -18.9654  -15.0696 C   0  0  0  0  0  0  0  0  0  0  0  0
   17.6082  -18.7254  -14.2575 C   0  0  0  0  0  0  0  0  0  0  0  0
   16.6445  -17.8779  -15.0063 C   0  0  0  0  0  0  0  0  0  0  0  0
   16.5217  -16.6748  -14.6694 O   0  0  0  0  0  0  0  0  0  0  0  0
   19.1813  -21.2272  -14.0727 C   0  0  0  0  0  0  0  0  0  0  0  0
   19.1108  -22.1335  -14.9369 O   0  0  0  0  0  0  0  0  0  0  0  0
   15.8718  -18.3453  -16.0594 O   0  0  0  0  0  0  0  0  0  0  0  0
   18.1927  -24.7531   -6.1212 N   0  0  0  0  0  0  0  0  0  0  0  0
   18.4955  -25.8441   -6.9710 C   0  0  0  0  0  0  0  0  0  0  0  0
   18.5909  -27.0584   -6.5544 N   0  0  0  0  0  0  0  0  0  0  0  0
   18.7098  -25.6168   -8.3550 N   0  0  0  0  0  0  0  0  0  0  0  0
   18.5867  -24.2815   -8.9459 C   0  0  0  0  0  0  0  0  0  0  0  0
   18.8796  -24.2842  -10.3906 C   0  0  0  0  0  0  0  0  0  0  0  0
   18.8074  -22.9991  -11.0750 C   0  0  0  0  0  0  0  0  0  0  0  0
   18.1017  -22.7467  -12.3431 C   0  0  2  0  0  0  0  0  0  0  0  0
   18.6872  -21.4065  -12.7862 N   0  0  0  0  0  0  0  0  0  0  0  0
   16.6679  -22.4413  -12.3190 C   0  0  0  0  0  0  0  0  0  0  0  0
   16.2834  -21.2368  -12.1180 O   0  0  0  0  0  0  0  0  0  0  0  0
   15.6440  -23.3306  -12.5012 O   0  0  0  0  0  0  0  0  0  0  0  0
  2  1  1  1
  2  3  1  0
  4  2  1  0
  4  5  1  6
  6  7  2  0
  6  4  1  0
  8  6  1  0
  9  8  1  0
  9 10  1  6
 11 10  1  0
 12 11  1  0
 13 12  2  0
 14  9  1  0
 15 14  2  0
 16 12  1  0
 18 17  1  0
 19 18  2  0
 20 18  1  0
 21 20  1  0
 22 21  1  0
 23 22  1  0
 24 23  1  1
 24 25  1  0
 25 14  1  0
 26 28  1  0
 26 24  1  0
 27 26  2  0
M  END
$$$$
