MYF.pdb
     RDKit          3D

 32 33  0  0  1  0  0  0  0  0999 V2000
   24.2932  -15.5810  -19.0328 C   0  0  0  0  0  0  0  0  0  0  0  0
   25.1721  -14.9798  -17.5804 S   0  0  0  0  0  0  0  0  0  0  0  0
   26.2129  -16.2809  -16.8850 C   0  0  0  0  0  0  0  0  0  0  0  0
   25.3339  -17.5126  -16.6622 C   0  0  0  0  0  0  0  0  0  0  0  0
   26.1996  -18.5916  -16.0530 C   0  0  2  0  0  0  0  0  0  0  0  0
   27.4026  -18.7459  -16.8587 N   0  0  0  0  0  0  0  0  0  0  0  0
   25.4283  -19.8446  -15.9858 C   0  0  0  0  0  0  0  0  0  0  0  0
   24.1895  -19.7778  -16.1764 O   0  0  0  0  0  0  0  0  0  0  0  0
   23.4351  -28.4312  -17.0594 O   0  0  0  0  0  0  0  0  0  0  0  0
   24.0848  -27.2112  -16.8515 C   0  0  0  0  0  0  0  0  0  0  0  0
   24.8479  -26.9715  -15.7302 C   0  0  0  0  0  0  0  0  0  0  0  0
   25.4780  -25.7612  -15.5482 C   0  0  0  0  0  0  0  0  0  0  0  0
   25.3815  -24.7186  -16.4786 C   0  0  0  0  0  0  0  0  0  0  0  0
   26.0241  -23.4255  -16.2675 C   0  0  0  0  0  0  0  0  0  0  0  0
   25.2277  -22.3415  -15.6530 C   0  0  2  0  0  0  0  0  0  0  0  0
   26.0242  -21.0855  -15.7203 N   0  0  0  0  0  0  0  0  0  0  0  0
   24.8416  -22.4654  -14.2572 C   0  0  0  0  0  0  0  0  0  0  0  0
   24.0833  -23.3781  -13.8099 O   0  0  0  0  0  0  0  0  0  0  0  0
   24.6111  -24.9885  -17.5901 C   0  0  0  0  0  0  0  0  0  0  0  0
   23.9776  -26.1991  -17.7775 C   0  0  0  0  0  0  0  0  0  0  0  0
   25.3128  -21.5443  -13.2861 N   0  0  0  0  0  0  0  0  0  0  0  0
   24.9118  -21.6674  -11.8866 C   0  0  1  0  0  0  0  0  0  0  0  0
   26.1917  -21.6445  -11.0763 C   0  0  0  0  0  0  0  0  0  0  0  0
   26.1236  -20.7576   -9.8917 C   0  0  0  0  0  0  0  0  0  0  0  0
   25.9127  -19.3835  -10.0184 C   0  0  0  0  0  0  0  0  0  0  0  0
   25.8393  -18.5484   -8.9236 C   0  0  0  0  0  0  0  0  0  0  0  0
   25.9742  -19.0518   -7.6465 C   0  0  0  0  0  0  0  0  0  0  0  0
   26.1821  -20.4023   -7.5075 C   0  0  0  0  0  0  0  0  0  0  0  0
   26.2545  -21.2312   -8.6033 C   0  0  0  0  0  0  0  0  0  0  0  0
   23.9051  -20.7052  -11.4586 C   0  0  0  0  0  0  0  0  0  0  0  0
   23.1826  -20.7203  -10.2907 O   0  0  0  0  0  0  0  0  0  0  0  0
   23.6530  -19.7283  -12.2495 O   0  0  0  0  0  0  0  0  0  0  0  0
  1  2  1  0
  3  2  1  0
  4  3  1  0
  5  6  1  6
  5  4  1  0
  7  5  1  0
  7  8  2  0
  9 10  1  0
 10 20  2  0
 10 11  1  0
 11 12  2  0
 12 13  1  0
 13 14  1  0
 15 14  1  1
 15 17  1  0
 15 16  1  0
 16  7  1  0
 17 18  2  0
 19 13  2  0
 20 19  1  0
 21 22  1  0
 21 17  1  0
 22 30  1  0
 22 23  1  1
 24 29  1  0
 24 23  1  0
 25 24  2  0
 26 27  2  0
 26 25  1  0
 27 28  1  0
 28 29  2  0
 30 32  2  0
 30 31  1  0
M  END
$$$$
