MYF.pdb
     RDKit          3D

 32 33  0  0  1  0  0  0  0  0999 V2000
   26.5812  -17.5216  -20.0720 C   0  0  0  0  0  0  0  0  0  0  0  0
   27.5096  -18.7115  -21.0545 S   0  0  0  0  0  0  0  0  0  0  0  0
   28.4756  -19.8002  -19.9862 C   0  0  0  0  0  0  0  0  0  0  0  0
   27.6635  -20.0461  -18.7136 C   0  0  0  0  0  0  0  0  0  0  0  0
   28.5324  -20.8310  -17.7578 C   0  0  2  0  0  0  0  0  0  0  0  0
   29.0031  -22.0365  -18.4253 N   0  0  0  0  0  0  0  0  0  0  0  0
   27.7509  -21.1502  -16.5508 C   0  0  0  0  0  0  0  0  0  0  0  0
   27.0248  -22.1737  -16.5800 O   0  0  0  0  0  0  0  0  0  0  0  0
   25.0077  -20.6025   -7.9655 O   0  0  0  0  0  0  0  0  0  0  0  0
   25.6483  -20.5231   -9.2053 C   0  0  0  0  0  0  0  0  0  0  0  0
   26.2274  -21.6220   -9.8003 C   0  0  0  0  0  0  0  0  0  0  0  0
   26.8528  -21.5182  -11.0222 C   0  0  0  0  0  0  0  0  0  0  0  0
   26.9354  -20.3073  -11.7213 C   0  0  0  0  0  0  0  0  0  0  0  0
   27.6270  -20.1935  -13.0013 C   0  0  0  0  0  0  0  0  0  0  0  0
   26.9182  -20.6391  -14.2204 C   0  0  2  0  0  0  0  0  0  0  0  0
   27.7926  -20.3611  -15.3929 N   0  0  0  0  0  0  0  0  0  0  0  0
   25.6434  -20.0235  -14.5500 C   0  0  0  0  0  0  0  0  0  0  0  0
   25.5052  -18.8012  -14.8584 O   0  0  0  0  0  0  0  0  0  0  0  0
   26.3466  -19.2257  -11.1006 C   0  0  0  0  0  0  0  0  0  0  0  0
   25.7189  -19.3241   -9.8765 C   0  0  0  0  0  0  0  0  0  0  0  0
   24.4453  -20.7839  -14.5503 N   0  0  0  0  0  0  0  0  0  0  0  0
   23.1713  -20.1663  -14.1900 C   0  0  1  0  0  0  0  0  0  0  0  0
   22.3434  -20.1335  -15.4583 C   0  0  0  0  0  0  0  0  0  0  0  0
   22.8994  -19.2415  -16.5022 C   0  0  0  0  0  0  0  0  0  0  0  0
   23.7145  -19.7313  -17.5241 C   0  0  0  0  0  0  0  0  0  0  0  0
   24.2317  -18.9131  -18.5061 C   0  0  0  0  0  0  0  0  0  0  0  0
   23.9560  -17.5616  -18.5108 C   0  0  0  0  0  0  0  0  0  0  0  0
   23.1552  -17.0663  -17.5110 C   0  0  0  0  0  0  0  0  0  0  0  0
   22.6416  -17.8872  -16.5335 C   0  0  0  0  0  0  0  0  0  0  0  0
   22.5056  -20.7754  -13.0462 C   0  0  0  0  0  0  0  0  0  0  0  0
   22.8936  -21.8992  -12.3586 O   0  0  0  0  0  0  0  0  0  0  0  0
   21.4356  -20.2117  -12.6210 O   0  0  0  0  0  0  0  0  0  0  0  0
  1  2  1  0
  3  2  1  0
  4  3  1  0
  5  6  1  6
  5  4  1  0
  7  5  1  0
  7  8  2  0
  9 10  1  0
 10 20  2  0
 10 11  1  0
 11 12  2  0
 12 13  1  0
 13 14  1  0
 15 14  1  1
 15 17  1  0
 15 16  1  0
 16  7  1  0
 17 18  2  0
 19 13  2  0
 20 19  1  0
 21 22  1  0
 21 17  1  0
 22 30  1  0
 22 23  1  6
 24 29  1  0
 24 23  1  0
 25 24  2  0
 26 27  2  0
 26 25  1  0
 27 28  1  0
 28 29  2  0
 30 32  2  0
 30 31  1  0
M  END
$$$$
