MYF.pdb
     RDKit          3D

 32 33  0  0  1  0  0  0  0  0999 V2000
   23.9491  -18.4891  -18.1014 C   0  0  0  0  0  0  0  0  0  0  0  0
   24.9860  -19.3555  -19.2918 S   0  0  0  0  0  0  0  0  0  0  0  0
   26.0096  -20.5896  -18.4618 C   0  0  0  0  0  0  0  0  0  0  0  0
   25.4722  -20.7620  -17.0402 C   0  0  0  0  0  0  0  0  0  0  0  0
   26.4594  -21.6134  -16.2753 C   0  0  2  0  0  0  0  0  0  0  0  0
   26.5640  -22.9145  -16.9207 N   0  0  0  0  0  0  0  0  0  0  0  0
   26.0063  -21.7363  -14.8791 C   0  0  0  0  0  0  0  0  0  0  0  0
   25.1583  -22.6240  -14.6173 O   0  0  0  0  0  0  0  0  0  0  0  0
   25.8764  -20.4746   -5.9771 O   0  0  0  0  0  0  0  0  0  0  0  0
   26.1706  -20.4655   -7.3435 C   0  0  0  0  0  0  0  0  0  0  0  0
   26.3983  -19.2959   -8.0343 C   0  0  0  0  0  0  0  0  0  0  0  0
   26.6863  -19.3132   -9.3803 C   0  0  0  0  0  0  0  0  0  0  0  0
   26.7635  -20.5032  -10.1149 C   0  0  0  0  0  0  0  0  0  0  0  0
   27.0371  -20.5164  -11.5483 C   0  0  0  0  0  0  0  0  0  0  0  0
   25.9837  -21.0195  -12.4561 C   0  0  2  0  0  0  0  0  0  0  0  0
   26.4840  -20.9081  -13.8539 N   0  0  0  0  0  0  0  0  0  0  0  0
   24.6936  -20.3500  -12.4659 C   0  0  0  0  0  0  0  0  0  0  0  0
   24.5376  -19.1155  -12.7107 O   0  0  0  0  0  0  0  0  0  0  0  0
   26.5309  -21.6570   -9.3962 C   0  0  0  0  0  0  0  0  0  0  0  0
   26.2419  -21.6455   -8.0477 C   0  0  0  0  0  0  0  0  0  0  0  0
   23.4984  -21.0668  -12.1990 N   0  0  0  0  0  0  0  0  0  0  0  0
   22.2245  -20.3651  -12.0598 C   0  0  1  0  0  0  0  0  0  0  0  0
   22.0418  -19.5636  -13.3324 C   0  0  0  0  0  0  0  0  0  0  0  0
   21.6056  -20.3824  -14.4873 C   0  0  0  0  0  0  0  0  0  0  0  0
   20.3050  -20.8807  -14.5805 C   0  0  0  0  0  0  0  0  0  0  0  0
   19.8842  -21.6372  -15.6537 C   0  0  0  0  0  0  0  0  0  0  0  0
   20.7489  -21.9313  -16.6873 C   0  0  0  0  0  0  0  0  0  0  0  0
   22.0318  -21.4472  -16.6083 C   0  0  0  0  0  0  0  0  0  0  0  0
   22.4466  -20.6927  -15.5351 C   0  0  0  0  0  0  0  0  0  0  0  0
   21.0970  -21.2205  -11.7141 C   0  0  0  0  0  0  0  0  0  0  0  0
   21.1036  -22.5854  -11.5622 O   0  0  0  0  0  0  0  0  0  0  0  0
   19.9638  -20.6511  -11.5274 O   0  0  0  0  0  0  0  0  0  0  0  0
  1  2  1  0
  3  2  1  0
  4  3  1  0
  5  6  1  6
  5  4  1  0
  7  5  1  0
  7  8  2  0
  9 10  1  0
 10 20  2  0
 10 11  1  0
 11 12  2  0
 12 13  1  0
 13 14  1  0
 15 14  1  1
 15 17  1  0
 15 16  1  0
 16  7  1  0
 17 18  2  0
 19 13  2  0
 20 19  1  0
 21 22  1  0
 21 17  1  0
 22 30  1  0
 22 23  1  6
 24 29  1  0
 24 23  1  0
 25 24  2  0
 26 27  2  0
 26 25  1  0
 27 28  1  0
 28 29  2  0
 30 32  2  0
 30 31  1  0
M  END
$$$$
