MYF.pdb
     RDKit          3D

 32 33  0  0  1  0  0  0  0  0999 V2000
   29.3921  -18.7089  -14.9561 C   0  0  0  0  0  0  0  0  0  0  0  0
   29.8220  -18.5694  -16.6993 S   0  0  0  0  0  0  0  0  0  0  0  0
   29.1060  -17.0728  -17.4116 C   0  0  0  0  0  0  0  0  0  0  0  0
   27.6370  -17.0120  -16.9902 C   0  0  0  0  0  0  0  0  0  0  0  0
   26.8441  -17.8550  -17.9624 C   0  0  2  0  0  0  0  0  0  0  0  0
   26.5173  -17.0504  -19.1312 N   0  0  0  0  0  0  0  0  0  0  0  0
   25.6311  -18.3505  -17.2896 C   0  0  0  0  0  0  0  0  0  0  0  0
   24.7188  -17.5228  -17.0483 O   0  0  0  0  0  0  0  0  0  0  0  0
   19.7558  -18.8498  -20.8309 O   0  0  0  0  0  0  0  0  0  0  0  0
   20.6729  -19.4174  -19.9420 C   0  0  0  0  0  0  0  0  0  0  0  0
   20.2716  -20.1097  -18.8210 C   0  0  0  0  0  0  0  0  0  0  0  0
   21.1945  -20.6597  -17.9604 C   0  0  0  0  0  0  0  0  0  0  0  0
   22.5748  -20.5492  -18.1712 C   0  0  0  0  0  0  0  0  0  0  0  0
   23.5512  -21.1055  -17.2401 C   0  0  0  0  0  0  0  0  0  0  0  0
   24.2120  -20.1862  -16.2888 C   0  0  2  0  0  0  0  0  0  0  0  0
   25.4678  -19.6922  -16.9176 N   0  0  0  0  0  0  0  0  0  0  0  0
   24.6199  -20.7000  -14.9918 C   0  0  0  0  0  0  0  0  0  0  0  0
   25.7249  -21.2837  -14.7763 O   0  0  0  0  0  0  0  0  0  0  0  0
   22.9455  -19.8509  -19.3012 C   0  0  0  0  0  0  0  0  0  0  0  0
   22.0252  -19.2978  -20.1667 C   0  0  0  0  0  0  0  0  0  0  0  0
   23.7781  -20.5666  -13.8573 N   0  0  0  0  0  0  0  0  0  0  0  0
   24.2618  -20.9215  -12.5252 C   0  0  1  0  0  0  0  0  0  0  0  0
   25.5011  -20.0831  -12.2878 C   0  0  0  0  0  0  0  0  0  0  0  0
   25.9728  -20.1127  -10.8838 C   0  0  0  0  0  0  0  0  0  0  0  0
   25.2675  -19.4745   -9.8621 C   0  0  0  0  0  0  0  0  0  0  0  0
   25.6915  -19.5012   -8.5503 C   0  0  0  0  0  0  0  0  0  0  0  0
   26.8453  -20.1704   -8.1990 C   0  0  0  0  0  0  0  0  0  0  0  0
   27.5490  -20.8028   -9.1946 C   0  0  0  0  0  0  0  0  0  0  0  0
   27.1215  -20.7730  -10.5021 C   0  0  0  0  0  0  0  0  0  0  0  0
   23.2579  -20.8323  -11.4731 C   0  0  0  0  0  0  0  0  0  0  0  0
   22.4022  -19.7870  -11.2257 O   0  0  0  0  0  0  0  0  0  0  0  0
   23.1480  -21.8335  -10.6801 O   0  0  0  0  0  0  0  0  0  0  0  0
  1  2  1  0
  3  2  1  0
  4  3  1  0
  5  6  1  6
  5  4  1  0
  7  5  1  0
  7  8  2  0
  9 10  1  0
 10 20  2  0
 10 11  1  0
 11 12  2  0
 12 13  1  0
 13 14  1  0
 15 14  1  6
 15 17  1  0
 15 16  1  0
 16  7  1  0
 17 18  2  0
 19 13  2  0
 20 19  1  0
 21 22  1  0
 21 17  1  0
 22 30  1  0
 22 23  1  1
 24 29  1  0
 24 23  1  0
 25 24  2  0
 26 27  2  0
 26 25  1  0
 27 28  1  0
 28 29  2  0
 30 32  2  0
 30 31  1  0
M  END
$$$$
