MYF.pdb
     RDKit          3D

 32 33  0  0  1  0  0  0  0  0999 V2000
   20.8078  -15.2162  -21.3871 C   0  0  0  0  0  0  0  0  0  0  0  0
   20.5336  -14.5506  -23.0378 S   0  0  0  0  0  0  0  0  0  0  0  0
   21.6903  -13.2073  -23.3804 C   0  0  0  0  0  0  0  0  0  0  0  0
   21.8409  -12.3833  -22.1007 C   0  0  0  0  0  0  0  0  0  0  0  0
   22.8025  -11.2539  -22.3911 C   0  0  2  0  0  0  0  0  0  0  0  0
   24.1466  -11.7976  -22.5249 N   0  0  0  0  0  0  0  0  0  0  0  0
   22.7241  -10.2649  -21.3024 C   0  0  0  0  0  0  0  0  0  0  0  0
   23.7096  -10.1674  -20.5311 O   0  0  0  0  0  0  0  0  0  0  0  0
   19.9595   -2.7803  -17.1323 O   0  0  0  0  0  0  0  0  0  0  0  0
   20.2449   -3.8552  -17.9789 C   0  0  0  0  0  0  0  0  0  0  0  0
   21.4798   -4.0135  -18.5680 C   0  0  0  0  0  0  0  0  0  0  0  0
   21.7364   -5.0810  -19.3985 C   0  0  0  0  0  0  0  0  0  0  0  0
   20.7713   -6.0538  -19.6885 C   0  0  0  0  0  0  0  0  0  0  0  0
   21.0362   -7.1666  -20.5947 C   0  0  0  0  0  0  0  0  0  0  0  0
   21.5572   -8.4261  -20.0209 C   0  0  2  0  0  0  0  0  0  0  0  0
   21.6041   -9.4452  -21.1052 N   0  0  0  0  0  0  0  0  0  0  0  0
   20.8163   -9.0602  -18.9431 C   0  0  0  0  0  0  0  0  0  0  0  0
   19.8554   -9.8679  -19.1231 O   0  0  0  0  0  0  0  0  0  0  0  0
   19.5457   -5.8683  -19.0842 C   0  0  0  0  0  0  0  0  0  0  0  0
   19.2831   -4.8007  -18.2515 C   0  0  0  0  0  0  0  0  0  0  0  0
   21.1430   -8.8059  -17.5858 N   0  0  0  0  0  0  0  0  0  0  0  0
   20.3700   -9.4162  -16.5068 C   0  0  1  0  0  0  0  0  0  0  0  0
   21.3461   -9.6639  -15.3749 C   0  0  0  0  0  0  0  0  0  0  0  0
   21.5702   -8.4756  -14.5192 C   0  0  0  0  0  0  0  0  0  0  0  0
   21.1382   -8.4383  -13.1924 C   0  0  0  0  0  0  0  0  0  0  0  0
   21.3476   -7.3417  -12.3831 C   0  0  0  0  0  0  0  0  0  0  0  0
   22.0016   -6.2275  -12.8662 C   0  0  0  0  0  0  0  0  0  0  0  0
   22.4321   -6.2509  -14.1702 C   0  0  0  0  0  0  0  0  0  0  0  0
   22.2205   -7.3477  -14.9734 C   0  0  0  0  0  0  0  0  0  0  0  0
   19.1739   -8.6767  -16.1260 C   0  0  0  0  0  0  0  0  0  0  0  0
   18.1625   -9.0989  -15.2983 O   0  0  0  0  0  0  0  0  0  0  0  0
   19.0340   -7.4976  -16.6093 O   0  0  0  0  0  0  0  0  0  0  0  0
  1  2  1  0
  3  2  1  0
  4  3  1  0
  5  6  1  1
  5  4  1  0
  7  5  1  0
  7  8  2  0
  9 10  1  0
 10 20  2  0
 10 11  1  0
 11 12  2  0
 12 13  1  0
 13 14  1  0
 15 14  1  6
 15 17  1  0
 15 16  1  0
 16  7  1  0
 17 18  2  0
 19 13  2  0
 20 19  1  0
 21 22  1  0
 21 17  1  0
 22 30  1  0
 22 23  1  1
 24 29  1  0
 24 23  1  0
 25 24  2  0
 26 27  2  0
 26 25  1  0
 27 28  1  0
 28 29  2  0
 30 32  2  0
 30 31  1  0
M  END
$$$$
