MYF.pdb
     RDKit          3D

 32 33  0  0  1  0  0  0  0  0999 V2000
   27.8641  -12.5757  -15.2444 C   0  0  0  0  0  0  0  0  0  0  0  0
   26.3825  -11.5751  -15.4603 S   0  0  0  0  0  0  0  0  0  0  0  0
   26.4787  -10.6207  -16.9899 C   0  0  0  0  0  0  0  0  0  0  0  0
   25.2048   -9.7810  -17.0971 C   0  0  0  0  0  0  0  0  0  0  0  0
   24.0260  -10.7260  -17.0551 C   0  0  2  0  0  0  0  0  0  0  0  0
   24.0237  -11.5359  -18.2652 N   0  0  0  0  0  0  0  0  0  0  0  0
   22.7862   -9.9412  -16.9263 C   0  0  0  0  0  0  0  0  0  0  0  0
   22.1871   -9.6200  -17.9816 O   0  0  0  0  0  0  0  0  0  0  0  0
   17.5799  -14.2498  -17.2182 O   0  0  0  0  0  0  0  0  0  0  0  0
   18.1773  -13.1433  -16.6079 C   0  0  0  0  0  0  0  0  0  0  0  0
   17.8204  -11.8518  -16.9265 C   0  0  0  0  0  0  0  0  0  0  0  0
   18.4237  -10.7783  -16.3113 C   0  0  0  0  0  0  0  0  0  0  0  0
   19.4207  -10.9343  -15.3399 C   0  0  0  0  0  0  0  0  0  0  0  0
   20.0812   -9.7941  -14.7128 C   0  0  0  0  0  0  0  0  0  0  0  0
   20.9215   -8.9206  -15.5601 C   0  0  2  0  0  0  0  0  0  0  0  0
   22.2651   -9.5496  -15.6852 N   0  0  0  0  0  0  0  0  0  0  0  0
   21.1843   -7.5619  -15.1157 C   0  0  0  0  0  0  0  0  0  0  0  0
   21.8189   -7.2728  -14.0565 O   0  0  0  0  0  0  0  0  0  0  0  0
   19.7562  -12.2384  -15.0423 C   0  0  0  0  0  0  0  0  0  0  0  0
   19.1551  -13.3175  -15.6557 C   0  0  0  0  0  0  0  0  0  0  0  0
   20.7350   -6.4481  -15.8715 N   0  0  0  0  0  0  0  0  0  0  0  0
   20.8905   -5.0888  -15.3589 C   0  0  1  0  0  0  0  0  0  0  0  0
   21.6269   -4.3137  -16.4323 C   0  0  0  0  0  0  0  0  0  0  0  0
   23.0139   -4.7850  -16.6531 C   0  0  0  0  0  0  0  0  0  0  0  0
   24.0809   -4.2965  -15.8971 C   0  0  0  0  0  0  0  0  0  0  0  0
   25.3751   -4.7327  -16.0872 C   0  0  0  0  0  0  0  0  0  0  0  0
   25.6624   -5.6815  -17.0463 C   0  0  0  0  0  0  0  0  0  0  0  0
   24.6216   -6.1707  -17.7973 C   0  0  0  0  0  0  0  0  0  0  0  0
   23.3320   -5.7320  -17.6035 C   0  0  0  0  0  0  0  0  0  0  0  0
   19.6536   -4.4688  -14.9030 C   0  0  0  0  0  0  0  0  0  0  0  0
   18.3874   -4.9977  -14.9591 O   0  0  0  0  0  0  0  0  0  0  0  0
   19.7387   -3.2973  -14.3893 O   0  0  0  0  0  0  0  0  0  0  0  0
  1  2  1  0
  3  2  1  0
  4  3  1  0
  5  6  1  6
  5  4  1  0
  7  5  1  0
  7  8  2  0
  9 10  1  0
 10 20  2  0
 10 11  1  0
 11 12  2  0
 12 13  1  0
 13 14  1  0
 15 14  1  1
 15 17  1  0
 15 16  1  0
 16  7  1  0
 17 18  2  0
 19 13  2  0
 20 19  1  0
 21 22  1  0
 21 17  1  0
 22 30  1  0
 22 23  1  6
 24 29  1  0
 24 23  1  0
 25 24  2  0
 26 27  2  0
 26 25  1  0
 27 28  1  0
 28 29  2  0
 30 32  2  0
 30 31  1  0
M  END
$$$$
