MYF.pdb
     RDKit          3D

 32 33  0  0  1  0  0  0  0  0999 V2000
   29.1959  -22.4129  -14.3681 C   0  0  0  0  0  0  0  0  0  0  0  0
   30.0079  -21.7931  -15.8512 S   0  0  0  0  0  0  0  0  0  0  0  0
   29.4545  -20.1154  -16.2234 C   0  0  0  0  0  0  0  0  0  0  0  0
   28.6014  -19.6339  -15.0488 C   0  0  0  0  0  0  0  0  0  0  0  0
   27.1499  -19.8098  -15.4318 C   0  0  2  0  0  0  0  0  0  0  0  0
   26.8015  -18.8183  -16.4397 N   0  0  0  0  0  0  0  0  0  0  0  0
   26.3153  -19.6726  -14.2259 C   0  0  0  0  0  0  0  0  0  0  0  0
   26.0295  -18.5117  -13.8435 O   0  0  0  0  0  0  0  0  0  0  0  0
   19.9538  -19.0062  -16.3268 O   0  0  0  0  0  0  0  0  0  0  0  0
   20.8760  -19.5854  -15.4505 C   0  0  0  0  0  0  0  0  0  0  0  0
   21.8661  -20.4363  -15.8893 C   0  0  0  0  0  0  0  0  0  0  0  0
   22.7627  -20.9944  -15.0062 C   0  0  0  0  0  0  0  0  0  0  0  0
   22.7210  -20.7334  -13.6308 C   0  0  0  0  0  0  0  0  0  0  0  0
   23.6526  -21.3517  -12.6929 C   0  0  0  0  0  0  0  0  0  0  0  0
   24.8977  -20.6250  -12.3635 C   0  0  2  0  0  0  0  0  0  0  0  0
   25.8399  -20.7776  -13.5061 N   0  0  0  0  0  0  0  0  0  0  0  0
   25.6571  -21.0372  -11.1947 C   0  0  0  0  0  0  0  0  0  0  0  0
   26.8403  -21.4912  -11.2421 O   0  0  0  0  0  0  0  0  0  0  0  0
   21.7193  -19.8783  -13.2220 C   0  0  0  0  0  0  0  0  0  0  0  0
   20.8184  -19.3165  -14.1023 C   0  0  0  0  0  0  0  0  0  0  0  0
   25.0991  -20.9452   -9.8932 N   0  0  0  0  0  0  0  0  0  0  0  0
   25.9235  -21.1840   -8.7109 C   0  0  1  0  0  0  0  0  0  0  0  0
   27.0622  -20.1871   -8.7808 C   0  0  0  0  0  0  0  0  0  0  0  0
   27.8009  -20.0457   -7.5046 C   0  0  0  0  0  0  0  0  0  0  0  0
   28.9559  -20.7846   -7.2428 C   0  0  0  0  0  0  0  0  0  0  0  0
   29.6571  -20.6564   -6.0624 C   0  0  0  0  0  0  0  0  0  0  0  0
   29.2332  -19.7795   -5.0858 C   0  0  0  0  0  0  0  0  0  0  0  0
   28.0980  -19.0461   -5.3305 C   0  0  0  0  0  0  0  0  0  0  0  0
   27.4021  -19.1778   -6.5101 C   0  0  0  0  0  0  0  0  0  0  0  0
   25.1908  -21.1813   -7.4517 C   0  0  0  0  0  0  0  0  0  0  0  0
   24.1747  -20.3346   -7.0817 O   0  0  0  0  0  0  0  0  0  0  0  0
   25.5191  -22.0617   -6.5796 O   0  0  0  0  0  0  0  0  0  0  0  0
  1  2  1  0
  3  2  1  0
  4  3  1  0
  5  6  1  6
  5  4  1  0
  7  5  1  0
  7  8  2  0
  9 10  1  0
 10 20  2  0
 10 11  1  0
 11 12  2  0
 12 13  1  0
 13 14  1  0
 15 14  1  6
 15 17  1  0
 15 16  1  0
 16  7  1  0
 17 18  2  0
 19 13  2  0
 20 19  1  0
 21 22  1  0
 21 17  1  0
 22 30  1  0
 22 23  1  1
 24 29  1  0
 24 23  1  0
 25 24  2  0
 26 27  2  0
 26 25  1  0
 27 28  1  0
 28 29  2  0
 30 32  2  0
 30 31  1  0
M  END
$$$$
