MYF.pdb
     RDKit          3D

 32 33  0  0  1  0  0  0  0  0999 V2000
   28.7351  -24.2130  -15.5669 C   0  0  0  0  0  0  0  0  0  0  0  0
   30.0728  -23.8848  -16.7271 S   0  0  0  0  0  0  0  0  0  0  0  0
   29.8184  -22.3019  -17.5575 C   0  0  0  0  0  0  0  0  0  0  0  0
   28.9572  -21.4286  -16.6437 C   0  0  0  0  0  0  0  0  0  0  0  0
   27.5953  -21.2943  -17.2853 C   0  0  2  0  0  0  0  0  0  0  0  0
   27.6887  -20.3723  -18.4084 N   0  0  0  0  0  0  0  0  0  0  0  0
   26.6334  -20.8215  -16.2750 C   0  0  0  0  0  0  0  0  0  0  0  0
   26.7025  -19.6190  -15.9217 O   0  0  0  0  0  0  0  0  0  0  0  0
   19.2225  -20.9369  -11.1313 O   0  0  0  0  0  0  0  0  0  0  0  0
   20.2509  -21.1186  -12.0603 C   0  0  0  0  0  0  0  0  0  0  0  0
   20.6453  -20.1166  -12.9192 C   0  0  0  0  0  0  0  0  0  0  0  0
   21.6611  -20.3202  -13.8256 C   0  0  0  0  0  0  0  0  0  0  0  0
   22.3428  -21.5397  -13.9259 C   0  0  0  0  0  0  0  0  0  0  0  0
   23.3974  -21.7629  -14.9096 C   0  0  0  0  0  0  0  0  0  0  0  0
   24.7294  -21.1747  -14.6515 C   0  0  2  0  0  0  0  0  0  0  0  0
   25.6620  -21.6575  -15.7069 N   0  0  0  0  0  0  0  0  0  0  0  0
   25.3949  -21.4798  -13.3959 C   0  0  0  0  0  0  0  0  0  0  0  0
   25.9670  -22.5838  -13.1469 O   0  0  0  0  0  0  0  0  0  0  0  0
   21.9257  -22.5228  -13.0534 C   0  0  0  0  0  0  0  0  0  0  0  0
   20.9086  -22.3243  -12.1434 C   0  0  0  0  0  0  0  0  0  0  0  0
   25.4474  -20.5246  -12.3478 N   0  0  0  0  0  0  0  0  0  0  0  0
   25.8800  -20.9128  -11.0074 C   0  0  1  0  0  0  0  0  0  0  0  0
   27.2135  -20.2309  -10.7793 C   0  0  0  0  0  0  0  0  0  0  0  0
   27.6954  -20.3311   -9.3821 C   0  0  0  0  0  0  0  0  0  0  0  0
   27.3167  -19.4036   -8.4099 C   0  0  0  0  0  0  0  0  0  0  0  0
   27.7517  -19.4902   -7.1043 C   0  0  0  0  0  0  0  0  0  0  0  0
   28.5891  -20.5128   -6.7098 C   0  0  0  0  0  0  0  0  0  0  0  0
   28.9695  -21.4324   -7.6564 C   0  0  0  0  0  0  0  0  0  0  0  0
   28.5325  -21.3414   -8.9579 C   0  0  0  0  0  0  0  0  0  0  0  0
   24.8926  -20.6802   -9.9618 C   0  0  0  0  0  0  0  0  0  0  0  0
   24.7000  -21.4184   -8.8198 O   0  0  0  0  0  0  0  0  0  0  0  0
   24.1070  -19.6779  -10.1086 O   0  0  0  0  0  0  0  0  0  0  0  0
  1  2  1  0
  3  2  1  0
  4  3  1  0
  5  6  1  6
  5  4  1  0
  7  5  1  0
  7  8  2  0
  9 10  1  0
 10 20  2  0
 10 11  1  0
 11 12  2  0
 12 13  1  0
 13 14  1  0
 15 14  1  1
 15 17  1  0
 15 16  1  0
 16  7  1  0
 17 18  2  0
 19 13  2  0
 20 19  1  0
 21 22  1  0
 21 17  1  0
 22 30  1  0
 22 23  1  1
 24 29  1  0
 24 23  1  0
 25 24  2  0
 26 27  2  0
 26 25  1  0
 27 28  1  0
 28 29  2  0
 30 32  2  0
 30 31  1  0
M  END
$$$$
