MYF.pdb
     RDKit          3D

 32 33  0  0  1  0  0  0  0  0999 V2000
   31.6661  -18.1733  -20.2883 C   0  0  0  0  0  0  0  0  0  0  0  0
   30.2945  -17.9554  -19.1419 S   0  0  0  0  0  0  0  0  0  0  0  0
   30.3308  -16.3027  -18.4160 C   0  0  0  0  0  0  0  0  0  0  0  0
   29.2383  -16.2381  -17.3475 C   0  0  0  0  0  0  0  0  0  0  0  0
   27.9500  -16.7160  -17.9772 C   0  0  2  0  0  0  0  0  0  0  0  0
   27.4155  -15.6594  -18.8246 N   0  0  0  0  0  0  0  0  0  0  0  0
   27.0034  -17.0864  -16.9113 C   0  0  0  0  0  0  0  0  0  0  0  0
   26.8677  -16.2912  -15.9497 O   0  0  0  0  0  0  0  0  0  0  0  0
   19.7615  -20.7275  -13.1307 O   0  0  0  0  0  0  0  0  0  0  0  0
   20.7940  -20.1921  -13.9057 C   0  0  0  0  0  0  0  0  0  0  0  0
   21.0841  -18.8456  -13.9069 C   0  0  0  0  0  0  0  0  0  0  0  0
   22.1064  -18.3423  -14.6792 C   0  0  0  0  0  0  0  0  0  0  0  0
   22.8993  -19.1576  -15.4967 C   0  0  0  0  0  0  0  0  0  0  0  0
   23.9614  -18.6169  -16.3390 C   0  0  0  0  0  0  0  0  0  0  0  0
   25.3483  -18.6582  -15.8272 C   0  0  2  0  0  0  0  0  0  0  0  0
   26.2638  -18.2770  -16.9376 N   0  0  0  0  0  0  0  0  0  0  0  0
   25.8700  -19.9198  -15.3283 C   0  0  0  0  0  0  0  0  0  0  0  0
   26.3020  -20.8518  -16.0718 O   0  0  0  0  0  0  0  0  0  0  0  0
   22.5850  -20.5002  -15.4743 C   0  0  0  0  0  0  0  0  0  0  0  0
   21.5619  -21.0098  -14.7026 C   0  0  0  0  0  0  0  0  0  0  0  0
   25.9318  -20.1831  -13.9353 N   0  0  0  0  0  0  0  0  0  0  0  0
   26.3239  -21.5017  -13.4433 C   0  0  1  0  0  0  0  0  0  0  0  0
   27.2576  -21.2570  -12.2756 C   0  0  0  0  0  0  0  0  0  0  0  0
   26.5553  -20.8671  -11.0309 C   0  0  0  0  0  0  0  0  0  0  0  0
   26.4458  -19.5311  -10.6412 C   0  0  0  0  0  0  0  0  0  0  0  0
   25.7879  -19.1544   -9.4894 C   0  0  0  0  0  0  0  0  0  0  0  0
   25.2069  -20.1008   -8.6714 C   0  0  0  0  0  0  0  0  0  0  0  0
   25.3071  -21.4192   -9.0431 C   0  0  0  0  0  0  0  0  0  0  0  0
   25.9648  -21.7897  -10.1934 C   0  0  0  0  0  0  0  0  0  0  0  0
   25.2104  -22.3951  -13.1533 C   0  0  0  0  0  0  0  0  0  0  0  0
   25.2158  -23.7682  -13.1812 O   0  0  0  0  0  0  0  0  0  0  0  0
   24.0922  -21.8552  -12.8346 O   0  0  0  0  0  0  0  0  0  0  0  0
  1  2  1  0
  3  2  1  0
  4  3  1  0
  5  6  1  1
  5  4  1  0
  7  5  1  0
  7  8  2  0
  9 10  1  0
 10 20  2  0
 10 11  1  0
 11 12  2  0
 12 13  1  0
 13 14  1  0
 15 14  1  6
 15 17  1  0
 15 16  1  0
 16  7  1  0
 17 18  2  0
 19 13  2  0
 20 19  1  0
 21 22  1  0
 21 17  1  0
 22 30  1  0
 22 23  1  1
 24 29  1  0
 24 23  1  0
 25 24  2  0
 26 27  2  0
 26 25  1  0
 27 28  1  0
 28 29  2  0
 30 32  2  0
 30 31  1  0
M  END
$$$$
