MYF.pdb
     RDKit          3D

 32 33  0  0  1  0  0  0  0  0999 V2000
   26.8777  -14.8392  -22.7818 C   0  0  0  0  0  0  0  0  0  0  0  0
   25.2069  -15.3275  -23.2433 S   0  0  0  0  0  0  0  0  0  0  0  0
   24.3594  -13.9729  -24.0839 C   0  0  0  0  0  0  0  0  0  0  0  0
   23.8458  -13.0081  -23.0140 C   0  0  0  0  0  0  0  0  0  0  0  0
   22.3530  -13.2103  -22.8905 C   0  0  2  0  0  0  0  0  0  0  0  0
   21.7142  -12.7999  -24.1329 N   0  0  0  0  0  0  0  0  0  0  0  0
   21.8566  -12.4313  -21.7432 C   0  0  0  0  0  0  0  0  0  0  0  0
   21.7926  -11.1841  -21.8691 O   0  0  0  0  0  0  0  0  0  0  0  0
   17.2843  -10.9568  -14.1580 O   0  0  0  0  0  0  0  0  0  0  0  0
   17.8641  -11.4571  -15.3272 C   0  0  0  0  0  0  0  0  0  0  0  0
   18.2287  -12.7792  -15.4543 C   0  0  0  0  0  0  0  0  0  0  0  0
   18.7983  -13.2479  -16.6166 C   0  0  0  0  0  0  0  0  0  0  0  0
   19.0368  -12.4203  -17.7211 C   0  0  0  0  0  0  0  0  0  0  0  0
   19.6703  -12.9128  -18.9401 C   0  0  0  0  0  0  0  0  0  0  0  0
   20.8946  -12.2329  -19.4150 C   0  0  2  0  0  0  0  0  0  0  0  0
   21.4611  -13.0289  -20.5383 N   0  0  0  0  0  0  0  0  0  0  0  0
   21.9991  -12.0569  -18.4866 C   0  0  0  0  0  0  0  0  0  0  0  0
   22.9025  -12.9243  -18.2874 O   0  0  0  0  0  0  0  0  0  0  0  0
   18.6612  -11.1027  -17.5638 C   0  0  0  0  0  0  0  0  0  0  0  0
   18.0903  -10.6278  -16.4017 C   0  0  0  0  0  0  0  0  0  0  0  0
   22.1340  -10.8626  -17.7322 N   0  0  0  0  0  0  0  0  0  0  0  0
   23.2314  -10.7025  -16.7812 C   0  0  1  0  0  0  0  0  0  0  0  0
   24.4974  -11.0624  -17.5316 C   0  0  0  0  0  0  0  0  0  0  0  0
   25.7327  -10.8378  -16.7454 C   0  0  0  0  0  0  0  0  0  0  0  0
   26.2644  -11.8299  -15.9199 C   0  0  0  0  0  0  0  0  0  0  0  0
   27.4177  -11.6364  -15.1893 C   0  0  0  0  0  0  0  0  0  0  0  0
   28.0947  -10.4362  -15.2513 C   0  0  0  0  0  0  0  0  0  0  0  0
   27.5824   -9.4512  -16.0598 C   0  0  0  0  0  0  0  0  0  0  0  0
   26.4312   -9.6496  -16.7867 C   0  0  0  0  0  0  0  0  0  0  0  0
   23.2691   -9.4086  -16.1128 C   0  0  0  0  0  0  0  0  0  0  0  0
   22.9252   -8.1885  -16.6411 O   0  0  0  0  0  0  0  0  0  0  0  0
   23.6657   -9.3889  -14.8939 O   0  0  0  0  0  0  0  0  0  0  0  0
  1  2  1  0
  3  2  1  0
  4  3  1  0
  5  6  1  6
  5  4  1  0
  7  5  1  0
  7  8  2  0
  9 10  1  0
 10 20  2  0
 10 11  1  0
 11 12  2  0
 12 13  1  0
 13 14  1  0
 15 14  1  1
 15 17  1  0
 15 16  1  0
 16  7  1  0
 17 18  2  0
 19 13  2  0
 20 19  1  0
 21 22  1  0
 21 17  1  0
 22 30  1  0
 22 23  1  6
 24 29  1  0
 24 23  1  0
 25 24  2  0
 26 27  2  0
 26 25  1  0
 27 28  1  0
 28 29  2  0
 30 32  2  0
 30 31  1  0
M  END
$$$$
