MYF.pdb
     RDKit          3D

 32 33  0  0  1  0  0  0  0  0999 V2000
   17.5494  -12.2057  -14.2712 C   0  0  0  0  0  0  0  0  0  0  0  0
   15.8200  -12.1746  -14.7725 S   0  0  0  0  0  0  0  0  0  0  0  0
   14.7613  -11.7504  -13.3729 C   0  0  0  0  0  0  0  0  0  0  0  0
   15.0725  -10.3074  -12.9727 C   0  0  0  0  0  0  0  0  0  0  0  0
   14.2531   -9.9837  -11.7445 C   0  0  2  0  0  0  0  0  0  0  0  0
   12.8400  -10.0178  -12.0942 N   0  0  0  0  0  0  0  0  0  0  0  0
   14.6534   -8.6606  -11.2357 C   0  0  0  0  0  0  0  0  0  0  0  0
   14.1010   -7.6513  -11.7375 O   0  0  0  0  0  0  0  0  0  0  0  0
   10.0392   -7.3548   -6.9085 O   0  0  0  0  0  0  0  0  0  0  0  0
   11.3948   -7.3182   -7.2469 C   0  0  0  0  0  0  0  0  0  0  0  0
   12.1415   -8.4657   -7.3977 C   0  0  0  0  0  0  0  0  0  0  0  0
   13.4756   -8.4035   -7.7315 C   0  0  0  0  0  0  0  0  0  0  0  0
   14.1415   -7.1881   -7.9342 C   0  0  0  0  0  0  0  0  0  0  0  0
   15.5635   -7.1242   -8.2562 C   0  0  0  0  0  0  0  0  0  0  0  0
   15.9593   -7.1566   -9.6807 C   0  0  2  0  0  0  0  0  0  0  0  0
   15.6139   -8.4975  -10.2276 N   0  0  0  0  0  0  0  0  0  0  0  0
   17.3595   -6.9635  -10.0199 C   0  0  0  0  0  0  0  0  0  0  0  0
   18.3244   -7.3388   -9.2876 O   0  0  0  0  0  0  0  0  0  0  0  0
   13.3679   -6.0574   -7.7763 C   0  0  0  0  0  0  0  0  0  0  0  0
   12.0311   -6.1139   -7.4419 C   0  0  0  0  0  0  0  0  0  0  0  0
   17.7350   -6.3286  -11.2321 N   0  0  0  0  0  0  0  0  0  0  0  0
   19.1008   -6.4392  -11.7387 C   0  0  1  0  0  0  0  0  0  0  0  0
   19.4202   -7.9198  -11.7743 C   0  0  0  0  0  0  0  0  0  0  0  0
   20.7764   -8.2179  -12.2903 C   0  0  0  0  0  0  0  0  0  0  0  0
   21.1615   -7.8601  -13.5835 C   0  0  0  0  0  0  0  0  0  0  0  0
   22.4231   -8.1247  -14.0730 C   0  0  0  0  0  0  0  0  0  0  0  0
   23.3613   -8.7621  -13.2880 C   0  0  0  0  0  0  0  0  0  0  0  0
   22.9955   -9.1197  -12.0134 C   0  0  0  0  0  0  0  0  0  0  0  0
   21.7353   -8.8533  -11.5298 C   0  0  0  0  0  0  0  0  0  0  0  0
   19.3402   -5.7363  -12.9921 C   0  0  0  0  0  0  0  0  0  0  0  0
   18.4027   -5.3213  -13.9059 O   0  0  0  0  0  0  0  0  0  0  0  0
   20.5575   -5.4673  -13.2911 O   0  0  0  0  0  0  0  0  0  0  0  0
  1  2  1  0
  3  2  1  0
  4  3  1  0
  5  6  1  6
  5  4  1  0
  7  5  1  0
  7  8  2  0
  9 10  1  0
 10 20  2  0
 10 11  1  0
 11 12  2  0
 12 13  1  0
 13 14  1  0
 15 14  1  1
 15 17  1  0
 15 16  1  0
 16  7  1  0
 17 18  2  0
 19 13  2  0
 20 19  1  0
 21 22  1  0
 21 17  1  0
 22 30  1  0
 22 23  1  6
 24 29  1  0
 24 23  1  0
 25 24  2  0
 26 27  2  0
 26 25  1  0
 27 28  1  0
 28 29  2  0
 30 32  2  0
 30 31  1  0
M  END
$$$$
