MYF.pdb
     RDKit          3D

 32 33  0  0  1  0  0  0  0  0999 V2000
   25.5829  -17.3889  -17.8918 C   0  0  0  0  0  0  0  0  0  0  0  0
   25.7938  -18.7783  -19.0179 S   0  0  0  0  0  0  0  0  0  0  0  0
   26.7038  -20.1143  -18.2137 C   0  0  0  0  0  0  0  0  0  0  0  0
   26.0228  -20.4032  -16.8751 C   0  0  0  0  0  0  0  0  0  0  0  0
   26.8774  -21.4030  -16.1303 C   0  0  2  0  0  0  0  0  0  0  0  0
   26.8914  -22.6582  -16.8683 N   0  0  0  0  0  0  0  0  0  0  0  0
   26.3359  -21.5794  -14.7719 C   0  0  0  0  0  0  0  0  0  0  0  0
   25.4131  -22.4159  -14.6161 O   0  0  0  0  0  0  0  0  0  0  0  0
   25.7624  -20.5650   -5.8128 O   0  0  0  0  0  0  0  0  0  0  0  0
   26.1014  -20.5852   -7.1686 C   0  0  0  0  0  0  0  0  0  0  0  0
   25.5056  -21.4518   -8.0580 C   0  0  0  0  0  0  0  0  0  0  0  0
   25.8569  -21.4524   -9.3890 C   0  0  0  0  0  0  0  0  0  0  0  0
   26.8259  -20.5849   -9.9088 C   0  0  0  0  0  0  0  0  0  0  0  0
   27.2193  -20.6099  -11.3139 C   0  0  0  0  0  0  0  0  0  0  0  0
   26.2033  -20.9948  -12.3171 C   0  0  2  0  0  0  0  0  0  0  0  0
   26.8106  -20.8555  -13.6693 N   0  0  0  0  0  0  0  0  0  0  0  0
   24.9657  -20.2354  -12.3828 C   0  0  0  0  0  0  0  0  0  0  0  0
   24.9081  -18.9948  -12.6389 O   0  0  0  0  0  0  0  0  0  0  0  0
   27.4041  -19.7296   -8.9945 C   0  0  0  0  0  0  0  0  0  0  0  0
   27.0561  -19.7248   -7.6600 C   0  0  0  0  0  0  0  0  0  0  0  0
   23.7125  -20.8636  -12.1621 N   0  0  0  0  0  0  0  0  0  0  0  0
   22.4883  -20.0715  -12.0711 C   0  0  1  0  0  0  0  0  0  0  0  0
   22.4142  -19.2590  -13.3477 C   0  0  0  0  0  0  0  0  0  0  0  0
   22.0823  -20.0684  -14.5431 C   0  0  0  0  0  0  0  0  0  0  0  0
   20.8848  -20.7798  -14.6349 C   0  0  0  0  0  0  0  0  0  0  0  0
   20.5604  -21.5303  -15.7452 C   0  0  0  0  0  0  0  0  0  0  0  0
   21.4228  -21.6040  -16.8191 C   0  0  0  0  0  0  0  0  0  0  0  0
   22.6048  -20.9087  -16.7420 C   0  0  0  0  0  0  0  0  0  0  0  0
   22.9236  -20.1613  -15.6317 C   0  0  0  0  0  0  0  0  0  0  0  0
   21.2891  -20.8430  -11.7722 C   0  0  0  0  0  0  0  0  0  0  0  0
   20.0241  -20.3598  -11.5430 O   0  0  0  0  0  0  0  0  0  0  0  0
   21.4109  -22.1177  -11.7125 O   0  0  0  0  0  0  0  0  0  0  0  0
  1  2  1  0
  3  2  1  0
  4  3  1  0
  5  6  1  6
  5  4  1  0
  7  5  1  0
  7  8  2  0
  9 10  1  0
 10 20  2  0
 10 11  1  0
 11 12  2  0
 12 13  1  0
 13 14  1  0
 15 14  1  1
 15 17  1  0
 15 16  1  0
 16  7  1  0
 17 18  2  0
 19 13  2  0
 20 19  1  0
 21 22  1  0
 21 17  1  0
 22 30  1  0
 22 23  1  6
 24 29  1  0
 24 23  1  0
 25 24  2  0
 26 27  2  0
 26 25  1  0
 27 28  1  0
 28 29  2  0
 30 32  2  0
 30 31  1  0
M  END
$$$$
