MYF.pdb
     RDKit          3D

 32 33  0  0  1  0  0  0  0  0999 V2000
   22.7690  -12.2048    6.3939 C   0  0  0  0  0  0  0  0  0  0  0  0
   21.4216  -11.6001    7.4244 S   0  0  0  0  0  0  0  0  0  0  0  0
   19.9014  -11.4564    6.4611 C   0  0  0  0  0  0  0  0  0  0  0  0
   19.2141  -12.8228    6.4671 C   0  0  0  0  0  0  0  0  0  0  0  0
   18.0311  -12.7469    5.5294 C   0  0  2  0  0  0  0  0  0  0  0  0
   17.0204  -11.8743    6.1103 N   0  0  0  0  0  0  0  0  0  0  0  0
   17.5090  -14.1058    5.3046 C   0  0  0  0  0  0  0  0  0  0  0  0
   16.5062  -14.4626    5.9699 O   0  0  0  0  0  0  0  0  0  0  0  0
   15.2227  -21.3780    0.6916 O   0  0  0  0  0  0  0  0  0  0  0  0
   15.7819  -20.1838    1.1547 C   0  0  0  0  0  0  0  0  0  0  0  0
   17.0849  -19.8320    0.8798 C   0  0  0  0  0  0  0  0  0  0  0  0
   17.6129  -18.6499    1.3476 C   0  0  0  0  0  0  0  0  0  0  0  0
   16.8672  -17.7493    2.1187 C   0  0  0  0  0  0  0  0  0  0  0  0
   17.4393  -16.5122    2.6403 C   0  0  0  0  0  0  0  0  0  0  0  0
   17.4919  -16.3308    4.1071 C   0  0  2  0  0  0  0  0  0  0  0  0
   18.0868  -14.9953    4.3881 N   0  0  0  0  0  0  0  0  0  0  0  0
   18.2774  -17.2642    4.8973 C   0  0  0  0  0  0  0  0  0  0  0  0
   19.5449  -17.3028    4.8954 O   0  0  0  0  0  0  0  0  0  0  0  0
   15.5668  -18.1289    2.3771 C   0  0  0  0  0  0  0  0  0  0  0  0
   15.0328  -19.3120    1.9111 C   0  0  0  0  0  0  0  0  0  0  0  0
   17.6473  -18.2104    5.7466 N   0  0  0  0  0  0  0  0  0  0  0  0
   18.4261  -19.2607    6.3984 C   0  0  1  0  0  0  0  0  0  0  0  0
   18.4710  -18.9026    7.8698 C   0  0  0  0  0  0  0  0  0  0  0  0
   19.4721  -17.8595    8.1923 C   0  0  0  0  0  0  0  0  0  0  0  0
   20.8416  -18.0938    8.0569 C   0  0  0  0  0  0  0  0  0  0  0  0
   21.7832  -17.1289    8.3460 C   0  0  0  0  0  0  0  0  0  0  0  0
   21.3963  -15.8801    8.7857 C   0  0  0  0  0  0  0  0  0  0  0  0
   20.0518  -15.6360    8.9234 C   0  0  0  0  0  0  0  0  0  0  0  0
   19.1163  -16.6025    8.6335 C   0  0  0  0  0  0  0  0  0  0  0  0
   17.9699  -20.6154    6.1170 C   0  0  0  0  0  0  0  0  0  0  0  0
   18.5637  -21.7912    6.5056 O   0  0  0  0  0  0  0  0  0  0  0  0
   16.8949  -20.7421    5.4302 O   0  0  0  0  0  0  0  0  0  0  0  0
  1  2  1  0
  3  2  1  0
  4  3  1  0
  5  6  1  1
  5  4  1  0
  7  5  1  0
  7  8  2  0
  9 10  1  0
 10 20  2  0
 10 11  1  0
 11 12  2  0
 12 13  1  0
 13 14  1  0
 15 14  1  6
 15 17  1  0
 15 16  1  0
 16  7  1  0
 17 18  2  0
 19 13  2  0
 20 19  1  0
 21 22  1  0
 21 17  1  0
 22 30  1  0
 22 23  1  1
 24 29  1  0
 24 23  1  0
 25 24  2  0
 26 27  2  0
 26 25  1  0
 27 28  1  0
 28 29  2  0
 30 32  2  0
 30 31  1  0
M  END
$$$$
