GHD.pdb
     RDKit          3D

 23 23  0  0  1  0  0  0  0  0999 V2000
   15.7413   -9.6562  -19.8247 N   0  0  0  0  0  0  0  0  0  0  0  0
   16.7170  -10.5986  -19.3284 C   0  0  0  0  0  0  0  0  0  0  0  0
   17.1239  -10.3031  -17.9312 C   0  0  0  0  0  0  0  0  0  0  0  0
   16.1884  -10.3853  -17.0648 O   0  0  0  0  0  0  0  0  0  0  0  0
   18.4385   -9.9606  -17.5983 N   0  0  0  0  0  0  0  0  0  0  0  0
   18.8309   -9.7069  -16.2132 C   0  0  1  0  0  0  0  0  0  0  0  0
   19.5875  -10.8366  -15.6334 C   0  0  0  0  0  0  0  0  0  0  0  0
   18.8433  -12.1015  -15.4515 C   0  0  0  0  0  0  0  0  0  0  0  0
   18.9157  -13.2511  -16.1758 C   0  0  0  0  0  0  0  0  0  0  0  0
   18.0963  -14.1803  -15.5959 N   0  0  0  0  0  0  0  0  0  0  0  0
   17.5504  -13.5800  -14.5405 C   0  0  0  0  0  0  0  0  0  0  0  0
   17.9715  -12.3376  -14.4199 N   0  0  0  0  0  0  0  0  0  0  0  0
   19.8085   -8.5436  -16.2826 C   0  0  0  0  0  0  0  0  0  0  0  0
   20.6610   -8.4144  -17.1699 O   0  0  0  0  0  0  0  0  0  0  0  0
   19.7703   -7.5266  -15.2873 N   0  0  0  0  0  0  0  0  0  0  0  0
   20.5689   -6.3031  -15.3659 C   0  0  1  0  0  0  0  0  0  0  0  0
   19.5650   -5.1745  -15.3624 C   0  0  0  0  0  0  0  0  0  0  0  0
   20.1338   -3.8322  -15.2985 C   0  0  0  0  0  0  0  0  0  0  0  0
   21.3519   -3.5579  -15.2495 O   0  0  0  0  0  0  0  0  0  0  0  0
   21.3580   -6.2201  -14.1196 C   0  0  0  0  0  0  0  0  0  0  0  0
   21.1707   -7.1799  -13.1424 O   0  0  0  0  0  0  0  0  0  0  0  0
   19.2099   -2.7620  -15.2928 O   0  0  0  0  0  0  0  0  0  0  0  0
   22.1882   -5.3245  -13.9027 O   0  0  0  0  0  0  0  0  0  0  0  0
  2  3  1  0
  2  1  1  0
  3  5  1  0
  4  3  2  0
  5  6  1  0
  6  7  1  6
  6 13  1  0
  8  9  2  0
  8  7  1  0
 10  9  1  0
 11 12  2  0
 11 10  1  0
 12  8  1  0
 13 14  2  0
 13 15  1  0
 15 16  1  0
 16 17  1  1
 17 18  1  0
 18 22  1  0
 19 18  2  0
 20 21  1  0
 20 16  1  0
 23 20  2  0
M  END
$$$$
