GHD.pdb
     RDKit          3D

 23 23  0  0  1  0  0  0  0  0999 V2000
   20.9547  -11.7336  -19.3655 N   0  0  0  0  0  0  0  0  0  0  0  0
   22.2895  -11.5697  -18.8385 C   0  0  0  0  0  0  0  0  0  0  0  0
   22.3441  -10.5614  -17.7497 C   0  0  0  0  0  0  0  0  0  0  0  0
   21.8349  -10.9345  -16.6388 O   0  0  0  0  0  0  0  0  0  0  0  0
   22.9138   -9.2978  -17.9369 N   0  0  0  0  0  0  0  0  0  0  0  0
   23.0606   -8.3577  -16.8271 C   0  0  1  0  0  0  0  0  0  0  0  0
   24.4758   -8.0178  -16.5695 C   0  0  0  0  0  0  0  0  0  0  0  0
   25.3364   -9.1153  -16.0776 C   0  0  0  0  0  0  0  0  0  0  0  0
   25.0376  -10.4328  -15.9158 C   0  0  0  0  0  0  0  0  0  0  0  0
   26.1671  -11.0852  -15.5037 N   0  0  0  0  0  0  0  0  0  0  0  0
   27.1188  -10.1576  -15.4267 C   0  0  0  0  0  0  0  0  0  0  0  0
   26.6626   -8.9681  -15.7619 N   0  0  0  0  0  0  0  0  0  0  0  0
   22.4043   -7.0715  -17.3050 C   0  0  0  0  0  0  0  0  0  0  0  0
   22.4492   -6.6703  -18.4746 O   0  0  0  0  0  0  0  0  0  0  0  0
   21.6890   -6.2567  -16.3825 N   0  0  0  0  0  0  0  0  0  0  0  0
   20.9826   -5.0372  -16.7763 C   0  0  1  0  0  0  0  0  0  0  0  0
   19.9218   -4.8360  -15.7200 C   0  0  0  0  0  0  0  0  0  0  0  0
   19.0711   -3.6646  -15.9037 C   0  0  0  0  0  0  0  0  0  0  0  0
   18.9463   -3.0128  -16.9625 O   0  0  0  0  0  0  0  0  0  0  0  0
   21.9494   -3.9247  -16.6744 C   0  0  0  0  0  0  0  0  0  0  0  0
   21.8571   -2.8725  -17.5663 O   0  0  0  0  0  0  0  0  0  0  0  0
   18.3317   -3.2463  -14.7735 O   0  0  0  0  0  0  0  0  0  0  0  0
   22.8488   -3.8859  -15.8212 O   0  0  0  0  0  0  0  0  0  0  0  0
  2  3  1  0
  2  1  1  0
  3  5  1  0
  4  3  2  0
  5  6  1  0
  6  7  1  6
  6 13  1  0
  8  9  2  0
  8  7  1  0
 10  9  1  0
 11 12  2  0
 11 10  1  0
 12  8  1  0
 13 14  2  0
 13 15  1  0
 15 16  1  0
 16 17  1  1
 17 18  1  0
 18 22  1  0
 19 18  2  0
 20 21  1  0
 20 16  1  0
 23 20  2  0
M  END
$$$$
