GHD.pdb
     RDKit          3D

 23 23  0  0  1  0  0  0  0  0999 V2000
   21.7181  -15.5190  -20.2039 N   0  0  0  0  0  0  0  0  0  0  0  0
   20.5879  -16.3233  -19.8012 C   0  0  0  0  0  0  0  0  0  0  0  0
   19.8050  -15.6872  -18.7116 C   0  0  0  0  0  0  0  0  0  0  0  0
   18.5463  -15.9037  -18.7503 O   0  0  0  0  0  0  0  0  0  0  0  0
   20.4109  -14.9092  -17.7197 N   0  0  0  0  0  0  0  0  0  0  0  0
   19.6425  -14.3755  -16.5964 C   0  0  1  0  0  0  0  0  0  0  0  0
   20.2182  -14.7671  -15.2925 C   0  0  0  0  0  0  0  0  0  0  0  0
   19.9116  -16.1356  -14.8231 C   0  0  0  0  0  0  0  0  0  0  0  0
   19.1840  -17.1093  -15.4346 C   0  0  0  0  0  0  0  0  0  0  0  0
   19.2306  -18.2355  -14.6596 N   0  0  0  0  0  0  0  0  0  0  0  0
   19.9803  -17.9238  -13.6046 C   0  0  0  0  0  0  0  0  0  0  0  0
   20.4063  -16.6787  -13.6654 N   0  0  0  0  0  0  0  0  0  0  0  0
   19.8032  -12.8656  -16.6853 C   0  0  0  0  0  0  0  0  0  0  0  0
   20.8547  -12.3047  -17.0180 O   0  0  0  0  0  0  0  0  0  0  0  0
   18.7028  -12.0172  -16.3754 N   0  0  0  0  0  0  0  0  0  0  0  0
   18.7556  -10.5611  -16.5097 C   0  0  1  0  0  0  0  0  0  0  0  0
   17.3290  -10.0959  -16.3368 C   0  0  0  0  0  0  0  0  0  0  0  0
   17.1247   -8.6547  -16.4398 C   0  0  0  0  0  0  0  0  0  0  0  0
   17.9971   -7.8147  -16.7473 O   0  0  0  0  0  0  0  0  0  0  0  0
   19.5469  -10.0497  -15.3716 C   0  0  0  0  0  0  0  0  0  0  0  0
   20.2799   -8.8887  -15.5326 O   0  0  0  0  0  0  0  0  0  0  0  0
   15.8190   -8.1878  -16.1640 O   0  0  0  0  0  0  0  0  0  0  0  0
   19.5877  -10.6142  -14.2679 O   0  0  0  0  0  0  0  0  0  0  0  0
  2  3  1  0
  2  1  1  0
  3  5  1  0
  4  3  2  0
  5  6  1  0
  6  7  1  1
  6 13  1  0
  8  9  2  0
  8  7  1  0
 10  9  1  0
 11 12  2  0
 11 10  1  0
 12  8  1  0
 13 14  2  0
 13 15  1  0
 15 16  1  0
 16 17  1  1
 17 18  1  0
 18 22  1  0
 19 18  2  0
 20 21  1  0
 20 16  1  0
 23 20  2  0
M  END
$$$$
