GHD.pdb
     RDKit          3D

 23 23  0  0  1  0  0  0  0  0999 V2000
   24.9689  -24.9583  -14.8593 N   0  0  0  0  0  0  0  0  0  0  0  0
   23.8044  -24.4039  -15.5097 C   0  0  0  0  0  0  0  0  0  0  0  0
   23.2199  -23.2719  -14.7468 C   0  0  0  0  0  0  0  0  0  0  0  0
   22.3705  -23.6024  -13.8513 O   0  0  0  0  0  0  0  0  0  0  0  0
   23.5798  -21.9439  -14.9980 N   0  0  0  0  0  0  0  0  0  0  0  0
   23.0602  -20.8477  -14.1824 C   0  0  1  0  0  0  0  0  0  0  0  0
   24.1405  -19.9965  -13.6410 C   0  0  0  0  0  0  0  0  0  0  0  0
   24.9949  -20.6032  -12.5975 C   0  0  0  0  0  0  0  0  0  0  0  0
   26.2814  -21.0372  -12.6875 C   0  0  0  0  0  0  0  0  0  0  0  0
   26.6840  -21.4570  -11.4495 N   0  0  0  0  0  0  0  0  0  0  0  0
   25.6427  -21.2687  -10.6418 C   0  0  0  0  0  0  0  0  0  0  0  0
   24.6145  -20.7600  -11.2895 N   0  0  0  0  0  0  0  0  0  0  0  0
   22.2811  -19.9673  -15.1476 C   0  0  0  0  0  0  0  0  0  0  0  0
   22.6449  -19.7276  -16.3056 O   0  0  0  0  0  0  0  0  0  0  0  0
   21.0593  -19.3678  -14.7300 N   0  0  0  0  0  0  0  0  0  0  0  0
   20.1934  -18.6093  -15.6333 C   0  0  1  0  0  0  0  0  0  0  0  0
   18.8444  -18.5777  -14.9543 C   0  0  0  0  0  0  0  0  0  0  0  0
   17.8007  -17.8524  -15.6713 C   0  0  0  0  0  0  0  0  0  0  0  0
   17.8007  -17.5937  -16.8938 O   0  0  0  0  0  0  0  0  0  0  0  0
   20.7177  -17.2288  -15.6782 C   0  0  0  0  0  0  0  0  0  0  0  0
   20.5254  -16.4754  -16.8212 O   0  0  0  0  0  0  0  0  0  0  0  0
   16.7019  -17.4125  -14.8978 O   0  0  0  0  0  0  0  0  0  0  0  0
   21.3279  -16.7057  -14.7334 O   0  0  0  0  0  0  0  0  0  0  0  0
  2  3  1  0
  2  1  1  0
  3  5  1  0
  4  3  2  0
  5  6  1  0
  6  7  1  6
  6 13  1  0
  8  9  2  0
  8  7  1  0
 10  9  1  0
 11 12  2  0
 11 10  1  0
 12  8  1  0
 13 14  2  0
 13 15  1  0
 15 16  1  0
 16 17  1  1
 17 18  1  0
 18 22  1  0
 19 18  2  0
 20 21  1  0
 20 16  1  0
 23 20  2  0
M  END
$$$$
