GHD.pdb
     RDKit          3D

 23 23  0  0  1  0  0  0  0  0999 V2000
   18.5494  -11.5011  -16.9190 N   0  0  0  0  0  0  0  0  0  0  0  0
   18.1635  -11.9581  -15.6042 C   0  0  0  0  0  0  0  0  0  0  0  0
   18.7004  -11.0887  -14.5268 C   0  0  0  0  0  0  0  0  0  0  0  0
   18.6387  -11.5825  -13.3500 O   0  0  0  0  0  0  0  0  0  0  0  0
   19.2328   -9.8227  -14.7916 N   0  0  0  0  0  0  0  0  0  0  0  0
   19.8025   -8.9993  -13.7265 C   0  0  1  0  0  0  0  0  0  0  0  0
   20.9149   -8.1549  -14.2108 C   0  0  0  0  0  0  0  0  0  0  0  0
   22.1469   -8.8627  -14.6210 C   0  0  0  0  0  0  0  0  0  0  0  0
   22.7901   -9.8918  -14.0059 C   0  0  0  0  0  0  0  0  0  0  0  0
   23.8469  -10.2706  -14.7874 N   0  0  0  0  0  0  0  0  0  0  0  0
   23.8212   -9.4709  -15.8514 C   0  0  0  0  0  0  0  0  0  0  0  0
   22.8205   -8.6164  -15.7896 N   0  0  0  0  0  0  0  0  0  0  0  0
   18.6929   -8.0377  -13.3294 C   0  0  0  0  0  0  0  0  0  0  0  0
   17.8220   -7.6333  -14.1097 O   0  0  0  0  0  0  0  0  0  0  0  0
   18.6202   -7.5541  -11.9925 N   0  0  0  0  0  0  0  0  0  0  0  0
   17.5098   -6.7393  -11.4982 C   0  0  1  0  0  0  0  0  0  0  0  0
   17.6035   -6.8147   -9.9925 C   0  0  0  0  0  0  0  0  0  0  0  0
   16.6271   -6.0109   -9.2645 C   0  0  0  0  0  0  0  0  0  0  0  0
   15.6295   -5.4473   -9.7630 O   0  0  0  0  0  0  0  0  0  0  0  0
   17.7803   -5.3454  -11.9063 C   0  0  0  0  0  0  0  0  0  0  0  0
   16.7146   -4.5057  -12.1718 O   0  0  0  0  0  0  0  0  0  0  0  0
   16.8463   -5.8694   -7.8749 O   0  0  0  0  0  0  0  0  0  0  0  0
   18.9260   -4.8851  -12.0241 O   0  0  0  0  0  0  0  0  0  0  0  0
  2  3  1  0
  2  1  1  0
  3  5  1  0
  4  3  2  0
  5  6  1  0
  6  7  1  6
  6 13  1  0
  8  9  2  0
  8  7  1  0
 10  9  1  0
 11 12  2  0
 11 10  1  0
 12  8  1  0
 13 14  2  0
 13 15  1  0
 15 16  1  0
 16 17  1  1
 17 18  1  0
 18 22  1  0
 19 18  2  0
 20 21  1  0
 20 16  1  0
 23 20  2  0
M  END
$$$$
