GHD.pdb
     RDKit          3D

 23 23  0  0  1  0  0  0  0  0999 V2000
   22.9096  -13.9334  -17.4155 N   0  0  0  0  0  0  0  0  0  0  0  0
   21.7886  -13.0227  -17.3968 C   0  0  0  0  0  0  0  0  0  0  0  0
   22.1008  -11.7616  -16.6777 C   0  0  0  0  0  0  0  0  0  0  0  0
   21.8734  -11.7835  -15.4205 O   0  0  0  0  0  0  0  0  0  0  0  0
   22.6066  -10.6371  -17.3379 N   0  0  0  0  0  0  0  0  0  0  0  0
   22.9459   -9.4160  -16.6093 C   0  0  1  0  0  0  0  0  0  0  0  0
   24.3117   -8.9440  -16.9201 C   0  0  0  0  0  0  0  0  0  0  0  0
   25.4253   -9.7748  -16.4136 C   0  0  0  0  0  0  0  0  0  0  0  0
   25.7762  -10.0473  -15.1275 C   0  0  0  0  0  0  0  0  0  0  0  0
   26.8291  -10.9204  -15.1419 N   0  0  0  0  0  0  0  0  0  0  0  0
   27.0909  -11.1579  -16.4254 C   0  0  0  0  0  0  0  0  0  0  0  0
   26.2741  -10.4927  -17.2163 N   0  0  0  0  0  0  0  0  0  0  0  0
   22.0044   -8.3526  -17.1538 C   0  0  0  0  0  0  0  0  0  0  0  0
   21.7367   -8.2213  -18.3546 O   0  0  0  0  0  0  0  0  0  0  0  0
   21.3771   -7.4384  -16.2608 N   0  0  0  0  0  0  0  0  0  0  0  0
   20.4690   -6.3820  -16.7086 C   0  0  1  0  0  0  0  0  0  0  0  0
   19.5795   -6.0957  -15.5218 C   0  0  0  0  0  0  0  0  0  0  0  0
   18.6376   -4.9951  -15.6978 C   0  0  0  0  0  0  0  0  0  0  0  0
   18.4701   -4.3395  -16.7483 O   0  0  0  0  0  0  0  0  0  0  0  0
   21.2929   -5.1828  -16.9653 C   0  0  0  0  0  0  0  0  0  0  0  0
   22.5345   -5.0815  -16.3659 O   0  0  0  0  0  0  0  0  0  0  0  0
   17.8554   -4.6562  -14.5698 O   0  0  0  0  0  0  0  0  0  0  0  0
   20.9241   -4.2527  -17.6984 O   0  0  0  0  0  0  0  0  0  0  0  0
  2  3  1  0
  2  1  1  0
  3  5  1  0
  4  3  2  0
  5  6  1  0
  6  7  1  6
  6 13  1  0
  8  9  2  0
  8  7  1  0
 10  9  1  0
 11 12  2  0
 11 10  1  0
 12  8  1  0
 13 14  2  0
 13 15  1  0
 15 16  1  0
 16 17  1  1
 17 18  1  0
 18 22  1  0
 19 18  2  0
 20 21  1  0
 20 16  1  0
 23 20  2  0
M  END
$$$$
