GHD.pdb
     RDKit          3D

 23 23  0  0  1  0  0  0  0  0999 V2000
   22.4032  -13.8314  -18.9838 N   0  0  0  0  0  0  0  0  0  0  0  0
   22.3723  -12.4052  -19.2109 C   0  0  0  0  0  0  0  0  0  0  0  0
   22.4771  -11.6324  -17.9472 C   0  0  0  0  0  0  0  0  0  0  0  0
   21.9949  -12.2117  -16.9155 O   0  0  0  0  0  0  0  0  0  0  0  0
   23.0628  -10.3631  -17.9006 N   0  0  0  0  0  0  0  0  0  0  0  0
   23.0582   -9.5680  -16.6740 C   0  0  1  0  0  0  0  0  0  0  0  0
   24.3855   -8.9863  -16.3830 C   0  0  0  0  0  0  0  0  0  0  0  0
   25.4552   -9.9400  -16.0178 C   0  0  0  0  0  0  0  0  0  0  0  0
   25.4277  -11.3003  -16.0158 C   0  0  0  0  0  0  0  0  0  0  0  0
   26.6709  -11.7578  -15.6749 N   0  0  0  0  0  0  0  0  0  0  0  0
   27.4197  -10.6744  -15.4806 C   0  0  0  0  0  0  0  0  0  0  0  0
   26.7303   -9.5691  -15.6760 N   0  0  0  0  0  0  0  0  0  0  0  0
   22.1426   -8.3891  -16.9666 C   0  0  0  0  0  0  0  0  0  0  0  0
   22.1085   -7.7986  -18.0534 O   0  0  0  0  0  0  0  0  0  0  0  0
   21.2610   -7.9099  -15.9569 N   0  0  0  0  0  0  0  0  0  0  0  0
   20.2789   -6.8510  -16.1923 C   0  0  1  0  0  0  0  0  0  0  0  0
   19.0527   -7.2690  -15.4156 C   0  0  0  0  0  0  0  0  0  0  0  0
   17.9420   -6.3230  -15.4443 C   0  0  0  0  0  0  0  0  0  0  0  0
   17.8742   -5.2995  -16.1579 O   0  0  0  0  0  0  0  0  0  0  0  0
   20.8145   -5.6191  -15.5774 C   0  0  0  0  0  0  0  0  0  0  0  0
   20.2495   -4.4025  -15.9119 O   0  0  0  0  0  0  0  0  0  0  0  0
   16.8575   -6.6067  -14.5827 O   0  0  0  0  0  0  0  0  0  0  0  0
   21.7546   -5.6202  -14.7683 O   0  0  0  0  0  0  0  0  0  0  0  0
  2  3  1  0
  2  1  1  0
  3  5  1  0
  4  3  2  0
  5  6  1  0
  6  7  1  6
  6 13  1  0
  8  9  2  0
  8  7  1  0
 10  9  1  0
 11 12  2  0
 11 10  1  0
 12  8  1  0
 13 14  2  0
 13 15  1  0
 15 16  1  0
 16 17  1  1
 17 18  1  0
 18 22  1  0
 19 18  2  0
 20 21  1  0
 20 16  1  0
 23 20  2  0
M  END
$$$$
