GHD.pdb
     RDKit          3D

 23 23  0  0  1  0  0  0  0  0999 V2000
   15.0228  -19.1952    9.6786 N   0  0  0  0  0  0  0  0  0  0  0  0
   15.7135  -19.5458   10.8978 C   0  0  0  0  0  0  0  0  0  0  0  0
   16.3351  -20.8924   10.8245 C   0  0  0  0  0  0  0  0  0  0  0  0
   15.9868  -21.7017   11.7499 O   0  0  0  0  0  0  0  0  0  0  0  0
   17.2352  -21.2395    9.8119 N   0  0  0  0  0  0  0  0  0  0  0  0
   17.8167  -22.5786    9.7373 C   0  0  1  0  0  0  0  0  0  0  0  0
   18.0418  -23.0105    8.3417 C   0  0  0  0  0  0  0  0  0  0  0  0
   16.8399  -23.3958    7.5710 C   0  0  0  0  0  0  0  0  0  0  0  0
   15.5543  -23.5286    7.9963 C   0  0  0  0  0  0  0  0  0  0  0  0
   14.7705  -23.8317    6.9169 N   0  0  0  0  0  0  0  0  0  0  0  0
   15.5903  -23.8743    5.8690 C   0  0  0  0  0  0  0  0  0  0  0  0
   16.8346  -23.6191    6.2181 N   0  0  0  0  0  0  0  0  0  0  0  0
   19.1982  -22.4485   10.3603 C   0  0  0  0  0  0  0  0  0  0  0  0
   19.8717  -21.4111   10.3281 O   0  0  0  0  0  0  0  0  0  0  0  0
   19.7819  -23.5628   11.0268 N   0  0  0  0  0  0  0  0  0  0  0  0
   21.0981  -23.5113   11.6640 C   0  0  1  0  0  0  0  0  0  0  0  0
   20.9189  -24.1971   12.9979 C   0  0  0  0  0  0  0  0  0  0  0  0
   22.1356  -24.3554   13.7877 C   0  0  0  0  0  0  0  0  0  0  0  0
   22.5677  -25.4313   14.2537 O   0  0  0  0  0  0  0  0  0  0  0  0
   22.0093  -24.3347   10.8427 C   0  0  0  0  0  0  0  0  0  0  0  0
   21.4979  -25.0204    9.7567 O   0  0  0  0  0  0  0  0  0  0  0  0
   22.8764  -23.1771   14.0366 O   0  0  0  0  0  0  0  0  0  0  0  0
   23.2219  -24.4435   11.0800 O   0  0  0  0  0  0  0  0  0  0  0  0
  2  3  1  0
  2  1  1  0
  3  5  1  0
  4  3  2  0
  5  6  1  0
  6  7  1  6
  6 13  1  0
  8  9  2  0
  8  7  1  0
 10  9  1  0
 11 12  2  0
 11 10  1  0
 12  8  1  0
 13 14  2  0
 13 15  1  0
 15 16  1  0
 16 17  1  1
 17 18  1  0
 18 22  1  0
 19 18  2  0
 20 21  1  0
 20 16  1  0
 23 20  2  0
M  END
$$$$
