QAI.pdb
     RDKit          3D

 23 22  0  0  1  0  0  0  0  0999 V2000
   16.5310  -14.3486  -14.1091 N   0  0  0  0  0  0  0  0  0  0  0  0
   15.6492  -14.8424  -15.1351 C   0  0  0  0  0  0  0  0  0  0  0  0
   14.8562  -15.7411  -14.7616 O   0  0  0  0  0  0  0  0  0  0  0  0
   15.6842  -14.3263  -16.5050 C   0  0  0  0  0  0  0  0  0  0  0  0
   16.6960  -13.2459  -16.7527 C   0  0  0  0  0  0  0  0  0  0  0  0
   16.1863  -12.1449  -17.6471 C   0  0  2  0  0  0  0  0  0  0  0  0
   15.9164  -12.6201  -18.9893 N   0  0  0  0  0  0  0  0  0  0  0  0
   17.1094  -10.9827  -17.6464 C   0  0  0  0  0  0  0  0  0  0  0  0
   18.3220  -11.2185  -17.8699 O   0  0  0  0  0  0  0  0  0  0  0  0
   16.9181   -7.2081  -17.5602 C   0  0  0  0  0  0  0  0  0  0  0  0
   17.6193   -8.5368  -17.4347 C   0  0  2  0  0  0  0  0  0  0  0  0
   16.7249   -9.6528  -17.4158 N   0  0  0  0  0  0  0  0  0  0  0  0
   18.5657   -8.5539  -16.2840 C   0  0  0  0  0  0  0  0  0  0  0  0
   18.1271   -8.9571  -15.1809 O   0  0  0  0  0  0  0  0  0  0  0  0
   22.2798  -11.1051  -15.5988 C   0  0  0  0  0  0  0  0  0  0  0  0
   22.1776   -9.8800  -16.5061 C   0  0  0  0  0  0  0  0  0  0  0  0
   22.2109   -8.6104  -15.7042 C   0  0  2  0  0  0  0  0  0  0  0  0
   23.2213   -8.6927  -14.5785 C   0  0  0  0  0  0  0  0  0  0  0  0
   20.8554   -8.2301  -15.2508 C   0  0  2  0  0  0  0  0  0  0  0  0
   19.9081   -8.1450  -16.3759 N   0  0  0  0  0  0  0  0  0  0  0  0
   20.7537   -7.0150  -14.4509 C   0  0  0  0  0  0  0  0  0  0  0  0
   20.9889   -7.0575  -13.0550 O   0  0  0  0  0  0  0  0  0  0  0  0
   20.4621   -5.8920  -14.9264 O   0  0  0  0  0  0  0  0  0  0  0  0
  2  1  1  0
  3  2  2  0
  4  2  1  0
  5  6  1  0
  5  4  1  0
  6  7  1  6
  8  9  2  0
  8  6  1  0
 11 10  1  1
 11 13  1  0
 11 12  1  0
 12  8  1  0
 13 20  1  0
 14 13  2  0
 16 15  1  0
 17 19  1  0
 17 16  1  0
 17 18  1  1
 19 21  1  0
 19 20  1  6
 21 23  2  0
 21 22  1  0
M  END
$$$$
