QAI.pdb
     RDKit          3D

 23 22  0  0  1  0  0  0  0  0999 V2000
   21.4825  -21.4883  -10.4613 N   0  0  0  0  0  0  0  0  0  0  0  0
   21.7936  -20.4328  -11.3905 C   0  0  0  0  0  0  0  0  0  0  0  0
   20.9171  -20.2242  -12.2647 O   0  0  0  0  0  0  0  0  0  0  0  0
   23.0398  -19.6682  -11.3099 C   0  0  0  0  0  0  0  0  0  0  0  0
   23.9985  -20.1232  -10.2486 C   0  0  0  0  0  0  0  0  0  0  0  0
   25.0099  -21.1233  -10.7473 C   0  0  2  0  0  0  0  0  0  0  0  0
   25.9317  -21.5260   -9.7040 N   0  0  0  0  0  0  0  0  0  0  0  0
   25.7199  -20.6153  -11.9476 C   0  0  0  0  0  0  0  0  0  0  0  0
   26.4287  -19.5900  -11.7984 O   0  0  0  0  0  0  0  0  0  0  0  0
   26.6514  -21.7579  -15.3974 C   0  0  0  0  0  0  0  0  0  0  0  0
   26.3368  -20.6940  -14.3767 C   0  0  2  0  0  0  0  0  0  0  0  0
   25.6546  -21.1954  -13.2238 N   0  0  0  0  0  0  0  0  0  0  0  0
   25.6299  -19.5343  -14.9894 C   0  0  0  0  0  0  0  0  0  0  0  0
   24.3815  -19.4952  -14.8806 O   0  0  0  0  0  0  0  0  0  0  0  0
   26.3738  -14.2136  -14.8935 C   0  0  0  0  0  0  0  0  0  0  0  0
   25.5659  -15.0174  -15.9111 C   0  0  0  0  0  0  0  0  0  0  0  0
   26.3622  -16.1770  -16.4377 C   0  0  2  0  0  0  0  0  0  0  0  0
   26.9409  -15.8759  -17.8051 C   0  0  0  0  0  0  0  0  0  0  0  0
   25.5747  -17.4281  -16.3952 C   0  0  2  0  0  0  0  0  0  0  0  0
   26.2877  -18.4968  -15.6740 N   0  0  0  0  0  0  0  0  0  0  0  0
   25.1087  -17.9477  -17.6757 C   0  0  0  0  0  0  0  0  0  0  0  0
   25.8964  -18.8766  -18.3984 O   0  0  0  0  0  0  0  0  0  0  0  0
   24.0199  -17.6199  -18.2042 O   0  0  0  0  0  0  0  0  0  0  0  0
  2  1  1  0
  3  2  2  0
  4  2  1  0
  5  6  1  0
  5  4  1  0
  6  7  1  1
  8  9  2  0
  8  6  1  0
 11 10  1  6
 11 13  1  0
 11 12  1  0
 12  8  1  0
 13 20  1  0
 14 13  2  0
 16 15  1  0
 17 19  1  0
 17 16  1  0
 17 18  1  6
 19 21  1  0
 19 20  1  6
 21 23  2  0
 21 22  1  0
M  END
$$$$
