QAI.pdb
     RDKit          3D

 23 22  0  0  1  0  0  0  0  0999 V2000
   20.1406  -20.9335  -12.0062 N   0  0  0  0  0  0  0  0  0  0  0  0
   20.5701  -19.7159  -12.6443 C   0  0  0  0  0  0  0  0  0  0  0  0
   19.6927  -19.1460  -13.3383 O   0  0  0  0  0  0  0  0  0  0  0  0
   21.9286  -19.1926  -12.4866 C   0  0  0  0  0  0  0  0  0  0  0  0
   22.7790  -19.9202  -11.4867 C   0  0  0  0  0  0  0  0  0  0  0  0
   23.9521  -20.6338  -12.1082 C   0  0  2  0  0  0  0  0  0  0  0  0
   23.5389  -21.8071  -12.8519 N   0  0  0  0  0  0  0  0  0  0  0  0
   24.9832  -20.9579  -11.0910 C   0  0  0  0  0  0  0  0  0  0  0  0
   24.6250  -21.6767  -10.1262 O   0  0  0  0  0  0  0  0  0  0  0  0
   28.7245  -20.6768  -10.6731 C   0  0  0  0  0  0  0  0  0  0  0  0
   27.3162  -20.8815  -10.1754 C   0  0  2  0  0  0  0  0  0  0  0  0
   26.3163  -20.5211  -11.1325 N   0  0  0  0  0  0  0  0  0  0  0  0
   27.0967  -20.2237   -8.8566 C   0  0  0  0  0  0  0  0  0  0  0  0
   26.4455  -19.1524   -8.8465 O   0  0  0  0  0  0  0  0  0  0  0  0
   29.1287  -20.3081   -3.0176 C   0  0  0  0  0  0  0  0  0  0  0  0
   27.9535  -20.0381   -3.9559 C   0  0  0  0  0  0  0  0  0  0  0  0
   28.1259  -20.7642   -5.2595 C   0  0  2  0  0  0  0  0  0  0  0  0
   29.5578  -21.2185   -5.4551 C   0  0  0  0  0  0  0  0  0  0  0  0
   27.6034  -19.9645   -6.3886 C   0  0  2  0  0  0  0  0  0  0  0  0
   27.5787  -20.7404   -7.6407 N   0  0  0  0  0  0  0  0  0  0  0  0
   28.2555  -18.6837   -6.6358 C   0  0  0  0  0  0  0  0  0  0  0  0
   29.3668  -18.6054   -7.5102 O   0  0  0  0  0  0  0  0  0  0  0  0
   27.8906  -17.6050   -6.1108 O   0  0  0  0  0  0  0  0  0  0  0  0
  2  1  1  0
  3  2  2  0
  4  2  1  0
  5  6  1  0
  5  4  1  0
  6  7  1  1
  8  9  2  0
  8  6  1  0
 11 10  1  6
 11 13  1  0
 11 12  1  0
 12  8  1  0
 13 20  1  0
 14 13  2  0
 16 15  1  0
 17 19  1  0
 17 16  1  0
 17 18  1  6
 19 21  1  0
 19 20  1  6
 21 23  2  0
 21 22  1  0
M  END
$$$$
