QAI.pdb
     RDKit          3D

 23 22  0  0  1  0  0  0  0  0999 V2000
   21.7330  -19.5603  -14.7486 N   0  0  0  0  0  0  0  0  0  0  0  0
   21.6065  -20.7491  -13.9456 C   0  0  0  0  0  0  0  0  0  0  0  0
   20.4302  -21.0429  -13.6197 O   0  0  0  0  0  0  0  0  0  0  0  0
   22.7687  -21.5459  -13.5476 C   0  0  0  0  0  0  0  0  0  0  0  0
   22.9354  -21.7337  -12.0680 C   0  0  0  0  0  0  0  0  0  0  0  0
   23.5428  -20.5383  -11.3795 C   0  0  2  0  0  0  0  0  0  0  0  0
   23.7676  -19.4412  -12.2994 N   0  0  0  0  0  0  0  0  0  0  0  0
   24.7800  -20.9109  -10.6494 C   0  0  0  0  0  0  0  0  0  0  0  0
   24.6550  -21.7065   -9.6863 O   0  0  0  0  0  0  0  0  0  0  0  0
   28.5078  -20.2119  -10.8171 C   0  0  0  0  0  0  0  0  0  0  0  0
   27.2375  -20.7246  -10.1875 C   0  0  2  0  0  0  0  0  0  0  0  0
   26.0659  -20.4408  -10.9574 N   0  0  0  0  0  0  0  0  0  0  0  0
   27.1039  -20.2768   -8.7727 C   0  0  0  0  0  0  0  0  0  0  0  0
   26.2687  -19.3742   -8.5286 O   0  0  0  0  0  0  0  0  0  0  0  0
   29.3144  -21.4065   -3.0300 C   0  0  0  0  0  0  0  0  0  0  0  0
   28.3646  -20.6763   -3.9783 C   0  0  0  0  0  0  0  0  0  0  0  0
   28.5543  -21.1396   -5.3944 C   0  0  2  0  0  0  0  0  0  0  0  0
   30.0226  -21.2861   -5.7373 C   0  0  0  0  0  0  0  0  0  0  0  0
   27.8126  -20.2787   -6.3411 C   0  0  2  0  0  0  0  0  0  0  0  0
   27.8597  -20.8111   -7.7139 N   0  0  0  0  0  0  0  0  0  0  0  0
   28.1828  -18.8683   -6.3653 C   0  0  0  0  0  0  0  0  0  0  0  0
   29.0213  -18.3678   -7.3910 O   0  0  0  0  0  0  0  0  0  0  0  0
   27.7985  -18.0339   -5.5117 O   0  0  0  0  0  0  0  0  0  0  0  0
  2  1  1  0
  3  2  2  0
  4  2  1  0
  5  6  1  0
  5  4  1  0
  6  7  1  6
  8  9  2  0
  8  6  1  0
 11 10  1  6
 11 13  1  0
 11 12  1  0
 12  8  1  0
 13 20  1  0
 14 13  2  0
 16 15  1  0
 17 19  1  0
 17 16  1  0
 17 18  1  6
 19 21  1  0
 19 20  1  6
 21 23  2  0
 21 22  1  0
M  END
$$$$
