QAI.pdb
     RDKit          3D

 23 22  0  0  1  0  0  0  0  0999 V2000
   16.3140   -7.9530  -20.4785 N   0  0  0  0  0  0  0  0  0  0  0  0
   15.2167   -8.6996  -19.9193 C   0  0  0  0  0  0  0  0  0  0  0  0
   14.2583   -8.8977  -20.7058 O   0  0  0  0  0  0  0  0  0  0  0  0
   15.2307   -9.1857  -18.5382 C   0  0  0  0  0  0  0  0  0  0  0  0
   16.4813   -8.8784  -17.7677 C   0  0  0  0  0  0  0  0  0  0  0  0
   17.6050   -9.8442  -18.0443 C   0  0  2  0  0  0  0  0  0  0  0  0
   17.3533  -11.1474  -17.4626 N   0  0  0  0  0  0  0  0  0  0  0  0
   18.9104   -9.2870  -17.6103 C   0  0  0  0  0  0  0  0  0  0  0  0
   19.1362   -9.2611  -16.3757 O   0  0  0  0  0  0  0  0  0  0  0  0
   22.0718   -7.8897  -19.1811 C   0  0  0  0  0  0  0  0  0  0  0  0
   21.1367   -8.2186  -18.0452 C   0  0  2  0  0  0  0  0  0  0  0  0
   19.8990   -8.7923  -18.4749 N   0  0  0  0  0  0  0  0  0  0  0  0
   20.9329   -7.0502  -17.1433 C   0  0  0  0  0  0  0  0  0  0  0  0
   19.9883   -6.2708  -17.4117 O   0  0  0  0  0  0  0  0  0  0  0  0
   19.6639   -5.0636  -12.0813 C   0  0  0  0  0  0  0  0  0  0  0  0
   20.9948   -4.9280  -12.8195 C   0  0  0  0  0  0  0  0  0  0  0  0
   21.2263   -6.0972  -13.7336 C   0  0  2  0  0  0  0  0  0  0  0  0
   22.2803   -7.0334  -13.1791 C   0  0  0  0  0  0  0  0  0  0  0  0
   21.5072   -5.6473  -15.1142 C   0  0  2  0  0  0  0  0  0  0  0  0
   21.7386   -6.7846  -16.0217 N   0  0  0  0  0  0  0  0  0  0  0  0
   22.5880   -4.6818  -15.2769 C   0  0  0  0  0  0  0  0  0  0  0  0
   23.8542   -5.1010  -15.7531 O   0  0  0  0  0  0  0  0  0  0  0  0
   22.4743   -3.4606  -15.0161 O   0  0  0  0  0  0  0  0  0  0  0  0
  2  1  1  0
  3  2  2  0
  4  2  1  0
  5  6  1  0
  5  4  1  0
  6  7  1  1
  8  9  2  0
  8  6  1  0
 11 10  1  6
 11 13  1  0
 11 12  1  0
 12  8  1  0
 13 20  1  0
 14 13  2  0
 16 15  1  0
 17 19  1  0
 17 16  1  0
 17 18  1  1
 19 21  1  0
 19 20  1  6
 21 23  2  0
 21 22  1  0
M  END
$$$$
