QAI.pdb
     RDKit          3D

 23 22  0  0  1  0  0  0  0  0999 V2000
   11.8353   -9.4272  -14.8258 N   0  0  0  0  0  0  0  0  0  0  0  0
   12.2035  -10.5339  -15.6706 C   0  0  0  0  0  0  0  0  0  0  0  0
   11.6418  -10.5503  -16.7933 O   0  0  0  0  0  0  0  0  0  0  0  0
   13.1620  -11.5543  -15.2417 C   0  0  0  0  0  0  0  0  0  0  0  0
   13.7545  -11.3389  -13.8798 C   0  0  0  0  0  0  0  0  0  0  0  0
   15.2607  -11.3946  -13.8687 C   0  0  2  0  0  0  0  0  0  0  0  0
   15.7503  -12.7394  -13.6404 N   0  0  0  0  0  0  0  0  0  0  0  0
   15.8262  -10.4269  -12.8958 C   0  0  0  0  0  0  0  0  0  0  0  0
   15.4619  -10.5430  -11.7000 O   0  0  0  0  0  0  0  0  0  0  0  0
   18.4685   -7.7200  -12.7890 C   0  0  0  0  0  0  0  0  0  0  0  0
   17.2707   -8.4749  -12.2710 C   0  0  2  0  0  0  0  0  0  0  0  0
   16.7300   -9.4022  -13.2163 N   0  0  0  0  0  0  0  0  0  0  0  0
   16.2324   -7.5549  -11.7273 C   0  0  0  0  0  0  0  0  0  0  0  0
   15.3690   -7.1212  -12.5263 O   0  0  0  0  0  0  0  0  0  0  0  0
   13.1535   -8.2506   -7.4450 C   0  0  0  0  0  0  0  0  0  0  0  0
   13.7748   -7.8134   -8.7706 C   0  0  0  0  0  0  0  0  0  0  0  0
   14.6128   -6.5796   -8.5929 C   0  0  2  0  0  0  0  0  0  0  0  0
   13.8362   -5.4776   -7.9019 C   0  0  0  0  0  0  0  0  0  0  0  0
   15.2186   -6.1572   -9.8743 C   0  0  2  0  0  0  0  0  0  0  0  0
   16.1763   -7.1560  -10.3800 N   0  0  0  0  0  0  0  0  0  0  0  0
   15.8485   -4.8421   -9.8941 C   0  0  0  0  0  0  0  0  0  0  0  0
   15.0779   -3.6854  -10.1657 O   0  0  0  0  0  0  0  0  0  0  0  0
   17.0695   -4.6527   -9.6802 O   0  0  0  0  0  0  0  0  0  0  0  0
  2  1  1  0
  3  2  2  0
  4  2  1  0
  5  6  1  0
  5  4  1  0
  6  7  1  1
  8  9  2  0
  8  6  1  0
 11 10  1  6
 11 13  1  0
 11 12  1  0
 12  8  1  0
 13 20  1  0
 14 13  2  0
 16 15  1  0
 17 19  1  0
 17 16  1  0
 17 18  1  6
 19 21  1  0
 19 20  1  1
 21 23  2  0
 21 22  1  0
M  END
$$$$
