QAI.pdb
     RDKit          3D

 23 22  0  0  1  0  0  0  0  0999 V2000
   18.9914  -17.6694  -17.5644 N   0  0  0  0  0  0  0  0  0  0  0  0
   20.2203  -17.2084  -18.1571 C   0  0  0  0  0  0  0  0  0  0  0  0
   21.2418  -17.3671  -17.4446 O   0  0  0  0  0  0  0  0  0  0  0  0
   20.2619  -16.6039  -19.4901 C   0  0  0  0  0  0  0  0  0  0  0  0
   20.9991  -15.2994  -19.5750 C   0  0  0  0  0  0  0  0  0  0  0  0
   20.2986  -14.1708  -18.8627 C   0  0  2  0  0  0  0  0  0  0  0  0
   18.9548  -13.9657  -19.3652 N   0  0  0  0  0  0  0  0  0  0  0  0
   21.1036  -12.9247  -18.9103 C   0  0  0  0  0  0  0  0  0  0  0  0
   22.3317  -13.0308  -18.6725 O   0  0  0  0  0  0  0  0  0  0  0  0
   20.6927   -9.3005  -19.9096 C   0  0  0  0  0  0  0  0  0  0  0  0
   21.3694  -10.4489  -19.2053 C   0  0  2  0  0  0  0  0  0  0  0  0
   20.5927  -11.6500  -19.1994 N   0  0  0  0  0  0  0  0  0  0  0  0
   21.8251  -10.0662  -17.8394 C   0  0  0  0  0  0  0  0  0  0  0  0
   21.0352  -10.2719  -16.8878 O   0  0  0  0  0  0  0  0  0  0  0  0
   26.3459  -11.6791  -15.8101 C   0  0  0  0  0  0  0  0  0  0  0  0
   24.9446  -11.1459  -16.1040 C   0  0  0  0  0  0  0  0  0  0  0  0
   24.8883   -9.6544  -15.9346 C   0  0  2  0  0  0  0  0  0  0  0  0
   25.4280   -9.2297  -14.5844 C   0  0  0  0  0  0  0  0  0  0  0  0
   23.5315   -9.1367  -16.2148 C   0  0  2  0  0  0  0  0  0  0  0  0
   23.0812   -9.4934  -17.5714 N   0  0  0  0  0  0  0  0  0  0  0  0
   23.3238   -7.7085  -16.0051 C   0  0  0  0  0  0  0  0  0  0  0  0
   22.9472   -7.2215  -14.7297 O   0  0  0  0  0  0  0  0  0  0  0  0
   23.4593   -6.8467  -16.9058 O   0  0  0  0  0  0  0  0  0  0  0  0
  2  1  1  0
  3  2  2  0
  4  2  1  0
  5  6  1  0
  5  4  1  0
  6  7  1  6
  8  9  2  0
  8  6  1  0
 11 10  1  1
 11 13  1  0
 11 12  1  0
 12  8  1  0
 13 20  1  0
 14 13  2  0
 16 15  1  0
 17 19  1  0
 17 16  1  0
 17 18  1  1
 19 21  1  0
 19 20  1  6
 21 23  2  0
 21 22  1  0
M  END
$$$$
