QAI.pdb
     RDKit          3D

 23 22  0  0  1  0  0  0  0  0999 V2000
   26.1824  -24.8375  -15.5732 N   0  0  0  0  0  0  0  0  0  0  0  0
   27.1734  -23.8343  -15.8659 C   0  0  0  0  0  0  0  0  0  0  0  0
   28.1544  -24.2412  -16.5352 O   0  0  0  0  0  0  0  0  0  0  0  0
   27.0346  -22.4488  -15.4128 C   0  0  0  0  0  0  0  0  0  0  0  0
   25.7881  -22.1569  -14.6295 C   0  0  0  0  0  0  0  0  0  0  0  0
   24.5604  -22.0160  -15.4925 C   0  0  2  0  0  0  0  0  0  0  0  0
   24.7220  -20.9851  -16.4982 N   0  0  0  0  0  0  0  0  0  0  0  0
   23.3464  -21.7986  -14.6669 C   0  0  0  0  0  0  0  0  0  0  0  0
   23.1141  -22.6389  -13.7637 O   0  0  0  0  0  0  0  0  0  0  0  0
   20.6228  -19.1915  -14.2512 C   0  0  0  0  0  0  0  0  0  0  0  0
   21.2858  -20.5254  -14.0187 C   0  0  2  0  0  0  0  0  0  0  0  0
   22.4498  -20.7304  -14.8242 N   0  0  0  0  0  0  0  0  0  0  0  0
   20.3158  -21.6504  -14.1339 C   0  0  0  0  0  0  0  0  0  0  0  0
   20.1859  -22.1886  -15.2588 O   0  0  0  0  0  0  0  0  0  0  0  0
   18.4214  -26.6790  -11.4917 C   0  0  0  0  0  0  0  0  0  0  0  0
   18.0524  -25.5406  -12.4416 C   0  0  0  0  0  0  0  0  0  0  0  0
   19.0026  -24.3865  -12.2955 C   0  0  2  0  0  0  0  0  0  0  0  0
   19.1708  -23.9880  -10.8436 C   0  0  0  0  0  0  0  0  0  0  0  0
   18.6137  -23.2610  -13.1727 C   0  0  2  0  0  0  0  0  0  0  0  0
   19.5504  -22.1299  -13.0559 N   0  0  0  0  0  0  0  0  0  0  0  0
   17.2496  -22.7653  -13.0293 C   0  0  0  0  0  0  0  0  0  0  0  0
   16.1599  -23.5189  -13.5295 O   0  0  0  0  0  0  0  0  0  0  0  0
   16.9595  -21.6790  -12.4742 O   0  0  0  0  0  0  0  0  0  0  0  0
  2  1  1  0
  3  2  2  0
  4  2  1  0
  5  6  1  0
  5  4  1  0
  6  7  1  6
  8  9  2  0
  8  6  1  0
 11 10  1  6
 11 13  1  0
 11 12  1  0
 12  8  1  0
 13 20  1  0
 14 13  2  0
 16 15  1  0
 17 19  1  0
 17 16  1  0
 17 18  1  1
 19 21  1  0
 19 20  1  1
 21 23  2  0
 21 22  1  0
M  END
$$$$
