QAI.pdb
     RDKit          3D

 23 22  0  0  1  0  0  0  0  0999 V2000
   13.1849  -12.6735  -14.5869 N   0  0  0  0  0  0  0  0  0  0  0  0
   14.2160  -13.5062  -15.1506 C   0  0  0  0  0  0  0  0  0  0  0  0
   13.8201  -14.3193  -16.0213 O   0  0  0  0  0  0  0  0  0  0  0  0
   15.6153  -13.4016  -14.7323 C   0  0  0  0  0  0  0  0  0  0  0  0
   15.8848  -12.3883  -13.6586 C   0  0  0  0  0  0  0  0  0  0  0  0
   15.9075  -10.9702  -14.1687 C   0  0  2  0  0  0  0  0  0  0  0  0
   16.7750  -10.8237  -15.3204 N   0  0  0  0  0  0  0  0  0  0  0  0
   16.2579  -10.0164  -13.0868 C   0  0  0  0  0  0  0  0  0  0  0  0
   15.6212  -10.1183  -12.0097 O   0  0  0  0  0  0  0  0  0  0  0  0
   18.8992   -7.3878  -12.3943 C   0  0  0  0  0  0  0  0  0  0  0  0
   17.6488   -8.1775  -12.1015 C   0  0  2  0  0  0  0  0  0  0  0  0
   17.2409   -9.0195  -13.1833 N   0  0  0  0  0  0  0  0  0  0  0  0
   16.5432   -7.3011  -11.6220 C   0  0  0  0  0  0  0  0  0  0  0  0
   15.7619   -6.8329  -12.4835 O   0  0  0  0  0  0  0  0  0  0  0  0
   12.3649   -6.6670   -7.3527 C   0  0  0  0  0  0  0  0  0  0  0  0
   13.2619   -5.9321   -8.3476 C   0  0  0  0  0  0  0  0  0  0  0  0
   14.4232   -6.7896   -8.7627 C   0  0  2  0  0  0  0  0  0  0  0  0
   15.2329   -7.2428   -7.5652 C   0  0  0  0  0  0  0  0  0  0  0  0
   15.2352   -6.1210   -9.8024 C   0  0  2  0  0  0  0  0  0  0  0  0
   16.3381   -6.9793  -10.2685 N   0  0  0  0  0  0  0  0  0  0  0  0
   15.7663   -4.8048   -9.4669 C   0  0  0  0  0  0  0  0  0  0  0  0
   14.9158   -3.6725   -9.4593 O   0  0  0  0  0  0  0  0  0  0  0  0
   16.9670   -4.5939   -9.1735 O   0  0  0  0  0  0  0  0  0  0  0  0
  2  1  1  0
  3  2  2  0
  4  2  1  0
  5  6  1  0
  5  4  1  0
  6  7  1  6
  8  9  2  0
  8  6  1  0
 11 10  1  6
 11 13  1  0
 11 12  1  0
 12  8  1  0
 13 20  1  0
 14 13  2  0
 16 15  1  0
 17 19  1  0
 17 16  1  0
 17 18  1  1
 19 21  1  0
 19 20  1  1
 21 23  2  0
 21 22  1  0
M  END
$$$$
