QAI.pdb
     RDKit          3D

 23 22  0  0  1  0  0  0  0  0999 V2000
   31.3536  -24.7690  -16.4071 N   0  0  0  0  0  0  0  0  0  0  0  0
   31.4310  -24.1609  -17.7103 C   0  0  0  0  0  0  0  0  0  0  0  0
   32.1789  -24.7542  -18.5257 O   0  0  0  0  0  0  0  0  0  0  0  0
   30.6882  -22.9446  -18.0462 C   0  0  0  0  0  0  0  0  0  0  0  0
   29.8268  -22.3999  -16.9445 C   0  0  0  0  0  0  0  0  0  0  0  0
   28.3810  -22.8098  -17.0595 C   0  0  2  0  0  0  0  0  0  0  0  0
   27.9498  -22.8892  -18.4408 N   0  0  0  0  0  0  0  0  0  0  0  0
   27.5056  -21.9200  -16.2566 C   0  0  0  0  0  0  0  0  0  0  0  0
   27.8436  -21.7125  -15.0655 O   0  0  0  0  0  0  0  0  0  0  0  0
   24.5689  -19.6008  -16.8340 C   0  0  0  0  0  0  0  0  0  0  0  0
   25.5674  -20.3517  -15.9903 C   0  0  2  0  0  0  0  0  0  0  0  0
   26.3389  -21.3012  -16.7313 N   0  0  0  0  0  0  0  0  0  0  0  0
   24.9276  -20.9599  -14.7899 C   0  0  0  0  0  0  0  0  0  0  0  0
   24.3247  -22.0481  -14.9452 O   0  0  0  0  0  0  0  0  0  0  0  0
   25.2324  -21.0416   -8.6203 C   0  0  0  0  0  0  0  0  0  0  0  0
   24.4622  -21.3626   -9.9002 C   0  0  0  0  0  0  0  0  0  0  0  0
   25.0881  -20.6915  -11.0894 C   0  0  2  0  0  0  0  0  0  0  0  0
   25.2866  -19.2092  -10.8478 C   0  0  0  0  0  0  0  0  0  0  0  0
   24.3359  -20.9899  -12.3273 C   0  0  2  0  0  0  0  0  0  0  0  0
   24.9678  -20.3790  -13.5097 N   0  0  0  0  0  0  0  0  0  0  0  0
   22.9159  -20.6577  -12.3222 C   0  0  0  0  0  0  0  0  0  0  0  0
   21.9829  -21.5214  -11.6986 O   0  0  0  0  0  0  0  0  0  0  0  0
   22.4421  -19.6235  -12.8497 O   0  0  0  0  0  0  0  0  0  0  0  0
  2  1  1  0
  3  2  2  0
  4  2  1  0
  5  6  1  0
  5  4  1  0
  6  7  1  6
  8  9  2  0
  8  6  1  0
 11 10  1  6
 11 13  1  0
 11 12  1  0
 12  8  1  0
 13 20  1  0
 14 13  2  0
 16 15  1  0
 17 19  1  0
 17 16  1  0
 17 18  1  1
 19 21  1  0
 19 20  1  6
 21 23  2  0
 21 22  1  0
M  END
$$$$
