QAI.pdb
     RDKit          3D

 23 22  0  0  1  0  0  0  0  0999 V2000
   19.4172  -20.7467  -11.1872 N   0  0  0  0  0  0  0  0  0  0  0  0
   19.7431  -19.5805  -11.9670 C   0  0  0  0  0  0  0  0  0  0  0  0
   18.7783  -19.0791  -12.5946 O   0  0  0  0  0  0  0  0  0  0  0  0
   21.0995  -19.0311  -12.0146 C   0  0  0  0  0  0  0  0  0  0  0  0
   22.0999  -19.7282  -11.1398 C   0  0  0  0  0  0  0  0  0  0  0  0
   23.1635  -20.4612  -11.9167 C   0  0  2  0  0  0  0  0  0  0  0  0
   22.6207  -21.5936  -12.6401 N   0  0  0  0  0  0  0  0  0  0  0  0
   24.2935  -20.8552  -11.0388 C   0  0  0  0  0  0  0  0  0  0  0  0
   24.0245  -21.5983  -10.0634 O   0  0  0  0  0  0  0  0  0  0  0  0
   28.0662  -20.6657  -11.0117 C   0  0  0  0  0  0  0  0  0  0  0  0
   26.7119  -20.8537  -10.3766 C   0  0  2  0  0  0  0  0  0  0  0  0
   25.6273  -20.4589  -11.2214 N   0  0  0  0  0  0  0  0  0  0  0  0
   26.6402  -20.2150   -9.0324 C   0  0  0  0  0  0  0  0  0  0  0  0
   25.9736  -19.1581   -8.9296 O   0  0  0  0  0  0  0  0  0  0  0  0
   28.6336  -20.9254   -3.1432 C   0  0  0  0  0  0  0  0  0  0  0  0
   27.8875  -20.1359   -4.2177 C   0  0  0  0  0  0  0  0  0  0  0  0
   27.9584  -20.8330   -5.5463 C   0  0  2  0  0  0  0  0  0  0  0  0
   29.3650  -21.3076   -5.8484 C   0  0  0  0  0  0  0  0  0  0  0  0
   27.3770  -19.9970   -6.6189 C   0  0  2  0  0  0  0  0  0  0  0  0
   27.2758  -20.7342   -7.8904 N   0  0  0  0  0  0  0  0  0  0  0  0
   28.0218  -18.7122   -6.8645 C   0  0  0  0  0  0  0  0  0  0  0  0
   29.0731  -18.6097   -7.8078 O   0  0  0  0  0  0  0  0  0  0  0  0
   27.7014  -17.6505   -6.2792 O   0  0  0  0  0  0  0  0  0  0  0  0
  2  1  1  0
  3  2  2  0
  4  2  1  0
  5  6  1  0
  5  4  1  0
  6  7  1  1
  8  9  2  0
  8  6  1  0
 11 10  1  6
 11 13  1  0
 11 12  1  0
 12  8  1  0
 13 20  1  0
 14 13  2  0
 16 15  1  0
 17 19  1  0
 17 16  1  0
 17 18  1  6
 19 21  1  0
 19 20  1  6
 21 23  2  0
 21 22  1  0
M  END
$$$$
