QAI.pdb
     RDKit          3D

 23 22  0  0  1  0  0  0  0  0999 V2000
   19.3178  -16.7248  -15.3715 N   0  0  0  0  0  0  0  0  0  0  0  0
   18.0694  -16.7359  -16.0896 C   0  0  0  0  0  0  0  0  0  0  0  0
   17.2971  -17.6793  -15.7904 O   0  0  0  0  0  0  0  0  0  0  0  0
   17.7380  -15.7179  -17.0886 C   0  0  0  0  0  0  0  0  0  0  0  0
   18.7502  -14.6202  -17.2391 C   0  0  0  0  0  0  0  0  0  0  0  0
   18.4386  -13.6719  -18.3684 C   0  0  2  0  0  0  0  0  0  0  0  0
   18.8827  -14.1896  -19.6471 N   0  0  0  0  0  0  0  0  0  0  0  0
   18.9852  -12.3186  -18.0990 C   0  0  0  0  0  0  0  0  0  0  0  0
   20.2216  -12.1632  -18.2515 O   0  0  0  0  0  0  0  0  0  0  0  0
   17.6992   -8.8479  -17.2820 C   0  0  0  0  0  0  0  0  0  0  0  0
   18.7580   -9.9084  -17.4462 C   0  0  2  0  0  0  0  0  0  0  0  0
   18.2242  -11.2127  -17.6901 N   0  0  0  0  0  0  0  0  0  0  0  0
   19.7275   -9.8990  -16.3148 C   0  0  0  0  0  0  0  0  0  0  0  0
   19.4554  -10.6045  -15.3148 O   0  0  0  0  0  0  0  0  0  0  0  0
   25.3816  -10.6093  -14.7932 C   0  0  0  0  0  0  0  0  0  0  0  0
   24.0820   -9.9049  -14.4066 C   0  0  0  0  0  0  0  0  0  0  0  0
   23.1490   -9.8118  -15.5800 C   0  0  2  0  0  0  0  0  0  0  0  0
   23.8235   -9.1685  -16.7742 C   0  0  0  0  0  0  0  0  0  0  0  0
   21.8778   -9.1582  -15.2002 C   0  0  2  0  0  0  0  0  0  0  0  0
   20.9158   -9.1470  -16.3159 N   0  0  0  0  0  0  0  0  0  0  0  0
   21.9780   -7.8132  -14.6454 C   0  0  0  0  0  0  0  0  0  0  0  0
   21.4858   -6.7023  -15.3730 O   0  0  0  0  0  0  0  0  0  0  0  0
   22.4875   -7.5581  -13.5284 O   0  0  0  0  0  0  0  0  0  0  0  0
  2  1  1  0
  3  2  2  0
  4  2  1  0
  5  6  1  0
  5  4  1  0
  6  7  1  6
  8  9  2  0
  8  6  1  0
 11 10  1  1
 11 13  1  0
 11 12  1  0
 12  8  1  0
 13 20  1  0
 14 13  2  0
 16 15  1  0
 17 19  1  0
 17 16  1  0
 17 18  1  6
 19 21  1  0
 19 20  1  6
 21 23  2  0
 21 22  1  0
M  END
$$$$
