QAI.pdb
     RDKit          3D

 23 22  0  0  1  0  0  0  0  0999 V2000
   30.6092  -17.2254  -18.0014 N   0  0  0  0  0  0  0  0  0  0  0  0
   30.5318  -18.6130  -18.3793 C   0  0  0  0  0  0  0  0  0  0  0  0
   31.3122  -18.9528  -19.3021 O   0  0  0  0  0  0  0  0  0  0  0  0
   29.6102  -19.5460  -17.7280 C   0  0  0  0  0  0  0  0  0  0  0  0
   28.8458  -18.9799  -16.5672 C   0  0  0  0  0  0  0  0  0  0  0  0
   27.3554  -19.1717  -16.6836 C   0  0  2  0  0  0  0  0  0  0  0  0
   26.7841  -18.3462  -17.7288 N   0  0  0  0  0  0  0  0  0  0  0  0
   26.6831  -18.9559  -15.3781 C   0  0  0  0  0  0  0  0  0  0  0  0
   26.9872  -17.9146  -14.7463 O   0  0  0  0  0  0  0  0  0  0  0  0
   23.5222  -19.4387  -13.8271 C   0  0  0  0  0  0  0  0  0  0  0  0
   25.0095  -19.5528  -13.6089 C   0  0  2  0  0  0  0  0  0  0  0  0
   25.7413  -19.8257  -14.8072 N   0  0  0  0  0  0  0  0  0  0  0  0
   25.3344  -20.5154  -12.5190 C   0  0  0  0  0  0  0  0  0  0  0  0
   25.4678  -21.7215  -12.8339 O   0  0  0  0  0  0  0  0  0  0  0  0
   27.4711  -19.2500   -7.3078 C   0  0  0  0  0  0  0  0  0  0  0  0
   26.3944  -19.5334   -8.3541 C   0  0  0  0  0  0  0  0  0  0  0  0
   26.7317  -20.7568   -9.1577 C   0  0  2  0  0  0  0  0  0  0  0  0
   28.0697  -20.6110   -9.8532 C   0  0  0  0  0  0  0  0  0  0  0  0
   25.6280  -21.1133  -10.0753 C   0  0  2  0  0  0  0  0  0  0  0  0
   25.4960  -20.1400  -11.1734 N   0  0  0  0  0  0  0  0  0  0  0  0
   24.3191  -21.3248   -9.4678 C   0  0  0  0  0  0  0  0  0  0  0  0
   24.1159  -22.3971   -8.5654 O   0  0  0  0  0  0  0  0  0  0  0  0
   23.3220  -20.5991   -9.6946 O   0  0  0  0  0  0  0  0  0  0  0  0
  2  1  1  0
  3  2  2  0
  4  2  1  0
  5  6  1  0
  5  4  1  0
  6  7  1  6
  8  9  2  0
  8  6  1  0
 11 10  1  6
 11 13  1  0
 11 12  1  0
 12  8  1  0
 13 20  1  0
 14 13  2  0
 16 15  1  0
 17 19  1  0
 17 16  1  0
 17 18  1  6
 19 21  1  0
 19 20  1  6
 21 23  2  0
 21 22  1  0
M  END
$$$$
