QAI.pdb
     RDKit          3D

 23 22  0  0  1  0  0  0  0  0999 V2000
   15.7878  -13.9393  -19.5821 N   0  0  0  0  0  0  0  0  0  0  0  0
   16.9231  -13.4689  -18.8312 C   0  0  0  0  0  0  0  0  0  0  0  0
   17.8673  -13.0215  -19.5272 O   0  0  0  0  0  0  0  0  0  0  0  0
   16.9601  -13.5132  -17.3680 C   0  0  0  0  0  0  0  0  0  0  0  0
   17.3059  -12.2146  -16.7002 C   0  0  0  0  0  0  0  0  0  0  0  0
   18.7860  -11.9308  -16.6775 C   0  0  2  0  0  0  0  0  0  0  0  0
   19.5289  -12.9873  -16.0201 N   0  0  0  0  0  0  0  0  0  0  0  0
   19.0684  -10.6015  -16.0808 C   0  0  0  0  0  0  0  0  0  0  0  0
   18.1306  -10.0464  -15.4576 O   0  0  0  0  0  0  0  0  0  0  0  0
   22.0487   -8.3727  -15.4263 C   0  0  0  0  0  0  0  0  0  0  0  0
   20.5757   -8.6710  -15.5436 C   0  0  2  0  0  0  0  0  0  0  0  0
   20.2975   -9.9294  -16.1642 N   0  0  0  0  0  0  0  0  0  0  0  0
   19.8358   -7.5496  -16.1878 C   0  0  0  0  0  0  0  0  0  0  0  0
   19.7027   -7.5854  -17.4340 O   0  0  0  0  0  0  0  0  0  0  0  0
   15.2344   -4.6844  -17.4664 C   0  0  0  0  0  0  0  0  0  0  0  0
   16.4415   -4.2735  -16.6247 C   0  0  0  0  0  0  0  0  0  0  0  0
   17.1293   -5.4761  -16.0444 C   0  0  2  0  0  0  0  0  0  0  0  0
   16.6277   -5.7807  -14.6477 C   0  0  0  0  0  0  0  0  0  0  0  0
   18.5998   -5.3397  -16.1241 C   0  0  2  0  0  0  0  0  0  0  0  0
   19.2880   -6.4687  -15.4742 N   0  0  0  0  0  0  0  0  0  0  0  0
   19.1654   -4.0899  -15.6294 C   0  0  0  0  0  0  0  0  0  0  0  0
   19.9214   -4.0729  -14.4320 O   0  0  0  0  0  0  0  0  0  0  0  0
   19.0261   -2.9864  -16.2086 O   0  0  0  0  0  0  0  0  0  0  0  0
  2  1  1  0
  3  2  2  0
  4  2  1  0
  5  6  1  0
  5  4  1  0
  6  7  1  1
  8  9  2  0
  8  6  1  0
 11 10  1  6
 11 13  1  0
 11 12  1  0
 12  8  1  0
 13 20  1  0
 14 13  2  0
 16 15  1  0
 17 19  1  0
 17 16  1  0
 17 18  1  1
 19 21  1  0
 19 20  1  1
 21 23  2  0
 21 22  1  0
M  END
$$$$
