PFC.pdb
     RDKit          3D

 25 26  0  0  1  0  0  0  0  0999 V2000
    7.3940  -14.9870   20.2456 N   0  0  0  0  0  0  0  0  0  0  0  0
    6.5758  -13.9988   19.5921 C   0  0  0  0  0  0  0  0  0  0  0  0
    7.1724  -12.6682   19.9985 C   0  0  0  0  0  0  0  0  0  0  0  0
    8.6483  -12.9944   20.0233 C   0  0  0  0  0  0  0  0  0  0  0  0
    8.6763  -14.3974   20.5124 C   0  0  1  0  0  0  0  0  0  0  0  0
    9.0707  -14.5699   21.9080 C   0  0  0  0  0  0  0  0  0  0  0  0
   10.1871  -14.1281   22.2848 O   0  0  0  0  0  0  0  0  0  0  0  0
    8.2529  -15.2142   22.8640 N   0  0  0  0  0  0  0  0  0  0  0  0
    8.6201  -15.3341   24.2740 C   0  0  1  0  0  0  0  0  0  0  0  0
    7.3670  -15.1937   25.0813 C   0  0  0  0  0  0  0  0  0  0  0  0
    7.1358  -13.8877   25.6724 C   0  0  0  0  0  0  0  0  0  0  0  0
    7.8375  -13.6066   26.8522 C   0  0  0  0  0  0  0  0  0  0  0  0
    7.6927  -12.3966   27.4971 C   0  0  0  0  0  0  0  0  0  0  0  0
    6.8310  -11.4655   26.9427 C   0  0  0  0  0  0  0  0  0  0  0  0
    6.1422  -11.7555   25.7747 C   0  0  0  0  0  0  0  0  0  0  0  0
    6.2847  -12.9643   25.1274 C   0  0  0  0  0  0  0  0  0  0  0  0
    9.1576  -16.7105   24.5142 C   0  0  0  0  0  0  0  0  0  0  0  0
    8.5516  -17.7088   24.0459 O   0  0  0  0  0  0  0  0  0  0  0  0
   10.3308  -16.9533   25.2524 N   0  0  0  0  0  0  0  0  0  0  0  0
   10.8809  -18.2709   25.5061 C   0  0  1  0  0  0  0  0  0  0  0  0
   12.2038  -18.4740   24.8061 C   0  0  0  0  0  0  0  0  0  0  0  0
   13.0807  -16.8928   24.7779 S   0  0  0  0  0  0  0  0  0  0  0  0
   11.1169  -18.4639   26.9602 C   0  0  0  0  0  0  0  0  0  0  0  0
   10.8351  -17.4693   27.8825 O   0  0  0  0  0  0  0  0  0  0  0  0
   11.5834  -19.5474   27.3920 O   0  0  0  0  0  0  0  0  0  0  0  0
  1  2  1  0
  3  2  1  0
  4  5  1  0
  4  3  1  0
  5  1  1  0
  5  6  1  1
  6  7  2  0
  8  6  1  0
  8  9  1  0
  9 17  1  0
  9 10  1  1
 10 11  1  0
 11 16  1  0
 12 11  2  0
 12 13  1  0
 13 14  2  0
 14 15  1  0
 16 15  2  0
 17 18  2  0
 19 20  1  0
 19 17  1  0
 20 23  1  0
 20 21  1  6
 22 21  1  0
 23 25  2  0
 23 24  1  0
M  END
$$$$
