PFC.pdb
     RDKit          3D

 25 26  0  0  1  0  0  0  0  0999 V2000
    8.3029  -14.8933   19.7230 N   0  0  0  0  0  0  0  0  0  0  0  0
    8.2989  -15.8475   18.6448 C   0  0  0  0  0  0  0  0  0  0  0  0
    7.9231  -17.1640   19.2909 C   0  0  0  0  0  0  0  0  0  0  0  0
    6.9224  -16.7147   20.3310 C   0  0  0  0  0  0  0  0  0  0  0  0
    7.4564  -15.3984   20.7676 C   0  0  1  0  0  0  0  0  0  0  0  0
    8.1325  -15.3913   22.0622 C   0  0  0  0  0  0  0  0  0  0  0  0
    9.3836  -15.2607   22.0954 O   0  0  0  0  0  0  0  0  0  0  0  0
    7.4444  -15.5251   23.2896 N   0  0  0  0  0  0  0  0  0  0  0  0
    8.1007  -15.3887   24.5889 C   0  0  1  0  0  0  0  0  0  0  0  0
    7.0405  -15.0855   25.6015 C   0  0  0  0  0  0  0  0  0  0  0  0
    6.9581  -13.7036   26.0399 C   0  0  0  0  0  0  0  0  0  0  0  0
    8.1552  -12.9754   26.0274 C   0  0  0  0  0  0  0  0  0  0  0  0
    8.1911  -11.6553   26.4237 C   0  0  0  0  0  0  0  0  0  0  0  0
    7.0062  -11.0695   26.8354 C   0  0  0  0  0  0  0  0  0  0  0  0
    5.8281  -11.8006   26.8434 C   0  0  0  0  0  0  0  0  0  0  0  0
    5.7886  -13.1207   26.4478 C   0  0  0  0  0  0  0  0  0  0  0  0
    8.7116  -16.7045   24.9580 C   0  0  0  0  0  0  0  0  0  0  0  0
    8.0502  -17.7646   24.8092 O   0  0  0  0  0  0  0  0  0  0  0  0
   10.0155  -16.8223   25.4742 N   0  0  0  0  0  0  0  0  0  0  0  0
   10.6597  -18.0820   25.7922 C   0  0  1  0  0  0  0  0  0  0  0  0
   12.0886  -18.1235   25.3044 C   0  0  0  0  0  0  0  0  0  0  0  0
   12.0945  -17.7692   23.5312 S   0  0  0  0  0  0  0  0  0  0  0  0
   10.6891  -18.2936   27.2625 C   0  0  0  0  0  0  0  0  0  0  0  0
   11.2749  -19.4158   27.8256 O   0  0  0  0  0  0  0  0  0  0  0  0
   10.1770  -17.4490   28.0385 O   0  0  0  0  0  0  0  0  0  0  0  0
  1  2  1  0
  3  2  1  0
  4  5  1  0
  4  3  1  0
  5  1  1  0
  5  6  1  1
  6  7  2  0
  8  6  1  0
  8  9  1  0
  9 17  1  0
  9 10  1  1
 10 11  1  0
 11 16  1  0
 12 11  2  0
 12 13  1  0
 13 14  2  0
 14 15  1  0
 16 15  2  0
 17 18  2  0
 19 20  1  0
 19 17  1  0
 20 23  1  0
 20 21  1  1
 22 21  1  0
 23 25  2  0
 23 24  1  0
M  END
$$$$
