PFC.pdb
     RDKit          3D

 25 26  0  0  1  0  0  0  0  0999 V2000
    7.1943  -14.7705   20.5100 N   0  0  0  0  0  0  0  0  0  0  0  0
    6.5310  -13.6180   19.9579 C   0  0  0  0  0  0  0  0  0  0  0  0
    7.4034  -12.4433   20.3460 C   0  0  0  0  0  0  0  0  0  0  0  0
    8.7860  -13.0437   20.2321 C   0  0  0  0  0  0  0  0  0  0  0  0
    8.5834  -14.4465   20.6788 C   0  0  1  0  0  0  0  0  0  0  0  0
    9.0492  -14.7507   22.0292 C   0  0  0  0  0  0  0  0  0  0  0  0
   10.2550  -14.5391   22.3200 O   0  0  0  0  0  0  0  0  0  0  0  0
    8.2046  -15.2756   23.0337 N   0  0  0  0  0  0  0  0  0  0  0  0
    8.6215  -15.4229   24.4273 C   0  0  1  0  0  0  0  0  0  0  0  0
    7.4152  -15.2021   25.2861 C   0  0  0  0  0  0  0  0  0  0  0  0
    7.2189  -13.8467   25.7685 C   0  0  0  0  0  0  0  0  0  0  0  0
    8.3768  -13.1339   26.1072 C   0  0  0  0  0  0  0  0  0  0  0  0
    8.3058  -11.8392   26.5759 C   0  0  0  0  0  0  0  0  0  0  0  0
    7.0532  -11.2631   26.7021 C   0  0  0  0  0  0  0  0  0  0  0  0
    5.9148  -11.9788   26.3637 C   0  0  0  0  0  0  0  0  0  0  0  0
    5.9822  -13.2735   25.8947 C   0  0  0  0  0  0  0  0  0  0  0  0
    9.0766  -16.8322   24.6453 C   0  0  0  0  0  0  0  0  0  0  0  0
    8.3199  -17.7886   24.3354 O   0  0  0  0  0  0  0  0  0  0  0  0
   10.3339  -17.1522   25.1906 N   0  0  0  0  0  0  0  0  0  0  0  0
   10.8384  -18.5026   25.3486 C   0  0  1  0  0  0  0  0  0  0  0  0
   12.1718  -18.6900   24.6644 C   0  0  0  0  0  0  0  0  0  0  0  0
   13.2372  -17.2967   25.1041 S   0  0  0  0  0  0  0  0  0  0  0  0
   11.0322  -18.8195   26.7872 C   0  0  0  0  0  0  0  0  0  0  0  0
   10.8107  -17.8762   27.7774 O   0  0  0  0  0  0  0  0  0  0  0  0
   11.4061  -19.9648   27.1429 O   0  0  0  0  0  0  0  0  0  0  0  0
  1  2  1  0
  3  2  1  0
  4  5  1  0
  4  3  1  0
  5  1  1  0
  5  6  1  1
  6  7  2  0
  8  6  1  0
  8  9  1  0
  9 17  1  0
  9 10  1  1
 10 11  1  0
 11 16  1  0
 12 11  2  0
 12 13  1  0
 13 14  2  0
 14 15  1  0
 16 15  2  0
 17 18  2  0
 19 20  1  0
 19 17  1  0
 20 23  1  0
 20 21  1  6
 22 21  1  0
 23 25  2  0
 23 24  1  0
M  END
$$$$
