PFC.pdb
     RDKit          3D

 25 26  0  0  1  0  0  0  0  0999 V2000
    7.7535  -16.1368   20.0884 N   0  0  0  0  0  0  0  0  0  0  0  0
    7.0135  -15.6312   18.9616 C   0  0  0  0  0  0  0  0  0  0  0  0
    7.5060  -14.2117   18.7771 C   0  0  0  0  0  0  0  0  0  0  0  0
    8.9705  -14.3531   19.1239 C   0  0  0  0  0  0  0  0  0  0  0  0
    8.9653  -15.3743   20.2035 C   0  0  1  0  0  0  0  0  0  0  0  0
    9.1538  -14.8602   21.5575 C   0  0  0  0  0  0  0  0  0  0  0  0
   10.2244  -14.2616   21.8384 O   0  0  0  0  0  0  0  0  0  0  0  0
    8.1843  -15.0033   22.5760 N   0  0  0  0  0  0  0  0  0  0  0  0
    8.3161  -14.3825   23.8932 C   0  0  1  0  0  0  0  0  0  0  0  0
    7.0313  -13.6733   24.1895 C   0  0  0  0  0  0  0  0  0  0  0  0
    6.9997  -12.9058   25.4217 C   0  0  0  0  0  0  0  0  0  0  0  0
    5.9910  -13.2390   26.3356 C   0  0  0  0  0  0  0  0  0  0  0  0
    5.8691  -12.5739   27.5372 C   0  0  0  0  0  0  0  0  0  0  0  0
    6.7752  -11.5646   27.8144 C   0  0  0  0  0  0  0  0  0  0  0  0
    7.7690  -11.2441   26.9020 C   0  0  0  0  0  0  0  0  0  0  0  0
    7.8937  -11.9071   25.6997 C   0  0  0  0  0  0  0  0  0  0  0  0
    8.4805  -15.4616   24.9176 C   0  0  0  0  0  0  0  0  0  0  0  0
    8.5784  -15.1584   26.1349 O   0  0  0  0  0  0  0  0  0  0  0  0
    8.5326  -16.8280   24.5848 N   0  0  0  0  0  0  0  0  0  0  0  0
    8.5911  -17.9053   25.5538 C   0  0  1  0  0  0  0  0  0  0  0  0
    7.8552  -19.1345   25.0754 C   0  0  0  0  0  0  0  0  0  0  0  0
    6.1374  -18.6763   24.7454 S   0  0  0  0  0  0  0  0  0  0  0  0
   10.0005  -18.3038   25.8029 C   0  0  0  0  0  0  0  0  0  0  0  0
   10.3235  -19.3400   26.6639 O   0  0  0  0  0  0  0  0  0  0  0  0
   10.9436  -17.7025   25.2311 O   0  0  0  0  0  0  0  0  0  0  0  0
  1  2  1  0
  3  2  1  0
  4  5  1  0
  4  3  1  0
  5  1  1  0
  5  6  1  1
  6  7  2  0
  8  6  1  0
  8  9  1  0
  9 17  1  0
  9 10  1  1
 10 11  1  0
 11 16  1  0
 12 11  2  0
 12 13  1  0
 13 14  2  0
 14 15  1  0
 16 15  2  0
 17 18  2  0
 19 20  1  0
 19 17  1  0
 20 23  1  0
 20 21  1  6
 22 21  1  0
 23 25  2  0
 23 24  1  0
M  END
$$$$
