PFC.pdb
     RDKit          3D

 25 26  0  0  1  0  0  0  0  0999 V2000
    7.6863  -15.3093   19.2769 N   0  0  0  0  0  0  0  0  0  0  0  0
    6.9827  -14.5713   18.2603 C   0  0  0  0  0  0  0  0  0  0  0  0
    7.5117  -13.1571   18.3689 C   0  0  0  0  0  0  0  0  0  0  0  0
    8.9647  -13.4035   18.7053 C   0  0  0  0  0  0  0  0  0  0  0  0
    8.9125  -14.6173   19.5610 C   0  0  1  0  0  0  0  0  0  0  0  0
    9.0834  -14.3860   20.9929 C   0  0  0  0  0  0  0  0  0  0  0  0
   10.1921  -13.9658   21.4142 O   0  0  0  0  0  0  0  0  0  0  0  0
    8.0556  -14.6131   21.9363 N   0  0  0  0  0  0  0  0  0  0  0  0
    8.2240  -14.3763   23.3692 C   0  0  1  0  0  0  0  0  0  0  0  0
    6.9336  -13.8251   23.8912 C   0  0  0  0  0  0  0  0  0  0  0  0
    6.9571  -13.3431   25.2607 C   0  0  0  0  0  0  0  0  0  0  0  0
    7.5895  -12.1111   25.4750 C   0  0  0  0  0  0  0  0  0  0  0  0
    7.6693  -11.5602   26.7364 C   0  0  0  0  0  0  0  0  0  0  0  0
    7.1045  -12.2624   27.7875 C   0  0  0  0  0  0  0  0  0  0  0  0
    6.4814  -13.4806   27.5627 C   0  0  0  0  0  0  0  0  0  0  0  0
    6.3999  -14.0342   26.3027 C   0  0  0  0  0  0  0  0  0  0  0  0
    8.4591  -15.6896   24.0479 C   0  0  0  0  0  0  0  0  0  0  0  0
    7.6364  -16.6291   23.8939 O   0  0  0  0  0  0  0  0  0  0  0  0
    9.5763  -15.9356   24.8677 N   0  0  0  0  0  0  0  0  0  0  0  0
    9.8193  -17.1816   25.5686 C   0  0  1  0  0  0  0  0  0  0  0  0
   11.0821  -17.8595   25.0922 C   0  0  0  0  0  0  0  0  0  0  0  0
   11.1023  -17.8182   23.2845 S   0  0  0  0  0  0  0  0  0  0  0  0
    9.9731  -16.9362   27.0259 C   0  0  0  0  0  0  0  0  0  0  0  0
   10.1428  -17.9756   27.9259 O   0  0  0  0  0  0  0  0  0  0  0  0
    9.9524  -15.7655   27.4809 O   0  0  0  0  0  0  0  0  0  0  0  0
  1  2  1  0
  3  2  1  0
  4  5  1  0
  4  3  1  0
  5  1  1  0
  5  6  1  1
  6  7  2  0
  8  6  1  0
  8  9  1  0
  9 17  1  0
  9 10  1  1
 10 11  1  0
 11 16  1  0
 12 11  2  0
 12 13  1  0
 13 14  2  0
 14 15  1  0
 16 15  2  0
 17 18  2  0
 19 20  1  0
 19 17  1  0
 20 23  1  0
 20 21  1  6
 22 21  1  0
 23 25  2  0
 23 24  1  0
M  END
$$$$
