PFC.pdb
     RDKit          3D

 25 26  0  0  1  0  0  0  0  0999 V2000
    7.8824  -15.6572   20.6575 N   0  0  0  0  0  0  0  0  0  0  0  0
    6.9561  -14.9701   19.7955 C   0  0  0  0  0  0  0  0  0  0  0  0
    7.3350  -13.5084   19.9025 C   0  0  0  0  0  0  0  0  0  0  0  0
    8.8404  -13.5941   20.0102 C   0  0  0  0  0  0  0  0  0  0  0  0
    9.0528  -14.8366   20.7974 C   0  0  1  0  0  0  0  0  0  0  0  0
    9.4107  -14.6400   22.1997 C   0  0  0  0  0  0  0  0  0  0  0  0
   10.3718  -13.8785   22.4823 O   0  0  0  0  0  0  0  0  0  0  0  0
    8.7245  -15.2685   23.2636 N   0  0  0  0  0  0  0  0  0  0  0  0
    8.9523  -14.9303   24.6677 C   0  0  1  0  0  0  0  0  0  0  0  0
    7.6279  -14.9758   25.3644 C   0  0  0  0  0  0  0  0  0  0  0  0
    7.0757  -13.6932   25.7625 C   0  0  0  0  0  0  0  0  0  0  0  0
    7.7280  -13.0353   26.8138 C   0  0  0  0  0  0  0  0  0  0  0  0
    7.2876  -11.8116   27.2718 C   0  0  0  0  0  0  0  0  0  0  0  0
    6.1791  -11.2512   26.6605 C   0  0  0  0  0  0  0  0  0  0  0  0
    5.5422  -11.9121   25.6211 C   0  0  0  0  0  0  0  0  0  0  0  0
    5.9799  -13.1356   25.1607 C   0  0  0  0  0  0  0  0  0  0  0  0
    9.8190  -15.9857   25.2806 C   0  0  0  0  0  0  0  0  0  0  0  0
    9.9050  -17.1174   24.7373 O   0  0  0  0  0  0  0  0  0  0  0  0
   10.5597  -15.7755   26.4586 N   0  0  0  0  0  0  0  0  0  0  0  0
   11.4335  -16.7620   27.0637 C   0  0  1  0  0  0  0  0  0  0  0  0
   12.2377  -16.1803   28.2021 C   0  0  0  0  0  0  0  0  0  0  0  0
   11.1550  -15.1037   29.1711 S   0  0  0  0  0  0  0  0  0  0  0  0
   10.6395  -17.8900   27.6157 C   0  0  0  0  0  0  0  0  0  0  0  0
   11.2449  -19.0329   28.1122 O   0  0  0  0  0  0  0  0  0  0  0  0
    9.3850  -17.8323   27.6451 O   0  0  0  0  0  0  0  0  0  0  0  0
  1  2  1  0
  3  2  1  0
  4  5  1  0
  4  3  1  0
  5  1  1  0
  5  6  1  1
  6  7  2  0
  8  6  1  0
  8  9  1  0
  9 17  1  0
  9 10  1  1
 10 11  1  0
 11 16  1  0
 12 11  2  0
 12 13  1  0
 13 14  2  0
 14 15  1  0
 16 15  2  0
 17 18  2  0
 19 20  1  0
 19 17  1  0
 20 23  1  0
 20 21  1  1
 22 21  1  0
 23 25  2  0
 23 24  1  0
M  END
$$$$
