PFC.pdb
     RDKit          3D

 25 26  0  0  1  0  0  0  0  0999 V2000
    7.4539  -15.1211   19.0466 N   0  0  0  0  0  0  0  0  0  0  0  0
    6.8047  -14.2375   18.1135 C   0  0  0  0  0  0  0  0  0  0  0  0
    7.5207  -12.9127   18.2684 C   0  0  0  0  0  0  0  0  0  0  0  0
    8.9432  -13.3649   18.5075 C   0  0  0  0  0  0  0  0  0  0  0  0
    8.7734  -14.6120   19.2976 C   0  0  1  0  0  0  0  0  0  0  0  0
    9.0439  -14.4930   20.7279 C   0  0  0  0  0  0  0  0  0  0  0  0
   10.2109  -14.2130   21.1060 O   0  0  0  0  0  0  0  0  0  0  0  0
    8.0505  -14.6786   21.7162 N   0  0  0  0  0  0  0  0  0  0  0  0
    8.2789  -14.4082   23.1347 C   0  0  1  0  0  0  0  0  0  0  0  0
    7.0173  -13.8266   23.6930 C   0  0  0  0  0  0  0  0  0  0  0  0
    7.0875  -13.3582   25.0657 C   0  0  0  0  0  0  0  0  0  0  0  0
    7.7021  -12.1151   25.2673 C   0  0  0  0  0  0  0  0  0  0  0  0
    7.8225  -11.5756   26.5305 C   0  0  0  0  0  0  0  0  0  0  0  0
    7.3169  -12.3005   27.5960 C   0  0  0  0  0  0  0  0  0  0  0  0
    6.7109  -13.5295   27.3836 C   0  0  0  0  0  0  0  0  0  0  0  0
    6.5888  -14.0719   26.1220 C   0  0  0  0  0  0  0  0  0  0  0  0
    8.5243  -15.7071   23.8371 C   0  0  0  0  0  0  0  0  0  0  0  0
    7.6982  -16.6486   23.7170 O   0  0  0  0  0  0  0  0  0  0  0  0
    9.6549  -15.9371   24.6428 N   0  0  0  0  0  0  0  0  0  0  0  0
    9.9545  -17.1982   25.2930 C   0  0  1  0  0  0  0  0  0  0  0  0
   11.3234  -17.7148   24.9180 C   0  0  0  0  0  0  0  0  0  0  0  0
   12.4771  -16.3223   24.9216 S   0  0  0  0  0  0  0  0  0  0  0  0
    9.9323  -17.0390   26.7700 C   0  0  0  0  0  0  0  0  0  0  0  0
   10.0920  -18.1199   27.6218 O   0  0  0  0  0  0  0  0  0  0  0  0
    9.7662  -15.9062   27.2868 O   0  0  0  0  0  0  0  0  0  0  0  0
  1  2  1  0
  3  2  1  0
  4  5  1  0
  4  3  1  0
  5  1  1  0
  5  6  1  1
  6  7  2  0
  8  6  1  0
  8  9  1  0
  9 17  1  0
  9 10  1  1
 10 11  1  0
 11 16  1  0
 12 11  2  0
 12 13  1  0
 13 14  2  0
 14 15  1  0
 16 15  2  0
 17 18  2  0
 19 20  1  0
 19 17  1  0
 20 23  1  0
 20 21  1  6
 22 21  1  0
 23 25  2  0
 23 24  1  0
M  END
$$$$
