PFC.pdb
     RDKit          3D

 25 26  0  0  1  0  0  0  0  0999 V2000
    8.8050  -17.7211   20.4846 N   0  0  0  0  0  0  0  0  0  0  0  0
    7.8612  -17.9377   19.4191 C   0  0  0  0  0  0  0  0  0  0  0  0
    7.6444  -16.5704   18.8066 C   0  0  0  0  0  0  0  0  0  0  0  0
    9.0282  -15.9706   18.9101 C   0  0  0  0  0  0  0  0  0  0  0  0
    9.5414  -16.5235   20.1905 C   0  0  1  0  0  0  0  0  0  0  0  0
    9.5422  -15.5981   21.3205 C   0  0  0  0  0  0  0  0  0  0  0  0
   10.3871  -14.6659   21.3440 O   0  0  0  0  0  0  0  0  0  0  0  0
    8.6327  -15.6995   22.3977 N   0  0  0  0  0  0  0  0  0  0  0  0
    8.6675  -14.8072   23.5553 C   0  0  1  0  0  0  0  0  0  0  0  0
    7.2534  -14.4522   23.8954 C   0  0  0  0  0  0  0  0  0  0  0  0
    7.0817  -13.4759   24.9565 C   0  0  0  0  0  0  0  0  0  0  0  0
    6.4265  -13.9226   26.1118 C   0  0  0  0  0  0  0  0  0  0  0  0
    6.2103  -13.0788   27.1806 C   0  0  0  0  0  0  0  0  0  0  0  0
    6.6609  -11.7738   27.0777 C   0  0  0  0  0  0  0  0  0  0  0  0
    7.3079  -11.3436   25.9292 C   0  0  0  0  0  0  0  0  0  0  0  0
    7.5257  -12.1847   24.8588 C   0  0  0  0  0  0  0  0  0  0  0  0
    9.2357  -15.5555   24.7207 C   0  0  0  0  0  0  0  0  0  0  0  0
    8.6483  -16.5815   25.1513 O   0  0  0  0  0  0  0  0  0  0  0  0
   10.4184  -15.1642   25.3753 N   0  0  0  0  0  0  0  0  0  0  0  0
   10.6332  -15.2616   26.8062 C   0  0  1  0  0  0  0  0  0  0  0  0
    9.6746  -14.3886   27.5810 C   0  0  0  0  0  0  0  0  0  0  0  0
   10.0585  -14.5456   29.3411 S   0  0  0  0  0  0  0  0  0  0  0  0
   10.4290  -16.6589   27.2680 C   0  0  0  0  0  0  0  0  0  0  0  0
   11.4199  -17.3566   27.9395 O   0  0  0  0  0  0  0  0  0  0  0  0
    9.3393  -17.2472   27.0573 O   0  0  0  0  0  0  0  0  0  0  0  0
  1  2  1  0
  3  2  1  0
  4  5  1  0
  4  3  1  0
  5  1  1  0
  5  6  1  1
  6  7  2  0
  8  6  1  0
  8  9  1  0
  9 17  1  0
  9 10  1  1
 10 11  1  0
 11 16  1  0
 12 11  2  0
 12 13  1  0
 13 14  2  0
 14 15  1  0
 16 15  2  0
 17 18  2  0
 19 20  1  0
 19 17  1  0
 20 23  1  0
 20 21  1  1
 22 21  1  0
 23 25  2  0
 23 24  1  0
M  END
$$$$
