PFC.pdb
     RDKit          3D

 25 26  0  0  1  0  0  0  0  0999 V2000
    9.5084  -16.3940   18.8540 N   0  0  0  0  0  0  0  0  0  0  0  0
   10.0211  -17.6132   18.2850 C   0  0  0  0  0  0  0  0  0  0  0  0
    9.8347  -18.6563   19.3662 C   0  0  0  0  0  0  0  0  0  0  0  0
    8.5209  -18.2258   19.9774 C   0  0  0  0  0  0  0  0  0  0  0  0
    8.5768  -16.7434   19.8899 C   0  0  1  0  0  0  0  0  0  0  0  0
    8.8737  -16.0496   21.1403 C   0  0  0  0  0  0  0  0  0  0  0  0
   10.0585  -15.6966   21.3749 O   0  0  0  0  0  0  0  0  0  0  0  0
    7.8869  -15.7529   22.1079 N   0  0  0  0  0  0  0  0  0  0  0  0
    8.1652  -14.9802   23.3174 C   0  0  1  0  0  0  0  0  0  0  0  0
    6.8731  -14.3803   23.7781 C   0  0  0  0  0  0  0  0  0  0  0  0
    6.9214  -13.6594   25.0377 C   0  0  0  0  0  0  0  0  0  0  0  0
    7.4203  -12.3510   24.9859 C   0  0  0  0  0  0  0  0  0  0  0  0
    7.5102  -11.5765   26.1231 C   0  0  0  0  0  0  0  0  0  0  0  0
    7.0919  -12.1317   27.3204 C   0  0  0  0  0  0  0  0  0  0  0  0
    6.6001  -13.4276   27.3587 C   0  0  0  0  0  0  0  0  0  0  0  0
    6.5088  -14.2047   26.2236 C   0  0  0  0  0  0  0  0  0  0  0  0
    8.6328  -15.9165   24.3877 C   0  0  0  0  0  0  0  0  0  0  0  0
    7.9950  -16.9777   24.6124 O   0  0  0  0  0  0  0  0  0  0  0  0
    9.7732  -15.6681   25.1739 N   0  0  0  0  0  0  0  0  0  0  0  0
   10.4248  -16.6594   26.0080 C   0  0  1  0  0  0  0  0  0  0  0  0
   11.9196  -16.6825   25.7931 C   0  0  0  0  0  0  0  0  0  0  0  0
   12.2399  -17.1471   24.0751 S   0  0  0  0  0  0  0  0  0  0  0  0
   10.1901  -16.3640   27.4451 C   0  0  0  0  0  0  0  0  0  0  0  0
    9.4610  -15.2585   27.8522 O   0  0  0  0  0  0  0  0  0  0  0  0
   10.6534  -17.1197   28.3352 O   0  0  0  0  0  0  0  0  0  0  0  0
  1  2  1  0
  3  2  1  0
  4  5  1  0
  4  3  1  0
  5  1  1  0
  5  6  1  1
  6  7  2  0
  8  6  1  0
  8  9  1  0
  9 17  1  0
  9 10  1  1
 10 11  1  0
 11 16  1  0
 12 11  2  0
 12 13  1  0
 13 14  2  0
 14 15  1  0
 16 15  2  0
 17 18  2  0
 19 20  1  0
 19 17  1  0
 20 23  1  0
 20 21  1  1
 22 21  1  0
 23 25  2  0
 23 24  1  0
M  END
$$$$
