PFC.pdb
     RDKit          3D

 25 26  0  0  1  0  0  0  0  0999 V2000
    7.7499  -15.2755   19.1083 N   0  0  0  0  0  0  0  0  0  0  0  0
    7.0871  -14.5130   18.0824 C   0  0  0  0  0  0  0  0  0  0  0  0
    7.6302  -13.1076   18.2293 C   0  0  0  0  0  0  0  0  0  0  0  0
    9.0690  -13.3781   18.6060 C   0  0  0  0  0  0  0  0  0  0  0  0
    8.9753  -14.6041   19.4406 C   0  0  1  0  0  0  0  0  0  0  0  0
    9.1050  -14.3969   20.8805 C   0  0  0  0  0  0  0  0  0  0  0  0
   10.2206  -14.0504   21.3482 O   0  0  0  0  0  0  0  0  0  0  0  0
    8.0296  -14.5680   21.7817 N   0  0  0  0  0  0  0  0  0  0  0  0
    8.1659  -14.3901   23.2264 C   0  0  1  0  0  0  0  0  0  0  0  0
    6.9199  -13.7224   23.7195 C   0  0  0  0  0  0  0  0  0  0  0  0
    6.9368  -13.2914   25.1060 C   0  0  0  0  0  0  0  0  0  0  0  0
    7.8031  -12.2350   25.4177 C   0  0  0  0  0  0  0  0  0  0  0  0
    7.8985  -11.7466   26.7035 C   0  0  0  0  0  0  0  0  0  0  0  0
    7.1110  -12.3326   27.6798 C   0  0  0  0  0  0  0  0  0  0  0  0
    6.2576  -13.3773   27.3588 C   0  0  0  0  0  0  0  0  0  0  0  0
    6.1597  -13.8681   26.0742 C   0  0  0  0  0  0  0  0  0  0  0  0
    8.2381  -15.7392   23.8710 C   0  0  0  0  0  0  0  0  0  0  0  0
    7.7002  -16.7293   23.3109 O   0  0  0  0  0  0  0  0  0  0  0  0
    8.8899  -15.9649   25.0977 N   0  0  0  0  0  0  0  0  0  0  0  0
    9.5646  -17.1986   25.4518 C   0  0  1  0  0  0  0  0  0  0  0  0
   10.6607  -17.5434   24.4715 C   0  0  0  0  0  0  0  0  0  0  0  0
   11.5610  -18.9773   25.1065 S   0  0  0  0  0  0  0  0  0  0  0  0
   10.1933  -17.0803   26.7928 C   0  0  0  0  0  0  0  0  0  0  0  0
   10.2206  -15.8783   27.4812 O   0  0  0  0  0  0  0  0  0  0  0  0
   10.7211  -18.0803   27.3400 O   0  0  0  0  0  0  0  0  0  0  0  0
  1  2  1  0
  3  2  1  0
  4  5  1  0
  4  3  1  0
  5  1  1  0
  5  6  1  1
  6  7  2  0
  8  6  1  0
  8  9  1  0
  9 17  1  0
  9 10  1  1
 10 11  1  0
 11 16  1  0
 12 11  2  0
 12 13  1  0
 13 14  2  0
 14 15  1  0
 16 15  2  0
 17 18  2  0
 19 20  1  0
 19 17  1  0
 20 23  1  0
 20 21  1  6
 22 21  1  0
 23 25  2  0
 23 24  1  0
M  END
$$$$
