PFC.pdb
     RDKit          3D

 25 26  0  0  1  0  0  0  0  0999 V2000
    7.6063  -15.3476   19.3488 N   0  0  0  0  0  0  0  0  0  0  0  0
    6.8510  -14.6084   18.3711 C   0  0  0  0  0  0  0  0  0  0  0  0
    7.3418  -13.1818   18.4966 C   0  0  0  0  0  0  0  0  0  0  0  0
    8.8110  -13.3925   18.7838 C   0  0  0  0  0  0  0  0  0  0  0  0
    8.8200  -14.6262   19.6123 C   0  0  1  0  0  0  0  0  0  0  0  0
    9.0277  -14.4219   21.0435 C   0  0  0  0  0  0  0  0  0  0  0  0
   10.1452  -14.0044   21.4436 O   0  0  0  0  0  0  0  0  0  0  0  0
    8.0262  -14.6724   22.0090 N   0  0  0  0  0  0  0  0  0  0  0  0
    8.2377  -14.4814   23.4430 C   0  0  1  0  0  0  0  0  0  0  0  0
    6.9243  -14.0898   24.0456 C   0  0  0  0  0  0  0  0  0  0  0  0
    6.9888  -13.4509   25.3480 C   0  0  0  0  0  0  0  0  0  0  0  0
    7.2163  -14.2946   26.4434 C   0  0  0  0  0  0  0  0  0  0  0  0
    7.2958  -13.7932   27.7254 C   0  0  0  0  0  0  0  0  0  0  0  0
    7.1438  -12.4281   27.8982 C   0  0  0  0  0  0  0  0  0  0  0  0
    6.9192  -11.6035   26.8062 C   0  0  0  0  0  0  0  0  0  0  0  0
    6.8391  -12.1015   25.5232 C   0  0  0  0  0  0  0  0  0  0  0  0
    8.6368  -15.7914   24.0475 C   0  0  0  0  0  0  0  0  0  0  0  0
    7.9196  -16.8089   23.8643 O   0  0  0  0  0  0  0  0  0  0  0  0
    9.7974  -15.9497   24.8276 N   0  0  0  0  0  0  0  0  0  0  0  0
   10.3050  -17.2266   25.2908 C   0  0  1  0  0  0  0  0  0  0  0  0
   11.6534  -17.5485   24.6913 C   0  0  0  0  0  0  0  0  0  0  0  0
   12.7244  -16.1055   24.8931 S   0  0  0  0  0  0  0  0  0  0  0  0
   10.4701  -17.2150   26.7674 C   0  0  0  0  0  0  0  0  0  0  0  0
   10.2319  -16.0754   27.5183 O   0  0  0  0  0  0  0  0  0  0  0  0
   10.8341  -18.2517   27.3763 O   0  0  0  0  0  0  0  0  0  0  0  0
  1  2  1  0
  3  2  1  0
  4  5  1  0
  4  3  1  0
  5  1  1  0
  5  6  1  1
  6  7  2  0
  8  6  1  0
  8  9  1  0
  9 17  1  0
  9 10  1  1
 10 11  1  0
 11 16  1  0
 12 11  2  0
 12 13  1  0
 13 14  2  0
 14 15  1  0
 16 15  2  0
 17 18  2  0
 19 20  1  0
 19 17  1  0
 20 23  1  0
 20 21  1  6
 22 21  1  0
 23 25  2  0
 23 24  1  0
M  END
$$$$
