PFC.pdb
     RDKit          3D

 25 26  0  0  1  0  0  0  0  0999 V2000
    9.1323  -16.3420   18.9895 N   0  0  0  0  0  0  0  0  0  0  0  0
    9.5552  -17.6020   18.4356 C   0  0  0  0  0  0  0  0  0  0  0  0
    9.3479  -18.6064   19.5492 C   0  0  0  0  0  0  0  0  0  0  0  0
    8.0825  -18.0867   20.1925 C   0  0  0  0  0  0  0  0  0  0  0  0
    8.2190  -16.6124   20.0646 C   0  0  1  0  0  0  0  0  0  0  0  0
    8.5978  -15.9069   21.2860 C   0  0  0  0  0  0  0  0  0  0  0  0
    9.7874  -15.5198   21.4221 O   0  0  0  0  0  0  0  0  0  0  0  0
    7.6860  -15.6356   22.3314 N   0  0  0  0  0  0  0  0  0  0  0  0
    8.0676  -14.9415   23.5602 C   0  0  1  0  0  0  0  0  0  0  0  0
    6.8251  -14.3500   24.1500 C   0  0  0  0  0  0  0  0  0  0  0  0
    7.0098  -13.5487   25.3468 C   0  0  0  0  0  0  0  0  0  0  0  0
    6.2047  -12.4076   25.4610 C   0  0  0  0  0  0  0  0  0  0  0  0
    6.2978  -11.5756   26.5566 C   0  0  0  0  0  0  0  0  0  0  0  0
    7.2129  -11.9023   27.5428 C   0  0  0  0  0  0  0  0  0  0  0  0
    8.0041  -13.0343   27.4183 C   0  0  0  0  0  0  0  0  0  0  0  0
    7.9135  -13.8682   26.3242 C   0  0  0  0  0  0  0  0  0  0  0  0
    8.5932  -15.9478   24.5359 C   0  0  0  0  0  0  0  0  0  0  0  0
    7.8734  -16.9211   24.8790 O   0  0  0  0  0  0  0  0  0  0  0  0
    9.8783  -15.8617   25.1030 N   0  0  0  0  0  0  0  0  0  0  0  0
   10.5303  -16.9394   25.8215 C   0  0  1  0  0  0  0  0  0  0  0  0
   11.9694  -17.1111   25.3961 C   0  0  0  0  0  0  0  0  0  0  0  0
   12.0025  -17.4201   23.6147 S   0  0  0  0  0  0  0  0  0  0  0  0
   10.5317  -16.6639   27.2815 C   0  0  0  0  0  0  0  0  0  0  0  0
    9.9654  -15.5137   27.8065 O   0  0  0  0  0  0  0  0  0  0  0  0
   11.0531  -17.4782   28.0834 O   0  0  0  0  0  0  0  0  0  0  0  0
  1  2  1  0
  3  2  1  0
  4  5  1  0
  4  3  1  0
  5  1  1  0
  5  6  1  1
  6  7  2  0
  8  6  1  0
  8  9  1  0
  9 17  1  0
  9 10  1  1
 10 11  1  0
 11 16  1  0
 12 11  2  0
 12 13  1  0
 13 14  2  0
 14 15  1  0
 16 15  2  0
 17 18  2  0
 19 20  1  0
 19 17  1  0
 20 23  1  0
 20 21  1  6
 22 21  1  0
 23 25  2  0
 23 24  1  0
M  END
$$$$
