PFC.pdb
     RDKit          3D

 25 26  0  0  1  0  0  0  0  0999 V2000
    7.7300  -15.6451   19.7766 N   0  0  0  0  0  0  0  0  0  0  0  0
    6.9202  -14.9798   18.7894 C   0  0  0  0  0  0  0  0  0  0  0  0
    7.3432  -13.5277   18.8526 C   0  0  0  0  0  0  0  0  0  0  0  0
    8.8263  -13.6567   19.1153 C   0  0  0  0  0  0  0  0  0  0  0  0
    8.9121  -14.8568   19.9874 C   0  0  1  0  0  0  0  0  0  0  0  0
    9.1379  -14.5899   21.4054 C   0  0  0  0  0  0  0  0  0  0  0  0
   10.1804  -13.9759   21.7514 O   0  0  0  0  0  0  0  0  0  0  0  0
    8.2352  -14.9908   22.4165 N   0  0  0  0  0  0  0  0  0  0  0  0
    8.4496  -14.7045   23.8341 C   0  0  1  0  0  0  0  0  0  0  0  0
    7.1201  -14.3646   24.4330 C   0  0  0  0  0  0  0  0  0  0  0  0
    7.1571  -13.6325   25.6864 C   0  0  0  0  0  0  0  0  0  0  0  0
    6.7944  -12.2803   25.6272 C   0  0  0  0  0  0  0  0  0  0  0  0
    6.7945  -11.4917   26.7582 C   0  0  0  0  0  0  0  0  0  0  0  0
    7.1646  -12.0772   27.9569 C   0  0  0  0  0  0  0  0  0  0  0  0
    7.5214  -13.4163   28.0026 C   0  0  0  0  0  0  0  0  0  0  0  0
    7.5224  -14.2077   26.8737 C   0  0  0  0  0  0  0  0  0  0  0  0
    8.9401  -15.9491   24.5058 C   0  0  0  0  0  0  0  0  0  0  0  0
    8.2762  -17.0137   24.4113 O   0  0  0  0  0  0  0  0  0  0  0  0
   10.1310  -15.9934   25.2544 N   0  0  0  0  0  0  0  0  0  0  0  0
   10.6778  -17.1956   25.8531 C   0  0  1  0  0  0  0  0  0  0  0  0
   12.1880  -17.2006   25.8295 C   0  0  0  0  0  0  0  0  0  0  0  0
   12.7314  -16.8383   24.1433 S   0  0  0  0  0  0  0  0  0  0  0  0
   10.2583  -17.3051   27.2742 C   0  0  0  0  0  0  0  0  0  0  0  0
    9.5293  -16.3056   27.8978 O   0  0  0  0  0  0  0  0  0  0  0  0
   10.5589  -18.3196   27.9513 O   0  0  0  0  0  0  0  0  0  0  0  0
  1  2  1  0
  3  2  1  0
  4  5  1  0
  4  3  1  0
  5  1  1  0
  5  6  1  1
  6  7  2  0
  8  6  1  0
  8  9  1  0
  9 17  1  0
  9 10  1  1
 10 11  1  0
 11 16  1  0
 12 11  2  0
 12 13  1  0
 13 14  2  0
 14 15  1  0
 16 15  2  0
 17 18  2  0
 19 20  1  0
 19 17  1  0
 20 23  1  0
 20 21  1  1
 22 21  1  0
 23 25  2  0
 23 24  1  0
M  END
$$$$
