NVF.pdb
     RDKit          3D

 27 27  0  0  1  0  0  0  0  0999 V2000
   28.1234  -20.2143  -17.5972 N   0  0  0  0  0  0  0  0  0  0  0  0
   28.6300  -19.2316  -16.7283 C   0  0  0  0  0  0  0  0  0  0  0  0
   29.7482  -18.7248  -16.9581 O   0  0  0  0  0  0  0  0  0  0  0  0
   27.8516  -18.7910  -15.5431 C   0  0  0  0  0  0  0  0  0  0  0  0
   26.5955  -19.6271  -15.3948 C   0  0  2  0  0  0  0  0  0  0  0  0
   25.6609  -19.3667  -16.4679 N   0  0  0  0  0  0  0  0  0  0  0  0
   25.9330  -19.3598  -14.0902 C   0  0  0  0  0  0  0  0  0  0  0  0
   24.9869  -18.4999  -14.0517 O   0  0  0  0  0  0  0  0  0  0  0  0
   23.5681  -20.1084  -13.2821 C   0  0  0  0  0  0  0  0  0  0  0  0
   24.2193  -20.6366  -12.0406 C   0  0  1  0  0  0  0  0  0  0  0  0
   24.3748  -22.1177  -12.1079 C   0  0  0  0  0  0  0  0  0  0  0  0
   25.4946  -19.8790  -11.7161 C   0  0  2  0  0  0  0  0  0  0  0  0
   26.3292  -20.0338  -12.9085 N   0  0  0  0  0  0  0  0  0  0  0  0
   26.2010  -20.4341  -10.5252 C   0  0  0  0  0  0  0  0  0  0  0  0
   26.7332  -21.5829  -10.6446 O   0  0  0  0  0  0  0  0  0  0  0  0
   26.2545  -19.6787   -9.3300 N   0  0  0  0  0  0  0  0  0  0  0  0
   26.9715  -20.2552   -8.1783 C   0  0  1  0  0  0  0  0  0  0  0  0
   27.6815  -19.1237   -7.5214 C   0  0  0  0  0  0  0  0  0  0  0  0
   28.3658  -19.5898   -6.2975 C   0  0  0  0  0  0  0  0  0  0  0  0
   29.4357  -20.4743   -6.3594 C   0  0  0  0  0  0  0  0  0  0  0  0
   30.0801  -20.9108   -5.2275 C   0  0  0  0  0  0  0  0  0  0  0  0
   29.6372  -20.4470   -4.0143 C   0  0  0  0  0  0  0  0  0  0  0  0
   28.5761  -19.5674   -3.9230 C   0  0  0  0  0  0  0  0  0  0  0  0
   27.9354  -19.1355   -5.0739 C   0  0  0  0  0  0  0  0  0  0  0  0
   26.0424  -21.0138   -7.3337 C   0  0  0  0  0  0  0  0  0  0  0  0
   26.4580  -22.0499   -6.5221 O   0  0  0  0  0  0  0  0  0  0  0  0
   24.8227  -20.7277   -7.3351 O   0  0  0  0  0  0  0  0  0  0  0  0
  2  3  2  0
  2  1  1  0
  4  2  1  0
  5  4  1  0
  5  6  1  6
  7  8  2  0
  7  5  1  0
 10  9  1  6
 10 12  1  0
 11 10  1  0
 12 13  1  6
 13  7  1  0
 14 12  1  0
 14 15  2  0
 16 14  1  0
 17 16  1  0
 17 25  1  0
 17 18  1  1
 19 18  1  0
 20 19  2  0
 21 20  1  0
 22 21  2  0
 22 23  1  0
 23 24  2  0
 24 19  1  0
 25 26  1  0
 27 25  2  0
M  END
$$$$
