NVF.pdb
     RDKit          3D

 27 27  0  0  1  0  0  0  0  0999 V2000
   27.7308  -22.1823  -16.9652 N   0  0  0  0  0  0  0  0  0  0  0  0
   28.7219  -21.8039  -16.0423 C   0  0  0  0  0  0  0  0  0  0  0  0
   29.8998  -22.1816  -16.2153 O   0  0  0  0  0  0  0  0  0  0  0  0
   28.3839  -20.9621  -14.8667 C   0  0  0  0  0  0  0  0  0  0  0  0
   26.8971  -20.6669  -14.8377 C   0  0  2  0  0  0  0  0  0  0  0  0
   26.5270  -19.7291  -15.8751 N   0  0  0  0  0  0  0  0  0  0  0  0
   26.4917  -20.1216  -13.5146 C   0  0  0  0  0  0  0  0  0  0  0  0
   27.0538  -19.0508  -13.0983 O   0  0  0  0  0  0  0  0  0  0  0  0
   23.0596  -19.3063  -12.3445 C   0  0  0  0  0  0  0  0  0  0  0  0
   23.6822  -20.2151  -11.3292 C   0  0  1  0  0  0  0  0  0  0  0  0
   23.0812  -21.5779  -11.3923 C   0  0  0  0  0  0  0  0  0  0  0  0
   25.1981  -20.1861  -11.4121 C   0  0  2  0  0  0  0  0  0  0  0  0
   25.5071  -20.7618  -12.7219 N   0  0  0  0  0  0  0  0  0  0  0  0
   25.8442  -20.9930  -10.3366 C   0  0  0  0  0  0  0  0  0  0  0  0
   26.0547  -22.2241  -10.5763 O   0  0  0  0  0  0  0  0  0  0  0  0
   26.1944  -20.3736   -9.1135 N   0  0  0  0  0  0  0  0  0  0  0  0
   26.7111  -21.2272   -8.0284 C   0  0  1  0  0  0  0  0  0  0  0  0
   28.1221  -20.8083   -7.8057 C   0  0  0  0  0  0  0  0  0  0  0  0
   28.2327  -20.0242   -6.5580 C   0  0  0  0  0  0  0  0  0  0  0  0
   28.6478  -20.6116   -5.3691 C   0  0  0  0  0  0  0  0  0  0  0  0
   28.7567  -19.8904   -4.2052 C   0  0  0  0  0  0  0  0  0  0  0  0
   28.4414  -18.5554   -4.2422 C   0  0  0  0  0  0  0  0  0  0  0  0
   28.0260  -17.9454   -5.4098 C   0  0  0  0  0  0  0  0  0  0  0  0
   27.9209  -18.6859   -6.5769 C   0  0  0  0  0  0  0  0  0  0  0  0
   25.8230  -21.1548   -6.8631 C   0  0  0  0  0  0  0  0  0  0  0  0
   26.0303  -21.9104   -5.7269 O   0  0  0  0  0  0  0  0  0  0  0  0
   24.8339  -20.3861   -6.8795 O   0  0  0  0  0  0  0  0  0  0  0  0
  2  3  2  0
  2  1  1  0
  4  2  1  0
  5  4  1  0
  5  6  1  6
  7  8  2  0
  7  5  1  0
 10  9  1  6
 10 12  1  0
 11 10  1  0
 12 13  1  6
 13  7  1  0
 14 12  1  0
 14 15  2  0
 16 14  1  0
 17 16  1  0
 17 25  1  0
 17 18  1  1
 19 18  1  0
 20 19  2  0
 21 20  1  0
 22 21  2  0
 22 23  1  0
 23 24  2  0
 24 19  1  0
 25 26  1  0
 27 25  2  0
M  END
$$$$
