NVF.pdb
     RDKit          3D

 27 27  0  0  1  0  0  0  0  0999 V2000
   14.0830  -13.2241  -15.3386 N   0  0  0  0  0  0  0  0  0  0  0  0
   14.2340  -11.8743  -15.7027 C   0  0  0  0  0  0  0  0  0  0  0  0
   13.2371  -11.1220  -15.7026 O   0  0  0  0  0  0  0  0  0  0  0  0
   15.5632  -11.3350  -16.0865 C   0  0  0  0  0  0  0  0  0  0  0  0
   15.4752  -10.6061  -17.4130 C   0  0  2  0  0  0  0  0  0  0  0  0
   15.2853  -11.5306  -18.5093 N   0  0  0  0  0  0  0  0  0  0  0  0
   16.7014   -9.8002  -17.6563 C   0  0  0  0  0  0  0  0  0  0  0  0
   17.2907   -9.9127  -18.7859 O   0  0  0  0  0  0  0  0  0  0  0  0
   17.2603   -7.8097  -19.2643 C   0  0  0  0  0  0  0  0  0  0  0  0
   17.7752   -7.0949  -18.0526 C   0  0  1  0  0  0  0  0  0  0  0  0
   16.7518   -6.1557  -17.5114 C   0  0  0  0  0  0  0  0  0  0  0  0
   18.3460   -8.0662  -17.0346 C   0  0  2  0  0  0  0  0  0  0  0  0
   17.2174   -8.9238  -16.6697 N   0  0  0  0  0  0  0  0  0  0  0  0
   18.8741   -7.3770  -15.8216 C   0  0  0  0  0  0  0  0  0  0  0  0
   18.0316   -6.7969  -15.0659 O   0  0  0  0  0  0  0  0  0  0  0  0
   20.2643   -7.3933  -15.5586 N   0  0  0  0  0  0  0  0  0  0  0  0
   20.7328   -6.8368  -14.2765 C   0  0  1  0  0  0  0  0  0  0  0  0
   20.9221   -7.9974  -13.3637 C   0  0  0  0  0  0  0  0  0  0  0  0
   21.8064   -9.0024  -13.9896 C   0  0  0  0  0  0  0  0  0  0  0  0
   21.2940  -10.0265  -14.7766 C   0  0  0  0  0  0  0  0  0  0  0  0
   22.1082  -10.9634  -15.3650 C   0  0  0  0  0  0  0  0  0  0  0  0
   23.4607  -10.8646  -15.1553 C   0  0  0  0  0  0  0  0  0  0  0  0
   23.9976   -9.8573  -14.3776 C   0  0  0  0  0  0  0  0  0  0  0  0
   23.1636   -8.9187  -13.7902 C   0  0  0  0  0  0  0  0  0  0  0  0
   21.9083   -5.9868  -14.4948 C   0  0  0  0  0  0  0  0  0  0  0  0
   22.5181   -5.2904  -13.4711 O   0  0  0  0  0  0  0  0  0  0  0  0
   22.3917   -5.8743  -15.6451 O   0  0  0  0  0  0  0  0  0  0  0  0
  2  3  2  0
  2  1  1  0
  4  2  1  0
  5  4  1  0
  5  6  1  6
  7  8  2  0
  7  5  1  0
 10  9  1  6
 10 12  1  0
 11 10  1  0
 12 13  1  1
 13  7  1  0
 14 12  1  0
 14 15  2  0
 16 14  1  0
 17 16  1  0
 17 25  1  0
 17 18  1  1
 19 18  1  0
 20 19  2  0
 21 20  1  0
 22 21  2  0
 22 23  1  0
 23 24  2  0
 24 19  1  0
 25 26  1  0
 27 25  2  0
M  END
$$$$
