NVF.pdb
     RDKit          3D

 27 27  0  0  1  0  0  0  0  0999 V2000
   16.8354   -9.5918  -18.0698 N   0  0  0  0  0  0  0  0  0  0  0  0
   16.2990  -10.3678  -17.0270 C   0  0  0  0  0  0  0  0  0  0  0  0
   15.5570  -11.3350  -17.2990 O   0  0  0  0  0  0  0  0  0  0  0  0
   16.6046  -10.0504  -15.6090 C   0  0  0  0  0  0  0  0  0  0  0  0
   18.0931   -9.8274  -15.4260 C   0  0  2  0  0  0  0  0  0  0  0  0
   18.8348  -11.0562  -15.6067 N   0  0  0  0  0  0  0  0  0  0  0  0
   18.3830   -9.2721  -14.0770 C   0  0  0  0  0  0  0  0  0  0  0  0
   18.3211  -10.0564  -13.0686 O   0  0  0  0  0  0  0  0  0  0  0  0
   20.2575   -5.5547  -11.4839 C   0  0  0  0  0  0  0  0  0  0  0  0
   20.0707   -6.3611  -12.7326 C   0  0  1  0  0  0  0  0  0  0  0  0
   21.3804   -6.8382  -13.2612 C   0  0  0  0  0  0  0  0  0  0  0  0
   19.0296   -7.4497  -12.5411 C   0  0  2  0  0  0  0  0  0  0  0  0
   18.7213   -7.9080  -13.8966 N   0  0  0  0  0  0  0  0  0  0  0  0
   17.7907   -6.9450  -11.8809 C   0  0  0  0  0  0  0  0  0  0  0  0
   17.0834   -6.1089  -12.5272 O   0  0  0  0  0  0  0  0  0  0  0  0
   17.4521   -7.4054  -10.5864 N   0  0  0  0  0  0  0  0  0  0  0  0
   16.2174   -6.8885   -9.9691 C   0  0  1  0  0  0  0  0  0  0  0  0
   15.8769   -7.8306   -8.8679 C   0  0  0  0  0  0  0  0  0  0  0  0
   14.6765   -7.3614   -8.1452 C   0  0  0  0  0  0  0  0  0  0  0  0
   14.7661   -6.4141   -7.1326 C   0  0  0  0  0  0  0  0  0  0  0  0
   13.6556   -5.9696   -6.4573 C   0  0  0  0  0  0  0  0  0  0  0  0
   12.4357   -6.4897   -6.8099 C   0  0  0  0  0  0  0  0  0  0  0  0
   12.3170   -7.4325   -7.8124 C   0  0  0  0  0  0  0  0  0  0  0  0
   13.4465   -7.8717   -8.4853 C   0  0  0  0  0  0  0  0  0  0  0  0
   16.3943   -5.4833   -9.5868 C   0  0  0  0  0  0  0  0  0  0  0  0
   17.5489   -5.0187   -8.9901 O   0  0  0  0  0  0  0  0  0  0  0  0
   15.4758   -4.6585   -9.7999 O   0  0  0  0  0  0  0  0  0  0  0  0
  2  3  2  0
  2  1  1  0
  4  2  1  0
  5  4  1  0
  5  6  1  1
  7  8  2  0
  7  5  1  0
 10  9  1  1
 10 12  1  0
 11 10  1  0
 12 13  1  6
 13  7  1  0
 14 12  1  0
 14 15  2  0
 16 14  1  0
 17 16  1  0
 17 25  1  0
 17 18  1  1
 19 18  1  0
 20 19  2  0
 21 20  1  0
 22 21  2  0
 22 23  1  0
 23 24  2  0
 24 19  1  0
 25 26  1  0
 27 25  2  0
M  END
$$$$
