NVF.pdb
     RDKit          3D

 27 27  0  0  1  0  0  0  0  0999 V2000
   26.1394  -22.8541  -19.5242 N   0  0  0  0  0  0  0  0  0  0  0  0
   26.2896  -23.2959  -18.1978 C   0  0  0  0  0  0  0  0  0  0  0  0
   25.8729  -24.4285  -17.8758 O   0  0  0  0  0  0  0  0  0  0  0  0
   26.9367  -22.4323  -17.1779 C   0  0  0  0  0  0  0  0  0  0  0  0
   26.3220  -22.6740  -15.8132 C   0  0  2  0  0  0  0  0  0  0  0  0
   24.8973  -22.4235  -15.8266 N   0  0  0  0  0  0  0  0  0  0  0  0
   26.9630  -21.8124  -14.7841 C   0  0  0  0  0  0  0  0  0  0  0  0
   28.2363  -21.6918  -14.7969 O   0  0  0  0  0  0  0  0  0  0  0  0
   26.6659  -18.3064  -14.4028 C   0  0  0  0  0  0  0  0  0  0  0  0
   26.2713  -18.8899  -13.0806 C   0  0  1  0  0  0  0  0  0  0  0  0
   24.7924  -18.8460  -12.8975 C   0  0  0  0  0  0  0  0  0  0  0  0
   26.8965  -20.2570  -12.8672 C   0  0  2  0  0  0  0  0  0  0  0  0
   26.1947  -21.1343  -13.8055 N   0  0  0  0  0  0  0  0  0  0  0  0
   26.7164  -20.7558  -11.4728 C   0  0  0  0  0  0  0  0  0  0  0  0
   25.7039  -21.4894  -11.2409 O   0  0  0  0  0  0  0  0  0  0  0  0
   27.6592  -20.4039  -10.4780 N   0  0  0  0  0  0  0  0  0  0  0  0
   27.4050  -20.8481   -9.0956 C   0  0  1  0  0  0  0  0  0  0  0  0
   28.7037  -20.7349   -8.3769 C   0  0  0  0  0  0  0  0  0  0  0  0
   28.4732  -20.4841   -6.9390 C   0  0  0  0  0  0  0  0  0  0  0  0
   28.1101  -19.2262   -6.4734 C   0  0  0  0  0  0  0  0  0  0  0  0
   27.8907  -18.9841   -5.1392 C   0  0  0  0  0  0  0  0  0  0  0  0
   28.0403  -20.0284   -4.2615 C   0  0  0  0  0  0  0  0  0  0  0  0
   28.4004  -21.2890   -4.6963 C   0  0  0  0  0  0  0  0  0  0  0  0
   28.6185  -21.5184   -6.0459 C   0  0  0  0  0  0  0  0  0  0  0  0
   26.2813  -20.0985   -8.5233 C   0  0  0  0  0  0  0  0  0  0  0  0
   25.3799  -20.6701   -7.6483 O   0  0  0  0  0  0  0  0  0  0  0  0
   26.1150  -18.8947   -8.8277 O   0  0  0  0  0  0  0  0  0  0  0  0
  2  3  2  0
  2  1  1  0
  4  2  1  0
  5  4  1  0
  5  6  1  6
  7  8  2  0
  7  5  1  0
 10  9  1  6
 10 12  1  0
 11 10  1  0
 12 13  1  6
 13  7  1  0
 14 12  1  0
 14 15  2  0
 16 14  1  0
 17 16  1  0
 17 25  1  0
 17 18  1  1
 19 18  1  0
 20 19  2  0
 21 20  1  0
 22 21  2  0
 22 23  1  0
 23 24  2  0
 24 19  1  0
 25 26  1  0
 27 25  2  0
M  END
$$$$
