NVF.pdb
     RDKit          3D

 27 27  0  0  1  0  0  0  0  0999 V2000
   27.5883  -22.9573  -17.1807 N   0  0  0  0  0  0  0  0  0  0  0  0
   28.5813  -22.4514  -16.3233 C   0  0  0  0  0  0  0  0  0  0  0  0
   29.7580  -22.8536  -16.4400 O   0  0  0  0  0  0  0  0  0  0  0  0
   28.2467  -21.4463  -15.2827 C   0  0  0  0  0  0  0  0  0  0  0  0
   26.7432  -21.3028  -15.1502 C   0  0  2  0  0  0  0  0  0  0  0  0
   26.1718  -20.6603  -16.3135 N   0  0  0  0  0  0  0  0  0  0  0  0
   26.3914  -20.5214  -13.9344 C   0  0  0  0  0  0  0  0  0  0  0  0
   26.0163  -19.3070  -14.0776 O   0  0  0  0  0  0  0  0  0  0  0  0
   24.2472  -19.4858  -13.1408 C   0  0  0  0  0  0  0  0  0  0  0  0
   24.4650  -20.1517  -11.8165 C   0  0  1  0  0  0  0  0  0  0  0  0
   23.6623  -21.4034  -11.7097 C   0  0  0  0  0  0  0  0  0  0  0  0
   25.9436  -20.3188  -11.5144 C   0  0  2  0  0  0  0  0  0  0  0  0
   26.4649  -21.0947  -12.6408 N   0  0  0  0  0  0  0  0  0  0  0  0
   26.1862  -21.0503  -10.2372 C   0  0  0  0  0  0  0  0  0  0  0  0
   25.9130  -22.2921  -10.2142 O   0  0  0  0  0  0  0  0  0  0  0  0
   26.7023  -20.3523   -9.1198 N   0  0  0  0  0  0  0  0  0  0  0  0
   26.9490  -21.1136   -7.8818 C   0  0  1  0  0  0  0  0  0  0  0  0
   28.3893  -20.9239   -7.5568 C   0  0  0  0  0  0  0  0  0  0  0  0
   28.5347  -20.1293   -6.3194 C   0  0  0  0  0  0  0  0  0  0  0  0
   28.3046  -18.7590   -6.3086 C   0  0  0  0  0  0  0  0  0  0  0  0
   28.4343  -18.0126   -5.1628 C   0  0  0  0  0  0  0  0  0  0  0  0
   28.8021  -18.6599   -4.0100 C   0  0  0  0  0  0  0  0  0  0  0  0
   29.0373  -20.0208   -3.9916 C   0  0  0  0  0  0  0  0  0  0  0  0
   28.9025  -20.7613   -5.1557 C   0  0  0  0  0  0  0  0  0  0  0  0
   25.9932  -20.7124   -6.8438 C   0  0  0  0  0  0  0  0  0  0  0  0
   25.2213  -19.5731   -6.9494 O   0  0  0  0  0  0  0  0  0  0  0  0
   25.8578  -21.4149   -5.8154 O   0  0  0  0  0  0  0  0  0  0  0  0
  2  3  2  0
  2  1  1  0
  4  2  1  0
  5  4  1  0
  5  6  1  6
  7  8  2  0
  7  5  1  0
 10  9  1  6
 10 12  1  0
 11 10  1  0
 12 13  1  6
 13  7  1  0
 14 12  1  0
 14 15  2  0
 16 14  1  0
 17 16  1  0
 17 25  1  0
 17 18  1  1
 19 18  1  0
 20 19  2  0
 21 20  1  0
 22 21  2  0
 22 23  1  0
 23 24  2  0
 24 19  1  0
 25 26  1  0
 27 25  2  0
M  END
$$$$
