NVF.pdb
     RDKit          3D

 27 27  0  0  1  0  0  0  0  0999 V2000
   14.6447  -13.2185  -16.2142 N   0  0  0  0  0  0  0  0  0  0  0  0
   14.2082  -12.2873  -17.1732 C   0  0  0  0  0  0  0  0  0  0  0  0
   13.2767  -12.5925  -17.9473 O   0  0  0  0  0  0  0  0  0  0  0  0
   14.8413  -10.9481  -17.2752 C   0  0  0  0  0  0  0  0  0  0  0  0
   15.9808  -10.8249  -16.2827 C   0  0  2  0  0  0  0  0  0  0  0  0
   15.5409  -10.2068  -15.0511 N   0  0  0  0  0  0  0  0  0  0  0  0
   17.1002  -10.0323  -16.8581 C   0  0  0  0  0  0  0  0  0  0  0  0
   17.7324  -10.5099  -17.8622 O   0  0  0  0  0  0  0  0  0  0  0  0
   17.0701   -6.3251  -17.8525 C   0  0  0  0  0  0  0  0  0  0  0  0
   18.1910   -6.6052  -16.8989 C   0  0  1  0  0  0  0  0  0  0  0  0
   17.8821   -6.0736  -15.5408 C   0  0  0  0  0  0  0  0  0  0  0  0
   18.5955   -8.0684  -16.9303 C   0  0  2  0  0  0  0  0  0  0  0  0
   17.4698   -8.7756  -16.3178 N   0  0  0  0  0  0  0  0  0  0  0  0
   19.8435   -8.3324  -16.1569 C   0  0  0  0  0  0  0  0  0  0  0  0
   19.7338   -8.4596  -14.8964 O   0  0  0  0  0  0  0  0  0  0  0  0
   21.0797   -8.4314  -16.8384 N   0  0  0  0  0  0  0  0  0  0  0  0
   22.2912   -8.6917  -16.0400 C   0  0  1  0  0  0  0  0  0  0  0  0
   22.9020   -9.9276  -16.6016 C   0  0  0  0  0  0  0  0  0  0  0  0
   24.3125  -10.0407  -16.1761 C   0  0  0  0  0  0  0  0  0  0  0  0
   24.6541  -10.5685  -14.9369 C   0  0  0  0  0  0  0  0  0  0  0  0
   25.9624  -10.6805  -14.5339 C   0  0  0  0  0  0  0  0  0  0  0  0
   26.9411  -10.2529  -15.3955 C   0  0  0  0  0  0  0  0  0  0  0  0
   26.6307   -9.7242  -16.6332 C   0  0  0  0  0  0  0  0  0  0  0  0
   25.3057   -9.6173  -17.0265 C   0  0  0  0  0  0  0  0  0  0  0  0
   23.1463   -7.4999  -16.0175 C   0  0  0  0  0  0  0  0  0  0  0  0
   23.8660   -7.1267  -14.9005 O   0  0  0  0  0  0  0  0  0  0  0  0
   23.2402   -6.7803  -17.0387 O   0  0  0  0  0  0  0  0  0  0  0  0
  2  3  2  0
  2  1  1  0
  4  2  1  0
  5  4  1  0
  5  6  1  1
  7  8  2  0
  7  5  1  0
 10  9  1  6
 10 12  1  0
 11 10  1  0
 12 13  1  1
 13  7  1  0
 14 12  1  0
 14 15  2  0
 16 14  1  0
 17 16  1  0
 17 25  1  0
 17 18  1  6
 19 18  1  0
 20 19  2  0
 21 20  1  0
 22 21  2  0
 22 23  1  0
 23 24  2  0
 24 19  1  0
 25 26  1  0
 27 25  2  0
M  END
$$$$
