NVF.pdb
     RDKit          3D

 27 27  0  0  1  0  0  0  0  0999 V2000
   29.2988  -18.7823  -16.4650 N   0  0  0  0  0  0  0  0  0  0  0  0
   27.9379  -18.5631  -16.7428 C   0  0  0  0  0  0  0  0  0  0  0  0
   27.6127  -17.6888  -17.5734 O   0  0  0  0  0  0  0  0  0  0  0  0
   26.8855  -19.3582  -16.0607 C   0  0  0  0  0  0  0  0  0  0  0  0
   27.5132  -20.4058  -15.1623 C   0  0  2  0  0  0  0  0  0  0  0  0
   28.1807  -21.4300  -15.9357 N   0  0  0  0  0  0  0  0  0  0  0  0
   26.4875  -21.0384  -14.2904 C   0  0  0  0  0  0  0  0  0  0  0  0
   25.9010  -22.0958  -14.7074 O   0  0  0  0  0  0  0  0  0  0  0  0
   26.9212  -21.5740  -10.6324 C   0  0  0  0  0  0  0  0  0  0  0  0
   25.5349  -21.0359  -10.8136 C   0  0  1  0  0  0  0  0  0  0  0  0
   25.4064  -19.6777  -10.2125 C   0  0  0  0  0  0  0  0  0  0  0  0
   25.0847  -21.1343  -12.2604 C   0  0  2  0  0  0  0  0  0  0  0  0
   26.1565  -20.4943  -13.0246 N   0  0  0  0  0  0  0  0  0  0  0  0
   23.7936  -20.4284  -12.5059 C   0  0  0  0  0  0  0  0  0  0  0  0
   23.8217  -19.1578  -12.5501 O   0  0  0  0  0  0  0  0  0  0  0  0
   22.6080  -21.1812  -12.6787 N   0  0  0  0  0  0  0  0  0  0  0  0
   21.4901  -20.5542  -13.4067 C   0  0  1  0  0  0  0  0  0  0  0  0
   22.0287  -20.1611  -14.7376 C   0  0  0  0  0  0  0  0  0  0  0  0
   20.9605  -19.5654  -15.5668 C   0  0  0  0  0  0  0  0  0  0  0  0
   20.5961  -18.2316  -15.4281 C   0  0  0  0  0  0  0  0  0  0  0  0
   19.6066  -17.6682  -16.1964 C   0  0  0  0  0  0  0  0  0  0  0  0
   18.9752  -18.4639  -17.1190 C   0  0  0  0  0  0  0  0  0  0  0  0
   19.3168  -19.7927  -17.2784 C   0  0  0  0  0  0  0  0  0  0  0  0
   20.3175  -20.3477  -16.4959 C   0  0  0  0  0  0  0  0  0  0  0  0
   20.3290  -21.4508  -13.4177 C   0  0  0  0  0  0  0  0  0  0  0  0
   19.0372  -20.9902  -13.2629 O   0  0  0  0  0  0  0  0  0  0  0  0
   20.4941  -22.6831  -13.5707 O   0  0  0  0  0  0  0  0  0  0  0  0
  2  3  2  0
  2  1  1  0
  4  2  1  0
  5  4  1  0
  5  6  1  6
  7  8  2  0
  7  5  1  0
 10  9  1  6
 10 12  1  0
 11 10  1  0
 12 13  1  6
 13  7  1  0
 14 12  1  0
 14 15  2  0
 16 14  1  0
 17 16  1  0
 17 25  1  0
 17 18  1  6
 19 18  1  0
 20 19  2  0
 21 20  1  0
 22 21  2  0
 22 23  1  0
 23 24  2  0
 24 19  1  0
 25 26  1  0
 27 25  2  0
M  END
$$$$
