NVF.pdb
     RDKit          3D

 27 27  0  0  1  0  0  0  0  0999 V2000
   20.4010  -17.9013  -14.1227 N   0  0  0  0  0  0  0  0  0  0  0  0
   20.1069  -17.9974  -12.7509 C   0  0  0  0  0  0  0  0  0  0  0  0
   19.3699  -17.1411  -12.2185 O   0  0  0  0  0  0  0  0  0  0  0  0
   20.6620  -19.1034  -11.9305 C   0  0  0  0  0  0  0  0  0  0  0  0
   21.5889  -19.9665  -12.7640 C   0  0  2  0  0  0  0  0  0  0  0  0
   20.8497  -20.9542  -13.5195 N   0  0  0  0  0  0  0  0  0  0  0  0
   22.5889  -20.6532  -11.9034 C   0  0  0  0  0  0  0  0  0  0  0  0
   22.1834  -21.5729  -11.1124 O   0  0  0  0  0  0  0  0  0  0  0  0
   26.5017  -20.5624  -12.9956 C   0  0  0  0  0  0  0  0  0  0  0  0
   25.8789  -21.6629  -12.1922 C   0  0  1  0  0  0  0  0  0  0  0  0
   26.9203  -22.5731  -11.6358 C   0  0  0  0  0  0  0  0  0  0  0  0
   24.8999  -21.1179  -11.1675 C   0  0  2  0  0  0  0  0  0  0  0  0
   23.9625  -20.3080  -11.9471 N   0  0  0  0  0  0  0  0  0  0  0  0
   25.5660  -20.2720  -10.1349 C   0  0  0  0  0  0  0  0  0  0  0  0
   25.6583  -19.0259  -10.3713 O   0  0  0  0  0  0  0  0  0  0  0  0
   26.0603  -20.8725   -8.9529 N   0  0  0  0  0  0  0  0  0  0  0  0
   27.0175  -20.1057   -8.1352 C   0  0  1  0  0  0  0  0  0  0  0  0
   26.4060  -19.9841   -6.7835 C   0  0  0  0  0  0  0  0  0  0  0  0
   27.3978  -19.4684   -5.8171 C   0  0  0  0  0  0  0  0  0  0  0  0
   28.0948  -20.3223   -4.9709 C   0  0  0  0  0  0  0  0  0  0  0  0
   29.0208  -19.8527   -4.0715 C   0  0  0  0  0  0  0  0  0  0  0  0
   29.2465  -18.4999   -4.0259 C   0  0  0  0  0  0  0  0  0  0  0  0
   28.5682  -17.6279   -4.8550 C   0  0  0  0  0  0  0  0  0  0  0  0
   27.6364  -18.1163   -5.7577 C   0  0  0  0  0  0  0  0  0  0  0  0
   28.3435  -20.7308   -8.1915 C   0  0  0  0  0  0  0  0  0  0  0  0
   28.5155  -22.0820   -8.4147 O   0  0  0  0  0  0  0  0  0  0  0  0
   29.3703  -20.0309   -8.0329 O   0  0  0  0  0  0  0  0  0  0  0  0
  2  3  2  0
  2  1  1  0
  4  2  1  0
  5  4  1  0
  5  6  1  1
  7  8  2  0
  7  5  1  0
 10  9  1  1
 10 12  1  0
 11 10  1  0
 12 13  1  6
 13  7  1  0
 14 12  1  0
 14 15  2  0
 16 14  1  0
 17 16  1  0
 17 25  1  0
 17 18  1  1
 19 18  1  0
 20 19  2  0
 21 20  1  0
 22 21  2  0
 22 23  1  0
 23 24  2  0
 24 19  1  0
 25 26  1  0
 27 25  2  0
M  END
$$$$
