NVF.pdb
     RDKit          3D

 27 27  0  0  1  0  0  0  0  0999 V2000
   27.4517   -2.0684   12.5811 N   0  0  0  0  0  0  0  0  0  0  0  0
   28.3914   -3.0096   12.1247 C   0  0  0  0  0  0  0  0  0  0  0  0
   29.1433   -3.5759   12.9456 O   0  0  0  0  0  0  0  0  0  0  0  0
   28.4993   -3.3367   10.6803 C   0  0  0  0  0  0  0  0  0  0  0  0
   27.4266   -2.6108    9.8922 C   0  0  2  0  0  0  0  0  0  0  0  0
   26.1296   -3.2224   10.0829 N   0  0  0  0  0  0  0  0  0  0  0  0
   27.7547   -2.5960    8.4415 C   0  0  0  0  0  0  0  0  0  0  0  0
   27.3716   -3.5799    7.7197 O   0  0  0  0  0  0  0  0  0  0  0  0
   28.7772    0.0204    4.5169 C   0  0  0  0  0  0  0  0  0  0  0  0
   28.2039   -0.2868    5.8665 C   0  0  1  0  0  0  0  0  0  0  0  0
   26.7157   -0.2013    5.8466 C   0  0  0  0  0  0  0  0  0  0  0  0
   28.7571   -1.5868    6.4230 C   0  0  2  0  0  0  0  0  0  0  0  0
   28.4741   -1.5240    7.8577 N   0  0  0  0  0  0  0  0  0  0  0  0
   30.2257   -1.7242    6.1997 C   0  0  0  0  0  0  0  0  0  0  0  0
   30.9965   -1.0437    6.9480 O   0  0  0  0  0  0  0  0  0  0  0  0
   30.7000   -2.5895    5.1856 N   0  0  0  0  0  0  0  0  0  0  0  0
   32.1570   -2.6874    4.9849 C   0  0  1  0  0  0  0  0  0  0  0  0
   32.7070   -3.3044    6.2230 C   0  0  0  0  0  0  0  0  0  0  0  0
   32.3979   -4.7490    6.2562 C   0  0  0  0  0  0  0  0  0  0  0  0
   33.1477   -5.6659    5.5296 C   0  0  0  0  0  0  0  0  0  0  0  0
   32.8700   -7.0109    5.5566 C   0  0  0  0  0  0  0  0  0  0  0  0
   31.8188   -7.4366    6.3291 C   0  0  0  0  0  0  0  0  0  0  0  0
   31.0565   -6.5476    7.0615 C   0  0  0  0  0  0  0  0  0  0  0  0
   31.3486   -5.1930    7.0246 C   0  0  0  0  0  0  0  0  0  0  0  0
   32.4474   -3.3876    3.7290 C   0  0  0  0  0  0  0  0  0  0  0  0
   33.7273   -3.5037    3.2255 O   0  0  0  0  0  0  0  0  0  0  0  0
   31.5140   -3.9055    3.0733 O   0  0  0  0  0  0  0  0  0  0  0  0
  2  3  2  0
  2  1  1  0
  4  2  1  0
  5  4  1  0
  5  6  1  6
  7  8  2  0
  7  5  1  0
 10  9  1  6
 10 12  1  0
 11 10  1  0
 12 13  1  1
 13  7  1  0
 14 12  1  0
 14 15  2  0
 16 14  1  0
 17 16  1  0
 17 25  1  0
 17 18  1  1
 19 18  1  0
 20 19  2  0
 21 20  1  0
 22 21  2  0
 22 23  1  0
 23 24  2  0
 24 19  1  0
 25 26  1  0
 27 25  2  0
M  END
$$$$
