NVF.pdb
     RDKit          3D

 27 27  0  0  1  0  0  0  0  0999 V2000
   24.6116  -25.8401  -16.1124 N   0  0  0  0  0  0  0  0  0  0  0  0
   25.9933  -25.5915  -16.1922 C   0  0  0  0  0  0  0  0  0  0  0  0
   26.7608  -26.5004  -16.5727 O   0  0  0  0  0  0  0  0  0  0  0  0
   26.5484  -24.2629  -15.8297 C   0  0  0  0  0  0  0  0  0  0  0  0
   25.4627  -23.3756  -15.2529 C   0  0  2  0  0  0  0  0  0  0  0  0
   24.6648  -22.7738  -16.2987 N   0  0  0  0  0  0  0  0  0  0  0  0
   26.0501  -22.3043  -14.4045 C   0  0  0  0  0  0  0  0  0  0  0  0
   26.6678  -21.3423  -14.9781 O   0  0  0  0  0  0  0  0  0  0  0  0
   25.1135  -19.9025  -14.1794 C   0  0  0  0  0  0  0  0  0  0  0  0
   25.0500  -20.1662  -12.7060 C   0  0  1  0  0  0  0  0  0  0  0  0
   23.6830  -20.6006  -12.2997 C   0  0  0  0  0  0  0  0  0  0  0  0
   26.1685  -21.0899  -12.2576 C   0  0  2  0  0  0  0  0  0  0  0  0
   25.9364  -22.3343  -12.9925 N   0  0  0  0  0  0  0  0  0  0  0  0
   26.1377  -21.3529  -10.7895 C   0  0  0  0  0  0  0  0  0  0  0  0
   26.3023  -22.5547  -10.4077 O   0  0  0  0  0  0  0  0  0  0  0  0
   25.9322  -20.2787   -9.8917 N   0  0  0  0  0  0  0  0  0  0  0  0
   26.2191  -20.5056   -8.4638 C   0  0  1  0  0  0  0  0  0  0  0  0
   27.6934  -20.6830   -8.3587 C   0  0  0  0  0  0  0  0  0  0  0  0
   28.1355  -20.4801   -6.9634 C   0  0  0  0  0  0  0  0  0  0  0  0
   27.4403  -21.0360   -5.8963 C   0  0  0  0  0  0  0  0  0  0  0  0
   27.8453  -20.8555   -4.5962 C   0  0  0  0  0  0  0  0  0  0  0  0
   28.9697  -20.1020   -4.3701 C   0  0  0  0  0  0  0  0  0  0  0  0
   29.6801  -19.5375   -5.4114 C   0  0  0  0  0  0  0  0  0  0  0  0
   29.2595  -19.7282   -6.7185 C   0  0  0  0  0  0  0  0  0  0  0  0
   25.6377  -19.4287   -7.6549 C   0  0  0  0  0  0  0  0  0  0  0  0
   24.8992  -19.6755   -6.5154 O   0  0  0  0  0  0  0  0  0  0  0  0
   25.8050  -18.2343   -7.9938 O   0  0  0  0  0  0  0  0  0  0  0  0
  2  3  2  0
  2  1  1  0
  4  2  1  0
  5  4  1  0
  5  6  1  6
  7  8  2  0
  7  5  1  0
 10  9  1  6
 10 12  1  0
 11 10  1  0
 12 13  1  6
 13  7  1  0
 14 12  1  0
 14 15  2  0
 16 14  1  0
 17 16  1  0
 17 25  1  0
 17 18  1  6
 19 18  1  0
 20 19  2  0
 21 20  1  0
 22 21  2  0
 22 23  1  0
 23 24  2  0
 24 19  1  0
 25 26  1  0
 27 25  2  0
M  END
$$$$
