NVF.pdb
     RDKit          3D

 27 27  0  0  1  0  0  0  0  0999 V2000
   20.3183  -22.0926  -15.1570 N   0  0  0  0  0  0  0  0  0  0  0  0
   21.3018  -22.9950  -15.5993 C   0  0  0  0  0  0  0  0  0  0  0  0
   21.0072  -23.8544  -16.4565 O   0  0  0  0  0  0  0  0  0  0  0  0
   22.6839  -22.9374  -15.0594 C   0  0  0  0  0  0  0  0  0  0  0  0
   22.7614  -21.9534  -13.9086 C   0  0  2  0  0  0  0  0  0  0  0  0
   22.5230  -20.5991  -14.3579 N   0  0  0  0  0  0  0  0  0  0  0  0
   24.0888  -22.0234  -13.2411 C   0  0  0  0  0  0  0  0  0  0  0  0
   24.5295  -23.1682  -12.8790 O   0  0  0  0  0  0  0  0  0  0  0  0
   28.3996  -19.9744  -12.3135 C   0  0  0  0  0  0  0  0  0  0  0  0
   27.0919  -20.0946  -13.0346 C   0  0  1  0  0  0  0  0  0  0  0  0
   27.3028  -20.4445  -14.4683 C   0  0  0  0  0  0  0  0  0  0  0  0
   26.1302  -21.0067  -12.2939 C   0  0  2  0  0  0  0  0  0  0  0  0
   24.8593  -20.8580  -13.0047 N   0  0  0  0  0  0  0  0  0  0  0  0
   25.9615  -20.6178  -10.8636 C   0  0  0  0  0  0  0  0  0  0  0  0
   25.1528  -19.6705  -10.6072 O   0  0  0  0  0  0  0  0  0  0  0  0
   26.6906  -21.3029   -9.8630 N   0  0  0  0  0  0  0  0  0  0  0  0
   26.6383  -20.7778   -8.4867 C   0  0  1  0  0  0  0  0  0  0  0  0
   27.6039  -21.5884   -7.6951 C   0  0  0  0  0  0  0  0  0  0  0  0
   27.9143  -20.9124   -6.4183 C   0  0  0  0  0  0  0  0  0  0  0  0
   28.9819  -20.0298   -6.3081 C   0  0  0  0  0  0  0  0  0  0  0  0
   29.2763  -19.3944   -5.1265 C   0  0  0  0  0  0  0  0  0  0  0  0
   28.4806  -19.6544   -4.0391 C   0  0  0  0  0  0  0  0  0  0  0  0
   27.4130  -20.5271   -4.1198 C   0  0  0  0  0  0  0  0  0  0  0  0
   27.1278  -21.1611   -5.3191 C   0  0  0  0  0  0  0  0  0  0  0  0
   26.8615  -19.3279   -8.4910 C   0  0  0  0  0  0  0  0  0  0  0  0
   26.1297  -18.4644   -7.7012 O   0  0  0  0  0  0  0  0  0  0  0  0
   27.7430  -18.8347   -9.2320 O   0  0  0  0  0  0  0  0  0  0  0  0
  2  3  2  0
  2  1  1  0
  4  2  1  0
  5  4  1  0
  5  6  1  6
  7  8  2  0
  7  5  1  0
 10  9  1  1
 10 12  1  0
 11 10  1  0
 12 13  1  6
 13  7  1  0
 14 12  1  0
 14 15  2  0
 16 14  1  0
 17 16  1  0
 17 25  1  0
 17 18  1  1
 19 18  1  0
 20 19  2  0
 21 20  1  0
 22 21  2  0
 22 23  1  0
 23 24  2  0
 24 19  1  0
 25 26  1  0
 27 25  2  0
M  END
$$$$
