NVF.pdb
     RDKit          3D

 27 27  0  0  1  0  0  0  0  0999 V2000
   23.9605  -16.3689  -16.0013 N   0  0  0  0  0  0  0  0  0  0  0  0
   23.1561  -16.7520  -14.9135 C   0  0  0  0  0  0  0  0  0  0  0  0
   22.1201  -16.1036  -14.6561 O   0  0  0  0  0  0  0  0  0  0  0  0
   23.5243  -17.9167  -14.0693 C   0  0  0  0  0  0  0  0  0  0  0  0
   24.8679  -18.4750  -14.4955 C   0  0  2  0  0  0  0  0  0  0  0  0
   24.8600  -18.8563  -15.8909 N   0  0  0  0  0  0  0  0  0  0  0  0
   25.2387  -19.6527  -13.6661 C   0  0  0  0  0  0  0  0  0  0  0  0
   24.5421  -20.7198  -13.7765 O   0  0  0  0  0  0  0  0  0  0  0  0
   27.9086  -21.5720  -14.0359 C   0  0  0  0  0  0  0  0  0  0  0  0
   27.9935  -21.2765  -12.5697 C   0  0  1  0  0  0  0  0  0  0  0  0
   29.1324  -20.3610  -12.2745 C   0  0  0  0  0  0  0  0  0  0  0  0
   26.6547  -20.8224  -12.0154 C   0  0  2  0  0  0  0  0  0  0  0  0
   26.3353  -19.6094  -12.7698 N   0  0  0  0  0  0  0  0  0  0  0  0
   26.7158  -20.5132  -10.5573 C   0  0  0  0  0  0  0  0  0  0  0  0
   27.7430  -19.8947  -10.1338 O   0  0  0  0  0  0  0  0  0  0  0  0
   25.6505  -20.9090   -9.7142 N   0  0  0  0  0  0  0  0  0  0  0  0
   25.8679  -20.8643   -8.2570 C   0  0  1  0  0  0  0  0  0  0  0  0
   26.3614  -19.4935   -7.9518 C   0  0  0  0  0  0  0  0  0  0  0  0
   27.2046  -19.5109   -6.7384 C   0  0  0  0  0  0  0  0  0  0  0  0
   26.6953  -19.9124   -5.5095 C   0  0  0  0  0  0  0  0  0  0  0  0
   27.4720  -19.9349   -4.3768 C   0  0  0  0  0  0  0  0  0  0  0  0
   28.7834  -19.5460   -4.4867 C   0  0  0  0  0  0  0  0  0  0  0  0
   29.3162  -19.1421   -5.6954 C   0  0  0  0  0  0  0  0  0  0  0  0
   28.5203  -19.1246   -6.8302 C   0  0  0  0  0  0  0  0  0  0  0  0
   24.6524  -21.2863   -7.5523 C   0  0  0  0  0  0  0  0  0  0  0  0
   24.6800  -21.7966   -6.2702 O   0  0  0  0  0  0  0  0  0  0  0  0
   23.5385  -21.1892   -8.1172 O   0  0  0  0  0  0  0  0  0  0  0  0
  2  3  2  0
  2  1  1  0
  4  2  1  0
  5  4  1  0
  5  6  1  6
  7  8  2  0
  7  5  1  0
 10  9  1  6
 10 12  1  0
 11 10  1  0
 12 13  1  6
 13  7  1  0
 14 12  1  0
 14 15  2  0
 16 14  1  0
 17 16  1  0
 17 25  1  0
 17 18  1  1
 19 18  1  0
 20 19  2  0
 21 20  1  0
 22 21  2  0
 22 23  1  0
 23 24  2  0
 24 19  1  0
 25 26  1  0
 27 25  2  0
M  END
$$$$
