NVF.pdb
     RDKit          3D

 27 27  0  0  1  0  0  0  0  0999 V2000
   19.5670  -18.5899  -13.1148 N   0  0  0  0  0  0  0  0  0  0  0  0
   19.8146  -18.6556  -11.7322 C   0  0  0  0  0  0  0  0  0  0  0  0
   19.0990  -17.9985  -10.9473 O   0  0  0  0  0  0  0  0  0  0  0  0
   20.9154  -19.4959  -11.1965 C   0  0  0  0  0  0  0  0  0  0  0  0
   21.6314  -20.2118  -12.3250 C   0  0  2  0  0  0  0  0  0  0  0  0
   20.7764  -21.1987  -12.9476 N   0  0  0  0  0  0  0  0  0  0  0  0
   22.8681  -20.8742  -11.8309 C   0  0  0  0  0  0  0  0  0  0  0  0
   22.7558  -21.9775  -11.1936 O   0  0  0  0  0  0  0  0  0  0  0  0
   27.6174  -21.5563  -12.4638 C   0  0  0  0  0  0  0  0  0  0  0  0
   26.2544  -21.0468  -12.8200 C   0  0  1  0  0  0  0  0  0  0  0  0
   25.7284  -21.7327  -14.0346 C   0  0  0  0  0  0  0  0  0  0  0  0
   25.3208  -21.0722  -11.6228 C   0  0  2  0  0  0  0  0  0  0  0  0
   24.1483  -20.3089  -12.0531 N   0  0  0  0  0  0  0  0  0  0  0  0
   25.9245  -20.4390  -10.4145 C   0  0  0  0  0  0  0  0  0  0  0  0
   25.3710  -19.3841   -9.9695 O   0  0  0  0  0  0  0  0  0  0  0  0
   27.0669  -21.0224   -9.8173 N   0  0  0  0  0  0  0  0  0  0  0  0
   27.7159  -20.2970   -8.7104 C   0  0  1  0  0  0  0  0  0  0  0  0
   26.7546  -20.3253   -7.5741 C   0  0  0  0  0  0  0  0  0  0  0  0
   27.4006  -19.8221   -6.3440 C   0  0  0  0  0  0  0  0  0  0  0  0
   27.7533  -20.6801   -5.3094 C   0  0  0  0  0  0  0  0  0  0  0  0
   28.3568  -20.2221   -4.1637 C   0  0  0  0  0  0  0  0  0  0  0  0
   28.6080  -18.8770   -4.0609 C   0  0  0  0  0  0  0  0  0  0  0  0
   28.2682  -18.0011   -5.0735 C   0  0  0  0  0  0  0  0  0  0  0  0
   27.6596  -18.4778   -6.2242 C   0  0  0  0  0  0  0  0  0  0  0  0
   29.0446  -20.8608   -8.4480 C   0  0  0  0  0  0  0  0  0  0  0  0
   29.4424  -22.0826   -8.9518 O   0  0  0  0  0  0  0  0  0  0  0  0
   29.8630  -20.2268   -7.7425 O   0  0  0  0  0  0  0  0  0  0  0  0
  2  3  2  0
  2  1  1  0
  4  2  1  0
  5  4  1  0
  5  6  1  1
  7  8  2  0
  7  5  1  0
 10  9  1  1
 10 12  1  0
 11 10  1  0
 12 13  1  6
 13  7  1  0
 14 12  1  0
 14 15  2  0
 16 14  1  0
 17 16  1  0
 17 25  1  0
 17 18  1  1
 19 18  1  0
 20 19  2  0
 21 20  1  0
 22 21  2  0
 22 23  1  0
 23 24  2  0
 24 19  1  0
 25 26  1  0
 27 25  2  0
M  END
$$$$
