NVF.pdb
     RDKit          3D

 27 27  0  0  1  0  0  0  0  0999 V2000
   28.9749  -27.0592  -16.2464 N   0  0  0  0  0  0  0  0  0  0  0  0
   28.1299  -26.1909  -16.9601 C   0  0  0  0  0  0  0  0  0  0  0  0
   27.9329  -26.3874  -18.1777 O   0  0  0  0  0  0  0  0  0  0  0  0
   27.4707  -25.0454  -16.2832 C   0  0  0  0  0  0  0  0  0  0  0  0
   27.8415  -23.7433  -16.9657 C   0  0  2  0  0  0  0  0  0  0  0  0
   29.2497  -23.4510  -16.8108 N   0  0  0  0  0  0  0  0  0  0  0  0
   27.0420  -22.6138  -16.4203 C   0  0  0  0  0  0  0  0  0  0  0  0
   27.4317  -22.0588  -15.3358 O   0  0  0  0  0  0  0  0  0  0  0  0
   23.5736  -19.2652  -17.2757 C   0  0  0  0  0  0  0  0  0  0  0  0
   24.6597  -20.2180  -17.6718 C   0  0  1  0  0  0  0  0  0  0  0  0
   25.7295  -19.5190  -18.4396 C   0  0  0  0  0  0  0  0  0  0  0  0
   25.1548  -21.0225  -16.4830 C   0  0  2  0  0  0  0  0  0  0  0  0
   25.8736  -22.1517  -17.0752 N   0  0  0  0  0  0  0  0  0  0  0  0
   24.0394  -21.5219  -15.6274 C   0  0  0  0  0  0  0  0  0  0  0  0
   23.4159  -22.5563  -16.0254 O   0  0  0  0  0  0  0  0  0  0  0  0
   23.7217  -20.8427  -14.4274 N   0  0  0  0  0  0  0  0  0  0  0  0
   22.6180  -21.3703  -13.6049 C   0  0  1  0  0  0  0  0  0  0  0  0
   23.2215  -22.3896  -12.7035 C   0  0  0  0  0  0  0  0  0  0  0  0
   24.1201  -21.7411  -11.7260 C   0  0  0  0  0  0  0  0  0  0  0  0
   25.5015  -21.8507  -11.8298 C   0  0  0  0  0  0  0  0  0  0  0  0
   26.3448  -21.2490  -10.9279 C   0  0  0  0  0  0  0  0  0  0  0  0
   25.7847  -20.5254   -9.9052 C   0  0  0  0  0  0  0  0  0  0  0  0
   24.4151  -20.3997   -9.7775 C   0  0  0  0  0  0  0  0  0  0  0  0
   23.5763  -21.0125  -10.6953 C   0  0  0  0  0  0  0  0  0  0  0  0
   21.9054  -20.2680  -12.9499 C   0  0  0  0  0  0  0  0  0  0  0  0
   20.6878  -20.4426  -12.3238 O   0  0  0  0  0  0  0  0  0  0  0  0
   22.4021  -19.1179  -12.9480 O   0  0  0  0  0  0  0  0  0  0  0  0
  2  3  2  0
  2  1  1  0
  4  2  1  0
  5  4  1  0
  5  6  1  1
  7  8  2  0
  7  5  1  0
 10  9  1  1
 10 12  1  0
 11 10  1  0
 12 13  1  6
 13  7  1  0
 14 12  1  0
 14 15  2  0
 16 14  1  0
 17 16  1  0
 17 25  1  0
 17 18  1  1
 19 18  1  0
 20 19  2  0
 21 20  1  0
 22 21  2  0
 22 23  1  0
 23 24  2  0
 24 19  1  0
 25 26  1  0
 27 25  2  0
M  END
$$$$
