IVY.pdb
     RDKit          3D

 28 28  0  0  1  0  0  0  0  0999 V2000
    6.2865  -10.7572   27.1849 C   0  0  0  0  0  0  0  0  0  0  0  0
    5.6718  -11.9915   26.6186 C   0  0  0  0  0  0  0  0  0  0  0  0
    6.6710  -12.8553   25.9188 C   0  0  2  0  0  0  0  0  0  0  0  0
    7.5413  -12.0286   24.9988 C   0  0  0  0  0  0  0  0  0  0  0  0
    6.0641  -14.0316   25.2027 C   0  0  2  0  0  0  0  0  0  0  0  0
    5.4449  -14.8860   26.2493 N   0  0  0  0  0  0  0  0  0  0  0  0
    7.0457  -14.8909   24.5070 C   0  0  0  0  0  0  0  0  0  0  0  0
    7.5911  -15.8488   25.1428 O   0  0  0  0  0  0  0  0  0  0  0  0
    7.0268  -15.2469   20.4335 C   0  0  0  0  0  0  0  0  0  0  0  0
    8.3926  -15.3132   21.0411 C   0  0  2  0  0  0  0  0  0  0  0  0
    9.2173  -16.3071   20.2525 C   0  0  0  0  0  0  0  0  0  0  0  0
    8.3670  -15.6803   22.5098 C   0  0  2  0  0  0  0  0  0  0  0  0
    7.4580  -14.7594   23.1599 N   0  0  0  0  0  0  0  0  0  0  0  0
    9.7208  -15.6404   23.1110 C   0  0  0  0  0  0  0  0  0  0  0  0
   10.1533  -14.5497   23.5736 O   0  0  0  0  0  0  0  0  0  0  0  0
   10.2763  -13.8580   29.5949 O   0  0  0  0  0  0  0  0  0  0  0  0
   10.4837  -14.7581   28.5460 C   0  0  0  0  0  0  0  0  0  0  0  0
   10.1330  -14.4699   27.2473 C   0  0  0  0  0  0  0  0  0  0  0  0
   10.3565  -15.3977   26.2213 C   0  0  0  0  0  0  0  0  0  0  0  0
   10.9303  -16.6162   26.4867 C   0  0  0  0  0  0  0  0  0  0  0  0
   11.1637  -17.5890   25.4156 C   0  0  0  0  0  0  0  0  0  0  0  0
   11.6340  -16.9093   24.1791 C   0  0  2  0  0  0  0  0  0  0  0  0
   10.5621  -16.7816   23.1918 N   0  0  0  0  0  0  0  0  0  0  0  0
   12.8232  -17.5294   23.6236 C   0  0  0  0  0  0  0  0  0  0  0  0
   12.9457  -18.1668   22.4107 O   0  0  0  0  0  0  0  0  0  0  0  0
   11.2733  -16.8860   27.7870 C   0  0  0  0  0  0  0  0  0  0  0  0
   11.0585  -15.9772   28.8154 C   0  0  0  0  0  0  0  0  0  0  0  0
   13.8908  -17.4927   24.3270 O   0  0  0  0  0  0  0  0  0  0  0  0
  1  2  1  0
  2  3  1  0
  3  5  1  0
  3  4  1  6
  5  6  1  1
  5  7  1  0
  7  8  2  0
  7 13  1  0
 10 11  1  6
 10  9  1  0
 12 10  1  0
 12 13  1  1
 14 12  1  0
 14 15  2  0
 16 17  1  0
 17 27  2  0
 18 17  1  0
 18 19  2  0
 19 20  1  0
 20 26  2  0
 20 21  1  0
 22 23  1  0
 22 21  1  1
 23 14  1  0
 24 22  1  0
 25 24  1  0
 27 26  1  0
 28 24  2  0
M  END
$$$$
