IVY.pdb
     RDKit          3D

 28 28  0  0  1  0  0  0  0  0999 V2000
    6.3585  -11.2017   27.1890 C   0  0  0  0  0  0  0  0  0  0  0  0
    5.7856  -12.4525   26.6153 C   0  0  0  0  0  0  0  0  0  0  0  0
    6.7947  -13.2376   25.8409 C   0  0  2  0  0  0  0  0  0  0  0  0
    7.5209  -12.3499   24.8550 C   0  0  0  0  0  0  0  0  0  0  0  0
    6.2320  -14.4646   25.1754 C   0  0  2  0  0  0  0  0  0  0  0  0
    5.6590  -15.3044   26.2596 N   0  0  0  0  0  0  0  0  0  0  0  0
    7.2430  -15.3074   24.5019 C   0  0  0  0  0  0  0  0  0  0  0  0
    7.8703  -16.1831   25.1792 O   0  0  0  0  0  0  0  0  0  0  0  0
    7.1181  -16.3326   20.5734 C   0  0  0  0  0  0  0  0  0  0  0  0
    8.4876  -15.9530   21.0416 C   0  0  2  0  0  0  0  0  0  0  0  0
    9.4944  -16.8341   20.3345 C   0  0  0  0  0  0  0  0  0  0  0  0
    8.6458  -16.0536   22.5441 C   0  0  2  0  0  0  0  0  0  0  0  0
    7.6002  -15.2440   23.1343 N   0  0  0  0  0  0  0  0  0  0  0  0
    9.9941  -15.6261   22.9857 C   0  0  0  0  0  0  0  0  0  0  0  0
   10.5251  -14.6188   22.4436 O   0  0  0  0  0  0  0  0  0  0  0  0
    9.6682  -16.8869   30.1716 O   0  0  0  0  0  0  0  0  0  0  0  0
   10.2796  -16.4318   29.0002 C   0  0  0  0  0  0  0  0  0  0  0  0
   10.8444  -17.2879   28.0831 C   0  0  0  0  0  0  0  0  0  0  0  0
   11.4491  -16.7948   26.9192 C   0  0  0  0  0  0  0  0  0  0  0  0
   11.4927  -15.4465   26.6656 C   0  0  0  0  0  0  0  0  0  0  0  0
   12.1258  -14.9281   25.4496 C   0  0  0  0  0  0  0  0  0  0  0  0
   12.0942  -15.9444   24.3641 C   0  0  2  0  0  0  0  0  0  0  0  0
   10.7236  -16.3025   23.9992 N   0  0  0  0  0  0  0  0  0  0  0  0
   12.9044  -17.1089   24.6711 C   0  0  0  0  0  0  0  0  0  0  0  0
   12.4779  -18.4075   24.8269 O   0  0  0  0  0  0  0  0  0  0  0  0
   10.9247  -14.6083   27.5908 C   0  0  0  0  0  0  0  0  0  0  0  0
   10.3215  -15.0811   28.7494 C   0  0  0  0  0  0  0  0  0  0  0  0
   14.1620  -16.9297   24.8204 O   0  0  0  0  0  0  0  0  0  0  0  0
  1  2  1  0
  2  3  1  0
  3  5  1  0
  3  4  1  6
  5  6  1  1
  5  7  1  0
  7  8  2  0
  7 13  1  0
 10 11  1  6
 10  9  1  0
 12 10  1  0
 12 13  1  1
 14 12  1  0
 14 15  2  0
 16 17  1  0
 17 27  2  0
 18 17  1  0
 18 19  2  0
 19 20  1  0
 20 26  2  0
 20 21  1  0
 22 23  1  0
 22 21  1  1
 23 14  1  0
 24 22  1  0
 25 24  1  0
 27 26  1  0
 28 24  2  0
M  END
$$$$
