IVY.pdb
     RDKit          3D

 28 28  0  0  1  0  0  0  0  0999 V2000
   11.4448  -21.3375   18.8463 C   0  0  0  0  0  0  0  0  0  0  0  0
   10.8812  -20.1304   18.1776 C   0  0  0  0  0  0  0  0  0  0  0  0
   10.6993  -18.9882   19.1244 C   0  0  2  0  0  0  0  0  0  0  0  0
   10.0430  -19.4542   20.4047 C   0  0  0  0  0  0  0  0  0  0  0  0
    9.9788  -17.8100   18.5265 C   0  0  2  0  0  0  0  0  0  0  0  0
   10.8184  -17.3343   17.3961 N   0  0  0  0  0  0  0  0  0  0  0  0
    9.8392  -16.6562   19.4406 C   0  0  0  0  0  0  0  0  0  0  0  0
   10.8871  -16.0955   19.8951 O   0  0  0  0  0  0  0  0  0  0  0  0
    7.1937  -13.6466   19.1536 C   0  0  0  0  0  0  0  0  0  0  0  0
    7.2438  -14.2526   20.5208 C   0  0  2  0  0  0  0  0  0  0  0  0
    7.0050  -13.1569   21.5368 C   0  0  0  0  0  0  0  0  0  0  0  0
    8.5473  -14.9706   20.7997 C   0  0  2  0  0  0  0  0  0  0  0  0
    8.6208  -16.0862   19.8793 N   0  0  0  0  0  0  0  0  0  0  0  0
    8.6429  -15.4096   22.2118 C   0  0  0  0  0  0  0  0  0  0  0  0
    7.9456  -16.3871   22.5976 O   0  0  0  0  0  0  0  0  0  0  0  0
   10.3643  -15.5777   30.8633 O   0  0  0  0  0  0  0  0  0  0  0  0
   10.3451  -15.2368   29.5081 C   0  0  0  0  0  0  0  0  0  0  0  0
   11.0031  -15.9765   28.5526 C   0  0  0  0  0  0  0  0  0  0  0  0
   10.9612  -15.6038   27.2026 C   0  0  0  0  0  0  0  0  0  0  0  0
   10.2633  -14.4923   26.8004 C   0  0  0  0  0  0  0  0  0  0  0  0
   10.2191  -14.0995   25.3890 C   0  0  0  0  0  0  0  0  0  0  0  0
    9.4642  -15.0988   24.5868 C   0  0  2  0  0  0  0  0  0  0  0  0
    9.4896  -14.7766   23.1601 N   0  0  0  0  0  0  0  0  0  0  0  0
    8.1148  -15.3018   25.0815 C   0  0  0  0  0  0  0  0  0  0  0  0
    7.6637  -16.3212   25.8877 O   0  0  0  0  0  0  0  0  0  0  0  0
    9.6136  -13.7673   27.7666 C   0  0  0  0  0  0  0  0  0  0  0  0
    9.6453  -14.1233   29.1089 C   0  0  0  0  0  0  0  0  0  0  0  0
    7.2263  -14.4481   24.7387 O   0  0  0  0  0  0  0  0  0  0  0  0
  1  2  1  0
  2  3  1  0
  3  5  1  0
  3  4  1  1
  5  6  1  6
  5  7  1  0
  7  8  2  0
  7 13  1  0
 10 11  1  1
 10  9  1  0
 12 10  1  0
 12 13  1  6
 14 12  1  0
 14 15  2  0
 16 17  1  0
 17 27  2  0
 18 17  1  0
 18 19  2  0
 19 20  1  0
 20 26  2  0
 20 21  1  0
 22 23  1  0
 22 21  1  1
 23 14  1  0
 24 22  1  0
 25 24  1  0
 27 26  1  0
 28 24  2  0
M  END
$$$$
