IVY.pdb
     RDKit          3D

 28 28  0  0  1  0  0  0  0  0999 V2000
    7.0795  -12.1852   18.7960 C   0  0  0  0  0  0  0  0  0  0  0  0
    7.6755  -13.5097   18.4606 C   0  0  0  0  0  0  0  0  0  0  0  0
    8.1016  -14.2664   19.6772 C   0  0  2  0  0  0  0  0  0  0  0  0
    8.9971  -13.4156   20.5498 C   0  0  0  0  0  0  0  0  0  0  0  0
    8.7246  -15.6029   19.3763 C   0  0  2  0  0  0  0  0  0  0  0  0
    7.7127  -16.3740   18.6079 N   0  0  0  0  0  0  0  0  0  0  0  0
    9.0280  -16.4146   20.5743 C   0  0  0  0  0  0  0  0  0  0  0  0
    8.0807  -17.0244   21.1658 O   0  0  0  0  0  0  0  0  0  0  0  0
   12.2863  -18.6805   21.0489 C   0  0  0  0  0  0  0  0  0  0  0  0
   11.9846  -17.8651   22.2667 C   0  0  2  0  0  0  0  0  0  0  0  0
   12.3429  -18.6827   23.4886 C   0  0  0  0  0  0  0  0  0  0  0  0
   10.5421  -17.4091   22.3282 C   0  0  2  0  0  0  0  0  0  0  0  0
   10.3059  -16.5945   21.1545 N   0  0  0  0  0  0  0  0  0  0  0  0
   10.2499  -16.6741   23.5813 C   0  0  0  0  0  0  0  0  0  0  0  0
   10.7411  -15.5241   23.7453 O   0  0  0  0  0  0  0  0  0  0  0  0
    6.5592  -10.7571   27.0378 O   0  0  0  0  0  0  0  0  0  0  0  0
    6.8465  -12.1017   26.7874 C   0  0  0  0  0  0  0  0  0  0  0  0
    7.8388  -12.7803   27.4566 C   0  0  0  0  0  0  0  0  0  0  0  0
    8.0983  -14.1289   27.1786 C   0  0  0  0  0  0  0  0  0  0  0  0
    7.3696  -14.8056   26.2324 C   0  0  0  0  0  0  0  0  0  0  0  0
    7.6400  -16.2158   25.9387 C   0  0  0  0  0  0  0  0  0  0  0  0
    9.1029  -16.4605   25.8286 C   0  0  2  0  0  0  0  0  0  0  0  0
    9.4359  -17.2074   24.6157 N   0  0  0  0  0  0  0  0  0  0  0  0
    9.6536  -17.0756   27.0225 C   0  0  0  0  0  0  0  0  0  0  0  0
   10.0432  -16.4483   28.1833 O   0  0  0  0  0  0  0  0  0  0  0  0
    6.3847  -14.1130   25.5754 C   0  0  0  0  0  0  0  0  0  0  0  0
    6.1149  -12.7761   25.8393 C   0  0  0  0  0  0  0  0  0  0  0  0
    9.8049  -18.3456   27.0156 O   0  0  0  0  0  0  0  0  0  0  0  0
  1  2  1  0
  2  3  1  0
  3  5  1  0
  3  4  1  6
  5  6  1  6
  5  7  1  0
  7  8  2  0
  7 13  1  0
 10 11  1  1
 10  9  1  0
 12 10  1  0
 12 13  1  6
 14 12  1  0
 14 15  2  0
 16 17  1  0
 17 27  2  0
 18 17  1  0
 18 19  2  0
 19 20  1  0
 20 26  2  0
 20 21  1  0
 22 23  1  0
 22 21  1  1
 23 14  1  0
 24 22  1  0
 25 24  1  0
 27 26  1  0
 28 24  2  0
M  END
$$$$
