IVY.pdb
     RDKit          3D

 28 28  0  0  1  0  0  0  0  0999 V2000
    6.2661  -11.0135   27.1863 C   0  0  0  0  0  0  0  0  0  0  0  0
    5.6475  -12.1386   26.4291 C   0  0  0  0  0  0  0  0  0  0  0  0
    6.6615  -12.9573   25.6971 C   0  0  2  0  0  0  0  0  0  0  0  0
    7.5718  -12.0719   24.8757 C   0  0  0  0  0  0  0  0  0  0  0  0
    6.0677  -14.0652   24.8695 C   0  0  2  0  0  0  0  0  0  0  0  0
    5.3761  -14.9745   25.8201 N   0  0  0  0  0  0  0  0  0  0  0  0
    7.0657  -14.8985   24.1655 C   0  0  0  0  0  0  0  0  0  0  0  0
    7.5971  -15.8791   24.7781 O   0  0  0  0  0  0  0  0  0  0  0  0
    7.2663  -15.3956   20.0789 C   0  0  0  0  0  0  0  0  0  0  0  0
    8.5806  -15.1599   20.7542 C   0  0  2  0  0  0  0  0  0  0  0  0
    9.6401  -15.9594   20.0274 C   0  0  0  0  0  0  0  0  0  0  0  0
    8.5575  -15.5105   22.2270 C   0  0  2  0  0  0  0  0  0  0  0  0
    7.5088  -14.7176   22.8339 N   0  0  0  0  0  0  0  0  0  0  0  0
    9.8721  -15.2762   22.8694 C   0  0  0  0  0  0  0  0  0  0  0  0
   10.3033  -14.0951   22.9684 O   0  0  0  0  0  0  0  0  0  0  0  0
   11.6835  -15.8697   31.0893 O   0  0  0  0  0  0  0  0  0  0  0  0
   11.2499  -15.9793   29.7652 C   0  0  0  0  0  0  0  0  0  0  0  0
   10.9636  -17.1918   29.1814 C   0  0  0  0  0  0  0  0  0  0  0  0
   10.5310  -17.2627   27.8506 C   0  0  0  0  0  0  0  0  0  0  0  0
   10.3825  -16.1250   27.0970 C   0  0  0  0  0  0  0  0  0  0  0  0
    9.9315  -16.1965   25.7043 C   0  0  0  0  0  0  0  0  0  0  0  0
   11.0838  -16.4019   24.7867 C   0  0  2  0  0  0  0  0  0  0  0  0
   10.6770  -16.3272   23.3835 N   0  0  0  0  0  0  0  0  0  0  0  0
   11.8186  -17.6183   25.0829 C   0  0  0  0  0  0  0  0  0  0  0  0
   12.9991  -17.7340   25.7798 O   0  0  0  0  0  0  0  0  0  0  0  0
   10.6725  -14.9254   27.6955 C   0  0  0  0  0  0  0  0  0  0  0  0
   11.1023  -14.8381   29.0136 C   0  0  0  0  0  0  0  0  0  0  0  0
   11.3318  -18.7206   24.6542 O   0  0  0  0  0  0  0  0  0  0  0  0
  1  2  1  0
  2  3  1  0
  3  5  1  0
  3  4  1  6
  5  6  1  1
  5  7  1  0
  7  8  2  0
  7 13  1  0
 10 11  1  6
 10  9  1  0
 12 10  1  0
 12 13  1  1
 14 12  1  0
 14 15  2  0
 16 17  1  0
 17 27  2  0
 18 17  1  0
 18 19  2  0
 19 20  1  0
 20 26  2  0
 20 21  1  0
 22 23  1  0
 22 21  1  1
 23 14  1  0
 24 22  1  0
 25 24  1  0
 27 26  1  0
 28 24  2  0
M  END
$$$$
