IVY.pdb
     RDKit          3D

 28 28  0  0  1  0  0  0  0  0999 V2000
    6.6963  -11.9526   27.9906 C   0  0  0  0  0  0  0  0  0  0  0  0
    6.0437  -13.0676   27.2471 C   0  0  0  0  0  0  0  0  0  0  0  0
    6.9718  -13.7246   26.2769 C   0  0  2  0  0  0  0  0  0  0  0  0
    7.7101  -12.6892   25.4581 C   0  0  0  0  0  0  0  0  0  0  0  0
    6.3101  -14.7563   25.4036 C   0  0  2  0  0  0  0  0  0  0  0  0
    5.7847  -15.8044   26.3170 N   0  0  0  0  0  0  0  0  0  0  0  0
    7.2318  -15.4501   24.4789 C   0  0  0  0  0  0  0  0  0  0  0  0
    7.5963  -16.6400   24.7443 O   0  0  0  0  0  0  0  0  0  0  0  0
    7.0740  -14.6209   20.5447 C   0  0  0  0  0  0  0  0  0  0  0  0
    8.4625  -14.9331   21.0070 C   0  0  2  0  0  0  0  0  0  0  0  0
    9.1687  -15.7008   19.9108 C   0  0  0  0  0  0  0  0  0  0  0  0
    8.4903  -15.7056   22.3090 C   0  0  2  0  0  0  0  0  0  0  0  0
    7.7709  -14.9144   23.2854 N   0  0  0  0  0  0  0  0  0  0  0  0
    9.8756  -15.9994   22.7454 C   0  0  0  0  0  0  0  0  0  0  0  0
   10.5983  -16.7441   22.0286 O   0  0  0  0  0  0  0  0  0  0  0  0
    9.5953  -16.0602   30.2366 O   0  0  0  0  0  0  0  0  0  0  0  0
   10.2562  -15.7592   29.0425 C   0  0  0  0  0  0  0  0  0  0  0  0
   10.9622  -16.7029   28.3327 C   0  0  0  0  0  0  0  0  0  0  0  0
   11.6124  -16.3640   27.1386 C   0  0  0  0  0  0  0  0  0  0  0  0
   11.5610  -15.0830   26.6481 C   0  0  0  0  0  0  0  0  0  0  0  0
   12.2414  -14.7256   25.4001 C   0  0  0  0  0  0  0  0  0  0  0  0
   11.8422  -15.6436   24.3001 C   0  0  2  0  0  0  0  0  0  0  0  0
   10.4334  -15.4779   23.9428 N   0  0  0  0  0  0  0  0  0  0  0  0
   12.1797  -17.0269   24.5824 C   0  0  0  0  0  0  0  0  0  0  0  0
   11.3224  -18.1009   24.6473 O   0  0  0  0  0  0  0  0  0  0  0  0
   10.8527  -14.1557   27.3690 C   0  0  0  0  0  0  0  0  0  0  0  0
   10.2026  -14.4755   28.5542 C   0  0  0  0  0  0  0  0  0  0  0  0
   13.4096  -17.3011   24.8014 O   0  0  0  0  0  0  0  0  0  0  0  0
  1  2  1  0
  2  3  1  0
  3  5  1  0
  3  4  1  6
  5  6  1  1
  5  7  1  0
  7  8  2  0
  7 13  1  0
 10 11  1  6
 10  9  1  0
 12 10  1  0
 12 13  1  1
 14 12  1  0
 14 15  2  0
 16 17  1  0
 17 27  2  0
 18 17  1  0
 18 19  2  0
 19 20  1  0
 20 26  2  0
 20 21  1  0
 22 23  1  0
 22 21  1  1
 23 14  1  0
 24 22  1  0
 25 24  1  0
 27 26  1  0
 28 24  2  0
M  END
$$$$
