IVY.pdb
     RDKit          3D

 28 28  0  0  1  0  0  0  0  0999 V2000
    7.8269  -11.4647   18.7982 C   0  0  0  0  0  0  0  0  0  0  0  0
    8.1215  -12.8495   18.3320 C   0  0  0  0  0  0  0  0  0  0  0  0
    8.0101  -13.8559   19.4316 C   0  0  2  0  0  0  0  0  0  0  0  0
    8.8698  -13.4574   20.6103 C   0  0  0  0  0  0  0  0  0  0  0  0
    8.2858  -15.2692   18.9943 C   0  0  2  0  0  0  0  0  0  0  0  0
    7.3079  -15.5734   17.9172 N   0  0  0  0  0  0  0  0  0  0  0  0
    8.0597  -16.2846   20.0450 C   0  0  0  0  0  0  0  0  0  0  0  0
    6.8980  -16.4056   20.5500 O   0  0  0  0  0  0  0  0  0  0  0  0
    8.6633  -19.9918   20.2978 C   0  0  0  0  0  0  0  0  0  0  0  0
    9.3474  -19.3531   21.4652 C   0  0  2  0  0  0  0  0  0  0  0  0
    9.1829  -20.2574   22.6674 C   0  0  0  0  0  0  0  0  0  0  0  0
    8.8291  -17.9620   21.7632 C   0  0  2  0  0  0  0  0  0  0  0  0
    9.0314  -17.1704   20.5676 N   0  0  0  0  0  0  0  0  0  0  0  0
    9.4988  -17.3658   22.9429 C   0  0  0  0  0  0  0  0  0  0  0  0
   10.7567  -17.2749   22.9518 O   0  0  0  0  0  0  0  0  0  0  0  0
   11.1297  -13.9881   30.9139 O   0  0  0  0  0  0  0  0  0  0  0  0
   10.4705  -14.4934   29.7899 C   0  0  0  0  0  0  0  0  0  0  0  0
   10.0114  -15.7888   29.7251 C   0  0  0  0  0  0  0  0  0  0  0  0
    9.3545  -16.2605   28.5808 C   0  0  0  0  0  0  0  0  0  0  0  0
    9.1531  -15.4423   27.4971 C   0  0  0  0  0  0  0  0  0  0  0  0
    8.4675  -15.9336   26.2984 C   0  0  0  0  0  0  0  0  0  0  0  0
    9.4497  -16.3832   25.2761 C   0  0  2  0  0  0  0  0  0  0  0  0
    8.7858  -16.8875   24.0741 N   0  0  0  0  0  0  0  0  0  0  0  0
   10.4131  -17.3284   25.8106 C   0  0  0  0  0  0  0  0  0  0  0  0
   10.1937  -18.6419   26.1557 O   0  0  0  0  0  0  0  0  0  0  0  0
    9.6174  -14.1543   27.5797 C   0  0  0  0  0  0  0  0  0  0  0  0
   10.2704  -13.6714   28.7067 C   0  0  0  0  0  0  0  0  0  0  0  0
   11.6090  -16.9127   25.9919 O   0  0  0  0  0  0  0  0  0  0  0  0
  1  2  1  0
  2  3  1  0
  3  5  1  0
  3  4  1  1
  5  6  1  6
  5  7  1  0
  7  8  2  0
  7 13  1  0
 10 11  1  1
 10  9  1  0
 12 10  1  0
 12 13  1  6
 14 12  1  0
 14 15  2  0
 16 17  1  0
 17 27  2  0
 18 17  1  0
 18 19  2  0
 19 20  1  0
 20 26  2  0
 20 21  1  0
 22 23  1  0
 22 21  1  1
 23 14  1  0
 24 22  1  0
 25 24  1  0
 27 26  1  0
 28 24  2  0
M  END
$$$$
