IVY.pdb
     RDKit          3D

 28 28  0  0  1  0  0  0  0  0999 V2000
    5.8300  -10.4813   26.7840 C   0  0  0  0  0  0  0  0  0  0  0  0
    5.3344  -11.8031   26.3054 C   0  0  0  0  0  0  0  0  0  0  0  0
    6.4017  -12.5990   25.6258 C   0  0  2  0  0  0  0  0  0  0  0  0
    7.1266  -11.7559   24.6007 C   0  0  0  0  0  0  0  0  0  0  0  0
    5.9135  -13.8946   25.0361 C   0  0  2  0  0  0  0  0  0  0  0  0
    5.4143  -14.7114   26.1730 N   0  0  0  0  0  0  0  0  0  0  0  0
    6.9692  -14.7031   24.3896 C   0  0  0  0  0  0  0  0  0  0  0  0
    7.6830  -15.4762   25.1050 O   0  0  0  0  0  0  0  0  0  0  0  0
    6.8431  -15.6157   20.3828 C   0  0  0  0  0  0  0  0  0  0  0  0
    8.2178  -15.3815   20.9253 C   0  0  2  0  0  0  0  0  0  0  0  0
    9.1748  -16.3169   20.2189 C   0  0  0  0  0  0  0  0  0  0  0  0
    8.2977  -15.5626   22.4265 C   0  0  2  0  0  0  0  0  0  0  0  0
    7.2816  -14.7115   23.0096 N   0  0  0  0  0  0  0  0  0  0  0  0
    9.6491  -15.2499   22.9476 C   0  0  0  0  0  0  0  0  0  0  0  0
   10.0395  -14.0506   22.9565 O   0  0  0  0  0  0  0  0  0  0  0  0
   11.9943  -16.1560   31.0953 O   0  0  0  0  0  0  0  0  0  0  0  0
   11.4888  -16.1252   29.7926 C   0  0  0  0  0  0  0  0  0  0  0  0
   11.2396  -14.9475   29.1264 C   0  0  0  0  0  0  0  0  0  0  0  0
   10.7325  -14.9559   27.8202 C   0  0  0  0  0  0  0  0  0  0  0  0
   10.4721  -16.1385   27.1737 C   0  0  0  0  0  0  0  0  0  0  0  0
    9.9403  -16.1500   25.8080 C   0  0  0  0  0  0  0  0  0  0  0  0
   11.0423  -16.2441   24.8136 C   0  0  2  0  0  0  0  0  0  0  0  0
   10.5338  -16.2448   23.4420 N   0  0  0  0  0  0  0  0  0  0  0  0
   11.9288  -17.3640   25.0727 C   0  0  0  0  0  0  0  0  0  0  0  0
   13.1773  -17.3269   25.6492 O   0  0  0  0  0  0  0  0  0  0  0  0
   10.7266  -17.3024   27.8533 C   0  0  0  0  0  0  0  0  0  0  0  0
   11.2293  -17.3111   29.1483 C   0  0  0  0  0  0  0  0  0  0  0  0
   11.5235  -18.5282   24.7316 O   0  0  0  0  0  0  0  0  0  0  0  0
  1  2  1  0
  2  3  1  0
  3  5  1  0
  3  4  1  6
  5  6  1  1
  5  7  1  0
  7  8  2  0
  7 13  1  0
 10 11  1  6
 10  9  1  0
 12 10  1  0
 12 13  1  1
 14 12  1  0
 14 15  2  0
 16 17  1  0
 17 27  2  0
 18 17  1  0
 18 19  2  0
 19 20  1  0
 20 26  2  0
 20 21  1  0
 22 23  1  0
 22 21  1  1
 23 14  1  0
 24 22  1  0
 25 24  1  0
 27 26  1  0
 28 24  2  0
M  END
$$$$
