IVY.pdb
     RDKit          3D

 28 28  0  0  1  0  0  0  0  0999 V2000
    8.4066  -21.0657   25.5605 C   0  0  0  0  0  0  0  0  0  0  0  0
    7.8091  -19.9819   24.7298 C   0  0  0  0  0  0  0  0  0  0  0  0
    6.4243  -19.6276   25.1671 C   0  0  2  0  0  0  0  0  0  0  0  0
    5.5339  -20.8500   25.1658 C   0  0  0  0  0  0  0  0  0  0  0  0
    5.8122  -18.4923   24.3915 C   0  0  2  0  0  0  0  0  0  0  0  0
    5.6518  -18.9763   22.9955 N   0  0  0  0  0  0  0  0  0  0  0  0
    6.6637  -17.2866   24.3067 C   0  0  0  0  0  0  0  0  0  0  0  0
    7.5493  -17.2163   23.3957 O   0  0  0  0  0  0  0  0  0  0  0  0
    5.6427  -13.4700   25.2269 C   0  0  0  0  0  0  0  0  0  0  0  0
    6.9313  -13.9058   25.8504 C   0  0  2  0  0  0  0  0  0  0  0  0
    7.8734  -12.7219   25.8747 C   0  0  0  0  0  0  0  0  0  0  0  0
    7.5632  -15.0821   25.1365 C   0  0  2  0  0  0  0  0  0  0  0  0
    6.5963  -16.1598   25.1598 N   0  0  0  0  0  0  0  0  0  0  0  0
    8.8491  -15.4771   25.7580 C   0  0  0  0  0  0  0  0  0  0  0  0
    8.8986  -15.6482   27.0065 O   0  0  0  0  0  0  0  0  0  0  0  0
   10.1567  -18.2903   31.4010 O   0  0  0  0  0  0  0  0  0  0  0  0
   10.5231  -18.0414   30.0755 C   0  0  0  0  0  0  0  0  0  0  0  0
   11.6967  -17.4053   29.7423 C   0  0  0  0  0  0  0  0  0  0  0  0
   12.0308  -17.1729   28.4015 C   0  0  0  0  0  0  0  0  0  0  0  0
   11.1961  -17.5738   27.3883 C   0  0  0  0  0  0  0  0  0  0  0  0
   11.5426  -17.3307   25.9851 C   0  0  0  0  0  0  0  0  0  0  0  0
   11.3426  -15.8996   25.6327 C   0  0  2  0  0  0  0  0  0  0  0  0
   10.0391  -15.6741   25.0083 N   0  0  0  0  0  0  0  0  0  0  0  0
   12.4337  -15.3666   24.8375 C   0  0  0  0  0  0  0  0  0  0  0  0
   13.6562  -14.9222   25.2853 O   0  0  0  0  0  0  0  0  0  0  0  0
   10.0307  -18.2063   27.7393 C   0  0  0  0  0  0  0  0  0  0  0  0
    9.6849  -18.4442   29.0635 C   0  0  0  0  0  0  0  0  0  0  0  0
   12.2591  -15.2900   23.5728 O   0  0  0  0  0  0  0  0  0  0  0  0
  1  2  1  0
  2  3  1  0
  3  5  1  0
  3  4  1  6
  5  6  1  6
  5  7  1  0
  7  8  2  0
  7 13  1  0
 10 11  1  6
 10  9  1  0
 12 10  1  0
 12 13  1  1
 14 12  1  0
 14 15  2  0
 16 17  1  0
 17 27  2  0
 18 17  1  0
 18 19  2  0
 19 20  1  0
 20 26  2  0
 20 21  1  0
 22 23  1  0
 22 21  1  6
 23 14  1  0
 24 22  1  0
 25 24  1  0
 27 26  1  0
 28 24  2  0
M  END
$$$$
