IVY.pdb
     RDKit          3D

 28 28  0  0  1  0  0  0  0  0999 V2000
    5.5152  -21.8178   24.8179 C   0  0  0  0  0  0  0  0  0  0  0  0
    5.7067  -21.1617   23.4932 C   0  0  0  0  0  0  0  0  0  0  0  0
    6.3343  -19.8104   23.6130 C   0  0  2  0  0  0  0  0  0  0  0  0
    5.5909  -18.9629   24.6211 C   0  0  0  0  0  0  0  0  0  0  0  0
    6.4984  -19.0961   22.2986 C   0  0  2  0  0  0  0  0  0  0  0  0
    7.2361  -20.0265   21.4047 N   0  0  0  0  0  0  0  0  0  0  0  0
    7.3202  -17.8693   22.3729 C   0  0  0  0  0  0  0  0  0  0  0  0
    8.5593  -17.9691   22.6446 O   0  0  0  0  0  0  0  0  0  0  0  0
    7.2656  -14.6940   20.0210 C   0  0  0  0  0  0  0  0  0  0  0  0
    7.1791  -14.2952   21.4606 C   0  0  2  0  0  0  0  0  0  0  0  0
    7.9637  -13.0149   21.6484 C   0  0  0  0  0  0  0  0  0  0  0  0
    7.6746  -15.3730   22.4015 C   0  0  2  0  0  0  0  0  0  0  0  0
    6.8608  -16.5473   22.1651 N   0  0  0  0  0  0  0  0  0  0  0  0
    7.6201  -14.9363   23.8164 C   0  0  0  0  0  0  0  0  0  0  0  0
    6.4964  -14.7297   24.3506 O   0  0  0  0  0  0  0  0  0  0  0  0
   10.4643  -19.5316   29.1102 O   0  0  0  0  0  0  0  0  0  0  0  0
    9.8307  -18.4180   28.5520 C   0  0  0  0  0  0  0  0  0  0  0  0
   10.3983  -17.1647   28.5630 C   0  0  0  0  0  0  0  0  0  0  0  0
    9.7329  -16.0711   27.9932 C   0  0  0  0  0  0  0  0  0  0  0  0
    8.4993  -16.2232   27.4105 C   0  0  0  0  0  0  0  0  0  0  0  0
    7.8006  -15.0806   26.8151 C   0  0  0  0  0  0  0  0  0  0  0  0
    8.7312  -14.2647   25.9903 C   0  0  2  0  0  0  0  0  0  0  0  0
    8.7830  -14.7374   24.6070 N   0  0  0  0  0  0  0  0  0  0  0  0
   10.0509  -14.1576   26.5854 C   0  0  0  0  0  0  0  0  0  0  0  0
   10.4144  -13.4186   27.6874 O   0  0  0  0  0  0  0  0  0  0  0  0
    7.9492  -17.4796   27.4089 C   0  0  0  0  0  0  0  0  0  0  0  0
    8.5958  -18.5739   27.9694 C   0  0  0  0  0  0  0  0  0  0  0  0
   11.0004  -14.8159   26.0368 O   0  0  0  0  0  0  0  0  0  0  0  0
  1  2  1  0
  2  3  1  0
  3  5  1  0
  3  4  1  1
  5  6  1  6
  5  7  1  0
  7  8  2  0
  7 13  1  0
 10 11  1  6
 10  9  1  0
 12 10  1  0
 12 13  1  1
 14 12  1  0
 14 15  2  0
 16 17  1  0
 17 27  2  0
 18 17  1  0
 18 19  2  0
 19 20  1  0
 20 26  2  0
 20 21  1  0
 22 23  1  0
 22 21  1  1
 23 14  1  0
 24 22  1  0
 25 24  1  0
 27 26  1  0
 28 24  2  0
M  END
$$$$
