IVY.pdb
     RDKit          3D

 28 28  0  0  1  0  0  0  0  0999 V2000
    5.8125  -11.2333   26.9582 C   0  0  0  0  0  0  0  0  0  0  0  0
    5.4215  -12.5540   26.3884 C   0  0  0  0  0  0  0  0  0  0  0  0
    6.5295  -13.1892   25.6118 C   0  0  2  0  0  0  0  0  0  0  0  0
    7.1736  -12.1862   24.6811 C   0  0  0  0  0  0  0  0  0  0  0  0
    6.1232  -14.4425   24.8844 C   0  0  2  0  0  0  0  0  0  0  0  0
    5.7237  -15.4225   25.9278 N   0  0  0  0  0  0  0  0  0  0  0  0
    7.2166  -15.0842   24.1236 C   0  0  0  0  0  0  0  0  0  0  0  0
    7.9308  -15.9699   24.6931 O   0  0  0  0  0  0  0  0  0  0  0  0
    7.0740  -15.4178   20.0598 C   0  0  0  0  0  0  0  0  0  0  0  0
    8.4476  -15.1646   20.5966 C   0  0  2  0  0  0  0  0  0  0  0  0
    9.4396  -15.9294   19.7476 C   0  0  0  0  0  0  0  0  0  0  0  0
    8.5878  -15.5390   22.0571 C   0  0  2  0  0  0  0  0  0  0  0  0
    7.5662  -14.8106   22.7801 N   0  0  0  0  0  0  0  0  0  0  0  0
    9.9462  -15.2474   22.5722 C   0  0  0  0  0  0  0  0  0  0  0  0
   10.3987  -14.0741   22.4762 O   0  0  0  0  0  0  0  0  0  0  0  0
   11.4259  -15.3617   30.8831 O   0  0  0  0  0  0  0  0  0  0  0  0
   11.0564  -15.4922   29.5415 C   0  0  0  0  0  0  0  0  0  0  0  0
   10.8872  -14.4057   28.7146 C   0  0  0  0  0  0  0  0  0  0  0  0
   10.5161  -14.5755   27.3741 C   0  0  0  0  0  0  0  0  0  0  0  0
   10.3123  -15.8291   26.8535 C   0  0  0  0  0  0  0  0  0  0  0  0
    9.9227  -16.0094   25.4521 C   0  0  0  0  0  0  0  0  0  0  0  0
   11.1197  -16.2192   24.5946 C   0  0  2  0  0  0  0  0  0  0  0  0
   10.7706  -16.2348   23.1742 N   0  0  0  0  0  0  0  0  0  0  0  0
   11.8844  -17.3890   24.9867 C   0  0  0  0  0  0  0  0  0  0  0  0
   11.7571  -18.6716   24.5058 O   0  0  0  0  0  0  0  0  0  0  0  0
   10.4855  -16.9003   27.6925 C   0  0  0  0  0  0  0  0  0  0  0  0
   10.8532  -16.7489   29.0235 C   0  0  0  0  0  0  0  0  0  0  0  0
   12.7838  -17.2327   25.8825 O   0  0  0  0  0  0  0  0  0  0  0  0
  1  2  1  0
  2  3  1  0
  3  5  1  0
  3  4  1  6
  5  6  1  1
  5  7  1  0
  7  8  2  0
  7 13  1  0
 10 11  1  6
 10  9  1  0
 12 10  1  0
 12 13  1  1
 14 12  1  0
 14 15  2  0
 16 17  1  0
 17 27  2  0
 18 17  1  0
 18 19  2  0
 19 20  1  0
 20 26  2  0
 20 21  1  0
 22 23  1  0
 22 21  1  1
 23 14  1  0
 24 22  1  0
 25 24  1  0
 27 26  1  0
 28 24  2  0
M  END
$$$$
