IVY.pdb
     RDKit          3D

 28 28  0  0  1  0  0  0  0  0999 V2000
    6.1526  -10.9385   27.1117 C   0  0  0  0  0  0  0  0  0  0  0  0
    5.5205  -12.1202   26.4589 C   0  0  0  0  0  0  0  0  0  0  0  0
    6.5086  -12.9491   25.7033 C   0  0  2  0  0  0  0  0  0  0  0  0
    7.4016  -12.0736   24.8528 C   0  0  0  0  0  0  0  0  0  0  0  0
    5.8850  -14.0569   24.8979 C   0  0  2  0  0  0  0  0  0  0  0  0
    5.2134  -14.9568   25.8716 N   0  0  0  0  0  0  0  0  0  0  0  0
    6.8578  -14.9006   24.1713 C   0  0  0  0  0  0  0  0  0  0  0  0
    7.4313  -15.8553   24.7867 O   0  0  0  0  0  0  0  0  0  0  0  0
    7.0493  -15.0997   20.0356 C   0  0  0  0  0  0  0  0  0  0  0  0
    8.3660  -15.0838   20.7463 C   0  0  2  0  0  0  0  0  0  0  0  0
    9.3382  -15.9435   19.9679 C   0  0  0  0  0  0  0  0  0  0  0  0
    8.2658  -15.5506   22.1832 C   0  0  2  0  0  0  0  0  0  0  0  0
    7.2323  -14.7567   22.8144 N   0  0  0  0  0  0  0  0  0  0  0  0
    9.5627  -15.4366   22.8909 C   0  0  0  0  0  0  0  0  0  0  0  0
   10.1340  -14.3135   22.9449 O   0  0  0  0  0  0  0  0  0  0  0  0
   12.3460  -15.7630   30.9571 O   0  0  0  0  0  0  0  0  0  0  0  0
   11.7349  -16.0144   29.7257 C   0  0  0  0  0  0  0  0  0  0  0  0
   11.3519  -17.2774   29.3372 C   0  0  0  0  0  0  0  0  0  0  0  0
   10.7414  -17.4912   28.0942 C   0  0  0  0  0  0  0  0  0  0  0  0
   10.5107  -16.4465   27.2342 C   0  0  0  0  0  0  0  0  0  0  0  0
    9.8736  -16.6676   25.9329 C   0  0  0  0  0  0  0  0  0  0  0  0
   10.8434  -16.4483   24.8267 C   0  0  2  0  0  0  0  0  0  0  0  0
   10.1989  -16.5412   23.5169 N   0  0  0  0  0  0  0  0  0  0  0  0
   12.0068  -17.3102   24.9304 C   0  0  0  0  0  0  0  0  0  0  0  0
   12.3525  -18.3524   24.1016 O   0  0  0  0  0  0  0  0  0  0  0  0
   10.8991  -15.1946   27.6383 C   0  0  0  0  0  0  0  0  0  0  0  0
   11.5054  -14.9660   28.8671 C   0  0  0  0  0  0  0  0  0  0  0  0
   12.8158  -17.0953   25.8975 O   0  0  0  0  0  0  0  0  0  0  0  0
  1  2  1  0
  2  3  1  0
  3  5  1  0
  3  4  1  6
  5  6  1  1
  5  7  1  0
  7  8  2  0
  7 13  1  0
 10 11  1  6
 10  9  1  0
 12 10  1  0
 12 13  1  1
 14 12  1  0
 14 15  2  0
 16 17  1  0
 17 27  2  0
 18 17  1  0
 18 19  2  0
 19 20  1  0
 20 26  2  0
 20 21  1  0
 22 23  1  0
 22 21  1  1
 23 14  1  0
 24 22  1  0
 25 24  1  0
 27 26  1  0
 28 24  2  0
M  END
$$$$
