PNP.pdb
     RDKit          3D

 23 24  0  0  1  0  0  0  0  0999 V2000
   22.9589  -13.5770  -15.0647 N   0  0  0  0  0  0  0  0  0  0  0  0
   23.4939  -14.9483  -15.0852 C   0  0  0  0  0  0  0  0  0  0  0  0
   23.1835  -15.3306  -16.5352 C   0  0  0  0  0  0  0  0  0  0  0  0
   23.3282  -14.0472  -17.3237 C   0  0  0  0  0  0  0  0  0  0  0  0
   23.5606  -13.0274  -16.2372 C   0  0  1  0  0  0  0  0  0  0  0  0
   23.0528  -11.6857  -16.5910 C   0  0  0  0  0  0  0  0  0  0  0  0
   23.6134  -11.0418  -17.5228 O   0  0  0  0  0  0  0  0  0  0  0  0
   19.8579  -10.9844  -14.5398 N   0  0  0  0  0  0  0  0  0  0  0  0
   19.2728  -10.3193  -15.6538 C   0  0  0  0  0  0  0  0  0  0  0  0
   18.0371  -10.2884  -15.7817 O   0  0  0  0  0  0  0  0  0  0  0  0
   20.1254   -9.6493  -16.6851 C   0  0  0  0  0  0  0  0  0  0  0  0
   21.6051   -9.7261  -16.2807 C   0  0  2  0  0  0  0  0  0  0  0  0
   21.9608  -11.0545  -15.9493 N   0  0  0  0  0  0  0  0  0  0  0  0
   21.8305   -8.6737  -15.2976 C   0  0  0  0  0  0  0  0  0  0  0  0
   21.8430   -9.1405  -14.0884 O   0  0  0  0  0  0  0  0  0  0  0  0
   22.0243   -7.2964  -15.4953 N   0  0  0  0  0  0  0  0  0  0  0  0
   21.7862   -6.6204  -16.7572 C   0  0  0  0  0  0  0  0  0  0  0  0
   22.7095   -5.4533  -16.7639 C   0  0  0  0  0  0  0  0  0  0  0  0
   23.4262   -5.4601  -15.4322 C   0  0  0  0  0  0  0  0  0  0  0  0
   22.4539   -6.2809  -14.5788 C   0  0  1  0  0  0  0  0  0  0  0  0
   21.3215   -5.4315  -14.1076 C   0  0  0  0  0  0  0  0  0  0  0  0
   21.5031   -4.5811  -13.1995 O   0  0  0  0  0  0  0  0  0  0  0  0
   20.0375   -5.5254  -14.6271 O   0  0  0  0  0  0  0  0  0  0  0  0
  1  5  1  0
  2  3  1  0
  2  1  1  0
  3  4  1  0
  4  5  1  0
  5  6  1  6
  6  7  2  0
  8  9  1  0
  9 10  2  0
  9 11  1  0
 12 11  1  1
 12 14  1  0
 13 12  1  0
 13  6  1  0
 14 15  2  0
 14 16  1  0
 16 20  1  0
 16 17  1  0
 17 18  1  0
 19 18  1  0
 20 19  1  0
 21 23  1  0
 20 21  1  6
 22 21  2  0
M  END
$$$$
