PNP.pdb
     RDKit          3D

 23 24  0  0  1  0  0  0  0  0999 V2000
   27.9073  -21.2200  -13.4984 N   0  0  0  0  0  0  0  0  0  0  0  0
   28.3749  -21.0576  -14.8847 C   0  0  0  0  0  0  0  0  0  0  0  0
   27.5145  -19.8659  -15.3149 C   0  0  0  0  0  0  0  0  0  0  0  0
   27.3527  -19.0229  -14.0688 C   0  0  0  0  0  0  0  0  0  0  0  0
   28.0058  -19.8804  -13.0140 C   0  0  1  0  0  0  0  0  0  0  0  0
   27.4157  -19.6899  -11.6729 C   0  0  0  0  0  0  0  0  0  0  0  0
   27.3680  -18.5265  -11.1815 O   0  0  0  0  0  0  0  0  0  0  0  0
   24.9583  -19.7367   -7.3209 N   0  0  0  0  0  0  0  0  0  0  0  0
   24.3069  -20.6569   -8.1894 C   0  0  0  0  0  0  0  0  0  0  0  0
   23.1863  -21.1053   -7.8941 O   0  0  0  0  0  0  0  0  0  0  0  0
   24.9518  -21.1000   -9.4651 C   0  0  0  0  0  0  0  0  0  0  0  0
   26.3435  -20.4652   -9.6037 C   0  0  2  0  0  0  0  0  0  0  0  0
   26.8882  -20.7371  -10.8805 N   0  0  0  0  0  0  0  0  0  0  0  0
   27.1037  -20.8491   -8.4207 C   0  0  0  0  0  0  0  0  0  0  0  0
   27.5340  -22.0691   -8.5012 O   0  0  0  0  0  0  0  0  0  0  0  0
   27.4064  -20.0971   -7.2733 N   0  0  0  0  0  0  0  0  0  0  0  0
   26.8561  -18.7820   -7.0013 C   0  0  0  0  0  0  0  0  0  0  0  0
   27.8744  -18.0896   -6.1657 C   0  0  0  0  0  0  0  0  0  0  0  0
   28.9856  -19.0861   -5.9223 C   0  0  0  0  0  0  0  0  0  0  0  0
   28.2509  -20.4097   -6.1575 C   0  0  1  0  0  0  0  0  0  0  0  0
   27.4670  -20.7982   -4.9490 C   0  0  0  0  0  0  0  0  0  0  0  0
   26.2102  -20.7785   -4.9762 O   0  0  0  0  0  0  0  0  0  0  0  0
   28.0594  -21.1931   -3.7571 O   0  0  0  0  0  0  0  0  0  0  0  0
  1  5  1  0
  2  3  1  0
  2  1  1  0
  3  4  1  0
  4  5  1  0
  5  6  1  1
  6  7  2  0
  8  9  1  0
  9 10  2  0
  9 11  1  0
 12 11  1  6
 12 14  1  0
 13 12  1  0
 13  6  1  0
 14 15  2  0
 14 16  1  0
 16 20  1  0
 16 17  1  0
 17 18  1  0
 19 18  1  0
 20 19  1  0
 21 23  1  0
 20 21  1  1
 22 21  2  0
M  END
$$$$
