PNP.pdb
     RDKit          3D

 23 24  0  0  1  0  0  0  0  0999 V2000
   20.3997  -12.9687  -16.7961 N   0  0  0  0  0  0  0  0  0  0  0  0
   20.5296  -14.3189  -17.3681 C   0  0  0  0  0  0  0  0  0  0  0  0
   19.6227  -14.1742  -18.5936 C   0  0  0  0  0  0  0  0  0  0  0  0
   19.7823  -12.7365  -19.0378 C   0  0  0  0  0  0  0  0  0  0  0  0
   20.6445  -12.1566  -17.9447 C   0  0  1  0  0  0  0  0  0  0  0  0
   20.3938  -10.7181  -17.7182 C   0  0  0  0  0  0  0  0  0  0  0  0
   20.7432   -9.8860  -18.6029 O   0  0  0  0  0  0  0  0  0  0  0  0
   17.7189   -6.3183  -14.6341 N   0  0  0  0  0  0  0  0  0  0  0  0
   17.9576   -7.0114  -15.8540 C   0  0  0  0  0  0  0  0  0  0  0  0
   17.9718   -6.3905  -16.9304 O   0  0  0  0  0  0  0  0  0  0  0  0
   18.1945   -8.4889  -15.8663 C   0  0  0  0  0  0  0  0  0  0  0  0
   19.5964   -8.7963  -16.4132 C   0  0  2  0  0  0  0  0  0  0  0  0
   19.7778  -10.1917  -16.5579 N   0  0  0  0  0  0  0  0  0  0  0  0
   20.5431   -8.0471  -15.5963 C   0  0  0  0  0  0  0  0  0  0  0  0
   20.8135   -8.6624  -14.4880 O   0  0  0  0  0  0  0  0  0  0  0  0
   21.1596   -6.8114  -15.8543 N   0  0  0  0  0  0  0  0  0  0  0  0
   20.8104   -5.9521  -16.9704 C   0  0  0  0  0  0  0  0  0  0  0  0
   22.0481   -5.1891  -17.2877 C   0  0  0  0  0  0  0  0  0  0  0  0
   23.0851   -5.6018  -16.2672 C   0  0  0  0  0  0  0  0  0  0  0  0
   22.1936   -6.1248  -15.1364 C   0  0  1  0  0  0  0  0  0  0  0  0
   21.6591   -4.9945  -14.3223 C   0  0  0  0  0  0  0  0  0  0  0  0
   22.4174   -4.3592  -13.5463 O   0  0  0  0  0  0  0  0  0  0  0  0
   20.3326   -4.5876  -14.3705 O   0  0  0  0  0  0  0  0  0  0  0  0
  1  5  1  0
  2  3  1  0
  2  1  1  0
  3  4  1  0
  4  5  1  0
  5  6  1  1
  6  7  2  0
  8  9  1  0
  9 10  2  0
  9 11  1  0
 12 11  1  1
 12 14  1  0
 13 12  1  0
 13  6  1  0
 14 15  2  0
 14 16  1  0
 16 20  1  0
 16 17  1  0
 17 18  1  0
 19 18  1  0
 20 19  1  0
 21 23  1  0
 20 21  1  6
 22 21  2  0
M  END
$$$$
