PNP.pdb
     RDKit          3D

 23 24  0  0  1  0  0  0  0  0999 V2000
   28.7161  -22.7173  -18.2956 N   0  0  0  0  0  0  0  0  0  0  0  0
   29.7839  -22.9734  -19.2760 C   0  0  0  0  0  0  0  0  0  0  0  0
   29.9053  -21.5814  -19.9029 C   0  0  0  0  0  0  0  0  0  0  0  0
   29.6094  -20.6128  -18.7786 C   0  0  0  0  0  0  0  0  0  0  0  0
   29.2032  -21.5363  -17.6577 C   0  0  1  0  0  0  0  0  0  0  0  0
   28.2324  -20.9204  -16.7296 C   0  0  0  0  0  0  0  0  0  0  0  0
   28.5301  -19.8312  -16.1618 O   0  0  0  0  0  0  0  0  0  0  0  0
   24.4176  -18.0003  -16.5654 N   0  0  0  0  0  0  0  0  0  0  0  0
   24.9093  -19.2607  -17.0071 C   0  0  0  0  0  0  0  0  0  0  0  0
   25.4669  -19.3585  -18.1133 O   0  0  0  0  0  0  0  0  0  0  0  0
   24.7665  -20.4837  -16.1566 C   0  0  0  0  0  0  0  0  0  0  0  0
   26.1097  -20.8305  -15.4974 C   0  0  2  0  0  0  0  0  0  0  0  0
   26.9658  -21.4721  -16.4228 N   0  0  0  0  0  0  0  0  0  0  0  0
   25.8035  -21.5043  -14.2416 C   0  0  0  0  0  0  0  0  0  0  0  0
   25.6455  -22.7801  -14.4069 O   0  0  0  0  0  0  0  0  0  0  0  0
   25.6684  -20.9654  -12.9512 N   0  0  0  0  0  0  0  0  0  0  0  0
   25.7974  -19.5518  -12.6489 C   0  0  0  0  0  0  0  0  0  0  0  0
   26.2731  -19.4880  -11.2402 C   0  0  0  0  0  0  0  0  0  0  0  0
   26.3422  -20.9139  -10.7411 C   0  0  0  0  0  0  0  0  0  0  0  0
   25.3756  -21.6102  -11.7045 C   0  0  1  0  0  0  0  0  0  0  0  0
   23.9621  -21.3961  -11.2776 C   0  0  0  0  0  0  0  0  0  0  0  0
   23.5356  -21.9174  -10.2160 O   0  0  0  0  0  0  0  0  0  0  0  0
   23.0593  -20.6318  -12.0043 O   0  0  0  0  0  0  0  0  0  0  0  0
  1  5  1  0
  2  3  1  0
  2  1  1  0
  3  4  1  0
  4  5  1  0
  5  6  1  6
  6  7  2  0
  8  9  1  0
  9 10  2  0
  9 11  1  0
 12 11  1  6
 12 14  1  0
 13 12  1  0
 13  6  1  0
 14 15  2  0
 14 16  1  0
 16 20  1  0
 16 17  1  0
 17 18  1  0
 19 18  1  0
 20 19  1  0
 21 23  1  0
 20 21  1  1
 22 21  2  0
M  END
$$$$
