PNP.pdb
     RDKit          3D

 23 24  0  0  1  0  0  0  0  0999 V2000
   20.3674  -21.4885  -14.7516 N   0  0  0  0  0  0  0  0  0  0  0  0
   18.9632  -21.3867  -15.1816 C   0  0  0  0  0  0  0  0  0  0  0  0
   18.5490  -20.1180  -14.4306 C   0  0  0  0  0  0  0  0  0  0  0  0
   19.7893  -19.2517  -14.4009 C   0  0  0  0  0  0  0  0  0  0  0  0
   20.8308  -20.1614  -15.0027 C   0  0  1  0  0  0  0  0  0  0  0  0
   22.1898  -19.9000  -14.4849 C   0  0  0  0  0  0  0  0  0  0  0  0
   22.7429  -18.7927  -14.7403 O   0  0  0  0  0  0  0  0  0  0  0  0
   27.0685  -21.6743  -11.6490 N   0  0  0  0  0  0  0  0  0  0  0  0
   25.9914  -20.7476  -11.5663 C   0  0  0  0  0  0  0  0  0  0  0  0
   26.1923  -19.5953  -11.1468 O   0  0  0  0  0  0  0  0  0  0  0  0
   24.6069  -21.1377  -11.9792 C   0  0  0  0  0  0  0  0  0  0  0  0
   24.2744  -20.5363  -13.3528 C   0  0  2  0  0  0  0  0  0  0  0  0
   22.9342  -20.8182  -13.7068 N   0  0  0  0  0  0  0  0  0  0  0  0
   25.3397  -20.9414  -14.2615 C   0  0  0  0  0  0  0  0  0  0  0  0
   25.1855  -22.1622  -14.6688 O   0  0  0  0  0  0  0  0  0  0  0  0
   26.4467  -20.2078  -14.7200 N   0  0  0  0  0  0  0  0  0  0  0  0
   27.1496  -19.2220  -13.9198 C   0  0  0  0  0  0  0  0  0  0  0  0
   27.7176  -18.2506  -14.8938 C   0  0  0  0  0  0  0  0  0  0  0  0
   27.3653  -18.7631  -16.2724 C   0  0  0  0  0  0  0  0  0  0  0  0
   27.1257  -20.2482  -15.9821 C   0  0  1  0  0  0  0  0  0  0  0  0
   28.4211  -20.9841  -15.9019 C   0  0  0  0  0  0  0  0  0  0  0  0
   28.8726  -21.3514  -14.7874 O   0  0  0  0  0  0  0  0  0  0  0  0
   29.1836  -21.2987  -17.0186 O   0  0  0  0  0  0  0  0  0  0  0  0
  1  5  1  0
  2  3  1  0
  2  1  1  0
  3  4  1  0
  4  5  1  0
  5  6  1  1
  6  7  2  0
  8  9  1  0
  9 10  2  0
  9 11  1  0
 12 11  1  1
 12 14  1  0
 13 12  1  0
 13  6  1  0
 14 15  2  0
 14 16  1  0
 16 20  1  0
 16 17  1  0
 17 18  1  0
 19 18  1  0
 20 19  1  0
 21 23  1  0
 20 21  1  1
 22 21  2  0
M  END
$$$$
