PNP.pdb
     RDKit          3D

 23 24  0  0  1  0  0  0  0  0999 V2000
   27.2447  -21.4416  -13.4143 N   0  0  0  0  0  0  0  0  0  0  0  0
   27.7251  -21.3498  -14.8028 C   0  0  0  0  0  0  0  0  0  0  0  0
   27.0447  -20.0464  -15.2313 C   0  0  0  0  0  0  0  0  0  0  0  0
   27.0119  -19.1878  -13.9857 C   0  0  0  0  0  0  0  0  0  0  0  0
   27.5383  -20.1300  -12.9323 C   0  0  1  0  0  0  0  0  0  0  0  0
   26.9876  -19.8549  -11.5891 C   0  0  0  0  0  0  0  0  0  0  0  0
   27.1043  -18.6944  -11.1023 O   0  0  0  0  0  0  0  0  0  0  0  0
   24.8979  -19.9317   -6.9615 N   0  0  0  0  0  0  0  0  0  0  0  0
   24.0823  -20.7376   -7.8047 C   0  0  0  0  0  0  0  0  0  0  0  0
   22.9957  -21.1734   -7.3881 O   0  0  0  0  0  0  0  0  0  0  0  0
   24.5121  -21.0742   -9.1981 C   0  0  0  0  0  0  0  0  0  0  0  0
   25.9051  -20.4914   -9.4783 C   0  0  2  0  0  0  0  0  0  0  0  0
   26.3244  -20.8161  -10.7897 N   0  0  0  0  0  0  0  0  0  0  0  0
   26.7557  -20.8692   -8.3565 C   0  0  0  0  0  0  0  0  0  0  0  0
   27.0246  -22.1372   -8.3631 O   0  0  0  0  0  0  0  0  0  0  0  0
   27.2861  -20.0684   -7.3313 N   0  0  0  0  0  0  0  0  0  0  0  0
   26.9210  -18.6797   -7.1206 C   0  0  0  0  0  0  0  0  0  0  0  0
   28.1091  -18.0479   -6.4849 C   0  0  0  0  0  0  0  0  0  0  0  0
   29.1291  -19.1464   -6.2852 C   0  0  0  0  0  0  0  0  0  0  0  0
   28.2319  -20.3880   -6.3021 C   0  0  1  0  0  0  0  0  0  0  0  0
   27.5771  -20.5821   -4.9756 C   0  0  0  0  0  0  0  0  0  0  0  0
   26.3305  -20.4645   -4.8617 O   0  0  0  0  0  0  0  0  0  0  0  0
   28.2827  -20.8947   -3.8216 O   0  0  0  0  0  0  0  0  0  0  0  0
  1  5  1  0
  2  3  1  0
  2  1  1  0
  3  4  1  0
  4  5  1  0
  5  6  1  1
  6  7  2  0
  8  9  1  0
  9 10  2  0
  9 11  1  0
 12 11  1  1
 12 14  1  0
 13 12  1  0
 13  6  1  0
 14 15  2  0
 14 16  1  0
 16 20  1  0
 16 17  1  0
 17 18  1  0
 19 18  1  0
 20 19  1  0
 21 23  1  0
 20 21  1  1
 22 21  2  0
M  END
$$$$
