PNP.pdb
     RDKit          3D

 23 24  0  0  1  0  0  0  0  0999 V2000
   27.9545  -21.3657  -13.6403 N   0  0  0  0  0  0  0  0  0  0  0  0
   28.4459  -21.2734  -15.0249 C   0  0  0  0  0  0  0  0  0  0  0  0
   27.5357  -20.1613  -15.5539 C   0  0  0  0  0  0  0  0  0  0  0  0
   27.3010  -19.2451  -14.3727 C   0  0  0  0  0  0  0  0  0  0  0  0
   27.9723  -19.9929  -13.2481 C   0  0  1  0  0  0  0  0  0  0  0  0
   27.3414  -19.7430  -11.9355 C   0  0  0  0  0  0  0  0  0  0  0  0
   27.1995  -18.5517  -11.5380 O   0  0  0  0  0  0  0  0  0  0  0  0
   24.7897  -19.6517   -7.6283 N   0  0  0  0  0  0  0  0  0  0  0  0
   24.1094  -20.4585   -8.5832 C   0  0  0  0  0  0  0  0  0  0  0  0
   22.9250  -20.7830   -8.3932 O   0  0  0  0  0  0  0  0  0  0  0  0
   24.7995  -20.9288   -9.8250 C   0  0  0  0  0  0  0  0  0  0  0  0
   26.2525  -20.4314   -9.8444 C   0  0  2  0  0  0  0  0  0  0  0  0
   26.8739  -20.7617  -11.0715 N   0  0  0  0  0  0  0  0  0  0  0  0
   26.8702  -20.8799   -8.6026 C   0  0  0  0  0  0  0  0  0  0  0  0
   26.9868  -22.1702   -8.5626 O   0  0  0  0  0  0  0  0  0  0  0  0
   27.3266  -20.1232   -7.5105 N   0  0  0  0  0  0  0  0  0  0  0  0
   27.0330  -18.7140   -7.3255 C   0  0  0  0  0  0  0  0  0  0  0  0
   28.1761  -18.1686   -6.5440 C   0  0  0  0  0  0  0  0  0  0  0  0
   29.0886  -19.3354   -6.2393 C   0  0  0  0  0  0  0  0  0  0  0  0
   28.1184  -20.5127   -6.3804 C   0  0  1  0  0  0  0  0  0  0  0  0
   27.2978  -20.6690   -5.1442 C   0  0  0  0  0  0  0  0  0  0  0  0
   26.0635  -20.4308   -5.1694 O   0  0  0  0  0  0  0  0  0  0  0  0
   27.8306  -21.0747   -3.9281 O   0  0  0  0  0  0  0  0  0  0  0  0
  1  5  1  0
  2  3  1  0
  2  1  1  0
  3  4  1  0
  4  5  1  0
  5  6  1  1
  6  7  2  0
  8  9  1  0
  9 10  2  0
  9 11  1  0
 12 11  1  6
 12 14  1  0
 13 12  1  0
 13  6  1  0
 14 15  2  0
 14 16  1  0
 16 20  1  0
 16 17  1  0
 17 18  1  0
 19 18  1  0
 20 19  1  0
 21 23  1  0
 20 21  1  1
 22 21  2  0
M  END
$$$$
