PNP.pdb
     RDKit          3D

 23 24  0  0  1  0  0  0  0  0999 V2000
   23.6344  -20.5146  -10.3862 N   0  0  0  0  0  0  0  0  0  0  0  0
   24.7156  -20.5589   -9.3881 C   0  0  0  0  0  0  0  0  0  0  0  0
   25.6033  -21.6412  -10.0094 C   0  0  0  0  0  0  0  0  0  0  0  0
   25.4497  -21.4701  -11.5050 C   0  0  0  0  0  0  0  0  0  0  0  0
   24.3809  -20.4102  -11.5989 C   0  0  1  0  0  0  0  0  0  0  0  0
   23.5539  -20.5352  -12.8169 C   0  0  0  0  0  0  0  0  0  0  0  0
   24.1179  -20.5179  -13.9478 O   0  0  0  0  0  0  0  0  0  0  0  0
   19.6425  -22.5827  -11.5113 N   0  0  0  0  0  0  0  0  0  0  0  0
   20.2254  -22.6362  -12.8086 C   0  0  0  0  0  0  0  0  0  0  0  0
   20.8714  -23.6379  -13.1601 O   0  0  0  0  0  0  0  0  0  0  0  0
   20.0740  -21.4979  -13.7681 C   0  0  0  0  0  0  0  0  0  0  0  0
   21.4360  -20.8356  -14.0237 C   0  0  2  0  0  0  0  0  0  0  0  0
   22.1457  -20.6758  -12.8106 N   0  0  0  0  0  0  0  0  0  0  0  0
   21.1872  -19.6611  -14.8505 C   0  0  0  0  0  0  0  0  0  0  0  0
   21.0633  -18.5874  -14.1351 O   0  0  0  0  0  0  0  0  0  0  0  0
   21.0732  -19.5627  -16.2473 N   0  0  0  0  0  0  0  0  0  0  0  0
   21.0378  -20.7085  -17.1373 C   0  0  0  0  0  0  0  0  0  0  0  0
   21.5980  -20.2265  -18.4290 C   0  0  0  0  0  0  0  0  0  0  0  0
   21.8869  -18.7525  -18.2529 C   0  0  0  0  0  0  0  0  0  0  0  0
   20.9545  -18.4069  -17.0874 C   0  0  1  0  0  0  0  0  0  0  0  0
   19.5584  -18.2041  -17.5730 C   0  0  0  0  0  0  0  0  0  0  0  0
   19.2685  -17.1938  -18.2628 O   0  0  0  0  0  0  0  0  0  0  0  0
   18.5259  -19.0915  -17.3010 O   0  0  0  0  0  0  0  0  0  0  0  0
  1  5  1  0
  2  3  1  0
  2  1  1  0
  3  4  1  0
  4  5  1  0
  5  6  1  6
  6  7  2  0
  8  9  1  0
  9 10  2  0
  9 11  1  0
 12 11  1  1
 12 14  1  0
 13 12  1  0
 13  6  1  0
 14 15  2  0
 14 16  1  0
 16 20  1  0
 16 17  1  0
 17 18  1  0
 19 18  1  0
 20 19  1  0
 21 23  1  0
 20 21  1  6
 22 21  2  0
M  END
$$$$
