PNP.pdb
     RDKit          3D

 23 24  0  0  1  0  0  0  0  0999 V2000
   28.2086  -22.6910  -18.3267 N   0  0  0  0  0  0  0  0  0  0  0  0
   29.0844  -23.5039  -19.1865 C   0  0  0  0  0  0  0  0  0  0  0  0
   30.4411  -22.8818  -18.8438 C   0  0  0  0  0  0  0  0  0  0  0  0
   30.3383  -22.4828  -17.3878 C   0  0  0  0  0  0  0  0  0  0  0  0
   28.8921  -22.7760  -17.0760 C   0  0  1  0  0  0  0  0  0  0  0  0
   28.3373  -21.8857  -16.0353 C   0  0  0  0  0  0  0  0  0  0  0  0
   28.6433  -22.0879  -14.8259 O   0  0  0  0  0  0  0  0  0  0  0  0
   26.8479  -16.7647  -13.9756 N   0  0  0  0  0  0  0  0  0  0  0  0
   26.0728  -17.8122  -14.5478 C   0  0  0  0  0  0  0  0  0  0  0  0
   24.9441  -18.0696  -14.0962 O   0  0  0  0  0  0  0  0  0  0  0  0
   26.5958  -18.6184  -15.6950 C   0  0  0  0  0  0  0  0  0  0  0  0
   26.9187  -20.0476  -15.2346 C   0  0  2  0  0  0  0  0  0  0  0  0
   27.4694  -20.7994  -16.2988 N   0  0  0  0  0  0  0  0  0  0  0  0
   25.7299  -20.5539  -14.5600 C   0  0  0  0  0  0  0  0  0  0  0  0
   24.8599  -21.0164  -15.4022 O   0  0  0  0  0  0  0  0  0  0  0  0
   25.4348  -20.5971  -13.1872 N   0  0  0  0  0  0  0  0  0  0  0  0
   26.1859  -19.8752  -12.1767 C   0  0  0  0  0  0  0  0  0  0  0  0
   26.0460  -20.6752  -10.9297 C   0  0  0  0  0  0  0  0  0  0  0  0
   25.1346  -21.8361  -11.2595 C   0  0  0  0  0  0  0  0  0  0  0  0
   24.3947  -21.2905  -12.4850 C   0  0  1  0  0  0  0  0  0  0  0  0
   23.2900  -20.3778  -12.0694 C   0  0  0  0  0  0  0  0  0  0  0  0
   23.3424  -19.1528  -12.3476 O   0  0  0  0  0  0  0  0  0  0  0  0
   22.1712  -20.8121  -11.3715 O   0  0  0  0  0  0  0  0  0  0  0  0
  1  5  1  0
  2  3  1  0
  2  1  1  0
  3  4  1  0
  4  5  1  0
  5  6  1  1
  6  7  2  0
  8  9  1  0
  9 10  2  0
  9 11  1  0
 12 11  1  6
 12 14  1  0
 13 12  1  0
 13  6  1  0
 14 15  2  0
 14 16  1  0
 16 20  1  0
 16 17  1  0
 17 18  1  0
 19 18  1  0
 20 19  1  0
 21 23  1  0
 20 21  1  1
 22 21  2  0
M  END
$$$$
