PNP.pdb
     RDKit          3D

 23 24  0  0  1  0  0  0  0  0999 V2000
   15.0476  -23.5826    3.0650 N   0  0  0  0  0  0  0  0  0  0  0  0
   14.6182  -24.8887    2.5389 C   0  0  0  0  0  0  0  0  0  0  0  0
   15.7763  -25.1802    1.5803 C   0  0  0  0  0  0  0  0  0  0  0  0
   16.9963  -24.5690    2.2342 C   0  0  0  0  0  0  0  0  0  0  0  0
   16.4011  -23.8605    3.4251 C   0  0  1  0  0  0  0  0  0  0  0  0
   17.1675  -22.6609    3.8215 C   0  0  0  0  0  0  0  0  0  0  0  0
   18.4255  -22.7377    3.9146 O   0  0  0  0  0  0  0  0  0  0  0  0
   16.8316  -19.5888    1.8618 N   0  0  0  0  0  0  0  0  0  0  0  0
   16.3421  -18.7183    2.8759 C   0  0  0  0  0  0  0  0  0  0  0  0
   15.6743  -17.7168    2.5676 O   0  0  0  0  0  0  0  0  0  0  0  0
   16.6188  -18.9882    4.3216 C   0  0  0  0  0  0  0  0  0  0  0  0
   17.3949  -20.3046    4.4758 C   0  0  2  0  0  0  0  0  0  0  0  0
   16.5839  -21.4046    4.1110 N   0  0  0  0  0  0  0  0  0  0  0  0
   17.9980  -20.2876    5.8028 C   0  0  0  0  0  0  0  0  0  0  0  0
   17.3278  -21.0105    6.6444 O   0  0  0  0  0  0  0  0  0  0  0  0
   19.1508  -19.6201    6.2490 N   0  0  0  0  0  0  0  0  0  0  0  0
   19.9399  -18.7286    5.4191 C   0  0  0  0  0  0  0  0  0  0  0  0
   21.3244  -18.8029    5.9599 C   0  0  0  0  0  0  0  0  0  0  0  0
   21.2708  -19.7159    7.1643 C   0  0  0  0  0  0  0  0  0  0  0  0
   19.7866  -19.6286    7.5341 C   0  0  1  0  0  0  0  0  0  0  0  0
   19.5097  -18.3835    8.3081 C   0  0  0  0  0  0  0  0  0  0  0  0
   19.0254  -17.3754    7.7335 O   0  0  0  0  0  0  0  0  0  0  0  0
   19.7621  -18.2655    9.6681 O   0  0  0  0  0  0  0  0  0  0  0  0
  1  5  1  0
  2  3  1  0
  2  1  1  0
  3  4  1  0
  4  5  1  0
  5  6  1  6
  6  7  2  0
  8  9  1  0
  9 10  2  0
  9 11  1  0
 12 11  1  1
 12 14  1  0
 13 12  1  0
 13  6  1  0
 14 15  2  0
 14 16  1  0
 16 20  1  0
 16 17  1  0
 17 18  1  0
 19 18  1  0
 20 19  1  0
 21 23  1  0
 20 21  1  6
 22 21  2  0
M  END
$$$$
