PNP.pdb
     RDKit          3D

 23 24  0  0  1  0  0  0  0  0999 V2000
   27.2903  -17.0301  -17.8702 N   0  0  0  0  0  0  0  0  0  0  0  0
   28.3575  -16.2332  -18.4971 C   0  0  0  0  0  0  0  0  0  0  0  0
   28.3195  -14.9914  -17.6017 C   0  0  0  0  0  0  0  0  0  0  0  0
   27.9487  -15.5044  -16.2273 C   0  0  0  0  0  0  0  0  0  0  0  0
   27.6653  -16.9614  -16.4942 C   0  0  1  0  0  0  0  0  0  0  0  0
   26.6560  -17.5276  -15.5755 C   0  0  0  0  0  0  0  0  0  0  0  0
   26.8794  -17.5129  -14.3316 O   0  0  0  0  0  0  0  0  0  0  0  0
   22.6285  -19.3195  -13.1501 N   0  0  0  0  0  0  0  0  0  0  0  0
   22.1626  -18.5438  -14.2486 C   0  0  0  0  0  0  0  0  0  0  0  0
   20.9638  -18.2244  -14.3213 O   0  0  0  0  0  0  0  0  0  0  0  0
   23.0977  -18.1004  -15.3295 C   0  0  0  0  0  0  0  0  0  0  0  0
   24.5174  -18.6126  -15.0451 C   0  0  2  0  0  0  0  0  0  0  0  0
   25.4305  -18.0977  -15.9949 N   0  0  0  0  0  0  0  0  0  0  0  0
   24.4205  -20.0574  -14.8772 C   0  0  0  0  0  0  0  0  0  0  0  0
   24.2167  -20.6597  -16.0066 O   0  0  0  0  0  0  0  0  0  0  0  0
   24.5167  -20.8266  -13.7055 N   0  0  0  0  0  0  0  0  0  0  0  0
   24.4706  -20.2681  -12.3668 C   0  0  0  0  0  0  0  0  0  0  0  0
   25.2604  -21.2018  -11.5187 C   0  0  0  0  0  0  0  0  0  0  0  0
   25.6950  -22.3393  -12.4155 C   0  0  0  0  0  0  0  0  0  0  0  0
   24.6558  -22.2436  -13.5371 C   0  0  1  0  0  0  0  0  0  0  0  0
   23.3761  -22.8905  -13.1251 C   0  0  0  0  0  0  0  0  0  0  0  0
   23.3155  -24.1378  -12.9791 O   0  0  0  0  0  0  0  0  0  0  0  0
   22.2098  -22.1766  -12.8852 O   0  0  0  0  0  0  0  0  0  0  0  0
  1  5  1  0
  2  3  1  0
  2  1  1  0
  3  4  1  0
  4  5  1  0
  5  6  1  1
  6  7  2  0
  8  9  1  0
  9 10  2  0
  9 11  1  0
 12 11  1  6
 12 14  1  0
 13 12  1  0
 13  6  1  0
 14 15  2  0
 14 16  1  0
 16 20  1  0
 16 17  1  0
 17 18  1  0
 19 18  1  0
 20 19  1  0
 21 23  1  0
 20 21  1  1
 22 21  2  0
M  END
$$$$
