PNP.pdb
     RDKit          3D

 23 24  0  0  1  0  0  0  0  0999 V2000
   18.2503  -12.6940  -15.3070 N   0  0  0  0  0  0  0  0  0  0  0  0
   18.1530  -14.1319  -15.6071 C   0  0  0  0  0  0  0  0  0  0  0  0
   18.0104  -14.0739  -17.1308 C   0  0  0  0  0  0  0  0  0  0  0  0
   18.8358  -12.8810  -17.5615 C   0  0  0  0  0  0  0  0  0  0  0  0
   19.2500  -12.2834  -16.2402 C   0  0  1  0  0  0  0  0  0  0  0  0
   19.4345  -10.8188  -16.3053 C   0  0  0  0  0  0  0  0  0  0  0  0
   20.4273  -10.3512  -16.9322 O   0  0  0  0  0  0  0  0  0  0  0  0
   17.4296   -5.2514  -14.9359 N   0  0  0  0  0  0  0  0  0  0  0  0
   17.7707   -6.2393  -15.9021 C   0  0  0  0  0  0  0  0  0  0  0  0
   18.2854   -5.9025  -16.9818 O   0  0  0  0  0  0  0  0  0  0  0  0
   17.5193   -7.6911  -15.6405 C   0  0  0  0  0  0  0  0  0  0  0  0
   18.8178   -8.4931  -15.8121 C   0  0  2  0  0  0  0  0  0  0  0  0
   18.5624   -9.8803  -15.7043 N   0  0  0  0  0  0  0  0  0  0  0  0
   19.8072   -7.8914  -14.9269 C   0  0  0  0  0  0  0  0  0  0  0  0
   19.7178   -8.3557  -13.7201 O   0  0  0  0  0  0  0  0  0  0  0  0
   20.7873   -6.9259  -15.2116 N   0  0  0  0  0  0  0  0  0  0  0  0
   20.9053   -6.2474  -16.4891 C   0  0  0  0  0  0  0  0  0  0  0  0
   22.3455   -5.8967  -16.6218 C   0  0  0  0  0  0  0  0  0  0  0  0
   23.0197   -6.3427  -15.3437 C   0  0  0  0  0  0  0  0  0  0  0  0
   21.8273   -6.3900  -14.3828 C   0  0  1  0  0  0  0  0  0  0  0  0
   21.5007   -5.0230  -13.8821 C   0  0  0  0  0  0  0  0  0  0  0  0
   20.5325   -4.3852  -14.3684 O   0  0  0  0  0  0  0  0  0  0  0  0
   22.2238   -4.3913  -12.8793 O   0  0  0  0  0  0  0  0  0  0  0  0
  1  5  1  0
  2  3  1  0
  2  1  1  0
  3  4  1  0
  4  5  1  0
  5  6  1  6
  6  7  2  0
  8  9  1  0
  9 10  2  0
  9 11  1  0
 12 11  1  1
 12 14  1  0
 13 12  1  0
 13  6  1  0
 14 15  2  0
 14 16  1  0
 16 20  1  0
 16 17  1  0
 17 18  1  0
 19 18  1  0
 20 19  1  0
 21 23  1  0
 20 21  1  6
 22 21  2  0
M  END
$$$$
