PNP.pdb
     RDKit          3D

 23 24  0  0  1  0  0  0  0  0999 V2000
   27.3353  -19.8924  -18.2125 N   0  0  0  0  0  0  0  0  0  0  0  0
   28.2439  -19.4521  -19.2838 C   0  0  0  0  0  0  0  0  0  0  0  0
   27.7858  -17.9989  -19.4370 C   0  0  0  0  0  0  0  0  0  0  0  0
   27.3801  -17.5620  -18.0462 C   0  0  0  0  0  0  0  0  0  0  0  0
   27.5021  -18.8426  -17.2591 C   0  0  1  0  0  0  0  0  0  0  0  0
   26.5546  -18.9134  -16.1274 C   0  0  0  0  0  0  0  0  0  0  0  0
   26.6484  -18.0677  -15.1929 O   0  0  0  0  0  0  0  0  0  0  0  0
   21.5089  -18.9248  -13.8123 N   0  0  0  0  0  0  0  0  0  0  0  0
   22.3103  -20.0593  -14.1227 C   0  0  0  0  0  0  0  0  0  0  0  0
   22.2707  -21.0670  -13.3967 O   0  0  0  0  0  0  0  0  0  0  0  0
   23.2091  -20.0627  -15.3192 C   0  0  0  0  0  0  0  0  0  0  0  0
   24.6710  -19.8821  -14.8842 C   0  0  2  0  0  0  0  0  0  0  0  0
   25.5273  -19.8795  -16.0101 N   0  0  0  0  0  0  0  0  0  0  0  0
   24.9175  -20.8451  -13.8180 C   0  0  0  0  0  0  0  0  0  0  0  0
   25.0482  -22.0494  -14.2790 O   0  0  0  0  0  0  0  0  0  0  0  0
   25.0239  -20.6333  -12.4332 N   0  0  0  0  0  0  0  0  0  0  0  0
   24.7076  -19.3755  -11.7820 C   0  0  0  0  0  0  0  0  0  0  0  0
   25.5601  -19.3332  -10.5629 C   0  0  0  0  0  0  0  0  0  0  0  0
   26.3167  -20.6418  -10.5176 C   0  0  0  0  0  0  0  0  0  0  0  0
   25.4212  -21.5300  -11.3873 C   0  0  1  0  0  0  0  0  0  0  0  0
   24.2559  -22.0314  -10.6020 C   0  0  0  0  0  0  0  0  0  0  0  0
   23.1366  -21.4673  -10.7000 O   0  0  0  0  0  0  0  0  0  0  0  0
   24.3341  -23.1182   -9.7417 O   0  0  0  0  0  0  0  0  0  0  0  0
  1  5  1  0
  2  3  1  0
  2  1  1  0
  3  4  1  0
  4  5  1  0
  5  6  1  1
  6  7  2  0
  8  9  1  0
  9 10  2  0
  9 11  1  0
 12 11  1  6
 12 14  1  0
 13 12  1  0
 13  6  1  0
 14 15  2  0
 14 16  1  0
 16 20  1  0
 16 17  1  0
 17 18  1  0
 19 18  1  0
 20 19  1  0
 21 23  1  0
 20 21  1  1
 22 21  2  0
M  END
$$$$
