PNP.pdb
     RDKit          3D

 23 24  0  0  1  0  0  0  0  0999 V2000
   26.0741  -22.3002  -12.9063 N   0  0  0  0  0  0  0  0  0  0  0  0
   25.9618  -22.6422  -14.3337 C   0  0  0  0  0  0  0  0  0  0  0  0
   25.9740  -21.2372  -14.9429 C   0  0  0  0  0  0  0  0  0  0  0  0
   26.8756  -20.4218  -14.0419 C   0  0  0  0  0  0  0  0  0  0  0  0
   27.1744  -21.3904  -12.9252 C   0  0  1  0  0  0  0  0  0  0  0  0
   27.4107  -20.7187  -11.6305 C   0  0  0  0  0  0  0  0  0  0  0  0
   28.3719  -19.9048  -11.5262 O   0  0  0  0  0  0  0  0  0  0  0  0
   24.3813  -21.5007   -9.6134 N   0  0  0  0  0  0  0  0  0  0  0  0
   24.2440  -20.1244   -9.2777 C   0  0  0  0  0  0  0  0  0  0  0  0
   23.1205  -19.6513   -9.0369 O   0  0  0  0  0  0  0  0  0  0  0  0
   25.4389  -19.2262   -9.2080 C   0  0  0  0  0  0  0  0  0  0  0  0
   26.7279  -20.0455   -9.3693 C   0  0  2  0  0  0  0  0  0  0  0  0
   26.6228  -20.9240  -10.4730 N   0  0  0  0  0  0  0  0  0  0  0  0
   27.0437  -20.6004   -8.0589 C   0  0  0  0  0  0  0  0  0  0  0  0
   26.7243  -21.8540   -7.9784 O   0  0  0  0  0  0  0  0  0  0  0  0
   27.6192  -19.9736   -6.9411 N   0  0  0  0  0  0  0  0  0  0  0  0
   27.7680  -18.5361   -6.8089 C   0  0  0  0  0  0  0  0  0  0  0  0
   28.9531  -18.3377   -5.9309 C   0  0  0  0  0  0  0  0  0  0  0  0
   29.4238  -19.7151   -5.5207 C   0  0  0  0  0  0  0  0  0  0  0  0
   28.1490  -20.5376   -5.7340 C   0  0  1  0  0  0  0  0  0  0  0  0
   27.2181  -20.3740   -4.5796 C   0  0  0  0  0  0  0  0  0  0  0  0
   26.1514  -19.7221   -4.7140 O   0  0  0  0  0  0  0  0  0  0  0  0
   27.4652  -20.9150   -3.3252 O   0  0  0  0  0  0  0  0  0  0  0  0
  1  5  1  0
  2  3  1  0
  2  1  1  0
  3  4  1  0
  4  5  1  0
  5  6  1  1
  6  7  2  0
  8  9  1  0
  9 10  2  0
  9 11  1  0
 12 11  1  1
 12 14  1  0
 13 12  1  0
 13  6  1  0
 14 15  2  0
 14 16  1  0
 16 20  1  0
 16 17  1  0
 17 18  1  0
 19 18  1  0
 20 19  1  0
 21 23  1  0
 20 21  1  1
 22 21  2  0
M  END
$$$$
