PKM.pdb
     RDKit          3D

 25 25  0  0  1  0  0  0  0  0999 V2000
    8.1232  -15.8349   19.1522 N   0  0  0  0  0  0  0  0  0  0  0  0
    7.5687  -17.0535   18.6539 C   0  0  0  0  0  0  0  0  0  0  0  0
    6.4894  -17.4768   19.6586 C   0  0  0  0  0  0  0  0  0  0  0  0
    6.0834  -16.0895   20.1766 C   0  0  0  0  0  0  0  0  0  0  0  0
    7.4598  -15.4945   20.3897 C   0  0  1  0  0  0  0  0  0  0  0  0
    8.1317  -16.2542   21.5029 C   0  0  0  0  0  0  0  0  0  0  0  0
    7.4878  -16.6907   22.4928 O   0  0  0  0  0  0  0  0  0  0  0  0
    9.5288  -16.5140   21.4868 N   0  0  0  0  0  0  0  0  0  0  0  0
   10.2523  -17.0789   22.6053 C   0  0  1  0  0  0  0  0  0  0  0  0
   11.6114  -17.5595   22.2138 C   0  0  0  0  0  0  0  0  0  0  0  0
   11.5389  -18.9671   21.6164 C   0  0  0  0  0  0  0  0  0  0  0  0
   12.9615  -19.3202   21.2296 C   0  0  0  0  0  0  0  0  0  0  0  0
   13.0618  -20.6815   20.5916 C   0  0  0  0  0  0  0  0  0  0  0  0
   14.4839  -20.8798   20.2797 N   0  0  0  0  0  0  0  0  0  0  0  0
   10.1929  -16.1558   23.7208 C   0  0  0  0  0  0  0  0  0  0  0  0
   10.2589  -14.9218   23.4818 O   0  0  0  0  0  0  0  0  0  0  0  0
    6.5394  -11.6644   27.9723 C   0  0  0  0  0  0  0  0  0  0  0  0
    6.8357  -12.7663   26.5819 S   0  0  0  0  0  0  0  0  0  0  0  0
    8.0892  -13.9757   27.0171 C   0  0  0  0  0  0  0  0  0  0  0  0
    8.4477  -14.8540   25.8413 C   0  0  0  0  0  0  0  0  0  0  0  0
    9.7776  -15.5439   26.0759 C   0  0  2  0  0  0  0  0  0  0  0  0
   10.0646  -16.5295   25.0832 N   0  0  0  0  0  0  0  0  0  0  0  0
    9.7765  -16.2062   27.4121 C   0  0  0  0  0  0  0  0  0  0  0  0
    9.9276  -15.4647   28.5573 O   0  0  0  0  0  0  0  0  0  0  0  0
    9.6320  -17.4686   27.4509 O   0  0  0  0  0  0  0  0  0  0  0  0
  1  5  1  0
  1  2  1  0
  2  3  1  0
  4  3  1  0
  5  4  1  0
  5  6  1  1
  7  6  2  0
  8  6  1  0
  9  8  1  0
  9 10  1  6
 10 11  1  0
 11 12  1  0
 12 13  1  0
 13 14  1  0
 15 22  1  0
 15  9  1  0
 16 15  2  0
 18 17  1  0
 19 18  1  0
 21 20  1  6
 20 19  1  0
 21 23  1  0
 21 22  1  0
 23 24  1  0
 25 23  2  0
M  END
$$$$
