PKM.pdb
     RDKit          3D

 25 25  0  0  1  0  0  0  0  0999 V2000
    9.2639  -14.5438   18.5533 N   0  0  0  0  0  0  0  0  0  0  0  0
    7.9311  -14.6141   18.0442 C   0  0  0  0  0  0  0  0  0  0  0  0
    7.0552  -13.8208   19.0225 C   0  0  0  0  0  0  0  0  0  0  0  0
    8.1027  -12.8178   19.5267 C   0  0  0  0  0  0  0  0  0  0  0  0
    9.2552  -13.7692   19.7729 C   0  0  1  0  0  0  0  0  0  0  0  0
    8.8725  -14.6862   20.9045 C   0  0  0  0  0  0  0  0  0  0  0  0
    7.8938  -14.4403   21.6573 O   0  0  0  0  0  0  0  0  0  0  0  0
    9.6015  -15.8757   21.1753 N   0  0  0  0  0  0  0  0  0  0  0  0
    9.4234  -16.6706   22.3711 C   0  0  1  0  0  0  0  0  0  0  0  0
   10.1826  -17.9558   22.3131 C   0  0  0  0  0  0  0  0  0  0  0  0
    9.9404  -18.7876   23.5752 C   0  0  0  0  0  0  0  0  0  0  0  0
   10.7185  -20.0728   23.3726 C   0  0  0  0  0  0  0  0  0  0  0  0
   10.7789  -20.9104   24.6237 C   0  0  0  0  0  0  0  0  0  0  0  0
    9.4494  -21.5191   24.7691 N   0  0  0  0  0  0  0  0  0  0  0  0
    9.6588  -15.8362   23.5322 C   0  0  0  0  0  0  0  0  0  0  0  0
   10.7023  -15.1332   23.5635 O   0  0  0  0  0  0  0  0  0  0  0  0
    5.7650  -11.8311   26.1468 C   0  0  0  0  0  0  0  0  0  0  0  0
    6.9890  -11.7713   27.4634 S   0  0  0  0  0  0  0  0  0  0  0  0
    8.3216  -12.9218   27.1116 C   0  0  0  0  0  0  0  0  0  0  0  0
    7.9628  -13.8616   25.9844 C   0  0  0  0  0  0  0  0  0  0  0  0
    9.0975  -14.8314   25.7160 C   0  0  2  0  0  0  0  0  0  0  0  0
    8.7994  -15.7416   24.6569 N   0  0  0  0  0  0  0  0  0  0  0  0
    9.3925  -15.6198   26.9470 C   0  0  0  0  0  0  0  0  0  0  0  0
   10.0261  -15.0339   28.0144 O   0  0  0  0  0  0  0  0  0  0  0  0
    9.0394  -16.8409   26.9710 O   0  0  0  0  0  0  0  0  0  0  0  0
  1  5  1  0
  1  2  1  0
  2  3  1  0
  4  3  1  0
  5  4  1  0
  5  6  1  1
  7  6  2  0
  8  6  1  0
  9  8  1  0
  9 10  1  6
 10 11  1  0
 11 12  1  0
 12 13  1  0
 13 14  1  0
 15 22  1  0
 15  9  1  0
 16 15  2  0
 18 17  1  0
 19 18  1  0
 21 20  1  1
 20 19  1  0
 21 23  1  0
 21 22  1  0
 23 24  1  0
 25 23  2  0
M  END
$$$$
