PKM.pdb
     RDKit          3D

 25 25  0  0  1  0  0  0  0  0999 V2000
    8.6944  -14.8122   17.9125 N   0  0  0  0  0  0  0  0  0  0  0  0
    7.4417  -14.2364   17.5387 C   0  0  0  0  0  0  0  0  0  0  0  0
    7.1421  -13.1480   18.5775 C   0  0  0  0  0  0  0  0  0  0  0  0
    8.5819  -12.7665   18.9504 C   0  0  0  0  0  0  0  0  0  0  0  0
    9.1707  -14.1532   19.1067 C   0  0  1  0  0  0  0  0  0  0  0  0
    8.5162  -14.8094   20.2936 C   0  0  0  0  0  0  0  0  0  0  0  0
    7.5415  -14.2821   20.8910 O   0  0  0  0  0  0  0  0  0  0  0  0
    8.9707  -16.0589   20.7956 N   0  0  0  0  0  0  0  0  0  0  0  0
    8.3719  -16.7345   21.9264 C   0  0  1  0  0  0  0  0  0  0  0  0
    8.6656  -18.1991   21.9293 C   0  0  0  0  0  0  0  0  0  0  0  0
    7.8779  -18.9135   20.8281 C   0  0  0  0  0  0  0  0  0  0  0  0
    8.3652  -20.3490   20.8433 C   0  0  0  0  0  0  0  0  0  0  0  0
    7.7297  -21.1823   19.7607 C   0  0  0  0  0  0  0  0  0  0  0  0
    8.2748  -22.5376   19.9191 N   0  0  0  0  0  0  0  0  0  0  0  0
    8.7007  -16.0100   23.1375 C   0  0  0  0  0  0  0  0  0  0  0  0
    9.8533  -15.5163   23.2466 O   0  0  0  0  0  0  0  0  0  0  0  0
    6.7887  -10.3558   27.6483 C   0  0  0  0  0  0  0  0  0  0  0  0
    6.0959  -11.9724   27.2713 S   0  0  0  0  0  0  0  0  0  0  0  0
    7.4109  -13.1139   26.8344 C   0  0  0  0  0  0  0  0  0  0  0  0
    7.0355  -13.9670   25.6454 C   0  0  0  0  0  0  0  0  0  0  0  0
    8.1718  -14.9024   25.2793 C   0  0  2  0  0  0  0  0  0  0  0  0
    7.8198  -15.8054   24.2305 N   0  0  0  0  0  0  0  0  0  0  0  0
    8.5768  -15.6997   26.4727 C   0  0  0  0  0  0  0  0  0  0  0  0
    9.2474  -15.1056   27.5126 O   0  0  0  0  0  0  0  0  0  0  0  0
    8.2813  -16.9360   26.4911 O   0  0  0  0  0  0  0  0  0  0  0  0
  1  5  1  0
  1  2  1  0
  2  3  1  0
  4  3  1  0
  5  4  1  0
  5  6  1  1
  7  6  2  0
  8  6  1  0
  9  8  1  0
  9 10  1  1
 10 11  1  0
 11 12  1  0
 12 13  1  0
 13 14  1  0
 15 22  1  0
 15  9  1  0
 16 15  2  0
 18 17  1  0
 19 18  1  0
 21 20  1  1
 20 19  1  0
 21 23  1  0
 21 22  1  0
 23 24  1  0
 25 23  2  0
M  END
$$$$
