PKM.pdb
     RDKit          3D

 25 25  0  0  1  0  0  0  0  0999 V2000
    9.6223  -18.7492   20.2801 N   0  0  0  0  0  0  0  0  0  0  0  0
   10.2423  -18.1404   19.1463 C   0  0  0  0  0  0  0  0  0  0  0  0
   11.5299  -17.4845   19.6614 C   0  0  0  0  0  0  0  0  0  0  0  0
   11.8263  -18.4246   20.8387 C   0  0  0  0  0  0  0  0  0  0  0  0
   10.4406  -18.5031   21.4451 C   0  0  1  0  0  0  0  0  0  0  0  0
   10.0869  -17.1420   21.9839 C   0  0  0  0  0  0  0  0  0  0  0  0
   10.8387  -16.5288   22.7862 O   0  0  0  0  0  0  0  0  0  0  0  0
    8.8835  -16.4851   21.6098 N   0  0  0  0  0  0  0  0  0  0  0  0
    8.3997  -15.2767   22.2417 C   0  0  1  0  0  0  0  0  0  0  0  0
    7.2928  -14.6389   21.4675 C   0  0  0  0  0  0  0  0  0  0  0  0
    7.8033  -13.4223   20.6912 C   0  0  0  0  0  0  0  0  0  0  0  0
    7.7166  -13.8066   19.2272 C   0  0  0  0  0  0  0  0  0  0  0  0
    8.2697  -12.7384   18.3198 C   0  0  0  0  0  0  0  0  0  0  0  0
    8.2492  -13.3064   16.9648 N   0  0  0  0  0  0  0  0  0  0  0  0
    8.1333  -15.5491   23.6398 C   0  0  0  0  0  0  0  0  0  0  0  0
    7.7682  -16.7087   23.9656 O   0  0  0  0  0  0  0  0  0  0  0  0
   11.7955  -14.4477   29.5672 C   0  0  0  0  0  0  0  0  0  0  0  0
   10.3185  -13.6479   28.9237 S   0  0  0  0  0  0  0  0  0  0  0  0
    9.5896  -14.6593   27.6318 C   0  0  0  0  0  0  0  0  0  0  0  0
    8.3373  -14.0279   27.0701 C   0  0  0  0  0  0  0  0  0  0  0  0
    7.7354  -14.9052   25.9894 C   0  0  2  0  0  0  0  0  0  0  0  0
    8.2503  -14.6047   24.6918 N   0  0  0  0  0  0  0  0  0  0  0  0
    6.2545  -14.7313   25.9615 C   0  0  0  0  0  0  0  0  0  0  0  0
    5.4699  -15.2801   26.9449 O   0  0  0  0  0  0  0  0  0  0  0  0
    5.7513  -14.0633   25.0039 O   0  0  0  0  0  0  0  0  0  0  0  0
  1  5  1  0
  1  2  1  0
  2  3  1  0
  4  3  1  0
  5  4  1  0
  5  6  1  6
  7  6  2  0
  8  6  1  0
  9  8  1  0
  9 10  1  6
 10 11  1  0
 11 12  1  0
 12 13  1  0
 13 14  1  0
 15 22  1  0
 15  9  1  0
 16 15  2  0
 18 17  1  0
 19 18  1  0
 21 20  1  1
 20 19  1  0
 21 23  1  0
 21 22  1  0
 23 24  1  0
 25 23  2  0
M  END
$$$$
