PKM.pdb
     RDKit          3D

 25 25  0  0  1  0  0  0  0  0999 V2000
    9.0427  -14.5106   18.3532 N   0  0  0  0  0  0  0  0  0  0  0  0
    7.7626  -14.3079   17.7525 C   0  0  0  0  0  0  0  0  0  0  0  0
    7.0067  -13.3373   18.6691 C   0  0  0  0  0  0  0  0  0  0  0  0
    8.2036  -12.5684   19.2470 C   0  0  0  0  0  0  0  0  0  0  0  0
    9.1123  -13.7360   19.5709 C   0  0  1  0  0  0  0  0  0  0  0  0
    8.4700  -14.5388   20.6712 C   0  0  0  0  0  0  0  0  0  0  0  0
    7.7086  -14.0094   21.5227 O   0  0  0  0  0  0  0  0  0  0  0  0
    8.6949  -15.9362   20.7993 N   0  0  0  0  0  0  0  0  0  0  0  0
    8.1377  -16.7440   21.8625 C   0  0  1  0  0  0  0  0  0  0  0  0
    8.1187  -18.1971   21.5169 C   0  0  0  0  0  0  0  0  0  0  0  0
    7.1044  -18.4782   20.4053 C   0  0  0  0  0  0  0  0  0  0  0  0
    7.2915  -19.9379   20.0415 C   0  0  0  0  0  0  0  0  0  0  0  0
    6.4201  -20.3577   18.8862 C   0  0  0  0  0  0  0  0  0  0  0  0
    6.7998  -21.7424   18.5735 N   0  0  0  0  0  0  0  0  0  0  0  0
    8.7797  -16.3882   23.1119 C   0  0  0  0  0  0  0  0  0  0  0  0
   10.0269  -16.2188   23.1180 O   0  0  0  0  0  0  0  0  0  0  0  0
   10.0999  -12.9321   29.6215 C   0  0  0  0  0  0  0  0  0  0  0  0
    9.1187  -13.0973   28.1231 S   0  0  0  0  0  0  0  0  0  0  0  0
    8.8066  -14.8327   27.7854 C   0  0  0  0  0  0  0  0  0  0  0  0
    8.0518  -15.0210   26.4903 C   0  0  0  0  0  0  0  0  0  0  0  0
    8.8516  -15.8752   25.5255 C   0  0  2  0  0  0  0  0  0  0  0  0
    8.1121  -16.2112   24.3510 N   0  0  0  0  0  0  0  0  0  0  0  0
    9.2722  -17.1391   26.1961 C   0  0  0  0  0  0  0  0  0  0  0  0
   10.4337  -17.1873   26.9259 O   0  0  0  0  0  0  0  0  0  0  0  0
    8.5237  -18.1587   26.0683 O   0  0  0  0  0  0  0  0  0  0  0  0
  1  5  1  0
  1  2  1  0
  2  3  1  0
  4  3  1  0
  5  4  1  0
  5  6  1  1
  7  6  2  0
  8  6  1  0
  9  8  1  0
  9 10  1  6
 10 11  1  0
 11 12  1  0
 12 13  1  0
 13 14  1  0
 15 22  1  0
 15  9  1  0
 16 15  2  0
 18 17  1  0
 19 18  1  0
 21 20  1  1
 20 19  1  0
 21 23  1  0
 21 22  1  0
 23 24  1  0
 25 23  2  0
M  END
$$$$
