PKM.pdb
     RDKit          3D

 25 25  0  0  1  0  0  0  0  0999 V2000
    9.2905  -14.3321   18.4268 N   0  0  0  0  0  0  0  0  0  0  0  0
    8.0405  -14.2759   17.7376 C   0  0  0  0  0  0  0  0  0  0  0  0
    7.1537  -13.3102   18.5342 C   0  0  0  0  0  0  0  0  0  0  0  0
    8.2473  -12.4086   19.1247 C   0  0  0  0  0  0  0  0  0  0  0  0
    9.2205  -13.4733   19.5866 C   0  0  1  0  0  0  0  0  0  0  0  0
    8.5717  -14.2491   20.7023 C   0  0  0  0  0  0  0  0  0  0  0  0
    7.7758  -13.7073   21.5134 O   0  0  0  0  0  0  0  0  0  0  0  0
    8.8292  -15.6339   20.8915 N   0  0  0  0  0  0  0  0  0  0  0  0
    8.5079  -16.3507   22.1066 C   0  0  1  0  0  0  0  0  0  0  0  0
    8.5758  -17.8317   21.9233 C   0  0  0  0  0  0  0  0  0  0  0  0
    8.2466  -18.2161   20.4786 C   0  0  0  0  0  0  0  0  0  0  0  0
    8.4848  -19.7106   20.3894 C   0  0  0  0  0  0  0  0  0  0  0  0
    8.2113  -20.2542   19.0110 C   0  0  0  0  0  0  0  0  0  0  0  0
    8.5011  -21.6932   19.0773 N   0  0  0  0  0  0  0  0  0  0  0  0
    9.2860  -15.8013   23.1987 C   0  0  0  0  0  0  0  0  0  0  0  0
    9.9583  -14.7579   22.9902 O   0  0  0  0  0  0  0  0  0  0  0  0
    6.3286  -11.5703   26.1592 C   0  0  0  0  0  0  0  0  0  0  0  0
    6.2785  -13.0918   27.1174 S   0  0  0  0  0  0  0  0  0  0  0  0
    7.8519  -13.9468   26.9890 C   0  0  0  0  0  0  0  0  0  0  0  0
    7.9448  -14.7538   25.7152 C   0  0  0  0  0  0  0  0  0  0  0  0
    9.2660  -15.4955   25.6481 C   0  0  2  0  0  0  0  0  0  0  0  0
    9.3568  -16.3477   24.5059 N   0  0  0  0  0  0  0  0  0  0  0  0
    9.4432  -16.3274   26.8731 C   0  0  0  0  0  0  0  0  0  0  0  0
   10.0084  -15.7916   28.0033 O   0  0  0  0  0  0  0  0  0  0  0  0
    9.0557  -17.5376   26.8323 O   0  0  0  0  0  0  0  0  0  0  0  0
  1  5  1  0
  1  2  1  0
  2  3  1  0
  4  3  1  0
  5  4  1  0
  5  6  1  1
  7  6  2  0
  8  6  1  0
  9  8  1  0
  9 10  1  6
 10 11  1  0
 11 12  1  0
 12 13  1  0
 13 14  1  0
 15 22  1  0
 15  9  1  0
 16 15  2  0
 18 17  1  0
 19 18  1  0
 21 20  1  1
 20 19  1  0
 21 23  1  0
 21 22  1  0
 23 24  1  0
 25 23  2  0
M  END
$$$$
