PKM.pdb
     RDKit          3D

 25 25  0  0  1  0  0  0  0  0999 V2000
    8.5230  -14.8219   17.8261 N   0  0  0  0  0  0  0  0  0  0  0  0
    7.3455  -14.0527   17.5759 C   0  0  0  0  0  0  0  0  0  0  0  0
    7.2747  -13.0008   18.6904 C   0  0  0  0  0  0  0  0  0  0  0  0
    8.7756  -12.8505   18.9771 C   0  0  0  0  0  0  0  0  0  0  0  0
    9.1660  -14.3134   19.0159 C   0  0  1  0  0  0  0  0  0  0  0  0
    8.5011  -14.9445   20.2107 C   0  0  0  0  0  0  0  0  0  0  0  0
    7.4341  -14.4861   20.6968 O   0  0  0  0  0  0  0  0  0  0  0  0
    9.0500  -16.0908   20.8466 N   0  0  0  0  0  0  0  0  0  0  0  0
    8.4395  -16.7473   21.9823 C   0  0  1  0  0  0  0  0  0  0  0  0
    8.7692  -18.2032   22.0374 C   0  0  0  0  0  0  0  0  0  0  0  0
    8.0689  -18.9621   20.9072 C   0  0  0  0  0  0  0  0  0  0  0  0
    8.6048  -20.3786   20.9734 C   0  0  0  0  0  0  0  0  0  0  0  0
    8.1260  -21.2277   19.8244 C   0  0  0  0  0  0  0  0  0  0  0  0
    8.6610  -22.5750   20.0648 N   0  0  0  0  0  0  0  0  0  0  0  0
    8.7193  -15.9787   23.1785 C   0  0  0  0  0  0  0  0  0  0  0  0
    9.8758  -15.5059   23.3304 O   0  0  0  0  0  0  0  0  0  0  0  0
    6.6369  -10.2077   26.7788 C   0  0  0  0  0  0  0  0  0  0  0  0
    6.1167  -11.8597   27.2642 S   0  0  0  0  0  0  0  0  0  0  0  0
    7.3969  -13.0491   26.8521 C   0  0  0  0  0  0  0  0  0  0  0  0
    7.0241  -13.8711   25.6405 C   0  0  0  0  0  0  0  0  0  0  0  0
    8.1365  -14.8404   25.2900 C   0  0  2  0  0  0  0  0  0  0  0  0
    7.7855  -15.7082   24.2116 N   0  0  0  0  0  0  0  0  0  0  0  0
    8.4738  -15.6763   26.4780 C   0  0  0  0  0  0  0  0  0  0  0  0
    9.2120  -15.1539   27.5106 O   0  0  0  0  0  0  0  0  0  0  0  0
    8.0569  -16.8772   26.4989 O   0  0  0  0  0  0  0  0  0  0  0  0
  1  5  1  0
  1  2  1  0
  2  3  1  0
  4  3  1  0
  5  4  1  0
  5  6  1  1
  7  6  2  0
  8  6  1  0
  9  8  1  0
  9 10  1  1
 10 11  1  0
 11 12  1  0
 12 13  1  0
 13 14  1  0
 15 22  1  0
 15  9  1  0
 16 15  2  0
 18 17  1  0
 19 18  1  0
 21 20  1  1
 20 19  1  0
 21 23  1  0
 21 22  1  0
 23 24  1  0
 25 23  2  0
M  END
$$$$
