PKM.pdb
     RDKit          3D

 25 25  0  0  1  0  0  0  0  0999 V2000
    8.6090  -14.7047   17.8634 N   0  0  0  0  0  0  0  0  0  0  0  0
    7.4229  -13.9613   17.5783 C   0  0  0  0  0  0  0  0  0  0  0  0
    7.3145  -12.8897   18.6706 C   0  0  0  0  0  0  0  0  0  0  0  0
    8.8074  -12.7074   18.9800 C   0  0  0  0  0  0  0  0  0  0  0  0
    9.2222  -14.1622   19.0539 C   0  0  1  0  0  0  0  0  0  0  0  0
    8.5477  -14.7819   20.2492 C   0  0  0  0  0  0  0  0  0  0  0  0
    7.5181  -14.2760   20.7678 O   0  0  0  0  0  0  0  0  0  0  0  0
    9.0446  -15.9707   20.8489 N   0  0  0  0  0  0  0  0  0  0  0  0
    8.3926  -16.6466   21.9496 C   0  0  1  0  0  0  0  0  0  0  0  0
    8.6688  -18.1146   21.9540 C   0  0  0  0  0  0  0  0  0  0  0  0
    8.0052  -18.7960   20.7544 C   0  0  0  0  0  0  0  0  0  0  0  0
    8.3724  -20.2628   20.8635 C   0  0  0  0  0  0  0  0  0  0  0  0
    7.7235  -21.0982   19.7904 C   0  0  0  0  0  0  0  0  0  0  0  0
    8.1833  -22.4756   20.0149 N   0  0  0  0  0  0  0  0  0  0  0  0
    8.6805  -15.9342   23.1782 C   0  0  0  0  0  0  0  0  0  0  0  0
    9.8348  -15.4590   23.3392 O   0  0  0  0  0  0  0  0  0  0  0  0
    6.3389  -10.5681   28.2448 C   0  0  0  0  0  0  0  0  0  0  0  0
    5.8424  -11.7831   27.0149 S   0  0  0  0  0  0  0  0  0  0  0  0
    7.2205  -12.8708   26.6395 C   0  0  0  0  0  0  0  0  0  0  0  0
    6.8713  -13.8556   25.5483 C   0  0  0  0  0  0  0  0  0  0  0  0
    8.0443  -14.7733   25.2618 C   0  0  2  0  0  0  0  0  0  0  0  0
    7.7572  -15.7224   24.2342 N   0  0  0  0  0  0  0  0  0  0  0  0
    8.4208  -15.5162   26.4988 C   0  0  0  0  0  0  0  0  0  0  0  0
    9.0955  -14.8837   27.5131 O   0  0  0  0  0  0  0  0  0  0  0  0
    8.0975  -16.7431   26.5783 O   0  0  0  0  0  0  0  0  0  0  0  0
  1  5  1  0
  1  2  1  0
  2  3  1  0
  4  3  1  0
  5  4  1  0
  5  6  1  1
  7  6  2  0
  8  6  1  0
  9  8  1  0
  9 10  1  1
 10 11  1  0
 11 12  1  0
 12 13  1  0
 13 14  1  0
 15 22  1  0
 15  9  1  0
 16 15  2  0
 18 17  1  0
 19 18  1  0
 21 20  1  1
 20 19  1  0
 21 23  1  0
 21 22  1  0
 23 24  1  0
 25 23  2  0
M  END
$$$$
