PKM.pdb
     RDKit          3D

 25 25  0  0  1  0  0  0  0  0999 V2000
    9.2179  -14.4980   18.1693 N   0  0  0  0  0  0  0  0  0  0  0  0
    7.9236  -14.4339   17.5681 C   0  0  0  0  0  0  0  0  0  0  0  0
    7.1185  -13.4182   18.3888 C   0  0  0  0  0  0  0  0  0  0  0  0
    8.2720  -12.5249   18.8673 C   0  0  0  0  0  0  0  0  0  0  0  0
    9.2506  -13.5975   19.2987 C   0  0  1  0  0  0  0  0  0  0  0  0
    8.6650  -14.3166   20.4851 C   0  0  0  0  0  0  0  0  0  0  0  0
    7.9836  -13.7157   21.3567 O   0  0  0  0  0  0  0  0  0  0  0  0
    8.8556  -15.7119   20.6760 N   0  0  0  0  0  0  0  0  0  0  0  0
    8.2939  -16.4538   21.7840 C   0  0  1  0  0  0  0  0  0  0  0  0
    8.4187  -17.9305   21.5959 C   0  0  0  0  0  0  0  0  0  0  0  0
    9.8546  -18.3922   21.8579 C   0  0  0  0  0  0  0  0  0  0  0  0
    9.8562  -19.8862   21.6009 C   0  0  0  0  0  0  0  0  0  0  0  0
   11.2021  -20.5118   21.8609 C   0  0  0  0  0  0  0  0  0  0  0  0
   11.0276  -21.9547   21.6446 N   0  0  0  0  0  0  0  0  0  0  0  0
    8.8157  -15.9170   23.0247 C   0  0  0  0  0  0  0  0  0  0  0  0
    9.9652  -15.4044   23.0196 O   0  0  0  0  0  0  0  0  0  0  0  0
    5.9327  -11.5344   26.2551 C   0  0  0  0  0  0  0  0  0  0  0  0
    6.8502  -12.2011   27.6512 S   0  0  0  0  0  0  0  0  0  0  0  0
    8.0469  -13.4090   27.0751 C   0  0  0  0  0  0  0  0  0  0  0  0
    7.5416  -14.1606   25.8659 C   0  0  0  0  0  0  0  0  0  0  0  0
    8.6006  -15.1155   25.3496 C   0  0  2  0  0  0  0  0  0  0  0  0
    8.1306  -15.9193   24.2669 N   0  0  0  0  0  0  0  0  0  0  0  0
    9.0479  -16.0189   26.4486 C   0  0  0  0  0  0  0  0  0  0  0  0
    9.8232  -15.5376   27.4740 O   0  0  0  0  0  0  0  0  0  0  0  0
    8.6887  -17.2375   26.4013 O   0  0  0  0  0  0  0  0  0  0  0  0
  1  5  1  0
  1  2  1  0
  2  3  1  0
  4  3  1  0
  5  4  1  0
  5  6  1  1
  7  6  2  0
  8  6  1  0
  9  8  1  0
  9 10  1  6
 10 11  1  0
 11 12  1  0
 12 13  1  0
 13 14  1  0
 15 22  1  0
 15  9  1  0
 16 15  2  0
 18 17  1  0
 19 18  1  0
 21 20  1  1
 20 19  1  0
 21 23  1  0
 21 22  1  0
 23 24  1  0
 25 23  2  0
M  END
$$$$
