PKM.pdb
     RDKit          3D

 25 25  0  0  1  0  0  0  0  0999 V2000
    9.0801  -14.5829   18.1842 N   0  0  0  0  0  0  0  0  0  0  0  0
    7.7372  -14.3371   17.7637 C   0  0  0  0  0  0  0  0  0  0  0  0
    7.1189  -13.4119   18.8198 C   0  0  0  0  0  0  0  0  0  0  0  0
    8.3911  -12.6857   19.2800 C   0  0  0  0  0  0  0  0  0  0  0  0
    9.3158  -13.8767   19.4224 C   0  0  1  0  0  0  0  0  0  0  0  0
    8.8066  -14.7332   20.5515 C   0  0  0  0  0  0  0  0  0  0  0  0
    7.8622  -14.3595   21.2955 O   0  0  0  0  0  0  0  0  0  0  0  0
    9.3712  -16.0073   20.8301 N   0  0  0  0  0  0  0  0  0  0  0  0
    9.0510  -16.7864   22.0066 C   0  0  1  0  0  0  0  0  0  0  0  0
    9.6916  -18.1357   21.9818 C   0  0  0  0  0  0  0  0  0  0  0  0
    9.3251  -18.9343   23.2353 C   0  0  0  0  0  0  0  0  0  0  0  0
    8.8268  -20.2754   22.7337 C   0  0  0  0  0  0  0  0  0  0  0  0
    8.3543  -21.1671   23.8526 C   0  0  0  0  0  0  0  0  0  0  0  0
    8.0644  -22.4700   23.2382 N   0  0  0  0  0  0  0  0  0  0  0  0
    9.2930  -15.9809   23.1866 C   0  0  0  0  0  0  0  0  0  0  0  0
   10.3625  -15.3206   23.2527 O   0  0  0  0  0  0  0  0  0  0  0  0
    5.6210  -11.7190   25.8862 C   0  0  0  0  0  0  0  0  0  0  0  0
    6.5644  -12.1228   27.3634 S   0  0  0  0  0  0  0  0  0  0  0  0
    7.9000  -13.2480   26.9468 C   0  0  0  0  0  0  0  0  0  0  0  0
    7.5919  -14.0398   25.6976 C   0  0  0  0  0  0  0  0  0  0  0  0
    8.7257  -14.9946   25.3772 C   0  0  2  0  0  0  0  0  0  0  0  0
    8.4129  -15.8704   24.2937 N   0  0  0  0  0  0  0  0  0  0  0  0
    9.0457  -15.8221   26.5759 C   0  0  0  0  0  0  0  0  0  0  0  0
    9.8202  -15.3122   27.5879 O   0  0  0  0  0  0  0  0  0  0  0  0
    8.5799  -17.0040   26.6252 O   0  0  0  0  0  0  0  0  0  0  0  0
  1  5  1  0
  1  2  1  0
  2  3  1  0
  4  3  1  0
  5  4  1  0
  5  6  1  1
  7  6  2  0
  8  6  1  0
  9  8  1  0
  9 10  1  1
 10 11  1  0
 11 12  1  0
 12 13  1  0
 13 14  1  0
 15 22  1  0
 15  9  1  0
 16 15  2  0
 18 17  1  0
 19 18  1  0
 21 20  1  1
 20 19  1  0
 21 23  1  0
 21 22  1  0
 23 24  1  0
 25 23  2  0
M  END
$$$$
