PKM.pdb
     RDKit          3D

 25 25  0  0  1  0  0  0  0  0999 V2000
    8.9958  -14.8561   18.5267 N   0  0  0  0  0  0  0  0  0  0  0  0
    7.7201  -14.6409   17.9209 C   0  0  0  0  0  0  0  0  0  0  0  0
    7.0640  -13.4923   18.6978 C   0  0  0  0  0  0  0  0  0  0  0  0
    8.3302  -12.7457   19.1415 C   0  0  0  0  0  0  0  0  0  0  0  0
    9.1551  -13.9231   19.6183 C   0  0  1  0  0  0  0  0  0  0  0  0
    8.4814  -14.5066   20.8321 C   0  0  0  0  0  0  0  0  0  0  0  0
    8.0468  -13.7808   21.7645 O   0  0  0  0  0  0  0  0  0  0  0  0
    8.3046  -15.9089   20.9811 N   0  0  0  0  0  0  0  0  0  0  0  0
    7.8395  -16.5334   22.2007 C   0  0  1  0  0  0  0  0  0  0  0  0
    7.6493  -18.0067   22.0436 C   0  0  0  0  0  0  0  0  0  0  0  0
    7.2180  -18.6431   23.3674 C   0  0  0  0  0  0  0  0  0  0  0  0
    7.0452  -20.1202   23.0730 C   0  0  0  0  0  0  0  0  0  0  0  0
    6.5623  -20.8920   24.2736 C   0  0  0  0  0  0  0  0  0  0  0  0
    7.7085  -20.9775   25.1891 N   0  0  0  0  0  0  0  0  0  0  0  0
    8.6813  -16.1069   23.3003 C   0  0  0  0  0  0  0  0  0  0  0  0
    9.9234  -16.0331   23.1108 O   0  0  0  0  0  0  0  0  0  0  0  0
    5.4045  -11.8128   27.4172 C   0  0  0  0  0  0  0  0  0  0  0  0
    7.1640  -12.0761   27.1524 S   0  0  0  0  0  0  0  0  0  0  0  0
    7.4283  -13.6429   26.3166 C   0  0  0  0  0  0  0  0  0  0  0  0
    8.8871  -13.8601   25.9888 C   0  0  0  0  0  0  0  0  0  0  0  0
    9.1358  -15.3017   25.5892 C   0  0  2  0  0  0  0  0  0  0  0  0
    8.2182  -15.7594   24.5954 N   0  0  0  0  0  0  0  0  0  0  0  0
    9.0179  -16.1866   26.7838 C   0  0  0  0  0  0  0  0  0  0  0  0
    8.0665  -17.1751   26.8275 O   0  0  0  0  0  0  0  0  0  0  0  0
    9.8221  -15.9938   27.7493 O   0  0  0  0  0  0  0  0  0  0  0  0
  1  5  1  0
  1  2  1  0
  2  3  1  0
  4  3  1  0
  5  4  1  0
  5  6  1  1
  7  6  2  0
  8  6  1  0
  9  8  1  0
  9 10  1  6
 10 11  1  0
 11 12  1  0
 12 13  1  0
 13 14  1  0
 15 22  1  0
 15  9  1  0
 16 15  2  0
 18 17  1  0
 19 18  1  0
 21 20  1  1
 20 19  1  0
 21 23  1  0
 21 22  1  0
 23 24  1  0
 25 23  2  0
M  END
$$$$
