PKM.pdb
     RDKit          3D

 25 25  0  0  1  0  0  0  0  0999 V2000
    8.5050  -14.6288   17.8938 N   0  0  0  0  0  0  0  0  0  0  0  0
    7.3701  -13.7671   17.7931 C   0  0  0  0  0  0  0  0  0  0  0  0
    7.4460  -12.8147   18.9933 C   0  0  0  0  0  0  0  0  0  0  0  0
    8.9693  -12.7862   19.1839 C   0  0  0  0  0  0  0  0  0  0  0  0
    9.2584  -14.2687   19.0730 C   0  0  1  0  0  0  0  0  0  0  0  0
    8.6309  -14.9585   20.2554 C   0  0  0  0  0  0  0  0  0  0  0  0
    7.6026  -14.5037   20.8216 O   0  0  0  0  0  0  0  0  0  0  0  0
    9.1732  -16.1592   20.7885 N   0  0  0  0  0  0  0  0  0  0  0  0
    8.6619  -16.8131   21.9736 C   0  0  1  0  0  0  0  0  0  0  0  0
    8.9714  -18.2744   21.9902 C   0  0  0  0  0  0  0  0  0  0  0  0
    8.4271  -18.9308   23.2616 C   0  0  0  0  0  0  0  0  0  0  0  0
    8.7669  -20.4031   23.1384 C   0  0  0  0  0  0  0  0  0  0  0  0
    8.2950  -21.2022   24.3254 C   0  0  0  0  0  0  0  0  0  0  0  0
    8.7553  -22.5788   24.0968 N   0  0  0  0  0  0  0  0  0  0  0  0
    9.0659  -16.0567   23.1417 C   0  0  0  0  0  0  0  0  0  0  0  0
   10.1976  -15.5060   23.1374 O   0  0  0  0  0  0  0  0  0  0  0  0
    5.4480  -12.3982   27.9191 C   0  0  0  0  0  0  0  0  0  0  0  0
    6.8540  -11.7057   27.0364 S   0  0  0  0  0  0  0  0  0  0  0  0
    8.0673  -12.9899   26.7166 C   0  0  0  0  0  0  0  0  0  0  0  0
    7.6591  -13.8646   25.5544 C   0  0  0  0  0  0  0  0  0  0  0  0
    8.6890  -14.9522   25.3170 C   0  0  2  0  0  0  0  0  0  0  0  0
    8.2819  -15.8800   24.3107 N   0  0  0  0  0  0  0  0  0  0  0  0
    8.9330  -15.7041   26.5815 C   0  0  0  0  0  0  0  0  0  0  0  0
    7.9228  -16.4226   27.1709 O   0  0  0  0  0  0  0  0  0  0  0  0
   10.0982  -15.6557   27.0877 O   0  0  0  0  0  0  0  0  0  0  0  0
  1  5  1  0
  1  2  1  0
  2  3  1  0
  4  3  1  0
  5  4  1  0
  5  6  1  1
  7  6  2  0
  8  6  1  0
  9  8  1  0
  9 10  1  1
 10 11  1  0
 11 12  1  0
 12 13  1  0
 13 14  1  0
 15 22  1  0
 15  9  1  0
 16 15  2  0
 18 17  1  0
 19 18  1  0
 21 20  1  1
 20 19  1  0
 21 23  1  0
 21 22  1  0
 23 24  1  0
 25 23  2  0
M  END
$$$$
