PKM.pdb
     RDKit          3D

 25 25  0  0  1  0  0  0  0  0999 V2000
    8.9928  -14.7390   18.6373 N   0  0  0  0  0  0  0  0  0  0  0  0
    7.7545  -14.5654   17.9465 C   0  0  0  0  0  0  0  0  0  0  0  0
    6.9466  -13.5476   18.7619 C   0  0  0  0  0  0  0  0  0  0  0  0
    8.1080  -12.7520   19.3749 C   0  0  0  0  0  0  0  0  0  0  0  0
    8.9885  -13.9029   19.8156 C   0  0  1  0  0  0  0  0  0  0  0  0
    8.2735  -14.6469   20.9124 C   0  0  0  0  0  0  0  0  0  0  0  0
    7.4943  -14.0650   21.7119 O   0  0  0  0  0  0  0  0  0  0  0  0
    8.4463  -16.0456   21.0958 N   0  0  0  0  0  0  0  0  0  0  0  0
    7.9404  -16.7729   22.2397 C   0  0  1  0  0  0  0  0  0  0  0  0
    8.0563  -18.2519   22.0649 C   0  0  0  0  0  0  0  0  0  0  0  0
    7.4774  -18.9892   23.2751 C   0  0  0  0  0  0  0  0  0  0  0  0
    7.5849  -20.4647   22.9439 C   0  0  0  0  0  0  0  0  0  0  0  0
    7.0621  -21.3413   24.0523 C   0  0  0  0  0  0  0  0  0  0  0  0
    5.6131  -21.1034   24.1086 N   0  0  0  0  0  0  0  0  0  0  0  0
    8.5229  -16.2201   23.4460 C   0  0  0  0  0  0  0  0  0  0  0  0
    9.7574  -15.9753   23.4578 O   0  0  0  0  0  0  0  0  0  0  0  0
    6.2961  -11.1232   26.4524 C   0  0  0  0  0  0  0  0  0  0  0  0
    7.0191  -11.9515   27.8760 S   0  0  0  0  0  0  0  0  0  0  0  0
    8.0625  -13.3065   27.3298 C   0  0  0  0  0  0  0  0  0  0  0  0
    7.4542  -14.0401   26.1574 C   0  0  0  0  0  0  0  0  0  0  0  0
    8.4009  -15.1093   25.6471 C   0  0  2  0  0  0  0  0  0  0  0  0
    7.8091  -15.9258   24.6361 N   0  0  0  0  0  0  0  0  0  0  0  0
    8.8279  -15.9882   26.7737 C   0  0  0  0  0  0  0  0  0  0  0  0
    8.4075  -17.2933   26.8371 O   0  0  0  0  0  0  0  0  0  0  0  0
    9.5871  -15.4896   27.6632 O   0  0  0  0  0  0  0  0  0  0  0  0
  1  5  1  0
  1  2  1  0
  2  3  1  0
  4  3  1  0
  5  4  1  0
  5  6  1  1
  7  6  2  0
  8  6  1  0
  9  8  1  0
  9 10  1  6
 10 11  1  0
 11 12  1  0
 12 13  1  0
 13 14  1  0
 15 22  1  0
 15  9  1  0
 16 15  2  0
 18 17  1  0
 19 18  1  0
 21 20  1  1
 20 19  1  0
 21 23  1  0
 21 22  1  0
 23 24  1  0
 25 23  2  0
M  END
$$$$
