PKM.pdb
     RDKit          3D

 25 25  0  0  1  0  0  0  0  0999 V2000
    8.1187  -15.5060   19.0447 N   0  0  0  0  0  0  0  0  0  0  0  0
    7.0684  -14.5632   18.8241 C   0  0  0  0  0  0  0  0  0  0  0  0
    7.7183  -13.1747   18.8821 C   0  0  0  0  0  0  0  0  0  0  0  0
    9.1272  -13.5465   18.3978 C   0  0  0  0  0  0  0  0  0  0  0  0
    9.3564  -14.7860   19.2376 C   0  0  1  0  0  0  0  0  0  0  0  0
    9.4311  -14.3664   20.6819 C   0  0  0  0  0  0  0  0  0  0  0  0
   10.2953  -13.5481   21.0925 O   0  0  0  0  0  0  0  0  0  0  0  0
    8.5261  -14.8771   21.6513 N   0  0  0  0  0  0  0  0  0  0  0  0
    8.5533  -14.5039   23.0490 C   0  0  1  0  0  0  0  0  0  0  0  0
    7.2032  -14.1143   23.5559 C   0  0  0  0  0  0  0  0  0  0  0  0
    7.3166  -13.3771   24.8927 C   0  0  0  0  0  0  0  0  0  0  0  0
    5.9023  -12.9681   25.2545 C   0  0  0  0  0  0  0  0  0  0  0  0
    5.8408  -12.1979   26.5481 C   0  0  0  0  0  0  0  0  0  0  0  0
    4.4286  -11.8402   26.7406 N   0  0  0  0  0  0  0  0  0  0  0  0
    9.2503  -15.5299   23.7982 C   0  0  0  0  0  0  0  0  0  0  0  0
    9.9661  -16.3509   23.1675 O   0  0  0  0  0  0  0  0  0  0  0  0
   10.5882  -13.4593   29.6331 C   0  0  0  0  0  0  0  0  0  0  0  0
   11.9366  -14.6404   29.4836 S   0  0  0  0  0  0  0  0  0  0  0  0
   11.7146  -15.6374   28.0071 C   0  0  0  0  0  0  0  0  0  0  0  0
   10.5017  -15.2022   27.2184 C   0  0  0  0  0  0  0  0  0  0  0  0
   10.3766  -16.0109   25.9416 C   0  0  2  0  0  0  0  0  0  0  0  0
    9.1946  -15.6920   25.2064 N   0  0  0  0  0  0  0  0  0  0  0  0
   10.3538  -17.4668   26.2637 C   0  0  0  0  0  0  0  0  0  0  0  0
   11.5257  -18.1625   26.4273 O   0  0  0  0  0  0  0  0  0  0  0  0
    9.2217  -18.0334   26.3798 O   0  0  0  0  0  0  0  0  0  0  0  0
  1  5  1  0
  1  2  1  0
  2  3  1  0
  4  3  1  0
  5  4  1  0
  5  6  1  1
  7  6  2  0
  8  6  1  0
  9  8  1  0
  9 10  1  1
 10 11  1  0
 11 12  1  0
 12 13  1  0
 13 14  1  0
 15 22  1  0
 15  9  1  0
 16 15  2  0
 18 17  1  0
 19 18  1  0
 21 20  1  1
 20 19  1  0
 21 23  1  0
 21 22  1  0
 23 24  1  0
 25 23  2  0
M  END
$$$$
