PKM.pdb
     RDKit          3D

 25 25  0  0  1  0  0  0  0  0999 V2000
    8.6644  -14.6459   18.1270 N   0  0  0  0  0  0  0  0  0  0  0  0
    7.3679  -14.0873   17.9084 C   0  0  0  0  0  0  0  0  0  0  0  0
    7.1257  -13.1010   19.0582 C   0  0  0  0  0  0  0  0  0  0  0  0
    8.5800  -12.6994   19.3430 C   0  0  0  0  0  0  0  0  0  0  0  0
    9.2207  -14.0717   19.3304 C   0  0  1  0  0  0  0  0  0  0  0  0
    8.6891  -14.8481   20.5061 C   0  0  0  0  0  0  0  0  0  0  0  0
    7.6374  -14.5062   21.1077 O   0  0  0  0  0  0  0  0  0  0  0  0
    9.3529  -16.0069   20.9922 N   0  0  0  0  0  0  0  0  0  0  0  0
    8.9212  -16.7493   22.1567 C   0  0  1  0  0  0  0  0  0  0  0  0
    9.4608  -18.1421   22.1704 C   0  0  0  0  0  0  0  0  0  0  0  0
    8.9877  -18.8960   23.4159 C   0  0  0  0  0  0  0  0  0  0  0  0
    9.5443  -20.2995   23.2796 C   0  0  0  0  0  0  0  0  0  0  0  0
    9.0606  -21.2174   24.3722 C   0  0  0  0  0  0  0  0  0  0  0  0
    9.6373  -22.5367   24.0789 N   0  0  0  0  0  0  0  0  0  0  0  0
    9.1664  -15.9527   23.3421 C   0  0  0  0  0  0  0  0  0  0  0  0
   10.2646  -15.3456   23.4398 O   0  0  0  0  0  0  0  0  0  0  0  0
    5.5892  -11.5771   26.3023 C   0  0  0  0  0  0  0  0  0  0  0  0
    6.4710  -12.2225   27.7310 S   0  0  0  0  0  0  0  0  0  0  0  0
    7.8191  -13.2783   27.1912 C   0  0  0  0  0  0  0  0  0  0  0  0
    7.4385  -14.0891   25.9745 C   0  0  0  0  0  0  0  0  0  0  0  0
    8.5972  -14.9605   25.5297 C   0  0  2  0  0  0  0  0  0  0  0  0
    8.2593  -15.7951   24.4213 N   0  0  0  0  0  0  0  0  0  0  0  0
    9.0401  -15.8299   26.6575 C   0  0  0  0  0  0  0  0  0  0  0  0
    9.9203  -15.3563   27.5982 O   0  0  0  0  0  0  0  0  0  0  0  0
    8.5773  -17.0126   26.7150 O   0  0  0  0  0  0  0  0  0  0  0  0
  1  5  1  0
  1  2  1  0
  2  3  1  0
  4  3  1  0
  5  4  1  0
  5  6  1  1
  7  6  2  0
  8  6  1  0
  9  8  1  0
  9 10  1  1
 10 11  1  0
 11 12  1  0
 12 13  1  0
 13 14  1  0
 15 22  1  0
 15  9  1  0
 16 15  2  0
 18 17  1  0
 19 18  1  0
 21 20  1  1
 20 19  1  0
 21 23  1  0
 21 22  1  0
 23 24  1  0
 25 23  2  0
M  END
$$$$
