PKM.pdb
     RDKit          3D

 25 25  0  0  1  0  0  0  0  0999 V2000
    6.2679  -19.5171   21.3069 N   0  0  0  0  0  0  0  0  0  0  0  0
    6.9355  -20.4203   22.1896 C   0  0  0  0  0  0  0  0  0  0  0  0
    7.0486  -19.6981   23.5383 C   0  0  0  0  0  0  0  0  0  0  0  0
    5.8024  -18.8064   23.4407 C   0  0  0  0  0  0  0  0  0  0  0  0
    5.9746  -18.2979   22.0245 C   0  0  1  0  0  0  0  0  0  0  0  0
    7.2027  -17.4271   21.9852 C   0  0  0  0  0  0  0  0  0  0  0  0
    8.3370  -17.8905   21.6962 O   0  0  0  0  0  0  0  0  0  0  0  0
    7.1369  -16.0371   22.2736 N   0  0  0  0  0  0  0  0  0  0  0  0
    8.1336  -15.0807   21.8430 C   0  0  1  0  0  0  0  0  0  0  0  0
    7.5242  -13.7906   21.4007 C   0  0  0  0  0  0  0  0  0  0  0  0
    6.9375  -13.9211   19.9928 C   0  0  0  0  0  0  0  0  0  0  0  0
    8.0845  -13.6330   19.0442 C   0  0  0  0  0  0  0  0  0  0  0  0
    7.6559  -13.6619   17.6000 C   0  0  0  0  0  0  0  0  0  0  0  0
    8.8799  -13.4711   16.8096 N   0  0  0  0  0  0  0  0  0  0  0  0
    9.1688  -14.9904   22.8529 C   0  0  0  0  0  0  0  0  0  0  0  0
   10.0805  -14.1359   22.7021 O   0  0  0  0  0  0  0  0  0  0  0  0
    6.8590  -11.0199   27.0296 C   0  0  0  0  0  0  0  0  0  0  0  0
    6.2970  -12.7280   26.9842 S   0  0  0  0  0  0  0  0  0  0  0  0
    7.7063  -13.8312   26.8417 C   0  0  0  0  0  0  0  0  0  0  0  0
    7.8314  -14.3973   25.4466 C   0  0  0  0  0  0  0  0  0  0  0  0
    9.1065  -15.2071   25.3111 C   0  0  2  0  0  0  0  0  0  0  0  0
    9.2449  -15.7964   24.0178 N   0  0  0  0  0  0  0  0  0  0  0  0
    9.1266  -16.2954   26.3305 C   0  0  0  0  0  0  0  0  0  0  0  0
    9.5567  -16.0442   27.6095 O   0  0  0  0  0  0  0  0  0  0  0  0
    8.7351  -17.4515   25.9750 O   0  0  0  0  0  0  0  0  0  0  0  0
  1  5  1  0
  1  2  1  0
  2  3  1  0
  4  3  1  0
  5  4  1  0
  5  6  1  1
  7  6  2  0
  8  6  1  0
  9  8  1  0
  9 10  1  1
 10 11  1  0
 11 12  1  0
 12 13  1  0
 13 14  1  0
 15 22  1  0
 15  9  1  0
 16 15  2  0
 18 17  1  0
 19 18  1  0
 21 20  1  6
 20 19  1  0
 21 23  1  0
 21 22  1  0
 23 24  1  0
 25 23  2  0
M  END
$$$$
