REI.pdb
     RDKit          3D

 29 28  0  0  1  0  0  0  0  0999 V2000
    7.5227  -13.2197   14.6011 N   0  0  0  0  0  0  0  0  0  0  0  0
    8.2692  -14.4125   14.7176 C   0  0  0  0  0  0  0  0  0  0  0  0
    8.2722  -15.3182   13.7735 N   0  0  0  0  0  0  0  0  0  0  0  0
    9.0662  -14.7100   15.8651 N   0  0  0  0  0  0  0  0  0  0  0  0
    8.9364  -13.8992   17.0773 C   0  0  0  0  0  0  0  0  0  0  0  0
    7.5750  -14.1366   17.6884 C   0  0  0  0  0  0  0  0  0  0  0  0
    7.6048  -14.0082   19.1754 C   0  0  0  0  0  0  0  0  0  0  0  0
    8.4490  -15.0249   19.8859 C   0  0  2  0  0  0  0  0  0  0  0  0
    8.6628  -16.2426   19.1764 N   0  0  0  0  0  0  0  0  0  0  0  0
    8.0205  -15.2451   21.2969 C   0  0  0  0  0  0  0  0  0  0  0  0
    7.7458  -14.2562   21.9929 O   0  0  0  0  0  0  0  0  0  0  0  0
    8.8107  -16.1881   13.8197 N   0  0  0  0  0  0  0  0  0  0  0  0
    7.9147  -16.5292   21.8720 C   0  0  1  0  0  0  0  0  0  0  0  0
    7.4812  -16.7693   23.2288 C   0  0  0  0  0  0  0  0  0  0  0  0
    7.6124  -18.2191   23.6274 C   0  0  0  0  0  0  0  0  0  0  0  0
    7.0956  -18.4225   25.0583 C   0  0  0  0  0  0  0  0  0  0  0  0
    7.1770  -19.8877   25.3181 O   0  0  0  0  0  0  0  0  0  0  0  0
    8.2245  -20.4725   25.6736 C   0  0  0  0  0  0  0  0  0  0  0  0
    8.2229  -15.9542   24.2121 O   0  0  0  0  0  0  0  0  0  0  0  0
    9.4794  -15.9146   24.2671 O   0  0  0  0  0  0  0  0  0  0  0  0
    6.0094  -20.6172   25.1478 C   0  0  0  0  0  0  0  0  0  0  0  0
    7.1370  -10.4504   26.3119 C   0  0  0  0  0  0  0  0  0  0  0  0
    7.9068  -11.7279   26.6246 C   0  0  2  0  0  0  0  0  0  0  0  0
    7.3459  -12.8847   25.8765 C   0  0  0  0  0  0  0  0  0  0  0  0
    5.9092  -13.1287   26.3605 C   0  0  2  0  0  0  0  0  0  0  0  0
    8.0716  -14.1744   26.0046 N   0  0  0  0  0  0  0  0  0  0  0  0
    7.4789  -15.1764   25.1408 C   0  0  0  0  0  0  0  0  0  0  0  0
    8.3063  -14.6642   27.3603 O   0  0  0  0  0  0  0  0  0  0  0  0
    8.9653  -14.1067   28.2426 O   0  0  0  0  0  0  0  0  0  0  0  0
  1  2  1  0
  2  3  2  0
  4  2  1  0
  4  5  1  0
  6  5  1  0
  7  6  1  0
  8 10  1  0
  8  7  1  0
  8  9  1  6
 10 11  2  0
 12 13  1  0
 12 10  1  0
 13 14  1  6
 15 14  1  0
 16 20  1  0
 16 15  1  0
 17 16  2  0
 18 19  2  0
 18 13  1  0
 21 22  1  0
 22 23  1  0
 23 25  1  0
 23 24  1  6
 25 26  1  1
 25 27  1  0
 26 18  1  0
 27 29  1  0
 28 27  2  0
M  END
$$$$
