REI.pdb
     RDKit          3D

 29 28  0  0  1  0  0  0  0  0999 V2000
    8.5578  -12.7383   17.5167 N   0  0  0  0  0  0  0  0  0  0  0  0
    8.2048  -13.3957   16.3180 C   0  0  0  0  0  0  0  0  0  0  0  0
    7.9655  -12.7347   15.2146 N   0  0  0  0  0  0  0  0  0  0  0  0
    8.0856  -14.8163   16.2282 N   0  0  0  0  0  0  0  0  0  0  0  0
    8.3175  -15.6470   17.4114 C   0  0  0  0  0  0  0  0  0  0  0  0
    7.1240  -15.5418   18.3321 C   0  0  0  0  0  0  0  0  0  0  0  0
    7.2964  -16.3725   19.5603 C   0  0  0  0  0  0  0  0  0  0  0  0
    8.5522  -16.1077   20.3376 C   0  0  2  0  0  0  0  0  0  0  0  0
    9.6956  -16.8490   19.9195 N   0  0  0  0  0  0  0  0  0  0  0  0
    8.3383  -16.1571   21.8124 C   0  0  0  0  0  0  0  0  0  0  0  0
    7.4046  -15.5006   22.2970 O   0  0  0  0  0  0  0  0  0  0  0  0
    7.8241  -13.1793   14.3029 N   0  0  0  0  0  0  0  0  0  0  0  0
    9.1525  -16.9181   22.6777 C   0  0  1  0  0  0  0  0  0  0  0  0
    8.9731  -16.9724   24.1098 C   0  0  0  0  0  0  0  0  0  0  0  0
    9.7728  -18.0814   24.7490 C   0  0  0  0  0  0  0  0  0  0  0  0
    9.5894  -19.3863   23.9619 C   0  0  0  0  0  0  0  0  0  0  0  0
   10.4725  -20.3893   24.6216 O   0  0  0  0  0  0  0  0  0  0  0  0
   10.3300  -20.7673   25.8058 C   0  0  0  0  0  0  0  0  0  0  0  0
    9.3358  -15.7039   24.7737 O   0  0  0  0  0  0  0  0  0  0  0  0
   10.3757  -15.0525   24.4948 O   0  0  0  0  0  0  0  0  0  0  0  0
   11.5013  -20.9154   23.8537 C   0  0  0  0  0  0  0  0  0  0  0  0
    5.3394  -12.2514   26.9794 C   0  0  0  0  0  0  0  0  0  0  0  0
    6.2140  -13.4411   26.6025 C   0  0  2  0  0  0  0  0  0  0  0  0
    7.5769  -12.9962   26.2065 C   0  0  0  0  0  0  0  0  0  0  0  0
    7.5792  -12.7153   24.6968 C   0  0  1  0  0  0  0  0  0  0  0  0
    8.6894  -13.9438   26.4730 N   0  0  0  0  0  0  0  0  0  0  0  0
    8.4659  -15.1953   25.7764 C   0  0  0  0  0  0  0  0  0  0  0  0
    9.0691  -14.1345   27.8702 O   0  0  0  0  0  0  0  0  0  0  0  0
    9.4389  -13.2613   28.6603 O   0  0  0  0  0  0  0  0  0  0  0  0
  1  2  1  0
  2  3  2  0
  4  2  1  0
  4  5  1  0
  6  5  1  0
  7  6  1  0
  8 10  1  0
  8  7  1  0
  8  9  1  6
 10 11  2  0
 12 13  1  0
 12 10  1  0
 13 14  1  1
 15 14  1  0
 16 20  1  0
 16 15  1  0
 17 16  2  0
 18 19  2  0
 18 13  1  0
 21 22  1  0
 22 23  1  0
 23 25  1  0
 23 24  1  1
 25 26  1  6
 25 27  1  0
 26 18  1  0
 27 29  1  0
 28 27  2  0
M  END
$$$$
