REI.pdb
     RDKit          3D

 29 28  0  0  1  0  0  0  0  0999 V2000
    9.1467  -14.8197   15.0181 N   0  0  0  0  0  0  0  0  0  0  0  0
    8.2484  -13.7875   15.3663 C   0  0  0  0  0  0  0  0  0  0  0  0
    7.6771  -13.0366   14.4599 N   0  0  0  0  0  0  0  0  0  0  0  0
    7.9041  -13.4945   16.7213 N   0  0  0  0  0  0  0  0  0  0  0  0
    6.9292  -14.3291   17.4262 C   0  0  0  0  0  0  0  0  0  0  0  0
    7.6645  -15.3480   18.2654 C   0  0  0  0  0  0  0  0  0  0  0  0
    8.7329  -14.7162   19.0947 C   0  0  0  0  0  0  0  0  0  0  0  0
    9.4537  -15.6485   20.0234 C   0  0  2  0  0  0  0  0  0  0  0  0
    9.7053  -16.9519   19.5042 N   0  0  0  0  0  0  0  0  0  0  0  0
    8.8581  -15.6751   21.3900 C   0  0  0  0  0  0  0  0  0  0  0  0
    8.6225  -14.5961   21.9537 O   0  0  0  0  0  0  0  0  0  0  0  0
    7.0216  -12.2803   14.6767 N   0  0  0  0  0  0  0  0  0  0  0  0
    8.5520  -16.8746   22.0671 C   0  0  1  0  0  0  0  0  0  0  0  0
    7.8964  -16.9273   23.3531 C   0  0  0  0  0  0  0  0  0  0  0  0
    7.9130  -18.3126   23.9518 C   0  0  0  0  0  0  0  0  0  0  0  0
    7.1081  -18.3331   25.2586 C   0  0  0  0  0  0  0  0  0  0  0  0
    7.2258  -19.7205   25.7897 O   0  0  0  0  0  0  0  0  0  0  0  0
    7.8874  -20.6238   25.2312 C   0  0  0  0  0  0  0  0  0  0  0  0
    8.4953  -15.9973   24.3317 O   0  0  0  0  0  0  0  0  0  0  0  0
    9.7316  -15.9380   24.5593 O   0  0  0  0  0  0  0  0  0  0  0  0
    6.5529  -19.9953   26.9714 C   0  0  0  0  0  0  0  0  0  0  0  0
    6.8719  -10.4190   26.0918 C   0  0  0  0  0  0  0  0  0  0  0  0
    7.6978  -11.6349   26.4944 C   0  0  2  0  0  0  0  0  0  0  0  0
    7.2847  -12.8384   25.7240 C   0  0  0  0  0  0  0  0  0  0  0  0
    5.8429  -13.1959   26.1131 C   0  0  2  0  0  0  0  0  0  0  0  0
    8.1022  -14.0637   25.9160 N   0  0  0  0  0  0  0  0  0  0  0  0
    7.6312  -15.1269   25.0504 C   0  0  0  0  0  0  0  0  0  0  0  0
    8.3102  -14.5055   27.2923 O   0  0  0  0  0  0  0  0  0  0  0  0
    8.8820  -13.8802   28.1898 O   0  0  0  0  0  0  0  0  0  0  0  0
  1  2  1  0
  2  3  2  0
  4  2  1  0
  4  5  1  0
  6  5  1  0
  7  6  1  0
  8 10  1  0
  8  7  1  0
  8  9  1  6
 10 11  2  0
 12 13  1  0
 12 10  1  0
 13 14  1  1
 15 14  1  0
 16 20  1  0
 16 15  1  0
 17 16  2  0
 18 19  2  0
 18 13  1  0
 21 22  1  0
 22 23  1  0
 23 25  1  0
 23 24  1  6
 25 26  1  1
 25 27  1  0
 26 18  1  0
 27 29  1  0
 28 27  2  0
M  END
$$$$
