REI.pdb
     RDKit          3D

 29 28  0  0  1  0  0  0  0  0999 V2000
    8.7133  -15.3762   15.8308 N   0  0  0  0  0  0  0  0  0  0  0  0
    8.4253  -14.0142   15.5946 C   0  0  0  0  0  0  0  0  0  0  0  0
    8.3150  -13.5335   14.3828 N   0  0  0  0  0  0  0  0  0  0  0  0
    8.2362  -13.0749   16.6541 N   0  0  0  0  0  0  0  0  0  0  0  0
    8.6041  -13.4335   18.0252 C   0  0  0  0  0  0  0  0  0  0  0  0
    7.3547  -13.7926   18.7953 C   0  0  0  0  0  0  0  0  0  0  0  0
    7.6691  -14.2404   20.1842 C   0  0  0  0  0  0  0  0  0  0  0  0
    7.9713  -15.7029   20.3290 C   0  0  2  0  0  0  0  0  0  0  0  0
    7.1864  -16.5709   19.5153 N   0  0  0  0  0  0  0  0  0  0  0  0
    8.0300  -16.1410   21.7531 C   0  0  0  0  0  0  0  0  0  0  0  0
    7.0007  -16.0600   22.4398 O   0  0  0  0  0  0  0  0  0  0  0  0
    8.1523  -12.5441   14.1746 N   0  0  0  0  0  0  0  0  0  0  0  0
    9.2056  -16.6428   22.3504 C   0  0  2  0  0  0  0  0  0  0  0  0
    9.3075  -17.0047   23.7450 C   0  0  0  0  0  0  0  0  0  0  0  0
   10.3351  -18.0834   23.9867 C   0  0  0  0  0  0  0  0  0  0  0  0
   10.3900  -18.4360   25.4795 C   0  0  0  0  0  0  0  0  0  0  0  0
   11.4298  -19.4953   25.6116 O   0  0  0  0  0  0  0  0  0  0  0  0
   12.5898  -19.3902   25.1543 C   0  0  0  0  0  0  0  0  0  0  0  0
    9.6413  -15.8518   24.6056 O   0  0  0  0  0  0  0  0  0  0  0  0
   10.5736  -15.0466   24.3484 O   0  0  0  0  0  0  0  0  0  0  0  0
   11.0609  -20.6512   26.2844 C   0  0  0  0  0  0  0  0  0  0  0  0
    6.3723  -12.1301   25.8698 C   0  0  0  0  0  0  0  0  0  0  0  0
    7.6516  -12.9293   25.6526 C   0  0  2  0  0  0  0  0  0  0  0  0
    8.0329  -13.6700   26.8849 C   0  0  0  0  0  0  0  0  0  0  0  0
    8.4138  -12.6510   27.9687 C   0  0  2  0  0  0  0  0  0  0  0  0
    9.1681  -14.6204   26.7650 N   0  0  0  0  0  0  0  0  0  0  0  0
    8.8703  -15.6428   25.7814 C   0  0  0  0  0  0  0  0  0  0  0  0
    9.6981  -15.1707   28.0096 O   0  0  0  0  0  0  0  0  0  0  0  0
   10.3540  -14.5669   28.8633 O   0  0  0  0  0  0  0  0  0  0  0  0
  1  2  1  0
  2  3  2  0
  4  2  1  0
  4  5  1  0
  6  5  1  0
  7  6  1  0
  8 10  1  0
  8  7  1  0
  8  9  1  6
 10 11  2  0
 12 13  1  0
 12 10  1  0
 13 14  1  6
 15 14  1  0
 16 20  1  0
 16 15  1  0
 17 16  2  0
 18 19  2  0
 18 13  1  0
 21 22  1  0
 22 23  1  0
 23 25  1  0
 23 24  1  1
 25 26  1  6
 25 27  1  0
 26 18  1  0
 27 29  1  0
 28 27  2  0
M  END
$$$$
