REI.pdb
     RDKit          3D

 29 28  0  0  1  0  0  0  0  0999 V2000
    9.8516  -14.2769   19.9087 N   0  0  0  0  0  0  0  0  0  0  0  0
    9.2568  -13.2620   19.1277 C   0  0  0  0  0  0  0  0  0  0  0  0
    9.9575  -12.2748   18.6317 N   0  0  0  0  0  0  0  0  0  0  0  0
    7.8603  -13.2435   18.8279 N   0  0  0  0  0  0  0  0  0  0  0  0
    7.0526  -14.4485   19.0261 C   0  0  0  0  0  0  0  0  0  0  0  0
    6.7960  -14.6354   20.5034 C   0  0  0  0  0  0  0  0  0  0  0  0
    6.1556  -15.9524   20.7926 C   0  0  0  0  0  0  0  0  0  0  0  0
    7.0943  -17.1223   20.8321 C   0  0  2  0  0  0  0  0  0  0  0  0
    6.5191  -18.3774   20.4777 N   0  0  0  0  0  0  0  0  0  0  0  0
    7.8853  -17.1842   22.0945 C   0  0  0  0  0  0  0  0  0  0  0  0
    7.3539  -17.6740   23.1021 O   0  0  0  0  0  0  0  0  0  0  0  0
    9.5517  -11.4962   18.1043 N   0  0  0  0  0  0  0  0  0  0  0  0
    9.2106  -16.7095   22.1900 C   0  0  2  0  0  0  0  0  0  0  0  0
    9.9390  -16.6034   23.4328 C   0  0  0  0  0  0  0  0  0  0  0  0
   11.4338  -16.5880   23.2248 C   0  0  0  0  0  0  0  0  0  0  0  0
   11.9272  -17.9873   22.8320 C   0  0  0  0  0  0  0  0  0  0  0  0
   13.0854  -17.7714   21.9195 O   0  0  0  0  0  0  0  0  0  0  0  0
   13.9523  -16.8865   22.0956 C   0  0  0  0  0  0  0  0  0  0  0  0
    9.5705  -15.3986   24.2034 O   0  0  0  0  0  0  0  0  0  0  0  0
    9.2523  -14.3065   23.6651 O   0  0  0  0  0  0  0  0  0  0  0  0
   13.1804  -18.6146   20.8219 C   0  0  0  0  0  0  0  0  0  0  0  0
    5.7443  -12.7123   26.8338 C   0  0  0  0  0  0  0  0  0  0  0  0
    7.2505  -12.8476   27.0228 C   0  0  2  0  0  0  0  0  0  0  0  0
    7.7924  -13.9636   26.2023 C   0  0  0  0  0  0  0  0  0  0  0  0
    6.9020  -15.1976   26.4079 C   0  0  2  0  0  0  0  0  0  0  0  0
    9.1881  -14.3831   26.4894 N   0  0  0  0  0  0  0  0  0  0  0  0
    9.5756  -15.4786   25.6227 C   0  0  0  0  0  0  0  0  0  0  0  0
    9.5269  -14.6231   27.8896 O   0  0  0  0  0  0  0  0  0  0  0  0
    9.5945  -13.7791   28.7876 O   0  0  0  0  0  0  0  0  0  0  0  0
  1  2  1  0
  2  3  2  0
  4  2  1  0
  4  5  1  0
  6  5  1  0
  7  6  1  0
  8 10  1  0
  8  7  1  0
  8  9  1  1
 10 11  2  0
 12 13  1  0
 12 10  1  0
 13 14  1  6
 15 14  1  0
 16 20  1  0
 16 15  1  0
 17 16  2  0
 18 19  2  0
 18 13  1  0
 21 22  1  0
 22 23  1  0
 23 25  1  0
 23 24  1  6
 25 26  1  1
 25 27  1  0
 26 18  1  0
 27 29  1  0
 28 27  2  0
M  END
$$$$
