REI.pdb
     RDKit          3D

 29 28  0  0  1  0  0  0  0  0999 V2000
   10.3568  -13.0149   18.7849 N   0  0  0  0  0  0  0  0  0  0  0  0
    9.2141  -12.4133   19.3558 C   0  0  0  0  0  0  0  0  0  0  0  0
    9.2149  -11.1642   19.7449 N   0  0  0  0  0  0  0  0  0  0  0  0
    7.9883  -13.1215   19.5464 N   0  0  0  0  0  0  0  0  0  0  0  0
    7.7281  -14.3508   18.7948 C   0  0  0  0  0  0  0  0  0  0  0  0
    6.4315  -14.9601   19.2754 C   0  0  0  0  0  0  0  0  0  0  0  0
    6.5218  -15.4056   20.6973 C   0  0  0  0  0  0  0  0  0  0  0  0
    7.2241  -16.7140   20.9117 C   0  0  2  0  0  0  0  0  0  0  0  0
    6.5768  -17.8526   20.3493 N   0  0  0  0  0  0  0  0  0  0  0  0
    7.6330  -16.9229   22.3303 C   0  0  0  0  0  0  0  0  0  0  0  0
    6.7501  -16.9689   23.1997 O   0  0  0  0  0  0  0  0  0  0  0  0
    8.4397  -10.7234   20.2485 N   0  0  0  0  0  0  0  0  0  0  0  0
    8.9800  -17.0700   22.7236 C   0  0  2  0  0  0  0  0  0  0  0  0
    9.3994  -17.2952   24.0874 C   0  0  0  0  0  0  0  0  0  0  0  0
   10.6520  -18.1327   24.1741 C   0  0  0  0  0  0  0  0  0  0  0  0
   11.0202  -18.3822   25.6431 C   0  0  0  0  0  0  0  0  0  0  0  0
   12.3027  -19.1409   25.6201 O   0  0  0  0  0  0  0  0  0  0  0  0
   12.4366  -20.2922   26.0915 C   0  0  0  0  0  0  0  0  0  0  0  0
    9.6378  -16.0358   24.8210 O   0  0  0  0  0  0  0  0  0  0  0  0
   10.3440  -15.0975   24.3687 O   0  0  0  0  0  0  0  0  0  0  0  0
   13.3910  -18.5086   25.0367 C   0  0  0  0  0  0  0  0  0  0  0  0
    5.9967  -12.8611   26.4430 C   0  0  0  0  0  0  0  0  0  0  0  0
    7.3483  -13.4462   26.0514 C   0  0  2  0  0  0  0  0  0  0  0  0
    8.0562  -13.9938   27.2395 C   0  0  0  0  0  0  0  0  0  0  0  0
    8.4276  -12.8275   28.1668 C   0  0  2  0  0  0  0  0  0  0  0  0
    9.3051  -14.7541   26.9774 N   0  0  0  0  0  0  0  0  0  0  0  0
    9.0390  -15.8774   26.1005 C   0  0  0  0  0  0  0  0  0  0  0  0
   10.1059  -15.1232   28.1416 O   0  0  0  0  0  0  0  0  0  0  0  0
   10.2139  -16.2488   28.6363 O   0  0  0  0  0  0  0  0  0  0  0  0
  1  2  1  0
  2  3  2  0
  4  2  1  0
  4  5  1  0
  6  5  1  0
  7  6  1  0
  8 10  1  0
  8  7  1  0
  8  9  1  1
 10 11  2  0
 12 13  1  0
 12 10  1  0
 13 14  1  6
 15 14  1  0
 16 20  1  0
 16 15  1  0
 17 16  2  0
 18 19  2  0
 18 13  1  0
 21 22  1  0
 22 23  1  0
 23 25  1  0
 23 24  1  1
 25 26  1  6
 25 27  1  0
 26 18  1  0
 27 29  1  0
 28 27  2  0
M  END
$$$$
