REI.pdb
     RDKit          3D

 29 28  0  0  1  0  0  0  0  0999 V2000
    9.4268  -13.0636   17.3985 N   0  0  0  0  0  0  0  0  0  0  0  0
    8.0219  -13.1153   17.2665 C   0  0  0  0  0  0  0  0  0  0  0  0
    7.4386  -13.0894   16.0957 N   0  0  0  0  0  0  0  0  0  0  0  0
    7.1479  -13.1987   18.3933 N   0  0  0  0  0  0  0  0  0  0  0  0
    7.3863  -14.2021   19.4326 C   0  0  0  0  0  0  0  0  0  0  0  0
    7.1155  -15.5763   18.8657 C   0  0  0  0  0  0  0  0  0  0  0  0
    7.3772  -16.6510   19.8682 C   0  0  0  0  0  0  0  0  0  0  0  0
    8.7345  -16.6102   20.5063 C   0  0  2  0  0  0  0  0  0  0  0  0
    9.6957  -17.5051   19.9522 N   0  0  0  0  0  0  0  0  0  0  0  0
    8.6737  -16.6756   21.9947 C   0  0  0  0  0  0  0  0  0  0  0  0
    7.7139  -16.1429   22.5715 O   0  0  0  0  0  0  0  0  0  0  0  0
    6.4229  -13.0756   15.9650 N   0  0  0  0  0  0  0  0  0  0  0  0
    9.6609  -17.3170   22.7725 C   0  0  1  0  0  0  0  0  0  0  0  0
    9.6113  -17.4156   24.2126 C   0  0  0  0  0  0  0  0  0  0  0  0
   10.5643  -18.4543   24.7521 C   0  0  0  0  0  0  0  0  0  0  0  0
   10.1413  -19.8535   24.2840 C   0  0  0  0  0  0  0  0  0  0  0  0
   11.1549  -20.7943   24.8392 O   0  0  0  0  0  0  0  0  0  0  0  0
   12.2245  -21.0843   24.2583 C   0  0  0  0  0  0  0  0  0  0  0  0
    9.9081  -16.1309   24.8781 O   0  0  0  0  0  0  0  0  0  0  0  0
   10.7989  -15.3371   24.4782 O   0  0  0  0  0  0  0  0  0  0  0  0
   10.8680  -21.3646   26.0709 C   0  0  0  0  0  0  0  0  0  0  0  0
    5.9966  -12.7977   25.9227 C   0  0  0  0  0  0  0  0  0  0  0  0
    7.3532  -13.4297   25.6348 C   0  0  2  0  0  0  0  0  0  0  0  0
    8.0370  -13.8215   26.8963 C   0  0  0  0  0  0  0  0  0  0  0  0
    8.3118  -12.5529   27.7168 C   0  0  2  0  0  0  0  0  0  0  0  0
    9.3314  -14.5366   26.7566 N   0  0  0  0  0  0  0  0  0  0  0  0
    9.1489  -15.7753   26.0260 C   0  0  0  0  0  0  0  0  0  0  0  0
   10.1212  -14.7088   27.9729 O   0  0  0  0  0  0  0  0  0  0  0  0
   10.8582  -13.8702   28.4992 O   0  0  0  0  0  0  0  0  0  0  0  0
  1  2  1  0
  2  3  2  0
  4  2  1  0
  4  5  1  0
  6  5  1  0
  7  6  1  0
  8 10  1  0
  8  7  1  0
  8  9  1  6
 10 11  2  0
 12 13  1  0
 12 10  1  0
 13 14  1  1
 15 14  1  0
 16 20  1  0
 16 15  1  0
 17 16  2  0
 18 19  2  0
 18 13  1  0
 21 22  1  0
 22 23  1  0
 23 25  1  0
 23 24  1  1
 25 26  1  6
 25 27  1  0
 26 18  1  0
 27 29  1  0
 28 27  2  0
M  END
$$$$
