REI.pdb
     RDKit          3D

 29 28  0  0  1  0  0  0  0  0999 V2000
    7.1367  -15.0448   13.9971 N   0  0  0  0  0  0  0  0  0  0  0  0
    8.1020  -14.3967   14.7984 C   0  0  0  0  0  0  0  0  0  0  0  0
    9.3324  -14.2225   14.3892 N   0  0  0  0  0  0  0  0  0  0  0  0
    7.8038  -13.8907   16.1005 N   0  0  0  0  0  0  0  0  0  0  0  0
    8.1628  -14.6678   17.2883 C   0  0  0  0  0  0  0  0  0  0  0  0
    7.0783  -14.5115   18.3288 C   0  0  0  0  0  0  0  0  0  0  0  0
    7.5239  -13.6588   19.4701 C   0  0  0  0  0  0  0  0  0  0  0  0
    8.8287  -14.0592   20.0934 C   0  0  2  0  0  0  0  0  0  0  0  0
    9.7171  -14.7763   19.2400 N   0  0  0  0  0  0  0  0  0  0  0  0
    8.6564  -14.7075   21.4250 C   0  0  0  0  0  0  0  0  0  0  0  0
    7.7281  -14.3256   22.1531 O   0  0  0  0  0  0  0  0  0  0  0  0
   10.1011  -13.9335   15.0010 N   0  0  0  0  0  0  0  0  0  0  0  0
    9.5038  -15.7354   21.8900 C   0  0  1  0  0  0  0  0  0  0  0  0
    9.3191  -16.4227   23.1469 C   0  0  0  0  0  0  0  0  0  0  0  0
   10.0889  -17.7193   23.2129 C   0  0  0  0  0  0  0  0  0  0  0  0
    9.8121  -18.4309   24.5444 C   0  0  0  0  0  0  0  0  0  0  0  0
   10.6272  -19.6782   24.5187 O   0  0  0  0  0  0  0  0  0  0  0  0
   10.9259  -20.2907   23.4694 C   0  0  0  0  0  0  0  0  0  0  0  0
    9.7118  -15.5964   24.3064 O   0  0  0  0  0  0  0  0  0  0  0  0
   10.8035  -14.9739   24.3713 O   0  0  0  0  0  0  0  0  0  0  0  0
   11.0647  -20.1627   25.7428 C   0  0  0  0  0  0  0  0  0  0  0  0
    6.6657  -11.7855   25.9200 C   0  0  0  0  0  0  0  0  0  0  0  0
    7.8408  -12.7179   25.6508 C   0  0  2  0  0  0  0  0  0  0  0  0
    8.0264  -13.6784   26.7713 C   0  0  0  0  0  0  0  0  0  0  0  0
    8.3902  -12.8880   28.0365 C   0  0  2  0  0  0  0  0  0  0  0  0
    9.0745  -14.7154   26.5914 N   0  0  0  0  0  0  0  0  0  0  0  0
    8.8106  -15.5005   25.4016 C   0  0  0  0  0  0  0  0  0  0  0  0
    9.3887  -15.5404   27.7548 O   0  0  0  0  0  0  0  0  0  0  0  0
    9.0210  -16.7010   27.9575 O   0  0  0  0  0  0  0  0  0  0  0  0
  1  2  1  0
  2  3  2  0
  4  2  1  0
  4  5  1  0
  6  5  1  0
  7  6  1  0
  8 10  1  0
  8  7  1  0
  8  9  1  6
 10 11  2  0
 12 13  1  0
 12 10  1  0
 13 14  1  6
 15 14  1  0
 16 20  1  0
 16 15  1  0
 17 16  2  0
 18 19  2  0
 18 13  1  0
 21 22  1  0
 22 23  1  0
 23 25  1  0
 23 24  1  1
 25 26  1  6
 25 27  1  0
 26 18  1  0
 27 29  1  0
 28 27  2  0
M  END
$$$$
