REI.pdb
     RDKit          3D

 29 28  0  0  1  0  0  0  0  0999 V2000
    8.1909  -14.5694   16.0293 N   0  0  0  0  0  0  0  0  0  0  0  0
    8.5925  -13.5936   16.9676 C   0  0  0  0  0  0  0  0  0  0  0  0
    8.2381  -12.3395   16.8516 N   0  0  0  0  0  0  0  0  0  0  0  0
    9.4067  -13.9060   18.0989 N   0  0  0  0  0  0  0  0  0  0  0  0
    8.7953  -14.4469   19.3144 C   0  0  0  0  0  0  0  0  0  0  0  0
    7.3663  -14.8385   19.0179 C   0  0  0  0  0  0  0  0  0  0  0  0
    6.6567  -15.3150   20.2417 C   0  0  0  0  0  0  0  0  0  0  0  0
    6.9937  -16.7130   20.6700 C   0  0  2  0  0  0  0  0  0  0  0  0
    6.0835  -17.7199   20.2348 N   0  0  0  0  0  0  0  0  0  0  0  0
    7.3116  -16.8096   22.1236 C   0  0  0  0  0  0  0  0  0  0  0  0
    6.4234  -16.5318   22.9431 O   0  0  0  0  0  0  0  0  0  0  0  0
    8.5995  -11.5877   17.4458 N   0  0  0  0  0  0  0  0  0  0  0  0
    8.5784  -17.2031   22.6043 C   0  0  2  0  0  0  0  0  0  0  0  0
    8.9124  -17.2979   24.0064 C   0  0  0  0  0  0  0  0  0  0  0  0
   10.0968  -18.1993   24.2568 C   0  0  0  0  0  0  0  0  0  0  0  0
   10.4152  -18.2488   25.7575 C   0  0  0  0  0  0  0  0  0  0  0  0
   11.6233  -19.1110   25.8910 O   0  0  0  0  0  0  0  0  0  0  0  0
   12.1773  -19.6839   24.9264 C   0  0  0  0  0  0  0  0  0  0  0  0
    9.2026  -15.9811   24.6089 O   0  0  0  0  0  0  0  0  0  0  0  0
   10.0425  -15.1746   24.1318 O   0  0  0  0  0  0  0  0  0  0  0  0
   12.1394  -19.2681   27.1692 C   0  0  0  0  0  0  0  0  0  0  0  0
    6.3925  -11.2716   26.5612 C   0  0  0  0  0  0  0  0  0  0  0  0
    7.6521  -12.0819   26.8428 C   0  0  2  0  0  0  0  0  0  0  0  0
    7.5258  -13.4652   26.3110 C   0  0  0  0  0  0  0  0  0  0  0  0
    6.3430  -14.1509   27.0102 C   0  0  2  0  0  0  0  0  0  0  0  0
    8.7043  -14.3533   26.4812 N   0  0  0  0  0  0  0  0  0  0  0  0
    8.4971  -15.6080   25.7853 C   0  0  0  0  0  0  0  0  0  0  0  0
    9.1966  -14.5373   27.8438 O   0  0  0  0  0  0  0  0  0  0  0  0
    9.1714  -15.5804   28.5031 O   0  0  0  0  0  0  0  0  0  0  0  0
  1  2  1  0
  2  3  2  0
  4  2  1  0
  4  5  1  0
  6  5  1  0
  7  6  1  0
  8 10  1  0
  8  7  1  0
  8  9  1  1
 10 11  2  0
 12 13  1  0
 12 10  1  0
 13 14  1  6
 15 14  1  0
 16 20  1  0
 16 15  1  0
 17 16  2  0
 18 19  2  0
 18 13  1  0
 21 22  1  0
 22 23  1  0
 23 25  1  0
 23 24  1  6
 25 26  1  1
 25 27  1  0
 26 18  1  0
 27 29  1  0
 28 27  2  0
M  END
$$$$
