REI.pdb
     RDKit          3D

 29 28  0  0  1  0  0  0  0  0999 V2000
   10.4419  -14.4279   20.2899 N   0  0  0  0  0  0  0  0  0  0  0  0
   10.5742  -13.8461   19.0102 C   0  0  0  0  0  0  0  0  0  0  0  0
   11.6523  -14.0097   18.2872 N   0  0  0  0  0  0  0  0  0  0  0  0
    9.5482  -13.0454   18.4215 N   0  0  0  0  0  0  0  0  0  0  0  0
    8.3794  -12.6550   19.2123 C   0  0  0  0  0  0  0  0  0  0  0  0
    7.4260  -13.8242   19.2974 C   0  0  0  0  0  0  0  0  0  0  0  0
    8.0818  -15.0332   19.8777 C   0  0  0  0  0  0  0  0  0  0  0  0
    7.1667  -16.1951   20.1300 C   0  0  2  0  0  0  0  0  0  0  0  0
    6.0245  -16.2671   19.2804 N   0  0  0  0  0  0  0  0  0  0  0  0
    6.8259  -16.3577   21.5725 C   0  0  0  0  0  0  0  0  0  0  0  0
    5.8624  -15.7235   22.0277 O   0  0  0  0  0  0  0  0  0  0  0  0
   11.8467  -13.4882   17.4274 N   0  0  0  0  0  0  0  0  0  0  0  0
    7.5526  -17.2012   22.4391 C   0  0  2  0  0  0  0  0  0  0  0  0
    7.3801  -17.2215   23.8730 C   0  0  0  0  0  0  0  0  0  0  0  0
    7.7316  -18.5594   24.4767 C   0  0  0  0  0  0  0  0  0  0  0  0
    7.4443  -18.5507   25.9844 C   0  0  0  0  0  0  0  0  0  0  0  0
    7.7685  -19.9217   26.4704 O   0  0  0  0  0  0  0  0  0  0  0  0
    8.1249  -20.8578   25.7206 C   0  0  0  0  0  0  0  0  0  0  0  0
    8.1830  -16.1857   24.5540 O   0  0  0  0  0  0  0  0  0  0  0  0
    9.3282  -15.8359   24.1669 O   0  0  0  0  0  0  0  0  0  0  0  0
    7.6596  -20.1414   27.8359 C   0  0  0  0  0  0  0  0  0  0  0  0
    5.4089  -11.9169   26.3463 C   0  0  0  0  0  0  0  0  0  0  0  0
    6.4655  -12.8467   25.7619 C   0  0  2  0  0  0  0  0  0  0  0  0
    7.2944  -13.4540   26.8373 C   0  0  0  0  0  0  0  0  0  0  0  0
    8.0733  -12.3351   27.5440 C   0  0  2  0  0  0  0  0  0  0  0  0
    8.2880  -14.4742   26.4150 N   0  0  0  0  0  0  0  0  0  0  0  0
    7.6333  -15.5537   25.7026 C   0  0  0  0  0  0  0  0  0  0  0  0
    9.2141  -14.9520   27.4381 O   0  0  0  0  0  0  0  0  0  0  0  0
   10.1438  -14.3185   27.9459 O   0  0  0  0  0  0  0  0  0  0  0  0
  1  2  1  0
  2  3  2  0
  4  2  1  0
  4  5  1  0
  6  5  1  0
  7  6  1  0
  8 10  1  0
  8  7  1  0
  8  9  1  6
 10 11  2  0
 12 13  1  0
 12 10  1  0
 13 14  1  6
 15 14  1  0
 16 20  1  0
 16 15  1  0
 17 16  2  0
 18 19  2  0
 18 13  1  0
 21 22  1  0
 22 23  1  0
 23 25  1  0
 23 24  1  1
 25 26  1  6
 25 27  1  0
 26 18  1  0
 27 29  1  0
 28 27  2  0
M  END
$$$$
