REI.pdb
     RDKit          3D

 29 28  0  0  1  0  0  0  0  0999 V2000
    8.1424  -12.2214   18.8113 N   0  0  0  0  0  0  0  0  0  0  0  0
    8.4086  -13.3259   17.9728 C   0  0  0  0  0  0  0  0  0  0  0  0
    8.3682  -13.2264   16.6689 N   0  0  0  0  0  0  0  0  0  0  0  0
    8.7378  -14.6175   18.4864 N   0  0  0  0  0  0  0  0  0  0  0  0
    7.6829  -15.4899   19.0058 C   0  0  0  0  0  0  0  0  0  0  0  0
    7.1019  -14.8735   20.2570 C   0  0  0  0  0  0  0  0  0  0  0  0
    6.1029  -15.7733   20.9058 C   0  0  0  0  0  0  0  0  0  0  0  0
    6.5924  -17.1603   21.2019 C   0  0  2  0  0  0  0  0  0  0  0  0
    5.8866  -18.2092   20.5435 N   0  0  0  0  0  0  0  0  0  0  0  0
    6.7698  -17.4096   22.6612 C   0  0  0  0  0  0  0  0  0  0  0  0
    5.7630  -17.4285   23.3848 O   0  0  0  0  0  0  0  0  0  0  0  0
    8.6360  -13.9815   16.0309 N   0  0  0  0  0  0  0  0  0  0  0  0
    8.0331  -17.6244   23.2518 C   0  0  2  0  0  0  0  0  0  0  0  0
    8.2722  -17.5846   24.6757 C   0  0  0  0  0  0  0  0  0  0  0  0
    9.0919  -18.7577   25.1552 C   0  0  0  0  0  0  0  0  0  0  0  0
    9.2661  -18.6932   26.6788 C   0  0  0  0  0  0  0  0  0  0  0  0
   10.0873  -19.8810   27.0472 O   0  0  0  0  0  0  0  0  0  0  0  0
   11.1825  -20.1610   26.5109 C   0  0  0  0  0  0  0  0  0  0  0  0
    8.9532  -16.3448   25.1005 O   0  0  0  0  0  0  0  0  0  0  0  0
    9.9727  -15.8857   24.5231 O   0  0  0  0  0  0  0  0  0  0  0  0
    9.5827  -20.7033   28.0441 C   0  0  0  0  0  0  0  0  0  0  0  0
    6.6559  -11.7328   25.6589 C   0  0  0  0  0  0  0  0  0  0  0  0
    7.6949  -12.8362   25.4986 C   0  0  2  0  0  0  0  0  0  0  0  0
    8.1688  -13.3184   26.8234 C   0  0  0  0  0  0  0  0  0  0  0  0
    8.9149  -12.1722   27.5217 C   0  0  2  0  0  0  0  0  0  0  0  0
    9.0820  -14.4899   26.8169 N   0  0  0  0  0  0  0  0  0  0  0  0
    8.4296  -15.6367   26.2163 C   0  0  0  0  0  0  0  0  0  0  0  0
    9.7452  -14.8127   28.0774 O   0  0  0  0  0  0  0  0  0  0  0  0
    9.4484  -15.7239   28.8552 O   0  0  0  0  0  0  0  0  0  0  0  0
  1  2  1  0
  2  3  2  0
  4  2  1  0
  4  5  1  0
  6  5  1  0
  7  6  1  0
  8 10  1  0
  8  7  1  0
  8  9  1  1
 10 11  2  0
 12 13  1  0
 12 10  1  0
 13 14  1  6
 15 14  1  0
 16 20  1  0
 16 15  1  0
 17 16  2  0
 18 19  2  0
 18 13  1  0
 21 22  1  0
 22 23  1  0
 23 25  1  0
 23 24  1  1
 25 26  1  6
 25 27  1  0
 26 18  1  0
 27 29  1  0
 28 27  2  0
M  END
$$$$
