REI.pdb
     RDKit          3D

 29 28  0  0  1  0  0  0  0  0999 V2000
    9.3444  -13.5969   17.3018 N   0  0  0  0  0  0  0  0  0  0  0  0
    8.5109  -13.9692   16.2247 C   0  0  0  0  0  0  0  0  0  0  0  0
    8.9095  -13.8786   14.9819 N   0  0  0  0  0  0  0  0  0  0  0  0
    7.1855  -14.4663   16.4163 N   0  0  0  0  0  0  0  0  0  0  0  0
    6.5292  -14.3202   17.7169 C   0  0  0  0  0  0  0  0  0  0  0  0
    6.8135  -15.5446   18.5554 C   0  0  0  0  0  0  0  0  0  0  0  0
    6.4700  -15.3251   19.9915 C   0  0  0  0  0  0  0  0  0  0  0  0
    7.4929  -14.5636   20.7820 C   0  0  2  0  0  0  0  0  0  0  0  0
    8.5831  -14.0423   20.0261 N   0  0  0  0  0  0  0  0  0  0  0  0
    7.9336  -15.2914   22.0065 C   0  0  0  0  0  0  0  0  0  0  0  0
    7.0719  -15.6558   22.8204 O   0  0  0  0  0  0  0  0  0  0  0  0
    8.3469  -14.1763   14.1795 N   0  0  0  0  0  0  0  0  0  0  0  0
    9.2876  -15.5821   22.2771 C   0  0  1  0  0  0  0  0  0  0  0  0
    9.7396  -16.2796   23.4583 C   0  0  0  0  0  0  0  0  0  0  0  0
   11.0777  -16.9478   23.2561 C   0  0  0  0  0  0  0  0  0  0  0  0
   10.9521  -18.0823   22.2299 C   0  0  0  0  0  0  0  0  0  0  0  0
   12.3256  -18.6356   22.0617 O   0  0  0  0  0  0  0  0  0  0  0  0
   12.6857  -19.7473   22.5090 C   0  0  0  0  0  0  0  0  0  0  0  0
    9.8430  -15.3922   24.6344 O   0  0  0  0  0  0  0  0  0  0  0  0
   10.6398  -14.4202   24.6967 O   0  0  0  0  0  0  0  0  0  0  0  0
   13.2334  -17.8507   21.3658 C   0  0  0  0  0  0  0  0  0  0  0  0
    6.1428  -12.4614   26.2156 C   0  0  0  0  0  0  0  0  0  0  0  0
    7.4889  -13.1419   25.9979 C   0  0  2  0  0  0  0  0  0  0  0  0
    7.8064  -14.0659   27.1195 C   0  0  0  0  0  0  0  0  0  0  0  0
    7.9606  -13.2392   28.4043 C   0  0  2  0  0  0  0  0  0  0  0  0
    9.0387  -14.8833   26.9791 N   0  0  0  0  0  0  0  0  0  0  0  0
    8.9999  -15.6502   25.7495 C   0  0  0  0  0  0  0  0  0  0  0  0
    9.4290  -15.6868   28.1344 O   0  0  0  0  0  0  0  0  0  0  0  0
    9.8472  -15.2679   29.2174 O   0  0  0  0  0  0  0  0  0  0  0  0
  1  2  1  0
  2  3  2  0
  4  2  1  0
  4  5  1  0
  6  5  1  0
  7  6  1  0
  8 10  1  0
  8  7  1  0
  8  9  1  6
 10 11  2  0
 12 13  1  0
 12 10  1  0
 13 14  1  6
 15 14  1  0
 16 20  1  0
 16 15  1  0
 17 16  2  0
 18 19  2  0
 18 13  1  0
 21 22  1  0
 22 23  1  0
 23 25  1  0
 23 24  1  1
 25 26  1  6
 25 27  1  0
 26 18  1  0
 27 29  1  0
 28 27  2  0
M  END
$$$$
