REI.pdb
     RDKit          3D

 29 28  0  0  1  0  0  0  0  0999 V2000
    7.4223  -16.2461   14.1425 N   0  0  0  0  0  0  0  0  0  0  0  0
    7.6868  -14.9919   14.7348 C   0  0  0  0  0  0  0  0  0  0  0  0
    8.6377  -14.2088   14.2943 N   0  0  0  0  0  0  0  0  0  0  0  0
    6.9401  -14.4958   15.8470 N   0  0  0  0  0  0  0  0  0  0  0  0
    7.3136  -13.2254   16.4718 C   0  0  0  0  0  0  0  0  0  0  0  0
    8.5358  -13.4382   17.3344 C   0  0  0  0  0  0  0  0  0  0  0  0
    8.1785  -13.5808   18.7767 C   0  0  0  0  0  0  0  0  0  0  0  0
    9.3442  -13.7170   19.7115 C   0  0  2  0  0  0  0  0  0  0  0  0
   10.5633  -14.1423   19.1076 N   0  0  0  0  0  0  0  0  0  0  0  0
    9.0086  -14.4882   20.9427 C   0  0  0  0  0  0  0  0  0  0  0  0
    8.0257  -14.1361   21.6117 O   0  0  0  0  0  0  0  0  0  0  0  0
    8.9568  -13.3681   14.7844 N   0  0  0  0  0  0  0  0  0  0  0  0
    9.7615  -15.5996   21.3772 C   0  0  1  0  0  0  0  0  0  0  0  0
    9.4831  -16.3353   22.5886 C   0  0  0  0  0  0  0  0  0  0  0  0
   10.3322  -17.5765   22.7169 C   0  0  0  0  0  0  0  0  0  0  0  0
    9.9837  -18.3236   24.0116 C   0  0  0  0  0  0  0  0  0  0  0  0
   10.8285  -19.5513   24.0154 O   0  0  0  0  0  0  0  0  0  0  0  0
   11.4288  -19.9839   23.0064 C   0  0  0  0  0  0  0  0  0  0  0  0
    9.6777  -15.5186   23.8037 O   0  0  0  0  0  0  0  0  0  0  0  0
   10.7476  -14.9073   24.0594 O   0  0  0  0  0  0  0  0  0  0  0  0
   10.9361  -20.2307   25.2201 C   0  0  0  0  0  0  0  0  0  0  0  0
    6.4858  -11.5738   26.8413 C   0  0  0  0  0  0  0  0  0  0  0  0
    7.5082  -12.6770   27.0865 C   0  0  2  0  0  0  0  0  0  0  0  0
    7.5283  -13.6454   25.9577 C   0  0  0  0  0  0  0  0  0  0  0  0
    6.2300  -14.4646   25.9942 C   0  0  2  0  0  0  0  0  0  0  0  0
    8.6529  -14.6156   25.9338 N   0  0  0  0  0  0  0  0  0  0  0  0
    8.6025  -15.4189   24.7282 C   0  0  0  0  0  0  0  0  0  0  0  0
    8.8553  -15.4161   27.1384 O   0  0  0  0  0  0  0  0  0  0  0  0
    8.6813  -16.6325   27.2541 O   0  0  0  0  0  0  0  0  0  0  0  0
  1  2  1  0
  2  3  2  0
  4  2  1  0
  4  5  1  0
  6  5  1  0
  7  6  1  0
  8 10  1  0
  8  7  1  0
  8  9  1  6
 10 11  2  0
 12 13  1  0
 12 10  1  0
 13 14  1  6
 15 14  1  0
 16 20  1  0
 16 15  1  0
 17 16  2  0
 18 19  2  0
 18 13  1  0
 21 22  1  0
 22 23  1  0
 23 25  1  0
 23 24  1  6
 25 26  1  1
 25 27  1  0
 26 18  1  0
 27 29  1  0
 28 27  2  0
M  END
$$$$
