DIK.pdb
     RDKit          3D

 26 25  0  0  1  0  0  0  0  0999 V2000
   28.3731  -21.6013  -16.3202 N   0  0  0  0  0  0  0  0  0  0  0  0
   27.8478  -20.5410  -15.5152 C   0  0  1  0  0  0  0  0  0  0  0  0
   27.0585  -19.5349  -16.3455 C   0  0  0  0  0  0  0  0  0  0  0  0
   27.9840  -18.9356  -17.3319 C   0  0  0  0  0  0  0  0  0  0  0  0
   29.0079  -18.2959  -16.9237 O   0  0  0  0  0  0  0  0  0  0  0  0
   26.8993  -21.0495  -14.4711 C   0  0  0  0  0  0  0  0  0  0  0  0
   26.1276  -21.9876  -14.8022 O   0  0  0  0  0  0  0  0  0  0  0  0
   27.7865  -19.0386  -18.7101 O   0  0  0  0  0  0  0  0  0  0  0  0
   28.6874  -21.0198   -9.4940 C   0  0  0  0  0  0  0  0  0  0  0  0
   27.9259  -21.5236  -10.7297 C   0  0  0  0  0  0  0  0  0  0  0  0
   26.5943  -20.8561  -10.8204 C   0  0  2  0  0  0  0  0  0  0  0  0
   25.7170  -21.4625   -9.7296 C   0  0  0  0  0  0  0  0  0  0  0  0
   25.9788  -21.0356  -12.1744 C   0  0  2  0  0  0  0  0  0  0  0  0
   26.8955  -20.4836  -13.1885 N   0  0  0  0  0  0  0  0  0  0  0  0
   24.6494  -20.4083  -12.3443 C   0  0  0  0  0  0  0  0  0  0  0  0
   24.5215  -19.1358  -12.2170 O   0  0  0  0  0  0  0  0  0  0  0  0
   23.4718  -21.1278  -12.6542 N   0  0  0  0  0  0  0  0  0  0  0  0
   22.2335  -20.3699  -12.8582 C   0  0  1  0  0  0  0  0  0  0  0  0
   21.7946  -20.5453  -14.3157 C   0  0  0  0  0  0  0  0  0  0  0  0
   20.5044  -19.8521  -14.5179 C   0  0  0  0  0  0  0  0  0  0  0  0
   19.9321  -20.0450  -15.9077 C   0  0  0  0  0  0  0  0  0  0  0  0
   18.6744  -19.2655  -16.1402 C   0  0  0  0  0  0  0  0  0  0  0  0
   18.2284  -19.2761  -17.4987 N   0  0  0  0  0  0  0  0  0  0  0  0
   21.2338  -20.8468  -11.8930 C   0  0  0  0  0  0  0  0  0  0  0  0
   20.2341  -19.9915  -11.4379 O   0  0  0  0  0  0  0  0  0  0  0  0
   21.2055  -22.0066  -11.4254 O   0  0  0  0  0  0  0  0  0  0  0  0
  2  1  1  6
  2  3  1  0
  3  4  1  0
  4  8  1  0
  5  4  2  0
  6  7  2  0
  6  2  1  0
  9 10  1  0
 10 11  1  0
 11 13  1  0
 11 12  1  1
 13 14  1  6
 14  6  1  0
 15 13  1  0
 16 15  2  0
 17 15  1  0
 18 17  1  0
 18 19  1  6
 20 19  1  0
 20 21  1  0
 22 21  1  0
 23 22  1  0
 24 25  1  0
 24 18  1  0
 26 24  2  0
M  END
$$$$
