DIK.pdb
     RDKit          3D

 26 25  0  0  1  0  0  0  0  0999 V2000
   20.7619  -13.5513  -17.3090 N   0  0  0  0  0  0  0  0  0  0  0  0
   21.5650  -12.5450  -17.9339 C   0  0  1  0  0  0  0  0  0  0  0  0
   20.7369  -11.6365  -18.8359 C   0  0  0  0  0  0  0  0  0  0  0  0
   20.1715  -12.4680  -19.9211 C   0  0  0  0  0  0  0  0  0  0  0  0
   20.8466  -12.6540  -20.9858 O   0  0  0  0  0  0  0  0  0  0  0  0
   22.2164  -11.6450  -16.9270 C   0  0  0  0  0  0  0  0  0  0  0  0
   21.5775  -11.4078  -15.8685 O   0  0  0  0  0  0  0  0  0  0  0  0
   18.9140  -13.0681  -19.8335 O   0  0  0  0  0  0  0  0  0  0  0  0
   27.1730  -12.1881  -15.3171 C   0  0  0  0  0  0  0  0  0  0  0  0
   25.6786  -11.8531  -15.4397 C   0  0  0  0  0  0  0  0  0  0  0  0
   25.5036  -10.4848  -16.0090 C   0  0  2  0  0  0  0  0  0  0  0  0
   26.1623   -9.5106  -15.0374 C   0  0  0  0  0  0  0  0  0  0  0  0
   24.0569  -10.1535  -16.2127 C   0  0  2  0  0  0  0  0  0  0  0  0
   23.4848  -11.1053  -17.1824 N   0  0  0  0  0  0  0  0  0  0  0  0
   23.7921   -8.7766  -16.6860 C   0  0  0  0  0  0  0  0  0  0  0  0
   24.5305   -8.2626  -17.6038 O   0  0  0  0  0  0  0  0  0  0  0  0
   22.7477   -7.9604  -16.1926 N   0  0  0  0  0  0  0  0  0  0  0  0
   22.6167   -6.6045  -16.7346 C   0  0  1  0  0  0  0  0  0  0  0  0
   21.8058   -6.6797  -18.0326 C   0  0  0  0  0  0  0  0  0  0  0  0
   21.6128   -5.3123  -18.5609 C   0  0  0  0  0  0  0  0  0  0  0  0
   20.7626   -5.2688  -19.8145 C   0  0  0  0  0  0  0  0  0  0  0  0
   21.4123   -5.9318  -20.9900 C   0  0  0  0  0  0  0  0  0  0  0  0
   20.5987   -5.9543  -22.1657 N   0  0  0  0  0  0  0  0  0  0  0  0
   21.9916   -5.7549  -15.7120 C   0  0  0  0  0  0  0  0  0  0  0  0
   21.9402   -4.3742  -15.8826 O   0  0  0  0  0  0  0  0  0  0  0  0
   21.4806   -6.1873  -14.6553 O   0  0  0  0  0  0  0  0  0  0  0  0
  2  1  1  1
  2  3  1  0
  3  4  1  0
  4  8  1  0
  5  4  2  0
  6  7  2  0
  6  2  1  0
  9 10  1  0
 10 11  1  0
 11 13  1  0
 11 12  1  1
 13 14  1  6
 14  6  1  0
 15 13  1  0
 16 15  2  0
 17 15  1  0
 18 17  1  0
 18 19  1  6
 20 19  1  0
 20 21  1  0
 22 21  1  0
 23 22  1  0
 24 25  1  0
 24 18  1  0
 26 24  2  0
M  END
$$$$
