DIK.pdb
     RDKit          3D

 26 25  0  0  1  0  0  0  0  0999 V2000
   23.5603  -14.7153  -19.4989 N   0  0  0  0  0  0  0  0  0  0  0  0
   23.6293  -13.2959  -19.6686 C   0  0  1  0  0  0  0  0  0  0  0  0
   22.4987  -12.7735  -20.5481 C   0  0  0  0  0  0  0  0  0  0  0  0
   22.7025  -13.3063  -21.9131 C   0  0  0  0  0  0  0  0  0  0  0  0
   21.6928  -13.6558  -22.6075 O   0  0  0  0  0  0  0  0  0  0  0  0
   23.5056  -12.5704  -18.3623 C   0  0  0  0  0  0  0  0  0  0  0  0
   22.6281  -12.9795  -17.5575 O   0  0  0  0  0  0  0  0  0  0  0  0
   23.9679  -13.4468  -22.4861 O   0  0  0  0  0  0  0  0  0  0  0  0
   27.7329  -11.6744  -15.4590 C   0  0  0  0  0  0  0  0  0  0  0  0
   26.2985  -11.9231  -15.9501 C   0  0  0  0  0  0  0  0  0  0  0  0
   25.6109  -10.6240  -16.2079 C   0  0  2  0  0  0  0  0  0  0  0  0
   25.5661   -9.8729  -14.8809 C   0  0  0  0  0  0  0  0  0  0  0  0
   24.2344  -10.8295  -16.7622 C   0  0  2  0  0  0  0  0  0  0  0  0
   24.3464  -11.4853  -18.0778 N   0  0  0  0  0  0  0  0  0  0  0  0
   23.4314   -9.5957  -16.9134 C   0  0  0  0  0  0  0  0  0  0  0  0
   23.8748   -8.6282  -17.6340 O   0  0  0  0  0  0  0  0  0  0  0  0
   22.1673   -9.3987  -16.3104 N   0  0  0  0  0  0  0  0  0  0  0  0
   21.4917   -8.1158  -16.5271 C   0  0  1  0  0  0  0  0  0  0  0  0
   19.9868   -8.3772  -16.6489 C   0  0  0  0  0  0  0  0  0  0  0  0
   19.2712   -7.0833  -16.6554 C   0  0  0  0  0  0  0  0  0  0  0  0
   17.7650   -7.2314  -16.5816 C   0  0  0  0  0  0  0  0  0  0  0  0
   17.0465   -5.9186  -16.5178 C   0  0  0  0  0  0  0  0  0  0  0  0
   15.6514   -6.0347  -16.2269 N   0  0  0  0  0  0  0  0  0  0  0  0
   21.8334   -7.2183  -15.4153 C   0  0  0  0  0  0  0  0  0  0  0  0
   22.0224   -5.8581  -15.6443 O   0  0  0  0  0  0  0  0  0  0  0  0
   21.9757   -7.5905  -14.2296 O   0  0  0  0  0  0  0  0  0  0  0  0
  2  1  1  1
  2  3  1  0
  3  4  1  0
  4  8  1  0
  5  4  2  0
  6  7  2  0
  6  2  1  0
  9 10  1  0
 10 11  1  0
 11 13  1  0
 11 12  1  1
 13 14  1  6
 14  6  1  0
 15 13  1  0
 16 15  2  0
 17 15  1  0
 18 17  1  0
 18 19  1  1
 20 19  1  0
 20 21  1  0
 22 21  1  0
 23 22  1  0
 24 25  1  0
 24 18  1  0
 26 24  2  0
M  END
$$$$
