DIK.pdb
     RDKit          3D

 26 25  0  0  1  0  0  0  0  0999 V2000
   19.8063  -21.9440   -6.8632 N   0  0  0  0  0  0  0  0  0  0  0  0
   20.3947  -22.5827   -8.0008 C   0  0  1  0  0  0  0  0  0  0  0  0
   19.3451  -23.2460   -8.8858 C   0  0  0  0  0  0  0  0  0  0  0  0
   18.7556  -24.3700   -8.1257 C   0  0  0  0  0  0  0  0  0  0  0  0
   19.1384  -24.5881   -6.9299 O   0  0  0  0  0  0  0  0  0  0  0  0
   21.1174  -21.6053   -8.8786 C   0  0  0  0  0  0  0  0  0  0  0  0
   20.6156  -20.4566   -8.9960 O   0  0  0  0  0  0  0  0  0  0  0  0
   17.7848  -25.2167   -8.6640 O   0  0  0  0  0  0  0  0  0  0  0  0
   26.1951  -20.7470   -8.1912 C   0  0  0  0  0  0  0  0  0  0  0  0
   24.6972  -20.6833   -8.5269 C   0  0  0  0  0  0  0  0  0  0  0  0
   24.4769  -21.0289   -9.9618 C   0  0  2  0  0  0  0  0  0  0  0  0
   25.2892  -20.0372  -10.7886 C   0  0  0  0  0  0  0  0  0  0  0  0
   23.0243  -20.9766  -10.3246 C   0  0  2  0  0  0  0  0  0  0  0  0
   22.3004  -21.9843   -9.5283 N   0  0  0  0  0  0  0  0  0  0  0  0
   22.7298  -21.2022  -11.7571 C   0  0  0  0  0  0  0  0  0  0  0  0
   22.8429  -22.3815  -12.2554 O   0  0  0  0  0  0  0  0  0  0  0  0
   22.3120  -20.1845  -12.6460 N   0  0  0  0  0  0  0  0  0  0  0  0
   21.8612  -20.5792  -13.9841 C   0  0  1  0  0  0  0  0  0  0  0  0
   20.5806  -21.4076  -13.8373 C   0  0  0  0  0  0  0  0  0  0  0  0
   20.0894  -21.7791  -15.1815 C   0  0  0  0  0  0  0  0  0  0  0  0
   18.8244  -22.6127  -15.1479 C   0  0  0  0  0  0  0  0  0  0  0  0
   18.3700  -23.0485  -16.5070 C   0  0  0  0  0  0  0  0  0  0  0  0
   17.1735  -23.8313  -16.4949 N   0  0  0  0  0  0  0  0  0  0  0  0
   21.6733  -19.3634  -14.7872 C   0  0  0  0  0  0  0  0  0  0  0  0
   22.0258  -19.3508  -16.1340 O   0  0  0  0  0  0  0  0  0  0  0  0
   21.2037  -18.2928  -14.3425 O   0  0  0  0  0  0  0  0  0  0  0  0
  2  1  1  1
  2  3  1  0
  3  4  1  0
  4  8  1  0
  5  4  2  0
  6  7  2  0
  6  2  1  0
  9 10  1  0
 10 11  1  0
 11 13  1  0
 11 12  1  6
 13 14  1  1
 14  6  1  0
 15 13  1  0
 16 15  2  0
 17 15  1  0
 18 17  1  0
 18 19  1  1
 20 19  1  0
 20 21  1  0
 22 21  1  0
 23 22  1  0
 24 25  1  0
 24 18  1  0
 26 24  2  0
M  END
$$$$
