DIK.pdb
     RDKit          3D

 26 25  0  0  1  0  0  0  0  0999 V2000
   22.6567  -13.1764  -20.1636 N   0  0  0  0  0  0  0  0  0  0  0  0
   22.9793  -11.7867  -20.0508 C   0  0  1  0  0  0  0  0  0  0  0  0
   21.9919  -10.9106  -20.8136 C   0  0  0  0  0  0  0  0  0  0  0  0
   22.1692  -11.1787  -22.2577 C   0  0  0  0  0  0  0  0  0  0  0  0
   21.1504  -11.4408  -22.9770 O   0  0  0  0  0  0  0  0  0  0  0  0
   22.9350  -11.3165  -18.6276 C   0  0  0  0  0  0  0  0  0  0  0  0
   22.0783  -11.8468  -17.8727 O   0  0  0  0  0  0  0  0  0  0  0  0
   23.4187  -11.1580  -22.8802 O   0  0  0  0  0  0  0  0  0  0  0  0
   27.2754  -11.3776  -15.8849 C   0  0  0  0  0  0  0  0  0  0  0  0
   25.8051  -11.3860  -16.3307 C   0  0  0  0  0  0  0  0  0  0  0  0
   25.2361  -10.0087  -16.2517 C   0  0  2  0  0  0  0  0  0  0  0  0
   25.3136   -9.5781  -14.7903 C   0  0  0  0  0  0  0  0  0  0  0  0
   23.8263   -9.9650  -16.7566 C   0  0  2  0  0  0  0  0  0  0  0  0
   23.8235  -10.3262  -18.1859 N   0  0  0  0  0  0  0  0  0  0  0  0
   23.1452   -8.6613  -16.5948 C   0  0  0  0  0  0  0  0  0  0  0  0
   23.5936   -7.6248  -17.2083 O   0  0  0  0  0  0  0  0  0  0  0  0
   21.9950   -8.4664  -15.7951 N   0  0  0  0  0  0  0  0  0  0  0  0
   21.3949   -7.1291  -15.7635 C   0  0  1  0  0  0  0  0  0  0  0  0
   19.8724   -7.2811  -15.8467 C   0  0  0  0  0  0  0  0  0  0  0  0
   19.2485   -5.9434  -15.7604 C   0  0  0  0  0  0  0  0  0  0  0  0
   17.7341   -5.9857  -15.7896 C   0  0  0  0  0  0  0  0  0  0  0  0
   17.1059   -4.6267  -15.7455 C   0  0  0  0  0  0  0  0  0  0  0  0
   15.6799   -4.6434  -15.8483 N   0  0  0  0  0  0  0  0  0  0  0  0
   21.8411   -6.4497  -14.5397 C   0  0  0  0  0  0  0  0  0  0  0  0
   22.0576   -7.1771  -13.3726 O   0  0  0  0  0  0  0  0  0  0  0  0
   22.0508   -5.2194  -14.4553 O   0  0  0  0  0  0  0  0  0  0  0  0
  2  1  1  1
  2  3  1  0
  3  4  1  0
  4  8  1  0
  5  4  2  0
  6  7  2  0
  6  2  1  0
  9 10  1  0
 10 11  1  0
 11 13  1  0
 11 12  1  1
 13 14  1  6
 14  6  1  0
 15 13  1  0
 16 15  2  0
 17 15  1  0
 18 17  1  0
 18 19  1  1
 20 19  1  0
 20 21  1  0
 22 21  1  0
 23 22  1  0
 24 25  1  0
 24 18  1  0
 26 24  2  0
M  END
$$$$
