DIK.pdb
     RDKit          3D

 26 25  0  0  1  0  0  0  0  0999 V2000
   27.8124  -21.3911  -16.0617 N   0  0  0  0  0  0  0  0  0  0  0  0
   26.8446  -20.4434  -15.5994 C   0  0  1  0  0  0  0  0  0  0  0  0
   25.9207  -19.9820  -16.7211 C   0  0  0  0  0  0  0  0  0  0  0  0
   26.7461  -19.2819  -17.7297 C   0  0  0  0  0  0  0  0  0  0  0  0
   27.7581  -18.6054  -17.3524 O   0  0  0  0  0  0  0  0  0  0  0  0
   25.9536  -21.0249  -14.5430 C   0  0  0  0  0  0  0  0  0  0  0  0
   25.6874  -22.2525  -14.6262 O   0  0  0  0  0  0  0  0  0  0  0  0
   26.4653  -19.3273  -19.0965 O   0  0  0  0  0  0  0  0  0  0  0  0
   26.3951  -22.0211  -10.4831 C   0  0  0  0  0  0  0  0  0  0  0  0
   26.2463  -20.5118  -10.7286 C   0  0  0  0  0  0  0  0  0  0  0  0
   24.8577  -20.1983  -11.1764 C   0  0  2  0  0  0  0  0  0  0  0  0
   23.9132  -20.7276  -10.1018 C   0  0  0  0  0  0  0  0  0  0  0  0
   24.5581  -20.8088  -12.5112 C   0  0  2  0  0  0  0  0  0  0  0  0
   25.4533  -20.2099  -13.5179 N   0  0  0  0  0  0  0  0  0  0  0  0
   23.1591  -20.6551  -12.9684 C   0  0  0  0  0  0  0  0  0  0  0  0
   22.6477  -19.4812  -13.0796 O   0  0  0  0  0  0  0  0  0  0  0  0
   22.3177  -21.7392  -13.3107 N   0  0  0  0  0  0  0  0  0  0  0  0
   20.9572  -21.4396  -13.7673 C   0  0  1  0  0  0  0  0  0  0  0  0
   20.5094  -22.5564  -14.7160 C   0  0  0  0  0  0  0  0  0  0  0  0
   19.1540  -22.2474  -15.2194 C   0  0  0  0  0  0  0  0  0  0  0  0
   18.5349  -23.3829  -16.0090 C   0  0  0  0  0  0  0  0  0  0  0  0
   17.2096  -23.0283  -16.6102 C   0  0  0  0  0  0  0  0  0  0  0  0
   16.6468  -24.0611  -17.4233 N   0  0  0  0  0  0  0  0  0  0  0  0
   20.0920  -21.3026  -12.5879 C   0  0  0  0  0  0  0  0  0  0  0  0
   19.0418  -20.3887  -12.5905 O   0  0  0  0  0  0  0  0  0  0  0  0
   20.2266  -21.9666  -11.5364 O   0  0  0  0  0  0  0  0  0  0  0  0
  2  1  1  6
  2  3  1  0
  3  4  1  0
  4  8  1  0
  5  4  2  0
  6  7  2  0
  6  2  1  0
  9 10  1  0
 10 11  1  0
 11 13  1  0
 11 12  1  1
 13 14  1  6
 14  6  1  0
 15 13  1  0
 16 15  2  0
 17 15  1  0
 18 17  1  0
 18 19  1  6
 20 19  1  0
 20 21  1  0
 22 21  1  0
 23 22  1  0
 24 25  1  0
 24 18  1  0
 26 24  2  0
M  END
$$$$
