DIK.pdb
     RDKit          3D

 26 25  0  0  1  0  0  0  0  0999 V2000
   24.6479  -12.8287  -21.2495 N   0  0  0  0  0  0  0  0  0  0  0  0
   24.6896  -11.4538  -20.8545 C   0  0  1  0  0  0  0  0  0  0  0  0
   23.7360  -10.5967  -21.6795 C   0  0  0  0  0  0  0  0  0  0  0  0
   24.2297  -10.5826  -23.0740 C   0  0  0  0  0  0  0  0  0  0  0  0
   23.3979  -10.6740  -24.0352 O   0  0  0  0  0  0  0  0  0  0  0  0
   24.2778  -11.2704  -19.4244 C   0  0  0  0  0  0  0  0  0  0  0  0
   23.4464  -12.0911  -18.9552 O   0  0  0  0  0  0  0  0  0  0  0  0
   25.5845  -10.4723  -23.3928 O   0  0  0  0  0  0  0  0  0  0  0  0
   27.5984  -11.2318  -15.5505 C   0  0  0  0  0  0  0  0  0  0  0  0
   26.3171  -11.3327  -16.3924 C   0  0  0  0  0  0  0  0  0  0  0  0
   25.5958  -10.0263  -16.3893 C   0  0  2  0  0  0  0  0  0  0  0  0
   25.2223   -9.7273  -14.9409 C   0  0  0  0  0  0  0  0  0  0  0  0
   24.3818  -10.0650  -17.2662 C   0  0  2  0  0  0  0  0  0  0  0  0
   24.8139  -10.2195  -18.6672 N   0  0  0  0  0  0  0  0  0  0  0  0
   23.5027   -8.8787  -17.1684 C   0  0  0  0  0  0  0  0  0  0  0  0
   23.9638   -7.7150  -17.4601 O   0  0  0  0  0  0  0  0  0  0  0  0
   22.1461   -8.9330  -16.7722 N   0  0  0  0  0  0  0  0  0  0  0  0
   21.4096   -7.6705  -16.6567 C   0  0  1  0  0  0  0  0  0  0  0  0
   19.9128   -7.9710  -16.7873 C   0  0  0  0  0  0  0  0  0  0  0  0
   19.1624   -6.6971  -16.7796 C   0  0  0  0  0  0  0  0  0  0  0  0
   17.6610   -6.8867  -16.7020 C   0  0  0  0  0  0  0  0  0  0  0  0
   16.8977   -5.6051  -16.8376 C   0  0  0  0  0  0  0  0  0  0  0  0
   15.4899   -5.7439  -16.6297 N   0  0  0  0  0  0  0  0  0  0  0  0
   21.7629   -7.0434  -15.3760 C   0  0  0  0  0  0  0  0  0  0  0  0
   21.9736   -5.6692  -15.3023 O   0  0  0  0  0  0  0  0  0  0  0  0
   21.8965   -7.6681  -14.3006 O   0  0  0  0  0  0  0  0  0  0  0  0
  2  1  1  6
  2  3  1  0
  3  4  1  0
  4  8  1  0
  5  4  2  0
  6  7  2  0
  6  2  1  0
  9 10  1  0
 10 11  1  0
 11 13  1  0
 11 12  1  1
 13 14  1  6
 14  6  1  0
 15 13  1  0
 16 15  2  0
 17 15  1  0
 18 17  1  0
 18 19  1  1
 20 19  1  0
 20 21  1  0
 22 21  1  0
 23 22  1  0
 24 25  1  0
 24 18  1  0
 26 24  2  0
M  END
$$$$
