DIK.pdb
     RDKit          3D

 26 25  0  0  1  0  0  0  0  0999 V2000
   20.9693  -12.4803  -17.8818 N   0  0  0  0  0  0  0  0  0  0  0  0
   20.1660  -11.8164  -16.9008 C   0  0  1  0  0  0  0  0  0  0  0  0
   19.4976  -12.8042  -15.9510 C   0  0  0  0  0  0  0  0  0  0  0  0
   18.5862  -13.6543  -16.7481 C   0  0  0  0  0  0  0  0  0  0  0  0
   17.8304  -13.1166  -17.6219 O   0  0  0  0  0  0  0  0  0  0  0  0
   20.9812  -10.9005  -16.0379 C   0  0  0  0  0  0  0  0  0  0  0  0
   20.4935  -10.5732  -14.9243 O   0  0  0  0  0  0  0  0  0  0  0  0
   18.5131  -15.0391  -16.5865 O   0  0  0  0  0  0  0  0  0  0  0  0
   26.2073  -11.6363  -15.5021 C   0  0  0  0  0  0  0  0  0  0  0  0
   24.7248  -11.2914  -15.2923 C   0  0  0  0  0  0  0  0  0  0  0  0
   24.4574   -9.8884  -15.7247 C   0  0  2  0  0  0  0  0  0  0  0  0
   25.3142   -8.9810  -14.8475 C   0  0  0  0  0  0  0  0  0  0  0  0
   23.0044   -9.5429  -15.6071 C   0  0  2  0  0  0  0  0  0  0  0  0
   22.2308  -10.4443  -16.4802 N   0  0  0  0  0  0  0  0  0  0  0  0
   22.6655   -8.1437  -15.9493 C   0  0  0  0  0  0  0  0  0  0  0  0
   22.8772   -7.7070  -17.1394 O   0  0  0  0  0  0  0  0  0  0  0  0
   22.1001   -7.2233  -15.0362 N   0  0  0  0  0  0  0  0  0  0  0  0
   21.8719   -5.8492  -15.4935 C   0  0  1  0  0  0  0  0  0  0  0  0
   20.3642   -5.6448  -15.6747 C   0  0  0  0  0  0  0  0  0  0  0  0
   20.1093   -4.2366  -16.0461 C   0  0  0  0  0  0  0  0  0  0  0  0
   18.6368   -3.9161  -16.2054 C   0  0  0  0  0  0  0  0  0  0  0  0
   18.3858   -2.5127  -16.6648 C   0  0  0  0  0  0  0  0  0  0  0  0
   17.0002   -2.1835  -16.7924 N   0  0  0  0  0  0  0  0  0  0  0  0
   22.4653   -4.9299  -14.5132 C   0  0  0  0  0  0  0  0  0  0  0  0
   22.7629   -5.3722  -13.2272 O   0  0  0  0  0  0  0  0  0  0  0  0
   22.7362   -3.7314  -14.7476 O   0  0  0  0  0  0  0  0  0  0  0  0
  2  1  1  6
  2  3  1  0
  3  4  1  0
  4  8  1  0
  5  4  2  0
  6  7  2  0
  6  2  1  0
  9 10  1  0
 10 11  1  0
 11 13  1  0
 11 12  1  1
 13 14  1  6
 14  6  1  0
 15 13  1  0
 16 15  2  0
 17 15  1  0
 18 17  1  0
 18 19  1  1
 20 19  1  0
 20 21  1  0
 22 21  1  0
 23 22  1  0
 24 25  1  0
 24 18  1  0
 26 24  2  0
M  END
$$$$
