DIK.pdb
     RDKit          3D

 26 25  0  0  1  0  0  0  0  0999 V2000
   18.1184  -13.1108  -15.9251 N   0  0  0  0  0  0  0  0  0  0  0  0
   18.3169  -11.8287  -16.5290 C   0  0  1  0  0  0  0  0  0  0  0  0
   17.0255  -11.2722  -17.1182 C   0  0  0  0  0  0  0  0  0  0  0  0
   16.6618  -12.1074  -18.2839 C   0  0  0  0  0  0  0  0  0  0  0  0
   17.5656  -12.7782  -18.8816 O   0  0  0  0  0  0  0  0  0  0  0  0
   18.7903  -10.8103  -15.5355 C   0  0  0  0  0  0  0  0  0  0  0  0
   18.3147  -10.8770  -14.3718 O   0  0  0  0  0  0  0  0  0  0  0  0
   15.3555  -12.1974  -18.7683 O   0  0  0  0  0  0  0  0  0  0  0  0
   23.6174  -10.1682  -14.0363 C   0  0  0  0  0  0  0  0  0  0  0  0
   22.0901  -10.1728  -14.2039 C   0  0  0  0  0  0  0  0  0  0  0  0
   21.6331   -8.8778  -14.7878 C   0  0  2  0  0  0  0  0  0  0  0  0
   22.1400   -7.7712  -13.8683 C   0  0  0  0  0  0  0  0  0  0  0  0
   20.1420   -8.8302  -14.9239 C   0  0  2  0  0  0  0  0  0  0  0  0
   19.7244   -9.8369  -15.9166 N   0  0  0  0  0  0  0  0  0  0  0  0
   19.5928   -7.5148  -15.3214 C   0  0  0  0  0  0  0  0  0  0  0  0
   19.9225   -6.9990  -16.4515 O   0  0  0  0  0  0  0  0  0  0  0  0
   18.6966   -6.7619  -14.5275 N   0  0  0  0  0  0  0  0  0  0  0  0
   18.2608   -5.4550  -15.0291 C   0  0  1  0  0  0  0  0  0  0  0  0
   16.8724   -5.1557  -14.4542 C   0  0  0  0  0  0  0  0  0  0  0  0
   16.5128   -3.7558  -14.7657 C   0  0  0  0  0  0  0  0  0  0  0  0
   15.1754   -3.3382  -14.1885 C   0  0  0  0  0  0  0  0  0  0  0  0
   14.7238   -1.9912  -14.6629 C   0  0  0  0  0  0  0  0  0  0  0  0
   13.4889   -1.5576  -14.0872 N   0  0  0  0  0  0  0  0  0  0  0  0
   19.2691   -4.4547  -14.6535 C   0  0  0  0  0  0  0  0  0  0  0  0
   20.0419   -4.6329  -13.5093 O   0  0  0  0  0  0  0  0  0  0  0  0
   19.5003   -3.4113  -15.3035 O   0  0  0  0  0  0  0  0  0  0  0  0
  2  1  1  1
  2  3  1  0
  3  4  1  0
  4  8  1  0
  5  4  2  0
  6  7  2  0
  6  2  1  0
  9 10  1  0
 10 11  1  0
 11 13  1  0
 11 12  1  1
 13 14  1  6
 14  6  1  0
 15 13  1  0
 16 15  2  0
 17 15  1  0
 18 17  1  0
 18 19  1  1
 20 19  1  0
 20 21  1  0
 22 21  1  0
 23 22  1  0
 24 25  1  0
 24 18  1  0
 26 24  2  0
M  END
$$$$
