GED.pdb
     RDKit          3D

 22 21  0  0  1  0  0  0  0  0999 V2000
    1.7899  -20.5052   21.6258 N   0  0  0  0  0  0  0  0  0  0  0  0
    3.1991  -20.3536   21.3478 C   0  0  0  0  0  0  0  0  0  0  0  0
    4.0366  -20.8602   22.5074 C   0  0  0  0  0  0  0  0  0  0  0  0
    3.4555  -21.1738   23.5667 O   0  0  0  0  0  0  0  0  0  0  0  0
    5.4273  -20.9617   22.3716 N   0  0  0  0  0  0  0  0  0  0  0  0
    6.3883  -21.3101   23.3535 C   0  0  1  0  0  0  0  0  0  0  0  0
    7.3768  -22.4047   22.9400 C   0  0  0  0  0  0  0  0  0  0  0  0
    8.0865  -22.8626   24.1620 C   0  0  0  0  0  0  0  0  0  0  0  0
    9.1030  -23.9020   23.9007 C   0  0  0  0  0  0  0  0  0  0  0  0
    8.9437  -24.8833   23.1746 O   0  0  0  0  0  0  0  0  0  0  0  0
    7.0221  -20.1957   24.0706 C   0  0  0  0  0  0  0  0  0  0  0  0
    6.9543  -19.0577   23.5669 O   0  0  0  0  0  0  0  0  0  0  0  0
   10.3416  -23.7330   24.5484 O   0  0  0  0  0  0  0  0  0  0  0  0
    7.7009  -20.3525   25.2988 N   0  0  0  0  0  0  0  0  0  0  0  0
    8.1635  -19.2733   26.1481 C   0  0  1  0  0  0  0  0  0  0  0  0
    7.0136  -18.3070   26.3320 C   0  0  0  0  0  0  0  0  0  0  0  0
    7.4082  -16.9008   26.1420 C   0  0  0  0  0  0  0  0  0  0  0  0
    8.6150  -16.6495   25.8757 O   0  0  0  0  0  0  0  0  0  0  0  0
    8.5447  -19.8601   27.4718 C   0  0  0  0  0  0  0  0  0  0  0  0
    8.9237  -19.1430   28.4001 O   0  0  0  0  0  0  0  0  0  0  0  0
    6.5110  -15.8735   26.2461 O   0  0  0  0  0  0  0  0  0  0  0  0
    8.4549  -21.2613   27.6221 O   0  0  0  0  0  0  0  0  0  0  0  0
  1  2  1  0
  2  3  1  0
  3  4  2  0
  5  6  1  0
  5  3  1  0
  6 11  1  0
  6  7  1  6
  8  7  1  0
  9  8  1  0
  9 10  2  0
 11 14  1  0
 11 12  2  0
 13  9  1  0
 14 15  1  0
 15 19  1  0
 15 16  1  1
 16 17  1  0
 17 21  1  0
 17 18  2  0
 19 22  1  0
 20 19  2  0
M  END
$$$$
