GED.pdb
     RDKit          3D

 22 21  0  0  1  0  0  0  0  0999 V2000
   12.0787  -15.8090   13.3106 N   0  0  0  0  0  0  0  0  0  0  0  0
   12.0397  -16.8645   14.2958 C   0  0  0  0  0  0  0  0  0  0  0  0
   12.1888  -16.3018   15.6973 C   0  0  0  0  0  0  0  0  0  0  0  0
   12.9626  -15.3379   15.8705 O   0  0  0  0  0  0  0  0  0  0  0  0
   11.4686  -16.8687   16.7569 N   0  0  0  0  0  0  0  0  0  0  0  0
   11.4799  -16.5064   18.1271 C   0  0  1  0  0  0  0  0  0  0  0  0
   10.3210  -17.0637   18.9593 C   0  0  0  0  0  0  0  0  0  0  0  0
    9.1488  -17.2198   18.0605 C   0  0  0  0  0  0  0  0  0  0  0  0
    7.9777  -17.8352   18.7177 C   0  0  0  0  0  0  0  0  0  0  0  0
    6.9049  -18.0839   18.1674 O   0  0  0  0  0  0  0  0  0  0  0  0
   12.7770  -16.5845   18.8121 C   0  0  0  0  0  0  0  0  0  0  0  0
   13.3715  -17.6799   18.8230 O   0  0  0  0  0  0  0  0  0  0  0  0
    8.1276  -18.1490   20.0820 O   0  0  0  0  0  0  0  0  0  0  0  0
   13.3798  -15.4814   19.4552 N   0  0  0  0  0  0  0  0  0  0  0  0
   14.6904  -15.4812   20.0735 C   0  0  1  0  0  0  0  0  0  0  0  0
   15.2876  -14.1035   19.8862 C   0  0  0  0  0  0  0  0  0  0  0  0
   15.6757  -13.8298   18.4920 C   0  0  0  0  0  0  0  0  0  0  0  0
   15.9288  -14.8091   17.7388 O   0  0  0  0  0  0  0  0  0  0  0  0
   14.5105  -15.7576   21.5340 C   0  0  0  0  0  0  0  0  0  0  0  0
   13.3888  -15.7737   22.0451 O   0  0  0  0  0  0  0  0  0  0  0  0
   15.7680  -12.5569   17.9996 O   0  0  0  0  0  0  0  0  0  0  0  0
   15.6676  -16.0003   22.3063 O   0  0  0  0  0  0  0  0  0  0  0  0
  1  2  1  0
  2  3  1  0
  3  4  2  0
  5  6  1  0
  5  3  1  0
  6 11  1  0
  6  7  1  1
  8  7  1  0
  9  8  1  0
  9 10  2  0
 11 14  1  0
 11 12  2  0
 13  9  1  0
 14 15  1  0
 15 19  1  0
 15 16  1  1
 16 17  1  0
 17 21  1  0
 17 18  2  0
 19 22  1  0
 20 19  2  0
M  END
$$$$
