GED.pdb
     RDKit          3D

 22 21  0  0  1  0  0  0  0  0999 V2000
  -12.3802  -18.8721   36.5956 N   0  0  0  0  0  0  0  0  0  0  0  0
  -13.6308  -18.9366   35.8759 C   0  0  0  0  0  0  0  0  0  0  0  0
  -13.8853  -20.3404   35.3588 C   0  0  0  0  0  0  0  0  0  0  0  0
  -14.3937  -21.1756   36.1346 O   0  0  0  0  0  0  0  0  0  0  0  0
  -13.5462  -20.6702   34.0400 N   0  0  0  0  0  0  0  0  0  0  0  0
  -13.7875  -21.8796   33.3413 C   0  0  1  0  0  0  0  0  0  0  0  0
  -14.7135  -21.7586   32.1272 C   0  0  0  0  0  0  0  0  0  0  0  0
  -15.0270  -23.1316   31.6550 C   0  0  0  0  0  0  0  0  0  0  0  0
  -15.9263  -23.1630   30.4837 C   0  0  0  0  0  0  0  0  0  0  0  0
  -15.8547  -23.9688   29.5558 O   0  0  0  0  0  0  0  0  0  0  0  0
  -12.6195  -22.7367   33.0980 C   0  0  0  0  0  0  0  0  0  0  0  0
  -11.6121  -22.2232   32.5739 O   0  0  0  0  0  0  0  0  0  0  0  0
  -16.9340  -22.1803   30.4506 O   0  0  0  0  0  0  0  0  0  0  0  0
  -12.5847  -24.1089   33.4293 N   0  0  0  0  0  0  0  0  0  0  0  0
  -11.4480  -24.9893   33.2482 C   0  0  1  0  0  0  0  0  0  0  0  0
  -11.7039  -26.2435   34.0552 C   0  0  0  0  0  0  0  0  0  0  0  0
  -10.5799  -27.1943   34.0122 C   0  0  0  0  0  0  0  0  0  0  0  0
   -9.4175  -26.7379   33.8363 O   0  0  0  0  0  0  0  0  0  0  0  0
  -11.3606  -25.3353   31.7941 C   0  0  0  0  0  0  0  0  0  0  0  0
  -12.3609  -25.6781   31.1604 O   0  0  0  0  0  0  0  0  0  0  0  0
  -10.7621  -28.5424   34.1557 O   0  0  0  0  0  0  0  0  0  0  0  0
  -10.0952  -25.2550   31.1723 O   0  0  0  0  0  0  0  0  0  0  0  0
  1  2  1  0
  2  3  1  0
  3  4  2  0
  5  6  1  0
  5  3  1  0
  6 11  1  0
  6  7  1  6
  8  7  1  0
  9  8  1  0
  9 10  2  0
 11 14  1  0
 11 12  2  0
 13  9  1  0
 14 15  1  0
 15 19  1  0
 15 16  1  1
 16 17  1  0
 17 21  1  0
 17 18  2  0
 19 22  1  0
 20 19  2  0
M  END
$$$$
