GED.pdb
     RDKit          3D

 22 21  0  0  1  0  0  0  0  0999 V2000
   13.5697  -18.6780   15.3920 N   0  0  0  0  0  0  0  0  0  0  0  0
   13.0448  -19.5750   16.3950 C   0  0  0  0  0  0  0  0  0  0  0  0
   12.5509  -18.8038   17.6050 C   0  0  0  0  0  0  0  0  0  0  0  0
   12.9308  -17.6240   17.7524 O   0  0  0  0  0  0  0  0  0  0  0  0
   11.6927  -19.4221   18.5237 N   0  0  0  0  0  0  0  0  0  0  0  0
   11.2018  -18.9165   19.7535 C   0  0  1  0  0  0  0  0  0  0  0  0
    9.8124  -19.4189   20.1579 C   0  0  0  0  0  0  0  0  0  0  0  0
    8.8511  -18.3030   19.9662 C   0  0  0  0  0  0  0  0  0  0  0  0
    7.4483  -18.6779   20.2380 C   0  0  0  0  0  0  0  0  0  0  0  0
    7.0785  -19.7625   20.6877 O   0  0  0  0  0  0  0  0  0  0  0  0
   12.1545  -18.8804   20.8710 C   0  0  0  0  0  0  0  0  0  0  0  0
   12.5837  -19.9637   21.3133 O   0  0  0  0  0  0  0  0  0  0  0  0
    6.4788  -17.6991   19.9477 O   0  0  0  0  0  0  0  0  0  0  0  0
   12.6054  -17.6811   21.4646 N   0  0  0  0  0  0  0  0  0  0  0  0
   13.5330  -17.5886   22.5741 C   0  0  1  0  0  0  0  0  0  0  0  0
   14.4143  -16.3813   22.3380 C   0  0  0  0  0  0  0  0  0  0  0  0
   15.4269  -16.1939   23.3910 C   0  0  0  0  0  0  0  0  0  0  0  0
   15.4499  -17.0121   24.3505 O   0  0  0  0  0  0  0  0  0  0  0  0
   12.7353  -17.3926   23.8259 C   0  0  0  0  0  0  0  0  0  0  0  0
   11.6298  -16.8480   23.7972 O   0  0  0  0  0  0  0  0  0  0  0  0
   16.3311  -15.1681   23.3559 O   0  0  0  0  0  0  0  0  0  0  0  0
   13.2905  -17.8529   25.0401 O   0  0  0  0  0  0  0  0  0  0  0  0
  1  2  1  0
  2  3  1  0
  3  4  2  0
  5  6  1  0
  5  3  1  0
  6 11  1  0
  6  7  1  1
  8  7  1  0
  9  8  1  0
  9 10  2  0
 11 14  1  0
 11 12  2  0
 13  9  1  0
 14 15  1  0
 15 19  1  0
 15 16  1  6
 16 17  1  0
 17 21  1  0
 17 18  2  0
 19 22  1  0
 20 19  2  0
M  END
$$$$
