GED.pdb
     RDKit          3D

 22 21  0  0  1  0  0  0  0  0999 V2000
    8.1457  -15.3058   18.8562 N   0  0  0  0  0  0  0  0  0  0  0  0
    7.3675  -15.6266   20.0299 C   0  0  0  0  0  0  0  0  0  0  0  0
    8.1023  -15.2193   21.2937 C   0  0  0  0  0  0  0  0  0  0  0  0
    9.3454  -15.3293   21.3191 O   0  0  0  0  0  0  0  0  0  0  0  0
    7.3822  -14.7377   22.3948 N   0  0  0  0  0  0  0  0  0  0  0  0
    7.8329  -14.5265   23.7219 C   0  0  1  0  0  0  0  0  0  0  0  0
    6.8966  -13.6960   24.6050 C   0  0  0  0  0  0  0  0  0  0  0  0
    7.5851  -13.4560   25.8991 C   0  0  0  0  0  0  0  0  0  0  0  0
    6.7937  -12.6473   26.8486 C   0  0  0  0  0  0  0  0  0  0  0  0
    5.6030  -12.3634   26.7179 O   0  0  0  0  0  0  0  0  0  0  0  0
    8.3995  -15.6929   24.4121 C   0  0  0  0  0  0  0  0  0  0  0  0
    7.6898  -16.7111   24.5259 O   0  0  0  0  0  0  0  0  0  0  0  0
    7.4818  -12.1746   27.9823 O   0  0  0  0  0  0  0  0  0  0  0  0
    9.7051  -15.7149   24.9494 N   0  0  0  0  0  0  0  0  0  0  0  0
   10.3202  -16.8431   25.6194 C   0  0  1  0  0  0  0  0  0  0  0  0
   11.8076  -16.7850   25.3477 C   0  0  0  0  0  0  0  0  0  0  0  0
   12.1488  -17.0908   23.9479 C   0  0  0  0  0  0  0  0  0  0  0  0
   12.4395  -16.1331   23.1807 O   0  0  0  0  0  0  0  0  0  0  0  0
   10.0707  -16.6979   27.0886 C   0  0  0  0  0  0  0  0  0  0  0  0
    9.7130  -15.6208   27.5698 O   0  0  0  0  0  0  0  0  0  0  0  0
   12.1577  -18.3705   23.4647 O   0  0  0  0  0  0  0  0  0  0  0  0
   10.2576  -17.8353   27.9045 O   0  0  0  0  0  0  0  0  0  0  0  0
  1  2  1  0
  2  3  1  0
  3  4  2  0
  5  6  1  0
  5  3  1  0
  6 11  1  0
  6  7  1  1
  8  7  1  0
  9  8  1  0
  9 10  2  0
 11 14  1  0
 11 12  2  0
 13  9  1  0
 14 15  1  0
 15 19  1  0
 15 16  1  1
 16 17  1  0
 17 21  1  0
 17 18  2  0
 19 22  1  0
 20 19  2  0
M  END
$$$$
