GED.pdb
     RDKit          3D

 22 21  0  0  1  0  0  0  0  0999 V2000
    9.1168  -19.5915   18.8974 N   0  0  0  0  0  0  0  0  0  0  0  0
    9.0216  -20.7706   19.7262 C   0  0  0  0  0  0  0  0  0  0  0  0
    8.8527  -20.3931   21.1862 C   0  0  0  0  0  0  0  0  0  0  0  0
    9.4286  -19.3677   21.6045 O   0  0  0  0  0  0  0  0  0  0  0  0
    8.0678  -21.1927   22.0273 N   0  0  0  0  0  0  0  0  0  0  0  0
    7.8147  -21.0356   23.4130 C   0  0  1  0  0  0  0  0  0  0  0  0
    6.3844  -21.3582   23.8561 C   0  0  0  0  0  0  0  0  0  0  0  0
    6.0691  -22.7386   23.4073 C   0  0  0  0  0  0  0  0  0  0  0  0
    4.7104  -23.1846   23.7774 C   0  0  0  0  0  0  0  0  0  0  0  0
    3.8964  -22.5211   24.4199 O   0  0  0  0  0  0  0  0  0  0  0  0
    8.8382  -21.5601   24.3269 C   0  0  0  0  0  0  0  0  0  0  0  0
    9.0950  -22.7790   24.2852 O   0  0  0  0  0  0  0  0  0  0  0  0
    4.3453  -24.4758   23.3511 O   0  0  0  0  0  0  0  0  0  0  0  0
    9.5422  -20.7515   25.2458 N   0  0  0  0  0  0  0  0  0  0  0  0
   10.5369  -21.2208   26.1894 C   0  0  1  0  0  0  0  0  0  0  0  0
   11.6959  -20.2485   26.1583 C   0  0  0  0  0  0  0  0  0  0  0  0
   12.5950  -20.4620   25.0114 C   0  0  0  0  0  0  0  0  0  0  0  0
   12.4708  -21.5252   24.3445 O   0  0  0  0  0  0  0  0  0  0  0  0
    9.9156  -21.2203   27.5516 C   0  0  0  0  0  0  0  0  0  0  0  0
    8.8392  -20.6567   27.7598 O   0  0  0  0  0  0  0  0  0  0  0  0
   13.5494  -19.5488   24.6559 O   0  0  0  0  0  0  0  0  0  0  0  0
   10.6025  -21.8874   28.5897 O   0  0  0  0  0  0  0  0  0  0  0  0
  1  2  1  0
  2  3  1  0
  3  4  2  0
  5  6  1  0
  5  3  1  0
  6 11  1  0
  6  7  1  1
  8  7  1  0
  9  8  1  0
  9 10  2  0
 11 14  1  0
 11 12  2  0
 13  9  1  0
 14 15  1  0
 15 19  1  0
 15 16  1  1
 16 17  1  0
 17 21  1  0
 17 18  2  0
 19 22  1  0
 20 19  2  0
M  END
$$$$
