GED.pdb
     RDKit          3D

 22 21  0  0  1  0  0  0  0  0999 V2000
    7.5535  -19.4778   15.7501 N   0  0  0  0  0  0  0  0  0  0  0  0
    8.8214  -19.9827   16.2232 C   0  0  0  0  0  0  0  0  0  0  0  0
    8.6223  -20.9489   17.3764 C   0  0  0  0  0  0  0  0  0  0  0  0
    7.7389  -20.6921   18.2200 O   0  0  0  0  0  0  0  0  0  0  0  0
    9.4246  -22.0932   17.4741 N   0  0  0  0  0  0  0  0  0  0  0  0
    9.4803  -23.0469   18.5211 C   0  0  1  0  0  0  0  0  0  0  0  0
    9.8302  -24.4735   18.0867 C   0  0  0  0  0  0  0  0  0  0  0  0
    8.9394  -24.8364   16.9549 C   0  0  0  0  0  0  0  0  0  0  0  0
    9.1856  -26.1909   16.4195 C   0  0  0  0  0  0  0  0  0  0  0  0
    9.9026  -26.4523   15.4536 O   0  0  0  0  0  0  0  0  0  0  0  0
   10.1689  -22.6283   19.7492 C   0  0  0  0  0  0  0  0  0  0  0  0
   11.2685  -22.0519   19.6398 O   0  0  0  0  0  0  0  0  0  0  0  0
    8.5338  -27.2470   17.0843 O   0  0  0  0  0  0  0  0  0  0  0  0
    9.6453  -22.8465   21.0423 N   0  0  0  0  0  0  0  0  0  0  0  0
   10.2407  -22.3841   22.2800 C   0  0  1  0  0  0  0  0  0  0  0  0
    9.1158  -22.0046   23.2184 C   0  0  0  0  0  0  0  0  0  0  0  0
    9.5954  -21.4724   24.5052 C   0  0  0  0  0  0  0  0  0  0  0  0
    9.8037  -22.2844   25.4475 O   0  0  0  0  0  0  0  0  0  0  0  0
   11.0242  -23.5176   22.8657 C   0  0  0  0  0  0  0  0  0  0  0  0
   10.7254  -24.6890   22.6247 O   0  0  0  0  0  0  0  0  0  0  0  0
    9.8175  -20.1370   24.7023 O   0  0  0  0  0  0  0  0  0  0  0  0
   12.1170  -23.2007   23.7021 O   0  0  0  0  0  0  0  0  0  0  0  0
  1  2  1  0
  2  3  1  0
  3  4  2  0
  5  6  1  0
  5  3  1  0
  6 11  1  0
  6  7  1  6
  8  7  1  0
  9  8  1  0
  9 10  2  0
 11 14  1  0
 11 12  2  0
 13  9  1  0
 14 15  1  0
 15 19  1  0
 15 16  1  1
 16 17  1  0
 17 21  1  0
 17 18  2  0
 19 22  1  0
 20 19  2  0
M  END
$$$$
