GED.pdb
     RDKit          3D

 22 21  0  0  1  0  0  0  0  0999 V2000
    2.6689  -20.9132   16.5676 N   0  0  0  0  0  0  0  0  0  0  0  0
    4.1012  -20.7450   16.6489 C   0  0  0  0  0  0  0  0  0  0  0  0
    4.7992  -22.0894   16.7398 C   0  0  0  0  0  0  0  0  0  0  0  0
    4.1016  -23.1097   16.9137 O   0  0  0  0  0  0  0  0  0  0  0  0
    6.1943  -22.1598   16.6324 N   0  0  0  0  0  0  0  0  0  0  0  0
    7.0329  -23.2974   16.7398 C   0  0  1  0  0  0  0  0  0  0  0  0
    7.8032  -23.6631   15.4673 C   0  0  0  0  0  0  0  0  0  0  0  0
    8.3536  -22.4091   14.8921 C   0  0  0  0  0  0  0  0  0  0  0  0
    9.1294  -22.6181   13.6526 C   0  0  0  0  0  0  0  0  0  0  0  0
   10.3451  -22.4589   13.5413 O   0  0  0  0  0  0  0  0  0  0  0  0
    7.8456  -23.3962   17.9594 C   0  0  0  0  0  0  0  0  0  0  0  0
    8.9505  -23.9681   17.8853 O   0  0  0  0  0  0  0  0  0  0  0  0
    8.3944  -23.0289   12.5242 O   0  0  0  0  0  0  0  0  0  0  0  0
    7.4359  -22.8751   19.2062 N   0  0  0  0  0  0  0  0  0  0  0  0
    8.1697  -22.9949   20.4501 C   0  0  1  0  0  0  0  0  0  0  0  0
    8.4451  -21.5966   20.9587 C   0  0  0  0  0  0  0  0  0  0  0  0
    9.4599  -20.8849   20.1632 C   0  0  0  0  0  0  0  0  0  0  0  0
   10.6059  -21.4007   20.0571 O   0  0  0  0  0  0  0  0  0  0  0  0
    7.3020  -23.7246   21.4281 C   0  0  0  0  0  0  0  0  0  0  0  0
    6.1443  -24.0368   21.1420 O   0  0  0  0  0  0  0  0  0  0  0  0
    9.1951  -19.6937   19.5449 O   0  0  0  0  0  0  0  0  0  0  0  0
    7.8536  -24.0442   22.6882 O   0  0  0  0  0  0  0  0  0  0  0  0
  1  2  1  0
  2  3  1  0
  3  4  2  0
  5  6  1  0
  5  3  1  0
  6 11  1  0
  6  7  1  6
  8  7  1  0
  9  8  1  0
  9 10  2  0
 11 14  1  0
 11 12  2  0
 13  9  1  0
 14 15  1  0
 15 19  1  0
 15 16  1  1
 16 17  1  0
 17 21  1  0
 17 18  2  0
 19 22  1  0
 20 19  2  0
M  END
$$$$
