GED.pdb
     RDKit          3D

 22 21  0  0  1  0  0  0  0  0999 V2000
    7.7481  -12.8791   16.8980 N   0  0  0  0  0  0  0  0  0  0  0  0
    8.8648  -12.7224   17.8006 C   0  0  0  0  0  0  0  0  0  0  0  0
    9.5351  -14.0573   18.0684 C   0  0  0  0  0  0  0  0  0  0  0  0
    9.2447  -15.0248   17.3352 O   0  0  0  0  0  0  0  0  0  0  0  0
   10.4516  -14.1789   19.1210 N   0  0  0  0  0  0  0  0  0  0  0  0
   11.3509  -15.2405   19.3918 C   0  0  1  0  0  0  0  0  0  0  0  0
   12.1353  -15.7564   18.1815 C   0  0  0  0  0  0  0  0  0  0  0  0
   13.2070  -14.7729   17.8806 C   0  0  0  0  0  0  0  0  0  0  0  0
   14.1736  -15.2433   16.8674 C   0  0  0  0  0  0  0  0  0  0  0  0
   14.9346  -14.5207   16.2239 O   0  0  0  0  0  0  0  0  0  0  0  0
   12.1721  -15.1073   20.6025 C   0  0  0  0  0  0  0  0  0  0  0  0
   12.8236  -14.0564   20.7586 O   0  0  0  0  0  0  0  0  0  0  0  0
   14.2031  -16.6321   16.6381 O   0  0  0  0  0  0  0  0  0  0  0  0
   12.2568  -16.1094   21.5937 N   0  0  0  0  0  0  0  0  0  0  0  0
   12.9648  -15.9897   22.8525 C   0  0  1  0  0  0  0  0  0  0  0  0
   12.3702  -16.9967   23.8127 C   0  0  0  0  0  0  0  0  0  0  0  0
   13.0252  -16.9896   25.1318 C   0  0  0  0  0  0  0  0  0  0  0  0
   13.9834  -16.1914   25.3190 O   0  0  0  0  0  0  0  0  0  0  0  0
   14.4041  -16.3196   22.6044 C   0  0  0  0  0  0  0  0  0  0  0  0
   14.7251  -17.2310   21.8389 O   0  0  0  0  0  0  0  0  0  0  0  0
   12.6264  -17.8165   26.1461 O   0  0  0  0  0  0  0  0  0  0  0  0
   15.3813  -15.5519   23.2751 O   0  0  0  0  0  0  0  0  0  0  0  0
  1  2  1  0
  2  3  1  0
  3  4  2  0
  5  6  1  0
  5  3  1  0
  6 11  1  0
  6  7  1  6
  8  7  1  0
  9  8  1  0
  9 10  2  0
 11 14  1  0
 11 12  2  0
 13  9  1  0
 14 15  1  0
 15 19  1  0
 15 16  1  1
 16 17  1  0
 17 21  1  0
 17 18  2  0
 19 22  1  0
 20 19  2  0
M  END
$$$$
