GED.pdb
     RDKit          3D

 22 21  0  0  1  0  0  0  0  0999 V2000
    8.6089  -20.7138   19.7049 N   0  0  0  0  0  0  0  0  0  0  0  0
   10.0285  -20.9492   19.8296 C   0  0  0  0  0  0  0  0  0  0  0  0
   10.4218  -21.1235   21.2849 C   0  0  0  0  0  0  0  0  0  0  0  0
    9.7132  -20.5847   22.1598 O   0  0  0  0  0  0  0  0  0  0  0  0
   11.5591  -21.8720   21.6153 N   0  0  0  0  0  0  0  0  0  0  0  0
   12.1872  -22.0149   22.8778 C   0  0  1  0  0  0  0  0  0  0  0  0
   13.1403  -23.2076   23.0016 C   0  0  0  0  0  0  0  0  0  0  0  0
   12.3660  -24.4413   22.7105 C   0  0  0  0  0  0  0  0  0  0  0  0
   13.1754  -25.6755   22.7717 C   0  0  0  0  0  0  0  0  0  0  0  0
   13.3980  -26.3279   23.7916 O   0  0  0  0  0  0  0  0  0  0  0  0
   12.7120  -20.7862   23.4884 C   0  0  0  0  0  0  0  0  0  0  0  0
   13.6621  -20.2089   22.9252 O   0  0  0  0  0  0  0  0  0  0  0  0
   13.7258  -26.1156   21.5528 O   0  0  0  0  0  0  0  0  0  0  0  0
   12.1921  -20.2305   24.6779 N   0  0  0  0  0  0  0  0  0  0  0  0
   12.5533  -18.9411   25.2320 C   0  0  1  0  0  0  0  0  0  0  0  0
   11.8565  -17.8765   24.4130 C   0  0  0  0  0  0  0  0  0  0  0  0
   12.7946  -16.9471   23.7607 C   0  0  0  0  0  0  0  0  0  0  0  0
   14.0254  -17.0696   24.0068 O   0  0  0  0  0  0  0  0  0  0  0  0
   12.0601  -18.8927   26.6449 C   0  0  0  0  0  0  0  0  0  0  0  0
   12.5252  -18.0872   27.4539 O   0  0  0  0  0  0  0  0  0  0  0  0
   12.3705  -15.9667   22.9062 O   0  0  0  0  0  0  0  0  0  0  0  0
   11.0442  -19.7991   27.0199 O   0  0  0  0  0  0  0  0  0  0  0  0
  1  2  1  0
  2  3  1  0
  3  4  2  0
  5  6  1  0
  5  3  1  0
  6 11  1  0
  6  7  1  6
  8  7  1  0
  9  8  1  0
  9 10  2  0
 11 14  1  0
 11 12  2  0
 13  9  1  0
 14 15  1  0
 15 19  1  0
 15 16  1  6
 16 17  1  0
 17 21  1  0
 17 18  2  0
 19 22  1  0
 20 19  2  0
M  END
$$$$
