GED.pdb
     RDKit          3D

 22 21  0  0  1  0  0  0  0  0999 V2000
   12.1627  -18.0333   16.2745 N   0  0  0  0  0  0  0  0  0  0  0  0
   11.0047  -17.9718   17.1356 C   0  0  0  0  0  0  0  0  0  0  0  0
   11.2981  -17.1520   18.3785 C   0  0  0  0  0  0  0  0  0  0  0  0
   12.4761  -16.7988   18.5921 O   0  0  0  0  0  0  0  0  0  0  0  0
   10.2572  -16.8144   19.2534 N   0  0  0  0  0  0  0  0  0  0  0  0
   10.3296  -16.1221   20.4880 C   0  0  1  0  0  0  0  0  0  0  0  0
    8.9965  -15.5783   21.0108 C   0  0  0  0  0  0  0  0  0  0  0  0
    8.4121  -14.7129   19.9544 C   0  0  0  0  0  0  0  0  0  0  0  0
    7.0448  -14.2461   20.2621 C   0  0  0  0  0  0  0  0  0  0  0  0
    6.4013  -14.5486   21.2670 O   0  0  0  0  0  0  0  0  0  0  0  0
   11.1558  -16.7388   21.5344 C   0  0  0  0  0  0  0  0  0  0  0  0
   10.8800  -17.8999   21.8937 O   0  0  0  0  0  0  0  0  0  0  0  0
    6.4545  -13.3909   19.3121 O   0  0  0  0  0  0  0  0  0  0  0  0
   12.2436  -16.0809   22.1491 N   0  0  0  0  0  0  0  0  0  0  0  0
   13.0933  -16.6432   23.1796 C   0  0  1  0  0  0  0  0  0  0  0  0
   14.3334  -15.7814   23.2747 C   0  0  0  0  0  0  0  0  0  0  0  0
   15.3026  -16.2761   24.2672 C   0  0  0  0  0  0  0  0  0  0  0  0
   15.0462  -17.3558   24.8663 O   0  0  0  0  0  0  0  0  0  0  0  0
   12.3431  -16.5907   24.4743 C   0  0  0  0  0  0  0  0  0  0  0  0
   11.5287  -15.6936   24.7018 O   0  0  0  0  0  0  0  0  0  0  0  0
   16.4587  -15.6028   24.5527 O   0  0  0  0  0  0  0  0  0  0  0  0
   12.5984  -17.6027   25.4256 O   0  0  0  0  0  0  0  0  0  0  0  0
  1  2  1  0
  2  3  1  0
  3  4  2  0
  5  6  1  0
  5  3  1  0
  6 11  1  0
  6  7  1  1
  8  7  1  0
  9  8  1  0
  9 10  2  0
 11 14  1  0
 11 12  2  0
 13  9  1  0
 14 15  1  0
 15 19  1  0
 15 16  1  1
 16 17  1  0
 17 21  1  0
 17 18  2  0
 19 22  1  0
 20 19  2  0
M  END
$$$$
