GED.pdb
     RDKit          3D

 22 21  0  0  1  0  0  0  0  0999 V2000
    7.5360  -11.2089   20.2865 N   0  0  0  0  0  0  0  0  0  0  0  0
    7.9115  -12.3075   19.4272 C   0  0  0  0  0  0  0  0  0  0  0  0
    8.3441  -13.5103   20.2452 C   0  0  0  0  0  0  0  0  0  0  0  0
    8.5011  -13.3662   21.4751 O   0  0  0  0  0  0  0  0  0  0  0  0
    8.5604  -14.7421   19.6138 N   0  0  0  0  0  0  0  0  0  0  0  0
    8.9303  -15.9806   20.1953 C   0  0  1  0  0  0  0  0  0  0  0  0
    8.3028  -17.2190   19.5481 C   0  0  0  0  0  0  0  0  0  0  0  0
    8.6882  -18.4018   20.3599 C   0  0  0  0  0  0  0  0  0  0  0  0
    8.0823  -19.6642   19.8898 C   0  0  0  0  0  0  0  0  0  0  0  0
    6.8868  -19.8302   19.6477 O   0  0  0  0  0  0  0  0  0  0  0  0
   10.3534  -16.1513   20.5169 C   0  0  0  0  0  0  0  0  0  0  0  0
   11.1630  -16.2410   19.5737 O   0  0  0  0  0  0  0  0  0  0  0  0
    8.9649  -20.7473   19.7163 O   0  0  0  0  0  0  0  0  0  0  0  0
   10.8450  -16.2174   21.8390 N   0  0  0  0  0  0  0  0  0  0  0  0
   12.2424  -16.3023   22.2135 C   0  0  1  0  0  0  0  0  0  0  0  0
   12.3213  -16.2085   23.7218 C   0  0  0  0  0  0  0  0  0  0  0  0
   13.7027  -16.2618   24.2297 C   0  0  0  0  0  0  0  0  0  0  0  0
   13.8789  -16.4583   25.4629 O   0  0  0  0  0  0  0  0  0  0  0  0
   12.7593  -17.6338   21.7642 C   0  0  0  0  0  0  0  0  0  0  0  0
   13.8237  -17.7285   21.1495 O   0  0  0  0  0  0  0  0  0  0  0  0
   14.7857  -16.1051   23.4088 O   0  0  0  0  0  0  0  0  0  0  0  0
   11.9883  -18.7771   22.0685 O   0  0  0  0  0  0  0  0  0  0  0  0
  1  2  1  0
  2  3  1  0
  3  4  2  0
  5  6  1  0
  5  3  1  0
  6 11  1  0
  6  7  1  6
  8  7  1  0
  9  8  1  0
  9 10  2  0
 11 14  1  0
 11 12  2  0
 13  9  1  0
 14 15  1  0
 15 19  1  0
 15 16  1  1
 16 17  1  0
 17 21  1  0
 17 18  2  0
 19 22  1  0
 20 19  2  0
M  END
$$$$
