EPN.pdb
     RDKit          3D

 25 25  0  0  1  0  0  0  0  0999 V2000
   24.0739  -20.7966  -10.2362 N   0  0  0  0  0  0  0  0  0  0  0  0
   24.6357  -21.3149  -11.4754 C   0  0  1  0  0  0  0  0  0  0  0  0
   23.6313  -22.1934  -12.1713 C   0  0  0  0  0  0  0  0  0  0  0  0
   22.2455  -22.1321  -11.6364 C   0  0  0  0  0  0  0  0  0  0  0  0
   21.2910  -21.3221  -12.3913 C   0  0  0  0  0  0  0  0  0  0  0  0
   21.3768  -21.2651  -13.6449 O   0  0  0  0  0  0  0  0  0  0  0  0
   25.1305  -20.2155  -12.3372 C   0  0  0  0  0  0  0  0  0  0  0  0
   24.5255  -19.0878  -12.3742 O   0  0  0  0  0  0  0  0  0  0  0  0
   20.2583  -20.5829  -11.8130 O   0  0  0  0  0  0  0  0  0  0  0  0
   26.2791  -20.3373  -13.1576 N   0  0  0  0  0  0  0  0  0  0  0  0
   27.0703  -21.5452  -13.2725 C   0  0  0  0  0  0  0  0  0  0  0  0
   28.4723  -20.9410  -13.4515 C   0  0  0  0  0  0  0  0  0  0  0  0
   28.1782  -19.8950  -14.5025 C   0  0  0  0  0  0  0  0  0  0  0  0
   26.8792  -19.3225  -13.9977 C   0  0  1  0  0  0  0  0  0  0  0  0
   26.0041  -19.0128  -15.1738 C   0  0  0  0  0  0  0  0  0  0  0  0
   25.2454  -19.8788  -15.6733 O   0  0  0  0  0  0  0  0  0  0  0  0
   24.5512  -14.4395  -14.7036 N   0  0  0  0  0  0  0  0  0  0  0  0
   24.1700  -15.4523  -15.6250 C   0  0  0  0  0  0  0  0  0  0  0  0
   23.0863  -16.0553  -15.4228 O   0  0  0  0  0  0  0  0  0  0  0  0
   24.9717  -15.8287  -16.7948 C   0  0  0  0  0  0  0  0  0  0  0  0
   25.2300  -17.3182  -16.8807 C   0  0  2  0  0  0  0  0  0  0  0  0
   26.0249  -17.7158  -15.7451 N   0  0  0  0  0  0  0  0  0  0  0  0
   26.0224  -17.5389  -18.1122 C   0  0  0  0  0  0  0  0  0  0  0  0
   25.5126  -17.5195  -19.2662 O   0  0  0  0  0  0  0  0  0  0  0  0
   27.3760  -17.7769  -18.0068 O   0  0  0  0  0  0  0  0  0  0  0  0
  2  7  1  0
  2  1  1  1
  3  4  1  0
  3  2  1  0
  5  4  1  0
  6  5  2  0
  7  8  2  0
  9  5  1  0
 10  7  1  0
 10 14  1  0
 11 10  1  0
 12 11  1  0
 12 13  1  0
 13 14  1  0
 14 15  1  6
 15 16  2  0
 17 18  1  0
 18 20  1  0
 19 18  2  0
 21 20  1  1
 21 23  1  0
 22 21  1  0
 22 15  1  0
 23 24  2  0
 23 25  1  0
M  END
$$$$
