EPN.pdb
     RDKit          3D

 25 25  0  0  1  0  0  0  0  0999 V2000
   15.5416  -23.2122    3.6634 N   0  0  0  0  0  0  0  0  0  0  0  0
   16.8412  -22.5611    3.7469 C   0  0  1  0  0  0  0  0  0  0  0  0
   16.8446  -21.3045    2.9187 C   0  0  0  0  0  0  0  0  0  0  0  0
   16.0146  -20.1881    3.4432 C   0  0  0  0  0  0  0  0  0  0  0  0
   15.9946  -18.9617    2.6477 C   0  0  0  0  0  0  0  0  0  0  0  0
   16.3326  -17.8713    3.1756 O   0  0  0  0  0  0  0  0  0  0  0  0
   17.2268  -22.3195    5.1572 C   0  0  0  0  0  0  0  0  0  0  0  0
   16.3418  -22.2773    6.0814 O   0  0  0  0  0  0  0  0  0  0  0  0
   15.6182  -18.9026    1.3053 O   0  0  0  0  0  0  0  0  0  0  0  0
   18.5692  -22.1242    5.5660 N   0  0  0  0  0  0  0  0  0  0  0  0
   19.6944  -22.0630    4.6557 C   0  0  0  0  0  0  0  0  0  0  0  0
   20.7825  -22.7240    5.5170 C   0  0  0  0  0  0  0  0  0  0  0  0
   20.5741  -21.9865    6.8201 C   0  0  0  0  0  0  0  0  0  0  0  0
   19.0705  -21.9690    6.9152 C   0  0  1  0  0  0  0  0  0  0  0  0
   18.6437  -20.6568    7.4989 C   0  0  0  0  0  0  0  0  0  0  0  0
   18.3124  -19.6907    6.7694 O   0  0  0  0  0  0  0  0  0  0  0  0
   16.2107  -18.3682   12.4895 N   0  0  0  0  0  0  0  0  0  0  0  0
   16.4112  -18.4137   11.0831 C   0  0  0  0  0  0  0  0  0  0  0  0
   16.1210  -17.3912   10.4131 O   0  0  0  0  0  0  0  0  0  0  0  0
   16.9371  -19.5868   10.3759 C   0  0  0  0  0  0  0  0  0  0  0  0
   18.1810  -19.2822    9.5680 C   0  0  2  0  0  0  0  0  0  0  0  0
   18.6096  -20.4895    8.9060 N   0  0  0  0  0  0  0  0  0  0  0  0
   19.2256  -18.8788   10.5371 C   0  0  0  0  0  0  0  0  0  0  0  0
   19.8484  -19.7079   11.2560 O   0  0  0  0  0  0  0  0  0  0  0  0
   19.5404  -17.5434   10.6689 O   0  0  0  0  0  0  0  0  0  0  0  0
  2  7  1  0
  2  1  1  1
  3  4  1  0
  3  2  1  0
  5  4  1  0
  6  5  2  0
  7  8  2  0
  9  5  1  0
 10  7  1  0
 10 14  1  0
 11 10  1  0
 12 11  1  0
 12 13  1  0
 13 14  1  0
 14 15  1  6
 15 16  2  0
 17 18  1  0
 18 20  1  0
 19 18  2  0
 21 20  1  1
 21 23  1  0
 22 21  1  0
 22 15  1  0
 23 24  2  0
 23 25  1  0
M  END
$$$$
