EPN.pdb
     RDKit          3D

 25 25  0  0  1  0  0  0  0  0999 V2000
   21.7649  -21.4664  -14.0432 N   0  0  0  0  0  0  0  0  0  0  0  0
   20.8919  -20.8886  -13.0314 C   0  0  1  0  0  0  0  0  0  0  0  0
   19.5238  -20.6423  -13.6079 C   0  0  0  0  0  0  0  0  0  0  0  0
   19.4168  -19.4849  -14.5349 C   0  0  0  0  0  0  0  0  0  0  0  0
   18.2347  -18.6377  -14.3856 C   0  0  0  0  0  0  0  0  0  0  0  0
   18.1133  -17.9119  -13.3655 O   0  0  0  0  0  0  0  0  0  0  0  0
   20.8575  -21.7311  -11.8128 C   0  0  0  0  0  0  0  0  0  0  0  0
   20.6906  -22.9978  -11.8954 O   0  0  0  0  0  0  0  0  0  0  0  0
   17.1964  -18.5678  -15.3152 O   0  0  0  0  0  0  0  0  0  0  0  0
   21.0041  -21.2025  -10.5065 N   0  0  0  0  0  0  0  0  0  0  0  0
   21.1849  -19.7949  -10.2158 C   0  0  0  0  0  0  0  0  0  0  0  0
   22.1161  -19.8824   -8.9960 C   0  0  0  0  0  0  0  0  0  0  0  0
   21.3936  -20.9341   -8.1854 C   0  0  0  0  0  0  0  0  0  0  0  0
   21.0185  -21.9280   -9.2539 C   0  0  1  0  0  0  0  0  0  0  0  0
   19.6622  -22.4806   -8.9378 C   0  0  0  0  0  0  0  0  0  0  0  0
   18.6170  -21.9533   -9.3901 O   0  0  0  0  0  0  0  0  0  0  0  0
   15.7534  -26.1735   -8.8780 N   0  0  0  0  0  0  0  0  0  0  0  0
   16.9540  -26.3036   -8.1284 C   0  0  0  0  0  0  0  0  0  0  0  0
   16.9507  -27.0802   -7.1406 O   0  0  0  0  0  0  0  0  0  0  0  0
   18.1915  -25.5822   -8.4463 C   0  0  0  0  0  0  0  0  0  0  0  0
   18.2885  -24.2396   -7.7530 C   0  0  2  0  0  0  0  0  0  0  0  0
   19.5432  -23.6247   -8.1095 N   0  0  0  0  0  0  0  0  0  0  0  0
   18.2944  -24.5152   -6.2980 C   0  0  0  0  0  0  0  0  0  0  0  0
   19.3549  -24.7144   -5.6439 O   0  0  0  0  0  0  0  0  0  0  0  0
   17.0966  -24.5586   -5.6173 O   0  0  0  0  0  0  0  0  0  0  0  0
  2  7  1  0
  2  1  1  6
  3  4  1  0
  3  2  1  0
  5  4  1  0
  6  5  2  0
  7  8  2  0
  9  5  1  0
 10  7  1  0
 10 14  1  0
 11 10  1  0
 12 11  1  0
 12 13  1  0
 13 14  1  0
 14 15  1  1
 15 16  2  0
 17 18  1  0
 18 20  1  0
 19 18  2  0
 21 20  1  6
 21 23  1  0
 22 21  1  0
 22 15  1  0
 23 24  2  0
 23 25  1  0
M  END
$$$$
