EPN.pdb
     RDKit          3D

 25 25  0  0  1  0  0  0  0  0999 V2000
   19.1758  -12.3346  -17.7445 N   0  0  0  0  0  0  0  0  0  0  0  0
   20.5104  -11.7577  -17.6700 C   0  0  1  0  0  0  0  0  0  0  0  0
   20.8834  -11.1437  -18.9924 C   0  0  0  0  0  0  0  0  0  0  0  0
   20.2527  -11.7627  -20.1880 C   0  0  0  0  0  0  0  0  0  0  0  0
   20.5389  -11.1324  -21.4755 C   0  0  0  0  0  0  0  0  0  0  0  0
   21.4550  -11.5925  -22.2044 O   0  0  0  0  0  0  0  0  0  0  0  0
   20.6154  -10.8007  -16.5434 C   0  0  0  0  0  0  0  0  0  0  0  0
   19.5855  -10.1671  -16.1226 O   0  0  0  0  0  0  0  0  0  0  0  0
   19.8543  -10.0245  -21.9768 O   0  0  0  0  0  0  0  0  0  0  0  0
   21.8341  -10.5303  -15.8733 N   0  0  0  0  0  0  0  0  0  0  0  0
   23.0921  -11.1780  -16.1836 C   0  0  0  0  0  0  0  0  0  0  0  0
   23.7188  -11.2496  -14.7819 C   0  0  0  0  0  0  0  0  0  0  0  0
   23.4703   -9.8360  -14.3074 C   0  0  0  0  0  0  0  0  0  0  0  0
   22.0586   -9.6066  -14.7815 C   0  0  1  0  0  0  0  0  0  0  0  0
   21.9346   -8.1873  -15.2450 C   0  0  0  0  0  0  0  0  0  0  0  0
   22.2106   -7.8553  -16.4235 O   0  0  0  0  0  0  0  0  0  0  0  0
   20.4613   -3.0902  -15.0292 N   0  0  0  0  0  0  0  0  0  0  0  0
   19.5099   -4.0459  -14.5801 C   0  0  0  0  0  0  0  0  0  0  0  0
   18.3313   -3.6569  -14.3840 O   0  0  0  0  0  0  0  0  0  0  0  0
   19.8303   -5.4566  -14.3349 C   0  0  0  0  0  0  0  0  0  0  0  0
   21.2534   -5.8139  -14.7088 C   0  0  2  0  0  0  0  0  0  0  0  0
   21.4974   -7.1868  -14.3413 N   0  0  0  0  0  0  0  0  0  0  0  0
   22.1345   -4.9439  -13.8965 C   0  0  0  0  0  0  0  0  0  0  0  0
   22.4651   -3.7800  -14.2545 O   0  0  0  0  0  0  0  0  0  0  0  0
   22.6210   -5.4140  -12.6956 O   0  0  0  0  0  0  0  0  0  0  0  0
  2  7  1  0
  2  1  1  6
  3  4  1  0
  3  2  1  0
  5  4  1  0
  6  5  2  0
  7  8  2  0
  9  5  1  0
 10  7  1  0
 10 14  1  0
 11 10  1  0
 12 11  1  0
 12 13  1  0
 13 14  1  0
 14 15  1  6
 15 16  2  0
 17 18  1  0
 18 20  1  0
 19 18  2  0
 21 20  1  1
 21 23  1  0
 22 21  1  0
 22 15  1  0
 23 24  2  0
 23 25  1  0
M  END
$$$$
