EPN.pdb
     RDKit          3D

 25 25  0  0  1  0  0  0  0  0999 V2000
   19.2431  -13.5804  -17.3276 N   0  0  0  0  0  0  0  0  0  0  0  0
   18.3250  -12.4521  -17.2664 C   0  0  1  0  0  0  0  0  0  0  0  0
   17.4469  -12.5649  -16.0494 C   0  0  0  0  0  0  0  0  0  0  0  0
   16.6104  -13.7916  -15.9731 C   0  0  0  0  0  0  0  0  0  0  0  0
   16.5585  -14.4651  -14.6766 C   0  0  0  0  0  0  0  0  0  0  0  0
   16.6179  -13.7864  -13.6193 O   0  0  0  0  0  0  0  0  0  0  0  0
   19.0571  -11.1651  -17.3280 C   0  0  0  0  0  0  0  0  0  0  0  0
   20.2995  -11.1018  -17.0254 O   0  0  0  0  0  0  0  0  0  0  0  0
   16.4444  -15.8463  -14.5133 O   0  0  0  0  0  0  0  0  0  0  0  0
   18.4445   -9.9482  -17.7170 N   0  0  0  0  0  0  0  0  0  0  0  0
   17.0686   -9.8361  -18.1562 C   0  0  0  0  0  0  0  0  0  0  0  0
   17.2035   -8.7196  -19.2040 C   0  0  0  0  0  0  0  0  0  0  0  0
   18.0362   -7.7255  -18.4270 C   0  0  0  0  0  0  0  0  0  0  0  0
   19.0440   -8.6316  -17.7685 C   0  0  1  0  0  0  0  0  0  0  0  0
   19.3231   -8.1145  -16.3903 C   0  0  0  0  0  0  0  0  0  0  0  0
   18.7510   -8.5937  -15.3812 O   0  0  0  0  0  0  0  0  0  0  0  0
   22.2283   -5.5527  -12.6057 N   0  0  0  0  0  0  0  0  0  0  0  0
   22.2001   -4.9094  -13.8727 C   0  0  0  0  0  0  0  0  0  0  0  0
   22.5413   -3.7013  -13.9279 O   0  0  0  0  0  0  0  0  0  0  0  0
   21.7957   -5.5789  -15.1141 C   0  0  0  0  0  0  0  0  0  0  0  0
   20.6282   -6.5240  -14.9234 C   0  0  2  0  0  0  0  0  0  0  0  0
   20.2521   -7.0596  -16.2084 N   0  0  0  0  0  0  0  0  0  0  0  0
   19.5057   -5.7092  -14.4046 C   0  0  0  0  0  0  0  0  0  0  0  0
   18.7412   -5.0419  -15.1545 O   0  0  0  0  0  0  0  0  0  0  0  0
   19.2756   -5.6696  -13.0462 O   0  0  0  0  0  0  0  0  0  0  0  0
  2  7  1  0
  2  1  1  1
  3  4  1  0
  3  2  1  0
  5  4  1  0
  6  5  2  0
  7  8  2  0
  9  5  1  0
 10  7  1  0
 10 14  1  0
 11 10  1  0
 12 11  1  0
 12 13  1  0
 13 14  1  0
 14 15  1  1
 15 16  2  0
 17 18  1  0
 18 20  1  0
 19 18  2  0
 21 20  1  6
 21 23  1  0
 22 21  1  0
 22 15  1  0
 23 24  2  0
 23 25  1  0
M  END
$$$$
