EPN.pdb
     RDKit          3D

 25 25  0  0  1  0  0  0  0  0999 V2000
   21.1169  -16.8025  -15.4846 N   0  0  0  0  0  0  0  0  0  0  0  0
   21.8957  -15.7823  -16.1720 C   0  0  1  0  0  0  0  0  0  0  0  0
   21.4372  -15.6560  -17.5998 C   0  0  0  0  0  0  0  0  0  0  0  0
   20.1883  -16.3873  -17.9399 C   0  0  0  0  0  0  0  0  0  0  0  0
   19.4889  -15.9551  -19.1487 C   0  0  0  0  0  0  0  0  0  0  0  0
   19.9601  -15.0148  -19.8385 O   0  0  0  0  0  0  0  0  0  0  0  0
   21.8521  -14.4948  -15.4396 C   0  0  0  0  0  0  0  0  0  0  0  0
   20.7788  -14.1054  -14.8603 O   0  0  0  0  0  0  0  0  0  0  0  0
   18.3012  -16.5214  -19.6136 O   0  0  0  0  0  0  0  0  0  0  0  0
   22.9695  -13.6302  -15.3345 N   0  0  0  0  0  0  0  0  0  0  0  0
   24.2722  -13.9146  -15.9008 C   0  0  0  0  0  0  0  0  0  0  0  0
   25.1804  -13.2699  -14.8414 C   0  0  0  0  0  0  0  0  0  0  0  0
   24.4883  -11.9363  -14.6745 C   0  0  0  0  0  0  0  0  0  0  0  0
   23.0403  -12.3524  -14.6579 C   0  0  1  0  0  0  0  0  0  0  0  0
   22.2367  -11.3160  -15.3824 C   0  0  0  0  0  0  0  0  0  0  0  0
   21.9397  -11.4452  -16.5949 O   0  0  0  0  0  0  0  0  0  0  0  0
   17.9213   -8.1751  -16.2258 N   0  0  0  0  0  0  0  0  0  0  0  0
   18.7317   -8.0732  -15.0627 C   0  0  0  0  0  0  0  0  0  0  0  0
   18.6806   -7.0065  -14.4005 O   0  0  0  0  0  0  0  0  0  0  0  0
   19.6205   -9.1434  -14.5964 C   0  0  0  0  0  0  0  0  0  0  0  0
   20.9709   -9.1314  -15.2811 C   0  0  2  0  0  0  0  0  0  0  0  0
   21.7962  -10.1579  -14.6940 N   0  0  0  0  0  0  0  0  0  0  0  0
   21.5796   -7.8129  -14.9911 C   0  0  0  0  0  0  0  0  0  0  0  0
   21.3139   -6.7753  -15.6581 O   0  0  0  0  0  0  0  0  0  0  0  0
   22.4765   -7.7010  -13.9505 O   0  0  0  0  0  0  0  0  0  0  0  0
  2  7  1  0
  2  1  1  1
  3  4  1  0
  3  2  1  0
  5  4  1  0
  6  5  2  0
  7  8  2  0
  9  5  1  0
 10  7  1  0
 10 14  1  0
 11 10  1  0
 12 11  1  0
 12 13  1  0
 13 14  1  0
 14 15  1  6
 15 16  2  0
 17 18  1  0
 18 20  1  0
 19 18  2  0
 21 20  1  1
 21 23  1  0
 22 21  1  0
 22 15  1  0
 23 24  2  0
 23 25  1  0
M  END
$$$$
