EPN.pdb
     RDKit          3D

 25 25  0  0  1  0  0  0  0  0999 V2000
   27.7457  -21.8437  -17.2673 N   0  0  0  0  0  0  0  0  0  0  0  0
   27.3118  -20.8730  -16.2727 C   0  0  1  0  0  0  0  0  0  0  0  0
   26.7315  -19.6613  -16.9510 C   0  0  0  0  0  0  0  0  0  0  0  0
   27.6754  -18.8873  -17.7996 C   0  0  0  0  0  0  0  0  0  0  0  0
   28.1921  -17.6433  -17.2315 C   0  0  0  0  0  0  0  0  0  0  0  0
   29.3657  -17.6046  -16.7807 O   0  0  0  0  0  0  0  0  0  0  0  0
   26.3783  -21.4877  -15.2997 C   0  0  0  0  0  0  0  0  0  0  0  0
   25.5384  -22.3803  -15.6700 O   0  0  0  0  0  0  0  0  0  0  0  0
   27.4631  -16.4564  -17.1469 O   0  0  0  0  0  0  0  0  0  0  0  0
   26.3545  -21.1364  -13.9274 N   0  0  0  0  0  0  0  0  0  0  0  0
   27.3100  -20.2459  -13.3007 C   0  0  0  0  0  0  0  0  0  0  0  0
   27.4129  -20.8877  -11.9078 C   0  0  0  0  0  0  0  0  0  0  0  0
   25.9465  -21.0792  -11.5947 C   0  0  0  0  0  0  0  0  0  0  0  0
   25.4241  -21.5864  -12.9138 C   0  0  1  0  0  0  0  0  0  0  0  0
   24.0607  -21.0088  -13.1421 C   0  0  0  0  0  0  0  0  0  0  0  0
   23.9070  -19.8509  -13.6014 O   0  0  0  0  0  0  0  0  0  0  0  0
   18.7783  -20.9480  -13.6115 N   0  0  0  0  0  0  0  0  0  0  0  0
   19.2579  -22.2673  -13.3885 C   0  0  0  0  0  0  0  0  0  0  0  0
   18.4305  -23.2115  -13.4393 O   0  0  0  0  0  0  0  0  0  0  0  0
   20.6623  -22.5830  -13.1038 C   0  0  0  0  0  0  0  0  0  0  0  0
   21.5589  -21.3630  -13.1243 C   0  0  2  0  0  0  0  0  0  0  0  0
   22.9097  -21.7771  -12.8356 N   0  0  0  0  0  0  0  0  0  0  0  0
   21.0928  -20.4781  -12.0322 C   0  0  0  0  0  0  0  0  0  0  0  0
   21.6491  -20.4372  -10.9004 O   0  0  0  0  0  0  0  0  0  0  0  0
   20.0056  -19.6589  -12.2486 O   0  0  0  0  0  0  0  0  0  0  0  0
  2  7  1  0
  2  1  1  6
  3  4  1  0
  3  2  1  0
  5  4  1  0
  6  5  2  0
  7  8  2  0
  9  5  1  0
 10  7  1  0
 10 14  1  0
 11 10  1  0
 12 11  1  0
 12 13  1  0
 13 14  1  0
 14 15  1  6
 15 16  2  0
 17 18  1  0
 18 20  1  0
 19 18  2  0
 21 20  1  1
 21 23  1  0
 22 21  1  0
 22 15  1  0
 23 24  2  0
 23 25  1  0
M  END
$$$$
