EPN.pdb
     RDKit          3D

 25 25  0  0  1  0  0  0  0  0999 V2000
   23.1452  -13.8906  -18.1657 N   0  0  0  0  0  0  0  0  0  0  0  0
   24.0346  -12.7446  -18.2892 C   0  0  1  0  0  0  0  0  0  0  0  0
   23.8977  -12.1282  -19.6553 C   0  0  0  0  0  0  0  0  0  0  0  0
   22.5095  -11.8030  -20.0764 C   0  0  0  0  0  0  0  0  0  0  0  0
   22.3556  -11.1867  -21.3931 C   0  0  0  0  0  0  0  0  0  0  0  0
   22.4324  -11.8989  -22.4271 O   0  0  0  0  0  0  0  0  0  0  0  0
   23.8053  -11.7714  -17.1954 C   0  0  0  0  0  0  0  0  0  0  0  0
   22.6543  -11.6615  -16.6456 O   0  0  0  0  0  0  0  0  0  0  0  0
   22.1225   -9.8266  -21.6011 O   0  0  0  0  0  0  0  0  0  0  0  0
   24.8212  -10.9187  -16.6975 N   0  0  0  0  0  0  0  0  0  0  0  0
   26.2058  -10.9726  -17.1201 C   0  0  0  0  0  0  0  0  0  0  0  0
   26.9105  -10.6063  -15.8042 C   0  0  0  0  0  0  0  0  0  0  0  0
   26.0906   -9.4061  -15.3891 C   0  0  0  0  0  0  0  0  0  0  0  0
   24.6937   -9.8780  -15.6994 C   0  0  1  0  0  0  0  0  0  0  0  0
   23.9045   -8.7199  -16.2291 C   0  0  0  0  0  0  0  0  0  0  0  0
   23.8731   -8.4530  -17.4551 O   0  0  0  0  0  0  0  0  0  0  0  0
   20.4746   -4.7008  -16.2434 N   0  0  0  0  0  0  0  0  0  0  0  0
   20.0179   -5.9957  -15.8762 C   0  0  0  0  0  0  0  0  0  0  0  0
   18.7785   -6.1777  -15.7783 O   0  0  0  0  0  0  0  0  0  0  0  0
   20.9138   -7.1261  -15.6070 C   0  0  0  0  0  0  0  0  0  0  0  0
   22.3782   -6.7658  -15.7422 C   0  0  2  0  0  0  0  0  0  0  0  0
   23.1726   -7.8985  -15.3354 N   0  0  0  0  0  0  0  0  0  0  0  0
   22.6276   -5.6512  -14.7996 C   0  0  0  0  0  0  0  0  0  0  0  0
   22.9278   -5.8345  -13.5878 O   0  0  0  0  0  0  0  0  0  0  0  0
   22.5309   -4.3532  -15.2529 O   0  0  0  0  0  0  0  0  0  0  0  0
  2  7  1  0
  2  1  1  6
  3  4  1  0
  3  2  1  0
  5  4  1  0
  6  5  2  0
  7  8  2  0
  9  5  1  0
 10  7  1  0
 10 14  1  0
 11 10  1  0
 12 11  1  0
 12 13  1  0
 13 14  1  0
 14 15  1  6
 15 16  2  0
 17 18  1  0
 18 20  1  0
 19 18  2  0
 21 20  1  1
 21 23  1  0
 22 21  1  0
 22 15  1  0
 23 24  2  0
 23 25  1  0
M  END
$$$$
