EPN.pdb
     RDKit          3D

 25 25  0  0  1  0  0  0  0  0999 V2000
   17.1251  -16.7213    4.7501 N   0  0  0  0  0  0  0  0  0  0  0  0
   17.1732  -15.4100    5.3811 C   0  0  1  0  0  0  0  0  0  0  0  0
   16.0897  -15.2954    6.4193 C   0  0  0  0  0  0  0  0  0  0  0  0
   14.7007  -15.4718    5.9195 C   0  0  0  0  0  0  0  0  0  0  0  0
   13.6331  -15.3701    6.9130 C   0  0  0  0  0  0  0  0  0  0  0  0
   12.4317  -15.4134    6.5429 O   0  0  0  0  0  0  0  0  0  0  0  0
   18.5222  -15.1301    5.9267 C   0  0  0  0  0  0  0  0  0  0  0  0
   19.3629  -16.0770    6.1160 O   0  0  0  0  0  0  0  0  0  0  0  0
   13.8476  -15.2241    8.2841 O   0  0  0  0  0  0  0  0  0  0  0  0
   18.9604  -13.8263    6.2665 N   0  0  0  0  0  0  0  0  0  0  0  0
   18.1446  -12.6363    6.1373 C   0  0  0  0  0  0  0  0  0  0  0  0
   19.2186  -11.6058    5.7533 C   0  0  0  0  0  0  0  0  0  0  0  0
   20.2747  -11.9254    6.7866 C   0  0  0  0  0  0  0  0  0  0  0  0
   20.2577  -13.4320    6.7736 C   0  0  1  0  0  0  0  0  0  0  0  0
   20.4591  -13.9245    8.1741 C   0  0  0  0  0  0  0  0  0  0  0  0
   19.4936  -14.0765    8.9615 O   0  0  0  0  0  0  0  0  0  0  0  0
   22.7899  -16.1914   12.3009 N   0  0  0  0  0  0  0  0  0  0  0  0
   23.1455  -16.7229   11.0316 C   0  0  0  0  0  0  0  0  0  0  0  0
   23.7600  -17.8186   11.0027 O   0  0  0  0  0  0  0  0  0  0  0  0
   22.8340  -16.0624    9.7589 C   0  0  0  0  0  0  0  0  0  0  0  0
   22.0599  -14.7731    9.9354 C   0  0  2  0  0  0  0  0  0  0  0  0
   21.7652  -14.2287    8.6329 N   0  0  0  0  0  0  0  0  0  0  0  0
   22.9584  -13.8351   10.6468 C   0  0  0  0  0  0  0  0  0  0  0  0
   23.6643  -12.9775   10.0482 O   0  0  0  0  0  0  0  0  0  0  0  0
   23.0360  -13.8912   12.0218 O   0  0  0  0  0  0  0  0  0  0  0  0
  2  7  1  0
  2  1  1  1
  3  4  1  0
  3  2  1  0
  5  4  1  0
  6  5  2  0
  7  8  2  0
  9  5  1  0
 10  7  1  0
 10 14  1  0
 11 10  1  0
 12 11  1  0
 12 13  1  0
 13 14  1  0
 14 15  1  1
 15 16  2  0
 17 18  1  0
 18 20  1  0
 19 18  2  0
 21 20  1  6
 21 23  1  0
 22 21  1  0
 22 15  1  0
 23 24  2  0
 23 25  1  0
M  END
$$$$
