EPN.pdb
     RDKit          3D

 25 25  0  0  1  0  0  0  0  0999 V2000
   25.7497  -16.2627  -15.1706 N   0  0  0  0  0  0  0  0  0  0  0  0
   25.9441  -15.1907  -16.1364 C   0  0  1  0  0  0  0  0  0  0  0  0
   25.0891  -15.4280  -17.3520 C   0  0  0  0  0  0  0  0  0  0  0  0
   25.2132  -16.7740  -17.9709 C   0  0  0  0  0  0  0  0  0  0  0  0
   24.3908  -17.0258  -19.1531 C   0  0  0  0  0  0  0  0  0  0  0  0
   23.6061  -16.1343  -19.5674 O   0  0  0  0  0  0  0  0  0  0  0  0
   25.7054  -13.8656  -15.5173 C   0  0  0  0  0  0  0  0  0  0  0  0
   24.8536  -13.7271  -14.5715 O   0  0  0  0  0  0  0  0  0  0  0  0
   24.4077  -18.2153  -19.8825 O   0  0  0  0  0  0  0  0  0  0  0  0
   26.3886  -12.6922  -15.9216 N   0  0  0  0  0  0  0  0  0  0  0  0
   27.4833  -12.6762  -16.8703 C   0  0  0  0  0  0  0  0  0  0  0  0
   28.3363  -11.5376  -16.2884 C   0  0  0  0  0  0  0  0  0  0  0  0
   27.2657  -10.4958  -16.0563 C   0  0  0  0  0  0  0  0  0  0  0  0
   26.1548  -11.3340  -15.4786 C   0  0  1  0  0  0  0  0  0  0  0  0
   24.8473  -10.8178  -15.9969 C   0  0  0  0  0  0  0  0  0  0  0  0
   24.3635  -11.2264  -17.0805 O   0  0  0  0  0  0  0  0  0  0  0  0
   20.3625   -8.0052  -16.1294 N   0  0  0  0  0  0  0  0  0  0  0  0
   20.9894   -7.8821  -14.8597 C   0  0  0  0  0  0  0  0  0  0  0  0
   20.3953   -7.2221  -13.9708 O   0  0  0  0  0  0  0  0  0  0  0  0
   22.2878   -8.4829  -14.5340 C   0  0  0  0  0  0  0  0  0  0  0  0
   22.8987   -9.2375  -15.6958 C   0  0  2  0  0  0  0  0  0  0  0  0
   24.1307   -9.8447  -15.2563 N   0  0  0  0  0  0  0  0  0  0  0  0
   23.2133   -8.2303  -16.7349 C   0  0  0  0  0  0  0  0  0  0  0  0
   24.3394   -7.6679  -16.8237 O   0  0  0  0  0  0  0  0  0  0  0  0
   22.2430   -7.8834  -17.6503 O   0  0  0  0  0  0  0  0  0  0  0  0
  2  7  1  0
  2  1  1  1
  3  4  1  0
  3  2  1  0
  5  4  1  0
  6  5  2  0
  7  8  2  0
  9  5  1  0
 10  7  1  0
 10 14  1  0
 11 10  1  0
 12 11  1  0
 12 13  1  0
 13 14  1  0
 14 15  1  6
 15 16  2  0
 17 18  1  0
 18 20  1  0
 19 18  2  0
 21 20  1  1
 21 23  1  0
 22 21  1  0
 22 15  1  0
 23 24  2  0
 23 25  1  0
M  END
$$$$
