EPN.pdb
     RDKit          3D

 25 25  0  0  1  0  0  0  0  0999 V2000
   17.2541  -11.8567  -14.8564 N   0  0  0  0  0  0  0  0  0  0  0  0
   18.2474  -11.1270  -15.6314 C   0  0  1  0  0  0  0  0  0  0  0  0
   17.8385  -11.0753  -17.0788 C   0  0  0  0  0  0  0  0  0  0  0  0
   17.7809  -12.3867  -17.7767 C   0  0  0  0  0  0  0  0  0  0  0  0
   17.4886  -12.3505  -19.2086 C   0  0  0  0  0  0  0  0  0  0  0  0
   17.3805  -13.4272  -19.8497 O   0  0  0  0  0  0  0  0  0  0  0  0
   18.4907   -9.7833  -15.0559 C   0  0  0  0  0  0  0  0  0  0  0  0
   17.5561   -9.1484  -14.4536 O   0  0  0  0  0  0  0  0  0  0  0  0
   17.3140  -11.1780  -19.9449 O   0  0  0  0  0  0  0  0  0  0  0  0
   19.7446   -9.1281  -15.1321 N   0  0  0  0  0  0  0  0  0  0  0  0
   20.9427   -9.7295  -15.6811 C   0  0  0  0  0  0  0  0  0  0  0  0
   22.0099   -9.0965  -14.7739 C   0  0  0  0  0  0  0  0  0  0  0  0
   21.5690   -7.6511  -14.8140 C   0  0  0  0  0  0  0  0  0  0  0  0
   20.0746   -7.7919  -14.6836 C   0  0  1  0  0  0  0  0  0  0  0  0
   19.4198   -6.7583  -15.5483 C   0  0  0  0  0  0  0  0  0  0  0  0
   19.2131   -6.9598  -16.7698 O   0  0  0  0  0  0  0  0  0  0  0  0
   16.9119   -2.2526  -16.7825 N   0  0  0  0  0  0  0  0  0  0  0  0
   16.5973   -2.7342  -15.4828 C   0  0  0  0  0  0  0  0  0  0  0  0
   15.6689   -2.1679  -14.8533 O   0  0  0  0  0  0  0  0  0  0  0  0
   17.2964   -3.8530  -14.8406 C   0  0  0  0  0  0  0  0  0  0  0  0
   18.3597   -4.4713  -15.7235 C   0  0  2  0  0  0  0  0  0  0  0  0
   19.0205   -5.5199  -14.9863 N   0  0  0  0  0  0  0  0  0  0  0  0
   19.3444   -3.4029  -16.0099 C   0  0  0  0  0  0  0  0  0  0  0  0
   20.2620   -3.0846  -15.2043 O   0  0  0  0  0  0  0  0  0  0  0  0
   19.2662   -2.7194  -17.2042 O   0  0  0  0  0  0  0  0  0  0  0  0
  2  7  1  0
  2  1  1  1
  3  4  1  0
  3  2  1  0
  5  4  1  0
  6  5  2  0
  7  8  2  0
  9  5  1  0
 10  7  1  0
 10 14  1  0
 11 10  1  0
 12 11  1  0
 12 13  1  0
 13 14  1  0
 14 15  1  6
 15 16  2  0
 17 18  1  0
 18 20  1  0
 19 18  2  0
 21 20  1  1
 21 23  1  0
 22 21  1  0
 22 15  1  0
 23 24  2  0
 23 25  1  0
M  END
$$$$
