EPN.pdb
     RDKit          3D

 25 25  0  0  1  0  0  0  0  0999 V2000
   20.2037  -13.1835  -19.4074 N   0  0  0  0  0  0  0  0  0  0  0  0
   20.0472  -11.7548  -19.6401 C   0  0  1  0  0  0  0  0  0  0  0  0
   18.5958  -11.4220  -19.8584 C   0  0  0  0  0  0  0  0  0  0  0  0
   17.6656  -11.8773  -18.7917 C   0  0  0  0  0  0  0  0  0  0  0  0
   16.2645  -11.4871  -18.9390 C   0  0  0  0  0  0  0  0  0  0  0  0
   15.4682  -12.2439  -19.5514 O   0  0  0  0  0  0  0  0  0  0  0  0
   20.6579  -10.9660  -18.5442 C   0  0  0  0  0  0  0  0  0  0  0  0
   20.6424  -11.3965  -17.3385 O   0  0  0  0  0  0  0  0  0  0  0  0
   15.7223  -10.3030  -18.4376 O   0  0  0  0  0  0  0  0  0  0  0  0
   21.2847   -9.7129  -18.7538 N   0  0  0  0  0  0  0  0  0  0  0  0
   21.3820   -9.0593  -20.0429 C   0  0  0  0  0  0  0  0  0  0  0  0
   22.7531   -8.3785  -19.9045 C   0  0  0  0  0  0  0  0  0  0  0  0
   22.6041   -7.7578  -18.5341 C   0  0  0  0  0  0  0  0  0  0  0  0
   21.9399   -8.8750  -17.7719 C   0  0  1  0  0  0  0  0  0  0  0  0
   20.9442   -8.2805  -16.8232 C   0  0  0  0  0  0  0  0  0  0  0  0
   19.7458   -8.1071  -17.1532 O   0  0  0  0  0  0  0  0  0  0  0  0
   19.0780   -6.3356  -12.2494 N   0  0  0  0  0  0  0  0  0  0  0  0
   19.8452   -7.5267  -12.1368 C   0  0  0  0  0  0  0  0  0  0  0  0
   19.8849   -8.0986  -11.0187 O   0  0  0  0  0  0  0  0  0  0  0  0
   20.5897   -8.1211  -13.2528 C   0  0  0  0  0  0  0  0  0  0  0  0
   20.4754   -7.3210  -14.5332 C   0  0  2  0  0  0  0  0  0  0  0  0
   21.3527   -7.9002  -15.5203 N   0  0  0  0  0  0  0  0  0  0  0  0
   20.9529   -5.9543  -14.2211 C   0  0  0  0  0  0  0  0  0  0  0  0
   22.1576   -5.6036  -14.3545 O   0  0  0  0  0  0  0  0  0  0  0  0
   20.0526   -5.0158  -13.7645 O   0  0  0  0  0  0  0  0  0  0  0  0
  2  7  1  0
  2  1  1  1
  3  4  1  0
  3  2  1  0
  5  4  1  0
  6  5  2  0
  7  8  2  0
  9  5  1  0
 10  7  1  0
 10 14  1  0
 11 10  1  0
 12 11  1  0
 12 13  1  0
 13 14  1  0
 14 15  1  1
 15 16  2  0
 17 18  1  0
 18 20  1  0
 19 18  2  0
 21 20  1  1
 21 23  1  0
 22 21  1  0
 22 15  1  0
 23 24  2  0
 23 25  1  0
M  END
$$$$
