EPN.pdb
     RDKit          3D

 25 25  0  0  1  0  0  0  0  0999 V2000
   20.8711  -16.7553  -17.2056 N   0  0  0  0  0  0  0  0  0  0  0  0
   20.7352  -15.6340  -18.1244 C   0  0  1  0  0  0  0  0  0  0  0  0
   19.2850  -15.4138  -18.4610 C   0  0  0  0  0  0  0  0  0  0  0  0
   18.3428  -15.4780  -17.3128 C   0  0  0  0  0  0  0  0  0  0  0  0
   16.9275  -15.2772  -17.6193 C   0  0  0  0  0  0  0  0  0  0  0  0
   16.0741  -15.3511  -16.6983 O   0  0  0  0  0  0  0  0  0  0  0  0
   21.3893  -14.4193  -17.5835 C   0  0  0  0  0  0  0  0  0  0  0  0
   21.4504  -14.2137  -16.3213 O   0  0  0  0  0  0  0  0  0  0  0  0
   16.4318  -15.0008  -18.8941 O   0  0  0  0  0  0  0  0  0  0  0  0
   21.9767  -13.4285  -18.4085 N   0  0  0  0  0  0  0  0  0  0  0  0
   21.9746  -13.4721  -19.8565 C   0  0  0  0  0  0  0  0  0  0  0  0
   23.3387  -12.8293  -20.1540 C   0  0  0  0  0  0  0  0  0  0  0  0
   23.2705  -11.6270  -19.2401 C   0  0  0  0  0  0  0  0  0  0  0  0
   22.6805  -12.2335  -17.9935 C   0  0  1  0  0  0  0  0  0  0  0  0
   21.7398  -11.2426  -17.3787 C   0  0  0  0  0  0  0  0  0  0  0  0
   20.5174  -11.2345  -17.6629 O   0  0  0  0  0  0  0  0  0  0  0  0
   20.1438   -8.0395  -13.1938 N   0  0  0  0  0  0  0  0  0  0  0  0
   21.3921   -7.7841  -13.8236 C   0  0  0  0  0  0  0  0  0  0  0  0
   21.8720   -6.6264  -13.7328 O   0  0  0  0  0  0  0  0  0  0  0  0
   22.1465   -8.7969  -14.5707 C   0  0  0  0  0  0  0  0  0  0  0  0
   21.4057   -9.3075  -15.7886 C   0  0  2  0  0  0  0  0  0  0  0  0
   22.2294  -10.2865  -16.4540 N   0  0  0  0  0  0  0  0  0  0  0  0
   21.2282   -8.1475  -16.6918 C   0  0  0  0  0  0  0  0  0  0  0  0
   22.0002   -7.9112  -17.6615 O   0  0  0  0  0  0  0  0  0  0  0  0
   20.1783   -7.2812  -16.4748 O   0  0  0  0  0  0  0  0  0  0  0  0
  2  7  1  0
  2  1  1  1
  3  4  1  0
  3  2  1  0
  5  4  1  0
  6  5  2  0
  7  8  2  0
  9  5  1  0
 10  7  1  0
 10 14  1  0
 11 10  1  0
 12 11  1  0
 12 13  1  0
 13 14  1  0
 14 15  1  6
 15 16  2  0
 17 18  1  0
 18 20  1  0
 19 18  2  0
 21 20  1  1
 21 23  1  0
 22 21  1  0
 22 15  1  0
 23 24  2  0
 23 25  1  0
M  END
$$$$
