LTH.pdb
     RDKit          3D

 26 26  0  0  1  0  0  0  0  0999 V2000
   28.4627  -12.5506  -17.2603 C   0  0  0  0  0  0  0  0  0  0  0  0
   27.1461  -12.9886  -16.7079 C   0  0  1  0  0  0  0  0  0  0  0  0
   27.3059  -13.1896  -15.2058 C   0  0  0  0  0  0  0  0  0  0  0  0
   26.0306  -12.0128  -16.9925 C   0  0  0  0  0  0  0  0  0  0  0  0
   24.7405  -12.5822  -16.5057 C   0  0  2  0  0  0  0  0  0  0  0  0
   24.4599  -13.7996  -17.2514 N   0  0  0  0  0  0  0  0  0  0  0  0
   23.5862  -11.6776  -16.7430 C   0  0  0  0  0  0  0  0  0  0  0  0
   23.2644  -11.4076  -17.9475 O   0  0  0  0  0  0  0  0  0  0  0  0
   20.2254  -12.2293  -16.4902 C   0  0  0  0  0  0  0  0  0  0  0  0
   20.3895  -10.9885  -15.6215 C   0  0  1  0  0  0  0  0  0  0  0  0
   20.4329  -11.2939  -14.2824 O   0  0  0  0  0  0  0  0  0  0  0  0
   21.6355  -10.2294  -16.0423 C   0  0  2  0  0  0  0  0  0  0  0  0
   22.8014  -11.0807  -15.7287 N   0  0  0  0  0  0  0  0  0  0  0  0
   21.7688   -8.9109  -15.4212 C   0  0  0  0  0  0  0  0  0  0  0  0
   22.8085   -8.6474  -14.7322 O   0  0  0  0  0  0  0  0  0  0  0  0
   20.7834   -7.9237  -15.5622 N   0  0  0  0  0  0  0  0  0  0  0  0
   20.9714   -6.5507  -15.0496 C   0  0  1  0  0  0  0  0  0  0  0  0
   22.1754   -5.9224  -15.6633 C   0  0  0  0  0  0  0  0  0  0  0  0
   22.3900   -4.5690  -15.1268 C   0  0  0  0  0  0  0  0  0  0  0  0
   22.2787   -4.1471  -13.8251 C   0  0  0  0  0  0  0  0  0  0  0  0
   22.5303   -2.8144  -13.7538 N   0  0  0  0  0  0  0  0  0  0  0  0
   22.7952   -2.4023  -14.9885 C   0  0  0  0  0  0  0  0  0  0  0  0
   22.7157   -3.4531  -15.8420 N   0  0  0  0  0  0  0  0  0  0  0  0
   19.7678   -5.7930  -15.4230 C   0  0  0  0  0  0  0  0  0  0  0  0
   19.0920   -5.8971  -16.6309 O   0  0  0  0  0  0  0  0  0  0  0  0
   19.2849   -4.9700  -14.6014 O   0  0  0  0  0  0  0  0  0  0  0  0
  2  1  1  1
  2  4  1  0
  3  2  1  0
  4  5  1  0
  5  7  1  0
  5  6  1  6
  7  8  2  0
 10 12  1  0
 10  9  1  6
 11 10  1  0
 13  7  1  0
 12 13  1  1
 14 12  1  0
 14 15  2  0
 16 14  1  0
 17 16  1  0
 17 24  1  0
 17 18  1  6
 19 23  1  0
 19 18  1  0
 20 19  2  0
 21 20  1  0
 21 22  1  0
 22 23  2  0
 24 25  1  0
 26 24  2  0
M  END
$$$$
