LTH.pdb
     RDKit          3D

 26 26  0  0  1  0  0  0  0  0999 V2000
   22.0591  -13.5614  -20.7834 C   0  0  0  0  0  0  0  0  0  0  0  0
   21.4597  -12.8314  -19.6267 C   0  0  1  0  0  0  0  0  0  0  0  0
   21.7659  -13.6196  -18.3590 C   0  0  0  0  0  0  0  0  0  0  0  0
   21.9599  -11.4133  -19.4983 C   0  0  0  0  0  0  0  0  0  0  0  0
   21.3741  -10.7920  -18.2750 C   0  0  2  0  0  0  0  0  0  0  0  0
   19.9244  -10.8018  -18.3985 N   0  0  0  0  0  0  0  0  0  0  0  0
   21.7646   -9.3684  -18.1091 C   0  0  0  0  0  0  0  0  0  0  0  0
   23.0019   -9.0908  -17.9701 O   0  0  0  0  0  0  0  0  0  0  0  0
   21.5726   -6.6367  -20.4600 C   0  0  0  0  0  0  0  0  0  0  0  0
   20.8299   -6.1432  -19.2246 C   0  0  1  0  0  0  0  0  0  0  0  0
   19.4680   -6.2765  -19.3494 O   0  0  0  0  0  0  0  0  0  0  0  0
   21.3336   -6.8793  -17.9957 C   0  0  2  0  0  0  0  0  0  0  0  0
   20.8648   -8.2770  -18.0919 N   0  0  0  0  0  0  0  0  0  0  0  0
   20.9209   -6.2756  -16.7280 C   0  0  0  0  0  0  0  0  0  0  0  0
   19.7109   -6.3943  -16.3444 O   0  0  0  0  0  0  0  0  0  0  0  0
   21.8202   -5.5680  -15.9182 N   0  0  0  0  0  0  0  0  0  0  0  0
   21.3992   -4.9267  -14.6553 C   0  0  1  0  0  0  0  0  0  0  0  0
   21.8432   -5.7343  -13.4840 C   0  0  0  0  0  0  0  0  0  0  0  0
   20.9625   -6.8964  -13.2861 C   0  0  0  0  0  0  0  0  0  0  0  0
   19.8243   -7.2240  -13.9806 C   0  0  0  0  0  0  0  0  0  0  0  0
   19.2871   -8.3606  -13.4669 N   0  0  0  0  0  0  0  0  0  0  0  0
   20.0716   -8.7435  -12.4658 C   0  0  0  0  0  0  0  0  0  0  0  0
   21.0986   -7.8672  -12.3365 N   0  0  0  0  0  0  0  0  0  0  0  0
   22.0395   -3.6035  -14.6208 C   0  0  0  0  0  0  0  0  0  0  0  0
   21.6719   -2.5512  -13.7935 O   0  0  0  0  0  0  0  0  0  0  0  0
   23.0041   -3.3713  -15.3961 O   0  0  0  0  0  0  0  0  0  0  0  0
  2  1  1  6
  2  4  1  0
  3  2  1  0
  4  5  1  0
  5  7  1  0
  5  6  1  6
  7  8  2  0
 10 12  1  0
 10  9  1  6
 11 10  1  0
 13  7  1  0
 12 13  1  1
 14 12  1  0
 14 15  2  0
 16 14  1  0
 17 16  1  0
 17 24  1  0
 17 18  1  1
 19 23  1  0
 19 18  1  0
 20 19  2  0
 21 20  1  0
 21 22  1  0
 22 23  2  0
 24 25  1  0
 26 24  2  0
M  END
$$$$
