LTH.pdb
     RDKit          3D

 26 26  0  0  1  0  0  0  0  0999 V2000
   24.0293  -20.2255   -9.8320 C   0  0  0  0  0  0  0  0  0  0  0  0
   25.1858  -20.1726   -8.8887 C   0  0  1  0  0  0  0  0  0  0  0  0
   25.0075  -21.2807   -7.8580 C   0  0  0  0  0  0  0  0  0  0  0  0
   26.5204  -20.3070   -9.5802 C   0  0  0  0  0  0  0  0  0  0  0  0
   26.3715  -21.1903  -10.7732 C   0  0  2  0  0  0  0  0  0  0  0  0
   27.6491  -21.8353  -11.0352 N   0  0  0  0  0  0  0  0  0  0  0  0
   26.0283  -20.4379  -12.0073 C   0  0  0  0  0  0  0  0  0  0  0  0
   26.3143  -19.1959  -12.0600 O   0  0  0  0  0  0  0  0  0  0  0  0
   27.3429  -20.9160  -15.2238 C   0  0  0  0  0  0  0  0  0  0  0  0
   25.8492  -20.8514  -15.5171 C   0  0  1  0  0  0  0  0  0  0  0  0
   25.3173  -22.0909  -15.7795 O   0  0  0  0  0  0  0  0  0  0  0  0
   25.1273  -20.1893  -14.3568 C   0  0  2  0  0  0  0  0  0  0  0  0
   25.4005  -20.9923  -13.1472 N   0  0  0  0  0  0  0  0  0  0  0  0
   23.6874  -20.0290  -14.5637 C   0  0  0  0  0  0  0  0  0  0  0  0
   22.8764  -20.7531  -13.8979 O   0  0  0  0  0  0  0  0  0  0  0  0
   23.1702  -19.0984  -15.4757 N   0  0  0  0  0  0  0  0  0  0  0  0
   21.7211  -18.9847  -15.7417 C   0  0  1  0  0  0  0  0  0  0  0  0
   21.1405  -17.8315  -14.9974 C   0  0  0  0  0  0  0  0  0  0  0  0
   19.7242  -17.6419  -15.3489 C   0  0  0  0  0  0  0  0  0  0  0  0
   18.6617  -18.4590  -15.0516 C   0  0  0  0  0  0  0  0  0  0  0  0
   17.5244  -17.9410  -15.5833 N   0  0  0  0  0  0  0  0  0  0  0  0
   17.8629  -16.8173  -16.2054 C   0  0  0  0  0  0  0  0  0  0  0  0
   19.1976  -16.6143  -16.0764 N   0  0  0  0  0  0  0  0  0  0  0  0
   21.5740  -18.7699  -17.1889 C   0  0  0  0  0  0  0  0  0  0  0  0
   20.3840  -18.8500  -17.8991 O   0  0  0  0  0  0  0  0  0  0  0  0
   22.5944  -18.4902  -17.8717 O   0  0  0  0  0  0  0  0  0  0  0  0
  2  1  1  6
  2  4  1  0
  3  2  1  0
  4  5  1  0
  5  7  1  0
  5  6  1  6
  7  8  2  0
 10 12  1  0
 10  9  1  1
 11 10  1  0
 13  7  1  0
 12 13  1  1
 14 12  1  0
 14 15  2  0
 16 14  1  0
 17 16  1  0
 17 24  1  0
 17 18  1  1
 19 23  1  0
 19 18  1  0
 20 19  2  0
 21 20  1  0
 21 22  1  0
 22 23  2  0
 24 25  1  0
 26 24  2  0
M  END
$$$$
