LTH.pdb
     RDKit          3D

 26 26  0  0  1  0  0  0  0  0999 V2000
   32.6577  -21.1001    5.6472 C   0  0  0  0  0  0  0  0  0  0  0  0
   33.4717  -22.1816    6.2780 C   0  0  1  0  0  0  0  0  0  0  0  0
   32.5271  -23.1005    7.0430 C   0  0  0  0  0  0  0  0  0  0  0  0
   34.2809  -22.9724    5.2792 C   0  0  0  0  0  0  0  0  0  0  0  0
   34.9726  -24.0927    5.9807 C   0  0  2  0  0  0  0  0  0  0  0  0
   35.8990  -23.5305    6.9517 N   0  0  0  0  0  0  0  0  0  0  0  0
   35.7915  -24.9273    5.0643 C   0  0  0  0  0  0  0  0  0  0  0  0
   35.3029  -25.2390    3.9280 O   0  0  0  0  0  0  0  0  0  0  0  0
   39.5508  -24.5927    4.0438 C   0  0  0  0  0  0  0  0  0  0  0  0
   39.2857  -26.0083    4.5408 C   0  0  1  0  0  0  0  0  0  0  0  0
   39.7305  -26.1992    5.8268 O   0  0  0  0  0  0  0  0  0  0  0  0
   37.8039  -26.3211    4.4306 C   0  0  2  0  0  0  0  0  0  0  0  0
   37.0886  -25.4134    5.3509 N   0  0  0  0  0  0  0  0  0  0  0  0
   37.4670  -27.7182    4.7076 C   0  0  0  0  0  0  0  0  0  0  0  0
   37.0305  -28.0383    5.8618 O   0  0  0  0  0  0  0  0  0  0  0  0
   37.6096  -28.7198    3.7373 N   0  0  0  0  0  0  0  0  0  0  0  0
   37.3924  -30.1480    4.0482 C   0  0  1  0  0  0  0  0  0  0  0  0
   37.0036  -30.8983    2.8206 C   0  0  0  0  0  0  0  0  0  0  0  0
   35.5509  -30.8212    2.5987 C   0  0  0  0  0  0  0  0  0  0  0  0
   34.5888  -30.3391    3.4514 C   0  0  0  0  0  0  0  0  0  0  0  0
   33.3639  -30.4729    2.8803 N   0  0  0  0  0  0  0  0  0  0  0  0
   33.5493  -31.0299    1.6888 C   0  0  0  0  0  0  0  0  0  0  0  0
   34.8731  -31.2514    1.4950 N   0  0  0  0  0  0  0  0  0  0  0  0
   38.6676  -30.6651    4.5664 C   0  0  0  0  0  0  0  0  0  0  0  0
   39.8583  -29.9547    4.6333 O   0  0  0  0  0  0  0  0  0  0  0  0
   38.7191  -31.8495    4.9909 O   0  0  0  0  0  0  0  0  0  0  0  0
  2  1  1  6
  2  4  1  0
  3  2  1  0
  4  5  1  0
  5  7  1  0
  5  6  1  1
  7  8  2  0
 10 12  1  0
 10  9  1  1
 11 10  1  0
 13  7  1  0
 12 13  1  1
 14 12  1  0
 14 15  2  0
 16 14  1  0
 17 16  1  0
 17 24  1  0
 17 18  1  6
 19 23  1  0
 19 18  1  0
 20 19  2  0
 21 20  1  0
 21 22  1  0
 22 23  2  0
 24 25  1  0
 26 24  2  0
M  END
$$$$
