LTH.pdb
     RDKit          3D

 26 26  0  0  1  0  0  0  0  0999 V2000
   19.0831  -16.3030  -19.5871 C   0  0  0  0  0  0  0  0  0  0  0  0
   19.0898  -15.3598  -18.4293 C   0  0  1  0  0  0  0  0  0  0  0  0
   20.1310  -15.8460  -17.4284 C   0  0  0  0  0  0  0  0  0  0  0  0
   19.3716  -13.9324  -18.8302 C   0  0  0  0  0  0  0  0  0  0  0  0
   19.1099  -13.0327  -17.6693 C   0  0  2  0  0  0  0  0  0  0  0  0
   17.7815  -13.3198  -17.1499 N   0  0  0  0  0  0  0  0  0  0  0  0
   19.1046  -11.5954  -18.0447 C   0  0  0  0  0  0  0  0  0  0  0  0
   20.0990  -11.1351  -18.6978 O   0  0  0  0  0  0  0  0  0  0  0  0
   16.6341   -7.3959  -18.9018 C   0  0  0  0  0  0  0  0  0  0  0  0
   16.6668   -8.8535  -18.4597 C   0  0  1  0  0  0  0  0  0  0  0  0
   16.0649   -9.6867  -19.3718 O   0  0  0  0  0  0  0  0  0  0  0  0
   18.1018   -9.2797  -18.2048 C   0  0  2  0  0  0  0  0  0  0  0  0
   18.0725  -10.6795  -17.7335 N   0  0  0  0  0  0  0  0  0  0  0  0
   18.8188   -8.4242  -17.2581 C   0  0  0  0  0  0  0  0  0  0  0  0
   18.6500   -8.5993  -16.0067 O   0  0  0  0  0  0  0  0  0  0  0  0
   19.6903   -7.4138  -17.6877 N   0  0  0  0  0  0  0  0  0  0  0  0
   20.3776   -6.5157  -16.7366 C   0  0  1  0  0  0  0  0  0  0  0  0
   21.5014   -5.8029  -17.4075 C   0  0  0  0  0  0  0  0  0  0  0  0
   22.2079   -4.9291  -16.4574 C   0  0  0  0  0  0  0  0  0  0  0  0
   22.2619   -5.0347  -15.0895 C   0  0  0  0  0  0  0  0  0  0  0  0
   22.9954   -4.0110  -14.5810 N   0  0  0  0  0  0  0  0  0  0  0  0
   23.3968   -3.2722  -15.6093 C   0  0  0  0  0  0  0  0  0  0  0  0
   22.9293   -3.8115  -16.7625 N   0  0  0  0  0  0  0  0  0  0  0  0
   19.3750   -5.5442  -16.2749 C   0  0  0  0  0  0  0  0  0  0  0  0
   19.2126   -5.1139  -14.9652 O   0  0  0  0  0  0  0  0  0  0  0  0
   18.5794   -5.0428  -17.1122 O   0  0  0  0  0  0  0  0  0  0  0  0
  2  1  1  6
  2  4  1  0
  3  2  1  0
  4  5  1  0
  5  7  1  0
  5  6  1  6
  7  8  2  0
 10 12  1  0
 10  9  1  6
 11 10  1  0
 13  7  1  0
 12 13  1  1
 14 12  1  0
 14 15  2  0
 16 14  1  0
 17 16  1  0
 17 24  1  0
 17 18  1  6
 19 23  1  0
 19 18  1  0
 20 19  2  0
 21 20  1  0
 21 22  1  0
 22 23  2  0
 24 25  1  0
 26 24  2  0
M  END
$$$$
