LTH.pdb
     RDKit          3D

 26 26  0  0  1  0  0  0  0  0999 V2000
   21.0121  -14.8051  -21.2667 C   0  0  0  0  0  0  0  0  0  0  0  0
   21.4442  -14.8559  -19.8380 C   0  0  1  0  0  0  0  0  0  0  0  0
   20.2035  -14.7251  -18.9630 C   0  0  0  0  0  0  0  0  0  0  0  0
   22.2010  -16.1152  -19.4930 C   0  0  0  0  0  0  0  0  0  0  0  0
   22.3987  -16.1834  -18.0159 C   0  0  2  0  0  0  0  0  0  0  0  0
   23.6599  -15.5372  -17.6863 N   0  0  0  0  0  0  0  0  0  0  0  0
   22.5054  -17.5772  -17.5132 C   0  0  0  0  0  0  0  0  0  0  0  0
   23.4594  -18.3062  -17.9439 O   0  0  0  0  0  0  0  0  0  0  0  0
   24.2807  -18.9090  -16.0593 C   0  0  0  0  0  0  0  0  0  0  0  0
   23.1428  -19.4456  -15.2000 C   0  0  1  0  0  0  0  0  0  0  0  0
   22.9485  -18.6934  -14.0666 O   0  0  0  0  0  0  0  0  0  0  0  0
   21.8692  -19.5190  -16.0236 C   0  0  2  0  0  0  0  0  0  0  0  0
   21.6232  -18.1735  -16.5820 N   0  0  0  0  0  0  0  0  0  0  0  0
   20.7038  -19.9968  -15.2784 C   0  0  0  0  0  0  0  0  0  0  0  0
   19.7967  -19.1679  -14.9390 O   0  0  0  0  0  0  0  0  0  0  0  0
   20.5535  -21.3452  -14.9254 N   0  0  0  0  0  0  0  0  0  0  0  0
   19.3102  -21.8613  -14.3160 C   0  0  1  0  0  0  0  0  0  0  0  0
   18.9337  -21.0486  -13.1249 C   0  0  0  0  0  0  0  0  0  0  0  0
   17.6960  -21.5586  -12.5137 C   0  0  0  0  0  0  0  0  0  0  0  0
   17.4402  -22.8258  -12.0513 C   0  0  0  0  0  0  0  0  0  0  0  0
   16.1655  -22.8941  -11.5877 N   0  0  0  0  0  0  0  0  0  0  0  0
   15.6261  -21.6918  -11.7549 C   0  0  0  0  0  0  0  0  0  0  0  0
   16.5392  -20.8616  -12.3173 N   0  0  0  0  0  0  0  0  0  0  0  0
   18.2628  -21.7569  -15.3428 C   0  0  0  0  0  0  0  0  0  0  0  0
   17.5178  -22.8150  -15.8451 O   0  0  0  0  0  0  0  0  0  0  0  0
   17.9959  -20.6270  -15.8304 O   0  0  0  0  0  0  0  0  0  0  0  0
  2  1  1  6
  2  4  1  0
  3  2  1  0
  4  5  1  0
  5  7  1  0
  5  6  1  6
  7  8  2  0
 10 12  1  0
 10  9  1  6
 11 10  1  0
 13  7  1  0
 12 13  1  1
 14 12  1  0
 14 15  2  0
 16 14  1  0
 17 16  1  0
 17 24  1  0
 17 18  1  1
 19 23  1  0
 19 18  1  0
 20 19  2  0
 21 20  1  0
 21 22  1  0
 22 23  2  0
 24 25  1  0
 26 24  2  0
M  END
$$$$
