LTH.pdb
     RDKit          3D

 26 26  0  0  1  0  0  0  0  0999 V2000
   18.8069  -15.0656  -17.4170 C   0  0  0  0  0  0  0  0  0  0  0  0
   20.1731  -15.1303  -18.0167 C   0  0  1  0  0  0  0  0  0  0  0  0
   20.9859  -13.9627  -17.4706 C   0  0  0  0  0  0  0  0  0  0  0  0
   20.8784  -16.4361  -17.7430 C   0  0  0  0  0  0  0  0  0  0  0  0
   22.2266  -16.4122  -18.3813 C   0  0  2  0  0  0  0  0  0  0  0  0
   22.0574  -16.4687  -19.8253 N   0  0  0  0  0  0  0  0  0  0  0  0
   23.0570  -17.5887  -18.0167 C   0  0  0  0  0  0  0  0  0  0  0  0
   22.6847  -18.7415  -18.4163 O   0  0  0  0  0  0  0  0  0  0  0  0
   26.1788  -18.5347  -19.1545 C   0  0  0  0  0  0  0  0  0  0  0  0
   26.3806  -18.5962  -17.6456 C   0  0  1  0  0  0  0  0  0  0  0  0
   27.0542  -17.4985  -17.1664 O   0  0  0  0  0  0  0  0  0  0  0  0
   25.0371  -18.7486  -16.9546 C   0  0  2  0  0  0  0  0  0  0  0  0
   24.2452  -17.5371  -17.2509 N   0  0  0  0  0  0  0  0  0  0  0  0
   25.1306  -18.9720  -15.5113 C   0  0  0  0  0  0  0  0  0  0  0  0
   24.9674  -17.9896  -14.7154 O   0  0  0  0  0  0  0  0  0  0  0  0
   25.3947  -20.2398  -14.9746 N   0  0  0  0  0  0  0  0  0  0  0  0
   25.4744  -20.4724  -13.5175 C   0  0  1  0  0  0  0  0  0  0  0  0
   24.1601  -20.1988  -12.8704 C   0  0  0  0  0  0  0  0  0  0  0  0
   24.2051  -20.5257  -11.4364 C   0  0  0  0  0  0  0  0  0  0  0  0
   25.3045  -20.8263  -10.6709 C   0  0  0  0  0  0  0  0  0  0  0  0
   24.9148  -21.0973   -9.3984 N   0  0  0  0  0  0  0  0  0  0  0  0
   23.5931  -20.9705   -9.3613 C   0  0  0  0  0  0  0  0  0  0  0  0
   23.1382  -20.6230  -10.5908 N   0  0  0  0  0  0  0  0  0  0  0  0
   25.8358  -21.8860  -13.3356 C   0  0  0  0  0  0  0  0  0  0  0  0
   26.5300  -22.4079  -12.2527 O   0  0  0  0  0  0  0  0  0  0  0  0
   25.5048  -22.7197  -14.2193 O   0  0  0  0  0  0  0  0  0  0  0  0
  2  1  1  1
  2  4  1  0
  3  2  1  0
  4  5  1  0
  5  7  1  0
  5  6  1  6
  7  8  2  0
 10 12  1  0
 10  9  1  6
 11 10  1  0
 13  7  1  0
 12 13  1  1
 14 12  1  0
 14 15  2  0
 16 14  1  0
 17 16  1  0
 17 24  1  0
 17 18  1  1
 19 23  1  0
 19 18  1  0
 20 19  2  0
 21 20  1  0
 21 22  1  0
 22 23  2  0
 24 25  1  0
 26 24  2  0
M  END
$$$$
