LTH.pdb
     RDKit          3D

 26 26  0  0  1  0  0  0  0  0999 V2000
   15.8484  -18.5364  -16.8088 C   0  0  0  0  0  0  0  0  0  0  0  0
   17.3181  -18.3113  -16.9483 C   0  0  1  0  0  0  0  0  0  0  0  0
   17.7136  -18.6397  -18.3828 C   0  0  0  0  0  0  0  0  0  0  0  0
   17.7376  -16.9052  -16.5956 C   0  0  0  0  0  0  0  0  0  0  0  0
   19.2238  -16.7996  -16.6717 C   0  0  2  0  0  0  0  0  0  0  0  0
   19.8018  -17.6219  -15.6198 N   0  0  0  0  0  0  0  0  0  0  0  0
   19.7157  -15.4183  -16.4331 C   0  0  0  0  0  0  0  0  0  0  0  0
   19.8192  -15.0107  -15.2288 O   0  0  0  0  0  0  0  0  0  0  0  0
   21.9032  -11.2381  -17.9494 C   0  0  0  0  0  0  0  0  0  0  0  0
   21.4975  -12.6875  -18.1862 C   0  0  1  0  0  0  0  0  0  0  0  0
   22.5794  -13.5346  -18.1971 O   0  0  0  0  0  0  0  0  0  0  0  0
   20.4880  -13.1153  -17.1356 C   0  0  2  0  0  0  0  0  0  0  0  0
   20.0848  -14.5023  -17.4458 N   0  0  0  0  0  0  0  0  0  0  0  0
   19.3191  -12.2399  -17.0403 C   0  0  0  0  0  0  0  0  0  0  0  0
   18.1833  -12.6703  -17.4276 O   0  0  0  0  0  0  0  0  0  0  0  0
   19.4106  -10.9363  -16.5330 N   0  0  0  0  0  0  0  0  0  0  0  0
   18.2198  -10.0796  -16.3554 C   0  0  1  0  0  0  0  0  0  0  0  0
   17.2483  -10.7191  -15.4236 C   0  0  0  0  0  0  0  0  0  0  0  0
   16.0319   -9.9012  -15.2939 C   0  0  0  0  0  0  0  0  0  0  0  0
   15.5105   -9.0103  -16.1992 C   0  0  0  0  0  0  0  0  0  0  0  0
   14.3913   -8.4385  -15.6846 N   0  0  0  0  0  0  0  0  0  0  0  0
   14.2096   -8.9587  -14.4760 C   0  0  0  0  0  0  0  0  0  0  0  0
   15.1964   -9.8519  -14.2159 N   0  0  0  0  0  0  0  0  0  0  0  0
   18.6952   -8.8097  -15.7866 C   0  0  0  0  0  0  0  0  0  0  0  0
   17.9532   -7.6404  -15.6925 O   0  0  0  0  0  0  0  0  0  0  0  0
   19.8708   -8.7425  -15.3406 O   0  0  0  0  0  0  0  0  0  0  0  0
  2  1  1  6
  2  4  1  0
  3  2  1  0
  4  5  1  0
  5  7  1  0
  5  6  1  1
  7  8  2  0
 10 12  1  0
 10  9  1  1
 11 10  1  0
 13  7  1  0
 12 13  1  6
 14 12  1  0
 14 15  2  0
 16 14  1  0
 17 16  1  0
 17 24  1  0
 17 18  1  1
 19 23  1  0
 19 18  1  0
 20 19  2  0
 21 20  1  0
 21 22  1  0
 22 23  2  0
 24 25  1  0
 26 24  2  0
M  END
$$$$
