LTH.pdb
     RDKit          3D

 26 26  0  0  1  0  0  0  0  0999 V2000
   17.9557  -12.3804    3.1534 C   0  0  0  0  0  0  0  0  0  0  0  0
   18.1692  -12.0280    4.5889 C   0  0  1  0  0  0  0  0  0  0  0  0
   16.8356  -12.1642    5.3134 C   0  0  0  0  0  0  0  0  0  0  0  0
   19.2206  -12.8795    5.2574 C   0  0  0  0  0  0  0  0  0  0  0  0
   19.3532  -12.4694    6.6856 C   0  0  2  0  0  0  0  0  0  0  0  0
   20.3824  -11.4454    6.7806 N   0  0  0  0  0  0  0  0  0  0  0  0
   19.7956  -13.5819    7.5651 C   0  0  0  0  0  0  0  0  0  0  0  0
   21.0264  -13.9166    7.5477 O   0  0  0  0  0  0  0  0  0  0  0  0
   20.3871  -13.9471   10.9678 C   0  0  0  0  0  0  0  0  0  0  0  0
   19.3846  -15.0605   10.6909 C   0  0  1  0  0  0  0  0  0  0  0  0
   18.1046  -14.7067   11.0440 O   0  0  0  0  0  0  0  0  0  0  0  0
   19.4502  -15.4566    9.2265 C   0  0  2  0  0  0  0  0  0  0  0  0
   18.9525  -14.3133    8.4343 N   0  0  0  0  0  0  0  0  0  0  0  0
   18.7094  -16.6772    8.9050 C   0  0  0  0  0  0  0  0  0  0  0  0
   17.5192  -16.5858    8.4574 O   0  0  0  0  0  0  0  0  0  0  0  0
   19.2718  -17.9501    9.0745 N   0  0  0  0  0  0  0  0  0  0  0  0
   18.5036  -19.1861    8.8184 C   0  0  1  0  0  0  0  0  0  0  0  0
   18.8061  -19.7192    7.4599 C   0  0  0  0  0  0  0  0  0  0  0  0
   17.7496  -19.3480    6.5053 C   0  0  0  0  0  0  0  0  0  0  0  0
   16.6234  -18.5980    6.7385 C   0  0  0  0  0  0  0  0  0  0  0  0
   15.8887  -18.5110    5.5997 N   0  0  0  0  0  0  0  0  0  0  0  0
   16.5389  -19.1942    4.6644 C   0  0  0  0  0  0  0  0  0  0  0  0
   17.6752  -19.7132    5.1923 N   0  0  0  0  0  0  0  0  0  0  0  0
   18.9180  -20.1591    9.8400 C   0  0  0  0  0  0  0  0  0  0  0  0
   18.3171  -21.3884   10.0735 O   0  0  0  0  0  0  0  0  0  0  0  0
   19.8954  -19.8840   10.5846 O   0  0  0  0  0  0  0  0  0  0  0  0
  2  1  1  6
  2  4  1  0
  3  2  1  0
  4  5  1  0
  5  7  1  0
  5  6  1  6
  7  8  2  0
 10 12  1  0
 10  9  1  6
 11 10  1  0
 13  7  1  0
 12 13  1  6
 14 12  1  0
 14 15  2  0
 16 14  1  0
 17 16  1  0
 17 24  1  0
 17 18  1  6
 19 23  1  0
 19 18  1  0
 20 19  2  0
 21 20  1  0
 21 22  1  0
 22 23  2  0
 24 25  1  0
 26 24  2  0
M  END
$$$$
