LTH.pdb
     RDKit          3D

 26 26  0  0  1  0  0  0  0  0999 V2000
   26.4493  -19.9293  -18.3203 C   0  0  0  0  0  0  0  0  0  0  0  0
   25.8544  -21.2975  -18.3864 C   0  0  1  0  0  0  0  0  0  0  0  0
   25.3244  -21.5159  -19.7983 C   0  0  0  0  0  0  0  0  0  0  0  0
   26.8318  -22.3864  -18.0170 C   0  0  0  0  0  0  0  0  0  0  0  0
   26.9280  -22.4803  -16.5312 C   0  0  2  0  0  0  0  0  0  0  0  0
   27.8107  -23.5861  -16.1924 N   0  0  0  0  0  0  0  0  0  0  0  0
   25.6233  -22.7816  -15.8879 C   0  0  0  0  0  0  0  0  0  0  0  0
   25.1691  -23.9711  -15.9652 O   0  0  0  0  0  0  0  0  0  0  0  0
   24.9104  -23.1801  -12.6406 C   0  0  0  0  0  0  0  0  0  0  0  0
   23.8218  -22.1823  -13.0158 C   0  0  1  0  0  0  0  0  0  0  0  0
   24.1286  -20.9040  -12.6158 O   0  0  0  0  0  0  0  0  0  0  0  0
   23.5731  -22.2340  -14.5129 C   0  0  2  0  0  0  0  0  0  0  0  0
   24.8295  -21.8448  -15.1856 N   0  0  0  0  0  0  0  0  0  0  0  0
   22.4591  -21.3976  -14.9617 C   0  0  0  0  0  0  0  0  0  0  0  0
   22.6833  -20.1906  -15.3054 O   0  0  0  0  0  0  0  0  0  0  0  0
   21.1467  -21.8859  -15.0261 N   0  0  0  0  0  0  0  0  0  0  0  0
   20.0105  -21.0282  -15.4222 C   0  0  1  0  0  0  0  0  0  0  0  0
   19.1359  -21.7354  -16.4000 C   0  0  0  0  0  0  0  0  0  0  0  0
   19.7650  -21.7772  -17.7296 C   0  0  0  0  0  0  0  0  0  0  0  0
   20.1024  -20.7215  -18.5400 C   0  0  0  0  0  0  0  0  0  0  0  0
   20.6354  -21.1874  -19.6989 N   0  0  0  0  0  0  0  0  0  0  0  0
   20.6342  -22.5135  -19.6219 C   0  0  0  0  0  0  0  0  0  0  0  0
   20.1087  -22.8961  -18.4316 N   0  0  0  0  0  0  0  0  0  0  0  0
   19.2542  -20.7375  -14.1952 C   0  0  0  0  0  0  0  0  0  0  0  0
   18.3350  -19.7091  -14.0392 O   0  0  0  0  0  0  0  0  0  0  0  0
   19.4335  -21.4620  -13.1811 O   0  0  0  0  0  0  0  0  0  0  0  0
  2  1  1  6
  2  4  1  0
  3  2  1  0
  4  5  1  0
  5  7  1  0
  5  6  1  6
  7  8  2  0
 10 12  1  0
 10  9  1  6
 11 10  1  0
 13  7  1  0
 12 13  1  6
 14 12  1  0
 14 15  2  0
 16 14  1  0
 17 16  1  0
 17 24  1  0
 17 18  1  6
 19 23  1  0
 19 18  1  0
 20 19  2  0
 21 20  1  0
 21 22  1  0
 22 23  2  0
 24 25  1  0
 26 24  2  0
M  END
$$$$
