LTH.pdb
     RDKit          3D

 26 26  0  0  1  0  0  0  0  0999 V2000
   24.2787  -17.4476  -16.7226 C   0  0  0  0  0  0  0  0  0  0  0  0
   23.8475  -18.7853  -16.2175 C   0  0  1  0  0  0  0  0  0  0  0  0
   25.0339  -19.4300  -15.5113 C   0  0  0  0  0  0  0  0  0  0  0  0
   22.6590  -18.7128  -15.2903 C   0  0  0  0  0  0  0  0  0  0  0  0
   22.2947  -20.0896  -14.8461 C   0  0  2  0  0  0  0  0  0  0  0  0
   21.9621  -20.8829  -16.0195 N   0  0  0  0  0  0  0  0  0  0  0  0
   21.0906  -20.1141  -13.9764 C   0  0  0  0  0  0  0  0  0  0  0  0
   20.2923  -19.1201  -14.0173 O   0  0  0  0  0  0  0  0  0  0  0  0
   18.4802  -20.0299  -14.4090 C   0  0  0  0  0  0  0  0  0  0  0  0
   18.3832  -21.2929  -13.5623 C   0  0  1  0  0  0  0  0  0  0  0  0
   18.5224  -22.4345  -14.3144 O   0  0  0  0  0  0  0  0  0  0  0  0
   19.4200  -21.2476  -12.4538 C   0  0  2  0  0  0  0  0  0  0  0  0
   20.7497  -21.1644  -13.0923 N   0  0  0  0  0  0  0  0  0  0  0  0
   19.3541  -22.3800  -11.5289 C   0  0  0  0  0  0  0  0  0  0  0  0
   19.9676  -23.4593  -11.8186 O   0  0  0  0  0  0  0  0  0  0  0  0
   18.6341  -22.3132  -10.3280 N   0  0  0  0  0  0  0  0  0  0  0  0
   18.6278  -23.4260   -9.3558 C   0  0  1  0  0  0  0  0  0  0  0  0
   18.1444  -22.9575   -8.0261 C   0  0  0  0  0  0  0  0  0  0  0  0
   18.1540  -24.0576   -7.0489 C   0  0  0  0  0  0  0  0  0  0  0  0
   19.1282  -25.0043   -6.8496 C   0  0  0  0  0  0  0  0  0  0  0  0
   18.7390  -25.8612   -5.8705 N   0  0  0  0  0  0  0  0  0  0  0  0
   17.5404  -25.4629   -5.4592 C   0  0  0  0  0  0  0  0  0  0  0  0
   17.1632  -24.3663   -6.1624 N   0  0  0  0  0  0  0  0  0  0  0  0
   17.7125  -24.4459   -9.8887 C   0  0  0  0  0  0  0  0  0  0  0  0
   16.6038  -24.1968  -10.6860 O   0  0  0  0  0  0  0  0  0  0  0  0
   17.9220  -25.6572   -9.6157 O   0  0  0  0  0  0  0  0  0  0  0  0
  2  1  1  1
  2  4  1  0
  3  2  1  0
  4  5  1  0
  5  7  1  0
  5  6  1  6
  7  8  2  0
 10 12  1  0
 10  9  1  6
 11 10  1  0
 13  7  1  0
 12 13  1  6
 14 12  1  0
 14 15  2  0
 16 14  1  0
 17 16  1  0
 17 24  1  0
 17 18  1  1
 19 23  1  0
 19 18  1  0
 20 19  2  0
 21 20  1  0
 21 22  1  0
 22 23  2  0
 24 25  1  0
 26 24  2  0
M  END
$$$$
