YKL.pdb
     RDKit          3D

 30 30  0  0  1  0  0  0  0  0999 V2000
   10.4568  -16.6563   32.4723 O   0  0  0  0  0  0  0  0  0  0  0  0
    9.8857  -16.8409   31.2108 C   0  0  0  0  0  0  0  0  0  0  0  0
    9.8864  -15.8287   30.2768 C   0  0  0  0  0  0  0  0  0  0  0  0
    9.3290  -15.9882   29.0268 C   0  0  0  0  0  0  0  0  0  0  0  0
    8.7402  -17.1852   28.6572 C   0  0  0  0  0  0  0  0  0  0  0  0
    8.1550  -17.2967   27.2905 C   0  0  0  0  0  0  0  0  0  0  0  0
    7.8866  -18.7626   26.9267 C   0  0  2  0  0  0  0  0  0  0  0  0
    8.8994  -19.5478   27.5681 N   0  0  0  0  0  0  0  0  0  0  0  0
    7.9474  -18.9914   25.4641 C   0  0  0  0  0  0  0  0  0  0  0  0
    8.8710  -19.6839   24.9305 O   0  0  0  0  0  0  0  0  0  0  0  0
    8.7267  -18.2128   29.5732 C   0  0  0  0  0  0  0  0  0  0  0  0
    9.2977  -18.0300   30.8361 C   0  0  0  0  0  0  0  0  0  0  0  0
    6.9885  -18.4635   24.5447 N   0  0  0  0  0  0  0  0  0  0  0  0
    7.3237  -18.0842   23.1989 C   0  0  1  0  0  0  0  0  0  0  0  0
    6.0939  -17.6950   22.3982 C   0  0  0  0  0  0  0  0  0  0  0  0
    6.3487  -17.7123   20.9154 C   0  0  0  0  0  0  0  0  0  0  0  0
    5.8612  -16.3601   20.3836 C   0  0  0  0  0  0  0  0  0  0  0  0
    6.0930  -16.2576   18.8915 C   0  0  0  0  0  0  0  0  0  0  0  0
    5.9077  -17.5937   18.3487 N   0  0  0  0  0  0  0  0  0  0  0  0
    8.1919  -16.8650   23.2146 C   0  0  0  0  0  0  0  0  0  0  0  0
    8.7210  -16.4893   22.1385 O   0  0  0  0  0  0  0  0  0  0  0  0
    7.0943  -12.9446   23.7208 C   0  0  0  0  0  0  0  0  0  0  0  0
    7.2328  -13.6150   25.0932 C   0  0  2  0  0  0  0  0  0  0  0  0
    6.5874  -12.7577   26.1291 C   0  0  0  0  0  0  0  0  0  0  0  0
    8.6716  -13.9240   25.3873 C   0  0  0  0  0  0  0  0  0  0  0  0
    9.2323  -14.9137   24.4430 C   0  0  2  0  0  0  0  0  0  0  0  0
    8.4173  -16.1411   24.4227 N   0  0  0  0  0  0  0  0  0  0  0  0
   10.6318  -15.2209   24.7057 C   0  0  0  0  0  0  0  0  0  0  0  0
   10.9028  -16.4043   25.1095 O   0  0  0  0  0  0  0  0  0  0  0  0
   11.7265  -14.3983   24.5737 O   0  0  0  0  0  0  0  0  0  0  0  0
  1  2  1  0
  2  3  2  0
  3  4  1  0
  5  4  2  0
  5  6  1  0
  7  6  1  0
  7  8  1  1
  9  7  1  0
 10  9  2  0
 11  5  1  0
 12  2  1  0
 12 11  2  0
 13  9  1  0
 14 13  1  0
 15 16  1  0
 14 15  1  6
 17 16  1  0
 18 17  1  0
 19 18  1  0
 20 21  2  0
 20 14  1  0
 23 22  1  6
 23 25  1  0
 24 23  1  0
 26 25  1  1
 26 27  1  0
 27 20  1  0
 28 30  1  0
 28 26  1  0
 29 28  2  0
M  END
$$$$
