YKL.pdb
     RDKit          3D

 30 30  0  0  1  0  0  0  0  0999 V2000
   10.4196  -14.1507   30.6226 O   0  0  0  0  0  0  0  0  0  0  0  0
   10.1151  -14.7631   29.4045 C   0  0  0  0  0  0  0  0  0  0  0  0
    9.2744  -14.1580   28.4968 C   0  0  0  0  0  0  0  0  0  0  0  0
    8.9602  -14.7434   27.2897 C   0  0  0  0  0  0  0  0  0  0  0  0
    9.4830  -15.9760   26.9385 C   0  0  0  0  0  0  0  0  0  0  0  0
    9.1063  -16.5572   25.6182 C   0  0  0  0  0  0  0  0  0  0  0  0
    7.9828  -17.5901   25.7740 C   0  0  2  0  0  0  0  0  0  0  0  0
    8.4719  -18.6156   26.6475 N   0  0  0  0  0  0  0  0  0  0  0  0
    7.6028  -18.1966   24.4768 C   0  0  0  0  0  0  0  0  0  0  0  0
    8.4655  -18.4608   23.5806 O   0  0  0  0  0  0  0  0  0  0  0  0
   10.3263  -16.6016   27.8287 C   0  0  0  0  0  0  0  0  0  0  0  0
   10.6322  -15.9903   29.0483 C   0  0  0  0  0  0  0  0  0  0  0  0
    6.2574  -18.5319   24.1293 N   0  0  0  0  0  0  0  0  0  0  0  0
    5.7271  -18.3591   22.8040 C   0  0  1  0  0  0  0  0  0  0  0  0
    4.2195  -18.1799   22.8172 C   0  0  0  0  0  0  0  0  0  0  0  0
    3.6386  -18.1267   21.4302 C   0  0  0  0  0  0  0  0  0  0  0  0
    2.6636  -19.3053   21.3313 C   0  0  0  0  0  0  0  0  0  0  0  0
    1.9658  -19.3103   19.9884 C   0  0  0  0  0  0  0  0  0  0  0  0
    0.9690  -20.3676   20.0412 N   0  0  0  0  0  0  0  0  0  0  0  0
    6.2727  -17.1046   22.1967 C   0  0  0  0  0  0  0  0  0  0  0  0
    5.4748  -16.3090   21.6403 O   0  0  0  0  0  0  0  0  0  0  0  0
    6.9405  -12.6140   22.3542 C   0  0  0  0  0  0  0  0  0  0  0  0
    7.5998  -13.9934   22.4751 C   0  0  2  0  0  0  0  0  0  0  0  0
    8.9170  -13.8529   23.1606 C   0  0  0  0  0  0  0  0  0  0  0  0
    7.6951  -14.6531   21.1305 C   0  0  0  0  0  0  0  0  0  0  0  0
    8.3187  -15.9911   21.2102 C   0  0  2  0  0  0  0  0  0  0  0  0
    7.6681  -16.8133   22.2455 N   0  0  0  0  0  0  0  0  0  0  0  0
    9.7596  -15.9355   21.4170 C   0  0  0  0  0  0  0  0  0  0  0  0
   10.4491  -15.2994   20.5471 O   0  0  0  0  0  0  0  0  0  0  0  0
   10.4972  -16.4811   22.4420 O   0  0  0  0  0  0  0  0  0  0  0  0
  1  2  1  0
  2  3  2  0
  3  4  1  0
  5  4  2  0
  5  6  1  0
  7  6  1  0
  7  8  1  1
  9  7  1  0
 10  9  2  0
 11  5  1  0
 12  2  1  0
 12 11  2  0
 13  9  1  0
 14 13  1  0
 15 16  1  0
 14 15  1  1
 17 16  1  0
 18 17  1  0
 19 18  1  0
 20 21  2  0
 20 14  1  0
 23 22  1  6
 23 25  1  0
 24 23  1  0
 26 25  1  1
 26 27  1  0
 27 20  1  0
 28 30  1  0
 28 26  1  0
 29 28  2  0
M  END
$$$$
