YKL.pdb
     RDKit          3D

 30 30  0  0  1  0  0  0  0  0999 V2000
    9.1248  -13.7019   15.9431 O   0  0  0  0  0  0  0  0  0  0  0  0
    8.6782  -14.0194   17.2281 C   0  0  0  0  0  0  0  0  0  0  0  0
    7.6780  -13.2901   17.8320 C   0  0  0  0  0  0  0  0  0  0  0  0
    7.2219  -13.5851   19.0983 C   0  0  0  0  0  0  0  0  0  0  0  0
    7.7572  -14.6376   19.8207 C   0  0  0  0  0  0  0  0  0  0  0  0
    7.2211  -14.9076   21.1855 C   0  0  0  0  0  0  0  0  0  0  0  0
    6.8035  -16.3766   21.3300 C   0  0  2  0  0  0  0  0  0  0  0  0
    5.5942  -16.5463   20.5800 N   0  0  0  0  0  0  0  0  0  0  0  0
    6.5553  -16.7465   22.7431 C   0  0  0  0  0  0  0  0  0  0  0  0
    5.5020  -16.3847   23.3569 O   0  0  0  0  0  0  0  0  0  0  0  0
    8.7584  -15.3822   19.2391 C   0  0  0  0  0  0  0  0  0  0  0  0
    9.2066  -15.0660   17.9532 C   0  0  0  0  0  0  0  0  0  0  0  0
    7.4627  -17.5292   23.5224 N   0  0  0  0  0  0  0  0  0  0  0  0
    7.3974  -17.6026   24.9569 C   0  0  1  0  0  0  0  0  0  0  0  0
    7.9061  -18.9345   25.4787 C   0  0  0  0  0  0  0  0  0  0  0  0
    7.8988  -18.9995   26.9819 C   0  0  0  0  0  0  0  0  0  0  0  0
    8.2969  -20.4335   27.3483 C   0  0  0  0  0  0  0  0  0  0  0  0
    8.3747  -20.5993   28.8506 C   0  0  0  0  0  0  0  0  0  0  0  0
    8.9183  -21.9255   29.0955 N   0  0  0  0  0  0  0  0  0  0  0  0
    8.2948  -16.5683   25.5613 C   0  0  0  0  0  0  0  0  0  0  0  0
    9.5022  -16.5423   25.2140 O   0  0  0  0  0  0  0  0  0  0  0  0
    7.9744  -12.4104   25.3758 C   0  0  0  0  0  0  0  0  0  0  0  0
    7.1016  -12.9175   26.5304 C   0  0  2  0  0  0  0  0  0  0  0  0
    6.1950  -11.8226   26.9821 C   0  0  0  0  0  0  0  0  0  0  0  0
    7.9545  -13.4772   27.6311 C   0  0  0  0  0  0  0  0  0  0  0  0
    8.6906  -14.6861   27.2044 C   0  0  2  0  0  0  0  0  0  0  0  0
    7.7953  -15.6294   26.5117 N   0  0  0  0  0  0  0  0  0  0  0  0
    9.3918  -15.3413   28.3003 C   0  0  0  0  0  0  0  0  0  0  0  0
    8.9471  -16.4797   28.6788 O   0  0  0  0  0  0  0  0  0  0  0  0
   10.4916  -14.8977   28.9975 O   0  0  0  0  0  0  0  0  0  0  0  0
  1  2  1  0
  2  3  2  0
  3  4  1  0
  5  4  2  0
  5  6  1  0
  7  6  1  0
  7  8  1  6
  9  7  1  0
 10  9  2  0
 11  5  1  0
 12  2  1  0
 12 11  2  0
 13  9  1  0
 14 13  1  0
 15 16  1  0
 14 15  1  1
 17 16  1  0
 18 17  1  0
 19 18  1  0
 20 21  2  0
 20 14  1  0
 23 22  1  6
 23 25  1  0
 24 23  1  0
 26 25  1  1
 26 27  1  0
 27 20  1  0
 28 30  1  0
 28 26  1  0
 29 28  2  0
M  END
$$$$
