YKL.pdb
     RDKit          3D

 30 30  0  0  1  0  0  0  0  0999 V2000
    4.7060   -9.8926   26.1961 O   0  0  0  0  0  0  0  0  0  0  0  0
    5.4245  -11.0896   26.1453 C   0  0  0  0  0  0  0  0  0  0  0  0
    6.3964  -11.2936   25.1910 C   0  0  0  0  0  0  0  0  0  0  0  0
    7.1173  -12.4659   25.1220 C   0  0  0  0  0  0  0  0  0  0  0  0
    6.8901  -13.4953   26.0191 C   0  0  0  0  0  0  0  0  0  0  0  0
    7.7030  -14.7389   25.8938 C   0  0  0  0  0  0  0  0  0  0  0  0
    7.0832  -15.6985   24.8697 C   0  0  2  0  0  0  0  0  0  0  0  0
    5.9143  -16.2638   25.4762 N   0  0  0  0  0  0  0  0  0  0  0  0
    8.0140  -16.7895   24.4975 C   0  0  0  0  0  0  0  0  0  0  0  0
    8.1281  -17.8437   25.1995 O   0  0  0  0  0  0  0  0  0  0  0  0
    5.9236  -13.3160   26.9828 C   0  0  0  0  0  0  0  0  0  0  0  0
    5.2035  -12.1188   27.0353 C   0  0  0  0  0  0  0  0  0  0  0  0
    8.8472  -16.7508   23.3366 N   0  0  0  0  0  0  0  0  0  0  0  0
   10.1182  -17.4194   23.2652 C   0  0  1  0  0  0  0  0  0  0  0  0
   10.8747  -17.0620   21.9983 C   0  0  0  0  0  0  0  0  0  0  0  0
   12.0940  -17.9209   21.7997 C   0  0  0  0  0  0  0  0  0  0  0  0
   12.5397  -17.6991   20.3501 C   0  0  0  0  0  0  0  0  0  0  0  0
   13.7220  -18.5820   20.0135 C   0  0  0  0  0  0  0  0  0  0  0  0
   14.1209  -18.2441   18.6567 N   0  0  0  0  0  0  0  0  0  0  0  0
   10.9940  -16.9704   24.3930 C   0  0  0  0  0  0  0  0  0  0  0  0
   11.7827  -16.0119   24.1974 O   0  0  0  0  0  0  0  0  0  0  0  0
   11.1848  -14.5017   27.3472 C   0  0  0  0  0  0  0  0  0  0  0  0
   10.3655  -15.7250   27.7764 C   0  0  2  0  0  0  0  0  0  0  0  0
    9.5620  -15.3820   28.9852 C   0  0  0  0  0  0  0  0  0  0  0  0
   11.2575  -16.9160   27.9720 C   0  0  0  0  0  0  0  0  0  0  0  0
   11.9271  -17.3215   26.7179 C   0  0  2  0  0  0  0  0  0  0  0  0
   10.9385  -17.6134   25.6649 N   0  0  0  0  0  0  0  0  0  0  0  0
   12.8431  -18.4397   26.8981 C   0  0  0  0  0  0  0  0  0  0  0  0
   12.4904  -19.5670   26.4064 O   0  0  0  0  0  0  0  0  0  0  0  0
   14.0626  -18.4511   27.5345 O   0  0  0  0  0  0  0  0  0  0  0  0
  1  2  1  0
  2  3  2  0
  3  4  1  0
  5  4  2  0
  5  6  1  0
  7  6  1  0
  7  8  1  1
  9  7  1  0
 10  9  2  0
 11  5  1  0
 12  2  1  0
 12 11  2  0
 13  9  1  0
 14 13  1  0
 15 16  1  0
 14 15  1  6
 17 16  1  0
 18 17  1  0
 19 18  1  0
 20 21  2  0
 20 14  1  0
 23 22  1  1
 23 25  1  0
 24 23  1  0
 26 25  1  1
 26 27  1  0
 27 20  1  0
 28 30  1  0
 28 26  1  0
 29 28  2  0
M  END
$$$$
