YKL.pdb
     RDKit          3D

 30 30  0  0  1  0  0  0  0  0999 V2000
    8.8237  -12.9373   15.9896 O   0  0  0  0  0  0  0  0  0  0  0  0
    8.4517  -13.3869   17.2589 C   0  0  0  0  0  0  0  0  0  0  0  0
    7.1849  -13.1590   17.7491 C   0  0  0  0  0  0  0  0  0  0  0  0
    6.7962  -13.5931   18.9978 C   0  0  0  0  0  0  0  0  0  0  0  0
    7.6734  -14.2826   19.8169 C   0  0  0  0  0  0  0  0  0  0  0  0
    7.1936  -14.7271   21.1567 C   0  0  0  0  0  0  0  0  0  0  0  0
    7.1924  -16.2578   21.2589 C   0  0  2  0  0  0  0  0  0  0  0  0
    6.0775  -16.7300   20.4924 N   0  0  0  0  0  0  0  0  0  0  0  0
    7.0506  -16.7203   22.6593 C   0  0  0  0  0  0  0  0  0  0  0  0
    5.9427  -16.6525   23.2800 O   0  0  0  0  0  0  0  0  0  0  0  0
    8.9458  -14.5233   19.3498 C   0  0  0  0  0  0  0  0  0  0  0  0
    9.3200  -14.0741   18.0798 C   0  0  0  0  0  0  0  0  0  0  0  0
    8.1283  -17.2738   23.4180 N   0  0  0  0  0  0  0  0  0  0  0  0
    8.0580  -17.4790   24.8394 C   0  0  1  0  0  0  0  0  0  0  0  0
    8.6199  -18.8302   25.2440 C   0  0  0  0  0  0  0  0  0  0  0  0
    8.4992  -19.0791   26.7230 C   0  0  0  0  0  0  0  0  0  0  0  0
    9.1002  -20.4670   26.9717 C   0  0  0  0  0  0  0  0  0  0  0  0
    9.0532  -20.8136   28.4442 C   0  0  0  0  0  0  0  0  0  0  0  0
    7.9138  -21.6982   28.6275 N   0  0  0  0  0  0  0  0  0  0  0  0
    8.9072  -16.4669   25.5428 C   0  0  0  0  0  0  0  0  0  0  0  0
   10.1159  -16.3636   25.2152 O   0  0  0  0  0  0  0  0  0  0  0  0
    8.0925  -12.5851   25.3268 C   0  0  0  0  0  0  0  0  0  0  0  0
    7.3762  -13.0854   26.5873 C   0  0  2  0  0  0  0  0  0  0  0  0
    6.3900  -12.0599   27.0348 C   0  0  0  0  0  0  0  0  0  0  0  0
    8.3710  -13.4580   27.6474 C   0  0  0  0  0  0  0  0  0  0  0  0
    9.1846  -14.6298   27.2596 C   0  0  2  0  0  0  0  0  0  0  0  0
    8.3610  -15.6345   26.5641 N   0  0  0  0  0  0  0  0  0  0  0  0
    9.8959  -15.2251   28.3829 C   0  0  0  0  0  0  0  0  0  0  0  0
    9.4991  -16.3746   28.7806 O   0  0  0  0  0  0  0  0  0  0  0  0
   10.9601  -14.7131   29.0883 O   0  0  0  0  0  0  0  0  0  0  0  0
  1  2  1  0
  2  3  2  0
  3  4  1  0
  5  4  2  0
  5  6  1  0
  7  6  1  0
  7  8  1  6
  9  7  1  0
 10  9  2  0
 11  5  1  0
 12  2  1  0
 12 11  2  0
 13  9  1  0
 14 13  1  0
 15 16  1  0
 14 15  1  6
 17 16  1  0
 18 17  1  0
 19 18  1  0
 20 21  2  0
 20 14  1  0
 23 22  1  6
 23 25  1  0
 24 23  1  0
 26 25  1  1
 26 27  1  0
 27 20  1  0
 28 30  1  0
 28 26  1  0
 29 28  2  0
M  END
$$$$
