YKL.pdb
     RDKit          3D

 30 30  0  0  1  0  0  0  0  0999 V2000
    8.3457  -19.0835   27.7570 O   0  0  0  0  0  0  0  0  0  0  0  0
    7.6282  -18.7942   26.5938 C   0  0  0  0  0  0  0  0  0  0  0  0
    7.3708  -19.7709   25.6576 C   0  0  0  0  0  0  0  0  0  0  0  0
    6.6654  -19.5084   24.5035 C   0  0  0  0  0  0  0  0  0  0  0  0
    6.1827  -18.2387   24.2372 C   0  0  0  0  0  0  0  0  0  0  0  0
    5.4258  -18.0174   22.9718 C   0  0  0  0  0  0  0  0  0  0  0  0
    6.3274  -18.2307   21.7491 C   0  0  2  0  0  0  0  0  0  0  0  0
    6.8927  -19.5423   21.8665 N   0  0  0  0  0  0  0  0  0  0  0  0
    7.4213  -17.2335   21.6856 C   0  0  0  0  0  0  0  0  0  0  0  0
    8.6428  -17.5686   21.7990 O   0  0  0  0  0  0  0  0  0  0  0  0
    6.4267  -17.2445   25.1576 C   0  0  0  0  0  0  0  0  0  0  0  0
    7.1445  -17.5322   26.3223 C   0  0  0  0  0  0  0  0  0  0  0  0
    7.2002  -15.8344   21.4931 N   0  0  0  0  0  0  0  0  0  0  0  0
    8.2714  -14.8789   21.4096 C   0  0  1  0  0  0  0  0  0  0  0  0
    7.7908  -13.5343   20.8938 C   0  0  0  0  0  0  0  0  0  0  0  0
    7.2856  -13.6129   19.4786 C   0  0  0  0  0  0  0  0  0  0  0  0
    8.5291  -13.6985   18.5866 C   0  0  0  0  0  0  0  0  0  0  0  0
    8.1385  -13.7047   17.1245 C   0  0  0  0  0  0  0  0  0  0  0  0
    9.3486  -13.9924   16.3715 N   0  0  0  0  0  0  0  0  0  0  0  0
    8.8208  -14.6090   22.7755 C   0  0  0  0  0  0  0  0  0  0  0  0
    9.8296  -13.8674   22.8825 O   0  0  0  0  0  0  0  0  0  0  0  0
    5.7974  -13.1839   27.7250 C   0  0  0  0  0  0  0  0  0  0  0  0
    7.1805  -13.3955   27.0969 C   0  0  2  0  0  0  0  0  0  0  0  0
    7.8991  -12.0901   27.0333 C   0  0  0  0  0  0  0  0  0  0  0  0
    7.0570  -14.0734   25.7637 C   0  0  0  0  0  0  0  0  0  0  0  0
    8.3611  -14.5568   25.2625 C   0  0  2  0  0  0  0  0  0  0  0  0
    8.2160  -15.1789   23.9347 N   0  0  0  0  0  0  0  0  0  0  0  0
    9.0284  -15.4590   26.1914 C   0  0  0  0  0  0  0  0  0  0  0  0
    8.9576  -16.7114   25.9396 O   0  0  0  0  0  0  0  0  0  0  0  0
    9.7423  -15.1440   27.3243 O   0  0  0  0  0  0  0  0  0  0  0  0
  1  2  1  0
  2  3  2  0
  3  4  1  0
  5  4  2  0
  5  6  1  0
  7  6  1  0
  7  8  1  1
  9  7  1  0
 10  9  2  0
 11  5  1  0
 12  2  1  0
 12 11  2  0
 13  9  1  0
 14 13  1  0
 15 16  1  0
 14 15  1  1
 17 16  1  0
 18 17  1  0
 19 18  1  0
 20 21  2  0
 20 14  1  0
 23 22  1  6
 23 25  1  0
 24 23  1  0
 26 25  1  1
 26 27  1  0
 27 20  1  0
 28 30  1  0
 28 26  1  0
 29 28  2  0
M  END
$$$$
