YKL.pdb
     RDKit          3D

 30 30  0  0  1  0  0  0  0  0999 V2000
   10.8990  -21.6941   30.3421 O   0  0  0  0  0  0  0  0  0  0  0  0
   10.6311  -20.7747   29.3249 C   0  0  0  0  0  0  0  0  0  0  0  0
   10.1241  -21.1861   28.1122 C   0  0  0  0  0  0  0  0  0  0  0  0
    9.8524  -20.2973   27.0950 C   0  0  0  0  0  0  0  0  0  0  0  0
   10.0812  -18.9415   27.2540 C   0  0  0  0  0  0  0  0  0  0  0  0
    9.7664  -18.0299   26.1170 C   0  0  0  0  0  0  0  0  0  0  0  0
    9.6022  -18.8181   24.8112 C   0  0  2  0  0  0  0  0  0  0  0  0
   10.7083  -19.7252   24.7251 N   0  0  0  0  0  0  0  0  0  0  0  0
    9.6063  -17.9319   23.6239 C   0  0  0  0  0  0  0  0  0  0  0  0
   10.6792  -17.6427   23.0055 O   0  0  0  0  0  0  0  0  0  0  0  0
   10.5878  -18.5047   28.4572 C   0  0  0  0  0  0  0  0  0  0  0  0
   10.8565  -19.4232   29.4764 C   0  0  0  0  0  0  0  0  0  0  0  0
    8.4245  -17.3384   23.0812 N   0  0  0  0  0  0  0  0  0  0  0  0
    8.3142  -15.9319   22.8032 C   0  0  1  0  0  0  0  0  0  0  0  0
    7.0911  -15.6163   21.9609 C   0  0  0  0  0  0  0  0  0  0  0  0
    7.0877  -14.1942   21.4693 C   0  0  0  0  0  0  0  0  0  0  0  0
    7.8407  -14.2032   20.1344 C   0  0  0  0  0  0  0  0  0  0  0  0
    7.8564  -12.8200   19.5203 C   0  0  0  0  0  0  0  0  0  0  0  0
    8.6839  -12.9034   18.3277 N   0  0  0  0  0  0  0  0  0  0  0  0
    8.1260  -15.1736   24.0798 C   0  0  0  0  0  0  0  0  0  0  0  0
    7.2543  -15.5712   24.8929 O   0  0  0  0  0  0  0  0  0  0  0  0
    7.4344  -11.1830   25.4136 C   0  0  0  0  0  0  0  0  0  0  0  0
    6.8244  -12.5637   25.6849 C   0  0  2  0  0  0  0  0  0  0  0  0
    5.5119  -12.3971   26.3735 C   0  0  0  0  0  0  0  0  0  0  0  0
    7.7894  -13.4279   26.4426 C   0  0  0  0  0  0  0  0  0  0  0  0
    9.0927  -13.5422   25.7542 C   0  0  2  0  0  0  0  0  0  0  0  0
    8.9167  -14.0232   24.3725 N   0  0  0  0  0  0  0  0  0  0  0  0
   10.0473  -14.3711   26.4777 C   0  0  0  0  0  0  0  0  0  0  0  0
   10.1134  -15.6058   26.1491 O   0  0  0  0  0  0  0  0  0  0  0  0
   10.9084  -14.0017   27.4848 O   0  0  0  0  0  0  0  0  0  0  0  0
  1  2  1  0
  2  3  2  0
  3  4  1  0
  5  4  2  0
  5  6  1  0
  7  6  1  0
  7  8  1  6
  9  7  1  0
 10  9  2  0
 11  5  1  0
 12  2  1  0
 12 11  2  0
 13  9  1  0
 14 13  1  0
 15 16  1  0
 14 15  1  6
 17 16  1  0
 18 17  1  0
 19 18  1  0
 20 21  2  0
 20 14  1  0
 23 22  1  1
 23 25  1  0
 24 23  1  0
 26 25  1  1
 26 27  1  0
 27 20  1  0
 28 30  1  0
 28 26  1  0
 29 28  2  0
M  END
$$$$
