YKL.pdb
     RDKit          3D

 30 30  0  0  1  0  0  0  0  0999 V2000
    8.7874  -14.0430   15.4863 O   0  0  0  0  0  0  0  0  0  0  0  0
    8.3299  -14.1792   16.7993 C   0  0  0  0  0  0  0  0  0  0  0  0
    8.5396  -15.3423   17.5065 C   0  0  0  0  0  0  0  0  0  0  0  0
    8.0973  -15.4988   18.8021 C   0  0  0  0  0  0  0  0  0  0  0  0
    7.4177  -14.4820   19.4503 C   0  0  0  0  0  0  0  0  0  0  0  0
    6.9652  -14.7113   20.8523 C   0  0  0  0  0  0  0  0  0  0  0  0
    7.2603  -16.1500   21.2955 C   0  0  2  0  0  0  0  0  0  0  0  0
    6.3795  -17.0067   20.5581 N   0  0  0  0  0  0  0  0  0  0  0  0
    7.0254  -16.3431   22.7456 C   0  0  0  0  0  0  0  0  0  0  0  0
    6.3944  -15.4874   23.4435 O   0  0  0  0  0  0  0  0  0  0  0  0
    7.1954  -13.3090   18.7648 C   0  0  0  0  0  0  0  0  0  0  0  0
    7.6525  -13.1708   17.4509 C   0  0  0  0  0  0  0  0  0  0  0  0
    7.4789  -17.4888   23.4703 N   0  0  0  0  0  0  0  0  0  0  0  0
    7.3844  -17.5953   24.9011 C   0  0  1  0  0  0  0  0  0  0  0  0
    7.7540  -18.9842   25.3903 C   0  0  0  0  0  0  0  0  0  0  0  0
    7.5995  -19.1248   26.8804 C   0  0  0  0  0  0  0  0  0  0  0  0
    7.9670  -20.5754   27.2117 C   0  0  0  0  0  0  0  0  0  0  0  0
    7.8998  -20.8161   28.7044 C   0  0  0  0  0  0  0  0  0  0  0  0
    8.0966  -22.2427   28.9053 N   0  0  0  0  0  0  0  0  0  0  0  0
    8.3680  -16.6700   25.5468 C   0  0  0  0  0  0  0  0  0  0  0  0
    9.5417  -16.6324   25.0996 O   0  0  0  0  0  0  0  0  0  0  0  0
    7.8218  -12.5554   25.5924 C   0  0  0  0  0  0  0  0  0  0  0  0
    7.1860  -13.2331   26.8125 C   0  0  2  0  0  0  0  0  0  0  0  0
    6.1985  -12.3044   27.4346 C   0  0  0  0  0  0  0  0  0  0  0  0
    8.2445  -13.7038   27.7666 C   0  0  0  0  0  0  0  0  0  0  0  0
    8.9382  -14.9133   27.2754 C   0  0  2  0  0  0  0  0  0  0  0  0
    7.9864  -15.8462   26.6467 N   0  0  0  0  0  0  0  0  0  0  0  0
    9.7178  -15.5810   28.3090 C   0  0  0  0  0  0  0  0  0  0  0  0
   10.6273  -14.8929   28.8888 O   0  0  0  0  0  0  0  0  0  0  0  0
    9.6070  -16.8758   28.7602 O   0  0  0  0  0  0  0  0  0  0  0  0
  1  2  1  0
  2  3  2  0
  3  4  1  0
  5  4  2  0
  5  6  1  0
  7  6  1  0
  7  8  1  6
  9  7  1  0
 10  9  2  0
 11  5  1  0
 12  2  1  0
 12 11  2  0
 13  9  1  0
 14 13  1  0
 15 16  1  0
 14 15  1  6
 17 16  1  0
 18 17  1  0
 19 18  1  0
 20 21  2  0
 20 14  1  0
 23 22  1  6
 23 25  1  0
 24 23  1  0
 26 25  1  1
 26 27  1  0
 27 20  1  0
 28 30  1  0
 28 26  1  0
 29 28  2  0
M  END
$$$$
