YKL.pdb
     RDKit          3D

 30 30  0  0  1  0  0  0  0  0999 V2000
   19.0838  -16.9948   21.5578 O   0  0  0  0  0  0  0  0  0  0  0  0
   17.8018  -16.4581   21.6993 C   0  0  0  0  0  0  0  0  0  0  0  0
   16.7283  -17.2599   22.0180 C   0  0  0  0  0  0  0  0  0  0  0  0
   15.4554  -16.7525   22.1625 C   0  0  0  0  0  0  0  0  0  0  0  0
   15.2034  -15.4023   21.9911 C   0  0  0  0  0  0  0  0  0  0  0  0
   13.8052  -14.9135   22.1617 C   0  0  0  0  0  0  0  0  0  0  0  0
   12.8911  -15.4716   21.0634 C   0  0  2  0  0  0  0  0  0  0  0  0
   13.2076  -14.7690   19.8551 N   0  0  0  0  0  0  0  0  0  0  0  0
   11.4576  -15.2727   21.3804 C   0  0  0  0  0  0  0  0  0  0  0  0
   10.8622  -14.1753   21.1384 O   0  0  0  0  0  0  0  0  0  0  0  0
   16.2599  -14.5795   21.6721 C   0  0  0  0  0  0  0  0  0  0  0  0
   17.5436  -15.1146   21.5301 C   0  0  0  0  0  0  0  0  0  0  0  0
   10.6359  -16.2808   21.9736 N   0  0  0  0  0  0  0  0  0  0  0  0
    9.3034  -16.0226   22.4483 C   0  0  1  0  0  0  0  0  0  0  0  0
    8.3081  -17.0406   21.9211 C   0  0  0  0  0  0  0  0  0  0  0  0
    8.5644  -17.3977   20.4820 C   0  0  0  0  0  0  0  0  0  0  0  0
    7.5273  -18.4655   20.1169 C   0  0  0  0  0  0  0  0  0  0  0  0
    7.5499  -18.7460   18.6299 C   0  0  0  0  0  0  0  0  0  0  0  0
    6.6230  -19.8422   18.3989 N   0  0  0  0  0  0  0  0  0  0  0  0
    9.2589  -16.1557   23.9385 C   0  0  0  0  0  0  0  0  0  0  0  0
   10.3433  -16.1832   24.5728 O   0  0  0  0  0  0  0  0  0  0  0  0
    6.8985  -13.7018   27.6480 C   0  0  0  0  0  0  0  0  0  0  0  0
    7.4884  -12.9772   26.4318 C   0  0  2  0  0  0  0  0  0  0  0  0
    6.6234  -11.8134   26.0829 C   0  0  0  0  0  0  0  0  0  0  0  0
    7.6885  -13.9337   25.2928 C   0  0  0  0  0  0  0  0  0  0  0  0
    7.6820  -15.3423   25.7415 C   0  0  2  0  0  0  0  0  0  0  0  0
    8.0145  -16.2497   24.6292 N   0  0  0  0  0  0  0  0  0  0  0  0
    6.4296  -15.7312   26.3757 C   0  0  0  0  0  0  0  0  0  0  0  0
    6.4249  -15.8174   27.6522 O   0  0  0  0  0  0  0  0  0  0  0  0
    5.2243  -16.0217   25.7797 O   0  0  0  0  0  0  0  0  0  0  0  0
  1  2  1  0
  2  3  2  0
  3  4  1  0
  5  4  2  0
  5  6  1  0
  7  6  1  0
  7  8  1  6
  9  7  1  0
 10  9  2  0
 11  5  1  0
 12  2  1  0
 12 11  2  0
 13  9  1  0
 14 13  1  0
 15 16  1  0
 14 15  1  6
 17 16  1  0
 18 17  1  0
 19 18  1  0
 20 21  2  0
 20 14  1  0
 23 22  1  1
 23 25  1  0
 24 23  1  0
 26 25  1  6
 26 27  1  0
 27 20  1  0
 28 30  1  0
 28 26  1  0
 29 28  2  0
M  END
$$$$
