YKL.pdb
     RDKit          3D

 30 30  0  0  1  0  0  0  0  0999 V2000
    8.1380  -11.7985   17.2121 O   0  0  0  0  0  0  0  0  0  0  0  0
    8.0417  -12.5689   18.3735 C   0  0  0  0  0  0  0  0  0  0  0  0
    9.1698  -13.0414   19.0069 C   0  0  0  0  0  0  0  0  0  0  0  0
    9.0987  -13.8029   20.1530 C   0  0  0  0  0  0  0  0  0  0  0  0
    7.8774  -14.1261   20.7186 C   0  0  0  0  0  0  0  0  0  0  0  0
    7.8658  -14.9524   21.9596 C   0  0  0  0  0  0  0  0  0  0  0  0
    8.0987  -16.4334   21.6347 C   0  0  2  0  0  0  0  0  0  0  0  0
    6.9573  -16.8869   20.8962 N   0  0  0  0  0  0  0  0  0  0  0  0
    8.2428  -17.2543   22.8596 C   0  0  0  0  0  0  0  0  0  0  0  0
    7.2968  -17.3779   23.7004 O   0  0  0  0  0  0  0  0  0  0  0  0
    6.7347  -13.6657   20.1044 C   0  0  0  0  0  0  0  0  0  0  0  0
    6.8290  -12.8945   18.9421 C   0  0  0  0  0  0  0  0  0  0  0  0
    9.4367  -17.9659   23.1937 N   0  0  0  0  0  0  0  0  0  0  0  0
    9.6112  -18.6548   24.4437 C   0  0  1  0  0  0  0  0  0  0  0  0
   10.4958  -19.8798   24.2955 C   0  0  0  0  0  0  0  0  0  0  0  0
    9.9478  -20.8624   23.2964 C   0  0  0  0  0  0  0  0  0  0  0  0
   10.9337  -22.0357   23.2682 C   0  0  0  0  0  0  0  0  0  0  0  0
   10.5243  -23.0527   22.2249 C   0  0  0  0  0  0  0  0  0  0  0  0
   11.5162  -24.1150   22.2673 N   0  0  0  0  0  0  0  0  0  0  0  0
   10.3185  -17.7676   25.4199 C   0  0  0  0  0  0  0  0  0  0  0  0
   11.1817  -16.9638   24.9864 O   0  0  0  0  0  0  0  0  0  0  0  0
    9.0594  -13.7393   29.3642 C   0  0  0  0  0  0  0  0  0  0  0  0
   10.1718  -14.6928   28.9106 C   0  0  2  0  0  0  0  0  0  0  0  0
   11.3012  -13.9002   28.3443 C   0  0  0  0  0  0  0  0  0  0  0  0
    9.6310  -15.7218   27.9615 C   0  0  0  0  0  0  0  0  0  0  0  0
   10.5732  -16.8432   27.7608 C   0  0  2  0  0  0  0  0  0  0  0  0
   10.0229  -17.8290   26.8139 N   0  0  0  0  0  0  0  0  0  0  0  0
   10.9699  -17.4827   29.0080 C   0  0  0  0  0  0  0  0  0  0  0  0
   11.7583  -16.8277   29.7737 O   0  0  0  0  0  0  0  0  0  0  0  0
   10.6038  -18.7186   29.4886 O   0  0  0  0  0  0  0  0  0  0  0  0
  1  2  1  0
  2  3  2  0
  3  4  1  0
  5  4  2  0
  5  6  1  0
  7  6  1  0
  7  8  1  1
  9  7  1  0
 10  9  2  0
 11  5  1  0
 12  2  1  0
 12 11  2  0
 13  9  1  0
 14 13  1  0
 15 16  1  0
 14 15  1  6
 17 16  1  0
 18 17  1  0
 19 18  1  0
 20 21  2  0
 20 14  1  0
 23 22  1  6
 23 25  1  0
 24 23  1  0
 26 25  1  1
 26 27  1  0
 27 20  1  0
 28 30  1  0
 28 26  1  0
 29 28  2  0
M  END
$$$$
