YKL.pdb
     RDKit          3D

 30 30  0  0  1  0  0  0  0  0999 V2000
    7.0705  -22.5398   29.3472 O   0  0  0  0  0  0  0  0  0  0  0  0
    7.2032  -21.5177   28.4042 C   0  0  0  0  0  0  0  0  0  0  0  0
    8.3050  -20.6913   28.4040 C   0  0  0  0  0  0  0  0  0  0  0  0
    8.4568  -19.6770   27.4838 C   0  0  0  0  0  0  0  0  0  0  0  0
    7.4973  -19.4468   26.5131 C   0  0  0  0  0  0  0  0  0  0  0  0
    7.7190  -18.3347   25.5450 C   0  0  0  0  0  0  0  0  0  0  0  0
    7.5961  -18.8333   24.0994 C   0  0  2  0  0  0  0  0  0  0  0  0
    8.3749  -20.0322   24.0000 N   0  0  0  0  0  0  0  0  0  0  0  0
    8.1054  -17.8404   23.1248 C   0  0  0  0  0  0  0  0  0  0  0  0
    9.3069  -17.8631   22.7086 O   0  0  0  0  0  0  0  0  0  0  0  0
    6.3863  -20.2593   26.4919 C   0  0  0  0  0  0  0  0  0  0  0  0
    6.2517  -21.2828   27.4347 C   0  0  0  0  0  0  0  0  0  0  0  0
    7.3027  -16.7916   22.5780 N   0  0  0  0  0  0  0  0  0  0  0  0
    7.8622  -15.6437   21.9170 C   0  0  1  0  0  0  0  0  0  0  0  0
    6.8012  -14.8365   21.1906 C   0  0  0  0  0  0  0  0  0  0  0  0
    7.3643  -13.5946   20.5544 C   0  0  0  0  0  0  0  0  0  0  0  0
    7.5118  -13.9101   19.0618 C   0  0  0  0  0  0  0  0  0  0  0  0
    8.2016  -12.7723   18.3408 C   0  0  0  0  0  0  0  0  0  0  0  0
    8.3388  -13.1817   16.9523 N   0  0  0  0  0  0  0  0  0  0  0  0
    8.4510  -14.7104   22.9282 C   0  0  0  0  0  0  0  0  0  0  0  0
    8.6301  -13.5091   22.6058 O   0  0  0  0  0  0  0  0  0  0  0  0
    5.8073  -12.3747   26.9636 C   0  0  0  0  0  0  0  0  0  0  0  0
    7.2669  -12.7702   26.7083 C   0  0  2  0  0  0  0  0  0  0  0  0
    8.0856  -11.5387   26.5139 C   0  0  0  0  0  0  0  0  0  0  0  0
    7.3602  -13.7348   25.5624 C   0  0  0  0  0  0  0  0  0  0  0  0
    8.7241  -14.2834   25.4066 C   0  0  2  0  0  0  0  0  0  0  0  0
    8.8032  -15.1694   24.2319 N   0  0  0  0  0  0  0  0  0  0  0  0
    9.2053  -14.9597   26.6037 C   0  0  0  0  0  0  0  0  0  0  0  0
    9.1898  -14.2931   27.6956 O   0  0  0  0  0  0  0  0  0  0  0  0
    9.6811  -16.2446   26.7262 O   0  0  0  0  0  0  0  0  0  0  0  0
  1  2  1  0
  2  3  2  0
  3  4  1  0
  5  4  2  0
  5  6  1  0
  7  6  1  0
  7  8  1  1
  9  7  1  0
 10  9  2  0
 11  5  1  0
 12  2  1  0
 12 11  2  0
 13  9  1  0
 14 13  1  0
 15 16  1  0
 14 15  1  1
 17 16  1  0
 18 17  1  0
 19 18  1  0
 20 21  2  0
 20 14  1  0
 23 22  1  6
 23 25  1  0
 24 23  1  0
 26 25  1  1
 26 27  1  0
 27 20  1  0
 28 30  1  0
 28 26  1  0
 29 28  2  0
M  END
$$$$
