YKL.pdb
     RDKit          3D

 30 30  0  0  1  0  0  0  0  0999 V2000
    4.9238  -10.0306   26.4343 O   0  0  0  0  0  0  0  0  0  0  0  0
    5.5748  -11.2571   26.2806 C   0  0  0  0  0  0  0  0  0  0  0  0
    5.0508  -12.4109   26.8201 C   0  0  0  0  0  0  0  0  0  0  0  0
    5.6754  -13.6312   26.6812 C   0  0  0  0  0  0  0  0  0  0  0  0
    6.8669  -13.7461   25.9862 C   0  0  0  0  0  0  0  0  0  0  0  0
    7.4940  -15.0938   25.8694 C   0  0  0  0  0  0  0  0  0  0  0  0
    6.8208  -15.9181   24.7645 C   0  0  2  0  0  0  0  0  0  0  0  0
    5.6873  -16.5667   25.3546 N   0  0  0  0  0  0  0  0  0  0  0  0
    7.7314  -16.9441   24.2048 C   0  0  0  0  0  0  0  0  0  0  0  0
    8.0212  -18.0050   24.8434 O   0  0  0  0  0  0  0  0  0  0  0  0
    7.4114  -12.6072   25.4371 C   0  0  0  0  0  0  0  0  0  0  0  0
    6.7615  -11.3789   25.5898 C   0  0  0  0  0  0  0  0  0  0  0  0
    8.3495  -16.8311   22.9208 N   0  0  0  0  0  0  0  0  0  0  0  0
    9.7037  -17.2425   22.6673 C   0  0  1  0  0  0  0  0  0  0  0  0
   10.1546  -16.8708   21.2660 C   0  0  0  0  0  0  0  0  0  0  0  0
   11.2458  -17.7742   20.7587 C   0  0  0  0  0  0  0  0  0  0  0  0
   10.8711  -18.1252   19.3145 C   0  0  0  0  0  0  0  0  0  0  0  0
   11.8352  -19.1432   18.7448 C   0  0  0  0  0  0  0  0  0  0  0  0
   11.5819  -19.2013   17.3142 N   0  0  0  0  0  0  0  0  0  0  0  0
   10.6361  -16.5224   23.5906 C   0  0  0  0  0  0  0  0  0  0  0  0
   10.9379  -15.3303   23.3315 O   0  0  0  0  0  0  0  0  0  0  0  0
   10.3815  -14.9767   28.6965 C   0  0  0  0  0  0  0  0  0  0  0  0
   11.0878  -15.0016   27.3355 C   0  0  2  0  0  0  0  0  0  0  0  0
   10.1827  -14.4266   26.2987 C   0  0  0  0  0  0  0  0  0  0  0  0
   11.5603  -16.3886   27.0109 C   0  0  0  0  0  0  0  0  0  0  0  0
   12.1139  -16.4819   25.6433 C   0  0  2  0  0  0  0  0  0  0  0  0
   11.1737  -17.1706   24.7417 N   0  0  0  0  0  0  0  0  0  0  0  0
   13.4286  -17.1080   25.6035 C   0  0  0  0  0  0  0  0  0  0  0  0
   14.3668  -16.5353   26.2582 O   0  0  0  0  0  0  0  0  0  0  0  0
   13.8085  -18.2562   24.9481 O   0  0  0  0  0  0  0  0  0  0  0  0
  1  2  1  0
  2  3  2  0
  3  4  1  0
  5  4  2  0
  5  6  1  0
  7  6  1  0
  7  8  1  1
  9  7  1  0
 10  9  2  0
 11  5  1  0
 12  2  1  0
 12 11  2  0
 13  9  1  0
 14 13  1  0
 15 16  1  0
 14 15  1  6
 17 16  1  0
 18 17  1  0
 19 18  1  0
 20 21  2  0
 20 14  1  0
 23 22  1  1
 23 25  1  0
 24 23  1  0
 26 25  1  1
 26 27  1  0
 27 20  1  0
 28 30  1  0
 28 26  1  0
 29 28  2  0
M  END
$$$$
