YKL.pdb
     RDKit          3D

 30 30  0  0  1  0  0  0  0  0999 V2000
   10.8314  -18.3638   29.3085 O   0  0  0  0  0  0  0  0  0  0  0  0
    9.6813  -18.3123   28.5171 C   0  0  0  0  0  0  0  0  0  0  0  0
    9.3547  -17.1743   27.8134 C   0  0  0  0  0  0  0  0  0  0  0  0
    8.2258  -17.1010   27.0269 C   0  0  0  0  0  0  0  0  0  0  0  0
    7.3665  -18.1801   26.9122 C   0  0  0  0  0  0  0  0  0  0  0  0
    6.1617  -18.0397   26.0452 C   0  0  0  0  0  0  0  0  0  0  0  0
    6.3585  -18.7696   24.7103 C   0  0  2  0  0  0  0  0  0  0  0  0
    6.9204  -20.0532   25.0113 N   0  0  0  0  0  0  0  0  0  0  0  0
    7.2761  -18.0366   23.8071 C   0  0  0  0  0  0  0  0  0  0  0  0
    8.4630  -18.4367   23.5866 O   0  0  0  0  0  0  0  0  0  0  0  0
    7.6708  -19.3296   27.6058 C   0  0  0  0  0  0  0  0  0  0  0  0
    8.8213  -19.3831   28.3983 C   0  0  0  0  0  0  0  0  0  0  0  0
    6.9109  -16.8389   23.1176 N   0  0  0  0  0  0  0  0  0  0  0  0
    7.8170  -16.1247   22.2596 C   0  0  1  0  0  0  0  0  0  0  0  0
    7.1144  -15.0217   21.4883 C   0  0  0  0  0  0  0  0  0  0  0  0
    8.0447  -14.2961   20.5543 C   0  0  0  0  0  0  0  0  0  0  0  0
    7.1765  -13.3009   19.7766 C   0  0  0  0  0  0  0  0  0  0  0  0
    8.0133  -12.5242   18.7831 C   0  0  0  0  0  0  0  0  0  0  0  0
    7.9269  -13.2371   17.5188 N   0  0  0  0  0  0  0  0  0  0  0  0
    8.8600  -15.4345   23.0819 C   0  0  0  0  0  0  0  0  0  0  0  0
    9.7918  -14.8334   22.4907 O   0  0  0  0  0  0  0  0  0  0  0  0
    6.7915  -14.0607   25.8981 C   0  0  0  0  0  0  0  0  0  0  0  0
    8.0012  -14.1109   26.8395 C   0  0  2  0  0  0  0  0  0  0  0  0
    7.7159  -13.2942   28.0545 C   0  0  0  0  0  0  0  0  0  0  0  0
    9.2491  -13.6914   26.1190 C   0  0  0  0  0  0  0  0  0  0  0  0
    9.8326  -14.7955   25.3280 C   0  0  2  0  0  0  0  0  0  0  0  0
    8.8023  -15.4555   24.5069 N   0  0  0  0  0  0  0  0  0  0  0  0
   10.5478  -15.7654   26.1465 C   0  0  0  0  0  0  0  0  0  0  0  0
   10.1815  -16.9878   26.0552 O   0  0  0  0  0  0  0  0  0  0  0  0
   11.5870  -15.5447   27.0205 O   0  0  0  0  0  0  0  0  0  0  0  0
  1  2  1  0
  2  3  2  0
  3  4  1  0
  5  4  2  0
  5  6  1  0
  7  6  1  0
  7  8  1  1
  9  7  1  0
 10  9  2  0
 11  5  1  0
 12  2  1  0
 12 11  2  0
 13  9  1  0
 14 13  1  0
 15 16  1  0
 14 15  1  1
 17 16  1  0
 18 17  1  0
 19 18  1  0
 20 21  2  0
 20 14  1  0
 23 22  1  6
 23 25  1  0
 24 23  1  0
 26 25  1  1
 26 27  1  0
 27 20  1  0
 28 30  1  0
 28 26  1  0
 29 28  2  0
M  END
$$$$
