HSM.pdb
     RDKit          3D

 25 25  0  0  1  0  0  0  0  0999 V2000
    9.1044  -15.9856   19.2814 N   0  0  0  0  0  0  0  0  0  0  0  0
    8.5114  -14.9973   20.1283 C   0  0  1  0  0  0  0  0  0  0  0  0
    7.1725  -14.5927   19.5513 C   0  0  0  0  0  0  0  0  0  0  0  0
    7.3364  -14.2092   18.1333 C   0  0  0  0  0  0  0  0  0  0  0  0
    7.9924  -13.1276   17.5909 C   0  0  0  0  0  0  0  0  0  0  0  0
    7.8945  -13.1658   16.2435 N   0  0  0  0  0  0  0  0  0  0  0  0
    7.1766  -14.2716   15.9365 C   0  0  0  0  0  0  0  0  0  0  0  0
    6.8448  -14.8949   17.0932 N   0  0  0  0  0  0  0  0  0  0  0  0
    8.3893  -15.4432   21.5403 C   0  0  0  0  0  0  0  0  0  0  0  0
    7.8245  -14.7062   22.3899 O   0  0  0  0  0  0  0  0  0  0  0  0
   10.3192  -18.9229   23.1507 O   0  0  0  0  0  0  0  0  0  0  0  0
    9.0290  -18.6262   23.5133 C   0  0  0  0  0  0  0  0  0  0  0  0
    8.7000  -17.1402   23.3707 C   0  0  2  0  0  0  0  0  0  0  0  0
    8.8862  -16.6914   22.0100 N   0  0  0  0  0  0  0  0  0  0  0  0
    9.4133  -16.3285   24.3613 C   0  0  0  0  0  0  0  0  0  0  0  0
   10.5254  -15.7772   24.1656 O   0  0  0  0  0  0  0  0  0  0  0  0
    6.5368  -10.6805   25.6021 C   0  0  0  0  0  0  0  0  0  0  0  0
    6.7467  -12.1009   26.7103 S   0  0  0  0  0  0  0  0  0  0  0  0
    8.1045  -13.1664   26.2305 C   0  0  0  0  0  0  0  0  0  0  0  0
    8.3564  -14.3243   27.1342 C   0  0  0  0  0  0  0  0  0  0  0  0
    9.4317  -15.2715   26.6555 C   0  0  2  0  0  0  0  0  0  0  0  0
    8.8278  -16.1353   25.6410 N   0  0  0  0  0  0  0  0  0  0  0  0
    9.9796  -16.0568   27.7692 C   0  0  0  0  0  0  0  0  0  0  0  0
    9.5840  -17.2525   27.9402 O   0  0  0  0  0  0  0  0  0  0  0  0
   10.9087  -15.5538   28.6403 O   0  0  0  0  0  0  0  0  0  0  0  0
  2  1  1  6
  3  4  1  0
  3  2  1  0
  4  5  2  0
  6  5  1  0
  7  6  1  0
  8  7  2  0
  8  4  1  0
  9 10  2  0
  9  2  1  0
 11 12  1  0
 13 12  1  6
 13 14  1  0
 13 15  1  0
 14  9  1  0
 15 22  1  0
 16 15  2  0
 18 17  1  0
 19 18  1  0
 20 19  1  0
 21 20  1  1
 21 23  1  0
 22 21  1  0
 23 24  2  0
 23 25  1  0
M  END
$$$$
