HSM.pdb
     RDKit          3D

 25 25  0  0  1  0  0  0  0  0999 V2000
    9.0916  -16.8346   19.7592 N   0  0  0  0  0  0  0  0  0  0  0  0
    8.9120  -15.7160   20.6321 C   0  0  1  0  0  0  0  0  0  0  0  0
    7.7332  -14.8989   20.1503 C   0  0  0  0  0  0  0  0  0  0  0  0
    7.9632  -14.4669   18.7556 C   0  0  0  0  0  0  0  0  0  0  0  0
    8.7404  -13.4368   18.2768 C   0  0  0  0  0  0  0  0  0  0  0  0
    8.6640  -13.3989   16.9280 N   0  0  0  0  0  0  0  0  0  0  0  0
    7.8385  -14.4054   16.5565 C   0  0  0  0  0  0  0  0  0  0  0  0
    7.4210  -15.0449   17.6759 N   0  0  0  0  0  0  0  0  0  0  0  0
    8.7610  -16.1117   22.0562 C   0  0  0  0  0  0  0  0  0  0  0  0
    7.6156  -16.1991   22.5706 O   0  0  0  0  0  0  0  0  0  0  0  0
   11.5115  -18.4560   24.0304 O   0  0  0  0  0  0  0  0  0  0  0  0
   10.2048  -18.3061   24.4234 C   0  0  0  0  0  0  0  0  0  0  0  0
    9.6983  -16.8727   24.2628 C   0  0  2  0  0  0  0  0  0  0  0  0
    9.8644  -16.4083   22.9048 N   0  0  0  0  0  0  0  0  0  0  0  0
   10.2783  -15.9760   25.2669 C   0  0  0  0  0  0  0  0  0  0  0  0
   11.4581  -15.5443   25.2425 O   0  0  0  0  0  0  0  0  0  0  0  0
    6.1017  -11.1215   25.9562 C   0  0  0  0  0  0  0  0  0  0  0  0
    6.5933  -12.4874   27.0436 S   0  0  0  0  0  0  0  0  0  0  0  0
    8.3530  -12.8197   26.9955 C   0  0  0  0  0  0  0  0  0  0  0  0
    8.8291  -13.8716   27.9377 C   0  0  0  0  0  0  0  0  0  0  0  0
    9.9870  -14.6956   27.4249 C   0  0  2  0  0  0  0  0  0  0  0  0
    9.4708  -15.5494   26.3549 N   0  0  0  0  0  0  0  0  0  0  0  0
   10.5877  -15.4927   28.5024 C   0  0  0  0  0  0  0  0  0  0  0  0
   10.3271  -16.7345   28.5760 O   0  0  0  0  0  0  0  0  0  0  0  0
   11.4264  -14.9527   29.4405 O   0  0  0  0  0  0  0  0  0  0  0  0
  2  1  1  6
  3  4  1  0
  3  2  1  0
  4  5  2  0
  6  5  1  0
  7  6  1  0
  8  7  2  0
  8  4  1  0
  9 10  2  0
  9  2  1  0
 11 12  1  0
 13 12  1  6
 13 14  1  0
 13 15  1  0
 14  9  1  0
 15 22  1  0
 16 15  2  0
 18 17  1  0
 19 18  1  0
 20 19  1  0
 21 20  1  1
 21 23  1  0
 22 21  1  0
 23 24  2  0
 23 25  1  0
M  END
$$$$
