HSM.pdb
     RDKit          3D

 25 25  0  0  1  0  0  0  0  0999 V2000
    8.9556  -16.7326   19.0420 N   0  0  0  0  0  0  0  0  0  0  0  0
    8.8166  -15.6308   19.9433 C   0  0  1  0  0  0  0  0  0  0  0  0
    7.6567  -14.7695   19.4940 C   0  0  0  0  0  0  0  0  0  0  0  0
    7.8939  -14.2946   18.1146 C   0  0  0  0  0  0  0  0  0  0  0  0
    8.5921  -13.1917   17.6780 C   0  0  0  0  0  0  0  0  0  0  0  0
    8.5577  -13.1371   16.3281 N   0  0  0  0  0  0  0  0  0  0  0  0
    7.8376  -14.2058   15.9136 C   0  0  0  0  0  0  0  0  0  0  0  0
    7.4413  -14.8991   17.0084 N   0  0  0  0  0  0  0  0  0  0  0  0
    8.6689  -16.0566   21.3591 C   0  0  0  0  0  0  0  0  0  0  0  0
    7.6637  -15.6976   22.0262 O   0  0  0  0  0  0  0  0  0  0  0  0
   11.5225  -18.5429   23.4826 O   0  0  0  0  0  0  0  0  0  0  0  0
   10.1701  -18.5707   23.7162 C   0  0  0  0  0  0  0  0  0  0  0  0
    9.4907  -17.2326   23.4251 C   0  0  2  0  0  0  0  0  0  0  0  0
    9.6221  -16.8713   22.0324 N   0  0  0  0  0  0  0  0  0  0  0  0
    9.9351  -16.1853   24.3496 C   0  0  0  0  0  0  0  0  0  0  0  0
   10.9323  -15.4440   24.1629 O   0  0  0  0  0  0  0  0  0  0  0  0
    6.0541  -11.8173   26.2462 C   0  0  0  0  0  0  0  0  0  0  0  0
    7.0881  -11.8013   27.7363 S   0  0  0  0  0  0  0  0  0  0  0  0
    8.4690  -12.9385   27.6404 C   0  0  0  0  0  0  0  0  0  0  0  0
    8.3558  -13.9918   26.5921 C   0  0  0  0  0  0  0  0  0  0  0  0
    9.5488  -14.9139   26.4979 C   0  0  2  0  0  0  0  0  0  0  0  0
    9.2042  -15.9725   25.5488 N   0  0  0  0  0  0  0  0  0  0  0  0
    9.8954  -15.4672   27.8136 C   0  0  0  0  0  0  0  0  0  0  0  0
    9.5699  -16.6644   28.0895 O   0  0  0  0  0  0  0  0  0  0  0  0
   10.5622  -14.7439   28.7662 O   0  0  0  0  0  0  0  0  0  0  0  0
  2  1  1  6
  3  4  1  0
  3  2  1  0
  4  5  2  0
  6  5  1  0
  7  6  1  0
  8  7  2  0
  8  4  1  0
  9 10  2  0
  9  2  1  0
 11 12  1  0
 13 12  1  6
 13 14  1  0
 13 15  1  0
 14  9  1  0
 15 22  1  0
 16 15  2  0
 18 17  1  0
 19 18  1  0
 20 19  1  0
 21 20  1  1
 21 23  1  0
 22 21  1  0
 23 24  2  0
 23 25  1  0
M  END
$$$$
