HSM.pdb
     RDKit          3D

 25 25  0  0  1  0  0  0  0  0999 V2000
    7.3376  -16.6555   18.0574 N   0  0  0  0  0  0  0  0  0  0  0  0
    8.3460  -16.0159   18.8446 C   0  0  1  0  0  0  0  0  0  0  0  0
    8.2928  -14.5242   18.5966 C   0  0  0  0  0  0  0  0  0  0  0  0
    8.3808  -14.2571   17.1455 C   0  0  0  0  0  0  0  0  0  0  0  0
    7.5446  -13.5170   16.3409 C   0  0  0  0  0  0  0  0  0  0  0  0
    8.0029  -13.5360   15.0697 N   0  0  0  0  0  0  0  0  0  0  0  0
    9.1283  -14.2883   15.0729 C   0  0  0  0  0  0  0  0  0  0  0  0
    9.3453  -14.7192   16.3393 N   0  0  0  0  0  0  0  0  0  0  0  0
    8.2404  -16.3365   20.2915 C   0  0  0  0  0  0  0  0  0  0  0  0
    7.2372  -15.9596   20.9516 O   0  0  0  0  0  0  0  0  0  0  0  0
   11.2797  -18.4287   22.6130 O   0  0  0  0  0  0  0  0  0  0  0  0
    9.9297  -18.6191   22.7721 C   0  0  0  0  0  0  0  0  0  0  0  0
    9.1096  -17.3815   22.4080 C   0  0  2  0  0  0  0  0  0  0  0  0
    9.2334  -17.0666   21.0033 N   0  0  0  0  0  0  0  0  0  0  0  0
    9.4086  -16.2520   23.2932 C   0  0  0  0  0  0  0  0  0  0  0  0
   10.2895  -15.3840   23.0708 O   0  0  0  0  0  0  0  0  0  0  0  0
    6.6286  -11.2312   28.6520 C   0  0  0  0  0  0  0  0  0  0  0  0
    6.3557  -12.5565   27.4440 S   0  0  0  0  0  0  0  0  0  0  0  0
    7.8676  -13.3932   26.9719 C   0  0  0  0  0  0  0  0  0  0  0  0
    7.7363  -14.3594   25.8448 C   0  0  0  0  0  0  0  0  0  0  0  0
    9.0052  -15.1076   25.5087 C   0  0  2  0  0  0  0  0  0  0  0  0
    8.6642  -16.1047   24.4940 N   0  0  0  0  0  0  0  0  0  0  0  0
    9.5813  -15.7366   26.7044 C   0  0  0  0  0  0  0  0  0  0  0  0
    9.4536  -16.9903   26.8696 O   0  0  0  0  0  0  0  0  0  0  0  0
   10.2586  -15.0257   27.6589 O   0  0  0  0  0  0  0  0  0  0  0  0
  2  1  1  6
  3  4  1  0
  3  2  1  0
  4  5  2  0
  6  5  1  0
  7  6  1  0
  8  7  2  0
  8  4  1  0
  9 10  2  0
  9  2  1  0
 11 12  1  0
 13 12  1  1
 13 14  1  0
 13 15  1  0
 14  9  1  0
 15 22  1  0
 16 15  2  0
 18 17  1  0
 19 18  1  0
 20 19  1  0
 21 20  1  1
 21 23  1  0
 22 21  1  0
 23 24  2  0
 23 25  1  0
M  END
$$$$
