HSM.pdb
     RDKit          3D

 25 25  0  0  1  0  0  0  0  0999 V2000
    7.8353  -17.2022   18.9851 N   0  0  0  0  0  0  0  0  0  0  0  0
    8.4350  -16.2102   19.8229 C   0  0  1  0  0  0  0  0  0  0  0  0
    7.6547  -14.9201   19.6956 C   0  0  0  0  0  0  0  0  0  0  0  0
    7.8706  -14.3376   18.3545 C   0  0  0  0  0  0  0  0  0  0  0  0
    8.4931  -13.1615   18.0025 C   0  0  0  0  0  0  0  0  0  0  0  0
    8.4676  -13.0184   16.6588 N   0  0  0  0  0  0  0  0  0  0  0  0
    7.8289  -14.1045   16.1638 C   0  0  0  0  0  0  0  0  0  0  0  0
    7.4724  -14.8962   17.2042 N   0  0  0  0  0  0  0  0  0  0  0  0
    8.5531  -16.6435   21.2392 C   0  0  0  0  0  0  0  0  0  0  0  0
    7.5248  -16.7443   21.9579 O   0  0  0  0  0  0  0  0  0  0  0  0
   12.2690  -17.8120   23.1720 O   0  0  0  0  0  0  0  0  0  0  0  0
   11.0360  -18.3390   23.4657 C   0  0  0  0  0  0  0  0  0  0  0  0
    9.8979  -17.3423   23.2467 C   0  0  2  0  0  0  0  0  0  0  0  0
    9.7952  -16.9627   21.8564 N   0  0  0  0  0  0  0  0  0  0  0  0
    9.9907  -16.2019   24.1631 C   0  0  0  0  0  0  0  0  0  0  0  0
   10.7023  -15.1849   23.9679 O   0  0  0  0  0  0  0  0  0  0  0  0
    6.5795  -10.9570   26.2479 C   0  0  0  0  0  0  0  0  0  0  0  0
    6.5156  -12.3406   27.4189 S   0  0  0  0  0  0  0  0  0  0  0  0
    8.0151  -13.3207   27.4243 C   0  0  0  0  0  0  0  0  0  0  0  0
    8.0674  -14.4115   26.4102 C   0  0  0  0  0  0  0  0  0  0  0  0
    9.3634  -15.1878   26.3900 C   0  0  2  0  0  0  0  0  0  0  0  0
    9.2326  -16.2226   25.3642 N   0  0  0  0  0  0  0  0  0  0  0  0
    9.6505  -15.7728   27.7062 C   0  0  0  0  0  0  0  0  0  0  0  0
    9.5105  -17.0249   27.8736 O   0  0  0  0  0  0  0  0  0  0  0  0
   10.0685  -15.0221   28.7725 O   0  0  0  0  0  0  0  0  0  0  0  0
  2  1  1  6
  3  4  1  0
  3  2  1  0
  4  5  2  0
  6  5  1  0
  7  6  1  0
  8  7  2  0
  8  4  1  0
  9 10  2  0
  9  2  1  0
 11 12  1  0
 13 12  1  6
 13 14  1  0
 13 15  1  0
 14  9  1  0
 15 22  1  0
 16 15  2  0
 18 17  1  0
 19 18  1  0
 20 19  1  0
 21 20  1  1
 21 23  1  0
 22 21  1  0
 23 24  2  0
 23 25  1  0
M  END
$$$$
