HSM.pdb
     RDKit          3D

 25 25  0  0  1  0  0  0  0  0999 V2000
    9.2024  -19.5320   21.0577 N   0  0  0  0  0  0  0  0  0  0  0  0
   10.0455  -18.5803   20.4027 C   0  0  1  0  0  0  0  0  0  0  0  0
   10.2019  -18.9769   18.9510 C   0  0  0  0  0  0  0  0  0  0  0  0
   11.1924  -20.0680   18.8366 C   0  0  0  0  0  0  0  0  0  0  0  0
   11.9600  -20.6575   19.8152 C   0  0  0  0  0  0  0  0  0  0  0  0
   12.7330  -21.6213   19.2674 N   0  0  0  0  0  0  0  0  0  0  0  0
   12.4527  -21.6392   17.9431 C   0  0  0  0  0  0  0  0  0  0  0  0
   11.5161  -20.6914   17.6963 N   0  0  0  0  0  0  0  0  0  0  0  0
    9.5583  -17.1835   20.5415 C   0  0  0  0  0  0  0  0  0  0  0  0
   10.2735  -16.2226   20.1552 O   0  0  0  0  0  0  0  0  0  0  0  0
    5.5633  -16.3855   21.5288 O   0  0  0  0  0  0  0  0  0  0  0  0
    6.2797  -15.4837   20.7822 C   0  0  0  0  0  0  0  0  0  0  0  0
    7.7740  -15.5022   21.1039 C   0  0  2  0  0  0  0  0  0  0  0  0
    8.2929  -16.8507   21.1015 N   0  0  0  0  0  0  0  0  0  0  0  0
    8.0749  -14.7577   22.3303 C   0  0  0  0  0  0  0  0  0  0  0  0
    7.8182  -13.5405   22.5079 O   0  0  0  0  0  0  0  0  0  0  0  0
    7.7451  -10.9178   26.5715 C   0  0  0  0  0  0  0  0  0  0  0  0
    6.6094  -12.3170   26.7778 S   0  0  0  0  0  0  0  0  0  0  0  0
    7.4176  -13.9052   26.5946 C   0  0  0  0  0  0  0  0  0  0  0  0
    7.4692  -14.4376   25.2036 C   0  0  0  0  0  0  0  0  0  0  0  0
    8.8499  -14.8314   24.7334 C   0  0  2  0  0  0  0  0  0  0  0  0
    8.7006  -15.4365   23.4099 N   0  0  0  0  0  0  0  0  0  0  0  0
    9.4857  -15.7599   25.6772 C   0  0  0  0  0  0  0  0  0  0  0  0
    9.3801  -17.0116   25.4840 O   0  0  0  0  0  0  0  0  0  0  0  0
   10.1964  -15.3330   26.7671 O   0  0  0  0  0  0  0  0  0  0  0  0
  2  1  1  6
  3  4  1  0
  3  2  1  0
  4  5  2  0
  6  5  1  0
  7  6  1  0
  8  7  2  0
  8  4  1  0
  9 10  2  0
  9  2  1  0
 11 12  1  0
 13 12  1  1
 13 14  1  0
 13 15  1  0
 14  9  1  0
 15 22  1  0
 16 15  2  0
 18 17  1  0
 19 18  1  0
 20 19  1  0
 21 20  1  1
 21 23  1  0
 22 21  1  0
 23 24  2  0
 23 25  1  0
M  END
$$$$
