HSM.pdb
     RDKit          3D

 25 25  0  0  1  0  0  0  0  0999 V2000
    7.5801  -16.7243   18.5244 N   0  0  0  0  0  0  0  0  0  0  0  0
    8.2534  -15.8318   19.4164 C   0  0  1  0  0  0  0  0  0  0  0  0
    7.8348  -14.4121   19.1026 C   0  0  0  0  0  0  0  0  0  0  0  0
    8.1252  -14.1088   17.6855 C   0  0  0  0  0  0  0  0  0  0  0  0
    7.4110  -13.3439   16.7914 C   0  0  0  0  0  0  0  0  0  0  0  0
    8.0424  -13.3334   15.5965 N   0  0  0  0  0  0  0  0  0  0  0  0
    9.1547  -14.0919   15.7374 C   0  0  0  0  0  0  0  0  0  0  0  0
    9.1919  -14.5558   17.0101 N   0  0  0  0  0  0  0  0  0  0  0  0
    8.0313  -16.1668   20.8469 C   0  0  0  0  0  0  0  0  0  0  0  0
    6.9677  -15.8159   21.4211 O   0  0  0  0  0  0  0  0  0  0  0  0
   10.2275  -19.1770   22.8354 O   0  0  0  0  0  0  0  0  0  0  0  0
    8.9415  -18.8144   23.1497 C   0  0  0  0  0  0  0  0  0  0  0  0
    8.6911  -17.3154   22.9851 C   0  0  2  0  0  0  0  0  0  0  0  0
    8.9748  -16.8827   21.6361 N   0  0  0  0  0  0  0  0  0  0  0  0
    9.3845  -16.5329   24.0126 C   0  0  0  0  0  0  0  0  0  0  0  0
   10.5509  -16.0796   23.8991 O   0  0  0  0  0  0  0  0  0  0  0  0
    6.6458  -11.0218   26.7002 C   0  0  0  0  0  0  0  0  0  0  0  0
    6.6694  -12.8355   26.7047 S   0  0  0  0  0  0  0  0  0  0  0  0
    8.2739  -13.5119   27.1253 C   0  0  0  0  0  0  0  0  0  0  0  0
    8.3309  -14.9971   27.2347 C   0  0  0  0  0  0  0  0  0  0  0  0
    9.3917  -15.6490   26.3789 C   0  0  2  0  0  0  0  0  0  0  0  0
    8.7127  -16.2528   25.2324 N   0  0  0  0  0  0  0  0  0  0  0  0
   10.1458  -16.6515   27.1428 C   0  0  0  0  0  0  0  0  0  0  0  0
    9.7457  -17.8579   27.1492 O   0  0  0  0  0  0  0  0  0  0  0  0
   11.2737  -16.3420   27.8549 O   0  0  0  0  0  0  0  0  0  0  0  0
  2  1  1  6
  3  4  1  0
  3  2  1  0
  4  5  2  0
  6  5  1  0
  7  6  1  0
  8  7  2  0
  8  4  1  0
  9 10  2  0
  9  2  1  0
 11 12  1  0
 13 12  1  6
 13 14  1  0
 13 15  1  0
 14  9  1  0
 15 22  1  0
 16 15  2  0
 18 17  1  0
 19 18  1  0
 20 19  1  0
 21 20  1  1
 21 23  1  0
 22 21  1  0
 23 24  2  0
 23 25  1  0
M  END
$$$$
