HSM.pdb
     RDKit          3D

 25 25  0  0  1  0  0  0  0  0999 V2000
   11.8657  -15.7451   17.6934 N   0  0  0  0  0  0  0  0  0  0  0  0
   12.0979  -15.6315   19.1001 C   0  0  1  0  0  0  0  0  0  0  0  0
   12.8183  -14.3302   19.3774 C   0  0  0  0  0  0  0  0  0  0  0  0
   14.2466  -14.4660   19.0223 C   0  0  0  0  0  0  0  0  0  0  0  0
   15.0855  -15.5468   19.1730 C   0  0  0  0  0  0  0  0  0  0  0  0
   16.3166  -15.2342   18.7110 N   0  0  0  0  0  0  0  0  0  0  0  0
   16.2536  -13.9562   18.2691 C   0  0  0  0  0  0  0  0  0  0  0  0
   14.9915  -13.5030   18.4643 N   0  0  0  0  0  0  0  0  0  0  0  0
   10.8539  -15.7531   19.9035 C   0  0  0  0  0  0  0  0  0  0  0  0
    9.8481  -15.0505   19.6226 O   0  0  0  0  0  0  0  0  0  0  0  0
    9.9217  -18.9425   22.6107 O   0  0  0  0  0  0  0  0  0  0  0  0
    9.0210  -18.1156   21.9869 C   0  0  0  0  0  0  0  0  0  0  0  0
    9.5373  -16.6850   21.8334 C   0  0  2  0  0  0  0  0  0  0  0  0
   10.7216  -16.6422   21.0069 N   0  0  0  0  0  0  0  0  0  0  0  0
    9.7011  -16.0244   23.1317 C   0  0  0  0  0  0  0  0  0  0  0  0
   10.7765  -15.9805   23.7801 O   0  0  0  0  0  0  0  0  0  0  0  0
    5.6032  -10.9513   26.8884 C   0  0  0  0  0  0  0  0  0  0  0  0
    7.2382  -11.7303   26.7887 S   0  0  0  0  0  0  0  0  0  0  0  0
    7.1546  -13.5149   26.6578 C   0  0  0  0  0  0  0  0  0  0  0  0
    7.3341  -14.0625   25.2834 C   0  0  0  0  0  0  0  0  0  0  0  0
    8.6138  -14.8393   25.0796 C   0  0  2  0  0  0  0  0  0  0  0  0
    8.5804  -15.3804   23.7209 N   0  0  0  0  0  0  0  0  0  0  0  0
    8.7487  -15.9082   26.0778 C   0  0  0  0  0  0  0  0  0  0  0  0
    8.1563  -17.0162   25.8857 O   0  0  0  0  0  0  0  0  0  0  0  0
    9.4935  -15.7640   27.2178 O   0  0  0  0  0  0  0  0  0  0  0  0
  2  1  1  6
  3  4  1  0
  3  2  1  0
  4  5  2  0
  6  5  1  0
  7  6  1  0
  8  7  2  0
  8  4  1  0
  9 10  2  0
  9  2  1  0
 11 12  1  0
 13 12  1  1
 13 14  1  0
 13 15  1  0
 14  9  1  0
 15 22  1  0
 16 15  2  0
 18 17  1  0
 19 18  1  0
 20 19  1  0
 21 20  1  1
 21 23  1  0
 22 21  1  0
 23 24  2  0
 23 25  1  0
M  END
$$$$
