HSM.pdb
     RDKit          3D

 25 25  0  0  1  0  0  0  0  0999 V2000
   11.2938  -14.8072   18.0883 N   0  0  0  0  0  0  0  0  0  0  0  0
   11.7982  -15.8064   18.9787 C   0  0  1  0  0  0  0  0  0  0  0  0
   13.2563  -15.5213   19.2649 C   0  0  0  0  0  0  0  0  0  0  0  0
   14.0774  -15.9058   18.0976 C   0  0  0  0  0  0  0  0  0  0  0  0
   13.8863  -16.9247   17.1922 C   0  0  0  0  0  0  0  0  0  0  0  0
   14.8829  -16.9145   16.2795 N   0  0  0  0  0  0  0  0  0  0  0  0
   15.7025  -15.8889   16.6095 C   0  0  0  0  0  0  0  0  0  0  0  0
   15.2012  -15.2858   17.7147 N   0  0  0  0  0  0  0  0  0  0  0  0
   11.0046  -15.9204   20.2297 C   0  0  0  0  0  0  0  0  0  0  0  0
   10.6744  -14.8858   20.8659 O   0  0  0  0  0  0  0  0  0  0  0  0
    9.9202  -19.6683   22.1414 O   0  0  0  0  0  0  0  0  0  0  0  0
    9.0648  -18.5973   22.0687 C   0  0  0  0  0  0  0  0  0  0  0  0
    9.7974  -17.2582   21.9845 C   0  0  2  0  0  0  0  0  0  0  0  0
   10.5795  -17.1651   20.7733 N   0  0  0  0  0  0  0  0  0  0  0  0
   10.5635  -16.9806   23.2030 C   0  0  0  0  0  0  0  0  0  0  0  0
   11.8112  -17.0914   23.3029 O   0  0  0  0  0  0  0  0  0  0  0  0
   10.0775  -13.0512   30.1038 C   0  0  0  0  0  0  0  0  0  0  0  0
    9.2671  -13.6514   28.5962 S   0  0  0  0  0  0  0  0  0  0  0  0
   10.2744  -14.8131   27.6771 C   0  0  0  0  0  0  0  0  0  0  0  0
    9.7126  -15.2463   26.3664 C   0  0  0  0  0  0  0  0  0  0  0  0
   10.5611  -16.2497   25.6210 C   0  0  2  0  0  0  0  0  0  0  0  0
    9.8709  -16.5545   24.3677 N   0  0  0  0  0  0  0  0  0  0  0  0
   10.7743  -17.4619   26.4226 C   0  0  0  0  0  0  0  0  0  0  0  0
    9.8744  -18.3592   26.4436 O   0  0  0  0  0  0  0  0  0  0  0  0
   11.9121  -17.6718   27.1551 O   0  0  0  0  0  0  0  0  0  0  0  0
  2  1  1  6
  3  4  1  0
  3  2  1  0
  4  5  2  0
  6  5  1  0
  7  6  1  0
  8  7  2  0
  8  4  1  0
  9 10  2  0
  9  2  1  0
 11 12  1  0
 13 12  1  1
 13 14  1  0
 13 15  1  0
 14  9  1  0
 15 22  1  0
 16 15  2  0
 18 17  1  0
 19 18  1  0
 20 19  1  0
 21 20  1  1
 21 23  1  0
 22 21  1  0
 23 24  2  0
 23 25  1  0
M  END
$$$$
