HSM.pdb
     RDKit          3D

 25 25  0  0  1  0  0  0  0  0999 V2000
    8.7078  -17.4613   18.1881 N   0  0  0  0  0  0  0  0  0  0  0  0
    8.7447  -16.2782   18.9909 C   0  0  1  0  0  0  0  0  0  0  0  0
    7.6749  -15.3224   18.5100 C   0  0  0  0  0  0  0  0  0  0  0  0
    8.0571  -14.7681   17.1942 C   0  0  0  0  0  0  0  0  0  0  0  0
    9.1800  -15.0113   16.4363 C   0  0  0  0  0  0  0  0  0  0  0  0
    9.1228  -14.2901   15.2948 N   0  0  0  0  0  0  0  0  0  0  0  0
    7.9636  -13.5920   15.3332 C   0  0  0  0  0  0  0  0  0  0  0  0
    7.3274  -13.8920   16.4915 N   0  0  0  0  0  0  0  0  0  0  0  0
    8.6164  -16.5607   20.4440 C   0  0  0  0  0  0  0  0  0  0  0  0
    7.6083  -16.1571   21.0803 O   0  0  0  0  0  0  0  0  0  0  0  0
   11.6167  -18.5998   22.7970 O   0  0  0  0  0  0  0  0  0  0  0  0
   10.2731  -18.8071   22.9861 C   0  0  0  0  0  0  0  0  0  0  0  0
    9.4250  -17.5993   22.5873 C   0  0  2  0  0  0  0  0  0  0  0  0
    9.5921  -17.2822   21.1876 N   0  0  0  0  0  0  0  0  0  0  0  0
    9.6500  -16.4590   23.4804 C   0  0  0  0  0  0  0  0  0  0  0  0
   10.5673  -15.6118   23.3398 O   0  0  0  0  0  0  0  0  0  0  0  0
    6.3750  -10.9350   27.8904 C   0  0  0  0  0  0  0  0  0  0  0  0
    6.2318  -12.3419   26.7547 S   0  0  0  0  0  0  0  0  0  0  0  0
    7.7263  -13.3260   26.6701 C   0  0  0  0  0  0  0  0  0  0  0  0
    7.7252  -14.3994   25.6362 C   0  0  0  0  0  0  0  0  0  0  0  0
    8.9937  -15.2182   25.5806 C   0  0  2  0  0  0  0  0  0  0  0  0
    8.7839  -16.2752   24.5912 N   0  0  0  0  0  0  0  0  0  0  0  0
    9.3213  -15.7769   26.8988 C   0  0  0  0  0  0  0  0  0  0  0  0
    9.0953  -17.0068   27.1260 O   0  0  0  0  0  0  0  0  0  0  0  0
    9.8668  -15.0246   27.9046 O   0  0  0  0  0  0  0  0  0  0  0  0
  2  1  1  6
  3  4  1  0
  3  2  1  0
  4  5  2  0
  6  5  1  0
  7  6  1  0
  8  7  2  0
  8  4  1  0
  9 10  2  0
  9  2  1  0
 11 12  1  0
 13 12  1  1
 13 14  1  0
 13 15  1  0
 14  9  1  0
 15 22  1  0
 16 15  2  0
 18 17  1  0
 19 18  1  0
 20 19  1  0
 21 20  1  1
 21 23  1  0
 22 21  1  0
 23 24  2  0
 23 25  1  0
M  END
$$$$
