HSM.pdb
     RDKit          3D

 25 25  0  0  1  0  0  0  0  0999 V2000
   11.8512  -15.5833   18.8352 N   0  0  0  0  0  0  0  0  0  0  0  0
   11.4569  -14.5235   19.7110 C   0  0  1  0  0  0  0  0  0  0  0  0
   11.0468  -13.3258   18.8824 C   0  0  0  0  0  0  0  0  0  0  0  0
    9.8633  -13.6670   18.0654 C   0  0  0  0  0  0  0  0  0  0  0  0
    8.5291  -13.4541   18.3285 C   0  0  0  0  0  0  0  0  0  0  0  0
    7.7833  -13.9245   17.3042 N   0  0  0  0  0  0  0  0  0  0  0  0
    8.6476  -14.4340   16.3954 C   0  0  0  0  0  0  0  0  0  0  0  0
    9.9060  -14.2707   16.8707 N   0  0  0  0  0  0  0  0  0  0  0  0
   10.3884  -14.9259   20.6618 C   0  0  0  0  0  0  0  0  0  0  0  0
    9.9127  -14.0872   21.4708 O   0  0  0  0  0  0  0  0  0  0  0  0
    7.5490  -18.5162   22.4585 O   0  0  0  0  0  0  0  0  0  0  0  0
    8.4844  -18.1087   21.5403 C   0  0  0  0  0  0  0  0  0  0  0  0
    8.9359  -16.6641   21.7552 C   0  0  2  0  0  0  0  0  0  0  0  0
    9.8499  -16.2421   20.7188 N   0  0  0  0  0  0  0  0  0  0  0  0
    9.4459  -16.4507   23.1128 C   0  0  0  0  0  0  0  0  0  0  0  0
   10.6448  -16.6015   23.4572 O   0  0  0  0  0  0  0  0  0  0  0  0
    7.4840  -12.5722   29.7884 C   0  0  0  0  0  0  0  0  0  0  0  0
    6.9622  -13.3043   28.2131 S   0  0  0  0  0  0  0  0  0  0  0  0
    8.2445  -14.2896   27.4422 C   0  0  0  0  0  0  0  0  0  0  0  0
    7.9101  -14.8290   26.0938 C   0  0  0  0  0  0  0  0  0  0  0  0
    8.9876  -15.6904   25.4777 C   0  0  2  0  0  0  0  0  0  0  0  0
    8.5417  -16.0441   24.1301 N   0  0  0  0  0  0  0  0  0  0  0  0
    9.2368  -16.8882   26.2903 C   0  0  0  0  0  0  0  0  0  0  0  0
    8.5822  -17.9504   26.0483 O   0  0  0  0  0  0  0  0  0  0  0  0
   10.1539  -16.9130   27.3069 O   0  0  0  0  0  0  0  0  0  0  0  0
  2  1  1  6
  3  4  1  0
  3  2  1  0
  4  5  2  0
  6  5  1  0
  7  6  1  0
  8  7  2  0
  8  4  1  0
  9 10  2  0
  9  2  1  0
 11 12  1  0
 13 12  1  6
 13 14  1  0
 13 15  1  0
 14  9  1  0
 15 22  1  0
 16 15  2  0
 18 17  1  0
 19 18  1  0
 20 19  1  0
 21 20  1  1
 21 23  1  0
 22 21  1  0
 23 24  2  0
 23 25  1  0
M  END
$$$$
