HSM.pdb
     RDKit          3D

 25 25  0  0  1  0  0  0  0  0999 V2000
    8.6581  -16.8159   18.2710 N   0  0  0  0  0  0  0  0  0  0  0  0
    8.4445  -15.8849   19.3355 C   0  0  1  0  0  0  0  0  0  0  0  0
    7.2498  -15.0188   19.0009 C   0  0  0  0  0  0  0  0  0  0  0  0
    7.5436  -14.2068   17.8013 C   0  0  0  0  0  0  0  0  0  0  0  0
    8.2322  -13.0196   17.6968 C   0  0  0  0  0  0  0  0  0  0  0  0
    8.2649  -12.6255   16.4044 N   0  0  0  0  0  0  0  0  0  0  0  0
    7.5968  -13.5645   15.6942 C   0  0  0  0  0  0  0  0  0  0  0  0
    7.1648  -14.5179   16.5548 N   0  0  0  0  0  0  0  0  0  0  0  0
    8.2924  -16.5436   20.6585 C   0  0  0  0  0  0  0  0  0  0  0  0
    7.1847  -17.0366   20.9962 O   0  0  0  0  0  0  0  0  0  0  0  0
   11.3594  -18.3307   22.8040 O   0  0  0  0  0  0  0  0  0  0  0  0
   10.0205  -18.5538   23.0079 C   0  0  0  0  0  0  0  0  0  0  0  0
    9.1830  -17.2801   22.8926 C   0  0  2  0  0  0  0  0  0  0  0  0
    9.3536  -16.6572   21.6002 N   0  0  0  0  0  0  0  0  0  0  0  0
    9.4172  -16.3722   24.0194 C   0  0  0  0  0  0  0  0  0  0  0  0
   10.4520  -15.6759   24.1723 O   0  0  0  0  0  0  0  0  0  0  0  0
    6.9472  -10.8338   26.2209 C   0  0  0  0  0  0  0  0  0  0  0  0
    7.5534  -12.3567   26.9975 S   0  0  0  0  0  0  0  0  0  0  0  0
    6.8749  -13.8381   26.2531 C   0  0  0  0  0  0  0  0  0  0  0  0
    7.3489  -15.1223   26.8424 C   0  0  0  0  0  0  0  0  0  0  0  0
    8.6779  -15.6044   26.3095 C   0  0  2  0  0  0  0  0  0  0  0  0
    8.4197  -16.2521   25.0235 N   0  0  0  0  0  0  0  0  0  0  0  0
    9.3233  -16.5268   27.2529 C   0  0  0  0  0  0  0  0  0  0  0  0
    9.0938  -17.7733   27.1585 O   0  0  0  0  0  0  0  0  0  0  0  0
   10.1716  -16.0998   28.2393 O   0  0  0  0  0  0  0  0  0  0  0  0
  2  1  1  6
  3  4  1  0
  3  2  1  0
  4  5  2  0
  6  5  1  0
  7  6  1  0
  8  7  2  0
  8  4  1  0
  9 10  2  0
  9  2  1  0
 11 12  1  0
 13 12  1  1
 13 14  1  0
 13 15  1  0
 14  9  1  0
 15 22  1  0
 16 15  2  0
 18 17  1  0
 19 18  1  0
 20 19  1  0
 21 20  1  1
 21 23  1  0
 22 21  1  0
 23 24  2  0
 23 25  1  0
M  END
$$$$
