HSM.pdb
     RDKit          3D

 25 25  0  0  1  0  0  0  0  0999 V2000
    9.9231  -16.0659   17.9588 N   0  0  0  0  0  0  0  0  0  0  0  0
    8.9032  -15.3222   18.6314 C   0  0  1  0  0  0  0  0  0  0  0  0
    7.6628  -15.2919   17.7655 C   0  0  0  0  0  0  0  0  0  0  0  0
    7.9822  -14.6788   16.4591 C   0  0  0  0  0  0  0  0  0  0  0  0
    8.0354  -15.2580   15.2116 C   0  0  0  0  0  0  0  0  0  0  0  0
    8.3671  -14.3255   14.2914 N   0  0  0  0  0  0  0  0  0  0  0  0
    8.5232  -13.1582   14.9589 C   0  0  0  0  0  0  0  0  0  0  0  0
    8.2865  -13.3878   16.2733 N   0  0  0  0  0  0  0  0  0  0  0  0
    8.6107  -15.8416   19.9924 C   0  0  0  0  0  0  0  0  0  0  0  0
    7.6700  -15.3497   20.6687 O   0  0  0  0  0  0  0  0  0  0  0  0
    9.2552  -19.7032   21.2952 O   0  0  0  0  0  0  0  0  0  0  0  0
    9.6998  -18.7464   22.1733 C   0  0  0  0  0  0  0  0  0  0  0  0
    9.0621  -17.3782   21.9319 C   0  0  2  0  0  0  0  0  0  0  0  0
    9.3500  -16.8944   20.6013 N   0  0  0  0  0  0  0  0  0  0  0  0
    9.4039  -16.4251   22.9919 C   0  0  0  0  0  0  0  0  0  0  0  0
   10.4924  -15.8019   23.0682 O   0  0  0  0  0  0  0  0  0  0  0  0
    6.3204  -10.9442   27.1666 C   0  0  0  0  0  0  0  0  0  0  0  0
    6.0044  -12.7203   26.9781 S   0  0  0  0  0  0  0  0  0  0  0  0
    7.4911  -13.6626   26.6453 C   0  0  0  0  0  0  0  0  0  0  0  0
    7.4437  -14.5188   25.4264 C   0  0  0  0  0  0  0  0  0  0  0  0
    8.7286  -15.2546   25.1261 C   0  0  2  0  0  0  0  0  0  0  0  0
    8.4552  -16.1693   24.0176 N   0  0  0  0  0  0  0  0  0  0  0  0
    9.2134  -15.9777   26.3090 C   0  0  0  0  0  0  0  0  0  0  0  0
    8.9590  -17.2174   26.4269 O   0  0  0  0  0  0  0  0  0  0  0  0
    9.9363  -15.3702   27.3007 O   0  0  0  0  0  0  0  0  0  0  0  0
  2  1  1  6
  3  4  1  0
  3  2  1  0
  4  5  2  0
  6  5  1  0
  7  6  1  0
  8  7  2  0
  8  4  1  0
  9 10  2  0
  9  2  1  0
 11 12  1  0
 13 12  1  1
 13 14  1  0
 13 15  1  0
 14  9  1  0
 15 22  1  0
 16 15  2  0
 18 17  1  0
 19 18  1  0
 20 19  1  0
 21 20  1  1
 21 23  1  0
 22 21  1  0
 23 24  2  0
 23 25  1  0
M  END
$$$$
