PDL.pdb
     RDKit          3D

 24 24  0  0  1  0  0  0  0  0999 V2000
    7.6653  -14.6047   18.4867 N   0  0  0  0  0  0  0  0  0  0  0  0
    7.7119  -13.3690   17.7081 C   0  0  0  0  0  0  0  0  0  0  0  0
    7.7117  -12.2465   18.6888 C   0  0  0  0  0  0  0  0  0  0  0  0
    7.7316  -12.9443   20.0337 C   0  0  0  0  0  0  0  0  0  0  0  0
    8.4235  -14.2450   19.6753 C   0  0  1  0  0  0  0  0  0  0  0  0
    8.3528  -15.2713   20.7189 C   0  0  0  0  0  0  0  0  0  0  0  0
    7.3679  -16.0383   20.8929 O   0  0  0  0  0  0  0  0  0  0  0  0
    9.4598  -15.4293   21.6034 N   0  0  0  0  0  0  0  0  0  0  0  0
    9.3887  -16.4157   22.7086 C   0  0  1  0  0  0  0  0  0  0  0  0
   10.3795  -17.5196   22.4325 C   0  0  0  0  0  0  0  0  0  0  0  0
   10.4533  -18.5251   23.4892 C   0  0  0  0  0  0  0  0  0  0  0  0
    9.4285  -18.9784   24.0334 O   0  0  0  0  0  0  0  0  0  0  0  0
    9.5964  -15.7081   23.9724 C   0  0  0  0  0  0  0  0  0  0  0  0
   10.6032  -15.0194   24.2637 O   0  0  0  0  0  0  0  0  0  0  0  0
   11.6871  -19.0324   23.9472 O   0  0  0  0  0  0  0  0  0  0  0  0
    5.8421  -12.6505   26.3670 C   0  0  0  0  0  0  0  0  0  0  0  0
    7.1937  -13.1885   26.0217 C   0  0  1  0  0  0  0  0  0  0  0  0
    8.3030  -12.1549   26.2676 C   0  0  0  0  0  0  0  0  0  0  0  0
    7.5892  -14.4040   26.8166 C   0  0  0  0  0  0  0  0  0  0  0  0
    8.7492  -15.1722   26.2806 C   0  0  2  0  0  0  0  0  0  0  0  0
    8.5750  -15.7846   24.9959 N   0  0  0  0  0  0  0  0  0  0  0  0
    9.3275  -16.0917   27.3006 C   0  0  0  0  0  0  0  0  0  0  0  0
    9.6562  -15.6793   28.4273 O   0  0  0  0  0  0  0  0  0  0  0  0
    9.4905  -17.4445   26.9445 O   0  0  0  0  0  0  0  0  0  0  0  0
  1  2  1  0
  2  3  1  0
  4  3  1  0
  5  4  1  0
  5  1  1  0
  5  6  1  1
  6  7  2  0
  8  6  1  0
  9  8  1  0
  9 13  1  0
  9 10  1  6
 11 10  1  0
 11 12  2  0
 13 14  2  0
 15 11  1  0
 17 18  1  1
 17 16  1  0
 19 17  1  0
 20 19  1  1
 21 13  1  0
 21 20  1  0
 22 24  1  0
 22 20  1  0
 23 22  2  0
M  END
$$$$
