PDL.pdb
     RDKit          3D

 24 24  0  0  1  0  0  0  0  0999 V2000
    9.2896  -14.3554   19.8387 N   0  0  0  0  0  0  0  0  0  0  0  0
    9.6083  -13.4315   18.7524 C   0  0  0  0  0  0  0  0  0  0  0  0
    8.3332  -12.7559   18.3789 C   0  0  0  0  0  0  0  0  0  0  0  0
    7.3281  -13.3146   19.3659 C   0  0  0  0  0  0  0  0  0  0  0  0
    8.2286  -13.6480   20.5393 C   0  0  1  0  0  0  0  0  0  0  0  0
    7.5915  -14.4702   21.5717 C   0  0  0  0  0  0  0  0  0  0  0  0
    6.4823  -14.2020   22.1066 O   0  0  0  0  0  0  0  0  0  0  0  0
    8.2523  -15.6544   22.0116 N   0  0  0  0  0  0  0  0  0  0  0  0
    7.5294  -16.6333   22.8595 C   0  0  1  0  0  0  0  0  0  0  0  0
    8.0457  -18.0157   22.5449 C   0  0  0  0  0  0  0  0  0  0  0  0
    7.4163  -19.0742   23.3300 C   0  0  0  0  0  0  0  0  0  0  0  0
    8.0756  -19.7962   24.1019 O   0  0  0  0  0  0  0  0  0  0  0  0
    7.6753  -16.2285   24.2580 C   0  0  0  0  0  0  0  0  0  0  0  0
    7.2231  -16.8530   25.2472 O   0  0  0  0  0  0  0  0  0  0  0  0
    6.0319  -19.3330   23.2533 O   0  0  0  0  0  0  0  0  0  0  0  0
    5.3681  -12.7632   26.9368 C   0  0  0  0  0  0  0  0  0  0  0  0
    6.6028  -13.0711   26.1516 C   0  0  1  0  0  0  0  0  0  0  0  0
    7.5632  -11.8737   26.0992 C   0  0  0  0  0  0  0  0  0  0  0  0
    7.4103  -14.2143   26.7058 C   0  0  0  0  0  0  0  0  0  0  0  0
    8.6189  -14.5882   25.9168 C   0  0  2  0  0  0  0  0  0  0  0  0
    8.3974  -15.0116   24.5650 N   0  0  0  0  0  0  0  0  0  0  0  0
    9.5237  -15.4939   26.6795 C   0  0  0  0  0  0  0  0  0  0  0  0
    9.9093  -15.2033   27.8260 O   0  0  0  0  0  0  0  0  0  0  0  0
    9.9283  -16.6905   26.0568 O   0  0  0  0  0  0  0  0  0  0  0  0
  1  2  1  0
  2  3  1  0
  4  3  1  0
  5  4  1  0
  5  1  1  0
  5  6  1  1
  6  7  2  0
  8  6  1  0
  9  8  1  0
  9 13  1  0
  9 10  1  1
 11 10  1  0
 11 12  2  0
 13 14  2  0
 15 11  1  0
 17 18  1  1
 17 16  1  0
 19 17  1  0
 20 19  1  1
 21 13  1  0
 21 20  1  0
 22 24  1  0
 22 20  1  0
 23 22  2  0
M  END
$$$$
