PDL.pdb
     RDKit          3D

 24 24  0  0  1  0  0  0  0  0999 V2000
    9.1356  -14.2209   19.7866 N   0  0  0  0  0  0  0  0  0  0  0  0
    8.4858  -13.2145   18.9500 C   0  0  0  0  0  0  0  0  0  0  0  0
    7.0578  -13.1640   19.3745 C   0  0  0  0  0  0  0  0  0  0  0  0
    6.9907  -14.1454   20.5271 C   0  0  0  0  0  0  0  0  0  0  0  0
    8.4151  -14.0842   21.0433 C   0  0  1  0  0  0  0  0  0  0  0  0
    8.7530  -15.1393   22.0026 C   0  0  0  0  0  0  0  0  0  0  0  0
    8.1043  -15.3720   23.0578 O   0  0  0  0  0  0  0  0  0  0  0  0
    9.8837  -15.9678   21.7425 N   0  0  0  0  0  0  0  0  0  0  0  0
   10.2752  -17.0131   22.7191 C   0  0  1  0  0  0  0  0  0  0  0  0
   11.3607  -17.8625   22.1054 C   0  0  0  0  0  0  0  0  0  0  0  0
   11.8290  -18.9401   22.9727 C   0  0  0  0  0  0  0  0  0  0  0  0
   11.0412  -19.7622   23.4780 O   0  0  0  0  0  0  0  0  0  0  0  0
   10.6463  -16.3568   23.9732 C   0  0  0  0  0  0  0  0  0  0  0  0
   11.5329  -15.4789   24.1003 O   0  0  0  0  0  0  0  0  0  0  0  0
   13.1952  -19.1036   23.2828 O   0  0  0  0  0  0  0  0  0  0  0  0
   11.3077  -13.7956   28.1590 C   0  0  0  0  0  0  0  0  0  0  0  0
    9.8810  -14.2400   28.1098 C   0  0  1  0  0  0  0  0  0  0  0  0
    8.9075  -13.0657   28.2901 C   0  0  0  0  0  0  0  0  0  0  0  0
    9.4892  -14.8955   26.8126 C   0  0  0  0  0  0  0  0  0  0  0  0
   10.2667  -16.1146   26.4490 C   0  0  2  0  0  0  0  0  0  0  0  0
    9.9528  -16.7244   25.1899 N   0  0  0  0  0  0  0  0  0  0  0  0
   10.3369  -17.0871   27.5759 C   0  0  0  0  0  0  0  0  0  0  0  0
   10.6763  -16.7272   28.7174 O   0  0  0  0  0  0  0  0  0  0  0  0
   10.0067  -18.4289   27.3038 O   0  0  0  0  0  0  0  0  0  0  0  0
  1  2  1  0
  2  3  1  0
  4  3  1  0
  5  4  1  0
  5  1  1  0
  5  6  1  1
  6  7  2  0
  8  6  1  0
  9  8  1  0
  9 13  1  0
  9 10  1  6
 11 10  1  0
 11 12  2  0
 13 14  2  0
 15 11  1  0
 17 18  1  6
 17 16  1  0
 19 17  1  0
 20 19  1  1
 21 13  1  0
 21 20  1  0
 22 24  1  0
 22 20  1  0
 23 22  2  0
M  END
$$$$
