PDL.pdb
     RDKit          3D

 24 24  0  0  1  0  0  0  0  0999 V2000
    9.0876  -14.4583   19.0293 N   0  0  0  0  0  0  0  0  0  0  0  0
    9.1109  -13.5288   17.9020 C   0  0  0  0  0  0  0  0  0  0  0  0
    7.8593  -12.7237   17.9868 C   0  0  0  0  0  0  0  0  0  0  0  0
    7.1968  -13.2220   19.2554 C   0  0  0  0  0  0  0  0  0  0  0  0
    8.4029  -13.6811   20.0512 C   0  0  1  0  0  0  0  0  0  0  0  0
    8.0737  -14.4776   21.2365 C   0  0  0  0  0  0  0  0  0  0  0  0
    7.2622  -14.1158   22.1303 O   0  0  0  0  0  0  0  0  0  0  0  0
    8.6998  -15.7471   21.4068 N   0  0  0  0  0  0  0  0  0  0  0  0
    8.3318  -16.6047   22.5595 C   0  0  1  0  0  0  0  0  0  0  0  0
    8.8140  -18.0084   22.2879 C   0  0  0  0  0  0  0  0  0  0  0  0
    8.6216  -18.9261   23.4076 C   0  0  0  0  0  0  0  0  0  0  0  0
    7.4846  -19.2598   23.7919 O   0  0  0  0  0  0  0  0  0  0  0  0
    8.8699  -15.9969   23.7769 C   0  0  0  0  0  0  0  0  0  0  0  0
   10.0537  -15.6153   23.9376 O   0  0  0  0  0  0  0  0  0  0  0  0
    9.7121  -19.4794   24.1106 O   0  0  0  0  0  0  0  0  0  0  0  0
    5.8253  -12.5258   26.7213 C   0  0  0  0  0  0  0  0  0  0  0  0
    7.0259  -13.1772   26.1132 C   0  0  1  0  0  0  0  0  0  0  0  0
    8.2128  -12.2082   26.0070 C   0  0  0  0  0  0  0  0  0  0  0  0
    7.5377  -14.3612   26.8891 C   0  0  0  0  0  0  0  0  0  0  0  0
    8.4702  -15.2591   26.1493 C   0  0  2  0  0  0  0  0  0  0  0  0
    7.9918  -15.8020   24.9116 N   0  0  0  0  0  0  0  0  0  0  0  0
    9.0877  -16.2791   27.0431 C   0  0  0  0  0  0  0  0  0  0  0  0
    8.9465  -17.4959   26.8261 O   0  0  0  0  0  0  0  0  0  0  0  0
    9.8361  -15.8179   28.1433 O   0  0  0  0  0  0  0  0  0  0  0  0
  1  2  1  0
  2  3  1  0
  4  3  1  0
  5  4  1  0
  5  1  1  0
  5  6  1  1
  6  7  2  0
  8  6  1  0
  9  8  1  0
  9 13  1  0
  9 10  1  6
 11 10  1  0
 11 12  2  0
 13 14  2  0
 15 11  1  0
 17 18  1  1
 17 16  1  0
 19 17  1  0
 20 19  1  1
 21 13  1  0
 21 20  1  0
 22 24  1  0
 22 20  1  0
 23 22  2  0
M  END
$$$$
