PDL.pdb
     RDKit          3D

 24 24  0  0  1  0  0  0  0  0999 V2000
    8.3850  -13.1689   20.1517 N   0  0  0  0  0  0  0  0  0  0  0  0
    8.1953  -12.3179   18.9792 C   0  0  0  0  0  0  0  0  0  0  0  0
    7.6973  -13.2012   17.8868 C   0  0  0  0  0  0  0  0  0  0  0  0
    7.5646  -14.5561   18.5525 C   0  0  0  0  0  0  0  0  0  0  0  0
    7.3212  -14.1488   19.9926 C   0  0  1  0  0  0  0  0  0  0  0  0
    7.4229  -15.2498   20.9544 C   0  0  0  0  0  0  0  0  0  0  0  0
    6.9255  -16.3941   20.7767 O   0  0  0  0  0  0  0  0  0  0  0  0
    8.1271  -15.0331   22.1750 N   0  0  0  0  0  0  0  0  0  0  0  0
    8.9014  -16.1391   22.7887 C   0  0  1  0  0  0  0  0  0  0  0  0
    9.8464  -16.6971   21.7532 C   0  0  0  0  0  0  0  0  0  0  0  0
   10.6617  -17.8087   22.2355 C   0  0  0  0  0  0  0  0  0  0  0  0
   10.3406  -18.4662   23.2436 O   0  0  0  0  0  0  0  0  0  0  0  0
    9.5488  -15.6327   23.9992 C   0  0  0  0  0  0  0  0  0  0  0  0
   10.4987  -14.8144   24.0282 O   0  0  0  0  0  0  0  0  0  0  0  0
   11.8532  -18.1928   21.5857 O   0  0  0  0  0  0  0  0  0  0  0  0
    6.4378  -14.4080   26.9211 C   0  0  0  0  0  0  0  0  0  0  0  0
    7.4620  -13.7184   26.0779 C   0  0  1  0  0  0  0  0  0  0  0  0
    7.2672  -12.1948   26.0694 C   0  0  0  0  0  0  0  0  0  0  0  0
    8.8794  -13.9431   26.5319 C   0  0  0  0  0  0  0  0  0  0  0  0
    9.3495  -15.3575   26.4927 C   0  0  2  0  0  0  0  0  0  0  0  0
    9.0796  -16.0905   25.2903 N   0  0  0  0  0  0  0  0  0  0  0  0
    8.9854  -16.1001   27.7323 C   0  0  0  0  0  0  0  0  0  0  0  0
    9.1844  -15.6105   28.8585 O   0  0  0  0  0  0  0  0  0  0  0  0
    8.4087  -17.3765   27.5849 O   0  0  0  0  0  0  0  0  0  0  0  0
  1  2  1  0
  2  3  1  0
  4  3  1  0
  5  4  1  0
  5  1  1  0
  5  6  1  1
  6  7  2  0
  8  6  1  0
  9  8  1  0
  9 13  1  0
  9 10  1  6
 11 10  1  0
 11 12  2  0
 13 14  2  0
 15 11  1  0
 17 18  1  1
 17 16  1  0
 19 17  1  0
 20 19  1  6
 21 13  1  0
 21 20  1  0
 22 24  1  0
 22 20  1  0
 23 22  2  0
M  END
$$$$
