PDL.pdb
     RDKit          3D

 24 24  0  0  1  0  0  0  0  0999 V2000
    9.1061  -14.1758   19.1676 N   0  0  0  0  0  0  0  0  0  0  0  0
    8.8921  -13.2299   18.0746 C   0  0  0  0  0  0  0  0  0  0  0  0
    7.4981  -12.7219   18.2167 C   0  0  0  0  0  0  0  0  0  0  0  0
    6.9986  -13.3918   19.4809 C   0  0  0  0  0  0  0  0  0  0  0  0
    8.2992  -13.5992   20.2322 C   0  0  1  0  0  0  0  0  0  0  0  0
    8.1874  -14.4844   21.3949 C   0  0  0  0  0  0  0  0  0  0  0  0
    7.3325  -14.3467   22.3106 O   0  0  0  0  0  0  0  0  0  0  0  0
    9.0938  -15.5782   21.5153 N   0  0  0  0  0  0  0  0  0  0  0  0
    8.9597  -16.5291   22.6455 C   0  0  1  0  0  0  0  0  0  0  0  0
    9.7694  -17.7636   22.3342 C   0  0  0  0  0  0  0  0  0  0  0  0
    9.7170  -18.7833   23.3784 C   0  0  0  0  0  0  0  0  0  0  0  0
    8.6910  -18.9697   24.0598 O   0  0  0  0  0  0  0  0  0  0  0  0
    9.3442  -15.8388   23.8771 C   0  0  0  0  0  0  0  0  0  0  0  0
   10.4528  -15.2922   24.0890 O   0  0  0  0  0  0  0  0  0  0  0  0
   10.8246  -19.6069   23.6687 O   0  0  0  0  0  0  0  0  0  0  0  0
    5.8918  -12.4444   26.3103 C   0  0  0  0  0  0  0  0  0  0  0  0
    7.1842  -13.0657   25.8870 C   0  0  1  0  0  0  0  0  0  0  0  0
    8.3422  -12.0570   25.9141 C   0  0  0  0  0  0  0  0  0  0  0  0
    7.6251  -14.2121   26.7572 C   0  0  0  0  0  0  0  0  0  0  0  0
    8.6983  -15.0755   26.1864 C   0  0  2  0  0  0  0  0  0  0  0  0
    8.3906  -15.7582   24.9637 N   0  0  0  0  0  0  0  0  0  0  0  0
    9.3109  -15.9585   27.2187 C   0  0  0  0  0  0  0  0  0  0  0  0
    9.7445  -15.4944   28.2884 O   0  0  0  0  0  0  0  0  0  0  0  0
    9.3831  -17.3373   26.9410 O   0  0  0  0  0  0  0  0  0  0  0  0
  1  2  1  0
  2  3  1  0
  4  3  1  0
  5  4  1  0
  5  1  1  0
  5  6  1  1
  6  7  2  0
  8  6  1  0
  9  8  1  0
  9 13  1  0
  9 10  1  6
 11 10  1  0
 11 12  2  0
 13 14  2  0
 15 11  1  0
 17 18  1  1
 17 16  1  0
 19 17  1  0
 20 19  1  1
 21 13  1  0
 21 20  1  0
 22 24  1  0
 22 20  1  0
 23 22  2  0
M  END
$$$$
