PDL.pdb
     RDKit          3D

 24 24  0  0  1  0  0  0  0  0999 V2000
    8.0822  -14.9387   18.1213 N   0  0  0  0  0  0  0  0  0  0  0  0
    8.3274  -13.7757   17.2714 C   0  0  0  0  0  0  0  0  0  0  0  0
    8.2528  -12.5778   18.1553 C   0  0  0  0  0  0  0  0  0  0  0  0
    8.0228  -13.1626   19.5342 C   0  0  0  0  0  0  0  0  0  0  0  0
    8.6738  -14.5237   19.3841 C   0  0  1  0  0  0  0  0  0  0  0  0
    8.3784  -15.4553   20.4762 C   0  0  0  0  0  0  0  0  0  0  0  0
    7.5702  -16.4182   20.3869 O   0  0  0  0  0  0  0  0  0  0  0  0
    9.0388  -15.2790   21.7273 N   0  0  0  0  0  0  0  0  0  0  0  0
    8.7067  -16.1637   22.8703 C   0  0  1  0  0  0  0  0  0  0  0  0
    9.3075  -17.5242   22.6159 C   0  0  0  0  0  0  0  0  0  0  0  0
   10.7496  -17.4995   22.3862 C   0  0  0  0  0  0  0  0  0  0  0  0
   11.2654  -16.7362   21.5476 O   0  0  0  0  0  0  0  0  0  0  0  0
    9.1580  -15.5153   24.1019 C   0  0  0  0  0  0  0  0  0  0  0  0
   10.2960  -15.0229   24.2900 O   0  0  0  0  0  0  0  0  0  0  0  0
   11.6301  -18.3384   23.1006 O   0  0  0  0  0  0  0  0  0  0  0  0
    5.6644  -12.2889   26.4656 C   0  0  0  0  0  0  0  0  0  0  0  0
    6.9598  -12.8717   25.9988 C   0  0  1  0  0  0  0  0  0  0  0  0
    8.0021  -11.7849   25.6957 C   0  0  0  0  0  0  0  0  0  0  0  0
    7.6114  -13.7909   26.9970 C   0  0  0  0  0  0  0  0  0  0  0  0
    8.6071  -14.7474   26.4342 C   0  0  2  0  0  0  0  0  0  0  0  0
    8.2414  -15.4132   25.2182 N   0  0  0  0  0  0  0  0  0  0  0  0
    9.1439  -15.6692   27.4748 C   0  0  0  0  0  0  0  0  0  0  0  0
    9.0727  -16.9039   27.3404 O   0  0  0  0  0  0  0  0  0  0  0  0
    9.7339  -15.0940   28.6169 O   0  0  0  0  0  0  0  0  0  0  0  0
  1  2  1  0
  2  3  1  0
  4  3  1  0
  5  4  1  0
  5  1  1  0
  5  6  1  1
  6  7  2  0
  8  6  1  0
  9  8  1  0
  9 13  1  0
  9 10  1  6
 11 10  1  0
 11 12  2  0
 13 14  2  0
 15 11  1  0
 17 18  1  1
 17 16  1  0
 19 17  1  0
 20 19  1  1
 21 13  1  0
 21 20  1  0
 22 24  1  0
 22 20  1  0
 23 22  2  0
M  END
$$$$
