PDL.pdb
     RDKit          3D

 24 24  0  0  1  0  0  0  0  0999 V2000
    6.9296  -14.0123   20.3456 N   0  0  0  0  0  0  0  0  0  0  0  0
    6.5999  -12.9491   19.3990 C   0  0  0  0  0  0  0  0  0  0  0  0
    7.8807  -12.5362   18.7579 C   0  0  0  0  0  0  0  0  0  0  0  0
    8.9036  -13.4787   19.3591 C   0  0  0  0  0  0  0  0  0  0  0  0
    8.0370  -14.6810   19.6795 C   0  0  1  0  0  0  0  0  0  0  0  0
    8.6860  -15.6797   20.5334 C   0  0  0  0  0  0  0  0  0  0  0  0
    9.0145  -16.8343   20.1494 O   0  0  0  0  0  0  0  0  0  0  0  0
    8.9741  -15.3422   21.8883 N   0  0  0  0  0  0  0  0  0  0  0  0
    9.6609  -16.3219   22.7646 C   0  0  1  0  0  0  0  0  0  0  0  0
   10.9549  -16.7321   22.1060 C   0  0  0  0  0  0  0  0  0  0  0  0
   11.7222  -17.7118   22.8704 C   0  0  0  0  0  0  0  0  0  0  0  0
   11.1713  -18.6697   23.4454 O   0  0  0  0  0  0  0  0  0  0  0  0
    9.8114  -15.7266   24.0928 C   0  0  0  0  0  0  0  0  0  0  0  0
   10.8818  -15.2865   24.5758 O   0  0  0  0  0  0  0  0  0  0  0  0
   13.1242  -17.6224   22.9971 O   0  0  0  0  0  0  0  0  0  0  0  0
    5.8603  -12.6749   26.0542 C   0  0  0  0  0  0  0  0  0  0  0  0
    7.2621  -13.1580   25.8611 C   0  0  1  0  0  0  0  0  0  0  0  0
    8.2910  -12.0410   26.0904 C   0  0  0  0  0  0  0  0  0  0  0  0
    7.6586  -14.2716   26.7931 C   0  0  0  0  0  0  0  0  0  0  0  0
    8.7519  -15.1595   26.3038 C   0  0  2  0  0  0  0  0  0  0  0  0
    8.6489  -15.6178   24.9492 N   0  0  0  0  0  0  0  0  0  0  0  0
    9.0626  -16.2470   27.2741 C   0  0  0  0  0  0  0  0  0  0  0  0
    9.2776  -15.9980   28.4738 O   0  0  0  0  0  0  0  0  0  0  0  0
    9.1055  -17.5672   26.7855 O   0  0  0  0  0  0  0  0  0  0  0  0
  1  2  1  0
  2  3  1  0
  4  3  1  0
  5  4  1  0
  5  1  1  0
  5  6  1  1
  6  7  2  0
  8  6  1  0
  9  8  1  0
  9 13  1  0
  9 10  1  6
 11 10  1  0
 11 12  2  0
 13 14  2  0
 15 11  1  0
 17 18  1  1
 17 16  1  0
 19 17  1  0
 20 19  1  1
 21 13  1  0
 21 20  1  0
 22 24  1  0
 22 20  1  0
 23 22  2  0
M  END
$$$$
