PDL.pdb
     RDKit          3D

 24 24  0  0  1  0  0  0  0  0999 V2000
    9.0963  -14.2420   18.6423 N   0  0  0  0  0  0  0  0  0  0  0  0
    8.8427  -13.3640   17.5021 C   0  0  0  0  0  0  0  0  0  0  0  0
    7.4227  -12.9239   17.6101 C   0  0  0  0  0  0  0  0  0  0  0  0
    6.9479  -13.5557   18.9030 C   0  0  0  0  0  0  0  0  0  0  0  0
    8.2509  -13.6568   19.6718 C   0  0  1  0  0  0  0  0  0  0  0  0
    8.1755  -14.4879   20.8765 C   0  0  0  0  0  0  0  0  0  0  0  0
    7.3720  -14.2874   21.8265 O   0  0  0  0  0  0  0  0  0  0  0  0
    9.0584  -15.6005   21.0000 N   0  0  0  0  0  0  0  0  0  0  0  0
    9.0669  -16.4033   22.2470 C   0  0  1  0  0  0  0  0  0  0  0  0
   10.0689  -17.5207   22.0928 C   0  0  0  0  0  0  0  0  0  0  0  0
   10.1571  -18.3997   23.2559 C   0  0  0  0  0  0  0  0  0  0  0  0
    9.1556  -18.6795   23.9417 O   0  0  0  0  0  0  0  0  0  0  0  0
    9.3209  -15.5038   23.3728 C   0  0  0  0  0  0  0  0  0  0  0  0
    9.7345  -14.3233   23.2819 O   0  0  0  0  0  0  0  0  0  0  0  0
   11.3796  -18.9746   23.6615 O   0  0  0  0  0  0  0  0  0  0  0  0
    8.2494  -12.0654   26.8720 C   0  0  0  0  0  0  0  0  0  0  0  0
    7.3250  -13.2324   26.7337 C   0  0  1  0  0  0  0  0  0  0  0  0
    5.8701  -12.7899   26.5181 C   0  0  0  0  0  0  0  0  0  0  0  0
    7.6499  -14.1354   25.5740 C   0  0  0  0  0  0  0  0  0  0  0  0
    8.7814  -15.0812   25.7942 C   0  0  2  0  0  0  0  0  0  0  0  0
    9.0847  -15.9805   24.7195 N   0  0  0  0  0  0  0  0  0  0  0  0
    8.6953  -15.7533   27.1213 C   0  0  0  0  0  0  0  0  0  0  0  0
    8.7913  -15.1055   28.1790 O   0  0  0  0  0  0  0  0  0  0  0  0
    8.5025  -17.1483   27.1370 O   0  0  0  0  0  0  0  0  0  0  0  0
  1  2  1  0
  2  3  1  0
  4  3  1  0
  5  4  1  0
  5  1  1  0
  5  6  1  1
  6  7  2  0
  8  6  1  0
  9  8  1  0
  9 13  1  0
  9 10  1  6
 11 10  1  0
 11 12  2  0
 13 14  2  0
 15 11  1  0
 17 18  1  6
 17 16  1  0
 19 17  1  0
 20 19  1  6
 21 13  1  0
 21 20  1  0
 22 24  1  0
 22 20  1  0
 23 22  2  0
M  END
$$$$
