PDL.pdb
     RDKit          3D

 24 24  0  0  1  0  0  0  0  0999 V2000
    9.1565  -14.4236   19.0626 N   0  0  0  0  0  0  0  0  0  0  0  0
    9.0392  -13.4665   17.9647 C   0  0  0  0  0  0  0  0  0  0  0  0
    7.6678  -12.8885   18.0470 C   0  0  0  0  0  0  0  0  0  0  0  0
    7.0797  -13.5338   19.2856 C   0  0  0  0  0  0  0  0  0  0  0  0
    8.3335  -13.8081   20.0928 C   0  0  1  0  0  0  0  0  0  0  0  0
    8.1258  -14.6880   21.2462 C   0  0  0  0  0  0  0  0  0  0  0  0
    7.2093  -14.5354   22.0978 O   0  0  0  0  0  0  0  0  0  0  0  0
    9.0053  -15.7942   21.4337 N   0  0  0  0  0  0  0  0  0  0  0  0
    8.8465  -16.6732   22.6177 C   0  0  1  0  0  0  0  0  0  0  0  0
    9.6843  -17.9112   22.4135 C   0  0  0  0  0  0  0  0  0  0  0  0
    9.6020  -18.8683   23.5136 C   0  0  0  0  0  0  0  0  0  0  0  0
    8.5290  -19.0951   24.1043 O   0  0  0  0  0  0  0  0  0  0  0  0
    9.1785  -15.8994   23.8144 C   0  0  0  0  0  0  0  0  0  0  0  0
   10.2657  -15.3091   24.0207 O   0  0  0  0  0  0  0  0  0  0  0  0
   10.7322  -19.5826   23.9630 O   0  0  0  0  0  0  0  0  0  0  0  0
    5.7731  -12.3234   26.0758 C   0  0  0  0  0  0  0  0  0  0  0  0
    7.0336  -13.0265   25.6855 C   0  0  1  0  0  0  0  0  0  0  0  0
    8.2451  -12.0823   25.6981 C   0  0  0  0  0  0  0  0  0  0  0  0
    7.4017  -14.1699   26.5926 C   0  0  0  0  0  0  0  0  0  0  0  0
    8.4738  -15.0730   26.0844 C   0  0  2  0  0  0  0  0  0  0  0  0
    8.1940  -15.7812   24.8696 N   0  0  0  0  0  0  0  0  0  0  0  0
    9.0272  -15.9416   27.1613 C   0  0  0  0  0  0  0  0  0  0  0  0
    9.0058  -17.1816   27.0637 O   0  0  0  0  0  0  0  0  0  0  0  0
    9.5748  -15.3100   28.2947 O   0  0  0  0  0  0  0  0  0  0  0  0
  1  2  1  0
  2  3  1  0
  4  3  1  0
  5  4  1  0
  5  1  1  0
  5  6  1  1
  6  7  2  0
  8  6  1  0
  9  8  1  0
  9 13  1  0
  9 10  1  6
 11 10  1  0
 11 12  2  0
 13 14  2  0
 15 11  1  0
 17 18  1  1
 17 16  1  0
 19 17  1  0
 20 19  1  1
 21 13  1  0
 21 20  1  0
 22 24  1  0
 22 20  1  0
 23 22  2  0
M  END
$$$$
