PDL.pdb
     RDKit          3D

 24 24  0  0  1  0  0  0  0  0999 V2000
    9.1027  -14.1939   19.1873 N   0  0  0  0  0  0  0  0  0  0  0  0
    8.8765  -13.2396   18.1041 C   0  0  0  0  0  0  0  0  0  0  0  0
    7.4720  -12.7606   18.2437 C   0  0  0  0  0  0  0  0  0  0  0  0
    6.9785  -13.4548   19.4970 C   0  0  0  0  0  0  0  0  0  0  0  0
    8.2785  -13.6456   20.2537 C   0  0  1  0  0  0  0  0  0  0  0  0
    8.1774  -14.5462   21.4054 C   0  0  0  0  0  0  0  0  0  0  0  0
    7.3213  -14.4298   22.3230 O   0  0  0  0  0  0  0  0  0  0  0  0
    9.0964  -15.6310   21.5120 N   0  0  0  0  0  0  0  0  0  0  0  0
    9.0004  -16.5723   22.6540 C   0  0  1  0  0  0  0  0  0  0  0  0
    9.9195  -17.7401   22.3933 C   0  0  0  0  0  0  0  0  0  0  0  0
    9.9022  -18.7520   23.4463 C   0  0  0  0  0  0  0  0  0  0  0  0
    8.8351  -19.1691   23.9352 O   0  0  0  0  0  0  0  0  0  0  0  0
    9.2823  -15.8339   23.8854 C   0  0  0  0  0  0  0  0  0  0  0  0
   10.2943  -15.1225   24.0916 O   0  0  0  0  0  0  0  0  0  0  0  0
   11.0916  -19.3067   23.9632 O   0  0  0  0  0  0  0  0  0  0  0  0
    5.7725  -12.6242   26.3528 C   0  0  0  0  0  0  0  0  0  0  0  0
    7.0828  -13.2294   25.9624 C   0  0  1  0  0  0  0  0  0  0  0  0
    8.2420  -12.2325   26.1091 C   0  0  0  0  0  0  0  0  0  0  0  0
    7.4722  -14.4277   26.7860 C   0  0  0  0  0  0  0  0  0  0  0  0
    8.5830  -15.2538   26.2321 C   0  0  2  0  0  0  0  0  0  0  0  0
    8.3357  -15.9047   24.9788 N   0  0  0  0  0  0  0  0  0  0  0  0
    9.1725  -16.1562   27.2610 C   0  0  0  0  0  0  0  0  0  0  0  0
    9.5355  -15.7205   28.3683 O   0  0  0  0  0  0  0  0  0  0  0  0
    9.3058  -17.5200   26.9361 O   0  0  0  0  0  0  0  0  0  0  0  0
  1  2  1  0
  2  3  1  0
  4  3  1  0
  5  4  1  0
  5  1  1  0
  5  6  1  1
  6  7  2  0
  8  6  1  0
  9  8  1  0
  9 13  1  0
  9 10  1  6
 11 10  1  0
 11 12  2  0
 13 14  2  0
 15 11  1  0
 17 18  1  1
 17 16  1  0
 19 17  1  0
 20 19  1  1
 21 13  1  0
 21 20  1  0
 22 24  1  0
 22 20  1  0
 23 22  2  0
M  END
$$$$
