PDL.pdb
     RDKit          3D

 24 24  0  0  1  0  0  0  0  0999 V2000
    9.2044  -14.3161   19.1383 N   0  0  0  0  0  0  0  0  0  0  0  0
    8.9730  -13.3928   18.0296 C   0  0  0  0  0  0  0  0  0  0  0  0
    7.5534  -12.9500   18.1322 C   0  0  0  0  0  0  0  0  0  0  0  0
    7.0551  -13.6298   19.3916 C   0  0  0  0  0  0  0  0  0  0  0  0
    8.3451  -13.7675   20.1764 C   0  0  1  0  0  0  0  0  0  0  0  0
    8.2467  -14.6449   21.3462 C   0  0  0  0  0  0  0  0  0  0  0  0
    7.3583  -14.5444   22.2346 O   0  0  0  0  0  0  0  0  0  0  0  0
    9.2071  -15.6862   21.5067 N   0  0  0  0  0  0  0  0  0  0  0  0
    9.1291  -16.5900   22.6800 C   0  0  1  0  0  0  0  0  0  0  0  0
   10.0525  -17.7605   22.4478 C   0  0  0  0  0  0  0  0  0  0  0  0
   10.0132  -18.7635   23.5086 C   0  0  0  0  0  0  0  0  0  0  0  0
    9.5380  -19.8991   23.3177 O   0  0  0  0  0  0  0  0  0  0  0  0
    9.4197  -15.8099   23.8833 C   0  0  0  0  0  0  0  0  0  0  0  0
   10.4712  -15.1590   24.0921 O   0  0  0  0  0  0  0  0  0  0  0  0
   10.5095  -18.4971   24.8017 O   0  0  0  0  0  0  0  0  0  0  0  0
    5.8398  -12.5288   26.3659 C   0  0  0  0  0  0  0  0  0  0  0  0
    7.1310  -13.1337   25.9159 C   0  0  1  0  0  0  0  0  0  0  0  0
    8.2809  -12.1157   25.9394 C   0  0  0  0  0  0  0  0  0  0  0  0
    7.5940  -14.2875   26.7647 C   0  0  0  0  0  0  0  0  0  0  0  0
    8.7010  -15.1039   26.1893 C   0  0  2  0  0  0  0  0  0  0  0  0
    8.4340  -15.7599   24.9427 N   0  0  0  0  0  0  0  0  0  0  0  0
    9.3207  -15.9984   27.2074 C   0  0  0  0  0  0  0  0  0  0  0  0
    9.7406  -15.5497   28.2891 O   0  0  0  0  0  0  0  0  0  0  0  0
    9.4156  -17.3700   26.9023 O   0  0  0  0  0  0  0  0  0  0  0  0
  1  2  1  0
  2  3  1  0
  4  3  1  0
  5  4  1  0
  5  1  1  0
  5  6  1  1
  6  7  2  0
  8  6  1  0
  9  8  1  0
  9 13  1  0
  9 10  1  6
 11 10  1  0
 11 12  2  0
 13 14  2  0
 15 11  1  0
 17 18  1  1
 17 16  1  0
 19 17  1  0
 20 19  1  1
 21 13  1  0
 21 20  1  0
 22 24  1  0
 22 20  1  0
 23 22  2  0
M  END
$$$$
