PDL.pdb
     RDKit          3D

 24 24  0  0  1  0  0  0  0  0999 V2000
    9.0776  -14.2795   19.1414 N   0  0  0  0  0  0  0  0  0  0  0  0
    8.8106  -13.3809   18.0206 C   0  0  0  0  0  0  0  0  0  0  0  0
    7.4632  -12.7899   18.2591 C   0  0  0  0  0  0  0  0  0  0  0  0
    7.0506  -13.3651   19.5990 C   0  0  0  0  0  0  0  0  0  0  0  0
    8.4034  -13.6051   20.2403 C   0  0  1  0  0  0  0  0  0  0  0  0
    8.3561  -14.4216   21.4564 C   0  0  0  0  0  0  0  0  0  0  0  0
    7.6138  -14.1775   22.4453 O   0  0  0  0  0  0  0  0  0  0  0  0
    9.1948  -15.5710   21.5453 N   0  0  0  0  0  0  0  0  0  0  0  0
    9.0695  -16.4905   22.7022 C   0  0  1  0  0  0  0  0  0  0  0  0
    9.9233  -17.7075   22.4440 C   0  0  0  0  0  0  0  0  0  0  0  0
    9.8625  -18.7079   23.5063 C   0  0  0  0  0  0  0  0  0  0  0  0
   10.8944  -19.1958   24.0052 O   0  0  0  0  0  0  0  0  0  0  0  0
    9.4090  -15.7508   23.9182 C   0  0  0  0  0  0  0  0  0  0  0  0
   10.5152  -15.2099   24.1558 O   0  0  0  0  0  0  0  0  0  0  0  0
    8.6337  -19.1726   24.0197 O   0  0  0  0  0  0  0  0  0  0  0  0
    5.7838  -12.5891   26.3390 C   0  0  0  0  0  0  0  0  0  0  0  0
    7.0993  -13.1338   25.8824 C   0  0  1  0  0  0  0  0  0  0  0  0
    8.1503  -12.0271   25.7102 C   0  0  0  0  0  0  0  0  0  0  0  0
    7.7111  -14.1295   26.8312 C   0  0  0  0  0  0  0  0  0  0  0  0
    8.7263  -15.0443   26.2350 C   0  0  2  0  0  0  0  0  0  0  0  0
    8.4091  -15.6089   24.9558 N   0  0  0  0  0  0  0  0  0  0  0  0
    9.2172  -16.0492   27.2197 C   0  0  0  0  0  0  0  0  0  0  0  0
    9.1991  -17.2661   26.9619 O   0  0  0  0  0  0  0  0  0  0  0  0
    9.7015  -15.5737   28.4537 O   0  0  0  0  0  0  0  0  0  0  0  0
  1  2  1  0
  2  3  1  0
  4  3  1  0
  5  4  1  0
  5  1  1  0
  5  6  1  1
  6  7  2  0
  8  6  1  0
  9  8  1  0
  9 13  1  0
  9 10  1  6
 11 10  1  0
 11 12  2  0
 13 14  2  0
 15 11  1  0
 17 18  1  1
 17 16  1  0
 19 17  1  0
 20 19  1  1
 21 13  1  0
 21 20  1  0
 22 24  1  0
 22 20  1  0
 23 22  2  0
M  END
$$$$
