YIH.pdb
     RDKit          3D

 31 32  0  0  1  0  0  0  0  0999 V2000
   28.7432  -16.3786  -21.0742 O   0  0  0  0  0  0  0  0  0  0  0  0
   28.2485  -17.1333  -20.0128 C   0  0  0  0  0  0  0  0  0  0  0  0
   27.4889  -18.2649  -20.2271 C   0  0  0  0  0  0  0  0  0  0  0  0
   27.0004  -19.0103  -19.1725 C   0  0  0  0  0  0  0  0  0  0  0  0
   27.2477  -18.6602  -17.8609 C   0  0  0  0  0  0  0  0  0  0  0  0
   26.7116  -19.4774  -16.7499 C   0  0  0  0  0  0  0  0  0  0  0  0
   27.7497  -20.3028  -16.0687 C   0  0  2  0  0  0  0  0  0  0  0  0
   28.3386  -21.3052  -16.9302 N   0  0  0  0  0  0  0  0  0  0  0  0
   27.0659  -20.9693  -14.8942 C   0  0  0  0  0  0  0  0  0  0  0  0
   26.6347  -22.1170  -15.1401 O   0  0  0  0  0  0  0  0  0  0  0  0
   28.0081  -17.5272  -17.6531 C   0  0  0  0  0  0  0  0  0  0  0  0
   28.4996  -16.7774  -18.7038 C   0  0  0  0  0  0  0  0  0  0  0  0
   29.3617  -21.0473  -10.2616 C   0  0  0  0  0  0  0  0  0  0  0  0
   28.5406  -21.4632  -11.5006 C   0  0  0  0  0  0  0  0  0  0  0  0
   27.1657  -20.8871  -11.3207 C   0  0  2  0  0  0  0  0  0  0  0  0
   26.5437  -21.4008  -10.0433 C   0  0  0  0  0  0  0  0  0  0  0  0
   26.2702  -20.8851  -12.4894 C   0  0  2  0  0  0  0  0  0  0  0  0
   26.9414  -20.3355  -13.6563 N   0  0  0  0  0  0  0  0  0  0  0  0
   24.9183  -20.3723  -12.3937 C   0  0  0  0  0  0  0  0  0  0  0  0
   24.7158  -19.1392  -12.2572 O   0  0  0  0  0  0  0  0  0  0  0  0
   23.7215  -21.1599  -12.4459 N   0  0  0  0  0  0  0  0  0  0  0  0
   22.4910  -20.5375  -12.9080 C   0  0  1  0  0  0  0  0  0  0  0  0
   22.6845  -19.8687  -14.2531 C   0  0  0  0  0  0  0  0  0  0  0  0
   21.3973  -19.2959  -14.7380 C   0  0  0  0  0  0  0  0  0  0  0  0
   20.6053  -18.4707  -13.9665 C   0  0  0  0  0  0  0  0  0  0  0  0
   19.5471  -18.1652  -14.7395 N   0  0  0  0  0  0  0  0  0  0  0  0
   19.6500  -18.7602  -15.9438 C   0  0  0  0  0  0  0  0  0  0  0  0
   20.7963  -19.4551  -15.9302 N   0  0  0  0  0  0  0  0  0  0  0  0
   21.4537  -21.5820  -12.9592 C   0  0  0  0  0  0  0  0  0  0  0  0
   20.1264  -21.1651  -13.0991 O   0  0  0  0  0  0  0  0  0  0  0  0
   21.7180  -22.8025  -12.8831 O   0  0  0  0  0  0  0  0  0  0  0  0
  2 12  2  0
  2  1  1  0
  3  2  1  0
  4  5  1  0
  4  3  2  0
  5 11  2  0
  6  5  1  0
  7  6  1  0
  7  8  1  6
  9  7  1  0
  9 10  2  0
 11 12  1  0
 13 14  1  0
 14 15  1  0
 15 17  1  0
 15 16  1  1
 17 18  1  6
 18  9  1  0
 19 17  1  0
 19 21  1  0
 20 19  2  0
 22 21  1  0
 22 29  1  0
 22 23  1  6
 24 23  1  0
 24 25  2  0
 26 25  1  0
 27 26  1  0
 28 27  2  0
 28 24  1  0
 29 31  2  0
 29 30  1  0
M  END
$$$$
