YIH.pdb
     RDKit          3D

 31 32  0  0  1  0  0  0  0  0999 V2000
   27.4345  -12.3309  -17.1429 O   0  0  0  0  0  0  0  0  0  0  0  0
   26.9774  -13.5500  -16.6472 C   0  0  0  0  0  0  0  0  0  0  0  0
   26.2986  -14.4439  -17.4494 C   0  0  0  0  0  0  0  0  0  0  0  0
   25.8471  -15.6512  -16.9544 C   0  0  0  0  0  0  0  0  0  0  0  0
   26.0527  -16.0188  -15.6404 C   0  0  0  0  0  0  0  0  0  0  0  0
   25.5578  -17.3190  -15.1364 C   0  0  0  0  0  0  0  0  0  0  0  0
   26.6417  -18.3189  -14.9160 C   0  0  2  0  0  0  0  0  0  0  0  0
   27.4361  -18.5705  -16.0989 N   0  0  0  0  0  0  0  0  0  0  0  0
   25.9634  -19.5960  -14.4688 C   0  0  0  0  0  0  0  0  0  0  0  0
   25.9394  -20.4922  -15.3407 O   0  0  0  0  0  0  0  0  0  0  0  0
   26.7323  -15.1203  -14.8430 C   0  0  0  0  0  0  0  0  0  0  0  0
   27.1864  -13.9111  -15.3322 C   0  0  0  0  0  0  0  0  0  0  0  0
   24.9025  -21.1918   -9.0170 C   0  0  0  0  0  0  0  0  0  0  0  0
   25.4203  -20.3277  -10.1865 C   0  0  0  0  0  0  0  0  0  0  0  0
   25.6602  -21.2598  -11.3389 C   0  0  2  0  0  0  0  0  0  0  0  0
   27.1365  -21.5445  -11.4861 C   0  0  0  0  0  0  0  0  0  0  0  0
   24.9540  -20.9788  -12.6000 C   0  0  2  0  0  0  0  0  0  0  0  0
   25.4208  -19.7344  -13.1897 N   0  0  0  0  0  0  0  0  0  0  0  0
   23.5102  -21.0696  -12.6838 C   0  0  0  0  0  0  0  0  0  0  0  0
   22.9222  -22.1343  -12.3662 O   0  0  0  0  0  0  0  0  0  0  0  0
   22.6312  -20.0191  -13.1072 N   0  0  0  0  0  0  0  0  0  0  0  0
   21.1977  -20.2638  -13.1155 C   0  0  1  0  0  0  0  0  0  0  0  0
   20.7916  -21.1128  -14.3022 C   0  0  0  0  0  0  0  0  0  0  0  0
   21.2241  -20.4684  -15.5740 C   0  0  0  0  0  0  0  0  0  0  0  0
   22.1031  -21.0632  -16.4555 C   0  0  0  0  0  0  0  0  0  0  0  0
   22.2442  -20.1865  -17.4666 N   0  0  0  0  0  0  0  0  0  0  0  0
   21.4976  -19.0862  -17.2500 C   0  0  0  0  0  0  0  0  0  0  0  0
   20.8729  -19.2726  -16.0786 N   0  0  0  0  0  0  0  0  0  0  0  0
   20.8463  -20.9048  -11.8368 C   0  0  0  0  0  0  0  0  0  0  0  0
   19.9135  -20.2527  -11.0245 O   0  0  0  0  0  0  0  0  0  0  0  0
   21.3454  -21.9897  -11.4640 O   0  0  0  0  0  0  0  0  0  0  0  0
  2 12  2  0
  2  1  1  0
  3  2  1  0
  4  5  1  0
  4  3  2  0
  5 11  2  0
  6  5  1  0
  7  6  1  0
  7  8  1  6
  9  7  1  0
  9 10  2  0
 11 12  1  0
 13 14  1  0
 14 15  1  0
 15 17  1  0
 15 16  1  6
 17 18  1  1
 18  9  1  0
 19 17  1  0
 19 21  1  0
 20 19  2  0
 22 21  1  0
 22 29  1  0
 22 23  1  6
 24 23  1  0
 24 25  2  0
 26 25  1  0
 27 26  1  0
 28 27  2  0
 28 24  1  0
 29 31  2  0
 29 30  1  0
M  END
$$$$
