YIH.pdb
     RDKit          3D

 31 32  0  0  1  0  0  0  0  0999 V2000
   25.9628  -12.0745  -25.8332 O   0  0  0  0  0  0  0  0  0  0  0  0
   25.2970  -11.9028  -24.6217 C   0  0  0  0  0  0  0  0  0  0  0  0
   25.9818  -11.6167  -23.4586 C   0  0  0  0  0  0  0  0  0  0  0  0
   25.3183  -11.4472  -22.2597 C   0  0  0  0  0  0  0  0  0  0  0  0
   23.9457  -11.5555  -22.1687 C   0  0  0  0  0  0  0  0  0  0  0  0
   23.2605  -11.3689  -20.8706 C   0  0  0  0  0  0  0  0  0  0  0  0
   23.5292  -12.4658  -19.8972 C   0  0  2  0  0  0  0  0  0  0  0  0
   23.0153  -13.7488  -20.3259 N   0  0  0  0  0  0  0  0  0  0  0  0
   22.8730  -12.0560  -18.5962 C   0  0  0  0  0  0  0  0  0  0  0  0
   21.6993  -12.4673  -18.4660 O   0  0  0  0  0  0  0  0  0  0  0  0
   23.2664  -11.8418  -23.3356 C   0  0  0  0  0  0  0  0  0  0  0  0
   23.9244  -12.0125  -24.5379 C   0  0  0  0  0  0  0  0  0  0  0  0
   24.4010  -13.5983  -14.1056 C   0  0  0  0  0  0  0  0  0  0  0  0
   23.6243  -13.0915  -15.3394 C   0  0  0  0  0  0  0  0  0  0  0  0
   23.6068  -11.5927  -15.2530 C   0  0  2  0  0  0  0  0  0  0  0  0
   23.1660  -11.1507  -13.8772 C   0  0  0  0  0  0  0  0  0  0  0  0
   22.9922  -10.8536  -16.3683 C   0  0  2  0  0  0  0  0  0  0  0  0
   23.5424  -11.2861  -17.6428 N   0  0  0  0  0  0  0  0  0  0  0  0
   22.8719   -9.4100  -16.3315 C   0  0  0  0  0  0  0  0  0  0  0  0
   23.8960   -8.6859  -16.4152 O   0  0  0  0  0  0  0  0  0  0  0  0
   21.6455   -8.6778  -16.2089 N   0  0  0  0  0  0  0  0  0  0  0  0
   21.6831   -7.2263  -16.2913 C   0  0  1  0  0  0  0  0  0  0  0  0
   20.6944   -6.7077  -17.3147 C   0  0  0  0  0  0  0  0  0  0  0  0
   21.1944   -6.9617  -18.6950 C   0  0  0  0  0  0  0  0  0  0  0  0
   22.4170   -7.5460  -18.9545 C   0  0  0  0  0  0  0  0  0  0  0  0
   22.5080   -7.6051  -20.2958 N   0  0  0  0  0  0  0  0  0  0  0  0
   21.4051   -7.0875  -20.8708 C   0  0  0  0  0  0  0  0  0  0  0  0
   20.6021   -6.6939  -19.8720 N   0  0  0  0  0  0  0  0  0  0  0  0
   21.4085   -6.6950  -14.9452 C   0  0  0  0  0  0  0  0  0  0  0  0
   21.4619   -5.3079  -14.7771 O   0  0  0  0  0  0  0  0  0  0  0  0
   21.1352   -7.4299  -13.9704 O   0  0  0  0  0  0  0  0  0  0  0  0
  2 12  2  0
  2  1  1  0
  3  2  1  0
  4  5  1  0
  4  3  2  0
  5 11  2  0
  6  5  1  0
  7  6  1  0
  7  8  1  6
  9  7  1  0
  9 10  2  0
 11 12  1  0
 13 14  1  0
 14 15  1  0
 15 17  1  0
 15 16  1  1
 17 18  1  6
 18  9  1  0
 19 17  1  0
 19 21  1  0
 20 19  2  0
 22 21  1  0
 22 29  1  0
 22 23  1  6
 24 23  1  0
 24 25  2  0
 26 25  1  0
 27 26  1  0
 28 27  2  0
 28 24  1  0
 29 31  2  0
 29 30  1  0
M  END
$$$$
