YIH.pdb
     RDKit          3D

 31 32  0  0  1  0  0  0  0  0999 V2000
   30.3068   -7.9572  -17.8365 O   0  0  0  0  0  0  0  0  0  0  0  0
   31.4735   -7.9730  -17.0755 C   0  0  0  0  0  0  0  0  0  0  0  0
   32.1932   -9.1347  -16.8858 C   0  0  0  0  0  0  0  0  0  0  0  0
   33.3492   -9.1462  -16.1308 C   0  0  0  0  0  0  0  0  0  0  0  0
   33.8367   -8.0020  -15.5332 C   0  0  0  0  0  0  0  0  0  0  0  0
   35.0782   -8.0433  -14.7292 C   0  0  0  0  0  0  0  0  0  0  0  0
   36.1621   -7.1743  -15.2703 C   0  0  2  0  0  0  0  0  0  0  0  0
   36.5897   -7.5547  -16.5993 N   0  0  0  0  0  0  0  0  0  0  0  0
   37.3223   -7.2829  -14.3042 C   0  0  0  0  0  0  0  0  0  0  0  0
   38.1236   -8.2048  -14.5722 O   0  0  0  0  0  0  0  0  0  0  0  0
   33.1122   -6.8432  -15.7266 C   0  0  0  0  0  0  0  0  0  0  0  0
   31.9552   -6.8252  -16.4807 C   0  0  0  0  0  0  0  0  0  0  0  0
   40.6324   -3.1868  -11.5089 C   0  0  0  0  0  0  0  0  0  0  0  0
   40.3275   -4.6967  -11.4094 C   0  0  0  0  0  0  0  0  0  0  0  0
   39.1228   -4.9514  -12.2687 C   0  0  2  0  0  0  0  0  0  0  0  0
   38.0639   -3.9047  -12.0126 C   0  0  0  0  0  0  0  0  0  0  0  0
   38.6223   -6.3339  -12.3466 C   0  0  2  0  0  0  0  0  0  0  0  0
   37.4612   -6.4169  -13.2178 N   0  0  0  0  0  0  0  0  0  0  0  0
   38.4146   -7.1217  -11.1483 C   0  0  0  0  0  0  0  0  0  0  0  0
   37.2951   -7.1233  -10.5764 O   0  0  0  0  0  0  0  0  0  0  0  0
   39.3981   -7.9486  -10.5123 N   0  0  0  0  0  0  0  0  0  0  0  0
   39.0303   -8.6780   -9.3092 C   0  0  1  0  0  0  0  0  0  0  0  0
   38.4967  -10.0557   -9.6427 C   0  0  0  0  0  0  0  0  0  0  0  0
   38.2041  -10.8153   -8.3948 C   0  0  0  0  0  0  0  0  0  0  0  0
   38.3297  -10.2663   -7.1353 C   0  0  0  0  0  0  0  0  0  0  0  0
   37.9821  -11.2464   -6.2813 N   0  0  0  0  0  0  0  0  0  0  0  0
   37.6504  -12.3666   -6.9523 C   0  0  0  0  0  0  0  0  0  0  0  0
   37.7915  -12.0874   -8.2558 N   0  0  0  0  0  0  0  0  0  0  0  0
   40.2219   -8.7458   -8.4459 C   0  0  0  0  0  0  0  0  0  0  0  0
   40.0168   -8.9760   -7.0821 O   0  0  0  0  0  0  0  0  0  0  0  0
   41.3849   -8.6068   -8.8856 O   0  0  0  0  0  0  0  0  0  0  0  0
  2 12  2  0
  2  1  1  0
  3  2  1  0
  4  5  1  0
  4  3  2  0
  5 11  2  0
  6  5  1  0
  7  6  1  0
  7  8  1  6
  9  7  1  0
  9 10  2  0
 11 12  1  0
 13 14  1  0
 14 15  1  0
 15 17  1  0
 15 16  1  1
 17 18  1  1
 18  9  1  0
 19 17  1  0
 19 21  1  0
 20 19  2  0
 22 21  1  0
 22 29  1  0
 22 23  1  6
 24 23  1  0
 24 25  2  0
 26 25  1  0
 27 26  1  0
 28 27  2  0
 28 24  1  0
 29 31  2  0
 29 30  1  0
M  END
$$$$
