YIH.pdb
     RDKit          3D

 31 32  0  0  1  0  0  0  0  0999 V2000
   17.3697  -15.1653  -17.3886 O   0  0  0  0  0  0  0  0  0  0  0  0
   18.4056  -15.9773  -16.9326 C   0  0  0  0  0  0  0  0  0  0  0  0
   19.6379  -15.4532  -16.6004 C   0  0  0  0  0  0  0  0  0  0  0  0
   20.6622  -16.2614  -16.1488 C   0  0  0  0  0  0  0  0  0  0  0  0
   20.5025  -17.6248  -16.0091 C   0  0  0  0  0  0  0  0  0  0  0  0
   21.6175  -18.4672  -15.5228 C   0  0  0  0  0  0  0  0  0  0  0  0
   22.7084  -18.6399  -16.5243 C   0  0  2  0  0  0  0  0  0  0  0  0
   22.2916  -19.3677  -17.7034 N   0  0  0  0  0  0  0  0  0  0  0  0
   23.8212  -19.3886  -15.8225 C   0  0  0  0  0  0  0  0  0  0  0  0
   23.5585  -20.5884  -15.5874 O   0  0  0  0  0  0  0  0  0  0  0  0
   19.2676  -18.1431  -16.3430 C   0  0  0  0  0  0  0  0  0  0  0  0
   18.2390  -17.3399  -16.7953 C   0  0  0  0  0  0  0  0  0  0  0  0
   28.8831  -18.0475  -16.9952 C   0  0  0  0  0  0  0  0  0  0  0  0
   27.7542  -19.0511  -16.6777 C   0  0  0  0  0  0  0  0  0  0  0  0
   27.4191  -18.8785  -15.2243 C   0  0  2  0  0  0  0  0  0  0  0  0
   28.6013  -19.2583  -14.3637 C   0  0  0  0  0  0  0  0  0  0  0  0
   26.1216  -19.3957  -14.7588 C   0  0  2  0  0  0  0  0  0  0  0  0
   25.0249  -18.7696  -15.4795 N   0  0  0  0  0  0  0  0  0  0  0  0
   25.8156  -19.4820  -13.3451 C   0  0  0  0  0  0  0  0  0  0  0  0
   25.4937  -18.4511  -12.7017 O   0  0  0  0  0  0  0  0  0  0  0  0
   25.8357  -20.6805  -12.5586 N   0  0  0  0  0  0  0  0  0  0  0  0
   25.5450  -20.5921  -11.1364 C   0  0  1  0  0  0  0  0  0  0  0  0
   24.2458  -21.2922  -10.7960 C   0  0  0  0  0  0  0  0  0  0  0  0
   24.0259  -21.2909   -9.3224 C   0  0  0  0  0  0  0  0  0  0  0  0
   24.8863  -20.6767   -8.4359 C   0  0  0  0  0  0  0  0  0  0  0  0
   24.3572  -20.8903   -7.2173 N   0  0  0  0  0  0  0  0  0  0  0  0
   23.2179  -21.6031   -7.3115 C   0  0  0  0  0  0  0  0  0  0  0  0
   23.0245  -21.8440   -8.6160 N   0  0  0  0  0  0  0  0  0  0  0  0
   26.6873  -21.1724  -10.4099 C   0  0  0  0  0  0  0  0  0  0  0  0
   26.8746  -20.7758   -9.0821 O   0  0  0  0  0  0  0  0  0  0  0  0
   27.4767  -21.9902  -10.9323 O   0  0  0  0  0  0  0  0  0  0  0  0
  2 12  2  0
  2  1  1  0
  3  2  1  0
  4  5  1  0
  4  3  2  0
  5 11  2  0
  6  5  1  0
  7  6  1  0
  7  8  1  6
  9  7  1  0
  9 10  2  0
 11 12  1  0
 13 14  1  0
 14 15  1  0
 15 17  1  0
 15 16  1  1
 17 18  1  6
 18  9  1  0
 19 17  1  0
 19 21  1  0
 20 19  2  0
 22 21  1  0
 22 29  1  0
 22 23  1  6
 24 23  1  0
 24 25  2  0
 26 25  1  0
 27 26  1  0
 28 27  2  0
 28 24  1  0
 29 31  2  0
 29 30  1  0
M  END
$$$$
