YIH.pdb
     RDKit          3D

 31 32  0  0  1  0  0  0  0  0999 V2000
   16.9009  -24.8520   -6.9841 O   0  0  0  0  0  0  0  0  0  0  0  0
   18.0111  -24.2230   -7.5433 C   0  0  0  0  0  0  0  0  0  0  0  0
   18.1328  -24.0572   -8.9075 C   0  0  0  0  0  0  0  0  0  0  0  0
   19.2347  -23.4332   -9.4579 C   0  0  0  0  0  0  0  0  0  0  0  0
   20.2611  -22.9486   -8.6733 C   0  0  0  0  0  0  0  0  0  0  0  0
   21.4305  -22.2840   -9.2901 C   0  0  0  0  0  0  0  0  0  0  0  0
   21.7326  -20.9495   -8.6978 C   0  0  2  0  0  0  0  0  0  0  0  0
   20.7241  -19.9536   -8.9892 N   0  0  0  0  0  0  0  0  0  0  0  0
   23.0652  -20.5171   -9.2706 C   0  0  0  0  0  0  0  0  0  0  0  0
   22.9763  -19.6581  -10.1751 O   0  0  0  0  0  0  0  0  0  0  0  0
   20.1334  -23.1175   -7.3094 C   0  0  0  0  0  0  0  0  0  0  0  0
   19.0337  -23.7408   -6.7527 C   0  0  0  0  0  0  0  0  0  0  0  0
   27.0820  -19.8018   -5.7952 C   0  0  0  0  0  0  0  0  0  0  0  0
   26.0226  -19.6568   -6.9084 C   0  0  0  0  0  0  0  0  0  0  0  0
   26.4956  -20.4883   -8.0657 C   0  0  2  0  0  0  0  0  0  0  0  0
   27.9287  -20.1506   -8.4044 C   0  0  0  0  0  0  0  0  0  0  0  0
   25.5974  -20.6143   -9.2255 C   0  0  2  0  0  0  0  0  0  0  0  0
   24.2726  -21.0470   -8.8111 N   0  0  0  0  0  0  0  0  0  0  0  0
   26.0129  -21.3245  -10.4183 C   0  0  0  0  0  0  0  0  0  0  0  0
   25.8051  -22.5597  -10.5257 O   0  0  0  0  0  0  0  0  0  0  0  0
   26.6653  -20.7397  -11.5530 N   0  0  0  0  0  0  0  0  0  0  0  0
   26.3311  -21.2252  -12.8825 C   0  0  1  0  0  0  0  0  0  0  0  0
   24.8388  -21.1599  -13.1329 C   0  0  0  0  0  0  0  0  0  0  0  0
   24.5157  -21.6924  -14.4864 C   0  0  0  0  0  0  0  0  0  0  0  0
   25.2757  -22.6577  -15.1141 C   0  0  0  0  0  0  0  0  0  0  0  0
   24.6745  -22.8724  -16.2987 N   0  0  0  0  0  0  0  0  0  0  0  0
   23.5863  -22.0889  -16.4288 C   0  0  0  0  0  0  0  0  0  0  0  0
   23.4992  -21.3654  -15.3036 N   0  0  0  0  0  0  0  0  0  0  0  0
   27.0863  -20.4179  -13.8560 C   0  0  0  0  0  0  0  0  0  0  0  0
   27.6247  -19.2074  -13.4089 O   0  0  0  0  0  0  0  0  0  0  0  0
   27.2566  -20.7740  -15.0431 O   0  0  0  0  0  0  0  0  0  0  0  0
  2 12  2  0
  2  1  1  0
  3  2  1  0
  4  5  1  0
  4  3  2  0
  5 11  2  0
  6  5  1  0
  7  6  1  0
  7  8  1  6
  9  7  1  0
  9 10  2  0
 11 12  1  0
 13 14  1  0
 14 15  1  0
 15 17  1  0
 15 16  1  6
 17 18  1  1
 18  9  1  0
 19 17  1  0
 19 21  1  0
 20 19  2  0
 22 21  1  0
 22 29  1  0
 22 23  1  6
 24 23  1  0
 24 25  2  0
 26 25  1  0
 27 26  1  0
 28 27  2  0
 28 24  1  0
 29 31  2  0
 29 30  1  0
M  END
$$$$
