YIH.pdb
     RDKit          3D

 31 32  0  0  1  0  0  0  0  0999 V2000
   14.1313  -15.5630  -14.9371 O   0  0  0  0  0  0  0  0  0  0  0  0
   14.8992  -14.4170  -15.1312 C   0  0  0  0  0  0  0  0  0  0  0  0
   14.3137  -13.1871  -15.3502 C   0  0  0  0  0  0  0  0  0  0  0  0
   15.0784  -12.0535  -15.5421 C   0  0  0  0  0  0  0  0  0  0  0  0
   16.4574  -12.0971  -15.5239 C   0  0  0  0  0  0  0  0  0  0  0  0
   17.2521  -10.8665  -15.7325 C   0  0  0  0  0  0  0  0  0  0  0  0
   17.3299  -10.4481  -17.1614 C   0  0  2  0  0  0  0  0  0  0  0  0
   17.9355  -11.4457  -18.0168 N   0  0  0  0  0  0  0  0  0  0  0  0
   18.1494   -9.1759  -17.1924 C   0  0  0  0  0  0  0  0  0  0  0  0
   19.3622   -9.3571  -17.4371 O   0  0  0  0  0  0  0  0  0  0  0  0
   17.0371  -13.3304  -15.3043 C   0  0  0  0  0  0  0  0  0  0  0  0
   16.2777  -14.4679  -15.1117 C   0  0  0  0  0  0  0  0  0  0  0  0
   16.0461   -4.5842  -19.2204 C   0  0  0  0  0  0  0  0  0  0  0  0
   17.1029   -5.6775  -18.9551 C   0  0  0  0  0  0  0  0  0  0  0  0
   17.4739   -5.5764  -17.5037 C   0  0  2  0  0  0  0  0  0  0  0  0
   17.9495   -4.1797  -17.1790 C   0  0  0  0  0  0  0  0  0  0  0  0
   18.2932   -6.6588  -16.9336 C   0  0  2  0  0  0  0  0  0  0  0  0
   17.5761   -7.9233  -16.9642 N   0  0  0  0  0  0  0  0  0  0  0  0
   18.9730   -6.4919  -15.6648 C   0  0  0  0  0  0  0  0  0  0  0  0
   18.3193   -6.4848  -14.5910 O   0  0  0  0  0  0  0  0  0  0  0  0
   20.3869   -6.3307  -15.4906 N   0  0  0  0  0  0  0  0  0  0  0  0
   20.9181   -6.2018  -14.1429 C   0  0  1  0  0  0  0  0  0  0  0  0
   21.0196   -7.5501  -13.4605 C   0  0  0  0  0  0  0  0  0  0  0  0
   21.8635   -8.4773  -14.2655 C   0  0  0  0  0  0  0  0  0  0  0  0
   22.3908   -8.1364  -15.4940 C   0  0  0  0  0  0  0  0  0  0  0  0
   23.0817   -9.2176  -15.8994 N   0  0  0  0  0  0  0  0  0  0  0  0
   23.0049  -10.2024  -14.9833 C   0  0  0  0  0  0  0  0  0  0  0  0
   22.2502   -9.7329  -13.9797 N   0  0  0  0  0  0  0  0  0  0  0  0
   22.2287   -5.5367  -14.2409 C   0  0  0  0  0  0  0  0  0  0  0  0
   22.9314   -5.3201  -13.0516 O   0  0  0  0  0  0  0  0  0  0  0  0
   22.7208   -5.1682  -15.3305 O   0  0  0  0  0  0  0  0  0  0  0  0
  2 12  2  0
  2  1  1  0
  3  2  1  0
  4  5  1  0
  4  3  2  0
  5 11  2  0
  6  5  1  0
  7  6  1  0
  7  8  1  6
  9  7  1  0
  9 10  2  0
 11 12  1  0
 13 14  1  0
 14 15  1  0
 15 17  1  0
 15 16  1  6
 17 18  1  1
 18  9  1  0
 19 17  1  0
 19 21  1  0
 20 19  2  0
 22 21  1  0
 22 29  1  0
 22 23  1  6
 24 23  1  0
 24 25  2  0
 26 25  1  0
 27 26  1  0
 28 27  2  0
 28 24  1  0
 29 31  2  0
 29 30  1  0
M  END
$$$$
