YIH.pdb
     RDKit          3D

 31 32  0  0  1  0  0  0  0  0999 V2000
   27.5005  -13.9592  -19.5675 O   0  0  0  0  0  0  0  0  0  0  0  0
   27.0033  -14.9644  -18.7411 C   0  0  0  0  0  0  0  0  0  0  0  0
   26.1755  -15.9540  -19.2299 C   0  0  0  0  0  0  0  0  0  0  0  0
   25.6846  -16.9486  -18.4074 C   0  0  0  0  0  0  0  0  0  0  0  0
   25.9974  -16.9993  -17.0645 C   0  0  0  0  0  0  0  0  0  0  0  0
   25.4572  -18.0768  -16.2062 C   0  0  0  0  0  0  0  0  0  0  0  0
   26.4815  -19.0835  -15.8060 C   0  0  2  0  0  0  0  0  0  0  0  0
   27.0424  -19.8050  -16.9278 N   0  0  0  0  0  0  0  0  0  0  0  0
   25.7913  -20.0481  -14.8655 C   0  0  0  0  0  0  0  0  0  0  0  0
   25.3780  -21.0908  -15.4184 O   0  0  0  0  0  0  0  0  0  0  0  0
   26.8259  -16.0066  -16.5816 C   0  0  0  0  0  0  0  0  0  0  0  0
   27.3201  -15.0091  -17.3991 C   0  0  0  0  0  0  0  0  0  0  0  0
   27.9995  -21.3296  -10.2913 C   0  0  0  0  0  0  0  0  0  0  0  0
   27.2539  -21.3556  -11.6426 C   0  0  0  0  0  0  0  0  0  0  0  0
   25.8559  -20.8786  -11.3737 C   0  0  2  0  0  0  0  0  0  0  0  0
   25.2269  -21.6921  -10.2669 C   0  0  0  0  0  0  0  0  0  0  0  0
   24.9849  -20.6337  -12.5353 C   0  0  2  0  0  0  0  0  0  0  0  0
   25.6429  -19.7727  -13.5047 N   0  0  0  0  0  0  0  0  0  0  0  0
   23.6019  -20.2377  -12.3615 C   0  0  0  0  0  0  0  0  0  0  0  0
   23.3204  -19.1044  -11.8958 O   0  0  0  0  0  0  0  0  0  0  0  0
   22.4576  -21.0383  -12.6854 N   0  0  0  0  0  0  0  0  0  0  0  0
   21.2717  -20.3855  -13.2169 C   0  0  1  0  0  0  0  0  0  0  0  0
   21.5989  -19.5703  -14.4507 C   0  0  0  0  0  0  0  0  0  0  0  0
   20.3632  -18.9502  -15.0061 C   0  0  0  0  0  0  0  0  0  0  0  0
   19.1194  -19.1111  -14.4312 C   0  0  0  0  0  0  0  0  0  0  0  0
   18.2726  -18.4115  -15.2086 N   0  0  0  0  0  0  0  0  0  0  0  0
   18.9331  -17.8309  -16.2291 C   0  0  0  0  0  0  0  0  0  0  0  0
   20.2226  -18.1710  -16.0928 N   0  0  0  0  0  0  0  0  0  0  0  0
   20.2745  -21.4320  -13.4998 C   0  0  0  0  0  0  0  0  0  0  0  0
   18.9689  -21.0182  -13.7817 O   0  0  0  0  0  0  0  0  0  0  0  0
   20.5535  -22.6516  -13.4957 O   0  0  0  0  0  0  0  0  0  0  0  0
  2 12  2  0
  2  1  1  0
  3  2  1  0
  4  5  1  0
  4  3  2  0
  5 11  2  0
  6  5  1  0
  7  6  1  0
  7  8  1  6
  9  7  1  0
  9 10  2  0
 11 12  1  0
 13 14  1  0
 14 15  1  0
 15 17  1  0
 15 16  1  1
 17 18  1  6
 18  9  1  0
 19 17  1  0
 19 21  1  0
 20 19  2  0
 22 21  1  0
 22 29  1  0
 22 23  1  6
 24 23  1  0
 24 25  2  0
 26 25  1  0
 27 26  1  0
 28 27  2  0
 28 24  1  0
 29 31  2  0
 29 30  1  0
M  END
$$$$
