YIH.pdb
     RDKit          3D

 31 32  0  0  1  0  0  0  0  0999 V2000
   21.5779  -16.5889  -23.8327 O   0  0  0  0  0  0  0  0  0  0  0  0
   21.8691  -15.8596  -22.6821 C   0  0  0  0  0  0  0  0  0  0  0  0
   22.7754  -14.8195  -22.6995 C   0  0  0  0  0  0  0  0  0  0  0  0
   23.0612  -14.0991  -21.5568 C   0  0  0  0  0  0  0  0  0  0  0  0
   22.4570  -14.3840  -20.3495 C   0  0  0  0  0  0  0  0  0  0  0  0
   22.7822  -13.5955  -19.1404 C   0  0  0  0  0  0  0  0  0  0  0  0
   23.9483  -14.1311  -18.3812 C   0  0  2  0  0  0  0  0  0  0  0  0
   23.7413  -15.4765  -17.8905 N   0  0  0  0  0  0  0  0  0  0  0  0
   24.1746  -13.1874  -17.2196 C   0  0  0  0  0  0  0  0  0  0  0  0
   23.5783  -13.5179  -16.1712 O   0  0  0  0  0  0  0  0  0  0  0  0
   21.5514  -15.4256  -20.3386 C   0  0  0  0  0  0  0  0  0  0  0  0
   21.2612  -16.1500  -21.4782 C   0  0  0  0  0  0  0  0  0  0  0  0
   28.6861  -12.5044  -15.1480 C   0  0  0  0  0  0  0  0  0  0  0  0
   27.1778  -12.6306  -15.4506 C   0  0  0  0  0  0  0  0  0  0  0  0
   26.6998  -11.2620  -15.8414 C   0  0  2  0  0  0  0  0  0  0  0  0
   27.1652  -10.2356  -14.8353 C   0  0  0  0  0  0  0  0  0  0  0  0
   25.2953  -11.1259  -16.2618 C   0  0  2  0  0  0  0  0  0  0  0  0
   24.9829  -12.0548  -17.3358 N   0  0  0  0  0  0  0  0  0  0  0  0
   24.7199   -9.8241  -16.5339 C   0  0  0  0  0  0  0  0  0  0  0  0
   24.9835   -9.2259  -17.6077 O   0  0  0  0  0  0  0  0  0  0  0  0
   23.8302   -9.1074  -15.6678 N   0  0  0  0  0  0  0  0  0  0  0  0
   22.7078   -8.3905  -16.2517 C   0  0  1  0  0  0  0  0  0  0  0  0
   21.8975   -9.2871  -17.1646 C   0  0  0  0  0  0  0  0  0  0  0  0
   20.7794   -8.5222  -17.7849 C   0  0  0  0  0  0  0  0  0  0  0  0
   20.5585   -7.1830  -17.5376 C   0  0  0  0  0  0  0  0  0  0  0  0
   19.4759   -6.8580  -18.2677 N   0  0  0  0  0  0  0  0  0  0  0  0
   19.0227   -7.9282  -18.9490 C   0  0  0  0  0  0  0  0  0  0  0  0
   19.8358   -8.9490  -18.6424 N   0  0  0  0  0  0  0  0  0  0  0  0
   21.8950   -7.8558  -15.1458 C   0  0  0  0  0  0  0  0  0  0  0  0
   20.7810   -7.0803  -15.4818 O   0  0  0  0  0  0  0  0  0  0  0  0
   22.1647   -8.0693  -13.9430 O   0  0  0  0  0  0  0  0  0  0  0  0
  2 12  2  0
  2  1  1  0
  3  2  1  0
  4  5  1  0
  4  3  2  0
  5 11  2  0
  6  5  1  0
  7  6  1  0
  7  8  1  1
  9  7  1  0
  9 10  2  0
 11 12  1  0
 13 14  1  0
 14 15  1  0
 15 17  1  0
 15 16  1  1
 17 18  1  6
 18  9  1  0
 19 17  1  0
 19 21  1  0
 20 19  2  0
 22 21  1  0
 22 29  1  0
 22 23  1  1
 24 23  1  0
 24 25  2  0
 26 25  1  0
 27 26  1  0
 28 27  2  0
 28 24  1  0
 29 31  2  0
 29 30  1  0
M  END
$$$$
