NQQ.pdb
     RDKit          3D

 27 26  0  0  1  0  0  0  0  0999 V2000
    9.0893  -14.0424   17.7169 N   0  0  0  0  0  0  0  0  0  0  0  0
    8.7085  -13.0864   18.6861 C   0  0  0  0  0  0  0  0  0  0  0  0
    8.9085  -11.8591   18.5026 O   0  0  0  0  0  0  0  0  0  0  0  0
    8.0669  -13.5368   19.9297 C   0  0  0  0  0  0  0  0  0  0  0  0
    7.9377  -15.0595   19.9779 C   0  0  2  0  0  0  0  0  0  0  0  0
    6.8654  -15.3996   19.0719 N   0  0  0  0  0  0  0  0  0  0  0  0
    7.4852  -15.3757   21.3690 C   0  0  0  0  0  0  0  0  0  0  0  0
    6.3705  -14.8812   21.7265 O   0  0  0  0  0  0  0  0  0  0  0  0
    7.4451  -20.7534   23.4339 N   0  0  0  0  0  0  0  0  0  0  0  0
    7.1198  -20.1676   24.6854 C   0  0  0  0  0  0  0  0  0  0  0  0
    6.7605  -20.9194   25.6219 O   0  0  0  0  0  0  0  0  0  0  0  0
    7.2226  -18.6807   24.8228 C   0  0  0  0  0  0  0  0  0  0  0  0
    7.6148  -17.9980   23.5708 C   0  0  0  0  0  0  0  0  0  0  0  0
    7.6953  -16.5276   23.5384 C   0  0  2  0  0  0  0  0  0  0  0  0
    8.2572  -16.1810   22.2367 N   0  0  0  0  0  0  0  0  0  0  0  0
    8.4700  -15.8633   24.6018 C   0  0  0  0  0  0  0  0  0  0  0  0
    9.7278  -15.9109   24.5522 O   0  0  0  0  0  0  0  0  0  0  0  0
    5.6814  -12.1863   27.4384 N   0  0  0  0  0  0  0  0  0  0  0  0
    6.6703  -11.5918   26.6201 C   0  0  0  0  0  0  0  0  0  0  0  0
    6.4346  -10.5305   26.0255 O   0  0  0  0  0  0  0  0  0  0  0  0
    8.0050  -12.2819   26.4950 C   0  0  0  0  0  0  0  0  0  0  0  0
    8.0562  -13.4750   27.4080 C   0  0  0  0  0  0  0  0  0  0  0  0
    8.7413  -14.6162   26.7453 C   0  0  2  0  0  0  0  0  0  0  0  0
    7.8882  -15.1741   25.6736 N   0  0  0  0  0  0  0  0  0  0  0  0
    9.0815  -15.7014   27.6748 C   0  0  0  0  0  0  0  0  0  0  0  0
    8.5722  -16.8463   27.6607 O   0  0  0  0  0  0  0  0  0  0  0  0
   10.0560  -15.4438   28.6619 O   0  0  0  0  0  0  0  0  0  0  0  0
  2  1  1  0
  2  3  2  0
  4  2  1  0
  5  4  1  0
  5  6  1  6
  7  8  2  0
  7  5  1  0
  9 10  1  0
 10 12  1  0
 11 10  2  0
 12 13  1  0
 14 13  1  1
 14 15  1  0
 15  7  1  0
 16 24  1  0
 16 14  1  0
 17 16  2  0
 19 21  1  0
 19 18  1  0
 20 19  2  0
 23 22  1  1
 22 21  1  0
 23 24  1  0
 25 23  1  0
 26 25  2  0
 27 25  1  0
M  END
$$$$
