NQQ.pdb
     RDKit          3D

 27 26  0  0  1  0  0  0  0  0999 V2000
    9.9801  -20.7332   17.6150 N   0  0  0  0  0  0  0  0  0  0  0  0
    9.8534  -20.3579   18.9720 C   0  0  0  0  0  0  0  0  0  0  0  0
    9.4468  -21.1741   19.8371 O   0  0  0  0  0  0  0  0  0  0  0  0
   10.2043  -18.9890   19.3772 C   0  0  0  0  0  0  0  0  0  0  0  0
    9.9055  -18.7449   20.8566 C   0  0  2  0  0  0  0  0  0  0  0  0
    8.4757  -18.8857   21.0052 N   0  0  0  0  0  0  0  0  0  0  0  0
   10.2566  -17.3108   21.1011 C   0  0  0  0  0  0  0  0  0  0  0  0
   11.4802  -16.9972   20.9625 O   0  0  0  0  0  0  0  0  0  0  0  0
    7.3452  -12.3741   19.3639 N   0  0  0  0  0  0  0  0  0  0  0  0
    7.6949  -13.5954   18.7303 C   0  0  0  0  0  0  0  0  0  0  0  0
    7.2597  -13.8157   17.5756 O   0  0  0  0  0  0  0  0  0  0  0  0
    8.5663  -14.5585   19.4744 C   0  0  0  0  0  0  0  0  0  0  0  0
    8.8710  -14.1316   20.8573 C   0  0  0  0  0  0  0  0  0  0  0  0
    9.7108  -14.9862   21.7141 C   0  0  2  0  0  0  0  0  0  0  0  0
    9.2786  -16.3580   21.4663 N   0  0  0  0  0  0  0  0  0  0  0  0
    9.6986  -14.7203   23.1637 C   0  0  0  0  0  0  0  0  0  0  0  0
    9.9188  -13.5465   23.5644 O   0  0  0  0  0  0  0  0  0  0  0  0
    5.8678  -12.9149   26.0312 N   0  0  0  0  0  0  0  0  0  0  0  0
    6.9355  -12.6592   26.9232 C   0  0  0  0  0  0  0  0  0  0  0  0
    6.8487  -11.7466   27.7570 O   0  0  0  0  0  0  0  0  0  0  0  0
    8.1685  -13.5217   26.8291 C   0  0  0  0  0  0  0  0  0  0  0  0
    8.0273  -14.5015   25.6979 C   0  0  0  0  0  0  0  0  0  0  0  0
    9.2635  -15.3139   25.5474 C   0  0  2  0  0  0  0  0  0  0  0  0
    9.4530  -15.7017   24.1327 N   0  0  0  0  0  0  0  0  0  0  0  0
    9.2518  -16.5360   26.3621 C   0  0  0  0  0  0  0  0  0  0  0  0
    9.0384  -17.6903   25.9238 O   0  0  0  0  0  0  0  0  0  0  0  0
    9.4993  -16.4094   27.7453 O   0  0  0  0  0  0  0  0  0  0  0  0
  2  1  1  0
  2  3  2  0
  4  2  1  0
  5  4  1  0
  5  6  1  6
  7  8  2  0
  7  5  1  0
  9 10  1  0
 10 12  1  0
 11 10  2  0
 12 13  1  0
 14 13  1  6
 14 15  1  0
 15  7  1  0
 16 24  1  0
 16 14  1  0
 17 16  2  0
 19 21  1  0
 19 18  1  0
 20 19  2  0
 23 22  1  6
 22 21  1  0
 23 24  1  0
 25 23  1  0
 26 25  2  0
 27 25  1  0
M  END
$$$$
