NQQ.pdb
     RDKit          3D

 27 26  0  0  1  0  0  0  0  0999 V2000
   10.4573  -18.7648   15.9058 N   0  0  0  0  0  0  0  0  0  0  0  0
    9.9880  -19.4296   17.0616 C   0  0  0  0  0  0  0  0  0  0  0  0
   10.1112  -20.6737   17.1913 O   0  0  0  0  0  0  0  0  0  0  0  0
    9.3452  -18.6509   18.1302 C   0  0  0  0  0  0  0  0  0  0  0  0
   10.0555  -18.8398   19.4708 C   0  0  2  0  0  0  0  0  0  0  0  0
    9.1816  -19.6617   20.2751 N   0  0  0  0  0  0  0  0  0  0  0  0
   10.1066  -17.4775   20.0883 C   0  0  0  0  0  0  0  0  0  0  0  0
   10.4657  -16.5254   19.3271 O   0  0  0  0  0  0  0  0  0  0  0  0
    7.1927  -13.6909   19.5613 N   0  0  0  0  0  0  0  0  0  0  0  0
    7.9240  -12.9212   20.5036 C   0  0  0  0  0  0  0  0  0  0  0  0
    7.7689  -11.6774   20.5085 O   0  0  0  0  0  0  0  0  0  0  0  0
    8.8441  -13.6352   21.4440 C   0  0  0  0  0  0  0  0  0  0  0  0
    8.9338  -15.0897   21.1914 C   0  0  0  0  0  0  0  0  0  0  0  0
    9.8757  -15.9074   21.9748 C   0  0  2  0  0  0  0  0  0  0  0  0
    9.7730  -17.2634   21.4449 N   0  0  0  0  0  0  0  0  0  0  0  0
    9.7008  -15.9358   23.4379 C   0  0  0  0  0  0  0  0  0  0  0  0
    8.9467  -16.8117   23.9391 O   0  0  0  0  0  0  0  0  0  0  0  0
    5.9828  -12.7750   25.1299 N   0  0  0  0  0  0  0  0  0  0  0  0
    6.5771  -12.6900   26.4107 C   0  0  0  0  0  0  0  0  0  0  0  0
    6.0662  -11.9836   27.2914 O   0  0  0  0  0  0  0  0  0  0  0  0
    7.8372  -13.4767   26.6683 C   0  0  0  0  0  0  0  0  0  0  0  0
    8.4344  -13.9344   25.3670 C   0  0  0  0  0  0  0  0  0  0  0  0
    9.6897  -14.6956   25.6024 C   0  0  2  0  0  0  0  0  0  0  0  0
   10.3289  -15.0415   24.3143 N   0  0  0  0  0  0  0  0  0  0  0  0
    9.4770  -15.9367   26.3588 C   0  0  0  0  0  0  0  0  0  0  0  0
    9.1890  -15.9959   27.5769 O   0  0  0  0  0  0  0  0  0  0  0  0
    9.6042  -17.1603   25.6683 O   0  0  0  0  0  0  0  0  0  0  0  0
  2  1  1  0
  2  3  2  0
  4  2  1  0
  5  4  1  0
  5  6  1  1
  7  8  2  0
  7  5  1  0
  9 10  1  0
 10 12  1  0
 11 10  2  0
 12 13  1  0
 14 13  1  6
 14 15  1  0
 15  7  1  0
 16 24  1  0
 16 14  1  0
 17 16  2  0
 19 21  1  0
 19 18  1  0
 20 19  2  0
 23 22  1  6
 22 21  1  0
 23 24  1  0
 25 23  1  0
 26 25  2  0
 27 25  1  0
M  END
$$$$
