NQQ.pdb
     RDKit          3D

 27 26  0  0  1  0  0  0  0  0999 V2000
   16.7245  -13.9535   18.3260 N   0  0  0  0  0  0  0  0  0  0  0  0
   15.5117  -14.6123   18.0199 C   0  0  0  0  0  0  0  0  0  0  0  0
   15.4312  -15.4096   17.0516 O   0  0  0  0  0  0  0  0  0  0  0  0
   14.3248  -14.3599   18.8499 C   0  0  0  0  0  0  0  0  0  0  0  0
   13.9447  -15.5875   19.6781 C   0  0  2  0  0  0  0  0  0  0  0  0
   13.2933  -16.4996   18.7670 N   0  0  0  0  0  0  0  0  0  0  0  0
   12.9220  -15.1041   20.6580 C   0  0  0  0  0  0  0  0  0  0  0  0
   13.3307  -14.2938   21.5475 O   0  0  0  0  0  0  0  0  0  0  0  0
    6.6818  -12.7286   19.8208 N   0  0  0  0  0  0  0  0  0  0  0  0
    7.0135  -14.0063   20.3430 C   0  0  0  0  0  0  0  0  0  0  0  0
    6.3203  -14.9917   19.9970 O   0  0  0  0  0  0  0  0  0  0  0  0
    8.1751  -14.1114   21.2811 C   0  0  0  0  0  0  0  0  0  0  0  0
    9.3653  -14.7490   20.6775 C   0  0  0  0  0  0  0  0  0  0  0  0
   10.6045  -14.8685   21.4648 C   0  0  2  0  0  0  0  0  0  0  0  0
   11.5749  -15.5269   20.5958 N   0  0  0  0  0  0  0  0  0  0  0  0
   10.5292  -15.5850   22.7505 C   0  0  0  0  0  0  0  0  0  0  0  0
   10.9000  -16.7881   22.7941 O   0  0  0  0  0  0  0  0  0  0  0  0
    9.4566  -13.3524   28.5508 N   0  0  0  0  0  0  0  0  0  0  0  0
    9.6236  -14.7326   28.8116 C   0  0  0  0  0  0  0  0  0  0  0  0
    9.6063  -15.1555   29.9763 O   0  0  0  0  0  0  0  0  0  0  0  0
    9.8212  -15.6629   27.6417 C   0  0  0  0  0  0  0  0  0  0  0  0
    9.8898  -14.8759   26.3628 C   0  0  0  0  0  0  0  0  0  0  0  0
   10.0920  -15.7788   25.1990 C   0  0  2  0  0  0  0  0  0  0  0  0
   10.0681  -15.0044   23.9391 N   0  0  0  0  0  0  0  0  0  0  0  0
    9.0772  -16.8369   25.1083 C   0  0  0  0  0  0  0  0  0  0  0  0
    7.9794  -16.7311   24.5135 O   0  0  0  0  0  0  0  0  0  0  0  0
    9.3518  -18.0702   25.7359 O   0  0  0  0  0  0  0  0  0  0  0  0
  2  1  1  0
  2  3  2  0
  4  2  1  0
  5  4  1  0
  5  6  1  6
  7  8  2  0
  7  5  1  0
  9 10  1  0
 10 12  1  0
 11 10  2  0
 12 13  1  0
 14 13  1  6
 14 15  1  0
 15  7  1  0
 16 24  1  0
 16 14  1  0
 17 16  2  0
 19 21  1  0
 19 18  1  0
 20 19  2  0
 23 22  1  1
 22 21  1  0
 23 24  1  0
 25 23  1  0
 26 25  2  0
 27 25  1  0
M  END
$$$$
