NQQ.pdb
     RDKit          3D

 27 26  0  0  1  0  0  0  0  0999 V2000
    1.3420  -22.6985   20.9471 N   0  0  0  0  0  0  0  0  0  0  0  0
    1.9868  -22.1083   22.0581 C   0  0  0  0  0  0  0  0  0  0  0  0
    1.3271  -21.5656   22.9801 O   0  0  0  0  0  0  0  0  0  0  0  0
    3.4547  -22.1308   22.1354 C   0  0  0  0  0  0  0  0  0  0  0  0
    4.0079  -20.8350   22.7292 C   0  0  2  0  0  0  0  0  0  0  0  0
    3.4704  -19.7635   21.9234 N   0  0  0  0  0  0  0  0  0  0  0  0
    5.4853  -20.8912   22.4974 C   0  0  0  0  0  0  0  0  0  0  0  0
    6.0637  -21.9813   22.8009 O   0  0  0  0  0  0  0  0  0  0  0  0
    9.2950  -19.3645   18.0388 N   0  0  0  0  0  0  0  0  0  0  0  0
    8.7306  -18.1880   18.5977 C   0  0  0  0  0  0  0  0  0  0  0  0
    8.7854  -17.1255   17.9348 O   0  0  0  0  0  0  0  0  0  0  0  0
    8.0983  -18.2765   19.9516 C   0  0  0  0  0  0  0  0  0  0  0  0
    7.9875  -19.6602   20.4619 C   0  0  0  0  0  0  0  0  0  0  0  0
    7.6505  -19.8887   21.8774 C   0  0  2  0  0  0  0  0  0  0  0  0
    6.1972  -19.7904   21.9692 N   0  0  0  0  0  0  0  0  0  0  0  0
    8.2683  -18.9998   22.8777 C   0  0  0  0  0  0  0  0  0  0  0  0
    7.5701  -18.0804   23.3817 O   0  0  0  0  0  0  0  0  0  0  0  0
    7.7427  -21.2353   27.3646 N   0  0  0  0  0  0  0  0  0  0  0  0
    8.6958  -20.3749   27.9582 C   0  0  0  0  0  0  0  0  0  0  0  0
    8.8164  -20.3309   29.1907 O   0  0  0  0  0  0  0  0  0  0  0  0
    9.5508  -19.5226   27.0550 C   0  0  0  0  0  0  0  0  0  0  0  0
    9.1573  -19.7365   25.6200 C   0  0  0  0  0  0  0  0  0  0  0  0
    9.9426  -18.8502   24.7209 C   0  0  2  0  0  0  0  0  0  0  0  0
    9.5963  -19.1166   23.3079 N   0  0  0  0  0  0  0  0  0  0  0  0
   11.3941  -19.0121   24.8775 C   0  0  0  0  0  0  0  0  0  0  0  0
   12.1579  -19.5161   24.0215 O   0  0  0  0  0  0  0  0  0  0  0  0
   11.9816  -18.5683   26.0809 O   0  0  0  0  0  0  0  0  0  0  0  0
  2  1  1  0
  2  3  2  0
  4  2  1  0
  5  4  1  0
  5  6  1  6
  7  8  2  0
  7  5  1  0
  9 10  1  0
 10 12  1  0
 11 10  2  0
 12 13  1  0
 14 13  1  6
 14 15  1  0
 15  7  1  0
 16 24  1  0
 16 14  1  0
 17 16  2  0
 19 21  1  0
 19 18  1  0
 20 19  2  0
 23 22  1  1
 22 21  1  0
 23 24  1  0
 25 23  1  0
 26 25  2  0
 27 25  1  0
M  END
$$$$
