NQQ.pdb
     RDKit          3D

 27 26  0  0  1  0  0  0  0  0999 V2000
    7.7108  -14.3576   15.6860 N   0  0  0  0  0  0  0  0  0  0  0  0
    8.0837  -13.7783   16.9204 C   0  0  0  0  0  0  0  0  0  0  0  0
    7.8025  -12.5832   17.1891 O   0  0  0  0  0  0  0  0  0  0  0  0
    8.8127  -14.5894   17.9063 C   0  0  0  0  0  0  0  0  0  0  0  0
    9.1495  -15.9760   17.3571 C   0  0  2  0  0  0  0  0  0  0  0  0
    7.8857  -16.6472   17.1610 N   0  0  0  0  0  0  0  0  0  0  0  0
    9.8773  -16.6747   18.4626 C   0  0  0  0  0  0  0  0  0  0  0  0
    9.1670  -17.3658   19.2580 O   0  0  0  0  0  0  0  0  0  0  0  0
   15.6744  -20.3673   18.8930 N   0  0  0  0  0  0  0  0  0  0  0  0
   15.3905  -19.0083   19.1895 C   0  0  0  0  0  0  0  0  0  0  0  0
   16.2316  -18.1375   18.8648 O   0  0  0  0  0  0  0  0  0  0  0  0
   14.1001  -18.6847   19.8754 C   0  0  0  0  0  0  0  0  0  0  0  0
   13.2232  -17.7886   19.0909 C   0  0  0  0  0  0  0  0  0  0  0  0
   11.9238  -17.3732   19.6464 C   0  0  2  0  0  0  0  0  0  0  0  0
   11.2788  -16.5704   18.6121 N   0  0  0  0  0  0  0  0  0  0  0  0
   11.9326  -16.6252   20.9163 C   0  0  0  0  0  0  0  0  0  0  0  0
   11.9449  -15.3662   20.8755 O   0  0  0  0  0  0  0  0  0  0  0  0
    7.1586  -16.4761   21.7247 N   0  0  0  0  0  0  0  0  0  0  0  0
    7.7861  -15.2390   22.0016 C   0  0  0  0  0  0  0  0  0  0  0  0
    7.1924  -14.1737   21.7819 O   0  0  0  0  0  0  0  0  0  0  0  0
    9.1841  -15.2564   22.5660 C   0  0  0  0  0  0  0  0  0  0  0  0
    9.6357  -16.6739   22.7810 C   0  0  0  0  0  0  0  0  0  0  0  0
   11.0472  -16.7120   23.2469 C   0  0  2  0  0  0  0  0  0  0  0  0
   11.9261  -17.2338   22.1780 N   0  0  0  0  0  0  0  0  0  0  0  0
   11.2358  -17.5419   24.4441 C   0  0  0  0  0  0  0  0  0  0  0  0
   10.9375  -18.7558   24.5318 O   0  0  0  0  0  0  0  0  0  0  0  0
   11.7956  -16.9336   25.5873 O   0  0  0  0  0  0  0  0  0  0  0  0
  2  1  1  0
  2  3  2  0
  4  2  1  0
  5  4  1  0
  5  6  1  1
  7  8  2  0
  7  5  1  0
  9 10  1  0
 10 12  1  0
 11 10  2  0
 12 13  1  0
 14 13  1  6
 14 15  1  0
 15  7  1  0
 16 24  1  0
 16 14  1  0
 17 16  2  0
 19 21  1  0
 19 18  1  0
 20 19  2  0
 23 22  1  6
 22 21  1  0
 23 24  1  0
 25 23  1  0
 26 25  2  0
 27 25  1  0
M  END
$$$$
