NQQ.pdb
     RDKit          3D

 27 26  0  0  1  0  0  0  0  0999 V2000
   15.2005  -16.0722   13.9538 N   0  0  0  0  0  0  0  0  0  0  0  0
   15.3625  -14.7640   14.4643 C   0  0  0  0  0  0  0  0  0  0  0  0
   16.1138  -13.9323   13.8954 O   0  0  0  0  0  0  0  0  0  0  0  0
   14.6385  -14.3705   15.6818 C   0  0  0  0  0  0  0  0  0  0  0  0
   13.8905  -15.5522   16.2996 C   0  0  2  0  0  0  0  0  0  0  0  0
   12.7848  -15.8338   15.4138 N   0  0  0  0  0  0  0  0  0  0  0  0
   13.3306  -15.0375   17.5885 C   0  0  0  0  0  0  0  0  0  0  0  0
   14.1726  -14.7554   18.4975 O   0  0  0  0  0  0  0  0  0  0  0  0
    7.4076  -13.4058   18.3744 N   0  0  0  0  0  0  0  0  0  0  0  0
    7.8245  -13.3039   19.7276 C   0  0  0  0  0  0  0  0  0  0  0  0
    7.0007  -12.8910   20.5774 O   0  0  0  0  0  0  0  0  0  0  0  0
    9.2281  -13.6949   20.0705 C   0  0  0  0  0  0  0  0  0  0  0  0
   10.0471  -14.0489   18.8910 C   0  0  0  0  0  0  0  0  0  0  0  0
   11.4795  -14.3461   19.0626 C   0  0  2  0  0  0  0  0  0  0  0  0
   11.9401  -14.8744   17.7824 N   0  0  0  0  0  0  0  0  0  0  0  0
   11.8589  -15.2738   20.1433 C   0  0  0  0  0  0  0  0  0  0  0  0
   11.5786  -16.4954   20.0167 O   0  0  0  0  0  0  0  0  0  0  0  0
   17.0987  -15.4108   23.0822 N   0  0  0  0  0  0  0  0  0  0  0  0
   16.4599  -16.4860   23.7431 C   0  0  0  0  0  0  0  0  0  0  0  0
   17.1103  -17.2444   24.4762 O   0  0  0  0  0  0  0  0  0  0  0  0
   14.9798  -16.6787   23.5301 C   0  0  0  0  0  0  0  0  0  0  0  0
   14.4642  -15.6656   22.5465 C   0  0  0  0  0  0  0  0  0  0  0  0
   13.0234  -15.8956   22.2600 C   0  0  2  0  0  0  0  0  0  0  0  0
   12.5201  -14.8773   21.3129 N   0  0  0  0  0  0  0  0  0  0  0  0
   12.1841  -15.8586   23.4648 C   0  0  0  0  0  0  0  0  0  0  0  0
   11.3875  -14.9368   23.7581 O   0  0  0  0  0  0  0  0  0  0  0  0
   12.2751  -16.9402   24.3660 O   0  0  0  0  0  0  0  0  0  0  0  0
  2  1  1  0
  2  3  2  0
  4  2  1  0
  5  4  1  0
  5  6  1  6
  7  8  2  0
  7  5  1  0
  9 10  1  0
 10 12  1  0
 11 10  2  0
 12 13  1  0
 14 13  1  6
 14 15  1  0
 15  7  1  0
 16 24  1  0
 16 14  1  0
 17 16  2  0
 19 21  1  0
 19 18  1  0
 20 19  2  0
 23 22  1  1
 22 21  1  0
 23 24  1  0
 25 23  1  0
 26 25  2  0
 27 25  1  0
M  END
$$$$
