NQQ.pdb
     RDKit          3D

 27 26  0  0  1  0  0  0  0  0999 V2000
    9.7725  -16.7536   12.6732 N   0  0  0  0  0  0  0  0  0  0  0  0
    9.6811  -15.3791   12.9903 C   0  0  0  0  0  0  0  0  0  0  0  0
    9.4487  -14.5208   12.1019 O   0  0  0  0  0  0  0  0  0  0  0  0
    9.8606  -14.9473   14.3841 C   0  0  0  0  0  0  0  0  0  0  0  0
   10.2119  -16.1221   15.2974 C   0  0  2  0  0  0  0  0  0  0  0  0
    9.0352  -16.9584   15.3452 N   0  0  0  0  0  0  0  0  0  0  0  0
   10.4095  -15.5242   16.6550 C   0  0  0  0  0  0  0  0  0  0  0  0
   11.4117  -14.7551   16.7931 O   0  0  0  0  0  0  0  0  0  0  0  0
    8.0401  -12.3991   20.0322 N   0  0  0  0  0  0  0  0  0  0  0  0
    7.4465  -13.2221   19.0395 C   0  0  0  0  0  0  0  0  0  0  0  0
    7.0660  -12.6893   17.9706 O   0  0  0  0  0  0  0  0  0  0  0  0
    7.3053  -14.6855   19.3204 C   0  0  0  0  0  0  0  0  0  0  0  0
    8.5532  -15.3175   19.8006 C   0  0  0  0  0  0  0  0  0  0  0  0
    9.7909  -15.1725   19.0153 C   0  0  2  0  0  0  0  0  0  0  0  0
    9.5280  -15.8009   17.7245 N   0  0  0  0  0  0  0  0  0  0  0  0
   11.0311  -15.7253   19.5886 C   0  0  0  0  0  0  0  0  0  0  0  0
   11.3172  -16.9306   19.3601 O   0  0  0  0  0  0  0  0  0  0  0  0
   17.0180  -14.5121   19.5203 N   0  0  0  0  0  0  0  0  0  0  0  0
   15.8633  -14.2557   18.7445 C   0  0  0  0  0  0  0  0  0  0  0  0
   15.9106  -13.4574   17.7979 O   0  0  0  0  0  0  0  0  0  0  0  0
   14.5874  -14.9755   19.1011 C   0  0  0  0  0  0  0  0  0  0  0  0
   14.3442  -14.8907   20.5821 C   0  0  0  0  0  0  0  0  0  0  0  0
   13.1148  -15.6380   20.9575 C   0  0  2  0  0  0  0  0  0  0  0  0
   11.9209  -14.9853   20.3780 N   0  0  0  0  0  0  0  0  0  0  0  0
   12.9243  -15.7397   22.4104 C   0  0  0  0  0  0  0  0  0  0  0  0
   11.9645  -15.2448   23.0460 O   0  0  0  0  0  0  0  0  0  0  0  0
   13.8913  -16.4475   23.1550 O   0  0  0  0  0  0  0  0  0  0  0  0
  2  1  1  0
  2  3  2  0
  4  2  1  0
  5  4  1  0
  5  6  1  1
  7  8  2  0
  7  5  1  0
  9 10  1  0
 10 12  1  0
 11 10  2  0
 12 13  1  0
 14 13  1  1
 14 15  1  0
 15  7  1  0
 16 24  1  0
 16 14  1  0
 17 16  2  0
 19 21  1  0
 19 18  1  0
 20 19  2  0
 23 22  1  1
 22 21  1  0
 23 24  1  0
 25 23  1  0
 26 25  2  0
 27 25  1  0
M  END
$$$$
