NQQ.pdb
     RDKit          3D

 27 26  0  0  1  0  0  0  0  0999 V2000
    8.0907  -13.5416   17.8657 N   0  0  0  0  0  0  0  0  0  0  0  0
    8.5335  -12.8379   19.0090 C   0  0  0  0  0  0  0  0  0  0  0  0
    8.8388  -11.6203   18.9454 O   0  0  0  0  0  0  0  0  0  0  0  0
    8.6379  -13.5438   20.2944 C   0  0  0  0  0  0  0  0  0  0  0  0
    8.2224  -15.0098   20.1678 C   0  0  2  0  0  0  0  0  0  0  0  0
    6.8043  -15.0021   19.8939 N   0  0  0  0  0  0  0  0  0  0  0  0
    8.4273  -15.5992   21.5281 C   0  0  0  0  0  0  0  0  0  0  0  0
    7.4130  -15.6199   22.2933 O   0  0  0  0  0  0  0  0  0  0  0  0
   13.4051  -19.6563   24.5158 N   0  0  0  0  0  0  0  0  0  0  0  0
   12.1117  -19.7494   23.9381 C   0  0  0  0  0  0  0  0  0  0  0  0
   11.8598  -20.7233   23.1903 O   0  0  0  0  0  0  0  0  0  0  0  0
   11.1140  -18.6786   24.2520 C   0  0  0  0  0  0  0  0  0  0  0  0
   10.7606  -17.8409   23.0854 C   0  0  0  0  0  0  0  0  0  0  0  0
    9.7693  -16.7623   23.2380 C   0  0  2  0  0  0  0  0  0  0  0  0
    9.6817  -16.1053   21.9376 N   0  0  0  0  0  0  0  0  0  0  0  0
   10.0147  -15.7532   24.2839 C   0  0  0  0  0  0  0  0  0  0  0  0
   10.3750  -14.5975   23.9354 O   0  0  0  0  0  0  0  0  0  0  0  0
    5.7883  -13.2221   25.6811 N   0  0  0  0  0  0  0  0  0  0  0  0
    6.4453  -12.6933   26.8168 C   0  0  0  0  0  0  0  0  0  0  0  0
    5.9285  -11.7728   27.4658 O   0  0  0  0  0  0  0  0  0  0  0  0
    7.7788  -13.2776   27.2085 C   0  0  0  0  0  0  0  0  0  0  0  0
    8.1833  -14.3425   26.2277 C   0  0  0  0  0  0  0  0  0  0  0  0
    9.5184  -14.8977   26.5741 C   0  0  2  0  0  0  0  0  0  0  0  0
    9.8687  -16.0020   25.6547 N   0  0  0  0  0  0  0  0  0  0  0  0
    9.5915  -15.4043   27.9509 C   0  0  0  0  0  0  0  0  0  0  0  0
    9.7339  -14.6924   28.9723 O   0  0  0  0  0  0  0  0  0  0  0  0
    9.4941  -16.7979   28.1475 O   0  0  0  0  0  0  0  0  0  0  0  0
  2  1  1  0
  2  3  2  0
  4  2  1  0
  5  4  1  0
  5  6  1  1
  7  8  2  0
  7  5  1  0
  9 10  1  0
 10 12  1  0
 11 10  2  0
 12 13  1  0
 14 13  1  6
 14 15  1  0
 15  7  1  0
 16 24  1  0
 16 14  1  0
 17 16  2  0
 19 21  1  0
 19 18  1  0
 20 19  2  0
 23 22  1  6
 22 21  1  0
 23 24  1  0
 25 23  1  0
 26 25  2  0
 27 25  1  0
M  END
$$$$
