NQQ.pdb
     RDKit          3D

 27 26  0  0  1  0  0  0  0  0999 V2000
    7.4601  -11.6854   18.6933 N   0  0  0  0  0  0  0  0  0  0  0  0
    7.8882  -12.9882   19.0363 C   0  0  0  0  0  0  0  0  0  0  0  0
    8.3956  -13.7531   18.1776 O   0  0  0  0  0  0  0  0  0  0  0  0
    7.7371  -13.4552   20.4221 C   0  0  0  0  0  0  0  0  0  0  0  0
    8.2335  -14.8915   20.5902 C   0  0  2  0  0  0  0  0  0  0  0  0
    7.5167  -15.6800   19.6151 N   0  0  0  0  0  0  0  0  0  0  0  0
    7.7763  -15.3127   21.9516 C   0  0  0  0  0  0  0  0  0  0  0  0
    7.2133  -14.4202   22.6596 O   0  0  0  0  0  0  0  0  0  0  0  0
    5.9856  -20.6411   23.6793 N   0  0  0  0  0  0  0  0  0  0  0  0
    5.9060  -19.9645   22.4339 C   0  0  0  0  0  0  0  0  0  0  0  0
    5.6651  -20.6360   21.4032 O   0  0  0  0  0  0  0  0  0  0  0  0
    6.1143  -18.4824   22.4153 C   0  0  0  0  0  0  0  0  0  0  0  0
    6.5056  -17.9248   23.7280 C   0  0  0  0  0  0  0  0  0  0  0  0
    7.5900  -16.9308   23.8021 C   0  0  2  0  0  0  0  0  0  0  0  0
    7.9613  -16.6323   22.4225 N   0  0  0  0  0  0  0  0  0  0  0  0
    8.7955  -17.2923   24.5693 C   0  0  0  0  0  0  0  0  0  0  0  0
    9.9230  -16.9685   24.1104 O   0  0  0  0  0  0  0  0  0  0  0  0
    9.1002  -13.5442   27.9335 N   0  0  0  0  0  0  0  0  0  0  0  0
   10.0273  -14.2623   28.7244 C   0  0  0  0  0  0  0  0  0  0  0  0
   10.6287  -13.6985   29.6496 O   0  0  0  0  0  0  0  0  0  0  0  0
   10.2587  -15.7187   28.4103 C   0  0  0  0  0  0  0  0  0  0  0  0
    9.4089  -16.1357   27.2425 C   0  0  0  0  0  0  0  0  0  0  0  0
    9.6517  -17.5613   26.8969 C   0  0  2  0  0  0  0  0  0  0  0  0
    8.7641  -17.9788   25.7900 N   0  0  0  0  0  0  0  0  0  0  0  0
    9.4362  -18.4725   28.0286 C   0  0  0  0  0  0  0  0  0  0  0  0
   10.2828  -18.7296   28.9159 O   0  0  0  0  0  0  0  0  0  0  0  0
    8.1825  -19.1112   28.1322 O   0  0  0  0  0  0  0  0  0  0  0  0
  2  1  1  0
  2  3  2  0
  4  2  1  0
  5  4  1  0
  5  6  1  6
  7  8  2  0
  7  5  1  0
  9 10  1  0
 10 12  1  0
 11 10  2  0
 12 13  1  0
 14 13  1  6
 14 15  1  0
 15  7  1  0
 16 24  1  0
 16 14  1  0
 17 16  2  0
 19 21  1  0
 19 18  1  0
 20 19  2  0
 23 22  1  1
 22 21  1  0
 23 24  1  0
 25 23  1  0
 26 25  2  0
 27 25  1  0
M  END
$$$$
