NQQ.pdb
     RDKit          3D

 27 26  0  0  1  0  0  0  0  0999 V2000
   14.9877  -15.9860   14.5395 N   0  0  0  0  0  0  0  0  0  0  0  0
   15.3020  -16.6785   15.7311 C   0  0  0  0  0  0  0  0  0  0  0  0
   16.0042  -17.7207   15.7117 O   0  0  0  0  0  0  0  0  0  0  0  0
   14.7983  -16.1693   17.0150 C   0  0  0  0  0  0  0  0  0  0  0  0
   13.8896  -14.9549   16.8224 C   0  0  2  0  0  0  0  0  0  0  0  0
   14.7631  -13.8445   16.5219 N   0  0  0  0  0  0  0  0  0  0  0  0
   13.2701  -14.7063   18.1619 C   0  0  0  0  0  0  0  0  0  0  0  0
   14.0516  -14.3045   19.0799 O   0  0  0  0  0  0  0  0  0  0  0  0
    7.0666  -12.3372   19.2519 N   0  0  0  0  0  0  0  0  0  0  0  0
    7.8413  -13.3788   18.6773 C   0  0  0  0  0  0  0  0  0  0  0  0
    7.2468  -14.3022   18.0731 O   0  0  0  0  0  0  0  0  0  0  0  0
    9.3299  -13.3209   18.8227 C   0  0  0  0  0  0  0  0  0  0  0  0
    9.8975  -14.4780   19.5483 C   0  0  0  0  0  0  0  0  0  0  0  0
   11.3570  -14.5891   19.7123 C   0  0  2  0  0  0  0  0  0  0  0  0
   11.8902  -14.9078   18.3916 N   0  0  0  0  0  0  0  0  0  0  0  0
   11.8606  -15.5651   20.6953 C   0  0  0  0  0  0  0  0  0  0  0  0
   11.9458  -16.7752   20.3557 O   0  0  0  0  0  0  0  0  0  0  0  0
   17.1474  -15.5481   23.0717 N   0  0  0  0  0  0  0  0  0  0  0  0
   16.5507  -16.3516   24.0714 C   0  0  0  0  0  0  0  0  0  0  0  0
   17.1946  -16.6771   25.0789 O   0  0  0  0  0  0  0  0  0  0  0  0
   15.1230  -16.7948   23.8753 C   0  0  0  0  0  0  0  0  0  0  0  0
   14.3879  -15.8021   23.0187 C   0  0  0  0  0  0  0  0  0  0  0  0
   12.9714  -16.2140   22.8327 C   0  0  2  0  0  0  0  0  0  0  0  0
   12.2559  -15.2264   21.9958 N   0  0  0  0  0  0  0  0  0  0  0  0
   12.2427  -16.3575   24.0999 C   0  0  0  0  0  0  0  0  0  0  0  0
   11.3171  -15.6063   24.4861 O   0  0  0  0  0  0  0  0  0  0  0  0
   12.6061  -17.4204   24.9535 O   0  0  0  0  0  0  0  0  0  0  0  0
  2  1  1  0
  2  3  2  0
  4  2  1  0
  5  4  1  0
  5  6  1  1
  7  8  2  0
  7  5  1  0
  9 10  1  0
 10 12  1  0
 11 10  2  0
 12 13  1  0
 14 13  1  6
 14 15  1  0
 15  7  1  0
 16 24  1  0
 16 14  1  0
 17 16  2  0
 19 21  1  0
 19 18  1  0
 20 19  2  0
 23 22  1  1
 22 21  1  0
 23 24  1  0
 25 23  1  0
 26 25  2  0
 27 25  1  0
M  END
$$$$
