NQQ.pdb
     RDKit          3D

 27 26  0  0  1  0  0  0  0  0999 V2000
   10.9629  -20.1745   15.9260 N   0  0  0  0  0  0  0  0  0  0  0  0
   11.2205  -18.8251   15.5927 C   0  0  0  0  0  0  0  0  0  0  0  0
   11.6620  -18.5080   14.4595 O   0  0  0  0  0  0  0  0  0  0  0  0
   10.9665  -17.7751   16.5900 C   0  0  0  0  0  0  0  0  0  0  0  0
   10.5298  -18.3653   17.9311 C   0  0  2  0  0  0  0  0  0  0  0  0
    9.1345  -18.7079   17.7828 N   0  0  0  0  0  0  0  0  0  0  0  0
   10.6274  -17.2384   18.9112 C   0  0  0  0  0  0  0  0  0  0  0  0
   11.7989  -16.9044   19.2731 O   0  0  0  0  0  0  0  0  0  0  0  0
    6.8281  -12.5086   19.7244 N   0  0  0  0  0  0  0  0  0  0  0  0
    7.2907  -13.1789   18.5617 C   0  0  0  0  0  0  0  0  0  0  0  0
    6.8144  -12.8466   17.4509 O   0  0  0  0  0  0  0  0  0  0  0  0
    8.3245  -14.2494   18.7220 C   0  0  0  0  0  0  0  0  0  0  0  0
    8.7149  -14.4870   20.1287 C   0  0  0  0  0  0  0  0  0  0  0  0
    9.6529  -15.5765   20.4492 C   0  0  2  0  0  0  0  0  0  0  0  0
    9.4777  -16.5822   19.4062 N   0  0  0  0  0  0  0  0  0  0  0  0
    9.5317  -16.2135   21.7728 C   0  0  0  0  0  0  0  0  0  0  0  0
    8.6541  -17.1020   21.9373 O   0  0  0  0  0  0  0  0  0  0  0  0
   11.5203  -20.6179   21.9678 N   0  0  0  0  0  0  0  0  0  0  0  0
   11.6103  -20.3804   23.3594 C   0  0  0  0  0  0  0  0  0  0  0  0
   11.2478  -21.2481   24.1665 O   0  0  0  0  0  0  0  0  0  0  0  0
   12.1548  -19.0538   23.8250 C   0  0  0  0  0  0  0  0  0  0  0  0
   11.6384  -17.9479   22.9477 C   0  0  0  0  0  0  0  0  0  0  0  0
   10.8634  -16.9611   23.7454 C   0  0  2  0  0  0  0  0  0  0  0  0
   10.3415  -15.8900   22.8691 N   0  0  0  0  0  0  0  0  0  0  0  0
   11.6542  -16.3370   24.8143 C   0  0  0  0  0  0  0  0  0  0  0  0
   11.4274  -16.4579   26.0407 O   0  0  0  0  0  0  0  0  0  0  0  0
   12.7558  -15.5389   24.4402 O   0  0  0  0  0  0  0  0  0  0  0  0
  2  1  1  0
  2  3  2  0
  4  2  1  0
  5  4  1  0
  5  6  1  6
  7  8  2  0
  7  5  1  0
  9 10  1  0
 10 12  1  0
 11 10  2  0
 12 13  1  0
 14 13  1  6
 14 15  1  0
 15  7  1  0
 16 24  1  0
 16 14  1  0
 17 16  2  0
 19 21  1  0
 19 18  1  0
 20 19  2  0
 23 22  1  6
 22 21  1  0
 23 24  1  0
 25 23  1  0
 26 25  2  0
 27 25  1  0
M  END
$$$$
