EPH.pdb
     RDKit          3D

 27 28  0  0  1  0  0  0  0  0999 V2000
    7.7020  -14.0291   21.0392 N   0  0  0  0  0  0  0  0  0  0  0  0
    7.3102  -14.2409   22.3856 C   0  0  1  0  0  0  0  0  0  0  0  0
    6.8980  -15.7032   22.6266 C   0  0  0  0  0  0  0  0  0  0  0  0
    6.8524  -16.4740   21.3208 C   0  0  0  0  0  0  0  0  0  0  0  0
    7.5664  -17.7563   21.4283 C   0  0  0  0  0  0  0  0  0  0  0  0
    7.0729  -18.7840   21.9680 O   0  0  0  0  0  0  0  0  0  0  0  0
    8.3072  -13.9354   23.4196 C   0  0  0  0  0  0  0  0  0  0  0  0
    9.5152  -13.8319   22.9602 O   0  0  0  0  0  0  0  0  0  0  0  0
    8.8499  -17.8469   20.9111 O   0  0  0  0  0  0  0  0  0  0  0  0
    8.0369  -13.7616   24.7803 N   0  0  0  0  0  0  0  0  0  0  0  0
    6.6968  -13.8740   25.3278 C   0  0  0  0  0  0  0  0  0  0  0  0
    6.7013  -12.9118   26.4800 C   0  0  0  0  0  0  0  0  0  0  0  0
    8.1081  -12.4061   26.6272 C   0  0  0  0  0  0  0  0  0  0  0  0
    8.9017  -13.4853   25.8658 C   0  0  1  0  0  0  0  0  0  0  0  0
    9.0503  -14.7172   26.6893 C   0  0  0  0  0  0  0  0  0  0  0  0
    8.0539  -15.4183   26.9936 O   0  0  0  0  0  0  0  0  0  0  0  0
   10.3114  -15.1653   27.1721 N   0  0  0  0  0  0  0  0  0  0  0  0
   10.4819  -16.4350   27.8701 C   0  0  1  0  0  0  0  0  0  0  0  0
   11.7758  -17.0877   27.5318 C   0  0  0  0  0  0  0  0  0  0  0  0
   11.8989  -17.2818   26.0781 C   0  0  0  0  0  0  0  0  0  0  0  0
   10.8471  -17.5010   25.1947 C   0  0  0  0  0  0  0  0  0  0  0  0
   11.3271  -17.6345   23.9450 N   0  0  0  0  0  0  0  0  0  0  0  0
   12.6555  -17.5037   24.0258 C   0  0  0  0  0  0  0  0  0  0  0  0
   12.9947  -17.2923   25.3063 N   0  0  0  0  0  0  0  0  0  0  0  0
   10.4027  -16.1962   29.3266 C   0  0  0  0  0  0  0  0  0  0  0  0
   10.3201  -14.9758   29.7058 O   0  0  0  0  0  0  0  0  0  0  0  0
   10.4102  -17.1910   30.2948 O   0  0  0  0  0  0  0  0  0  0  0  0
  2  1  1  6
  2  7  1  0
  3  2  1  0
  4  3  1  0
  5  6  2  0
  5  4  1  0
  7  8  2  0
  7 10  1  0
  9  5  1  0
 10 14  1  0
 10 11  1  0
 11 12  1  0
 13 12  1  0
 14 13  1  0
 14 15  1  1
 16 15  2  0
 17 15  1  0
 18 19  1  1
 18 17  1  0
 20 19  1  0
 21 20  2  0
 22 23  1  0
 22 21  1  0
 23 24  2  0
 24 20  1  0
 25 18  1  0
 26 25  2  0
 27 25  1  0
M  END
$$$$
