EPH.pdb
     RDKit          3D

 27 28  0  0  1  0  0  0  0  0999 V2000
    8.3494  -16.9021   15.9966 N   0  0  0  0  0  0  0  0  0  0  0  0
    7.8008  -16.4031   17.2054 C   0  0  1  0  0  0  0  0  0  0  0  0
    7.0576  -17.5043   17.9810 C   0  0  0  0  0  0  0  0  0  0  0  0
    7.8160  -18.8165   17.9162 C   0  0  0  0  0  0  0  0  0  0  0  0
    7.5986  -19.6233   19.1276 C   0  0  0  0  0  0  0  0  0  0  0  0
    6.4630  -20.0260   19.5006 O   0  0  0  0  0  0  0  0  0  0  0  0
    8.7430  -15.8113   18.1638 C   0  0  0  0  0  0  0  0  0  0  0  0
    9.9870  -16.0129   17.8592 O   0  0  0  0  0  0  0  0  0  0  0  0
    8.6958  -19.9625   19.9051 O   0  0  0  0  0  0  0  0  0  0  0  0
    8.3896  -15.0905   19.3084 N   0  0  0  0  0  0  0  0  0  0  0  0
    7.0114  -14.9459   19.7420 C   0  0  0  0  0  0  0  0  0  0  0  0
    6.9846  -13.5961   20.3984 C   0  0  0  0  0  0  0  0  0  0  0  0
    8.4012  -13.0983   20.4419 C   0  0  0  0  0  0  0  0  0  0  0  0
    9.1910  -14.4081   20.2543 C   0  0  1  0  0  0  0  0  0  0  0  0
    9.2224  -15.1964   21.5174 C   0  0  0  0  0  0  0  0  0  0  0  0
    8.2816  -15.9699   21.8230 O   0  0  0  0  0  0  0  0  0  0  0  0
   10.3046  -15.1205   22.4379 N   0  0  0  0  0  0  0  0  0  0  0  0
   11.0244  -16.2997   22.9068 C   0  0  1  0  0  0  0  0  0  0  0  0
   12.4992  -16.1310   22.8016 C   0  0  0  0  0  0  0  0  0  0  0  0
   13.2001  -17.2941   23.3690 C   0  0  0  0  0  0  0  0  0  0  0  0
   12.7777  -18.0455   24.4606 C   0  0  0  0  0  0  0  0  0  0  0  0
   13.6622  -19.0305   24.7004 N   0  0  0  0  0  0  0  0  0  0  0  0
   14.6287  -18.9130   23.7838 C   0  0  0  0  0  0  0  0  0  0  0  0
   14.3483  -17.8707   22.9871 N   0  0  0  0  0  0  0  0  0  0  0  0
   10.6457  -16.5662   24.3104 C   0  0  0  0  0  0  0  0  0  0  0  0
   10.0086  -15.6379   24.9206 O   0  0  0  0  0  0  0  0  0  0  0  0
   10.9289  -17.7377   24.9994 O   0  0  0  0  0  0  0  0  0  0  0  0
  2  1  1  6
  2  7  1  0
  3  2  1  0
  4  3  1  0
  5  6  2  0
  5  4  1  0
  7  8  2  0
  7 10  1  0
  9  5  1  0
 10 14  1  0
 10 11  1  0
 11 12  1  0
 13 12  1  0
 14 13  1  0
 14 15  1  1
 16 15  2  0
 17 15  1  0
 18 19  1  1
 18 17  1  0
 20 19  1  0
 21 20  2  0
 22 23  1  0
 22 21  1  0
 23 24  2  0
 24 20  1  0
 25 18  1  0
 26 25  2  0
 27 25  1  0
M  END
$$$$
