EPH.pdb
     RDKit          3D

 27 28  0  0  1  0  0  0  0  0999 V2000
    9.2541  -15.9100   15.1047 N   0  0  0  0  0  0  0  0  0  0  0  0
    8.5318  -15.5821   16.2802 C   0  0  1  0  0  0  0  0  0  0  0  0
    7.6495  -16.7545   16.7420 C   0  0  0  0  0  0  0  0  0  0  0  0
    8.1949  -18.0749   16.2318 C   0  0  0  0  0  0  0  0  0  0  0  0
    8.1036  -19.1264   17.2574 C   0  0  0  0  0  0  0  0  0  0  0  0
    8.3263  -18.9245   18.4824 O   0  0  0  0  0  0  0  0  0  0  0  0
    9.3230  -15.1956   17.4555 C   0  0  0  0  0  0  0  0  0  0  0  0
   10.5947  -15.4058   17.3159 O   0  0  0  0  0  0  0  0  0  0  0  0
    7.7548  -20.4095   16.8633 O   0  0  0  0  0  0  0  0  0  0  0  0
    8.8086  -14.6491   18.6350 N   0  0  0  0  0  0  0  0  0  0  0  0
    7.3824  -14.5272   18.8787 C   0  0  0  0  0  0  0  0  0  0  0  0
    7.2706  -13.2951   19.7290 C   0  0  0  0  0  0  0  0  0  0  0  0
    8.6695  -12.8578   20.0584 C   0  0  0  0  0  0  0  0  0  0  0  0
    9.4654  -14.1485   19.7843 C   0  0  1  0  0  0  0  0  0  0  0  0
    9.2986  -15.1234   20.8976 C   0  0  0  0  0  0  0  0  0  0  0  0
    8.2477  -15.8007   21.0151 O   0  0  0  0  0  0  0  0  0  0  0  0
   10.3057  -15.3414   21.8787 N   0  0  0  0  0  0  0  0  0  0  0  0
   10.2152  -16.3994   22.8792 C   0  0  1  0  0  0  0  0  0  0  0  0
   11.5083  -17.1155   23.0517 C   0  0  0  0  0  0  0  0  0  0  0  0
   11.9066  -17.7834   21.8022 C   0  0  0  0  0  0  0  0  0  0  0  0
   11.3753  -18.9705   21.3092 C   0  0  0  0  0  0  0  0  0  0  0  0
   11.9747  -19.2853   20.1466 N   0  0  0  0  0  0  0  0  0  0  0  0
   12.8693  -18.3223   19.9005 C   0  0  0  0  0  0  0  0  0  0  0  0
   12.8256  -17.4234   20.8953 N   0  0  0  0  0  0  0  0  0  0  0  0
    9.7901  -15.8083   24.1654 C   0  0  0  0  0  0  0  0  0  0  0  0
    9.7510  -14.5297   24.2260 O   0  0  0  0  0  0  0  0  0  0  0  0
    9.4345  -16.5355   25.2933 O   0  0  0  0  0  0  0  0  0  0  0  0
  2  1  1  6
  2  7  1  0
  3  2  1  0
  4  3  1  0
  5  6  2  0
  5  4  1  0
  7  8  2  0
  7 10  1  0
  9  5  1  0
 10 14  1  0
 10 11  1  0
 11 12  1  0
 13 12  1  0
 14 13  1  0
 14 15  1  1
 16 15  2  0
 17 15  1  0
 18 19  1  1
 18 17  1  0
 20 19  1  0
 21 20  2  0
 22 23  1  0
 22 21  1  0
 23 24  2  0
 24 20  1  0
 25 18  1  0
 26 25  2  0
 27 25  1  0
M  END
$$$$
