EPH.pdb
     RDKit          3D

 27 28  0  0  1  0  0  0  0  0999 V2000
    9.3686  -15.8112   16.1316 N   0  0  0  0  0  0  0  0  0  0  0  0
    8.5790  -15.5385   17.2777 C   0  0  1  0  0  0  0  0  0  0  0  0
    7.7443  -16.7636   17.6885 C   0  0  0  0  0  0  0  0  0  0  0  0
    8.6409  -17.9405   18.0238 C   0  0  0  0  0  0  0  0  0  0  0  0
    7.8567  -19.1053   18.4642 C   0  0  0  0  0  0  0  0  0  0  0  0
    6.5967  -19.1140   18.5220 O   0  0  0  0  0  0  0  0  0  0  0  0
    9.2959  -15.1236   18.4903 C   0  0  0  0  0  0  0  0  0  0  0  0
   10.5845  -15.2261   18.3911 O   0  0  0  0  0  0  0  0  0  0  0  0
    8.5321  -20.2578   18.8367 O   0  0  0  0  0  0  0  0  0  0  0  0
    8.6991  -14.6550   19.6646 N   0  0  0  0  0  0  0  0  0  0  0  0
    7.2585  -14.6090   19.8403 C   0  0  0  0  0  0  0  0  0  0  0  0
    7.0469  -13.4231   20.7360 C   0  0  0  0  0  0  0  0  0  0  0  0
    8.4056  -12.9382   21.1547 C   0  0  0  0  0  0  0  0  0  0  0  0
    9.2744  -14.1778   20.8662 C   0  0  1  0  0  0  0  0  0  0  0  0
    9.0999  -15.2087   21.9267 C   0  0  0  0  0  0  0  0  0  0  0  0
    7.9874  -15.7575   22.1213 O   0  0  0  0  0  0  0  0  0  0  0  0
   10.1681  -15.6259   22.7688 N   0  0  0  0  0  0  0  0  0  0  0  0
    9.9934  -16.6046   23.8367 C   0  0  1  0  0  0  0  0  0  0  0  0
   11.1570  -17.5260   23.9441 C   0  0  0  0  0  0  0  0  0  0  0  0
   11.5138  -18.0733   22.6253 C   0  0  0  0  0  0  0  0  0  0  0  0
   10.8136  -17.8650   21.4417 C   0  0  0  0  0  0  0  0  0  0  0  0
   11.4247  -18.5154   20.4349 N   0  0  0  0  0  0  0  0  0  0  0  0
   12.4916  -19.1261   20.9613 C   0  0  0  0  0  0  0  0  0  0  0  0
   12.5418  -18.8588   22.2749 N   0  0  0  0  0  0  0  0  0  0  0  0
    9.7961  -15.8895   25.1151 C   0  0  0  0  0  0  0  0  0  0  0  0
    9.5574  -16.6103   26.1465 O   0  0  0  0  0  0  0  0  0  0  0  0
    9.8531  -14.5111   25.2698 O   0  0  0  0  0  0  0  0  0  0  0  0
  2  1  1  6
  2  7  1  0
  3  2  1  0
  4  3  1  0
  5  6  2  0
  5  4  1  0
  7  8  2  0
  7 10  1  0
  9  5  1  0
 10 14  1  0
 10 11  1  0
 11 12  1  0
 13 12  1  0
 14 13  1  0
 14 15  1  1
 16 15  2  0
 17 15  1  0
 18 19  1  1
 18 17  1  0
 20 19  1  0
 21 20  2  0
 22 23  1  0
 22 21  1  0
 23 24  2  0
 24 20  1  0
 25 18  1  0
 26 25  2  0
 27 25  1  0
M  END
$$$$
