EPH.pdb
     RDKit          3D

 27 28  0  0  1  0  0  0  0  0999 V2000
    7.9925  -13.3064   20.6164 N   0  0  0  0  0  0  0  0  0  0  0  0
    7.3644  -13.5990   21.8538 C   0  0  1  0  0  0  0  0  0  0  0  0
    6.5554  -14.9051   21.7774 C   0  0  0  0  0  0  0  0  0  0  0  0
    6.9419  -15.7092   20.5504 C   0  0  0  0  0  0  0  0  0  0  0  0
    7.8018  -16.8498   20.9041 C   0  0  0  0  0  0  0  0  0  0  0  0
    7.7527  -17.4387   22.0185 O   0  0  0  0  0  0  0  0  0  0  0  0
    8.2422  -13.7452   23.0220 C   0  0  0  0  0  0  0  0  0  0  0  0
    9.4954  -13.8738   22.7156 O   0  0  0  0  0  0  0  0  0  0  0  0
    8.7170  -17.3067   19.9676 O   0  0  0  0  0  0  0  0  0  0  0  0
    7.8227  -13.7510   24.3556 N   0  0  0  0  0  0  0  0  0  0  0  0
    6.4294  -13.5952   24.7336 C   0  0  0  0  0  0  0  0  0  0  0  0
    6.4965  -12.8913   26.0578 C   0  0  0  0  0  0  0  0  0  0  0  0
    7.9460  -12.8167   26.4450 C   0  0  0  0  0  0  0  0  0  0  0  0
    8.5570  -13.9155   25.5541 C   0  0  1  0  0  0  0  0  0  0  0  0
    8.2762  -15.2685   26.1095 C   0  0  0  0  0  0  0  0  0  0  0  0
    7.3644  -15.9888   25.6335 O   0  0  0  0  0  0  0  0  0  0  0  0
    9.0142  -15.8161   27.1958 N   0  0  0  0  0  0  0  0  0  0  0  0
   10.0930  -16.7802   27.0088 C   0  0  1  0  0  0  0  0  0  0  0  0
   11.1510  -16.2633   26.0987 C   0  0  0  0  0  0  0  0  0  0  0  0
   11.0035  -16.8324   24.7494 C   0  0  0  0  0  0  0  0  0  0  0  0
    9.9374  -17.6078   24.3056 C   0  0  0  0  0  0  0  0  0  0  0  0
   10.1350  -17.9546   23.0209 N   0  0  0  0  0  0  0  0  0  0  0  0
   11.3006  -17.4140   22.6501 C   0  0  0  0  0  0  0  0  0  0  0  0
   11.8184  -16.7418   23.6892 N   0  0  0  0  0  0  0  0  0  0  0  0
   10.6769  -17.1084   28.3263 C   0  0  0  0  0  0  0  0  0  0  0  0
   10.9049  -18.3463   28.5623 O   0  0  0  0  0  0  0  0  0  0  0  0
   10.9908  -16.1787   29.3084 O   0  0  0  0  0  0  0  0  0  0  0  0
  2  1  1  6
  2  7  1  0
  3  2  1  0
  4  3  1  0
  5  6  2  0
  5  4  1  0
  7  8  2  0
  7 10  1  0
  9  5  1  0
 10 14  1  0
 10 11  1  0
 11 12  1  0
 13 12  1  0
 14 13  1  0
 14 15  1  1
 16 15  2  0
 17 15  1  0
 18 19  1  6
 18 17  1  0
 20 19  1  0
 21 20  2  0
 22 23  1  0
 22 21  1  0
 23 24  2  0
 24 20  1  0
 25 18  1  0
 26 25  2  0
 27 25  1  0
M  END
$$$$
