EPH.pdb
     RDKit          3D

 27 28  0  0  1  0  0  0  0  0999 V2000
    9.7140  -15.4046   14.8614 N   0  0  0  0  0  0  0  0  0  0  0  0
    8.8941  -15.1154   15.9819 C   0  0  1  0  0  0  0  0  0  0  0  0
    7.8094  -16.1888   16.1755 C   0  0  0  0  0  0  0  0  0  0  0  0
    8.4034  -17.5812   16.0768 C   0  0  0  0  0  0  0  0  0  0  0  0
    7.4195  -18.6125   16.4429 C   0  0  0  0  0  0  0  0  0  0  0  0
    6.2096  -18.5768   16.0879 O   0  0  0  0  0  0  0  0  0  0  0  0
    9.5687  -14.9959   17.2808 C   0  0  0  0  0  0  0  0  0  0  0  0
   10.8108  -15.3669   17.2557 O   0  0  0  0  0  0  0  0  0  0  0  0
    7.8375  -19.6831   17.2189 O   0  0  0  0  0  0  0  0  0  0  0  0
    8.9792  -14.5329   18.4610 N   0  0  0  0  0  0  0  0  0  0  0  0
    7.5725  -14.1822   18.5423 C   0  0  0  0  0  0  0  0  0  0  0  0
    7.5386  -13.0818   19.5628 C   0  0  0  0  0  0  0  0  0  0  0  0
    8.9243  -12.9636   20.1306 C   0  0  0  0  0  0  0  0  0  0  0  0
    9.5280  -14.3291   19.7493 C   0  0  1  0  0  0  0  0  0  0  0  0
    9.0357  -15.4013   20.6581 C   0  0  0  0  0  0  0  0  0  0  0  0
    8.1618  -16.2205   20.2814 O   0  0  0  0  0  0  0  0  0  0  0  0
    9.5200  -15.5578   21.9867 N   0  0  0  0  0  0  0  0  0  0  0  0
   10.4169  -16.6407   22.3759 C   0  0  1  0  0  0  0  0  0  0  0  0
   11.7017  -16.5969   21.6262 C   0  0  0  0  0  0  0  0  0  0  0  0
   11.7182  -17.6090   20.5578 C   0  0  0  0  0  0  0  0  0  0  0  0
   10.6530  -18.4268   20.1955 C   0  0  0  0  0  0  0  0  0  0  0  0
   11.0243  -19.2297   19.1818 N   0  0  0  0  0  0  0  0  0  0  0  0
   12.2977  -18.9331   18.9012 C   0  0  0  0  0  0  0  0  0  0  0  0
   12.7104  -17.9609   19.7282 N   0  0  0  0  0  0  0  0  0  0  0  0
   10.6766  -16.5501   23.8281 C   0  0  0  0  0  0  0  0  0  0  0  0
   11.1573  -15.4439   24.2586 O   0  0  0  0  0  0  0  0  0  0  0  0
   10.4363  -17.5674   24.7416 O   0  0  0  0  0  0  0  0  0  0  0  0
  2  1  1  6
  2  7  1  0
  3  2  1  0
  4  3  1  0
  5  6  2  0
  5  4  1  0
  7  8  2  0
  7 10  1  0
  9  5  1  0
 10 14  1  0
 10 11  1  0
 11 12  1  0
 13 12  1  0
 14 13  1  0
 14 15  1  1
 16 15  2  0
 17 15  1  0
 18 19  1  6
 18 17  1  0
 20 19  1  0
 21 20  2  0
 22 23  1  0
 22 21  1  0
 23 24  2  0
 24 20  1  0
 25 18  1  0
 26 25  2  0
 27 25  1  0
M  END
$$$$
