EPH.pdb
     RDKit          3D

 27 28  0  0  1  0  0  0  0  0999 V2000
    9.2631  -16.3319   18.8366 N   0  0  0  0  0  0  0  0  0  0  0  0
    8.5760  -16.2075   20.0709 C   0  0  1  0  0  0  0  0  0  0  0  0
    7.8210  -17.5000   20.4257 C   0  0  0  0  0  0  0  0  0  0  0  0
    7.8872  -18.4954   19.2828 C   0  0  0  0  0  0  0  0  0  0  0  0
    7.6527  -19.8700   19.7530 C   0  0  0  0  0  0  0  0  0  0  0  0
    8.5413  -20.5794   20.2991 O   0  0  0  0  0  0  0  0  0  0  0  0
    9.3900  -15.8883   21.2509 C   0  0  0  0  0  0  0  0  0  0  0  0
   10.6663  -15.9333   21.0274 O   0  0  0  0  0  0  0  0  0  0  0  0
    6.3905  -20.4210   19.5905 O   0  0  0  0  0  0  0  0  0  0  0  0
    8.8913  -15.5600   22.5151 N   0  0  0  0  0  0  0  0  0  0  0  0
    7.4716  -15.5743   22.8191 C   0  0  0  0  0  0  0  0  0  0  0  0
    7.3174  -14.4930   23.8490 C   0  0  0  0  0  0  0  0  0  0  0  0
    8.6982  -14.0143   24.1964 C   0  0  0  0  0  0  0  0  0  0  0  0
    9.5622  -15.1920   23.7055 C   0  0  1  0  0  0  0  0  0  0  0  0
    9.5038  -16.3307   24.6634 C   0  0  0  0  0  0  0  0  0  0  0  0
    8.4212  -16.9179   24.9081 O   0  0  0  0  0  0  0  0  0  0  0  0
   10.6547  -16.8129   25.3471 N   0  0  0  0  0  0  0  0  0  0  0  0
   10.6171  -17.9719   26.2325 C   0  0  1  0  0  0  0  0  0  0  0  0
   11.8089  -18.8458   26.0576 C   0  0  0  0  0  0  0  0  0  0  0  0
   12.0317  -19.1471   24.6343 C   0  0  0  0  0  0  0  0  0  0  0  0
   11.0968  -19.6960   23.7630 C   0  0  0  0  0  0  0  0  0  0  0  0
   11.6439  -19.8337   22.5416 N   0  0  0  0  0  0  0  0  0  0  0  0
   12.9000  -19.3835   22.6284 C   0  0  0  0  0  0  0  0  0  0  0  0
   13.1290  -18.9725   23.8847 N   0  0  0  0  0  0  0  0  0  0  0  0
   10.5355  -17.5039   27.6321 C   0  0  0  0  0  0  0  0  0  0  0  0
   10.4530  -18.4067   28.5367 O   0  0  0  0  0  0  0  0  0  0  0  0
   10.5438  -16.1724   28.0248 O   0  0  0  0  0  0  0  0  0  0  0  0
  2  1  1  6
  2  7  1  0
  3  2  1  0
  4  3  1  0
  5  6  2  0
  5  4  1  0
  7  8  2  0
  7 10  1  0
  9  5  1  0
 10 14  1  0
 10 11  1  0
 11 12  1  0
 13 12  1  0
 14 13  1  0
 14 15  1  1
 16 15  2  0
 17 15  1  0
 18 19  1  1
 18 17  1  0
 20 19  1  0
 21 20  2  0
 22 23  1  0
 22 21  1  0
 23 24  2  0
 24 20  1  0
 25 18  1  0
 26 25  2  0
 27 25  1  0
M  END
$$$$
