EPH.pdb
     RDKit          3D

 27 28  0  0  1  0  0  0  0  0999 V2000
    8.6154  -17.7653   17.6941 N   0  0  0  0  0  0  0  0  0  0  0  0
    7.9256  -16.9116   18.5922 C   0  0  1  0  0  0  0  0  0  0  0  0
    6.8513  -17.6786   19.3821 C   0  0  0  0  0  0  0  0  0  0  0  0
    7.4733  -18.8025   20.1890 C   0  0  0  0  0  0  0  0  0  0  0  0
    6.4474  -19.5995   20.8803 C   0  0  0  0  0  0  0  0  0  0  0  0
    6.7159  -20.4941   21.7281 O   0  0  0  0  0  0  0  0  0  0  0  0
    8.7378  -16.2180   19.6000 C   0  0  0  0  0  0  0  0  0  0  0  0
    9.9125  -16.7404   19.7678 O   0  0  0  0  0  0  0  0  0  0  0  0
    5.1128  -19.3597   20.5894 O   0  0  0  0  0  0  0  0  0  0  0  0
    8.3355  -15.0991   20.3355 N   0  0  0  0  0  0  0  0  0  0  0  0
    6.9630  -14.6254   20.3429 C   0  0  0  0  0  0  0  0  0  0  0  0
    7.1000  -13.1406   20.5166 C   0  0  0  0  0  0  0  0  0  0  0  0
    8.5556  -12.8567   20.7556 C   0  0  0  0  0  0  0  0  0  0  0  0
    9.0697  -14.2428   21.1901 C   0  0  1  0  0  0  0  0  0  0  0  0
    8.6931  -14.5319   22.6016 C   0  0  0  0  0  0  0  0  0  0  0  0
    7.5279  -14.8912   22.9016 O   0  0  0  0  0  0  0  0  0  0  0  0
    9.6181  -14.4199   23.6768 N   0  0  0  0  0  0  0  0  0  0  0  0
    9.3695  -14.9970   24.9935 C   0  0  1  0  0  0  0  0  0  0  0  0
    7.9269  -15.2918   25.2094 C   0  0  0  0  0  0  0  0  0  0  0  0
    7.2197  -14.1023   25.7103 C   0  0  0  0  0  0  0  0  0  0  0  0
    7.7884  -12.8535   25.9380 C   0  0  0  0  0  0  0  0  0  0  0  0
    6.8488  -12.0056   26.3944 N   0  0  0  0  0  0  0  0  0  0  0  0
    5.7047  -12.6951   26.4575 C   0  0  0  0  0  0  0  0  0  0  0  0
    5.9309  -13.9518   26.0465 N   0  0  0  0  0  0  0  0  0  0  0  0
   10.1640  -16.2356   25.1321 C   0  0  0  0  0  0  0  0  0  0  0  0
   10.5944  -16.7672   24.0494 O   0  0  0  0  0  0  0  0  0  0  0  0
   10.4710  -16.8499   26.3386 O   0  0  0  0  0  0  0  0  0  0  0  0
  2  1  1  1
  2  7  1  0
  3  2  1  0
  4  3  1  0
  5  6  2  0
  5  4  1  0
  7  8  2  0
  7 10  1  0
  9  5  1  0
 10 14  1  0
 10 11  1  0
 11 12  1  0
 13 12  1  0
 14 13  1  0
 14 15  1  1
 16 15  2  0
 17 15  1  0
 18 19  1  6
 18 17  1  0
 20 19  1  0
 21 20  2  0
 22 23  1  0
 22 21  1  0
 23 24  2  0
 24 20  1  0
 25 18  1  0
 26 25  2  0
 27 25  1  0
M  END
$$$$
