EPH.pdb
     RDKit          3D

 27 28  0  0  1  0  0  0  0  0999 V2000
   12.9830  -13.9899   18.9447 N   0  0  0  0  0  0  0  0  0  0  0  0
   11.5914  -14.2517   19.0238 C   0  0  1  0  0  0  0  0  0  0  0  0
   11.2517  -15.6501   18.4802 C   0  0  0  0  0  0  0  0  0  0  0  0
   12.2187  -16.6882   19.0175 C   0  0  0  0  0  0  0  0  0  0  0  0
   11.8921  -18.0346   18.5214 C   0  0  0  0  0  0  0  0  0  0  0  0
   12.5517  -18.6234   17.6217 O   0  0  0  0  0  0  0  0  0  0  0  0
   10.9818  -14.1872   20.3582 C   0  0  0  0  0  0  0  0  0  0  0  0
   11.8479  -14.1258   21.3211 O   0  0  0  0  0  0  0  0  0  0  0  0
   10.8030  -18.6972   19.0674 O   0  0  0  0  0  0  0  0  0  0  0  0
    9.6091  -14.1876   20.6234 N   0  0  0  0  0  0  0  0  0  0  0  0
    8.6132  -14.2632   19.5694 C   0  0  0  0  0  0  0  0  0  0  0  0
    7.4556  -13.4796   20.1168 C   0  0  0  0  0  0  0  0  0  0  0  0
    7.7966  -13.1213   21.5351 C   0  0  0  0  0  0  0  0  0  0  0  0
    8.9054  -14.1439   21.8503 C   0  0  1  0  0  0  0  0  0  0  0  0
    8.3273  -15.4890   22.1226 C   0  0  0  0  0  0  0  0  0  0  0  0
    8.4573  -16.4296   21.3008 O   0  0  0  0  0  0  0  0  0  0  0  0
    7.6047  -15.7828   23.3126 N   0  0  0  0  0  0  0  0  0  0  0  0
    8.2327  -15.8101   24.6292 C   0  0  1  0  0  0  0  0  0  0  0  0
    8.6007  -14.4470   25.0996 C   0  0  0  0  0  0  0  0  0  0  0  0
    9.2632  -14.5084   26.4124 C   0  0  0  0  0  0  0  0  0  0  0  0
    9.4901  -15.6617   27.1560 C   0  0  0  0  0  0  0  0  0  0  0  0
   10.1177  -15.3437   28.3027 N   0  0  0  0  0  0  0  0  0  0  0  0
   10.2889  -14.0175   28.2940 C   0  0  0  0  0  0  0  0  0  0  0  0
    9.7754  -13.5200   27.1590 N   0  0  0  0  0  0  0  0  0  0  0  0
    7.3047  -16.4422   25.5903 C   0  0  0  0  0  0  0  0  0  0  0  0
    6.0794  -16.0737   25.5343 O   0  0  0  0  0  0  0  0  0  0  0  0
    7.6669  -17.3946   26.5332 O   0  0  0  0  0  0  0  0  0  0  0  0
  2  1  1  1
  2  7  1  0
  3  2  1  0
  4  3  1  0
  5  6  2  0
  5  4  1  0
  7  8  2  0
  7 10  1  0
  9  5  1  0
 10 14  1  0
 10 11  1  0
 11 12  1  0
 13 12  1  0
 14 13  1  0
 14 15  1  6
 16 15  2  0
 17 15  1  0
 18 19  1  1
 18 17  1  0
 20 19  1  0
 21 20  2  0
 22 23  1  0
 22 21  1  0
 23 24  2  0
 24 20  1  0
 25 18  1  0
 26 25  2  0
 27 25  1  0
M  END
$$$$
