EPH.pdb
     RDKit          3D

 27 28  0  0  1  0  0  0  0  0999 V2000
    8.1937  -17.6748   18.3195 N   0  0  0  0  0  0  0  0  0  0  0  0
    7.7403  -16.9137   19.4270 C   0  0  1  0  0  0  0  0  0  0  0  0
    6.8248  -17.7450   20.3420 C   0  0  0  0  0  0  0  0  0  0  0  0
    6.0050  -18.7323   19.5331 C   0  0  0  0  0  0  0  0  0  0  0  0
    6.2712  -20.1190   19.9478 C   0  0  0  0  0  0  0  0  0  0  0  0
    5.9745  -20.5737   21.0863 O   0  0  0  0  0  0  0  0  0  0  0  0
    8.7715  -16.3488   20.3069 C   0  0  0  0  0  0  0  0  0  0  0  0
    9.9780  -16.6897   19.9765 O   0  0  0  0  0  0  0  0  0  0  0  0
    6.8802  -20.9768   19.0441 O   0  0  0  0  0  0  0  0  0  0  0  0
    8.5332  -15.5184   21.4061 N   0  0  0  0  0  0  0  0  0  0  0  0
    7.1926  -15.1819   21.8507 C   0  0  0  0  0  0  0  0  0  0  0  0
    7.3417  -13.7991   22.4157 C   0  0  0  0  0  0  0  0  0  0  0  0
    8.8080  -13.4732   22.4036 C   0  0  0  0  0  0  0  0  0  0  0  0
    9.4320  -14.8776   22.2915 C   0  0  1  0  0  0  0  0  0  0  0  0
    9.3996  -15.5809   23.6038 C   0  0  0  0  0  0  0  0  0  0  0  0
    8.3201  -16.0022   24.0876 O   0  0  0  0  0  0  0  0  0  0  0  0
   10.5727  -15.8132   24.3747 N   0  0  0  0  0  0  0  0  0  0  0  0
   10.9421  -17.1355   24.8681 C   0  0  1  0  0  0  0  0  0  0  0  0
   12.2314  -17.6052   24.2920 C   0  0  0  0  0  0  0  0  0  0  0  0
   12.6763  -18.8450   24.9485 C   0  0  0  0  0  0  0  0  0  0  0  0
   12.9684  -18.9899   26.3006 C   0  0  0  0  0  0  0  0  0  0  0  0
   13.3440  -20.2578   26.5484 N   0  0  0  0  0  0  0  0  0  0  0  0
   13.2936  -20.9101   25.3821 C   0  0  0  0  0  0  0  0  0  0  0  0
   12.8929  -20.0598   24.4250 N   0  0  0  0  0  0  0  0  0  0  0  0
   11.0354  -17.0887   26.3424 C   0  0  0  0  0  0  0  0  0  0  0  0
   10.9852  -15.9299   26.8855 O   0  0  0  0  0  0  0  0  0  0  0  0
   11.1701  -18.1994   27.1642 O   0  0  0  0  0  0  0  0  0  0  0  0
  2  1  1  6
  2  7  1  0
  3  2  1  0
  4  3  1  0
  5  6  2  0
  5  4  1  0
  7  8  2  0
  7 10  1  0
  9  5  1  0
 10 14  1  0
 10 11  1  0
 11 12  1  0
 13 12  1  0
 14 13  1  0
 14 15  1  1
 16 15  2  0
 17 15  1  0
 18 19  1  6
 18 17  1  0
 20 19  1  0
 21 20  2  0
 22 23  1  0
 22 21  1  0
 23 24  2  0
 24 20  1  0
 25 18  1  0
 26 25  2  0
 27 25  1  0
M  END
$$$$
