EPH.pdb
     RDKit          3D

 27 28  0  0  1  0  0  0  0  0999 V2000
    8.3803  -13.8959   20.8783 N   0  0  0  0  0  0  0  0  0  0  0  0
    7.6777  -14.0185   22.1041 C   0  0  1  0  0  0  0  0  0  0  0  0
    6.7982  -15.2804   22.1231 C   0  0  0  0  0  0  0  0  0  0  0  0
    7.5973  -16.5021   21.7106 C   0  0  0  0  0  0  0  0  0  0  0  0
    6.7821  -17.7255   21.7784 C   0  0  0  0  0  0  0  0  0  0  0  0
    5.5467  -17.7250   22.0329 O   0  0  0  0  0  0  0  0  0  0  0  0
    8.4887  -14.0831   23.3268 C   0  0  0  0  0  0  0  0  0  0  0  0
    9.7381  -14.3501   23.1063 O   0  0  0  0  0  0  0  0  0  0  0  0
    7.3982  -18.9471   21.5515 O   0  0  0  0  0  0  0  0  0  0  0  0
    8.0133  -13.8837   24.6264 N   0  0  0  0  0  0  0  0  0  0  0  0
    6.6222  -13.5769   24.9074 C   0  0  0  0  0  0  0  0  0  0  0  0
    6.6889  -12.7132   26.1334 C   0  0  0  0  0  0  0  0  0  0  0  0
    8.1218  -12.6966   26.5841 C   0  0  0  0  0  0  0  0  0  0  0  0
    8.6799  -13.9446   25.8731 C   0  0  1  0  0  0  0  0  0  0  0  0
    8.2677  -15.1889   26.5799 C   0  0  0  0  0  0  0  0  0  0  0  0
    7.2915  -15.8696   26.1792 O   0  0  0  0  0  0  0  0  0  0  0  0
    8.9461  -15.6722   27.7334 N   0  0  0  0  0  0  0  0  0  0  0  0
   10.0401  -16.6346   27.6585 C   0  0  1  0  0  0  0  0  0  0  0  0
   11.1263  -16.1743   26.7514 C   0  0  0  0  0  0  0  0  0  0  0  0
   11.1405  -16.9647   25.5100 C   0  0  0  0  0  0  0  0  0  0  0  0
   10.2388  -17.9693   25.1749 C   0  0  0  0  0  0  0  0  0  0  0  0
   10.5535  -18.4748   23.9685 N   0  0  0  0  0  0  0  0  0  0  0  0
   11.6318  -17.8095   23.5406 C   0  0  0  0  0  0  0  0  0  0  0  0
   11.9809  -16.9048   24.4675 N   0  0  0  0  0  0  0  0  0  0  0  0
   10.5775  -16.8566   29.0174 C   0  0  0  0  0  0  0  0  0  0  0  0
   10.8929  -15.8127   29.6889 O   0  0  0  0  0  0  0  0  0  0  0  0
   10.7585  -18.1012   29.6050 O   0  0  0  0  0  0  0  0  0  0  0  0
  2  1  1  6
  2  7  1  0
  3  2  1  0
  4  3  1  0
  5  6  2  0
  5  4  1  0
  7  8  2  0
  7 10  1  0
  9  5  1  0
 10 14  1  0
 10 11  1  0
 11 12  1  0
 13 12  1  0
 14 13  1  0
 14 15  1  1
 16 15  2  0
 17 15  1  0
 18 19  1  6
 18 17  1  0
 20 19  1  0
 21 20  2  0
 22 23  1  0
 22 21  1  0
 23 24  2  0
 24 20  1  0
 25 18  1  0
 26 25  2  0
 27 25  1  0
M  END
$$$$
