KPE.pdb
     RDKit          3D

 26 26  0  0  1  0  0  0  0  0999 V2000
    9.8453  -16.6116   16.6596 N   0  0  0  0  0  0  0  0  0  0  0  0
    8.8049  -16.0482   17.4496 C   0  0  1  0  0  0  0  0  0  0  0  0
    7.6461  -17.0269   17.6590 C   0  0  0  0  0  0  0  0  0  0  0  0
    8.1413  -18.3295   18.2368 C   0  0  0  0  0  0  0  0  0  0  0  0
    7.0438  -19.3275   18.4673 C   0  0  0  0  0  0  0  0  0  0  0  0
    7.5423  -20.5907   19.1326 C   0  0  0  0  0  0  0  0  0  0  0  0
    6.3732  -21.4330   19.3564 N   0  0  0  0  0  0  0  0  0  0  0  0
    9.2108  -15.5284   18.7716 C   0  0  0  0  0  0  0  0  0  0  0  0
   10.3674  -15.9618   19.1600 O   0  0  0  0  0  0  0  0  0  0  0  0
    8.4808  -14.6492   19.5966 N   0  0  0  0  0  0  0  0  0  0  0  0
    7.2500  -13.9705   19.3255 C   0  0  0  0  0  0  0  0  0  0  0  0
    7.4586  -12.6368   20.0676 C   0  0  0  0  0  0  0  0  0  0  0  0
    8.0801  -13.1007   21.3536 C   0  0  0  0  0  0  0  0  0  0  0  0
    8.9138  -14.2718   20.9459 C   0  0  1  0  0  0  0  0  0  0  0  0
    8.8296  -15.3991   21.8869 C   0  0  0  0  0  0  0  0  0  0  0  0
    7.9737  -16.3051   21.7539 O   0  0  0  0  0  0  0  0  0  0  0  0
    9.7292  -15.4784   22.9745 N   0  0  0  0  0  0  0  0  0  0  0  0
    9.7760  -16.6855   23.8247 C   0  0  1  0  0  0  0  0  0  0  0  0
   10.6590  -17.6713   23.1203 C   0  0  0  0  0  0  0  0  0  0  0  0
   12.0681  -17.2412   22.9268 C   0  0  0  0  0  0  0  0  0  0  0  0
   12.9672  -18.3694   22.6089 C   0  0  0  0  0  0  0  0  0  0  0  0
   12.5978  -19.5623   22.5265 O   0  0  0  0  0  0  0  0  0  0  0  0
   10.3978  -16.3030   25.1120 C   0  0  0  0  0  0  0  0  0  0  0  0
   10.9035  -15.0308   25.2913 O   0  0  0  0  0  0  0  0  0  0  0  0
   14.3267  -18.1307   22.3784 O   0  0  0  0  0  0  0  0  0  0  0  0
   10.4857  -17.1077   26.0697 O   0  0  0  0  0  0  0  0  0  0  0  0
  2  1  1  1
  2  8  1  0
  2  3  1  0
  4  3  1  0
  4  5  1  0
  5  6  1  0
  6  7  1  0
  8 10  1  0
  9  8  2  0
 10 14  1  0
 10 11  1  0
 12 11  1  0
 12 13  1  0
 14 15  1  1
 14 13  1  0
 15 16  2  0
 15 17  1  0
 17 18  1  0
 18 23  1  0
 18 19  1  6
 20 19  1  0
 20 21  1  0
 21 22  2  0
 21 25  1  0
 23 26  2  0
 23 24  1  0
M  END
$$$$
