KPE.pdb
     RDKit          3D

 26 26  0  0  1  0  0  0  0  0999 V2000
    9.8169  -16.4783   16.3478 N   0  0  0  0  0  0  0  0  0  0  0  0
    8.7700  -16.2621   17.2866 C   0  0  1  0  0  0  0  0  0  0  0  0
    7.9616  -17.5352   17.5514 C   0  0  0  0  0  0  0  0  0  0  0  0
    7.0360  -17.8330   16.3980 C   0  0  0  0  0  0  0  0  0  0  0  0
    6.2355  -19.0879   16.5930 C   0  0  0  0  0  0  0  0  0  0  0  0
    5.3709  -19.4134   15.3958 C   0  0  0  0  0  0  0  0  0  0  0  0
    4.7791  -20.7212   15.6523 N   0  0  0  0  0  0  0  0  0  0  0  0
    9.1807  -15.7002   18.5897 C   0  0  0  0  0  0  0  0  0  0  0  0
   10.3465  -16.1071   18.9791 O   0  0  0  0  0  0  0  0  0  0  0  0
    8.4462  -14.8082   19.3967 N   0  0  0  0  0  0  0  0  0  0  0  0
    7.1783  -14.1951   19.1408 C   0  0  0  0  0  0  0  0  0  0  0  0
    7.3584  -12.8162   19.8035 C   0  0  0  0  0  0  0  0  0  0  0  0
    8.0478  -13.1851   21.0857 C   0  0  0  0  0  0  0  0  0  0  0  0
    8.9142  -14.3418   20.7060 C   0  0  1  0  0  0  0  0  0  0  0  0
    8.9139  -15.4195   21.7070 C   0  0  0  0  0  0  0  0  0  0  0  0
    8.0645  -16.3409   21.6821 O   0  0  0  0  0  0  0  0  0  0  0  0
    9.8896  -15.4320   22.7299 N   0  0  0  0  0  0  0  0  0  0  0  0
    9.9515  -16.5478   23.6959 C   0  0  1  0  0  0  0  0  0  0  0  0
   11.0882  -17.4249   23.2643 C   0  0  0  0  0  0  0  0  0  0  0  0
   12.4276  -16.7815   23.2678 C   0  0  0  0  0  0  0  0  0  0  0  0
   13.4970  -17.6947   22.8153 C   0  0  0  0  0  0  0  0  0  0  0  0
   13.5637  -18.9066   23.1204 O   0  0  0  0  0  0  0  0  0  0  0  0
   10.2536  -15.9729   25.0257 C   0  0  0  0  0  0  0  0  0  0  0  0
   10.1937  -16.7626   26.1567 O   0  0  0  0  0  0  0  0  0  0  0  0
   14.5199  -17.2122   21.9911 O   0  0  0  0  0  0  0  0  0  0  0  0
   10.5694  -14.7679   25.1698 O   0  0  0  0  0  0  0  0  0  0  0  0
  2  1  1  6
  2  8  1  0
  2  3  1  0
  4  3  1  0
  4  5  1  0
  5  6  1  0
  6  7  1  0
  8 10  1  0
  9  8  2  0
 10 14  1  0
 10 11  1  0
 12 11  1  0
 12 13  1  0
 14 15  1  1
 14 13  1  0
 15 16  2  0
 15 17  1  0
 17 18  1  0
 18 23  1  0
 18 19  1  6
 20 19  1  0
 20 21  1  0
 21 22  2  0
 21 25  1  0
 23 26  2  0
 23 24  1  0
M  END
$$$$
