KPE.pdb
     RDKit          3D

 26 26  0  0  1  0  0  0  0  0999 V2000
    8.4852  -13.4102   19.3573 N   0  0  0  0  0  0  0  0  0  0  0  0
    7.6629  -13.9588   20.3805 C   0  0  1  0  0  0  0  0  0  0  0  0
    7.0517  -15.3015   19.9706 C   0  0  0  0  0  0  0  0  0  0  0  0
    7.5282  -15.7119   18.5994 C   0  0  0  0  0  0  0  0  0  0  0  0
    7.0463  -17.0737   18.1907 C   0  0  0  0  0  0  0  0  0  0  0  0
    7.6275  -17.5189   16.8676 C   0  0  0  0  0  0  0  0  0  0  0  0
    7.0072  -18.7998   16.5498 N   0  0  0  0  0  0  0  0  0  0  0  0
    8.3062  -14.1313   21.6992 C   0  0  0  0  0  0  0  0  0  0  0  0
    9.5614  -14.4394   21.6212 O   0  0  0  0  0  0  0  0  0  0  0  0
    7.6971  -13.9955   22.9630 N   0  0  0  0  0  0  0  0  0  0  0  0
    6.3418  -13.6620   23.2801 C   0  0  0  0  0  0  0  0  0  0  0  0
    6.5166  -12.8340   24.5672 C   0  0  0  0  0  0  0  0  0  0  0  0
    7.5453  -13.6398   25.3073 C   0  0  0  0  0  0  0  0  0  0  0  0
    8.4202  -14.1836   24.2249 C   0  0  1  0  0  0  0  0  0  0  0  0
    8.8005  -15.5884   24.4378 C   0  0  0  0  0  0  0  0  0  0  0  0
    8.1009  -16.5330   24.0027 O   0  0  0  0  0  0  0  0  0  0  0  0
    9.9822  -15.8990   25.1489 N   0  0  0  0  0  0  0  0  0  0  0  0
   10.4357  -17.2989   25.2780 C   0  0  1  0  0  0  0  0  0  0  0  0
   11.7308  -17.4000   24.5295 C   0  0  0  0  0  0  0  0  0  0  0  0
   12.9559  -17.3927   25.3704 C   0  0  0  0  0  0  0  0  0  0  0  0
   14.1696  -17.7505   24.6080 C   0  0  0  0  0  0  0  0  0  0  0  0
   14.1724  -18.0678   23.3974 O   0  0  0  0  0  0  0  0  0  0  0  0
   10.6778  -17.5608   26.7142 C   0  0  0  0  0  0  0  0  0  0  0  0
   10.9185  -18.8459   27.1578 O   0  0  0  0  0  0  0  0  0  0  0  0
   15.4161  -17.7463   25.2443 O   0  0  0  0  0  0  0  0  0  0  0  0
   10.6730  -16.6396   27.5651 O   0  0  0  0  0  0  0  0  0  0  0  0
  2  1  1  6
  2  8  1  0
  2  3  1  0
  4  3  1  0
  4  5  1  0
  5  6  1  0
  6  7  1  0
  8 10  1  0
  9  8  2  0
 10 14  1  0
 10 11  1  0
 12 11  1  0
 12 13  1  0
 14 15  1  1
 14 13  1  0
 15 16  2  0
 15 17  1  0
 17 18  1  0
 18 23  1  0
 18 19  1  6
 20 19  1  0
 20 21  1  0
 21 22  2  0
 21 25  1  0
 23 26  2  0
 23 24  1  0
M  END
$$$$
