KPE.pdb
     RDKit          3D

 26 26  0  0  1  0  0  0  0  0999 V2000
    6.7797  -15.7917   20.3126 N   0  0  0  0  0  0  0  0  0  0  0  0
    8.0546  -15.1689   20.2079 C   0  0  1  0  0  0  0  0  0  0  0  0
    7.9731  -13.8004   19.5260 C   0  0  0  0  0  0  0  0  0  0  0  0
    7.3995  -13.9264   18.1364 C   0  0  0  0  0  0  0  0  0  0  0  0
    8.4276  -13.7537   17.0562 C   0  0  0  0  0  0  0  0  0  0  0  0
    7.8160  -13.7436   15.6732 C   0  0  0  0  0  0  0  0  0  0  0  0
    8.9254  -13.7545   14.7269 N   0  0  0  0  0  0  0  0  0  0  0  0
    8.7970  -15.0065   21.4748 C   0  0  0  0  0  0  0  0  0  0  0  0
   10.0804  -14.9494   21.3134 O   0  0  0  0  0  0  0  0  0  0  0  0
    8.2508  -14.9149   22.7709 N   0  0  0  0  0  0  0  0  0  0  0  0
    6.8794  -14.8069   23.1663 C   0  0  0  0  0  0  0  0  0  0  0  0
    6.9820  -13.8967   24.4048 C   0  0  0  0  0  0  0  0  0  0  0  0
    8.1799  -14.4723   25.1042 C   0  0  0  0  0  0  0  0  0  0  0  0
    9.0704  -14.9097   23.9869 C   0  0  1  0  0  0  0  0  0  0  0  0
    9.7057  -16.2141   24.2286 C   0  0  0  0  0  0  0  0  0  0  0  0
    9.1213  -17.2904   23.9623 O   0  0  0  0  0  0  0  0  0  0  0  0
   11.0084  -16.2736   24.7744 N   0  0  0  0  0  0  0  0  0  0  0  0
   11.6683  -17.5750   25.0045 C   0  0  1  0  0  0  0  0  0  0  0  0
   12.9510  -17.5476   24.2290 C   0  0  0  0  0  0  0  0  0  0  0  0
   13.7563  -16.3069   24.3715 C   0  0  0  0  0  0  0  0  0  0  0  0
   15.0232  -16.3624   23.6136 C   0  0  0  0  0  0  0  0  0  0  0  0
   16.1484  -16.5307   24.1350 O   0  0  0  0  0  0  0  0  0  0  0  0
   11.9711  -17.6745   26.4496 C   0  0  0  0  0  0  0  0  0  0  0  0
   11.5836  -16.6701   27.3140 O   0  0  0  0  0  0  0  0  0  0  0  0
   15.0066  -16.2220   22.2214 O   0  0  0  0  0  0  0  0  0  0  0  0
   12.5804  -18.6587   26.9320 O   0  0  0  0  0  0  0  0  0  0  0  0
  2  1  1  1
  2  8  1  0
  2  3  1  0
  4  3  1  0
  4  5  1  0
  5  6  1  0
  6  7  1  0
  8 10  1  0
  9  8  2  0
 10 14  1  0
 10 11  1  0
 12 11  1  0
 12 13  1  0
 14 15  1  1
 14 13  1  0
 15 16  2  0
 15 17  1  0
 17 18  1  0
 18 23  1  0
 18 19  1  6
 20 19  1  0
 20 21  1  0
 21 22  2  0
 21 25  1  0
 23 26  2  0
 23 24  1  0
M  END
$$$$
