KPE.pdb
     RDKit          3D

 26 26  0  0  1  0  0  0  0  0999 V2000
    8.2588  -14.0033   21.0656 N   0  0  0  0  0  0  0  0  0  0  0  0
    7.3832  -13.8726   22.1793 C   0  0  1  0  0  0  0  0  0  0  0  0
    6.3202  -14.9742   22.2089 C   0  0  0  0  0  0  0  0  0  0  0  0
    6.5534  -15.9750   21.1045 C   0  0  0  0  0  0  0  0  0  0  0  0
    6.5746  -17.3953   21.5905 C   0  0  0  0  0  0  0  0  0  0  0  0
    6.6461  -18.3928   20.4563 C   0  0  0  0  0  0  0  0  0  0  0  0
    6.6331  -19.7177   21.0651 N   0  0  0  0  0  0  0  0  0  0  0  0
    8.0323  -13.8258   23.5056 C   0  0  0  0  0  0  0  0  0  0  0  0
    9.2674  -14.2138   23.4861 O   0  0  0  0  0  0  0  0  0  0  0  0
    7.4473  -13.4165   24.7209 N   0  0  0  0  0  0  0  0  0  0  0  0
    6.1505  -12.8578   24.9547 C   0  0  0  0  0  0  0  0  0  0  0  0
    6.4370  -11.8735   26.1045 C   0  0  0  0  0  0  0  0  0  0  0  0
    7.3453  -12.6881   26.9802 C   0  0  0  0  0  0  0  0  0  0  0  0
    8.1375  -13.5050   26.0118 C   0  0  1  0  0  0  0  0  0  0  0  0
    8.3216  -14.8989   26.4437 C   0  0  0  0  0  0  0  0  0  0  0  0
    7.4586  -15.7785   26.2144 O   0  0  0  0  0  0  0  0  0  0  0  0
    9.4959  -15.2734   27.1359 N   0  0  0  0  0  0  0  0  0  0  0  0
    9.7239  -16.6807   27.5227 C   0  0  1  0  0  0  0  0  0  0  0  0
   10.7373  -17.2294   26.5638 C   0  0  0  0  0  0  0  0  0  0  0  0
   12.0165  -16.4772   26.4878 C   0  0  0  0  0  0  0  0  0  0  0  0
   12.9583  -17.0566   25.5082 C   0  0  0  0  0  0  0  0  0  0  0  0
   12.7522  -18.1166   24.8755 O   0  0  0  0  0  0  0  0  0  0  0  0
   10.2908  -16.6834   28.8897 C   0  0  0  0  0  0  0  0  0  0  0  0
   10.5002  -17.8747   29.5554 O   0  0  0  0  0  0  0  0  0  0  0  0
   14.1700  -16.4089   25.2423 O   0  0  0  0  0  0  0  0  0  0  0  0
   10.5959  -15.6210   29.4819 O   0  0  0  0  0  0  0  0  0  0  0  0
  2  1  1  6
  2  8  1  0
  2  3  1  0
  4  3  1  0
  4  5  1  0
  5  6  1  0
  6  7  1  0
  8 10  1  0
  9  8  2  0
 10 14  1  0
 10 11  1  0
 12 11  1  0
 12 13  1  0
 14 15  1  1
 14 13  1  0
 15 16  2  0
 15 17  1  0
 17 18  1  0
 18 23  1  0
 18 19  1  6
 20 19  1  0
 20 21  1  0
 21 22  2  0
 21 25  1  0
 23 26  2  0
 23 24  1  0
M  END
$$$$
