KPE.pdb
     RDKit          3D

 26 26  0  0  1  0  0  0  0  0999 V2000
    8.1688  -16.1372   20.4122 N   0  0  0  0  0  0  0  0  0  0  0  0
    7.4536  -15.9068   21.6203 C   0  0  1  0  0  0  0  0  0  0  0  0
    6.5492  -17.0863   21.9883 C   0  0  0  0  0  0  0  0  0  0  0  0
    5.5528  -17.3620   20.8897 C   0  0  0  0  0  0  0  0  0  0  0  0
    4.6451  -18.5185   21.1934 C   0  0  0  0  0  0  0  0  0  0  0  0
    3.7445  -18.8668   20.0297 C   0  0  0  0  0  0  0  0  0  0  0  0
    4.6070  -19.3917   18.9776 N   0  0  0  0  0  0  0  0  0  0  0  0
    8.2763  -15.5737   22.8012 C   0  0  0  0  0  0  0  0  0  0  0  0
    9.4978  -15.9935   22.7102 O   0  0  0  0  0  0  0  0  0  0  0  0
    7.8610  -14.8761   23.9533 N   0  0  0  0  0  0  0  0  0  0  0  0
    6.5997  -14.2577   24.2279 C   0  0  0  0  0  0  0  0  0  0  0  0
    7.0267  -13.0310   25.0559 C   0  0  0  0  0  0  0  0  0  0  0  0
    8.0650  -13.6257   25.9634 C   0  0  0  0  0  0  0  0  0  0  0  0
    8.7281  -14.6630   25.1167 C   0  0  1  0  0  0  0  0  0  0  0  0
    8.9981  -15.9153   25.8393 C   0  0  0  0  0  0  0  0  0  0  0  0
    8.1269  -16.8088   25.9562 O   0  0  0  0  0  0  0  0  0  0  0  0
   10.2672  -16.1333   26.4227 N   0  0  0  0  0  0  0  0  0  0  0  0
   10.5666  -17.4012   27.1189 C   0  0  1  0  0  0  0  0  0  0  0  0
   11.9810  -17.7567   26.7712 C   0  0  0  0  0  0  0  0  0  0  0  0
   12.2481  -17.9705   25.3253 C   0  0  0  0  0  0  0  0  0  0  0  0
   13.6548  -18.3322   25.0554 C   0  0  0  0  0  0  0  0  0  0  0  0
   14.6223  -17.5513   25.1987 O   0  0  0  0  0  0  0  0  0  0  0  0
   10.4683  -17.1478   28.5735 C   0  0  0  0  0  0  0  0  0  0  0  0
   10.6024  -18.1866   29.4730 O   0  0  0  0  0  0  0  0  0  0  0  0
   13.9674  -19.6213   24.6094 O   0  0  0  0  0  0  0  0  0  0  0  0
   10.2629  -15.9991   29.0330 O   0  0  0  0  0  0  0  0  0  0  0  0
  2  1  1  6
  2  8  1  0
  2  3  1  0
  4  3  1  0
  4  5  1  0
  5  6  1  0
  6  7  1  0
  8 10  1  0
  9  8  2  0
 10 14  1  0
 10 11  1  0
 12 11  1  0
 12 13  1  0
 14 15  1  1
 14 13  1  0
 15 16  2  0
 15 17  1  0
 17 18  1  0
 18 23  1  0
 18 19  1  1
 20 19  1  0
 20 21  1  0
 21 22  2  0
 21 25  1  0
 23 26  2  0
 23 24  1  0
M  END
$$$$
