KPE.pdb
     RDKit          3D

 26 26  0  0  1  0  0  0  0  0999 V2000
   10.2786  -15.3616   15.5194 N   0  0  0  0  0  0  0  0  0  0  0  0
    9.2725  -15.4320   16.5229 C   0  0  1  0  0  0  0  0  0  0  0  0
    8.6904  -16.8417   16.6575 C   0  0  0  0  0  0  0  0  0  0  0  0
    7.8197  -17.1783   15.4724 C   0  0  0  0  0  0  0  0  0  0  0  0
    7.2891  -18.5821   15.5102 C   0  0  0  0  0  0  0  0  0  0  0  0
    6.4439  -18.9128   14.3007 C   0  0  0  0  0  0  0  0  0  0  0  0
    6.0698  -20.3167   14.4250 N   0  0  0  0  0  0  0  0  0  0  0  0
    9.6727  -14.9706   17.8681 C   0  0  0  0  0  0  0  0  0  0  0  0
   10.9188  -15.1962   18.1380 O   0  0  0  0  0  0  0  0  0  0  0  0
    8.8528  -14.3413   18.8264 N   0  0  0  0  0  0  0  0  0  0  0  0
    7.4713  -13.9785   18.7331 C   0  0  0  0  0  0  0  0  0  0  0  0
    7.4356  -12.6719   19.5480 C   0  0  0  0  0  0  0  0  0  0  0  0
    8.2967  -13.0270   20.7261 C   0  0  0  0  0  0  0  0  0  0  0  0
    9.3359  -13.9327   20.1494 C   0  0  1  0  0  0  0  0  0  0  0  0
    9.6377  -15.0889   21.0070 C   0  0  0  0  0  0  0  0  0  0  0  0
    9.0108  -16.1690   20.9005 O   0  0  0  0  0  0  0  0  0  0  0  0
   10.6580  -14.9970   21.9811 N   0  0  0  0  0  0  0  0  0  0  0  0
   11.0231  -16.1707   22.8003 C   0  0  1  0  0  0  0  0  0  0  0  0
   12.4702  -16.0098   23.1578 C   0  0  0  0  0  0  0  0  0  0  0  0
   13.4170  -16.0368   22.0129 C   0  0  0  0  0  0  0  0  0  0  0  0
   14.8261  -15.9117   22.4388 C   0  0  0  0  0  0  0  0  0  0  0  0
   15.4450  -14.8266   22.5136 O   0  0  0  0  0  0  0  0  0  0  0  0
   10.2059  -16.1283   24.0332 C   0  0  0  0  0  0  0  0  0  0  0  0
   10.1963  -17.2024   24.9007 O   0  0  0  0  0  0  0  0  0  0  0  0
   15.5502  -17.0567   22.7894 O   0  0  0  0  0  0  0  0  0  0  0  0
    9.5048  -15.1315   24.3288 O   0  0  0  0  0  0  0  0  0  0  0  0
  2  1  1  6
  2  8  1  0
  2  3  1  0
  4  3  1  0
  4  5  1  0
  5  6  1  0
  6  7  1  0
  8 10  1  0
  9  8  2  0
 10 14  1  0
 10 11  1  0
 12 11  1  0
 12 13  1  0
 14 15  1  1
 14 13  1  0
 15 16  2  0
 15 17  1  0
 17 18  1  0
 18 23  1  0
 18 19  1  1
 20 19  1  0
 20 21  1  0
 21 22  2  0
 21 25  1  0
 23 26  2  0
 23 24  1  0
M  END
$$$$
