KPE.pdb
     RDKit          3D

 26 26  0  0  1  0  0  0  0  0999 V2000
    9.9585  -16.9787   16.4412 N   0  0  0  0  0  0  0  0  0  0  0  0
    8.8632  -16.5184   17.2238 C   0  0  1  0  0  0  0  0  0  0  0  0
    7.8671  -17.6384   17.5360 C   0  0  0  0  0  0  0  0  0  0  0  0
    7.0028  -17.9379   16.3363 C   0  0  0  0  0  0  0  0  0  0  0  0
    5.9242  -18.9421   16.6224 C   0  0  0  0  0  0  0  0  0  0  0  0
    5.1345  -19.3094   15.3862 C   0  0  0  0  0  0  0  0  0  0  0  0
    4.0310  -20.1520   15.8317 N   0  0  0  0  0  0  0  0  0  0  0  0
    9.2158  -15.8511   18.4939 C   0  0  0  0  0  0  0  0  0  0  0  0
   10.3391  -16.2584   18.9926 O   0  0  0  0  0  0  0  0  0  0  0  0
    8.4692  -14.8635   19.1675 N   0  0  0  0  0  0  0  0  0  0  0  0
    7.2296  -14.2556   18.7899 C   0  0  0  0  0  0  0  0  0  0  0  0
    7.4150  -12.8180   19.3113 C   0  0  0  0  0  0  0  0  0  0  0  0
    8.0378  -13.0623   20.6558 C   0  0  0  0  0  0  0  0  0  0  0  0
    8.8907  -14.2701   20.4406 C   0  0  1  0  0  0  0  0  0  0  0  0
    8.8195  -15.2350   21.5485 C   0  0  0  0  0  0  0  0  0  0  0  0
    7.8401  -16.0045   21.6893 O   0  0  0  0  0  0  0  0  0  0  0  0
    9.8738  -15.3099   22.4873 N   0  0  0  0  0  0  0  0  0  0  0  0
    9.8349  -16.2988   23.5839 C   0  0  1  0  0  0  0  0  0  0  0  0
   11.2067  -16.8974   23.6693 C   0  0  0  0  0  0  0  0  0  0  0  0
   11.7015  -17.5392   22.4238 C   0  0  0  0  0  0  0  0  0  0  0  0
   13.0727  -18.0705   22.5652 C   0  0  0  0  0  0  0  0  0  0  0  0
   13.9191  -18.0883   21.6435 O   0  0  0  0  0  0  0  0  0  0  0  0
    9.5402  -15.5676   24.8363 C   0  0  0  0  0  0  0  0  0  0  0  0
    9.4589  -14.1893   24.8364 O   0  0  0  0  0  0  0  0  0  0  0  0
   13.4908  -18.5966   23.7927 O   0  0  0  0  0  0  0  0  0  0  0  0
    9.3571  -16.1644   25.9239 O   0  0  0  0  0  0  0  0  0  0  0  0
  2  1  1  1
  2  8  1  0
  2  3  1  0
  4  3  1  0
  4  5  1  0
  5  6  1  0
  6  7  1  0
  8 10  1  0
  9  8  2  0
 10 14  1  0
 10 11  1  0
 12 11  1  0
 12 13  1  0
 14 15  1  1
 14 13  1  0
 15 16  2  0
 15 17  1  0
 17 18  1  0
 18 23  1  0
 18 19  1  1
 20 19  1  0
 20 21  1  0
 21 22  2  0
 21 25  1  0
 23 26  2  0
 23 24  1  0
M  END
$$$$
