KPE.pdb
     RDKit          3D

 26 26  0  0  1  0  0  0  0  0999 V2000
   10.9691  -15.1988   16.2150 N   0  0  0  0  0  0  0  0  0  0  0  0
    9.7409  -15.1097   16.9276 C   0  0  1  0  0  0  0  0  0  0  0  0
    8.8992  -16.3808   16.7862 C   0  0  0  0  0  0  0  0  0  0  0  0
    8.6156  -16.6781   15.3346 C   0  0  0  0  0  0  0  0  0  0  0  0
    7.8351  -17.9447   15.1335 C   0  0  0  0  0  0  0  0  0  0  0  0
    7.6617  -18.2903   13.6716 C   0  0  0  0  0  0  0  0  0  0  0  0
    6.8317  -19.4882   13.6222 N   0  0  0  0  0  0  0  0  0  0  0  0
    9.8535  -14.7918   18.3659 C   0  0  0  0  0  0  0  0  0  0  0  0
   10.9955  -15.1253   18.8770 O   0  0  0  0  0  0  0  0  0  0  0  0
    8.8727  -14.1897   19.1796 N   0  0  0  0  0  0  0  0  0  0  0  0
    7.5795  -13.6946   18.8172 C   0  0  0  0  0  0  0  0  0  0  0  0
    7.4371  -12.4786   19.7520 C   0  0  0  0  0  0  0  0  0  0  0  0
    7.9692  -13.0275   21.0447 C   0  0  0  0  0  0  0  0  0  0  0  0
    9.0540  -13.9618   20.6169 C   0  0  1  0  0  0  0  0  0  0  0  0
    9.0677  -15.2211   21.3769 C   0  0  0  0  0  0  0  0  0  0  0  0
    8.6365  -16.2908   20.8863 O   0  0  0  0  0  0  0  0  0  0  0  0
    9.5770  -15.2434   22.6954 N   0  0  0  0  0  0  0  0  0  0  0  0
    9.8647  -16.5265   23.3685 C   0  0  1  0  0  0  0  0  0  0  0  0
   11.1177  -17.0649   22.7457 C   0  0  0  0  0  0  0  0  0  0  0  0
   12.3385  -16.2444   22.9566 C   0  0  0  0  0  0  0  0  0  0  0  0
   13.5421  -16.8523   22.3532 C   0  0  0  0  0  0  0  0  0  0  0  0
   13.5539  -17.9584   21.7679 O   0  0  0  0  0  0  0  0  0  0  0  0
   10.1133  -16.2366   24.7982 C   0  0  0  0  0  0  0  0  0  0  0  0
   10.1184  -14.9337   25.2549 O   0  0  0  0  0  0  0  0  0  0  0  0
   14.7675  -16.1796   22.4189 O   0  0  0  0  0  0  0  0  0  0  0  0
   10.3246  -17.1494   25.6317 O   0  0  0  0  0  0  0  0  0  0  0  0
  2  1  1  1
  2  8  1  0
  2  3  1  0
  4  3  1  0
  4  5  1  0
  5  6  1  0
  6  7  1  0
  8 10  1  0
  9  8  2  0
 10 14  1  0
 10 11  1  0
 12 11  1  0
 12 13  1  0
 14 15  1  1
 14 13  1  0
 15 16  2  0
 15 17  1  0
 17 18  1  0
 18 23  1  0
 18 19  1  6
 20 19  1  0
 20 21  1  0
 21 22  2  0
 21 25  1  0
 23 26  2  0
 23 24  1  0
M  END
$$$$
