KPE.pdb
     RDKit          3D

 26 26  0  0  1  0  0  0  0  0999 V2000
    8.9602  -16.4886   15.6076 N   0  0  0  0  0  0  0  0  0  0  0  0
    8.1148  -16.0003   16.6425 C   0  0  1  0  0  0  0  0  0  0  0  0
    7.0789  -17.0398   17.0790 C   0  0  0  0  0  0  0  0  0  0  0  0
    6.9013  -18.0985   16.0190 C   0  0  0  0  0  0  0  0  0  0  0  0
    7.5202  -19.4147   16.3906 C   0  0  0  0  0  0  0  0  0  0  0  0
    7.1621  -20.5163   15.4184 C   0  0  0  0  0  0  0  0  0  0  0  0
    7.7738  -21.7376   15.9287 N   0  0  0  0  0  0  0  0  0  0  0  0
    8.8012  -15.5011   17.8518 C   0  0  0  0  0  0  0  0  0  0  0  0
   10.0233  -15.9161   17.9559 O   0  0  0  0  0  0  0  0  0  0  0  0
    8.2624  -14.6580   18.8444 N   0  0  0  0  0  0  0  0  0  0  0  0
    6.9227  -14.1747   18.9876 C   0  0  0  0  0  0  0  0  0  0  0  0
    7.1587  -12.7657   19.5636 C   0  0  0  0  0  0  0  0  0  0  0  0
    8.2378  -13.0293   20.5742 C   0  0  0  0  0  0  0  0  0  0  0  0
    9.0575  -14.1105   19.9483 C   0  0  1  0  0  0  0  0  0  0  0  0
    9.4676  -15.1528   20.9017 C   0  0  0  0  0  0  0  0  0  0  0  0
    8.7865  -16.1905   21.0758 O   0  0  0  0  0  0  0  0  0  0  0  0
   10.6576  -14.9964   21.6486 N   0  0  0  0  0  0  0  0  0  0  0  0
   11.1651  -16.0971   22.4931 C   0  0  1  0  0  0  0  0  0  0  0  0
   12.6277  -15.8394   22.6986 C   0  0  0  0  0  0  0  0  0  0  0  0
   13.3384  -16.8348   23.5424 C   0  0  0  0  0  0  0  0  0  0  0  0
   14.7811  -16.5437   23.6700 C   0  0  0  0  0  0  0  0  0  0  0  0
   15.3373  -15.5241   23.2038 O   0  0  0  0  0  0  0  0  0  0  0  0
   10.4663  -16.0215   23.7953 C   0  0  0  0  0  0  0  0  0  0  0  0
   10.4427  -17.1145   24.6385 O   0  0  0  0  0  0  0  0  0  0  0  0
   15.6135  -17.4408   24.3488 O   0  0  0  0  0  0  0  0  0  0  0  0
    9.8804  -14.9790   24.1727 O   0  0  0  0  0  0  0  0  0  0  0  0
  2  1  1  6
  2  8  1  0
  2  3  1  0
  4  3  1  0
  4  5  1  0
  5  6  1  0
  6  7  1  0
  8 10  1  0
  9  8  2  0
 10 14  1  0
 10 11  1  0
 12 11  1  0
 12 13  1  0
 14 15  1  1
 14 13  1  0
 15 16  2  0
 15 17  1  0
 17 18  1  0
 18 23  1  0
 18 19  1  1
 20 19  1  0
 20 21  1  0
 21 22  2  0
 21 25  1  0
 23 26  2  0
 23 24  1  0
M  END
$$$$
