KPE.pdb
     RDKit          3D

 26 26  0  0  1  0  0  0  0  0999 V2000
    8.5508  -17.0699   16.6693 N   0  0  0  0  0  0  0  0  0  0  0  0
    7.8674  -16.8521   17.8979 C   0  0  1  0  0  0  0  0  0  0  0  0
    7.3187  -18.1530   18.4905 C   0  0  0  0  0  0  0  0  0  0  0  0
    6.5579  -18.9376   17.4506 C   0  0  0  0  0  0  0  0  0  0  0  0
    5.9302  -20.1871   17.9970 C   0  0  0  0  0  0  0  0  0  0  0  0
    5.3189  -21.0474   16.9140 C   0  0  0  0  0  0  0  0  0  0  0  0
    4.7700  -22.2244   17.5770 N   0  0  0  0  0  0  0  0  0  0  0  0
    8.6398  -16.1591   18.9494 C   0  0  0  0  0  0  0  0  0  0  0  0
    9.9180  -16.3405   18.8505 O   0  0  0  0  0  0  0  0  0  0  0  0
    8.1255  -15.3625   19.9922 N   0  0  0  0  0  0  0  0  0  0  0  0
    6.7629  -15.0565   20.3058 C   0  0  0  0  0  0  0  0  0  0  0  0
    6.8785  -13.6104   20.8236 C   0  0  0  0  0  0  0  0  0  0  0  0
    8.1058  -13.6951   21.6849 C   0  0  0  0  0  0  0  0  0  0  0  0
    8.9761  -14.6783   20.9715 C   0  0  1  0  0  0  0  0  0  0  0  0
    9.6446  -15.6249   21.8773 C   0  0  0  0  0  0  0  0  0  0  0  0
    9.0843  -16.6798   22.2572 O   0  0  0  0  0  0  0  0  0  0  0  0
   10.9524  -15.3537   22.3405 N   0  0  0  0  0  0  0  0  0  0  0  0
   11.6933  -16.3583   23.1304 C   0  0  1  0  0  0  0  0  0  0  0  0
   13.1376  -15.9586   23.0843 C   0  0  0  0  0  0  0  0  0  0  0  0
   14.0519  -16.7721   23.9270 C   0  0  0  0  0  0  0  0  0  0  0  0
   15.4628  -16.3520   23.8024 C   0  0  0  0  0  0  0  0  0  0  0  0
   15.8780  -15.5195   22.9653 O   0  0  0  0  0  0  0  0  0  0  0  0
   11.2070  -16.2787   24.5258 C   0  0  0  0  0  0  0  0  0  0  0  0
   10.4736  -15.1876   24.9475 O   0  0  0  0  0  0  0  0  0  0  0  0
   16.4279  -16.8969   24.6567 O   0  0  0  0  0  0  0  0  0  0  0  0
   11.4401  -17.1849   25.3608 O   0  0  0  0  0  0  0  0  0  0  0  0
  2  1  1  6
  2  8  1  0
  2  3  1  0
  4  3  1  0
  4  5  1  0
  5  6  1  0
  6  7  1  0
  8 10  1  0
  9  8  2  0
 10 14  1  0
 10 11  1  0
 12 11  1  0
 12 13  1  0
 14 15  1  1
 14 13  1  0
 15 16  2  0
 15 17  1  0
 17 18  1  0
 18 23  1  0
 18 19  1  1
 20 19  1  0
 20 21  1  0
 21 22  2  0
 21 25  1  0
 23 26  2  0
 23 24  1  0
M  END
$$$$
