KPE.pdb
     RDKit          3D

 26 26  0  0  1  0  0  0  0  0999 V2000
    9.3920  -14.1346   15.6171 N   0  0  0  0  0  0  0  0  0  0  0  0
    8.5309  -14.5326   16.6774 C   0  0  1  0  0  0  0  0  0  0  0  0
    8.0004  -15.9560   16.4854 C   0  0  0  0  0  0  0  0  0  0  0  0
    9.1356  -16.9471   16.4151 C   0  0  0  0  0  0  0  0  0  0  0  0
    8.6715  -18.3640   16.2406 C   0  0  0  0  0  0  0  0  0  0  0  0
    9.8149  -19.3534   16.2650 C   0  0  0  0  0  0  0  0  0  0  0  0
    9.2270  -20.6743   16.0758 N   0  0  0  0  0  0  0  0  0  0  0  0
    9.0981  -14.4341   18.0379 C   0  0  0  0  0  0  0  0  0  0  0  0
   10.3899  -14.5187   18.0624 O   0  0  0  0  0  0  0  0  0  0  0  0
    8.3858  -14.2658   19.2424 N   0  0  0  0  0  0  0  0  0  0  0  0
    6.9710  -14.2483   19.4589 C   0  0  0  0  0  0  0  0  0  0  0  0
    6.8412  -13.2139   20.5930 C   0  0  0  0  0  0  0  0  0  0  0  0
    7.9829  -13.6022   21.4880 C   0  0  0  0  0  0  0  0  0  0  0  0
    9.0408  -14.0629   20.5387 C   0  0  1  0  0  0  0  0  0  0  0  0
    9.7436  -15.2714   20.9959 C   0  0  0  0  0  0  0  0  0  0  0  0
    9.4157  -16.4139   20.5981 O   0  0  0  0  0  0  0  0  0  0  0  0
   10.8188  -15.1597   21.9070 N   0  0  0  0  0  0  0  0  0  0  0  0
   11.6289  -16.3427   22.2623 C   0  0  1  0  0  0  0  0  0  0  0  0
   13.0502  -15.8751   22.3577 C   0  0  0  0  0  0  0  0  0  0  0  0
   14.0375  -16.9117   22.7558 C   0  0  0  0  0  0  0  0  0  0  0  0
   15.4338  -16.4534   22.6047 C   0  0  0  0  0  0  0  0  0  0  0  0
   16.0592  -15.8038   23.4724 O   0  0  0  0  0  0  0  0  0  0  0  0
   11.1772  -16.8124   23.5909 C   0  0  0  0  0  0  0  0  0  0  0  0
   10.3171  -16.0419   24.3476 O   0  0  0  0  0  0  0  0  0  0  0  0
   16.1371  -16.7443   21.4303 O   0  0  0  0  0  0  0  0  0  0  0  0
   11.5537  -17.9092   24.0684 O   0  0  0  0  0  0  0  0  0  0  0  0
  2  1  1  6
  2  8  1  0
  2  3  1  0
  4  3  1  0
  4  5  1  0
  5  6  1  0
  6  7  1  0
  8 10  1  0
  9  8  2  0
 10 14  1  0
 10 11  1  0
 12 11  1  0
 12 13  1  0
 14 15  1  1
 14 13  1  0
 15 16  2  0
 15 17  1  0
 17 18  1  0
 18 23  1  0
 18 19  1  1
 20 19  1  0
 20 21  1  0
 21 22  2  0
 21 25  1  0
 23 26  2  0
 23 24  1  0
M  END
$$$$
