KPE.pdb
     RDKit          3D

 26 26  0  0  1  0  0  0  0  0999 V2000
    8.5455  -13.4879   20.8455 N   0  0  0  0  0  0  0  0  0  0  0  0
    7.6100  -13.5443   21.9159 C   0  0  1  0  0  0  0  0  0  0  0  0
    6.5726  -14.6527   21.7167 C   0  0  0  0  0  0  0  0  0  0  0  0
    6.6744  -15.2404   20.3310 C   0  0  0  0  0  0  0  0  0  0  0  0
    7.2659  -16.6201   20.3176 C   0  0  0  0  0  0  0  0  0  0  0  0
    7.0824  -17.3142   18.9867 C   0  0  0  0  0  0  0  0  0  0  0  0
    7.7141  -18.6228   19.1086 N   0  0  0  0  0  0  0  0  0  0  0  0
    8.1874  -13.6940   23.2674 C   0  0  0  0  0  0  0  0  0  0  0  0
    9.3682  -14.2253   23.2647 O   0  0  0  0  0  0  0  0  0  0  0  0
    7.5893  -13.3264   24.4895 N   0  0  0  0  0  0  0  0  0  0  0  0
    6.3306  -12.6852   24.7211 C   0  0  0  0  0  0  0  0  0  0  0  0
    6.6470  -11.8096   25.9483 C   0  0  0  0  0  0  0  0  0  0  0  0
    7.4566  -12.7525   26.7914 C   0  0  0  0  0  0  0  0  0  0  0  0
    8.2208  -13.5592   25.7924 C   0  0  1  0  0  0  0  0  0  0  0  0
    8.2817  -14.9901   26.1273 C   0  0  0  0  0  0  0  0  0  0  0  0
    7.6022  -15.8409   25.5065 O   0  0  0  0  0  0  0  0  0  0  0  0
    9.1230  -15.4345   27.1728 N   0  0  0  0  0  0  0  0  0  0  0  0
    9.8277  -16.7288   27.0720 C   0  0  1  0  0  0  0  0  0  0  0  0
   10.7883  -16.6051   25.9277 C   0  0  0  0  0  0  0  0  0  0  0  0
   11.7015  -17.7611   25.7335 C   0  0  0  0  0  0  0  0  0  0  0  0
   12.6054  -17.5825   24.5787 C   0  0  0  0  0  0  0  0  0  0  0  0
   12.3901  -16.7931   23.6318 O   0  0  0  0  0  0  0  0  0  0  0  0
   10.5845  -16.9260   28.3283 C   0  0  0  0  0  0  0  0  0  0  0  0
   10.8562  -15.8536   29.1543 O   0  0  0  0  0  0  0  0  0  0  0  0
   13.7888  -18.3255   24.5014 O   0  0  0  0  0  0  0  0  0  0  0  0
   10.9989  -18.0557   28.6811 O   0  0  0  0  0  0  0  0  0  0  0  0
  2  1  1  6
  2  8  1  0
  2  3  1  0
  4  3  1  0
  4  5  1  0
  5  6  1  0
  6  7  1  0
  8 10  1  0
  9  8  2  0
 10 14  1  0
 10 11  1  0
 12 11  1  0
 12 13  1  0
 14 15  1  1
 14 13  1  0
 15 16  2  0
 15 17  1  0
 17 18  1  0
 18 23  1  0
 18 19  1  6
 20 19  1  0
 20 21  1  0
 21 22  2  0
 21 25  1  0
 23 26  2  0
 23 24  1  0
M  END
$$$$
