WKH.pdb
     RDKit          3D

 34 36  0  0  1  0  0  0  0  0999 V2000
   26.9239  -22.4950  -15.1268 N   0  0  0  0  0  0  0  0  0  0  0  0
   25.9161  -22.1265  -14.1647 C   0  0  1  0  0  0  0  0  0  0  0  0
   25.9848  -20.6597  -13.9006 C   0  0  0  0  0  0  0  0  0  0  0  0
   27.1372  -20.3770  -13.0174 C   0  0  0  0  0  0  0  0  0  0  0  0
   28.4147  -20.0030  -13.4345 C   0  0  0  0  0  0  0  0  0  0  0  0
   29.1931  -19.7947  -12.3692 N   0  0  0  0  0  0  0  0  0  0  0  0
   28.4873  -20.0151  -11.2550 C   0  0  0  0  0  0  0  0  0  0  0  0
   28.8211  -19.9470   -9.9170 C   0  0  0  0  0  0  0  0  0  0  0  0
   27.9165  -20.2325   -8.9146 C   0  0  0  0  0  0  0  0  0  0  0  0
   26.6430  -20.5955   -9.3056 C   0  0  0  0  0  0  0  0  0  0  0  0
   26.2983  -20.6665  -10.6443 C   0  0  0  0  0  0  0  0  0  0  0  0
   27.2084  -20.3783  -11.6393 C   0  0  0  0  0  0  0  0  0  0  0  0
   24.5934  -22.5720  -14.6491 C   0  0  0  0  0  0  0  0  0  0  0  0
   24.2209  -22.2067  -15.7886 O   0  0  0  0  0  0  0  0  0  0  0  0
   23.7090  -23.3915  -13.9064 N   0  0  0  0  0  0  0  0  0  0  0  0
   22.5390  -23.9717  -14.5217 C   0  0  1  0  0  0  0  0  0  0  0  0
   22.4650  -25.4616  -14.3260 C   0  0  0  0  0  0  0  0  0  0  0  0
   21.2747  -26.0951  -14.9820 C   0  0  0  0  0  0  0  0  0  0  0  0
   21.2000  -27.5757  -14.8194 C   0  0  0  0  0  0  0  0  0  0  0  0
   21.9226  -28.1978  -16.0097 C   0  0  0  0  0  0  0  0  0  0  0  0
   22.0337  -29.6298  -15.8747 N   0  0  0  0  0  0  0  0  0  0  0  0
   21.3167  -23.3977  -13.8513 C   0  0  0  0  0  0  0  0  0  0  0  0
   21.2723  -23.5272  -12.5980 O   0  0  0  0  0  0  0  0  0  0  0  0
   20.2947  -22.7583  -14.5920 N   0  0  0  0  0  0  0  0  0  0  0  0
   19.0946  -22.3112  -13.9293 C   0  0  1  0  0  0  0  0  0  0  0  0
   18.9152  -20.8311  -14.2643 C   0  0  0  0  0  0  0  0  0  0  0  0
   19.6877  -19.9869  -13.3303 C   0  0  0  0  0  0  0  0  0  0  0  0
   20.0529  -20.3538  -12.0322 C   0  0  0  0  0  0  0  0  0  0  0  0
   20.7384  -19.3005  -11.5439 N   0  0  0  0  0  0  0  0  0  0  0  0
   20.8078  -18.3278  -12.4632 C   0  0  0  0  0  0  0  0  0  0  0  0
   20.1638  -18.7510  -13.5553 N   0  0  0  0  0  0  0  0  0  0  0  0
   17.9210  -23.0958  -14.3842 C   0  0  0  0  0  0  0  0  0  0  0  0
   17.9646  -23.9576  -15.4890 O   0  0  0  0  0  0  0  0  0  0  0  0
   16.8218  -23.0191  -13.7882 O   0  0  0  0  0  0  0  0  0  0  0  0
  2  1  1  6
  2 13  1  0
  2  3  1  0
  3  4  1  0
  4  5  2  0
  6  5  1  0
  7  6  1  0
  8  7  2  0
  9  8  1  0
 10  9  2  0
 10 11  1  0
 11 12  2  0
 12  7  1  0
 12  4  1  0
 13 14  2  0
 15 13  1  0
 16 22  1  0
 16 15  1  0
 16 17  1  1
 18 17  1  0
 19 18  1  0
 20 19  1  0
 21 20  1  0
 22 23  2  0
 24 25  1  0
 24 22  1  0
 25 32  1  0
 25 26  1  6
 27 26  1  0
 27 28  2  0
 29 28  1  0
 30 31  2  0
 30 29  1  0
 31 27  1  0
 32 34  2  0
 32 33  1  0
M  END
$$$$
