WKH.pdb
     RDKit          3D

 34 36  0  0  1  0  0  0  0  0999 V2000
   33.9944  -29.8550  -16.6292 N   0  0  0  0  0  0  0  0  0  0  0  0
   33.5213  -31.1963  -16.3970 C   0  0  1  0  0  0  0  0  0  0  0  0
   32.7169  -31.6559  -17.5665 C   0  0  0  0  0  0  0  0  0  0  0  0
   31.3151  -31.2152  -17.3971 C   0  0  0  0  0  0  0  0  0  0  0  0
   30.6911  -30.1848  -18.1004 C   0  0  0  0  0  0  0  0  0  0  0  0
   29.4156  -30.0857  -17.7164 N   0  0  0  0  0  0  0  0  0  0  0  0
   29.1609  -31.0088  -16.7831 C   0  0  0  0  0  0  0  0  0  0  0  0
   28.0196  -31.3158  -16.0695 C   0  0  0  0  0  0  0  0  0  0  0  0
   27.9861  -32.3242  -15.1280 C   0  0  0  0  0  0  0  0  0  0  0  0
   29.1565  -33.0273  -14.9220 C   0  0  0  0  0  0  0  0  0  0  0  0
   30.3059  -32.7275  -15.6325 C   0  0  0  0  0  0  0  0  0  0  0  0
   30.3300  -31.7188  -16.5723 C   0  0  0  0  0  0  0  0  0  0  0  0
   34.6714  -32.0740  -16.0974 C   0  0  0  0  0  0  0  0  0  0  0  0
   35.8195  -31.6815  -16.4111 O   0  0  0  0  0  0  0  0  0  0  0  0
   34.5638  -33.3410  -15.4740 N   0  0  0  0  0  0  0  0  0  0  0  0
   35.7369  -34.1355  -15.1968 C   0  0  1  0  0  0  0  0  0  0  0  0
   35.6069  -34.9293  -13.9254 C   0  0  0  0  0  0  0  0  0  0  0  0
   35.6641  -34.0893  -12.6845 C   0  0  0  0  0  0  0  0  0  0  0  0
   35.5240  -34.8595  -11.4151 C   0  0  0  0  0  0  0  0  0  0  0  0
   36.7197  -35.8017  -11.3242 C   0  0  0  0  0  0  0  0  0  0  0  0
   36.6570  -36.6275  -10.1428 N   0  0  0  0  0  0  0  0  0  0  0  0
   35.9008  -35.1423  -16.3069 C   0  0  0  0  0  0  0  0  0  0  0  0
   35.0593  -35.0627  -17.2423 O   0  0  0  0  0  0  0  0  0  0  0  0
   36.9355  -36.1073  -16.2874 N   0  0  0  0  0  0  0  0  0  0  0  0
   37.0478  -37.0670  -17.3578 C   0  0  1  0  0  0  0  0  0  0  0  0
   37.3000  -36.2839  -18.6455 C   0  0  0  0  0  0  0  0  0  0  0  0
   36.0660  -36.1940  -19.4522 C   0  0  0  0  0  0  0  0  0  0  0  0
   34.9182  -36.9654  -19.2511 C   0  0  0  0  0  0  0  0  0  0  0  0
   34.0476  -36.5622  -20.1983 N   0  0  0  0  0  0  0  0  0  0  0  0
   34.5978  -35.6009  -20.9528 C   0  0  0  0  0  0  0  0  0  0  0  0
   35.8331  -35.3779  -20.4936 N   0  0  0  0  0  0  0  0  0  0  0  0
   38.1578  -38.0156  -17.0972 C   0  0  0  0  0  0  0  0  0  0  0  0
   38.9450  -37.9649  -15.9383 O   0  0  0  0  0  0  0  0  0  0  0  0
   38.4426  -38.9183  -17.9178 O   0  0  0  0  0  0  0  0  0  0  0  0
  2  1  1  6
  2 13  1  0
  2  3  1  0
  3  4  1  0
  4  5  2  0
  6  5  1  0
  7  6  1  0
  8  7  2  0
  9  8  1  0
 10  9  2  0
 10 11  1  0
 11 12  2  0
 12  7  1  0
 12  4  1  0
 13 14  2  0
 15 13  1  0
 16 22  1  0
 16 15  1  0
 16 17  1  1
 18 17  1  0
 19 18  1  0
 20 19  1  0
 21 20  1  0
 22 23  2  0
 24 25  1  0
 24 22  1  0
 25 32  1  0
 25 26  1  6
 27 26  1  0
 27 28  2  0
 29 28  1  0
 30 31  2  0
 30 29  1  0
 31 27  1  0
 32 34  2  0
 32 33  1  0
M  END
$$$$
