WKH.pdb
     RDKit          3D

 34 36  0  0  1  0  0  0  0  0999 V2000
   25.3440  -19.2117  -11.1454 N   0  0  0  0  0  0  0  0  0  0  0  0
   26.0010  -20.4606  -11.4379 C   0  0  1  0  0  0  0  0  0  0  0  0
   25.8159  -21.4057  -10.2984 C   0  0  0  0  0  0  0  0  0  0  0  0
   26.3460  -20.7891   -9.0628 C   0  0  0  0  0  0  0  0  0  0  0  0
   25.5938  -20.1321   -8.0889 C   0  0  0  0  0  0  0  0  0  0  0  0
   26.3931  -19.7331   -7.0959 N   0  0  0  0  0  0  0  0  0  0  0  0
   27.6512  -20.0964   -7.3667 C   0  0  0  0  0  0  0  0  0  0  0  0
   28.8356  -19.9204   -6.6795 C   0  0  0  0  0  0  0  0  0  0  0  0
   30.0446  -20.3791   -7.1619 C   0  0  0  0  0  0  0  0  0  0  0  0
   30.0260  -21.0318   -8.3785 C   0  0  0  0  0  0  0  0  0  0  0  0
   28.8438  -21.2136   -9.0752 C   0  0  0  0  0  0  0  0  0  0  0  0
   27.6401  -20.7529   -8.5850 C   0  0  0  0  0  0  0  0  0  0  0  0
   25.4965  -20.9878  -12.7225 C   0  0  0  0  0  0  0  0  0  0  0  0
   24.2731  -20.8804  -12.9727 O   0  0  0  0  0  0  0  0  0  0  0  0
   26.3088  -21.6124  -13.7000 N   0  0  0  0  0  0  0  0  0  0  0  0
   25.7722  -21.9791  -14.9890 C   0  0  1  0  0  0  0  0  0  0  0  0
   26.8451  -22.3705  -15.9685 C   0  0  0  0  0  0  0  0  0  0  0  0
   27.8220  -21.2709  -16.2603 C   0  0  0  0  0  0  0  0  0  0  0  0
   28.8910  -21.6415  -17.2319 C   0  0  0  0  0  0  0  0  0  0  0  0
   29.2787  -20.3720  -17.9829 C   0  0  0  0  0  0  0  0  0  0  0  0
   30.3138  -20.6250  -18.9554 N   0  0  0  0  0  0  0  0  0  0  0  0
   24.9004  -23.1961  -14.8110 C   0  0  0  0  0  0  0  0  0  0  0  0
   25.3104  -24.0407  -13.9696 O   0  0  0  0  0  0  0  0  0  0  0  0
   23.7034  -23.3661  -15.5462 N   0  0  0  0  0  0  0  0  0  0  0  0
   22.6195  -24.1390  -14.9921 C   0  0  1  0  0  0  0  0  0  0  0  0
   22.2576  -23.5136  -13.6455 C   0  0  0  0  0  0  0  0  0  0  0  0
   21.1540  -24.2569  -13.0043 C   0  0  0  0  0  0  0  0  0  0  0  0
   21.2748  -25.5142  -12.4062 C   0  0  0  0  0  0  0  0  0  0  0  0
   20.0404  -25.8137  -11.9543 N   0  0  0  0  0  0  0  0  0  0  0  0
   19.1890  -24.8195  -12.2419 C   0  0  0  0  0  0  0  0  0  0  0  0
   19.8737  -23.8682  -12.8845 N   0  0  0  0  0  0  0  0  0  0  0  0
   21.4495  -24.1300  -15.9036 C   0  0  0  0  0  0  0  0  0  0  0  0
   20.4970  -25.1584  -15.9283 O   0  0  0  0  0  0  0  0  0  0  0  0
   21.2609  -23.1850  -16.7040 O   0  0  0  0  0  0  0  0  0  0  0  0
  2  1  1  1
  2 13  1  0
  2  3  1  0
  3  4  1  0
  4  5  2  0
  6  5  1  0
  7  6  1  0
  8  7  2  0
  9  8  1  0
 10  9  2  0
 10 11  1  0
 11 12  2  0
 12  7  1  0
 12  4  1  0
 13 14  2  0
 15 13  1  0
 16 22  1  0
 16 15  1  0
 16 17  1  6
 18 17  1  0
 19 18  1  0
 20 19  1  0
 21 20  1  0
 22 23  2  0
 24 25  1  0
 24 22  1  0
 25 32  1  0
 25 26  1  1
 27 26  1  0
 27 28  2  0
 29 28  1  0
 30 31  2  0
 30 29  1  0
 31 27  1  0
 32 34  2  0
 32 33  1  0
M  END
$$$$
