WKH.pdb
     RDKit          3D

 34 36  0  0  1  0  0  0  0  0999 V2000
   25.9421  -18.8860   -8.8113 N   0  0  0  0  0  0  0  0  0  0  0  0
   26.5248  -20.0974   -9.3308 C   0  0  1  0  0  0  0  0  0  0  0  0
   26.1037  -21.2580   -8.4931 C   0  0  0  0  0  0  0  0  0  0  0  0
   26.4098  -20.9716   -7.0746 C   0  0  0  0  0  0  0  0  0  0  0  0
   25.5017  -21.0171   -6.0167 C   0  0  0  0  0  0  0  0  0  0  0  0
   26.1299  -20.7367   -4.8717 N   0  0  0  0  0  0  0  0  0  0  0  0
   27.4230  -20.5046   -5.1213 C   0  0  0  0  0  0  0  0  0  0  0  0
   28.4808  -20.1711   -4.2991 C   0  0  0  0  0  0  0  0  0  0  0  0
   29.7563  -19.9643   -4.7838 C   0  0  0  0  0  0  0  0  0  0  0  0
   29.9390  -20.1054   -6.1452 C   0  0  0  0  0  0  0  0  0  0  0  0
   28.8851  -20.4398   -6.9779 C   0  0  0  0  0  0  0  0  0  0  0  0
   27.6140  -20.6457   -6.4847 C   0  0  0  0  0  0  0  0  0  0  0  0
   26.1605  -20.2420  -10.7553 C   0  0  0  0  0  0  0  0  0  0  0  0
   25.0725  -19.7574  -11.1453 O   0  0  0  0  0  0  0  0  0  0  0  0
   26.9647  -20.8971  -11.7194 N   0  0  0  0  0  0  0  0  0  0  0  0
   26.7640  -20.6731  -13.1313 C   0  0  1  0  0  0  0  0  0  0  0  0
   27.9145  -21.1727  -13.9623 C   0  0  0  0  0  0  0  0  0  0  0  0
   27.8000  -20.8259  -15.4167 C   0  0  0  0  0  0  0  0  0  0  0  0
   28.9784  -21.2274  -16.2379 C   0  0  0  0  0  0  0  0  0  0  0  0
   28.7418  -20.7073  -17.6519 C   0  0  0  0  0  0  0  0  0  0  0  0
   29.8053  -21.0958  -18.5459 N   0  0  0  0  0  0  0  0  0  0  0  0
   25.5552  -21.4604  -13.5693 C   0  0  0  0  0  0  0  0  0  0  0  0
   25.4413  -22.6092  -13.0625 O   0  0  0  0  0  0  0  0  0  0  0  0
   24.6183  -20.9325  -14.4889 N   0  0  0  0  0  0  0  0  0  0  0  0
   23.2147  -21.2269  -14.3387 C   0  0  1  0  0  0  0  0  0  0  0  0
   22.7840  -20.7002  -12.9704 C   0  0  0  0  0  0  0  0  0  0  0  0
   21.3685  -21.0287  -12.7062 C   0  0  0  0  0  0  0  0  0  0  0  0
   20.5141  -21.6750  -13.6037 C   0  0  0  0  0  0  0  0  0  0  0  0
   19.3317  -21.7716  -12.9631 N   0  0  0  0  0  0  0  0  0  0  0  0
   19.4215  -21.2263  -11.7422 C   0  0  0  0  0  0  0  0  0  0  0  0
   20.6693  -20.7726  -11.5880 N   0  0  0  0  0  0  0  0  0  0  0  0
   22.4258  -20.5843  -15.4178 C   0  0  0  0  0  0  0  0  0  0  0  0
   21.2477  -21.1424  -15.9337 O   0  0  0  0  0  0  0  0  0  0  0  0
   22.7867  -19.4958  -15.9220 O   0  0  0  0  0  0  0  0  0  0  0  0
  2  1  1  1
  2 13  1  0
  2  3  1  0
  3  4  1  0
  4  5  2  0
  6  5  1  0
  7  6  1  0
  8  7  2  0
  9  8  1  0
 10  9  2  0
 10 11  1  0
 11 12  2  0
 12  7  1  0
 12  4  1  0
 13 14  2  0
 15 13  1  0
 16 22  1  0
 16 15  1  0
 16 17  1  6
 18 17  1  0
 19 18  1  0
 20 19  1  0
 21 20  1  0
 22 23  2  0
 24 25  1  0
 24 22  1  0
 25 32  1  0
 25 26  1  1
 27 26  1  0
 27 28  2  0
 29 28  1  0
 30 31  2  0
 30 29  1  0
 31 27  1  0
 32 34  2  0
 32 33  1  0
M  END
$$$$
