WKH.pdb
     RDKit          3D

 34 36  0  0  1  0  0  0  0  0999 V2000
   27.3672  -21.7668  -14.3325 N   0  0  0  0  0  0  0  0  0  0  0  0
   26.3412  -21.9219  -13.3325 C   0  0  1  0  0  0  0  0  0  0  0  0
   26.1957  -20.6539  -12.5597 C   0  0  0  0  0  0  0  0  0  0  0  0
   27.2398  -20.5984  -11.5134 C   0  0  0  0  0  0  0  0  0  0  0  0
   28.6056  -20.4149  -11.7299 C   0  0  0  0  0  0  0  0  0  0  0  0
   29.2465  -20.3812  -10.5585 N   0  0  0  0  0  0  0  0  0  0  0  0
   28.3638  -20.5356   -9.5659 C   0  0  0  0  0  0  0  0  0  0  0  0
   28.5098  -20.5813   -8.1938 C   0  0  0  0  0  0  0  0  0  0  0  0
   27.4387  -20.7632   -7.3428 C   0  0  0  0  0  0  0  0  0  0  0  0
   26.1938  -20.9005   -7.9240 C   0  0  0  0  0  0  0  0  0  0  0  0
   26.0368  -20.8558   -9.2985 C   0  0  0  0  0  0  0  0  0  0  0  0
   27.1126  -20.6725  -10.1413 C   0  0  0  0  0  0  0  0  0  0  0  0
   25.0880  -22.3570  -13.9829 C   0  0  0  0  0  0  0  0  0  0  0  0
   24.6141  -21.6471  -14.9007 O   0  0  0  0  0  0  0  0  0  0  0  0
   24.3789  -23.5329  -13.6368 N   0  0  0  0  0  0  0  0  0  0  0  0
   23.2320  -23.9619  -14.4013 C   0  0  1  0  0  0  0  0  0  0  0  0
   23.0519  -25.4555  -14.3793 C   0  0  0  0  0  0  0  0  0  0  0  0
   21.8967  -25.9333  -15.2075 C   0  0  0  0  0  0  0  0  0  0  0  0
   22.1996  -26.0720  -16.6611 C   0  0  0  0  0  0  0  0  0  0  0  0
   20.9063  -26.4875  -17.3543 C   0  0  0  0  0  0  0  0  0  0  0  0
   20.8678  -27.9085  -17.6002 N   0  0  0  0  0  0  0  0  0  0  0  0
   21.9945  -23.3792  -13.7672 C   0  0  0  0  0  0  0  0  0  0  0  0
   21.8884  -23.5511  -12.5227 O   0  0  0  0  0  0  0  0  0  0  0  0
   21.0244  -22.6875  -14.5304 N   0  0  0  0  0  0  0  0  0  0  0  0
   19.8149  -22.2151  -13.9033 C   0  0  1  0  0  0  0  0  0  0  0  0
   19.5881  -20.7801  -14.3770 C   0  0  0  0  0  0  0  0  0  0  0  0
   20.4699  -19.8446  -13.6498 C   0  0  0  0  0  0  0  0  0  0  0  0
   21.2886  -20.1886  -12.5707 C   0  0  0  0  0  0  0  0  0  0  0  0
   21.9114  -19.0462  -12.2176 N   0  0  0  0  0  0  0  0  0  0  0  0
   21.5201  -18.0414  -13.0135 C   0  0  0  0  0  0  0  0  0  0  0  0
   20.6379  -18.5333  -13.8890 N   0  0  0  0  0  0  0  0  0  0  0  0
   18.6634  -23.0748  -14.2709 C   0  0  0  0  0  0  0  0  0  0  0  0
   18.6719  -23.9195  -15.3897 O   0  0  0  0  0  0  0  0  0  0  0  0
   17.6163  -23.0814  -13.5833 O   0  0  0  0  0  0  0  0  0  0  0  0
  2  1  1  6
  2 13  1  0
  2  3  1  0
  3  4  1  0
  4  5  2  0
  6  5  1  0
  7  6  1  0
  8  7  2  0
  9  8  1  0
 10  9  2  0
 10 11  1  0
 11 12  2  0
 12  7  1  0
 12  4  1  0
 13 14  2  0
 15 13  1  0
 16 22  1  0
 16 15  1  0
 16 17  1  1
 18 17  1  0
 19 18  1  0
 20 19  1  0
 21 20  1  0
 22 23  2  0
 24 25  1  0
 24 22  1  0
 25 32  1  0
 25 26  1  6
 27 26  1  0
 27 28  2  0
 29 28  1  0
 30 31  2  0
 30 29  1  0
 31 27  1  0
 32 34  2  0
 32 33  1  0
M  END
$$$$
