WKH.pdb
     RDKit          3D

 34 36  0  0  1  0  0  0  0  0999 V2000
   16.3084  -16.8740    3.3110 N   0  0  0  0  0  0  0  0  0  0  0  0
   17.0760  -17.8014    4.1033 C   0  0  1  0  0  0  0  0  0  0  0  0
   17.8286  -18.7266    3.2069 C   0  0  0  0  0  0  0  0  0  0  0  0
   16.8724  -19.6114    2.5063 C   0  0  0  0  0  0  0  0  0  0  0  0
   16.2775  -19.3572    1.2705 C   0  0  0  0  0  0  0  0  0  0  0  0
   15.4980  -20.3857    0.9260 N   0  0  0  0  0  0  0  0  0  0  0  0
   15.5470  -21.3186    1.8827 C   0  0  0  0  0  0  0  0  0  0  0  0
   14.9294  -22.5465    2.0132 C   0  0  0  0  0  0  0  0  0  0  0  0
   15.1211  -23.3564    3.1140 C   0  0  0  0  0  0  0  0  0  0  0  0
   15.9679  -22.8854    4.0978 C   0  0  0  0  0  0  0  0  0  0  0  0
   16.5921  -21.6559    3.9763 C   0  0  0  0  0  0  0  0  0  0  0  0
   16.3956  -20.8537    2.8721 C   0  0  0  0  0  0  0  0  0  0  0  0
   17.9464  -17.0477    5.0291 C   0  0  0  0  0  0  0  0  0  0  0  0
   18.9014  -16.3923    4.5504 O   0  0  0  0  0  0  0  0  0  0  0  0
   17.7736  -17.0150    6.4343 N   0  0  0  0  0  0  0  0  0  0  0  0
   18.7855  -16.4502    7.2951 C   0  0  1  0  0  0  0  0  0  0  0  0
   18.3386  -15.1688    7.9445 C   0  0  0  0  0  0  0  0  0  0  0  0
   18.8395  -13.9374    7.2507 C   0  0  0  0  0  0  0  0  0  0  0  0
   18.3338  -12.6589    7.8285 C   0  0  0  0  0  0  0  0  0  0  0  0
   19.0222  -11.5218    7.0808 C   0  0  0  0  0  0  0  0  0  0  0  0
   20.4120  -11.4071    7.4507 N   0  0  0  0  0  0  0  0  0  0  0  0
   19.0493  -17.4215    8.4176 C   0  0  0  0  0  0  0  0  0  0  0  0
   18.2054  -18.3496    8.5435 O   0  0  0  0  0  0  0  0  0  0  0  0
   20.1738  -17.2882    9.2661 N   0  0  0  0  0  0  0  0  0  0  0  0
   20.6598  -18.4273   10.0046 C   0  0  1  0  0  0  0  0  0  0  0  0
   21.0024  -19.5154    8.9878 C   0  0  0  0  0  0  0  0  0  0  0  0
   21.5023  -20.7273    9.6682 C   0  0  0  0  0  0  0  0  0  0  0  0
   21.5689  -20.8997   11.0535 C   0  0  0  0  0  0  0  0  0  0  0  0
   22.0797  -22.1342   11.2346 N   0  0  0  0  0  0  0  0  0  0  0  0
   22.3232  -22.7121   10.0502 C   0  0  0  0  0  0  0  0  0  0  0  0
   21.9687  -21.8485    9.0936 N   0  0  0  0  0  0  0  0  0  0  0  0
   21.8555  -18.0632   10.8031 C   0  0  0  0  0  0  0  0  0  0  0  0
   22.2247  -18.7428   11.9724 O   0  0  0  0  0  0  0  0  0  0  0  0
   22.5988  -17.1155   10.4586 O   0  0  0  0  0  0  0  0  0  0  0  0
  2  1  1  6
  2 13  1  0
  2  3  1  0
  3  4  1  0
  4  5  2  0
  6  5  1  0
  7  6  1  0
  8  7  2  0
  9  8  1  0
 10  9  2  0
 10 11  1  0
 11 12  2  0
 12  7  1  0
 12  4  1  0
 13 14  2  0
 15 13  1  0
 16 22  1  0
 16 15  1  0
 16 17  1  1
 18 17  1  0
 19 18  1  0
 20 19  1  0
 21 20  1  0
 22 23  2  0
 24 25  1  0
 24 22  1  0
 25 32  1  0
 25 26  1  6
 27 26  1  0
 27 28  2  0
 29 28  1  0
 30 31  2  0
 30 29  1  0
 31 27  1  0
 32 34  2  0
 32 33  1  0
M  END
$$$$
