WKH.pdb
     RDKit          3D

 34 36  0  0  1  0  0  0  0  0999 V2000
   16.0881  -18.4100    5.1064 N   0  0  0  0  0  0  0  0  0  0  0  0
   16.7454  -17.1514    5.3534 C   0  0  1  0  0  0  0  0  0  0  0  0
   16.0595  -16.0673    4.5916 C   0  0  0  0  0  0  0  0  0  0  0  0
   16.9049  -15.6671    3.4457 C   0  0  0  0  0  0  0  0  0  0  0  0
   17.4518  -14.4011    3.2356 C   0  0  0  0  0  0  0  0  0  0  0  0
   18.1881  -14.4080    2.1212 N   0  0  0  0  0  0  0  0  0  0  0  0
   18.1555  -15.6288    1.5763 C   0  0  0  0  0  0  0  0  0  0  0  0
   18.7332  -16.1512    0.4363 C   0  0  0  0  0  0  0  0  0  0  0  0
   18.5528  -17.4644    0.0522 C   0  0  0  0  0  0  0  0  0  0  0  0
   17.7592  -18.2505    0.8639 C   0  0  0  0  0  0  0  0  0  0  0  0
   17.1758  -17.7364    2.0089 C   0  0  0  0  0  0  0  0  0  0  0  0
   17.3625  -16.4232    2.3858 C   0  0  0  0  0  0  0  0  0  0  0  0
   16.7925  -16.9033    6.8090 C   0  0  0  0  0  0  0  0  0  0  0  0
   15.8529  -17.3328    7.5185 O   0  0  0  0  0  0  0  0  0  0  0  0
   17.8370  -16.2063    7.4637 N   0  0  0  0  0  0  0  0  0  0  0  0
   17.8284  -16.0279    8.8962 C   0  0  1  0  0  0  0  0  0  0  0  0
   19.1930  -16.2013    9.5057 C   0  0  0  0  0  0  0  0  0  0  0  0
   19.7363  -17.5929    9.3758 C   0  0  0  0  0  0  0  0  0  0  0  0
   21.1217  -17.7623    9.9014 C   0  0  0  0  0  0  0  0  0  0  0  0
   21.5149  -19.2186    9.6770 C   0  0  0  0  0  0  0  0  0  0  0  0
   22.8852  -19.4636   10.0563 N   0  0  0  0  0  0  0  0  0  0  0  0
   17.4108  -14.6105    9.1951 C   0  0  0  0  0  0  0  0  0  0  0  0
   17.3818  -14.2979   10.4161 O   0  0  0  0  0  0  0  0  0  0  0  0
   17.0762  -13.7017    8.1635 N   0  0  0  0  0  0  0  0  0  0  0  0
   16.6117  -12.3765    8.4915 C   0  0  1  0  0  0  0  0  0  0  0  0
   17.4877  -11.3857    7.7260 C   0  0  0  0  0  0  0  0  0  0  0  0
   18.9064  -11.5406    8.1065 C   0  0  0  0  0  0  0  0  0  0  0  0
   19.4831  -11.0359    9.2752 C   0  0  0  0  0  0  0  0  0  0  0  0
   20.7792  -11.4030    9.2201 N   0  0  0  0  0  0  0  0  0  0  0  0
   21.0166  -12.0938    8.0964 C   0  0  0  0  0  0  0  0  0  0  0  0
   19.8684  -12.1762    7.4171 N   0  0  0  0  0  0  0  0  0  0  0  0
   15.1863  -12.2126    8.1155 C   0  0  0  0  0  0  0  0  0  0  0  0
   14.5054  -10.9924    8.2297 O   0  0  0  0  0  0  0  0  0  0  0  0
   14.5199  -13.1761    7.6719 O   0  0  0  0  0  0  0  0  0  0  0  0
  2  1  1  1
  2 13  1  0
  2  3  1  0
  3  4  1  0
  4  5  2  0
  6  5  1  0
  7  6  1  0
  8  7  2  0
  9  8  1  0
 10  9  2  0
 10 11  1  0
 11 12  2  0
 12  7  1  0
 12  4  1  0
 13 14  2  0
 15 13  1  0
 16 22  1  0
 16 15  1  0
 16 17  1  6
 18 17  1  0
 19 18  1  0
 20 19  1  0
 21 20  1  0
 22 23  2  0
 24 25  1  0
 24 22  1  0
 25 32  1  0
 25 26  1  6
 27 26  1  0
 27 28  2  0
 29 28  1  0
 30 31  2  0
 30 29  1  0
 31 27  1  0
 32 34  2  0
 32 33  1  0
M  END
$$$$
