WKH.pdb
     RDKit          3D

 34 36  0  0  1  0  0  0  0  0999 V2000
   15.3730  -18.7532    1.4853 N   0  0  0  0  0  0  0  0  0  0  0  0
   15.9431  -19.4520    2.6095 C   0  0  1  0  0  0  0  0  0  0  0  0
   17.0850  -20.2959    2.1512 C   0  0  0  0  0  0  0  0  0  0  0  0
   16.5593  -21.4935    1.4603 C   0  0  0  0  0  0  0  0  0  0  0  0
   16.1313  -21.5505    0.1338 C   0  0  0  0  0  0  0  0  0  0  0  0
   15.7546  -22.7968   -0.1645 N   0  0  0  0  0  0  0  0  0  0  0  0
   15.9128  -23.5766    0.9102 C   0  0  0  0  0  0  0  0  0  0  0  0
   15.6672  -24.9179    1.1271 C   0  0  0  0  0  0  0  0  0  0  0  0
   15.8999  -25.5239    2.3449 C   0  0  0  0  0  0  0  0  0  0  0  0
   16.3958  -24.7257    3.3566 C   0  0  0  0  0  0  0  0  0  0  0  0
   16.6456  -23.3801    3.1493 C   0  0  0  0  0  0  0  0  0  0  0  0
   16.4112  -22.7831    1.9286 C   0  0  0  0  0  0  0  0  0  0  0  0
   16.3198  -18.4745    3.6512 C   0  0  0  0  0  0  0  0  0  0  0  0
   16.9006  -17.4212    3.2994 O   0  0  0  0  0  0  0  0  0  0  0  0
   16.0670  -18.6483    5.0337 N   0  0  0  0  0  0  0  0  0  0  0  0
   16.1852  -17.5440    5.9560 C   0  0  1  0  0  0  0  0  0  0  0  0
   15.0855  -17.5316    6.9827 C   0  0  0  0  0  0  0  0  0  0  0  0
   15.1408  -16.3527    7.9077 C   0  0  0  0  0  0  0  0  0  0  0  0
   14.0764  -16.3418    8.9522 C   0  0  0  0  0  0  0  0  0  0  0  0
   14.2741  -15.0798    9.7854 C   0  0  0  0  0  0  0  0  0  0  0  0
   13.2569  -14.9480   10.7999 N   0  0  0  0  0  0  0  0  0  0  0  0
   17.4743  -17.7016    6.7216 C   0  0  0  0  0  0  0  0  0  0  0  0
   17.8119  -18.8884    6.9802 O   0  0  0  0  0  0  0  0  0  0  0  0
   18.2445  -16.5825    7.1175 N   0  0  0  0  0  0  0  0  0  0  0  0
   19.3887  -16.7611    7.9766 C   0  0  1  0  0  0  0  0  0  0  0  0
   20.1301  -15.4259    8.0292 C   0  0  0  0  0  0  0  0  0  0  0  0
   21.3169  -15.5216    8.9033 C   0  0  0  0  0  0  0  0  0  0  0  0
   21.8061  -16.7041    9.4650 C   0  0  0  0  0  0  0  0  0  0  0  0
   22.8877  -16.3372   10.1815 N   0  0  0  0  0  0  0  0  0  0  0  0
   23.0784  -15.0140   10.0859 C   0  0  0  0  0  0  0  0  0  0  0  0
   22.1154  -14.5179    9.3029 N   0  0  0  0  0  0  0  0  0  0  0  0
   18.9643  -17.1770    9.3355 C   0  0  0  0  0  0  0  0  0  0  0  0
   17.9943  -16.4849   10.0742 O   0  0  0  0  0  0  0  0  0  0  0  0
   19.4647  -18.1831    9.8894 O   0  0  0  0  0  0  0  0  0  0  0  0
  2  1  1  6
  2 13  1  0
  2  3  1  0
  3  4  1  0
  4  5  2  0
  6  5  1  0
  7  6  1  0
  8  7  2  0
  9  8  1  0
 10  9  2  0
 10 11  1  0
 11 12  2  0
 12  7  1  0
 12  4  1  0
 13 14  2  0
 15 13  1  0
 16 22  1  0
 16 15  1  0
 16 17  1  1
 18 17  1  0
 19 18  1  0
 20 19  1  0
 21 20  1  0
 22 23  2  0
 24 25  1  0
 24 22  1  0
 25 32  1  0
 25 26  1  1
 27 26  1  0
 27 28  2  0
 29 28  1  0
 30 31  2  0
 30 29  1  0
 31 27  1  0
 32 34  2  0
 32 33  1  0
M  END
$$$$
