WKH.pdb
     RDKit          3D

 34 36  0  0  1  0  0  0  0  0999 V2000
   28.4933  -21.7304  -10.9746 N   0  0  0  0  0  0  0  0  0  0  0  0
   27.2297  -21.1915  -10.5388 C   0  0  1  0  0  0  0  0  0  0  0  0
   27.4597  -19.9544   -9.7371 C   0  0  0  0  0  0  0  0  0  0  0  0
   28.3579  -20.2677   -8.6044 C   0  0  0  0  0  0  0  0  0  0  0  0
   29.6343  -20.8218   -8.7018 C   0  0  0  0  0  0  0  0  0  0  0  0
   30.1703  -20.9347   -7.4836 N   0  0  0  0  0  0  0  0  0  0  0  0
   29.3028  -20.4786   -6.5739 C   0  0  0  0  0  0  0  0  0  0  0  0
   29.3662  -20.3833   -5.1980 C   0  0  0  0  0  0  0  0  0  0  0  0
   28.3264  -19.8786   -4.4440 C   0  0  0  0  0  0  0  0  0  0  0  0
   27.2004  -19.4653   -5.1279 C   0  0  0  0  0  0  0  0  0  0  0  0
   27.1270  -19.5563   -6.5071 C   0  0  0  0  0  0  0  0  0  0  0  0
   28.1714  -20.0610   -7.2528 C   0  0  0  0  0  0  0  0  0  0  0  0
   26.3612  -20.9734  -11.7139 C   0  0  0  0  0  0  0  0  0  0  0  0
   26.7465  -20.1768  -12.6014 O   0  0  0  0  0  0  0  0  0  0  0  0
   25.1108  -21.6093  -11.9077 N   0  0  0  0  0  0  0  0  0  0  0  0
   24.3224  -21.3550  -13.0900 C   0  0  1  0  0  0  0  0  0  0  0  0
   23.9680  -22.6175  -13.8277 C   0  0  0  0  0  0  0  0  0  0  0  0
   24.9190  -22.9516  -14.9378 C   0  0  0  0  0  0  0  0  0  0  0  0
   24.4977  -24.1082  -15.7797 C   0  0  0  0  0  0  0  0  0  0  0  0
   25.4751  -25.2463  -15.5053 C   0  0  0  0  0  0  0  0  0  0  0  0
   24.8064  -26.5242  -15.4698 N   0  0  0  0  0  0  0  0  0  0  0  0
   23.0158  -20.7350  -12.6644 C   0  0  0  0  0  0  0  0  0  0  0  0
   22.4311  -21.3042  -11.7034 O   0  0  0  0  0  0  0  0  0  0  0  0
   22.4921  -19.5898  -13.3098 N   0  0  0  0  0  0  0  0  0  0  0  0
   21.2594  -19.0013  -12.8479 C   0  0  1  0  0  0  0  0  0  0  0  0
   20.9825  -17.7805  -13.7244 C   0  0  0  0  0  0  0  0  0  0  0  0
   19.7446  -17.0990  -13.2946 C   0  0  0  0  0  0  0  0  0  0  0  0
   18.9569  -17.4788  -12.2045 C   0  0  0  0  0  0  0  0  0  0  0  0
   17.9389  -16.5953  -12.1755 N   0  0  0  0  0  0  0  0  0  0  0  0
   18.0649  -15.7120  -13.1756 C   0  0  0  0  0  0  0  0  0  0  0  0
   19.1710  -16.0231  -13.8586 N   0  0  0  0  0  0  0  0  0  0  0  0
   20.1453  -19.9759  -12.9425 C   0  0  0  0  0  0  0  0  0  0  0  0
   19.9430  -20.7928  -14.0638 O   0  0  0  0  0  0  0  0  0  0  0  0
   19.3240  -20.1116  -12.0064 O   0  0  0  0  0  0  0  0  0  0  0  0
  2  1  1  6
  2 13  1  0
  2  3  1  0
  3  4  1  0
  4  5  2  0
  6  5  1  0
  7  6  1  0
  8  7  2  0
  9  8  1  0
 10  9  2  0
 10 11  1  0
 11 12  2  0
 12  7  1  0
 12  4  1  0
 13 14  2  0
 15 13  1  0
 16 22  1  0
 16 15  1  0
 16 17  1  1
 18 17  1  0
 19 18  1  0
 20 19  1  0
 21 20  1  0
 22 23  2  0
 24 25  1  0
 24 22  1  0
 25 32  1  0
 25 26  1  6
 27 26  1  0
 27 28  2  0
 29 28  1  0
 30 31  2  0
 30 29  1  0
 31 27  1  0
 32 34  2  0
 32 33  1  0
M  END
$$$$
