WKH.pdb
     RDKit          3D

 34 36  0  0  1  0  0  0  0  0999 V2000
   26.1090  -21.7690   -8.5745 N   0  0  0  0  0  0  0  0  0  0  0  0
   26.4230  -20.4179   -8.9658 C   0  0  1  0  0  0  0  0  0  0  0  0
   27.8613  -20.1349   -8.6883 C   0  0  0  0  0  0  0  0  0  0  0  0
   28.1346  -20.3625   -7.2526 C   0  0  0  0  0  0  0  0  0  0  0  0
   28.4796  -21.5816   -6.6689 C   0  0  0  0  0  0  0  0  0  0  0  0
   28.6877  -21.4114   -5.3605 N   0  0  0  0  0  0  0  0  0  0  0  0
   28.4950  -20.1263   -5.0448 C   0  0  0  0  0  0  0  0  0  0  0  0
   28.5748  -19.4435   -3.8474 C   0  0  0  0  0  0  0  0  0  0  0  0
   28.3192  -18.0909   -3.7501 C   0  0  0  0  0  0  0  0  0  0  0  0
   27.9745  -17.4337   -4.9146 C   0  0  0  0  0  0  0  0  0  0  0  0
   27.8920  -18.1091   -6.1200 C   0  0  0  0  0  0  0  0  0  0  0  0
   28.1503  -19.4607   -6.2081 C   0  0  0  0  0  0  0  0  0  0  0  0
   26.0513  -20.2216  -10.3822 C   0  0  0  0  0  0  0  0  0  0  0  0
   26.2658  -19.1035  -10.9062 O   0  0  0  0  0  0  0  0  0  0  0  0
   25.4633  -21.2203  -11.1960 N   0  0  0  0  0  0  0  0  0  0  0  0
   25.3169  -21.0289  -12.6193 C   0  0  1  0  0  0  0  0  0  0  0  0
   25.1001  -22.3235  -13.3546 C   0  0  0  0  0  0  0  0  0  0  0  0
   25.1925  -22.1901  -14.8454 C   0  0  0  0  0  0  0  0  0  0  0  0
   26.5803  -22.0081  -15.3603 C   0  0  0  0  0  0  0  0  0  0  0  0
   26.4924  -21.9406  -16.8814 C   0  0  0  0  0  0  0  0  0  0  0  0
   27.7831  -21.6968  -17.4780 N   0  0  0  0  0  0  0  0  0  0  0  0
   24.0841  -20.1956  -12.8614 C   0  0  0  0  0  0  0  0  0  0  0  0
   24.2603  -19.1477  -13.5399 O   0  0  0  0  0  0  0  0  0  0  0  0
   22.8190  -20.5764  -12.3547 N   0  0  0  0  0  0  0  0  0  0  0  0
   21.6504  -20.4956  -13.1957 C   0  0  1  0  0  0  0  0  0  0  0  0
   21.8893  -21.4125  -14.3947 C   0  0  0  0  0  0  0  0  0  0  0  0
   22.0372  -20.6233  -15.6343 C   0  0  0  0  0  0  0  0  0  0  0  0
   21.0484  -20.4690  -16.6098 C   0  0  0  0  0  0  0  0  0  0  0  0
   21.6003  -19.6817  -17.5550 N   0  0  0  0  0  0  0  0  0  0  0  0
   22.8533  -19.3545  -17.2102 C   0  0  0  0  0  0  0  0  0  0  0  0
   23.1177  -19.9323  -16.0342 N   0  0  0  0  0  0  0  0  0  0  0  0
   20.4383  -20.9147  -12.4508 C   0  0  0  0  0  0  0  0  0  0  0  0
   19.2435  -20.1815  -12.4685 O   0  0  0  0  0  0  0  0  0  0  0  0
   20.4324  -21.9613  -11.7623 O   0  0  0  0  0  0  0  0  0  0  0  0
  2  1  1  6
  2 13  1  0
  2  3  1  0
  3  4  1  0
  4  5  2  0
  6  5  1  0
  7  6  1  0
  8  7  2  0
  9  8  1  0
 10  9  2  0
 10 11  1  0
 11 12  2  0
 12  7  1  0
 12  4  1  0
 13 14  2  0
 15 13  1  0
 16 22  1  0
 16 15  1  0
 16 17  1  6
 18 17  1  0
 19 18  1  0
 20 19  1  0
 21 20  1  0
 22 23  2  0
 24 25  1  0
 24 22  1  0
 25 32  1  0
 25 26  1  6
 27 26  1  0
 27 28  2  0
 29 28  1  0
 30 31  2  0
 30 29  1  0
 31 27  1  0
 32 34  2  0
 32 33  1  0
M  END
$$$$
