SNA.pdb
     RDKit          3D

 20 19  0  0  1  0  0  0  0  0999 V2000
    9.5245  -15.6877   18.8020 O   0  0  0  0  0  0  0  0  0  0  0  0
    9.8630  -15.0896   20.0111 C   0  0  0  0  0  0  0  0  0  0  0  0
    9.4871  -16.0087   21.1163 C   0  0  2  0  0  0  0  0  0  0  0  0
    8.3397  -16.8065   20.7832 N   0  0  0  0  0  0  0  0  0  0  0  0
    9.3604  -15.3199   22.4393 C   0  0  0  0  0  0  0  0  0  0  0  0
   10.3772  -14.6943   22.8248 O   0  0  0  0  0  0  0  0  0  0  0  0
    7.1644  -12.0546   25.7688 N   0  0  0  0  0  0  0  0  0  0  0  0
    6.3341  -13.2179   25.6244 C   0  0  0  0  0  0  0  0  0  0  0  0
    5.4446  -13.4065   26.5011 O   0  0  0  0  0  0  0  0  0  0  0  0
    6.5552  -14.1313   24.4776 C   0  0  0  0  0  0  0  0  0  0  0  0
    7.9953  -14.5601   24.3909 C   0  0  2  0  0  0  0  0  0  0  0  0
    8.1785  -15.3679   23.2049 N   0  0  0  0  0  0  0  0  0  0  0  0
    8.4463  -15.2952   25.6080 C   0  0  0  0  0  0  0  0  0  0  0  0
    8.4730  -14.8042   26.7534 O   0  0  0  0  0  0  0  0  0  0  0  0
    8.9853  -18.9014   26.1864 C   0  0  0  0  0  0  0  0  0  0  0  0
    9.3071  -17.4669   26.5954 C   0  0  2  0  0  0  0  0  0  0  0  0
    8.8735  -16.6389   25.4750 N   0  0  0  0  0  0  0  0  0  0  0  0
   10.7320  -17.3764   26.8560 C   0  0  0  0  0  0  0  0  0  0  0  0
   11.4959  -16.7087   26.1428 O   0  0  0  0  0  0  0  0  0  0  0  0
   11.2836  -18.0633   27.9536 O   0  0  0  0  0  0  0  0  0  0  0  0
  2  1  1  0
  3  2  1  0
  3  4  1  6
  5  3  1  0
  5  6  2  0
  8  7  1  0
  8 10  1  0
  9  8  2  0
 11 10  1  1
 11 12  1  0
 12  5  1  0
 13 11  1  0
 14 13  2  0
 16 15  1  6
 16 17  1  0
 17 13  1  0
 18 16  1  0
 18 20  1  0
 19 18  2  0
M  END
$$$$
