SNA.pdb
     RDKit          3D

 20 19  0  0  1  0  0  0  0  0999 V2000
   11.0389  -16.4356   13.0609 O   0  0  0  0  0  0  0  0  0  0  0  0
   10.2217  -15.7497   13.9531 C   0  0  0  0  0  0  0  0  0  0  0  0
    8.9057  -16.4368   14.0150 C   0  0  2  0  0  0  0  0  0  0  0  0
    8.1173  -16.1917   12.8393 N   0  0  0  0  0  0  0  0  0  0  0  0
    8.1621  -16.1737   15.2872 C   0  0  0  0  0  0  0  0  0  0  0  0
    7.3042  -15.2598   15.2351 O   0  0  0  0  0  0  0  0  0  0  0  0
    5.0186  -18.8141   17.6806 N   0  0  0  0  0  0  0  0  0  0  0  0
    6.4343  -18.8220   17.4369 C   0  0  0  0  0  0  0  0  0  0  0  0
    6.8527  -19.5308   16.4788 O   0  0  0  0  0  0  0  0  0  0  0  0
    7.3262  -18.0170   18.3057 C   0  0  0  0  0  0  0  0  0  0  0  0
    7.6434  -16.6861   17.6785 C   0  0  2  0  0  0  0  0  0  0  0  0
    8.4060  -16.9023   16.4683 N   0  0  0  0  0  0  0  0  0  0  0  0
    8.3721  -15.7757   18.6089 C   0  0  0  0  0  0  0  0  0  0  0  0
    9.5451  -15.9560   18.9898 O   0  0  0  0  0  0  0  0  0  0  0  0
    7.2033  -12.6657   20.3414 C   0  0  0  0  0  0  0  0  0  0  0  0
    8.2817  -13.7140   20.0830 C   0  0  2  0  0  0  0  0  0  0  0  0
    7.7063  -14.6265   19.1005 N   0  0  0  0  0  0  0  0  0  0  0  0
    8.6019  -14.3582   21.3436 C   0  0  0  0  0  0  0  0  0  0  0  0
    8.0692  -15.4198   21.7003 O   0  0  0  0  0  0  0  0  0  0  0  0
    9.5491  -13.7719   22.2037 O   0  0  0  0  0  0  0  0  0  0  0  0
  2  1  1  0
  3  2  1  0
  3  4  1  6
  5  3  1  0
  5  6  2  0
  8  7  1  0
  8 10  1  0
  9  8  2  0
 11 10  1  1
 11 12  1  0
 12  5  1  0
 13 11  1  0
 14 13  2  0
 16 15  1  1
 16 17  1  0
 17 13  1  0
 18 16  1  0
 18 20  1  0
 19 18  2  0
M  END
$$$$
