SNA.pdb
     RDKit          3D

 20 19  0  0  1  0  0  0  0  0999 V2000
    8.2847  -14.3459   16.4705 O   0  0  0  0  0  0  0  0  0  0  0  0
    8.7143  -14.6783   17.7508 C   0  0  0  0  0  0  0  0  0  0  0  0
    8.0620  -13.7627   18.7223 C   0  0  2  0  0  0  0  0  0  0  0  0
    8.4291  -12.3922   18.4968 N   0  0  0  0  0  0  0  0  0  0  0  0
    8.2364  -14.1916   20.1459 C   0  0  0  0  0  0  0  0  0  0  0  0
    9.1870  -13.6529   20.7622 O   0  0  0  0  0  0  0  0  0  0  0  0
    7.7585  -16.5509   24.6745 N   0  0  0  0  0  0  0  0  0  0  0  0
    6.4934  -16.7134   24.0137 C   0  0  0  0  0  0  0  0  0  0  0  0
    5.5744  -17.2930   24.6576 O   0  0  0  0  0  0  0  0  0  0  0  0
    6.3254  -16.2073   22.6302 C   0  0  0  0  0  0  0  0  0  0  0  0
    7.6000  -15.5954   22.1141 C   0  0  2  0  0  0  0  0  0  0  0  0
    7.3906  -15.1380   20.7578 N   0  0  0  0  0  0  0  0  0  0  0  0
    8.7545  -16.5375   22.1838 C   0  0  0  0  0  0  0  0  0  0  0  0
    8.8529  -17.5766   21.5025 O   0  0  0  0  0  0  0  0  0  0  0  0
   12.1719  -16.3771   22.7896 C   0  0  0  0  0  0  0  0  0  0  0  0
   10.9518  -17.1401   23.2976 C   0  0  2  0  0  0  0  0  0  0  0  0
    9.8180  -16.2495   23.0735 N   0  0  0  0  0  0  0  0  0  0  0  0
   11.1631  -17.4560   24.6984 C   0  0  0  0  0  0  0  0  0  0  0  0
   10.4298  -17.0148   25.5960 O   0  0  0  0  0  0  0  0  0  0  0  0
   12.2326  -18.2923   25.0694 O   0  0  0  0  0  0  0  0  0  0  0  0
  2  1  1  0
  3  2  1  0
  3  4  1  1
  5  3  1  0
  5  6  2  0
  8  7  1  0
  8 10  1  0
  9  8  2  0
 11 10  1  6
 11 12  1  0
 12  5  1  0
 13 11  1  0
 14 13  2  0
 16 15  1  1
 16 17  1  0
 17 13  1  0
 18 16  1  0
 18 20  1  0
 19 18  2  0
M  END
$$$$
