SNA.pdb
     RDKit          3D

 20 19  0  0  1  0  0  0  0  0999 V2000
    7.4131  -17.6136   18.1516 O   0  0  0  0  0  0  0  0  0  0  0  0
    7.0312  -17.8605   19.4659 C   0  0  0  0  0  0  0  0  0  0  0  0
    7.2464  -16.6247   20.2623 C   0  0  2  0  0  0  0  0  0  0  0  0
    8.0219  -15.6522   19.5435 N   0  0  0  0  0  0  0  0  0  0  0  0
    7.7698  -16.8935   21.6387 C   0  0  0  0  0  0  0  0  0  0  0  0
    7.0907  -17.6888   22.3317 O   0  0  0  0  0  0  0  0  0  0  0  0
   12.0225  -17.8870   21.4425 N   0  0  0  0  0  0  0  0  0  0  0  0
   11.2304  -18.0021   22.6353 C   0  0  0  0  0  0  0  0  0  0  0  0
   10.8327  -19.1570   22.9567 O   0  0  0  0  0  0  0  0  0  0  0  0
   10.9165  -16.7840   23.4202 C   0  0  0  0  0  0  0  0  0  0  0  0
    9.4332  -16.5338   23.4700 C   0  0  2  0  0  0  0  0  0  0  0  0
    8.9477  -16.2950   22.1283 N   0  0  0  0  0  0  0  0  0  0  0  0
    9.0752  -15.4015   24.3728 C   0  0  0  0  0  0  0  0  0  0  0  0
    9.5245  -15.2562   25.5263 O   0  0  0  0  0  0  0  0  0  0  0  0
    7.1203  -12.2969   23.7045 C   0  0  0  0  0  0  0  0  0  0  0  0
    7.7356  -13.2735   24.7026 C   0  0  2  0  0  0  0  0  0  0  0  0
    8.1699  -14.4170   23.9073 N   0  0  0  0  0  0  0  0  0  0  0  0
    6.7264  -13.6128   25.6891 C   0  0  0  0  0  0  0  0  0  0  0  0
    6.2017  -14.7352   25.7424 O   0  0  0  0  0  0  0  0  0  0  0  0
    6.3174  -12.6463   26.6269 O   0  0  0  0  0  0  0  0  0  0  0  0
  2  1  1  0
  3  2  1  0
  3  4  1  6
  5  3  1  0
  5  6  2  0
  8  7  1  0
  8 10  1  0
  9  8  2  0
 11 10  1  6
 11 12  1  0
 12  5  1  0
 13 11  1  0
 14 13  2  0
 16 15  1  6
 16 17  1  0
 17 13  1  0
 18 16  1  0
 18 20  1  0
 19 18  2  0
M  END
$$$$
