SNA.pdb
     RDKit          3D

 20 19  0  0  1  0  0  0  0  0999 V2000
   12.0808  -16.6248   15.1500 O   0  0  0  0  0  0  0  0  0  0  0  0
   12.6342  -17.7105   15.8201 C   0  0  0  0  0  0  0  0  0  0  0  0
   12.3292  -17.5793   17.2684 C   0  0  2  0  0  0  0  0  0  0  0  0
   11.0561  -16.9528   17.4934 N   0  0  0  0  0  0  0  0  0  0  0  0
   13.4402  -16.9513   18.0508 C   0  0  0  0  0  0  0  0  0  0  0  0
   14.5356  -17.5622   18.0236 O   0  0  0  0  0  0  0  0  0  0  0  0
   16.9297  -13.9495   18.1019 N   0  0  0  0  0  0  0  0  0  0  0  0
   15.5219  -13.7703   17.8789 C   0  0  0  0  0  0  0  0  0  0  0  0
   15.1394  -13.6217   16.6844 O   0  0  0  0  0  0  0  0  0  0  0  0
   14.5972  -13.7636   19.0379 C   0  0  0  0  0  0  0  0  0  0  0  0
   14.3429  -15.1590   19.5415 C   0  0  2  0  0  0  0  0  0  0  0  0
   13.2715  -15.7526   18.7719 N   0  0  0  0  0  0  0  0  0  0  0  0
   14.0294  -15.1913   20.9996 C   0  0  0  0  0  0  0  0  0  0  0  0
   14.7941  -14.7718   21.8900 O   0  0  0  0  0  0  0  0  0  0  0  0
   10.8297  -15.6166   22.7578 C   0  0  0  0  0  0  0  0  0  0  0  0
   12.3478  -15.7626   22.8100 C   0  0  2  0  0  0  0  0  0  0  0  0
   12.7876  -15.7275   21.4193 N   0  0  0  0  0  0  0  0  0  0  0  0
   12.6623  -17.0121   23.4782 C   0  0  0  0  0  0  0  0  0  0  0  0
   13.0781  -18.0064   22.8645 O   0  0  0  0  0  0  0  0  0  0  0  0
   12.4968  -17.1167   24.8719 O   0  0  0  0  0  0  0  0  0  0  0  0
  2  1  1  0
  3  2  1  0
  3  4  1  6
  5  3  1  0
  5  6  2  0
  8  7  1  0
  8 10  1  0
  9  8  2  0
 11 10  1  6
 11 12  1  0
 12  5  1  0
 13 11  1  0
 14 13  2  0
 16 15  1  6
 16 17  1  0
 17 13  1  0
 18 16  1  0
 18 20  1  0
 19 18  2  0
M  END
$$$$
