SNA.pdb
     RDKit          3D

 20 19  0  0  1  0  0  0  0  0999 V2000
    7.7541  -12.8855   16.2421 O   0  0  0  0  0  0  0  0  0  0  0  0
    8.3412  -13.5256   17.3282 C   0  0  0  0  0  0  0  0  0  0  0  0
    9.3552  -14.4860   16.8211 C   0  0  2  0  0  0  0  0  0  0  0  0
    8.7738  -15.4682   15.9486 N   0  0  0  0  0  0  0  0  0  0  0  0
   10.1940  -15.0860   17.9061 C   0  0  0  0  0  0  0  0  0  0  0  0
   10.0116  -16.3088   18.1193 O   0  0  0  0  0  0  0  0  0  0  0  0
   14.6430  -15.9777   18.4334 N   0  0  0  0  0  0  0  0  0  0  0  0
   14.1307  -14.6371   18.4957 C   0  0  0  0  0  0  0  0  0  0  0  0
   14.4182  -13.8626   17.5403 O   0  0  0  0  0  0  0  0  0  0  0  0
   13.3062  -14.2270   19.6577 C   0  0  0  0  0  0  0  0  0  0  0  0
   11.9731  -14.9257   19.6550 C   0  0  2  0  0  0  0  0  0  0  0  0
   11.1285  -14.3310   18.6422 N   0  0  0  0  0  0  0  0  0  0  0  0
   11.3069  -14.8896   20.9892 C   0  0  0  0  0  0  0  0  0  0  0  0
   11.7713  -15.4168   22.0187 O   0  0  0  0  0  0  0  0  0  0  0  0
    8.1417  -13.2120   22.0751 C   0  0  0  0  0  0  0  0  0  0  0  0
    9.2739  -14.2003   22.3398 C   0  0  2  0  0  0  0  0  0  0  0  0
   10.0673  -14.2163   21.1154 N   0  0  0  0  0  0  0  0  0  0  0  0
    8.6879  -15.4893   22.6587 C   0  0  0  0  0  0  0  0  0  0  0  0
    8.1013  -15.7046   23.7299 O   0  0  0  0  0  0  0  0  0  0  0  0
    8.7781  -16.5434   21.7306 O   0  0  0  0  0  0  0  0  0  0  0  0
  2  1  1  0
  3  2  1  0
  3  4  1  1
  5  3  1  0
  5  6  2  0
  8  7  1  0
  8 10  1  0
  9  8  2  0
 11 10  1  1
 11 12  1  0
 12  5  1  0
 13 11  1  0
 14 13  2  0
 16 15  1  6
 16 17  1  0
 17 13  1  0
 18 16  1  0
 18 20  1  0
 19 18  2  0
M  END
$$$$
