SNA.pdb
     RDKit          3D

 20 19  0  0  1  0  0  0  0  0999 V2000
    8.5583  -12.2864   17.3544 O   0  0  0  0  0  0  0  0  0  0  0  0
    8.3989  -13.1874   18.4018 C   0  0  0  0  0  0  0  0  0  0  0  0
    8.8203  -14.5342   17.9369 C   0  0  2  0  0  0  0  0  0  0  0  0
    7.9422  -15.0505   16.9239 N   0  0  0  0  0  0  0  0  0  0  0  0
    9.0562  -15.4981   19.0577 C   0  0  0  0  0  0  0  0  0  0  0  0
    8.0585  -16.1697   19.4146 O   0  0  0  0  0  0  0  0  0  0  0  0
   11.1060  -19.6081   19.8657 N   0  0  0  0  0  0  0  0  0  0  0  0
   11.6651  -18.3299   19.5234 C   0  0  0  0  0  0  0  0  0  0  0  0
   12.0105  -18.1525   18.3216 O   0  0  0  0  0  0  0  0  0  0  0  0
   11.8135  -17.2958   20.5755 C   0  0  0  0  0  0  0  0  0  0  0  0
   10.5269  -16.5441   20.7875 C   0  0  2  0  0  0  0  0  0  0  0  0
   10.3145  -15.6451   19.6743 N   0  0  0  0  0  0  0  0  0  0  0  0
   10.5065  -15.8009   22.0807 C   0  0  0  0  0  0  0  0  0  0  0  0
   11.3747  -14.9773   22.4292 O   0  0  0  0  0  0  0  0  0  0  0  0
    7.8304  -15.1632   24.4987 C   0  0  0  0  0  0  0  0  0  0  0  0
    9.3255  -15.3827   24.2858 C   0  0  2  0  0  0  0  0  0  0  0  0
    9.4395  -16.0303   22.9833 N   0  0  0  0  0  0  0  0  0  0  0  0
    9.8257  -16.1992   25.3765 C   0  0  0  0  0  0  0  0  0  0  0  0
   10.1178  -17.3955   25.2299 O   0  0  0  0  0  0  0  0  0  0  0  0
    9.9928  -15.6292   26.6524 O   0  0  0  0  0  0  0  0  0  0  0  0
  2  1  1  0
  3  2  1  0
  3  4  1  6
  5  3  1  0
  5  6  2  0
  8  7  1  0
  8 10  1  0
  9  8  2  0
 11 10  1  6
 11 12  1  0
 12  5  1  0
 13 11  1  0
 14 13  2  0
 16 15  1  1
 16 17  1  0
 17 13  1  0
 18 16  1  0
 18 20  1  0
 19 18  2  0
M  END
$$$$
