SNA.pdb
     RDKit          3D

 20 19  0  0  1  0  0  0  0  0999 V2000
   16.7960  -18.2355   14.7577 O   0  0  0  0  0  0  0  0  0  0  0  0
   16.0743  -17.8800   13.6233 C   0  0  0  0  0  0  0  0  0  0  0  0
   15.7142  -16.4418   13.7219 C   0  0  2  0  0  0  0  0  0  0  0  0
   16.8613  -15.5904   13.5700 N   0  0  0  0  0  0  0  0  0  0  0  0
   14.8992  -16.1196   14.9356 C   0  0  0  0  0  0  0  0  0  0  0  0
   15.3714  -15.2323   15.6862 O   0  0  0  0  0  0  0  0  0  0  0  0
    9.8726  -18.2558   16.9844 N   0  0  0  0  0  0  0  0  0  0  0  0
   10.9820  -17.9805   16.1144 C   0  0  0  0  0  0  0  0  0  0  0  0
   11.5834  -18.9712   15.6122 O   0  0  0  0  0  0  0  0  0  0  0  0
   11.3684  -16.5734   15.8516 C   0  0  0  0  0  0  0  0  0  0  0  0
   12.7914  -16.3115   16.2660 C   0  0  2  0  0  0  0  0  0  0  0  0
   13.6809  -16.7676   15.2203 N   0  0  0  0  0  0  0  0  0  0  0  0
   13.1334  -16.9513   17.5694 C   0  0  0  0  0  0  0  0  0  0  0  0
   12.5813  -16.6743   18.6520 O   0  0  0  0  0  0  0  0  0  0  0  0
   14.3960  -20.1098   18.5319 C   0  0  0  0  0  0  0  0  0  0  0  0
   14.5792  -18.6216   18.8152 C   0  0  2  0  0  0  0  0  0  0  0  0
   14.1464  -17.9405   17.5996 N   0  0  0  0  0  0  0  0  0  0  0  0
   15.9752  -18.3876   19.1361 C   0  0  0  0  0  0  0  0  0  0  0  0
   16.4746  -18.7340   20.2170 O   0  0  0  0  0  0  0  0  0  0  0  0
   16.8067  -17.7471   18.1985 O   0  0  0  0  0  0  0  0  0  0  0  0
  2  1  1  0
  3  2  1  0
  3  4  1  1
  5  3  1  0
  5  6  2  0
  8  7  1  0
  8 10  1  0
  9  8  2  0
 11 10  1  6
 11 12  1  0
 12  5  1  0
 13 11  1  0
 14 13  2  0
 16 15  1  6
 16 17  1  0
 17 13  1  0
 18 16  1  0
 18 20  1  0
 19 18  2  0
M  END
$$$$
