SNA.pdb
     RDKit          3D

 20 19  0  0  1  0  0  0  0  0999 V2000
   10.4585  -18.4558   17.5228 O   0  0  0  0  0  0  0  0  0  0  0  0
   10.5461  -19.4656   16.5705 C   0  0  0  0  0  0  0  0  0  0  0  0
    9.6645  -20.5871   16.9864 C   0  0  2  0  0  0  0  0  0  0  0  0
    8.2775  -20.2133   16.9693 N   0  0  0  0  0  0  0  0  0  0  0  0
   10.0865  -21.2228   18.2743 C   0  0  0  0  0  0  0  0  0  0  0  0
    9.2589  -21.1458   19.2140 O   0  0  0  0  0  0  0  0  0  0  0  0
   12.5239  -25.6244   20.7420 N   0  0  0  0  0  0  0  0  0  0  0  0
   13.1278  -24.3337   20.5604 C   0  0  0  0  0  0  0  0  0  0  0  0
   13.9272  -23.9378   21.4546 O   0  0  0  0  0  0  0  0  0  0  0  0
   12.7905  -23.5358   19.3572 C   0  0  0  0  0  0  0  0  0  0  0  0
   11.7099  -22.5309   19.6538 C   0  0  2  0  0  0  0  0  0  0  0  0
   11.3305  -21.8668   18.4259 N   0  0  0  0  0  0  0  0  0  0  0  0
   12.1220  -21.5381   20.6881 C   0  0  0  0  0  0  0  0  0  0  0  0
   12.9158  -20.5996   20.4814 O   0  0  0  0  0  0  0  0  0  0  0  0
   10.5831  -20.6580   23.9034 C   0  0  0  0  0  0  0  0  0  0  0  0
   11.8589  -20.7003   23.0673 C   0  0  2  0  0  0  0  0  0  0  0  0
   11.5867  -21.6508   21.9944 N   0  0  0  0  0  0  0  0  0  0  0  0
   12.9542  -21.1076   23.9283 C   0  0  0  0  0  0  0  0  0  0  0  0
   13.6159  -20.2938   24.5900 O   0  0  0  0  0  0  0  0  0  0  0  0
   13.2904  -22.4705   24.0288 O   0  0  0  0  0  0  0  0  0  0  0  0
  2  1  1  0
  3  2  1  0
  3  4  1  1
  5  3  1  0
  5  6  2  0
  8  7  1  0
  8 10  1  0
  9  8  2  0
 11 10  1  6
 11 12  1  0
 12  5  1  0
 13 11  1  0
 14 13  2  0
 16 15  1  1
 16 17  1  0
 17 13  1  0
 18 16  1  0
 18 20  1  0
 19 18  2  0
M  END
$$$$
