SNA.pdb
     RDKit          3D

 20 19  0  0  1  0  0  0  0  0999 V2000
    6.8917  -21.3579   22.1818 O   0  0  0  0  0  0  0  0  0  0  0  0
    6.5336  -20.6598   23.3301 C   0  0  0  0  0  0  0  0  0  0  0  0
    7.4746  -19.5235   23.5068 C   0  0  2  0  0  0  0  0  0  0  0  0
    8.8323  -19.9042   23.2315 N   0  0  0  0  0  0  0  0  0  0  0  0
    7.3149  -18.8241   24.8206 C   0  0  0  0  0  0  0  0  0  0  0  0
    6.1569  -18.4184   25.0820 O   0  0  0  0  0  0  0  0  0  0  0  0
    8.0631  -21.2390   28.0419 N   0  0  0  0  0  0  0  0  0  0  0  0
    7.6326  -19.8845   28.2506 C   0  0  0  0  0  0  0  0  0  0  0  0
    6.4201  -19.7030   28.5544 O   0  0  0  0  0  0  0  0  0  0  0  0
    8.6095  -18.7795   28.0995 C   0  0  0  0  0  0  0  0  0  0  0  0
    8.2503  -17.8877   26.9415 C   0  0  2  0  0  0  0  0  0  0  0  0
    8.3915  -18.6318   25.7089 N   0  0  0  0  0  0  0  0  0  0  0  0
    9.0691  -16.6414   26.9053 C   0  0  0  0  0  0  0  0  0  0  0  0
   10.3060  -16.6199   26.7529 O   0  0  0  0  0  0  0  0  0  0  0  0
    8.1787  -13.2095   27.9534 C   0  0  0  0  0  0  0  0  0  0  0  0
    9.1215  -14.1198   27.1717 C   0  0  2  0  0  0  0  0  0  0  0  0
    8.4178  -15.3921   27.0497 N   0  0  0  0  0  0  0  0  0  0  0  0
   10.3683  -14.2238   27.9076 C   0  0  0  0  0  0  0  0  0  0  0  0
   10.6782  -15.2398   28.5477 O   0  0  0  0  0  0  0  0  0  0  0  0
   11.2701  -13.1433   27.9047 O   0  0  0  0  0  0  0  0  0  0  0  0
  2  1  1  0
  3  2  1  0
  3  4  1  1
  5  3  1  0
  5  6  2  0
  8  7  1  0
  8 10  1  0
  9  8  2  0
 11 10  1  1
 11 12  1  0
 12  5  1  0
 13 11  1  0
 14 13  2  0
 16 15  1  1
 16 17  1  0
 17 13  1  0
 18 16  1  0
 18 20  1  0
 19 18  2  0
M  END
$$$$
