SNA.pdb
     RDKit          3D

 20 19  0  0  1  0  0  0  0  0999 V2000
   10.2693  -19.9008   20.6580 O   0  0  0  0  0  0  0  0  0  0  0  0
    9.3006  -18.9029   20.6538 C   0  0  0  0  0  0  0  0  0  0  0  0
    9.9760  -17.5872   20.5104 C   0  0  2  0  0  0  0  0  0  0  0  0
   10.7211  -17.4980   19.2853 N   0  0  0  0  0  0  0  0  0  0  0  0
   10.7761  -17.2004   21.7149 C   0  0  0  0  0  0  0  0  0  0  0  0
   11.5584  -16.2321   21.5585 O   0  0  0  0  0  0  0  0  0  0  0  0
   12.5030  -15.1482   25.9343 N   0  0  0  0  0  0  0  0  0  0  0  0
   11.1213  -15.5130   25.7878 C   0  0  0  0  0  0  0  0  0  0  0  0
   10.3766  -15.3769   26.7989 O   0  0  0  0  0  0  0  0  0  0  0  0
   10.6392  -16.0270   24.4834 C   0  0  0  0  0  0  0  0  0  0  0  0
   11.2509  -17.3645   24.1638 C   0  0  2  0  0  0  0  0  0  0  0  0
   10.6615  -17.8763   22.9459 N   0  0  0  0  0  0  0  0  0  0  0  0
   11.0979  -18.3433   25.2790 C   0  0  0  0  0  0  0  0  0  0  0  0
   10.0049  -18.6620   25.7864 O   0  0  0  0  0  0  0  0  0  0  0  0
   13.6118  -20.6597   26.7675 C   0  0  0  0  0  0  0  0  0  0  0  0
   12.2238  -20.0265   26.8058 C   0  0  2  0  0  0  0  0  0  0  0  0
   12.2565  -18.9627   25.8078 N   0  0  0  0  0  0  0  0  0  0  0  0
   11.9818  -19.5410   28.1520 C   0  0  0  0  0  0  0  0  0  0  0  0
   11.5887  -20.2832   29.0644 O   0  0  0  0  0  0  0  0  0  0  0  0
   12.1969  -18.1826   28.4509 O   0  0  0  0  0  0  0  0  0  0  0  0
  2  1  1  0
  3  2  1  0
  3  4  1  6
  5  3  1  0
  5  6  2  0
  8  7  1  0
  8 10  1  0
  9  8  2  0
 11 10  1  1
 11 12  1  0
 12  5  1  0
 13 11  1  0
 14 13  2  0
 16 15  1  1
 16 17  1  0
 17 13  1  0
 18 16  1  0
 18 20  1  0
 19 18  2  0
M  END
$$$$
