SNA.pdb
     RDKit          3D

 20 19  0  0  1  0  0  0  0  0999 V2000
    8.3111  -13.7887   19.7296 O   0  0  0  0  0  0  0  0  0  0  0  0
    8.8882  -12.9726   18.7627 C   0  0  0  0  0  0  0  0  0  0  0  0
    9.6306  -13.8285   17.8014 C   0  0  2  0  0  0  0  0  0  0  0  0
    8.7438  -14.5682   16.9468 N   0  0  0  0  0  0  0  0  0  0  0  0
   10.6688  -14.6861   18.4551 C   0  0  0  0  0  0  0  0  0  0  0  0
   10.4642  -15.9226   18.4001 O   0  0  0  0  0  0  0  0  0  0  0  0
   14.7531  -13.6141   17.0922 N   0  0  0  0  0  0  0  0  0  0  0  0
   14.5520  -14.7093   17.9997 C   0  0  0  0  0  0  0  0  0  0  0  0
   14.7103  -15.8761   17.5427 O   0  0  0  0  0  0  0  0  0  0  0  0
   14.1709  -14.4289   19.4048 C   0  0  0  0  0  0  0  0  0  0  0  0
   12.8053  -14.9776   19.7200 C   0  0  2  0  0  0  0  0  0  0  0  0
   11.8033  -14.1447   19.0915 N   0  0  0  0  0  0  0  0  0  0  0  0
   12.5590  -15.0877   21.1872 C   0  0  0  0  0  0  0  0  0  0  0  0
   13.4461  -14.9816   22.0563 O   0  0  0  0  0  0  0  0  0  0  0  0
    9.3719  -15.3281   23.1086 C   0  0  0  0  0  0  0  0  0  0  0  0
   10.8857  -15.5101   23.0456 C   0  0  2  0  0  0  0  0  0  0  0  0
   11.2392  -15.3260   21.6420 N   0  0  0  0  0  0  0  0  0  0  0  0
   11.2065  -16.8336   23.5475 C   0  0  0  0  0  0  0  0  0  0  0  0
   11.0555  -17.1463   24.7381 O   0  0  0  0  0  0  0  0  0  0  0  0
   11.7067  -17.8098   22.6657 O   0  0  0  0  0  0  0  0  0  0  0  0
  2  1  1  0
  3  2  1  0
  3  4  1  1
  5  3  1  0
  5  6  2  0
  8  7  1  0
  8 10  1  0
  9  8  2  0
 11 10  1  1
 11 12  1  0
 12  5  1  0
 13 11  1  0
 14 13  2  0
 16 15  1  6
 16 17  1  0
 17 13  1  0
 18 16  1  0
 18 20  1  0
 19 18  2  0
M  END
$$$$
