SNA.pdb
     RDKit          3D

 20 19  0  0  1  0  0  0  0  0999 V2000
    8.6060  -18.4151   20.1867 O   0  0  0  0  0  0  0  0  0  0  0  0
    7.8609  -18.1372   19.0457 C   0  0  0  0  0  0  0  0  0  0  0  0
    8.6638  -17.2567   18.1581 C   0  0  2  0  0  0  0  0  0  0  0  0
    9.7334  -17.9719   17.5190 N   0  0  0  0  0  0  0  0  0  0  0  0
    9.1168  -15.9977   18.8292 C   0  0  0  0  0  0  0  0  0  0  0  0
    9.8161  -15.2294   18.1260 O   0  0  0  0  0  0  0  0  0  0  0  0
    9.7353  -13.0902   18.4269 N   0  0  0  0  0  0  0  0  0  0  0  0
    8.3292  -12.9227   18.6682 C   0  0  0  0  0  0  0  0  0  0  0  0
    7.6784  -12.2275   17.8385 O   0  0  0  0  0  0  0  0  0  0  0  0
    7.7151  -13.5570   19.8594 C   0  0  0  0  0  0  0  0  0  0  0  0
    8.7341  -14.3305   20.6523 C   0  0  2  0  0  0  0  0  0  0  0  0
    8.7819  -15.6910   20.1630 N   0  0  0  0  0  0  0  0  0  0  0  0
    8.4573  -14.3035   22.1179 C   0  0  0  0  0  0  0  0  0  0  0  0
    8.3425  -13.2601   22.7900 O   0  0  0  0  0  0  0  0  0  0  0  0
    7.2202  -16.7738   24.5124 C   0  0  0  0  0  0  0  0  0  0  0  0
    8.2089  -15.6393   24.2593 C   0  0  2  0  0  0  0  0  0  0  0  0
    8.3105  -15.5315   22.8078 N   0  0  0  0  0  0  0  0  0  0  0  0
    9.4671  -15.9811   24.8971 C   0  0  0  0  0  0  0  0  0  0  0  0
   10.4936  -16.2315   24.2478 O   0  0  0  0  0  0  0  0  0  0  0  0
    9.5436  -16.0339   26.3014 O   0  0  0  0  0  0  0  0  0  0  0  0
  2  1  1  0
  3  2  1  0
  3  4  1  1
  5  3  1  0
  5  6  2  0
  8  7  1  0
  8 10  1  0
  9  8  2  0
 11 10  1  6
 11 12  1  0
 12  5  1  0
 13 11  1  0
 14 13  2  0
 16 15  1  6
 16 17  1  0
 17 13  1  0
 18 16  1  0
 18 20  1  0
 19 18  2  0
M  END
$$$$
