CPG.pdb
     RDKit          3D

 18 18  0  0  1  0  0  0  0  0999 V2000
   26.0262  -21.0240  -10.8252 N   0  0  0  0  0  0  0  0  0  0  0  0
   26.2766  -20.9370  -12.2641 C   0  0  1  0  0  0  0  0  0  0  0  0
   25.9139  -22.3169  -12.8219 C   0  0  0  0  0  0  0  0  0  0  0  0
   26.2604  -22.2277  -14.6172 S   0  0  0  0  0  0  0  0  0  0  0  0
   25.4663  -19.8665  -12.8697 C   0  0  0  0  0  0  0  0  0  0  0  0
   24.2941  -19.6169  -12.4297 O   0  0  0  0  0  0  0  0  0  0  0  0
   25.9852  -19.1101  -13.9419 N   0  0  0  0  0  0  0  0  0  0  0  0
   27.2577  -19.2288  -14.5818 C   0  0  0  0  0  0  0  0  0  0  0  0
   27.6648  -17.8036  -14.9134 C   0  0  0  0  0  0  0  0  0  0  0  0
   26.3387  -17.1190  -15.1917 C   0  0  0  0  0  0  0  0  0  0  0  0
   25.2902  -18.0215  -14.6251 C   0  0  1  0  0  0  0  0  0  0  0  0
   24.4806  -18.5524  -15.7395 C   0  0  0  0  0  0  0  0  0  0  0  0
   24.8352  -19.6125  -16.2959 O   0  0  0  0  0  0  0  0  0  0  0  0
   23.3145  -17.9023  -16.2015 N   0  0  0  0  0  0  0  0  0  0  0  0
   22.2173  -17.6177  -15.3068 C   0  0  0  0  0  0  0  0  0  0  0  0
   21.2411  -18.7360  -15.2529 C   0  0  0  0  0  0  0  0  0  0  0  0
   21.5806  -19.8727  -14.5394 O   0  0  0  0  0  0  0  0  0  0  0  0
   20.1362  -18.6623  -15.8348 O   0  0  0  0  0  0  0  0  0  0  0  0
  2  1  1  1
  2  3  1  0
  3  4  1  0
  5  6  2  0
  5  2  1  0
  7  5  1  0
  8  7  1  0
  9  8  1  0
 10  9  1  0
 10 11  1  0
 11 12  1  6
 11  7  1  0
 12 13  2  0
 14 12  1  0
 14 15  1  0
 15 16  1  0
 16 18  2  0
 16 17  1  0
M  END
$$$$
