CPG.pdb
     RDKit          3D

 18 18  0  0  1  0  0  0  0  0999 V2000
   25.8348  -20.5040   -9.7209 N   0  0  0  0  0  0  0  0  0  0  0  0
   26.6275  -20.2461  -10.9232 C   0  0  1  0  0  0  0  0  0  0  0  0
   27.2856  -21.5856  -11.2689 C   0  0  0  0  0  0  0  0  0  0  0  0
   28.8743  -21.6017  -10.3594 S   0  0  0  0  0  0  0  0  0  0  0  0
   25.7711  -19.7538  -12.0157 C   0  0  0  0  0  0  0  0  0  0  0  0
   24.5073  -19.6682  -11.8565 O   0  0  0  0  0  0  0  0  0  0  0  0
   26.3470  -19.3731  -13.2463 N   0  0  0  0  0  0  0  0  0  0  0  0
   27.7063  -19.4983  -13.6701 C   0  0  0  0  0  0  0  0  0  0  0  0
   27.9769  -18.2517  -14.4943 C   0  0  0  0  0  0  0  0  0  0  0  0
   26.6328  -17.9616  -15.1377 C   0  0  0  0  0  0  0  0  0  0  0  0
   25.6322  -18.7558  -14.3611 C   0  0  1  0  0  0  0  0  0  0  0  0
   25.0731  -19.7953  -15.2476 C   0  0  0  0  0  0  0  0  0  0  0  0
   25.8172  -20.7134  -15.6507 O   0  0  0  0  0  0  0  0  0  0  0  0
   23.7213  -19.7895  -15.6584 N   0  0  0  0  0  0  0  0  0  0  0  0
   22.8426  -20.8906  -15.3410 C   0  0  0  0  0  0  0  0  0  0  0  0
   21.4506  -20.6376  -15.7938 C   0  0  0  0  0  0  0  0  0  0  0  0
   21.0481  -21.1628  -17.0098 O   0  0  0  0  0  0  0  0  0  0  0  0
   20.6537  -19.9676  -15.1005 O   0  0  0  0  0  0  0  0  0  0  0  0
  2  1  1  1
  2  3  1  0
  3  4  1  0
  5  6  2  0
  5  2  1  0
  7  5  1  0
  8  7  1  0
  9  8  1  0
 10  9  1  0
 10 11  1  0
 11 12  1  6
 11  7  1  0
 12 13  2  0
 14 12  1  0
 14 15  1  0
 15 16  1  0
 16 18  2  0
 16 17  1  0
M  END
$$$$
