CPG.pdb
     RDKit          3D

 18 18  0  0  1  0  0  0  0  0999 V2000
   19.9437  -12.8060  -16.6945 N   0  0  0  0  0  0  0  0  0  0  0  0
   19.2481  -11.5200  -16.6376 C   0  0  1  0  0  0  0  0  0  0  0  0
   18.3154  -11.6180  -15.4264 C   0  0  0  0  0  0  0  0  0  0  0  0
   17.0487  -12.8591  -15.8807 S   0  0  0  0  0  0  0  0  0  0  0  0
   20.2106  -10.4130  -16.5049 C   0  0  0  0  0  0  0  0  0  0  0  0
   21.3952  -10.6348  -16.0839 O   0  0  0  0  0  0  0  0  0  0  0  0
   19.8249   -9.0988  -16.8446 N   0  0  0  0  0  0  0  0  0  0  0  0
   18.5568   -8.6360  -17.3141 C   0  0  0  0  0  0  0  0  0  0  0  0
   18.8847   -7.5490  -18.3229 C   0  0  0  0  0  0  0  0  0  0  0  0
   20.1586   -6.9351  -17.7708 C   0  0  0  0  0  0  0  0  0  0  0  0
   20.6847   -7.9195  -16.7762 C   0  0  1  0  0  0  0  0  0  0  0  0
   20.6102   -7.3103  -15.4336 C   0  0  0  0  0  0  0  0  0  0  0  0
   19.9044   -7.8542  -14.5588 O   0  0  0  0  0  0  0  0  0  0  0  0
   21.3112   -6.1297  -15.1007 N   0  0  0  0  0  0  0  0  0  0  0  0
   21.5057   -5.7435  -13.7229 C   0  0  0  0  0  0  0  0  0  0  0  0
   22.3647   -4.5377  -13.6009 C   0  0  0  0  0  0  0  0  0  0  0  0
   23.7185   -4.6646  -13.8613 O   0  0  0  0  0  0  0  0  0  0  0  0
   21.8862   -3.4299  -13.2714 O   0  0  0  0  0  0  0  0  0  0  0  0
  2  1  1  1
  2  3  1  0
  3  4  1  0
  5  6  2  0
  5  2  1  0
  7  5  1  0
  8  7  1  0
  9  8  1  0
 10  9  1  0
 10 11  1  0
 11 12  1  1
 11  7  1  0
 12 13  2  0
 14 12  1  0
 14 15  1  0
 15 16  1  0
 16 18  2  0
 16 17  1  0
M  END
$$$$
