CPG.pdb
     RDKit          3D

 18 18  0  0  1  0  0  0  0  0999 V2000
   12.9998  -23.5592   -1.3494 N   0  0  0  0  0  0  0  0  0  0  0  0
   14.2388  -23.4380   -0.5808 C   0  0  1  0  0  0  0  0  0  0  0  0
   15.1902  -22.6328   -1.4715 C   0  0  0  0  0  0  0  0  0  0  0  0
   15.8936  -23.8389   -2.6555 S   0  0  0  0  0  0  0  0  0  0  0  0
   13.9892  -22.7683    0.7071 C   0  0  0  0  0  0  0  0  0  0  0  0
   12.8626  -22.2141    0.9386 O   0  0  0  0  0  0  0  0  0  0  0  0
   14.9981  -22.7375    1.6931 N   0  0  0  0  0  0  0  0  0  0  0  0
   16.3147  -23.2909    1.6377 C   0  0  0  0  0  0  0  0  0  0  0  0
   16.5867  -23.7980    3.0432 C   0  0  0  0  0  0  0  0  0  0  0  0
   15.8274  -22.8182    3.9195 C   0  0  0  0  0  0  0  0  0  0  0  0
   14.8798  -22.1085    3.0065 C   0  0  1  0  0  0  0  0  0  0  0  0
   15.2800  -20.6896    2.9312 C   0  0  0  0  0  0  0  0  0  0  0  0
   16.1678  -20.3518    2.1207 O   0  0  0  0  0  0  0  0  0  0  0  0
   14.6930  -19.6957    3.7458 N   0  0  0  0  0  0  0  0  0  0  0  0
   15.0736  -18.3086    3.6179 C   0  0  0  0  0  0  0  0  0  0  0  0
   16.0565  -17.9051    4.6561 C   0  0  0  0  0  0  0  0  0  0  0  0
   16.4718  -16.5850    4.6920 O   0  0  0  0  0  0  0  0  0  0  0  0
   16.5041  -18.7306    5.4825 O   0  0  0  0  0  0  0  0  0  0  0  0
  2  1  1  6
  2  3  1  0
  3  4  1  0
  5  6  2  0
  5  2  1  0
  7  5  1  0
  8  7  1  0
  9  8  1  0
 10  9  1  0
 10 11  1  0
 11 12  1  6
 11  7  1  0
 12 13  2  0
 14 12  1  0
 14 15  1  0
 15 16  1  0
 16 18  2  0
 16 17  1  0
M  END
$$$$
