CPG.pdb
     RDKit          3D

 18 18  0  0  1  0  0  0  0  0999 V2000
   19.5462  -12.9479  -16.9476 N   0  0  0  0  0  0  0  0  0  0  0  0
   18.7707  -11.7984  -16.4808 C   0  0  1  0  0  0  0  0  0  0  0  0
   18.2829  -12.1815  -15.0801 C   0  0  0  0  0  0  0  0  0  0  0  0
   16.8358  -13.2711  -15.3447 S   0  0  0  0  0  0  0  0  0  0  0  0
   19.6018  -10.5826  -16.4624 C   0  0  0  0  0  0  0  0  0  0  0  0
   20.8720  -10.6705  -16.3689 O   0  0  0  0  0  0  0  0  0  0  0  0
   18.9945   -9.3118  -16.5488 N   0  0  0  0  0  0  0  0  0  0  0  0
   17.6035   -8.9851  -16.5119 C   0  0  0  0  0  0  0  0  0  0  0  0
   17.4448   -7.8332  -17.4888 C   0  0  0  0  0  0  0  0  0  0  0  0
   18.7652   -7.0934  -17.3717 C   0  0  0  0  0  0  0  0  0  0  0  0
   19.7030   -8.0428  -16.6978 C   0  0  1  0  0  0  0  0  0  0  0  0
   20.0501   -7.4930  -15.3725 C   0  0  0  0  0  0  0  0  0  0  0  0
   19.5973   -8.0460  -14.3486 O   0  0  0  0  0  0  0  0  0  0  0  0
   20.8792   -6.3593  -15.2194 N   0  0  0  0  0  0  0  0  0  0  0  0
   21.3828   -5.9758  -13.9215 C   0  0  0  0  0  0  0  0  0  0  0  0
   22.3148   -4.8222  -14.0069 C   0  0  0  0  0  0  0  0  0  0  0  0
   21.7926   -3.5445  -13.9010 O   0  0  0  0  0  0  0  0  0  0  0  0
   23.5435   -4.9906  -14.1705 O   0  0  0  0  0  0  0  0  0  0  0  0
  2  1  1  1
  2  3  1  0
  3  4  1  0
  5  6  2  0
  5  2  1  0
  7  5  1  0
  8  7  1  0
  9  8  1  0
 10  9  1  0
 10 11  1  0
 11 12  1  1
 11  7  1  0
 12 13  2  0
 14 12  1  0
 14 15  1  0
 15 16  1  0
 16 18  2  0
 16 17  1  0
M  END
$$$$
