CPG.pdb
     RDKit          3D

 18 18  0  0  1  0  0  0  0  0999 V2000
   23.7582  -20.5156  -11.2189 N   0  0  0  0  0  0  0  0  0  0  0  0
   25.1368  -20.3612  -11.6840 C   0  0  1  0  0  0  0  0  0  0  0  0
   25.9661  -21.3102  -10.8131 C   0  0  0  0  0  0  0  0  0  0  0  0
   26.4289  -20.3392   -9.3317 S   0  0  0  0  0  0  0  0  0  0  0  0
   25.2433  -20.6912  -13.1155 C   0  0  0  0  0  0  0  0  0  0  0  0
   24.3089  -21.3350  -13.7006 O   0  0  0  0  0  0  0  0  0  0  0  0
   26.3825  -20.2947  -13.8477 N   0  0  0  0  0  0  0  0  0  0  0  0
   27.5539  -19.6237  -13.3782 C   0  0  0  0  0  0  0  0  0  0  0  0
   27.9463  -18.6842  -14.5052 C   0  0  0  0  0  0  0  0  0  0  0  0
   27.5205  -19.4391  -15.7514 C   0  0  0  0  0  0  0  0  0  0  0  0
   26.5848  -20.5052  -15.2793 C   0  0  1  0  0  0  0  0  0  0  0  0
   27.2157  -21.8182  -15.5183 C   0  0  0  0  0  0  0  0  0  0  0  0
   28.0381  -22.2565  -14.6872 O   0  0  0  0  0  0  0  0  0  0  0  0
   26.9221  -22.6003  -16.6576 N   0  0  0  0  0  0  0  0  0  0  0  0
   25.7073  -23.3775  -16.7336 C   0  0  0  0  0  0  0  0  0  0  0  0
   25.7151  -24.5137  -15.7768 C   0  0  0  0  0  0  0  0  0  0  0  0
   26.5782  -25.5695  -16.0153 O   0  0  0  0  0  0  0  0  0  0  0  0
   24.9638  -24.5259  -14.7767 O   0  0  0  0  0  0  0  0  0  0  0  0
  2  1  1  1
  2  3  1  0
  3  4  1  0
  5  6  2  0
  5  2  1  0
  7  5  1  0
  8  7  1  0
  9  8  1  0
 10  9  1  0
 10 11  1  0
 11 12  1  1
 11  7  1  0
 12 13  2  0
 14 12  1  0
 14 15  1  0
 15 16  1  0
 16 18  2  0
 16 17  1  0
M  END
$$$$
