CPG.pdb
     RDKit          3D

 18 18  0  0  1  0  0  0  0  0999 V2000
   20.4636  -12.9747  -17.1927 N   0  0  0  0  0  0  0  0  0  0  0  0
   20.8391  -11.5710  -17.3643 C   0  0  1  0  0  0  0  0  0  0  0  0
   20.3573  -11.1923  -18.7683 C   0  0  0  0  0  0  0  0  0  0  0  0
   21.6935  -11.7166  -19.9044 S   0  0  0  0  0  0  0  0  0  0  0  0
   20.2175  -10.7349  -16.3233 C   0  0  0  0  0  0  0  0  0  0  0  0
   19.1170  -11.0898  -15.7822 O   0  0  0  0  0  0  0  0  0  0  0  0
   20.8391   -9.5344  -15.9187 N   0  0  0  0  0  0  0  0  0  0  0  0
   22.0064   -8.9102  -16.4579 C   0  0  0  0  0  0  0  0  0  0  0  0
   22.7232   -8.3158  -15.2582 C   0  0  0  0  0  0  0  0  0  0  0  0
   21.5862   -7.9338  -14.3278 C   0  0  0  0  0  0  0  0  0  0  0  0
   20.3868   -8.6716  -14.8299 C   0  0  1  0  0  0  0  0  0  0  0  0
   19.4097   -7.6854  -15.3320 C   0  0  0  0  0  0  0  0  0  0  0  0
   19.4547   -7.3437  -16.5322 O   0  0  0  0  0  0  0  0  0  0  0  0
   18.4216   -7.1117  -14.5011 N   0  0  0  0  0  0  0  0  0  0  0  0
   17.4156   -6.2284  -15.0424 C   0  0  0  0  0  0  0  0  0  0  0  0
   16.0481   -6.7901  -14.8972 C   0  0  0  0  0  0  0  0  0  0  0  0
   15.5964   -7.6797  -15.8569 O   0  0  0  0  0  0  0  0  0  0  0  0
   15.3146   -6.4733  -13.9347 O   0  0  0  0  0  0  0  0  0  0  0  0
  2  1  1  1
  2  3  1  0
  3  4  1  0
  5  6  2  0
  5  2  1  0
  7  5  1  0
  8  7  1  0
  9  8  1  0
 10  9  1  0
 10 11  1  0
 11 12  1  6
 11  7  1  0
 12 13  2  0
 14 12  1  0
 14 15  1  0
 15 16  1  0
 16 18  2  0
 16 17  1  0
M  END
$$$$
