CPG.pdb
     RDKit          3D

 18 18  0  0  1  0  0  0  0  0999 V2000
   15.1762  -12.5150  -11.0928 N   0  0  0  0  0  0  0  0  0  0  0  0
   15.5101  -12.3553  -12.5083 C   0  0  1  0  0  0  0  0  0  0  0  0
   14.1682  -12.1598  -13.2209 C   0  0  0  0  0  0  0  0  0  0  0  0
   13.2199  -13.6950  -12.9123 S   0  0  0  0  0  0  0  0  0  0  0  0
   16.4114  -11.2069  -12.7041 C   0  0  0  0  0  0  0  0  0  0  0  0
   16.4866  -10.2877  -11.8214 O   0  0  0  0  0  0  0  0  0  0  0  0
   17.1980  -11.1191  -13.8723 N   0  0  0  0  0  0  0  0  0  0  0  0
   17.2383  -12.0114  -14.9880 C   0  0  0  0  0  0  0  0  0  0  0  0
   18.6950  -12.0378  -15.4171 C   0  0  0  0  0  0  0  0  0  0  0  0
   19.1774  -10.6346  -15.0963 C   0  0  0  0  0  0  0  0  0  0  0  0
   18.1556  -10.0567  -14.1707 C   0  0  1  0  0  0  0  0  0  0  0  0
   17.4806   -8.9398  -14.8607 C   0  0  0  0  0  0  0  0  0  0  0  0
   16.5206   -9.1869  -15.6200 O   0  0  0  0  0  0  0  0  0  0  0  0
   17.8826   -7.5958  -14.6928 N   0  0  0  0  0  0  0  0  0  0  0  0
   17.0936   -6.5109  -15.2275 C   0  0  0  0  0  0  0  0  0  0  0  0
   17.6597   -5.1849  -14.8703 C   0  0  0  0  0  0  0  0  0  0  0  0
   17.8453   -4.8872  -13.5311 O   0  0  0  0  0  0  0  0  0  0  0  0
   17.9645   -4.3503  -15.7508 O   0  0  0  0  0  0  0  0  0  0  0  0
  2  1  1  1
  2  3  1  0
  3  4  1  0
  5  6  2  0
  5  2  1  0
  7  5  1  0
  8  7  1  0
  9  8  1  0
 10  9  1  0
 10 11  1  0
 11 12  1  6
 11  7  1  0
 12 13  2  0
 14 12  1  0
 14 15  1  0
 15 16  1  0
 16 18  2  0
 16 17  1  0
M  END
$$$$
