CPG.pdb
     RDKit          3D

 18 18  0  0  1  0  0  0  0  0999 V2000
   23.8208  -21.7924  -16.6749 N   0  0  0  0  0  0  0  0  0  0  0  0
   24.2890  -20.6494  -15.8907 C   0  0  1  0  0  0  0  0  0  0  0  0
   23.0351  -19.8200  -15.5966 C   0  0  0  0  0  0  0  0  0  0  0  0
   23.6325  -18.1157  -15.2968 S   0  0  0  0  0  0  0  0  0  0  0  0
   24.9533  -21.1019  -14.6565 C   0  0  0  0  0  0  0  0  0  0  0  0
   24.4657  -22.0671  -13.9777 O   0  0  0  0  0  0  0  0  0  0  0  0
   26.1356  -20.4681  -14.2190 N   0  0  0  0  0  0  0  0  0  0  0  0
   26.8377  -19.3789  -14.8219 C   0  0  0  0  0  0  0  0  0  0  0  0
   28.3076  -19.6843  -14.5925 C   0  0  0  0  0  0  0  0  0  0  0  0
   28.3086  -20.4059  -13.2569 C   0  0  0  0  0  0  0  0  0  0  0  0
   26.8921  -20.8213  -13.0199 C   0  0  1  0  0  0  0  0  0  0  0  0
   26.3773  -20.0771  -11.8536 C   0  0  0  0  0  0  0  0  0  0  0  0
   25.6727  -19.0638  -12.0431 O   0  0  0  0  0  0  0  0  0  0  0  0
   26.6536  -20.4710  -10.5252 N   0  0  0  0  0  0  0  0  0  0  0  0
   25.8968  -21.5234   -9.8887 C   0  0  0  0  0  0  0  0  0  0  0  0
   24.5667  -21.0493   -9.4278 C   0  0  0  0  0  0  0  0  0  0  0  0
   23.5802  -20.8332  -10.3748 O   0  0  0  0  0  0  0  0  0  0  0  0
   24.3334  -20.8471   -8.2156 O   0  0  0  0  0  0  0  0  0  0  0  0
  2  1  1  6
  2  3  1  0
  3  4  1  0
  5  6  2  0
  5  2  1  0
  7  5  1  0
  8  7  1  0
  9  8  1  0
 10  9  1  0
 10 11  1  0
 11 12  1  1
 11  7  1  0
 12 13  2  0
 14 12  1  0
 14 15  1  0
 15 16  1  0
 16 18  2  0
 16 17  1  0
M  END
$$$$
