CPG.pdb
     RDKit          3D

 18 18  0  0  1  0  0  0  0  0999 V2000
   22.7259  -20.1646  -12.9659 N   0  0  0  0  0  0  0  0  0  0  0  0
   24.1353  -20.4131  -12.6617 C   0  0  1  0  0  0  0  0  0  0  0  0
   24.1542  -21.7316  -11.8820 C   0  0  0  0  0  0  0  0  0  0  0  0
   25.6251  -21.6391  -10.7960 S   0  0  0  0  0  0  0  0  0  0  0  0
   24.9289  -20.4928  -13.9000 C   0  0  0  0  0  0  0  0  0  0  0  0
   24.3499  -20.6210  -15.0305 O   0  0  0  0  0  0  0  0  0  0  0  0
   26.3372  -20.4267  -13.8404 N   0  0  0  0  0  0  0  0  0  0  0  0
   27.1792  -20.3955  -12.6859 C   0  0  0  0  0  0  0  0  0  0  0  0
   28.3191  -19.4628  -13.0566 C   0  0  0  0  0  0  0  0  0  0  0  0
   28.4838  -19.6909  -14.5484 C   0  0  0  0  0  0  0  0  0  0  0  0
   27.2323  -20.3764  -14.9940 C   0  0  1  0  0  0  0  0  0  0  0  0
   27.5799  -21.7431  -15.4307 C   0  0  0  0  0  0  0  0  0  0  0  0
   27.4713  -22.6856  -14.6188 O   0  0  0  0  0  0  0  0  0  0  0  0
   28.0327  -22.0250  -16.7389 N   0  0  0  0  0  0  0  0  0  0  0  0
   27.2254  -22.7949  -17.6559 C   0  0  0  0  0  0  0  0  0  0  0  0
   26.4350  -21.9248  -18.5641 C   0  0  0  0  0  0  0  0  0  0  0  0
   27.0772  -21.3457  -19.6451 O   0  0  0  0  0  0  0  0  0  0  0  0
   25.2181  -21.7142  -18.3655 O   0  0  0  0  0  0  0  0  0  0  0  0
  2  1  1  6
  2  3  1  0
  3  4  1  0
  5  6  2  0
  5  2  1  0
  7  5  1  0
  8  7  1  0
  9  8  1  0
 10  9  1  0
 10 11  1  0
 11 12  1  1
 11  7  1  0
 12 13  2  0
 14 12  1  0
 14 15  1  0
 15 16  1  0
 16 18  2  0
 16 17  1  0
M  END
$$$$
