CPG.pdb
     RDKit          3D

 18 18  0  0  1  0  0  0  0  0999 V2000
   26.6716  -18.4709  -17.0246 N   0  0  0  0  0  0  0  0  0  0  0  0
   26.4964  -18.3242  -15.5794 C   0  0  1  0  0  0  0  0  0  0  0  0
   25.8624  -16.9430  -15.3870 C   0  0  0  0  0  0  0  0  0  0  0  0
   27.1919  -15.8821  -14.7100 S   0  0  0  0  0  0  0  0  0  0  0  0
   25.6450  -19.4013  -15.0463 C   0  0  0  0  0  0  0  0  0  0  0  0
   24.6586  -19.8411  -15.7271 O   0  0  0  0  0  0  0  0  0  0  0  0
   25.9183  -19.9531  -13.7766 N   0  0  0  0  0  0  0  0  0  0  0  0
   26.9624  -19.6106  -12.8627 C   0  0  0  0  0  0  0  0  0  0  0  0
   27.3765  -20.9270  -12.2285 C   0  0  0  0  0  0  0  0  0  0  0  0
   26.0816  -21.7184  -12.1929 C   0  0  0  0  0  0  0  0  0  0  0  0
   25.1539  -21.0198  -13.1344 C   0  0  1  0  0  0  0  0  0  0  0  0
   24.0390  -20.4496  -12.3526 C   0  0  0  0  0  0  0  0  0  0  0  0
   24.2243  -19.3934  -11.7128 O   0  0  0  0  0  0  0  0  0  0  0  0
   22.7648  -21.0577  -12.3014 N   0  0  0  0  0  0  0  0  0  0  0  0
   21.5593  -20.2646  -12.3573 C   0  0  0  0  0  0  0  0  0  0  0  0
   20.3471  -21.1083  -12.5167 C   0  0  0  0  0  0  0  0  0  0  0  0
   19.7496  -21.1736  -13.7638 O   0  0  0  0  0  0  0  0  0  0  0  0
   19.8700  -21.7483  -11.5537 O   0  0  0  0  0  0  0  0  0  0  0  0
  2  1  1  6
  2  3  1  0
  3  4  1  0
  5  6  2  0
  5  2  1  0
  7  5  1  0
  8  7  1  0
  9  8  1  0
 10  9  1  0
 10 11  1  0
 11 12  1  1
 11  7  1  0
 12 13  2  0
 14 12  1  0
 14 15  1  0
 15 16  1  0
 16 18  2  0
 16 17  1  0
M  END
$$$$
