CPG.pdb
     RDKit          3D

 18 18  0  0  1  0  0  0  0  0999 V2000
   23.7367  -20.1013  -10.3088 N   0  0  0  0  0  0  0  0  0  0  0  0
   25.1385  -20.1100  -10.7280 C   0  0  1  0  0  0  0  0  0  0  0  0
   25.7297  -21.3933  -10.1360 C   0  0  0  0  0  0  0  0  0  0  0  0
   25.8782  -21.0820   -8.3381 S   0  0  0  0  0  0  0  0  0  0  0  0
   25.2428  -20.0808  -12.1969 C   0  0  0  0  0  0  0  0  0  0  0  0
   24.2117  -19.8469  -12.9125 O   0  0  0  0  0  0  0  0  0  0  0  0
   26.4875  -20.3114  -12.8201 N   0  0  0  0  0  0  0  0  0  0  0  0
   27.6817  -20.8527  -12.2512 C   0  0  0  0  0  0  0  0  0  0  0  0
   28.8139  -20.0863  -12.9124 C   0  0  0  0  0  0  0  0  0  0  0  0
   28.2743  -19.7989  -14.3019 C   0  0  0  0  0  0  0  0  0  0  0  0
   26.7995  -20.0289  -14.2193 C   0  0  1  0  0  0  0  0  0  0  0  0
   26.4613  -21.1921  -15.0629 C   0  0  0  0  0  0  0  0  0  0  0  0
   26.6855  -21.1374  -16.2900 O   0  0  0  0  0  0  0  0  0  0  0  0
   25.8910  -22.3700  -14.5305 N   0  0  0  0  0  0  0  0  0  0  0  0
   25.6567  -23.5257  -15.3641 C   0  0  0  0  0  0  0  0  0  0  0  0
   24.2633  -23.5661  -15.8773 C   0  0  0  0  0  0  0  0  0  0  0  0
   23.2597  -23.9933  -15.0249 O   0  0  0  0  0  0  0  0  0  0  0  0
   23.9929  -23.2243  -17.0499 O   0  0  0  0  0  0  0  0  0  0  0  0
  2  1  1  6
  2  3  1  0
  3  4  1  0
  5  6  2  0
  5  2  1  0
  7  5  1  0
  8  7  1  0
  9  8  1  0
 10  9  1  0
 10 11  1  0
 11 12  1  6
 11  7  1  0
 12 13  2  0
 14 12  1  0
 14 15  1  0
 15 16  1  0
 16 18  2  0
 16 17  1  0
M  END
$$$$
