YLE.pdb
     RDKit          3D

 30 30  0  0  1  0  0  0  0  0999 V2000
   16.2686  -25.7477   -1.2028 O   0  0  0  0  0  0  0  0  0  0  0  0
   16.3335  -25.9361   -2.5894 C   0  0  0  0  0  0  0  0  0  0  0  0
   15.2260  -26.3468   -3.2902 C   0  0  0  0  0  0  0  0  0  0  0  0
   15.2826  -26.5374   -4.6839 C   0  0  0  0  0  0  0  0  0  0  0  0
   16.4420  -26.3195   -5.3907 C   0  0  0  0  0  0  0  0  0  0  0  0
   16.5496  -26.4973   -6.8638 C   0  0  0  0  0  0  0  0  0  0  0  0
   17.7833  -25.8574   -7.4509 C   0  0  2  0  0  0  0  0  0  0  0  0
   17.7090  -24.4253   -7.4714 N   0  0  0  0  0  0  0  0  0  0  0  0
   17.9871  -26.4385   -8.8458 C   0  0  0  0  0  0  0  0  0  0  0  0
   17.0896  -26.2522   -9.6877 O   0  0  0  0  0  0  0  0  0  0  0  0
   17.5550  -25.9010   -4.6471 C   0  0  0  0  0  0  0  0  0  0  0  0
   17.5026  -25.7148   -3.2822 C   0  0  0  0  0  0  0  0  0  0  0  0
   22.5772  -29.7684  -11.7203 C   0  0  0  0  0  0  0  0  0  0  0  0
   21.1482  -29.4763  -11.4356 C   0  0  2  0  0  0  0  0  0  0  0  0
   20.3708  -29.2124  -12.7155 C   0  0  0  0  0  0  0  0  0  0  0  0
   20.8630  -28.4816  -10.3691 C   0  0  0  0  0  0  0  0  0  0  0  0
   19.4700  -28.2061   -9.9840 C   0  0  2  0  0  0  0  0  0  0  0  0
   19.1663  -27.1512   -9.1235 N   0  0  0  0  0  0  0  0  0  0  0  0
   18.6896  -29.4690   -9.8994 C   0  0  0  0  0  0  0  0  0  0  0  0
   18.5875  -30.1456   -8.8597 O   0  0  0  0  0  0  0  0  0  0  0  0
   17.9970  -29.9799  -11.0462 N   0  0  0  0  0  0  0  0  0  0  0  0
   17.1788  -31.1758  -10.9903 C   0  0  1  0  0  0  0  0  0  0  0  0
   16.3123  -31.4028  -12.1682 C   0  0  0  0  0  0  0  0  0  0  0  0
   15.3053  -32.5053  -12.0818 C   0  0  0  0  0  0  0  0  0  0  0  0
   14.8050  -32.9219  -13.4013 C   0  0  0  0  0  0  0  0  0  0  0  0
   15.4478  -33.6290  -14.2131 O   0  0  0  0  0  0  0  0  0  0  0  0
   18.0254  -32.3459  -10.7091 C   0  0  0  0  0  0  0  0  0  0  0  0
   17.6499  -33.2531   -9.7031 O   0  0  0  0  0  0  0  0  0  0  0  0
   13.5231  -32.5233  -13.8188 O   0  0  0  0  0  0  0  0  0  0  0  0
   19.0827  -32.5822  -11.3356 O   0  0  0  0  0  0  0  0  0  0  0  0
  2  1  1  0
  3  2  2  0
  4  3  1  0
  5  4  2  0
  5 11  1  0
  6  5  1  0
  7  8  1  6
  7  6  1  0
  9 10  2  0
  9  7  1  0
 11 12  2  0
 12  2  1  0
 14 16  1  0
 14 13  1  6
 15 14  1  0
 17 16  1  1
 17 19  1  0
 17 18  1  0
 18  9  1  0
 19 21  1  0
 20 19  2  0
 21 22  1  0
 22 27  1  0
 23 24  1  0
 22 23  1  6
 24 25  1  0
 25 26  2  0
 27 30  2  0
 27 28  1  0
 29 25  1  0
M  END
$$$$
