YLE.pdb
     RDKit          3D

 30 30  0  0  1  0  0  0  0  0999 V2000
   19.2448  -17.2601  -22.0212 O   0  0  0  0  0  0  0  0  0  0  0  0
   19.7799  -16.3030  -21.1493 C   0  0  0  0  0  0  0  0  0  0  0  0
   21.0773  -15.8760  -21.2936 C   0  0  0  0  0  0  0  0  0  0  0  0
   21.6223  -14.9137  -20.4223 C   0  0  0  0  0  0  0  0  0  0  0  0
   20.8793  -14.3684  -19.4015 C   0  0  0  0  0  0  0  0  0  0  0  0
   21.4063  -13.3426  -18.4618 C   0  0  0  0  0  0  0  0  0  0  0  0
   22.4757  -13.8747  -17.5402 C   0  0  2  0  0  0  0  0  0  0  0  0
   22.0321  -14.9971  -16.7653 N   0  0  0  0  0  0  0  0  0  0  0  0
   22.9433  -12.7216  -16.6589 C   0  0  0  0  0  0  0  0  0  0  0  0
   22.1816  -12.3405  -15.7513 O   0  0  0  0  0  0  0  0  0  0  0  0
   19.5587  -14.8247  -19.2804 C   0  0  0  0  0  0  0  0  0  0  0  0
   19.0230  -15.7677  -20.1313 C   0  0  0  0  0  0  0  0  0  0  0  0
   26.8364  -13.1363  -15.1484 C   0  0  0  0  0  0  0  0  0  0  0  0
   27.1341  -12.2344  -16.2914 C   0  0  2  0  0  0  0  0  0  0  0  0
   28.6295  -12.0029  -16.4397 C   0  0  0  0  0  0  0  0  0  0  0  0
   26.3417  -10.9808  -16.3849 C   0  0  0  0  0  0  0  0  0  0  0  0
   24.8720  -11.0450  -16.3626 C   0  0  2  0  0  0  0  0  0  0  0  0
   24.2007  -12.1424  -16.9016 N   0  0  0  0  0  0  0  0  0  0  0  0
   24.2854   -9.6858  -16.5027 C   0  0  0  0  0  0  0  0  0  0  0  0
   24.4734   -8.9546  -17.4923 O   0  0  0  0  0  0  0  0  0  0  0  0
   23.4501   -9.1393  -15.4735 N   0  0  0  0  0  0  0  0  0  0  0  0
   22.4006   -8.1785  -15.7534 C   0  0  1  0  0  0  0  0  0  0  0  0
   21.4418   -8.5807  -16.8064 C   0  0  0  0  0  0  0  0  0  0  0  0
   20.3304   -7.6322  -17.1264 C   0  0  0  0  0  0  0  0  0  0  0  0
   19.4851   -8.1017  -18.2355 C   0  0  0  0  0  0  0  0  0  0  0  0
   19.6743   -9.1661  -18.8704 O   0  0  0  0  0  0  0  0  0  0  0  0
   21.7112   -7.8160  -14.5051 C   0  0  0  0  0  0  0  0  0  0  0  0
   20.8299   -6.7209  -14.4875 O   0  0  0  0  0  0  0  0  0  0  0  0
   18.3786   -7.3356  -18.6416 O   0  0  0  0  0  0  0  0  0  0  0  0
   21.8692   -8.4484  -13.4368 O   0  0  0  0  0  0  0  0  0  0  0  0
  2  1  1  0
  3  2  2  0
  4  3  1  0
  5  4  2  0
  5 11  1  0
  6  5  1  0
  7  8  1  1
  7  6  1  0
  9 10  2  0
  9  7  1  0
 11 12  2  0
 12  2  1  0
 14 16  1  0
 14 13  1  1
 15 14  1  0
 17 16  1  6
 17 19  1  0
 17 18  1  0
 18  9  1  0
 19 21  1  0
 20 19  2  0
 21 22  1  0
 22 27  1  0
 23 24  1  0
 22 23  1  6
 24 25  1  0
 25 26  2  0
 27 30  2  0
 27 28  1  0
 29 25  1  0
M  END
$$$$
