YLE.pdb
     RDKit          3D

 30 30  0  0  1  0  0  0  0  0999 V2000
   24.3416  -31.1665   -9.2189 O   0  0  0  0  0  0  0  0  0  0  0  0
   25.2089  -31.8328   -8.3435 C   0  0  0  0  0  0  0  0  0  0  0  0
   26.5558  -31.8907   -8.6057 C   0  0  0  0  0  0  0  0  0  0  0  0
   27.4343  -32.5573   -7.7305 C   0  0  0  0  0  0  0  0  0  0  0  0
   26.9784  -33.1704   -6.5869 C   0  0  0  0  0  0  0  0  0  0  0  0
   27.8671  -33.8782   -5.6265 C   0  0  0  0  0  0  0  0  0  0  0  0
   28.6918  -34.9651   -6.2704 C   0  0  2  0  0  0  0  0  0  0  0  0
   27.9073  -35.8486   -7.0834 N   0  0  0  0  0  0  0  0  0  0  0  0
   29.4238  -35.7104   -5.1598 C   0  0  0  0  0  0  0  0  0  0  0  0
   28.8913  -36.7388   -4.7037 O   0  0  0  0  0  0  0  0  0  0  0  0
   25.5988  -33.0937   -6.3472 C   0  0  0  0  0  0  0  0  0  0  0  0
   24.7363  -32.4427   -7.2031 C   0  0  0  0  0  0  0  0  0  0  0  0
   33.9025  -36.9433   -4.6749 C   0  0  0  0  0  0  0  0  0  0  0  0
   33.7924  -35.4731   -4.4880 C   0  0  2  0  0  0  0  0  0  0  0  0
   35.1619  -34.8294   -4.3388 C   0  0  0  0  0  0  0  0  0  0  0  0
   32.8139  -34.9935   -3.4777 C   0  0  0  0  0  0  0  0  0  0  0  0
   31.4136  -35.4390   -3.5516 C   0  0  2  0  0  0  0  0  0  0  0  0
   30.6565  -35.2145   -4.7014 N   0  0  0  0  0  0  0  0  0  0  0  0
   30.7637  -35.3503   -2.2171 C   0  0  0  0  0  0  0  0  0  0  0  0
   29.9550  -34.4573   -1.9044 O   0  0  0  0  0  0  0  0  0  0  0  0
   31.0469  -36.3194   -1.1990 N   0  0  0  0  0  0  0  0  0  0  0  0
   30.3734  -36.3160    0.0852 C   0  0  1  0  0  0  0  0  0  0  0  0
   29.9387  -37.6437    0.5729 C   0  0  0  0  0  0  0  0  0  0  0  0
   29.2378  -37.6983    1.8931 C   0  0  0  0  0  0  0  0  0  0  0  0
   28.6515  -39.0191    2.1703 C   0  0  0  0  0  0  0  0  0  0  0  0
   27.4382  -39.3011    2.0271 O   0  0  0  0  0  0  0  0  0  0  0  0
   31.2035  -35.6201    1.0810 C   0  0  0  0  0  0  0  0  0  0  0  0
   32.6022  -35.7543    1.0398 O   0  0  0  0  0  0  0  0  0  0  0  0
   29.4727  -40.0648    2.6268 O   0  0  0  0  0  0  0  0  0  0  0  0
   30.7183  -34.8961    1.9791 O   0  0  0  0  0  0  0  0  0  0  0  0
  2  1  1  0
  3  2  2  0
  4  3  1  0
  5  4  2  0
  5 11  1  0
  6  5  1  0
  7  8  1  1
  7  6  1  0
  9 10  2  0
  9  7  1  0
 11 12  2  0
 12  2  1  0
 14 16  1  0
 14 13  1  1
 15 14  1  0
 17 16  1  1
 17 19  1  0
 17 18  1  0
 18  9  1  0
 19 21  1  0
 20 19  2  0
 21 22  1  0
 22 27  1  0
 23 24  1  0
 22 23  1  1
 24 25  1  0
 25 26  2  0
 27 30  2  0
 27 28  1  0
 29 25  1  0
M  END
$$$$
