YLE.pdb
     RDKit          3D

 30 30  0  0  1  0  0  0  0  0999 V2000
   18.6319   -8.5534  -25.0197 O   0  0  0  0  0  0  0  0  0  0  0  0
   18.7085   -8.6043  -23.6219 C   0  0  0  0  0  0  0  0  0  0  0  0
   17.8654   -9.4187  -22.9062 C   0  0  0  0  0  0  0  0  0  0  0  0
   17.9366   -9.4765  -21.5014 C   0  0  0  0  0  0  0  0  0  0  0  0
   18.8486   -8.7245  -20.7984 C   0  0  0  0  0  0  0  0  0  0  0  0
   18.9695   -8.7580  -19.3160 C   0  0  0  0  0  0  0  0  0  0  0  0
   19.8951   -9.8411  -18.8198 C   0  0  2  0  0  0  0  0  0  0  0  0
   19.4294  -11.1590  -19.1410 N   0  0  0  0  0  0  0  0  0  0  0  0
   20.0703   -9.6480  -17.3174 C   0  0  0  0  0  0  0  0  0  0  0  0
   19.5840  -10.5094  -16.5622 O   0  0  0  0  0  0  0  0  0  0  0  0
   19.6950   -7.9032  -21.5573 C   0  0  0  0  0  0  0  0  0  0  0  0
   19.6266   -7.8439  -22.9328 C   0  0  0  0  0  0  0  0  0  0  0  0
   21.2274   -8.3617  -12.5192 C   0  0  0  0  0  0  0  0  0  0  0  0
   21.6739   -9.4385  -13.4409 C   0  0  2  0  0  0  0  0  0  0  0  0
   22.6735  -10.3654  -12.7672 C   0  0  0  0  0  0  0  0  0  0  0  0
   22.0944   -9.0265  -14.8053 C   0  0  0  0  0  0  0  0  0  0  0  0
   21.2324   -8.1321  -15.5939 C   0  0  2  0  0  0  0  0  0  0  0  0
   20.7667   -8.5201  -16.8501 N   0  0  0  0  0  0  0  0  0  0  0  0
   21.5924   -6.7096  -15.3528 C   0  0  0  0  0  0  0  0  0  0  0  0
   22.6919   -6.2165  -15.6643 O   0  0  0  0  0  0  0  0  0  0  0  0
   20.6605   -5.8136  -14.7326 N   0  0  0  0  0  0  0  0  0  0  0  0
   20.1575   -4.6302  -15.4027 C   0  0  1  0  0  0  0  0  0  0  0  0
   19.7487   -4.8285  -16.8110 C   0  0  0  0  0  0  0  0  0  0  0  0
   19.1487   -3.6601  -17.5265 C   0  0  0  0  0  0  0  0  0  0  0  0
   18.8060   -3.9654  -18.9244 C   0  0  0  0  0  0  0  0  0  0  0  0
   18.9677   -5.0843  -19.4666 O   0  0  0  0  0  0  0  0  0  0  0  0
   19.0767   -4.0282  -14.6062 C   0  0  0  0  0  0  0  0  0  0  0  0
   18.7913   -2.6582  -14.7400 O   0  0  0  0  0  0  0  0  0  0  0  0
   18.2555   -2.9632  -19.7424 O   0  0  0  0  0  0  0  0  0  0  0  0
   18.3810   -4.6880  -13.8019 O   0  0  0  0  0  0  0  0  0  0  0  0
  2  1  1  0
  3  2  2  0
  4  3  1  0
  5  4  2  0
  5 11  1  0
  6  5  1  0
  7  8  1  1
  7  6  1  0
  9 10  2  0
  9  7  1  0
 11 12  2  0
 12  2  1  0
 14 16  1  0
 14 13  1  1
 15 14  1  0
 17 16  1  6
 17 19  1  0
 17 18  1  0
 18  9  1  0
 19 21  1  0
 20 19  2  0
 21 22  1  0
 22 27  1  0
 23 24  1  0
 22 23  1  6
 24 25  1  0
 25 26  2  0
 27 30  2  0
 27 28  1  0
 29 25  1  0
M  END
$$$$
