YLE.pdb
     RDKit          3D

 30 30  0  0  1  0  0  0  0  0999 V2000
   16.7446   -6.5192  -22.2511 O   0  0  0  0  0  0  0  0  0  0  0  0
   17.8179   -5.8023  -21.7065 C   0  0  0  0  0  0  0  0  0  0  0  0
   17.6451   -5.0367  -20.5794 C   0  0  0  0  0  0  0  0  0  0  0  0
   18.7187   -4.3141  -20.0252 C   0  0  0  0  0  0  0  0  0  0  0  0
   19.9729   -4.3492  -20.5883 C   0  0  0  0  0  0  0  0  0  0  0  0
   21.1406   -3.6118  -20.0351 C   0  0  0  0  0  0  0  0  0  0  0  0
   21.9041   -4.3994  -18.9993 C   0  0  2  0  0  0  0  0  0  0  0  0
   21.1166   -4.6989  -17.8386 N   0  0  0  0  0  0  0  0  0  0  0  0
   23.1596   -3.6084  -18.6487 C   0  0  0  0  0  0  0  0  0  0  0  0
   23.0474   -2.6758  -17.8321 O   0  0  0  0  0  0  0  0  0  0  0  0
   20.1172   -5.1395  -21.7378 C   0  0  0  0  0  0  0  0  0  0  0  0
   19.0674   -5.8471  -22.2832 C   0  0  0  0  0  0  0  0  0  0  0  0
   29.0782   -3.8910  -21.0251 C   0  0  0  0  0  0  0  0  0  0  0  0
   28.0605   -3.3133  -20.1091 C   0  0  2  0  0  0  0  0  0  0  0  0
   28.5930   -3.2009  -18.6893 C   0  0  0  0  0  0  0  0  0  0  0  0
   26.6928   -3.8912  -20.1707 C   0  0  0  0  0  0  0  0  0  0  0  0
   25.6372   -3.3586  -19.2950 C   0  0  2  0  0  0  0  0  0  0  0  0
   24.3793   -3.9597  -19.2524 N   0  0  0  0  0  0  0  0  0  0  0  0
   25.7474   -1.8801  -19.1801 C   0  0  0  0  0  0  0  0  0  0  0  0
   25.3685   -1.0917  -20.0655 O   0  0  0  0  0  0  0  0  0  0  0  0
   26.3113   -1.2770  -18.0078 N   0  0  0  0  0  0  0  0  0  0  0  0
   26.1260    0.1258  -17.6905 C   0  0  1  0  0  0  0  0  0  0  0  0
   24.7180    0.5751  -17.6168 C   0  0  0  0  0  0  0  0  0  0  0  0
   24.4619    1.9643  -17.1250 C   0  0  0  0  0  0  0  0  0  0  0  0
   23.0273    2.2725  -17.0164 C   0  0  0  0  0  0  0  0  0  0  0  0
   22.1059    1.4817  -17.3289 O   0  0  0  0  0  0  0  0  0  0  0  0
   26.8649    0.4606  -16.4630 C   0  0  0  0  0  0  0  0  0  0  0  0
   26.8788    1.7868  -15.9968 O   0  0  0  0  0  0  0  0  0  0  0  0
   22.6183    3.5273  -16.5321 O   0  0  0  0  0  0  0  0  0  0  0  0
   27.4912   -0.3933  -15.7962 O   0  0  0  0  0  0  0  0  0  0  0  0
  2  1  1  0
  3  2  2  0
  4  3  1  0
  5  4  2  0
  5 11  1  0
  6  5  1  0
  7  8  1  1
  7  6  1  0
  9 10  2  0
  9  7  1  0
 11 12  2  0
 12  2  1  0
 14 16  1  0
 14 13  1  6
 15 14  1  0
 17 16  1  6
 17 19  1  0
 17 18  1  0
 18  9  1  0
 19 21  1  0
 20 19  2  0
 21 22  1  0
 22 27  1  0
 23 24  1  0
 22 23  1  1
 24 25  1  0
 25 26  2  0
 27 30  2  0
 27 28  1  0
 29 25  1  0
M  END
$$$$
