YLE.pdb
     RDKit          3D

 30 30  0  0  1  0  0  0  0  0999 V2000
   28.8839  -14.8691  -21.0130 O   0  0  0  0  0  0  0  0  0  0  0  0
   28.2092  -15.6738  -20.0858 C   0  0  0  0  0  0  0  0  0  0  0  0
   28.7412  -15.8986  -18.8397 C   0  0  0  0  0  0  0  0  0  0  0  0
   28.0690  -16.7051  -17.9018 C   0  0  0  0  0  0  0  0  0  0  0  0
   26.8613  -17.2930  -18.1971 C   0  0  0  0  0  0  0  0  0  0  0  0
   26.1081  -18.1447  -17.2376 C   0  0  0  0  0  0  0  0  0  0  0  0
   26.7588  -19.4839  -16.9944 C   0  0  2  0  0  0  0  0  0  0  0  0
   26.9145  -20.2514  -18.1960 N   0  0  0  0  0  0  0  0  0  0  0  0
   25.9265  -20.2204  -15.9505 C   0  0  0  0  0  0  0  0  0  0  0  0
   25.2766  -21.2141  -16.3237 O   0  0  0  0  0  0  0  0  0  0  0  0
   26.3444  -17.0446  -19.4769 C   0  0  0  0  0  0  0  0  0  0  0  0
   27.0012  -16.2563  -20.3975 C   0  0  0  0  0  0  0  0  0  0  0  0
   24.7318  -22.2993  -11.4282 C   0  0  0  0  0  0  0  0  0  0  0  0
   25.7084  -21.2272  -11.1039 C   0  0  2  0  0  0  0  0  0  0  0  0
   25.2401  -20.3892   -9.9247 C   0  0  0  0  0  0  0  0  0  0  0  0
   26.2076  -20.4051  -12.2367 C   0  0  0  0  0  0  0  0  0  0  0  0
   25.3744  -20.2379  -13.4377 C   0  0  2  0  0  0  0  0  0  0  0  0
   25.9270  -19.7554  -14.6241 N   0  0  0  0  0  0  0  0  0  0  0  0
   23.9878  -19.8514  -13.0646 C   0  0  0  0  0  0  0  0  0  0  0  0
   23.4964  -20.0560  -11.9396 O   0  0  0  0  0  0  0  0  0  0  0  0
   23.1279  -19.2048  -14.0124 N   0  0  0  0  0  0  0  0  0  0  0  0
   22.0165  -19.8882  -14.6452 C   0  0  1  0  0  0  0  0  0  0  0  0
   22.3810  -20.7772  -15.7706 C   0  0  0  0  0  0  0  0  0  0  0  0
   22.0646  -20.3043  -17.1539 C   0  0  0  0  0  0  0  0  0  0  0  0
   22.4718  -21.2667  -18.1897 C   0  0  0  0  0  0  0  0  0  0  0  0
   22.9115  -22.4174  -17.9558 O   0  0  0  0  0  0  0  0  0  0  0  0
   21.2257  -20.5999  -13.6288 C   0  0  0  0  0  0  0  0  0  0  0  0
   20.0351  -20.0295  -13.1457 O   0  0  0  0  0  0  0  0  0  0  0  0
   22.3756  -20.9128  -19.5469 O   0  0  0  0  0  0  0  0  0  0  0  0
   21.5634  -21.7125  -13.1658 O   0  0  0  0  0  0  0  0  0  0  0  0
  2  1  1  0
  3  2  2  0
  4  3  1  0
  5  4  2  0
  5 11  1  0
  6  5  1  0
  7  8  1  6
  7  6  1  0
  9 10  2  0
  9  7  1  0
 11 12  2  0
 12  2  1  0
 14 16  1  0
 14 13  1  6
 15 14  1  0
 17 16  1  1
 17 19  1  0
 17 18  1  0
 18  9  1  0
 19 21  1  0
 20 19  2  0
 21 22  1  0
 22 27  1  0
 23 24  1  0
 22 23  1  6
 24 25  1  0
 25 26  2  0
 27 30  2  0
 27 28  1  0
 29 25  1  0
M  END
$$$$
