YLE.pdb
     RDKit          3D

 30 30  0  0  1  0  0  0  0  0999 V2000
   22.4354  -18.5587  -17.3398 O   0  0  0  0  0  0  0  0  0  0  0  0
   22.7833  -19.0630  -16.0800 C   0  0  0  0  0  0  0  0  0  0  0  0
   22.7158  -20.4109  -15.8252 C   0  0  0  0  0  0  0  0  0  0  0  0
   23.0646  -20.9258  -14.5622 C   0  0  0  0  0  0  0  0  0  0  0  0
   23.4845  -20.1027  -13.5436 C   0  0  0  0  0  0  0  0  0  0  0  0
   23.8730  -20.5991  -12.1961 C   0  0  0  0  0  0  0  0  0  0  0  0
   25.3667  -20.6908  -12.0047 C   0  0  2  0  0  0  0  0  0  0  0  0
   26.0007  -21.5282  -12.9813 N   0  0  0  0  0  0  0  0  0  0  0  0
   25.6223  -21.1780  -10.5827 C   0  0  0  0  0  0  0  0  0  0  0  0
   25.3358  -22.3592  -10.3148 O   0  0  0  0  0  0  0  0  0  0  0  0
   23.5427  -18.7321  -13.8348 C   0  0  0  0  0  0  0  0  0  0  0  0
   23.2005  -18.2251  -15.0702 C   0  0  0  0  0  0  0  0  0  0  0  0
   26.7097  -19.7723   -5.2246 C   0  0  0  0  0  0  0  0  0  0  0  0
   27.8145  -19.9477   -6.2028 C   0  0  2  0  0  0  0  0  0  0  0  0
   29.0848  -19.2557   -5.7341 C   0  0  0  0  0  0  0  0  0  0  0  0
   27.5005  -19.6775   -7.6299 C   0  0  0  0  0  0  0  0  0  0  0  0
   26.3494  -20.3423   -8.2606 C   0  0  2  0  0  0  0  0  0  0  0  0
   26.1661  -20.2862   -9.6423 N   0  0  0  0  0  0  0  0  0  0  0  0
   25.1652  -20.3054   -7.3620 C   0  0  0  0  0  0  0  0  0  0  0  0
   24.5384  -19.2642   -7.0933 O   0  0  0  0  0  0  0  0  0  0  0  0
   24.6758  -21.5042   -6.7463 N   0  0  0  0  0  0  0  0  0  0  0  0
   23.4036  -21.5573   -6.0523 C   0  0  1  0  0  0  0  0  0  0  0  0
   22.5211  -22.6806   -6.4383 C   0  0  0  0  0  0  0  0  0  0  0  0
   21.2357  -22.8369   -5.6896 C   0  0  0  0  0  0  0  0  0  0  0  0
   20.4237  -23.9600   -6.1841 C   0  0  0  0  0  0  0  0  0  0  0  0
   20.7764  -24.7422   -7.0983 O   0  0  0  0  0  0  0  0  0  0  0  0
   23.6274  -21.5211   -4.5985 C   0  0  0  0  0  0  0  0  0  0  0  0
   22.6127  -21.0486   -3.7480 O   0  0  0  0  0  0  0  0  0  0  0  0
   19.1608  -24.2094   -5.6190 O   0  0  0  0  0  0  0  0  0  0  0  0
   24.6955  -21.9014   -4.0688 O   0  0  0  0  0  0  0  0  0  0  0  0
  2  1  1  0
  3  2  2  0
  4  3  1  0
  5  4  2  0
  5 11  1  0
  6  5  1  0
  7  8  1  6
  7  6  1  0
  9 10  2  0
  9  7  1  0
 11 12  2  0
 12  2  1  0
 14 16  1  0
 14 13  1  1
 15 14  1  0
 17 16  1  1
 17 19  1  0
 17 18  1  0
 18  9  1  0
 19 21  1  0
 20 19  2  0
 21 22  1  0
 22 27  1  0
 23 24  1  0
 22 23  1  1
 24 25  1  0
 25 26  2  0
 27 30  2  0
 27 28  1  0
 29 25  1  0
M  END
$$$$
