YLE.pdb
     RDKit          3D

 30 30  0  0  1  0  0  0  0  0999 V2000
   30.9356  -16.4679  -19.3711 O   0  0  0  0  0  0  0  0  0  0  0  0
   29.9521  -17.1497  -18.6429 C   0  0  0  0  0  0  0  0  0  0  0  0
   28.8285  -17.6312  -19.2690 C   0  0  0  0  0  0  0  0  0  0  0  0
   27.8361  -18.3184  -18.5446 C   0  0  0  0  0  0  0  0  0  0  0  0
   27.9553  -18.5324  -17.1914 C   0  0  0  0  0  0  0  0  0  0  0  0
   26.9398  -19.2606  -16.3842 C   0  0  0  0  0  0  0  0  0  0  0  0
   27.3425  -20.6783  -16.0615 C   0  0  2  0  0  0  0  0  0  0  0  0
   27.5656  -21.4723  -17.2349 N   0  0  0  0  0  0  0  0  0  0  0  0
   26.2619  -21.2742  -15.1659 C   0  0  0  0  0  0  0  0  0  0  0  0
   25.2556  -21.7579  -15.7159 O   0  0  0  0  0  0  0  0  0  0  0  0
   29.1133  -18.0289  -16.5812 C   0  0  0  0  0  0  0  0  0  0  0  0
   30.0860  -17.3547  -17.2879 C   0  0  0  0  0  0  0  0  0  0  0  0
   25.7654  -20.4438   -8.8646 C   0  0  0  0  0  0  0  0  0  0  0  0
   25.1760  -20.7757  -10.1878 C   0  0  2  0  0  0  0  0  0  0  0  0
   24.3271  -22.0352  -10.1162 C   0  0  0  0  0  0  0  0  0  0  0  0
   26.0931  -20.7611  -11.3570 C   0  0  0  0  0  0  0  0  0  0  0  0
   25.5739  -21.0901  -12.6938 C   0  0  2  0  0  0  0  0  0  0  0  0
   26.4428  -21.2559  -13.7722 N   0  0  0  0  0  0  0  0  0  0  0  0
   24.2473  -20.4547  -12.9123 C   0  0  0  0  0  0  0  0  0  0  0  0
   24.0650  -19.2235  -12.9036 O   0  0  0  0  0  0  0  0  0  0  0  0
   23.0824  -21.2558  -13.1513 N   0  0  0  0  0  0  0  0  0  0  0  0
   21.7964  -20.6757  -13.4868 C   0  0  1  0  0  0  0  0  0  0  0  0
   21.3276  -20.9360  -14.8660 C   0  0  0  0  0  0  0  0  0  0  0  0
   21.8501  -20.0492  -15.9513 C   0  0  0  0  0  0  0  0  0  0  0  0
   20.7886  -19.2702  -16.6081 C   0  0  0  0  0  0  0  0  0  0  0  0
   19.5776  -19.3076  -16.2851 O   0  0  0  0  0  0  0  0  0  0  0  0
   20.7925  -21.0795  -12.4898 C   0  0  0  0  0  0  0  0  0  0  0  0
   19.5243  -20.4731  -12.4916 O   0  0  0  0  0  0  0  0  0  0  0  0
   21.1112  -18.4116  -17.6735 O   0  0  0  0  0  0  0  0  0  0  0  0
   21.0129  -21.9566  -11.6248 O   0  0  0  0  0  0  0  0  0  0  0  0
  2  1  1  0
  3  2  2  0
  4  3  1  0
  5  4  2  0
  5 11  1  0
  6  5  1  0
  7  8  1  6
  7  6  1  0
  9 10  2  0
  9  7  1  0
 11 12  2  0
 12  2  1  0
 14 16  1  0
 14 13  1  1
 15 14  1  0
 17 16  1  1
 17 19  1  0
 17 18  1  0
 18  9  1  0
 19 21  1  0
 20 19  2  0
 21 22  1  0
 22 27  1  0
 23 24  1  0
 22 23  1  6
 24 25  1  0
 25 26  2  0
 27 30  2  0
 27 28  1  0
 29 25  1  0
M  END
$$$$
