YLE.pdb
     RDKit          3D

 30 30  0  0  1  0  0  0  0  0999 V2000
   16.3282  -13.9974  -17.7848 O   0  0  0  0  0  0  0  0  0  0  0  0
   17.5116  -14.7190  -17.5816 C   0  0  0  0  0  0  0  0  0  0  0  0
   17.6093  -16.0274  -17.9877 C   0  0  0  0  0  0  0  0  0  0  0  0
   18.7953  -16.7592  -17.7882 C   0  0  0  0  0  0  0  0  0  0  0  0
   19.8935  -16.1935  -17.1839 C   0  0  0  0  0  0  0  0  0  0  0  0
   21.1714  -16.9214  -16.9596 C   0  0  0  0  0  0  0  0  0  0  0  0
   22.2507  -16.5441  -17.9439 C   0  0  2  0  0  0  0  0  0  0  0  0
   21.9076  -16.8737  -19.2969 N   0  0  0  0  0  0  0  0  0  0  0  0
   23.5408  -17.2249  -17.5000 C   0  0  0  0  0  0  0  0  0  0  0  0
   23.8011  -18.3427  -17.9816 O   0  0  0  0  0  0  0  0  0  0  0  0
   19.7625  -14.8567  -16.7807 C   0  0  0  0  0  0  0  0  0  0  0  0
   18.6020  -14.1382  -16.9737 C   0  0  0  0  0  0  0  0  0  0  0  0
   27.3865  -14.8684  -17.1781 C   0  0  0  0  0  0  0  0  0  0  0  0
   26.7367  -14.7182  -15.8500 C   0  0  2  0  0  0  0  0  0  0  0  0
   27.5184  -13.7697  -14.9548 C   0  0  0  0  0  0  0  0  0  0  0  0
   26.3278  -15.9661  -15.1547 C   0  0  0  0  0  0  0  0  0  0  0  0
   25.5104  -16.9615  -15.8659 C   0  0  2  0  0  0  0  0  0  0  0  0
   24.3759  -16.5714  -16.5776 N   0  0  0  0  0  0  0  0  0  0  0  0
   25.5080  -18.2568  -15.1355 C   0  0  0  0  0  0  0  0  0  0  0  0
   26.5307  -18.7740  -14.6499 O   0  0  0  0  0  0  0  0  0  0  0  0
   24.2902  -18.9908  -14.9508 N   0  0  0  0  0  0  0  0  0  0  0  0
   24.2234  -20.1939  -14.1440 C   0  0  1  0  0  0  0  0  0  0  0  0
   22.9279  -20.4295  -13.4689 C   0  0  0  0  0  0  0  0  0  0  0  0
   21.6877  -20.3181  -14.2976 C   0  0  0  0  0  0  0  0  0  0  0  0
   20.5351  -21.0009  -13.6889 C   0  0  0  0  0  0  0  0  0  0  0  0
   19.3843  -21.0304  -14.1858 O   0  0  0  0  0  0  0  0  0  0  0  0
   24.6326  -21.3562  -14.9482 C   0  0  0  0  0  0  0  0  0  0  0  0
   24.9101  -22.5801  -14.3146 O   0  0  0  0  0  0  0  0  0  0  0  0
   20.6918  -21.6801  -12.4681 O   0  0  0  0  0  0  0  0  0  0  0  0
   24.7445  -21.3114  -16.1938 O   0  0  0  0  0  0  0  0  0  0  0  0
  2  1  1  0
  3  2  2  0
  4  3  1  0
  5  4  2  0
  5 11  1  0
  6  5  1  0
  7  8  1  6
  7  6  1  0
  9 10  2  0
  9  7  1  0
 11 12  2  0
 12  2  1  0
 14 16  1  0
 14 13  1  6
 15 14  1  0
 17 16  1  1
 17 19  1  0
 17 18  1  0
 18  9  1  0
 19 21  1  0
 20 19  2  0
 21 22  1  0
 22 27  1  0
 23 24  1  0
 22 23  1  6
 24 25  1  0
 25 26  2  0
 27 30  2  0
 27 28  1  0
 29 25  1  0
M  END
$$$$
