YLE.pdb
     RDKit          3D

 30 30  0  0  1  0  0  0  0  0999 V2000
   29.6571  -16.7576  -19.2265 O   0  0  0  0  0  0  0  0  0  0  0  0
   28.7417  -17.4853  -18.4553 C   0  0  0  0  0  0  0  0  0  0  0  0
   28.2155  -18.6639  -18.9248 C   0  0  0  0  0  0  0  0  0  0  0  0
   27.2959  -19.4018  -18.1555 C   0  0  0  0  0  0  0  0  0  0  0  0
   26.8940  -18.9725  -16.9123 C   0  0  0  0  0  0  0  0  0  0  0  0
   25.9333  -19.7208  -16.0578 C   0  0  0  0  0  0  0  0  0  0  0  0
   26.5976  -20.7531  -15.1808 C   0  0  2  0  0  0  0  0  0  0  0  0
   27.2423  -21.7892  -15.9344 N   0  0  0  0  0  0  0  0  0  0  0  0
   25.5378  -21.3094  -14.2362 C   0  0  0  0  0  0  0  0  0  0  0  0
   24.8979  -22.3100  -14.6084 O   0  0  0  0  0  0  0  0  0  0  0  0
   27.4488  -17.7661  -16.4610 C   0  0  0  0  0  0  0  0  0  0  0  0
   28.3485  -17.0410  -17.2128 C   0  0  0  0  0  0  0  0  0  0  0  0
   26.1451  -20.6701   -8.5170 C   0  0  0  0  0  0  0  0  0  0  0  0
   25.8065  -21.1682   -9.8755 C   0  0  2  0  0  0  0  0  0  0  0  0
   27.0535  -21.3460  -10.7273 C   0  0  0  0  0  0  0  0  0  0  0  0
   24.7083  -20.4717  -10.5946 C   0  0  0  0  0  0  0  0  0  0  0  0
   24.3896  -20.8509  -11.9800 C   0  0  2  0  0  0  0  0  0  0  0  0
   25.3285  -20.6796  -12.9972 N   0  0  0  0  0  0  0  0  0  0  0  0
   22.9482  -20.6252  -12.2673 C   0  0  0  0  0  0  0  0  0  0  0  0
   22.0546  -20.7053  -11.4047 O   0  0  0  0  0  0  0  0  0  0  0  0
   22.5088  -20.2938  -13.5913 N   0  0  0  0  0  0  0  0  0  0  0  0
   21.1246  -19.9875  -13.8963 C   0  0  1  0  0  0  0  0  0  0  0  0
   20.9168  -19.1058  -15.0664 C   0  0  0  0  0  0  0  0  0  0  0  0
   19.5093  -18.7316  -15.4071 C   0  0  0  0  0  0  0  0  0  0  0  0
   19.4237  -17.8635  -16.5920 C   0  0  0  0  0  0  0  0  0  0  0  0
   20.3778  -17.6304  -17.3713 O   0  0  0  0  0  0  0  0  0  0  0  0
   20.3532  -21.2347  -14.0160 C   0  0  0  0  0  0  0  0  0  0  0  0
   20.9910  -22.4110  -14.4468 O   0  0  0  0  0  0  0  0  0  0  0  0
   18.2071  -17.2346  -16.9093 O   0  0  0  0  0  0  0  0  0  0  0  0
   19.1336  -21.3045  -13.7441 O   0  0  0  0  0  0  0  0  0  0  0  0
  2  1  1  0
  3  2  2  0
  4  3  1  0
  5  4  2  0
  5 11  1  0
  6  5  1  0
  7  8  1  6
  7  6  1  0
  9 10  2  0
  9  7  1  0
 11 12  2  0
 12  2  1  0
 14 16  1  0
 14 13  1  1
 15 14  1  0
 17 16  1  1
 17 19  1  0
 17 18  1  0
 18  9  1  0
 19 21  1  0
 20 19  2  0
 21 22  1  0
 22 27  1  0
 23 24  1  0
 22 23  1  6
 24 25  1  0
 25 26  2  0
 27 30  2  0
 27 28  1  0
 29 25  1  0
M  END
$$$$
