YLE.pdb
     RDKit          3D

 30 30  0  0  1  0  0  0  0  0999 V2000
   17.9152  -20.9197  -13.3902 O   0  0  0  0  0  0  0  0  0  0  0  0
   18.9637  -21.3826  -14.1957 C   0  0  0  0  0  0  0  0  0  0  0  0
   18.7921  -22.4825  -15.0002 C   0  0  0  0  0  0  0  0  0  0  0  0
   19.8403  -22.9534  -15.8135 C   0  0  0  0  0  0  0  0  0  0  0  0
   21.0671  -22.3321  -15.8328 C   0  0  0  0  0  0  0  0  0  0  0  0
   22.2019  -22.7852  -16.6814 C   0  0  0  0  0  0  0  0  0  0  0  0
   23.0781  -23.8098  -16.0041 C   0  0  2  0  0  0  0  0  0  0  0  0
   22.3441  -24.9566  -15.5537 N   0  0  0  0  0  0  0  0  0  0  0  0
   23.8062  -23.1127  -14.8600 C   0  0  0  0  0  0  0  0  0  0  0  0
   23.2792  -23.1450  -13.7330 O   0  0  0  0  0  0  0  0  0  0  0  0
   21.2109  -21.2124  -15.0008 C   0  0  0  0  0  0  0  0  0  0  0  0
   20.1866  -20.7499  -14.2026 C   0  0  0  0  0  0  0  0  0  0  0  0
   29.4760  -20.7889  -13.5061 C   0  0  0  0  0  0  0  0  0  0  0  0
   27.9934  -20.6935  -13.4707 C   0  0  2  0  0  0  0  0  0  0  0  0
   27.4689  -20.7418  -12.0443 C   0  0  0  0  0  0  0  0  0  0  0  0
   27.2387  -21.5784  -14.3956 C   0  0  0  0  0  0  0  0  0  0  0  0
   25.7698  -21.5050  -14.4370 C   0  0  2  0  0  0  0  0  0  0  0  0
   25.0293  -22.4705  -15.1191 N   0  0  0  0  0  0  0  0  0  0  0  0
   25.3154  -20.0892  -14.4487 C   0  0  0  0  0  0  0  0  0  0  0  0
   25.9995  -19.1441  -14.0153 O   0  0  0  0  0  0  0  0  0  0  0  0
   24.0296  -19.7374  -14.9769 N   0  0  0  0  0  0  0  0  0  0  0  0
   23.8269  -18.5713  -15.8148 C   0  0  1  0  0  0  0  0  0  0  0  0
   24.6681  -18.5145  -17.0308 C   0  0  0  0  0  0  0  0  0  0  0  0
   24.4612  -17.3605  -17.9596 C   0  0  0  0  0  0  0  0  0  0  0  0
   25.3842  -17.3815  -19.1054 C   0  0  0  0  0  0  0  0  0  0  0  0
   25.4414  -18.3030  -19.9537 O   0  0  0  0  0  0  0  0  0  0  0  0
   22.3983  -18.4336  -16.1393 C   0  0  0  0  0  0  0  0  0  0  0  0
   21.4916  -19.4281  -15.7332 O   0  0  0  0  0  0  0  0  0  0  0  0
   26.2782  -16.3142  -19.3004 O   0  0  0  0  0  0  0  0  0  0  0  0
   21.9389  -17.4538  -16.7678 O   0  0  0  0  0  0  0  0  0  0  0  0
  2  1  1  0
  3  2  2  0
  4  3  1  0
  5  4  2  0
  5 11  1  0
  6  5  1  0
  7  8  1  1
  7  6  1  0
  9 10  2  0
  9  7  1  0
 11 12  2  0
 12  2  1  0
 14 16  1  0
 14 13  1  1
 15 14  1  0
 17 16  1  6
 17 19  1  0
 17 18  1  0
 18  9  1  0
 19 21  1  0
 20 19  2  0
 21 22  1  0
 22 27  1  0
 23 24  1  0
 22 23  1  6
 24 25  1  0
 25 26  2  0
 27 30  2  0
 27 28  1  0
 29 25  1  0
M  END
$$$$
