YLE.pdb
     RDKit          3D

 30 30  0  0  1  0  0  0  0  0999 V2000
   22.6207  -13.9772  -25.9867 O   0  0  0  0  0  0  0  0  0  0  0  0
   22.5352  -14.5016  -24.6905 C   0  0  0  0  0  0  0  0  0  0  0  0
   21.8860  -15.6898  -24.4601 C   0  0  0  0  0  0  0  0  0  0  0  0
   21.7966  -16.2241  -23.1607 C   0  0  0  0  0  0  0  0  0  0  0  0
   22.3539  -15.5800  -22.0809 C   0  0  0  0  0  0  0  0  0  0  0  0
   22.2948  -16.1083  -20.6914 C   0  0  0  0  0  0  0  0  0  0  0  0
   23.5850  -16.7498  -20.2444 C   0  0  2  0  0  0  0  0  0  0  0  0
   24.0037  -17.8148  -21.1090 N   0  0  0  0  0  0  0  0  0  0  0  0
   23.3935  -17.2229  -18.8076 C   0  0  0  0  0  0  0  0  0  0  0  0
   22.9969  -18.3891  -18.6297 O   0  0  0  0  0  0  0  0  0  0  0  0
   23.0096  -14.3696  -22.3485 C   0  0  0  0  0  0  0  0  0  0  0  0
   23.0975  -13.8435  -23.6197 C   0  0  0  0  0  0  0  0  0  0  0  0
   26.9151  -16.7935  -15.2562 C   0  0  0  0  0  0  0  0  0  0  0  0
   26.0425  -15.7861  -15.9136 C   0  0  2  0  0  0  0  0  0  0  0  0
   26.6763  -14.4041  -15.8897 C   0  0  0  0  0  0  0  0  0  0  0  0
   24.6104  -15.7735  -15.5171 C   0  0  0  0  0  0  0  0  0  0  0  0
   23.6144  -16.4481  -16.3642 C   0  0  2  0  0  0  0  0  0  0  0  0
   23.6703  -16.3354  -17.7534 N   0  0  0  0  0  0  0  0  0  0  0  0
   22.2923  -16.4930  -15.6851 C   0  0  0  0  0  0  0  0  0  0  0  0
   21.4823  -15.5481  -15.6945 O   0  0  0  0  0  0  0  0  0  0  0  0
   21.8772  -17.6630  -14.9676 N   0  0  0  0  0  0  0  0  0  0  0  0
   20.4812  -18.0205  -14.8064 C   0  0  1  0  0  0  0  0  0  0  0  0
   19.6140  -17.7154  -15.9660 C   0  0  0  0  0  0  0  0  0  0  0  0
   18.1837  -18.1465  -15.8904 C   0  0  0  0  0  0  0  0  0  0  0  0
   17.4201  -17.7946  -17.0979 C   0  0  0  0  0  0  0  0  0  0  0  0
   17.7277  -18.1494  -18.2604 O   0  0  0  0  0  0  0  0  0  0  0  0
   20.3716  -19.4323  -14.4067 C   0  0  0  0  0  0  0  0  0  0  0  0
   21.5233  -20.2374  -14.3663 O   0  0  0  0  0  0  0  0  0  0  0  0
   16.2590  -17.0101  -16.9848 O   0  0  0  0  0  0  0  0  0  0  0  0
   19.2835  -19.9633  -14.0901 O   0  0  0  0  0  0  0  0  0  0  0  0
  2  1  1  0
  3  2  2  0
  4  3  1  0
  5  4  2  0
  5 11  1  0
  6  5  1  0
  7  8  1  6
  7  6  1  0
  9 10  2  0
  9  7  1  0
 11 12  2  0
 12  2  1  0
 14 16  1  0
 14 13  1  1
 15 14  1  0
 17 16  1  1
 17 19  1  0
 17 18  1  0
 18  9  1  0
 19 21  1  0
 20 19  2  0
 21 22  1  0
 22 27  1  0
 23 24  1  0
 22 23  1  6
 24 25  1  0
 25 26  2  0
 27 30  2  0
 27 28  1  0
 29 25  1  0
M  END
$$$$
