YLE.pdb
     RDKit          3D

 30 30  0  0  1  0  0  0  0  0999 V2000
   28.2775  -13.3692  -18.2934 O   0  0  0  0  0  0  0  0  0  0  0  0
   27.7179  -14.4533  -17.6050 C   0  0  0  0  0  0  0  0  0  0  0  0
   27.0925  -15.4665  -18.2896 C   0  0  0  0  0  0  0  0  0  0  0  0
   26.5284  -16.5600  -17.6054 C   0  0  0  0  0  0  0  0  0  0  0  0
   26.5838  -16.6536  -16.2345 C   0  0  0  0  0  0  0  0  0  0  0  0
   26.0120  -17.7926  -15.4670 C   0  0  0  0  0  0  0  0  0  0  0  0
   27.0455  -18.8144  -15.0619 C   0  0  2  0  0  0  0  0  0  0  0  0
   27.7082  -19.4089  -16.1863 N   0  0  0  0  0  0  0  0  0  0  0  0
   26.3504  -19.8564  -14.1925 C   0  0  0  0  0  0  0  0  0  0  0  0
   25.9905  -20.9169  -14.7355 O   0  0  0  0  0  0  0  0  0  0  0  0
   27.2287  -15.6039  -15.5644 C   0  0  0  0  0  0  0  0  0  0  0  0
   27.7807  -14.5314  -16.2318 C   0  0  0  0  0  0  0  0  0  0  0  0
   25.8500  -21.7428   -8.5429 C   0  0  0  0  0  0  0  0  0  0  0  0
   25.0263  -20.8376   -9.3860 C   0  0  2  0  0  0  0  0  0  0  0  0
   23.8031  -21.5537   -9.9364 C   0  0  0  0  0  0  0  0  0  0  0  0
   25.7413  -20.0384  -10.4146 C   0  0  0  0  0  0  0  0  0  0  0  0
   25.3793  -20.1862  -11.8330 C   0  0  2  0  0  0  0  0  0  0  0  0
   26.1474  -19.5830  -12.8288 N   0  0  0  0  0  0  0  0  0  0  0  0
   23.9028  -20.2637  -11.9922 C   0  0  0  0  0  0  0  0  0  0  0  0
   23.2089  -21.1868  -11.5278 O   0  0  0  0  0  0  0  0  0  0  0  0
   23.1894  -19.2472  -12.7088 N   0  0  0  0  0  0  0  0  0  0  0  0
   21.9655  -19.5232  -13.4358 C   0  0  1  0  0  0  0  0  0  0  0  0
   22.0682  -19.4141  -14.9080 C   0  0  0  0  0  0  0  0  0  0  0  0
   20.8754  -19.8186  -15.7147 C   0  0  0  0  0  0  0  0  0  0  0  0
   21.0638  -19.5969  -17.1570 C   0  0  0  0  0  0  0  0  0  0  0  0
   22.0588  -19.0259  -17.6631 O   0  0  0  0  0  0  0  0  0  0  0  0
   21.4275  -20.8304  -13.0272 C   0  0  0  0  0  0  0  0  0  0  0  0
   20.0479  -20.9769  -12.8002 O   0  0  0  0  0  0  0  0  0  0  0  0
   20.0867  -20.0417  -18.0645 O   0  0  0  0  0  0  0  0  0  0  0  0
   22.1496  -21.8407  -12.8724 O   0  0  0  0  0  0  0  0  0  0  0  0
  2  1  1  0
  3  2  2  0
  4  3  1  0
  5  4  2  0
  5 11  1  0
  6  5  1  0
  7  8  1  6
  7  6  1  0
  9 10  2  0
  9  7  1  0
 11 12  2  0
 12  2  1  0
 14 16  1  0
 14 13  1  6
 15 14  1  0
 17 16  1  1
 17 19  1  0
 17 18  1  0
 18  9  1  0
 19 21  1  0
 20 19  2  0
 21 22  1  0
 22 27  1  0
 23 24  1  0
 22 23  1  6
 24 25  1  0
 25 26  2  0
 27 30  2  0
 27 28  1  0
 29 25  1  0
M  END
$$$$
