TKY.pdb
     RDKit          3D

 29 29  0  0  1  0  0  0  0  0999 V2000
   17.3218  -22.2355  -14.3035 C   0  0  0  0  0  0  0  0  0  0  0  0
   18.6257  -21.5247  -13.9844 C   0  0  1  0  0  0  0  0  0  0  0  0
   18.4312  -20.4114  -13.1842 O   0  0  0  0  0  0  0  0  0  0  0  0
   19.5605  -22.4592  -13.3058 C   0  0  2  0  0  0  0  0  0  0  0  0
   19.2528  -22.6695  -11.9141 N   0  0  0  0  0  0  0  0  0  0  0  0
   20.9473  -21.9571  -13.4118 C   0  0  0  0  0  0  0  0  0  0  0  0
   21.4126  -21.1494  -12.5396 O   0  0  0  0  0  0  0  0  0  0  0  0
   21.8247  -22.3361  -14.4583 N   0  0  0  0  0  0  0  0  0  0  0  0
   23.1491  -21.8455  -14.6085 C   0  0  1  0  0  0  0  0  0  0  0  0
   24.1513  -22.7010  -15.2724 C   0  0  0  0  0  0  0  0  0  0  0  0
   25.5584  -22.2247  -15.3057 C   0  0  0  0  0  0  0  0  0  0  0  0
   26.5697  -23.1264  -15.9074 C   0  0  0  0  0  0  0  0  0  0  0  0
   27.9062  -22.3624  -15.8806 C   0  0  0  0  0  0  0  0  0  0  0  0
   28.9576  -23.1838  -16.4564 N   0  0  0  0  0  0  0  0  0  0  0  0
   23.1073  -20.4778  -15.2597 C   0  0  0  0  0  0  0  0  0  0  0  0
   22.2965  -20.2735  -16.2023 O   0  0  0  0  0  0  0  0  0  0  0  0
   24.3835  -12.1645  -17.6022 O   0  0  0  0  0  0  0  0  0  0  0  0
   24.2862  -13.3648  -16.9021 C   0  0  0  0  0  0  0  0  0  0  0  0
   25.4575  -13.8652  -16.3466 C   0  0  0  0  0  0  0  0  0  0  0  0
   25.4262  -15.0534  -15.6418 C   0  0  0  0  0  0  0  0  0  0  0  0
   24.2375  -15.7580  -15.4780 C   0  0  0  0  0  0  0  0  0  0  0  0
   24.2452  -17.0148  -14.7167 C   0  0  0  0  0  0  0  0  0  0  0  0
   23.8778  -18.1640  -15.5954 C   0  0  2  0  0  0  0  0  0  0  0  0
   23.9292  -19.4186  -14.8681 N   0  0  0  0  0  0  0  0  0  0  0  0
   24.7160  -18.2770  -16.8280 C   0  0  0  0  0  0  0  0  0  0  0  0
   24.2433  -17.7745  -18.0347 O   0  0  0  0  0  0  0  0  0  0  0  0
   23.1061  -15.2184  -16.0468 C   0  0  0  0  0  0  0  0  0  0  0  0
   23.1102  -14.0413  -16.7516 C   0  0  0  0  0  0  0  0  0  0  0  0
   25.8495  -18.8104  -16.8594 O   0  0  0  0  0  0  0  0  0  0  0  0
  2  3  1  0
  2  1  1  1
  4  2  1  0
  4  5  1  1
  6  7  2  0
  6  4  1  0
  8  6  1  0
  9  8  1  0
  9 10  1  6
 11 12  1  0
 11 10  1  0
 12 13  1  0
 14 13  1  0
 15 24  1  0
 15  9  1  0
 16 15  2  0
 18 17  1  0
 19 18  2  0
 20 19  1  0
 21 27  1  0
 21 20  2  0
 23 22  1  1
 22 21  1  0
 23 24  1  0
 23 25  1  0
 25 26  1  0
 27 28  2  0
 28 18  1  0
 29 25  2  0
M  END
$$$$
