TKY.pdb
     RDKit          3D

 29 29  0  0  1  0  0  0  0  0999 V2000
   29.1979  -19.4700  -13.7203 C   0  0  0  0  0  0  0  0  0  0  0  0
   28.3605  -18.3525  -14.3180 C   0  0  1  0  0  0  0  0  0  0  0  0
   29.0342  -17.6738  -15.3196 O   0  0  0  0  0  0  0  0  0  0  0  0
   27.0941  -18.9041  -14.8653 C   0  0  2  0  0  0  0  0  0  0  0  0
   26.2767  -17.9188  -15.5261 N   0  0  0  0  0  0  0  0  0  0  0  0
   26.3012  -19.5262  -13.7834 C   0  0  0  0  0  0  0  0  0  0  0  0
   25.5276  -18.8169  -13.0567 O   0  0  0  0  0  0  0  0  0  0  0  0
   26.3458  -20.9136  -13.4971 N   0  0  0  0  0  0  0  0  0  0  0  0
   25.5646  -21.5489  -12.4956 C   0  0  1  0  0  0  0  0  0  0  0  0
   25.1197  -22.9381  -12.7179 C   0  0  0  0  0  0  0  0  0  0  0  0
   24.3204  -23.2248  -13.9372 C   0  0  0  0  0  0  0  0  0  0  0  0
   23.7788  -24.5962  -14.0910 C   0  0  0  0  0  0  0  0  0  0  0  0
   23.0451  -24.6262  -15.4443 C   0  0  0  0  0  0  0  0  0  0  0  0
   22.5004  -25.9521  -15.6828 N   0  0  0  0  0  0  0  0  0  0  0  0
   26.2667  -21.4267  -11.1581 C   0  0  0  0  0  0  0  0  0  0  0  0
   27.5208  -21.3079  -11.1341 O   0  0  0  0  0  0  0  0  0  0  0  0
   29.3784  -18.6427   -3.7751 O   0  0  0  0  0  0  0  0  0  0  0  0
   28.8533  -18.9912   -5.0174 C   0  0  0  0  0  0  0  0  0  0  0  0
   27.6610  -18.3821   -5.3892 C   0  0  0  0  0  0  0  0  0  0  0  0
   27.0889  -18.6881   -6.6092 C   0  0  0  0  0  0  0  0  0  0  0  0
   27.6896  -19.5977   -7.4742 C   0  0  0  0  0  0  0  0  0  0  0  0
   27.0523  -19.8916   -8.7651 C   0  0  0  0  0  0  0  0  0  0  0  0
   26.3252  -21.1939   -8.7081 C   0  0  2  0  0  0  0  0  0  0  0  0
   25.5913  -21.4397   -9.9356 N   0  0  0  0  0  0  0  0  0  0  0  0
   25.3930  -21.3175   -7.5461 C   0  0  0  0  0  0  0  0  0  0  0  0
   25.8931  -21.6335   -6.2884 O   0  0  0  0  0  0  0  0  0  0  0  0
   28.8697  -20.1715   -7.0587 C   0  0  0  0  0  0  0  0  0  0  0  0
   29.4581  -19.8856   -5.8526 C   0  0  0  0  0  0  0  0  0  0  0  0
   24.1526  -21.1555   -7.6212 O   0  0  0  0  0  0  0  0  0  0  0  0
  2  3  1  0
  2  1  1  6
  4  2  1  0
  4  5  1  1
  6  7  2  0
  6  4  1  0
  8  6  1  0
  9  8  1  0
  9 10  1  6
 11 12  1  0
 11 10  1  0
 12 13  1  0
 14 13  1  0
 15 24  1  0
 15  9  1  0
 16 15  2  0
 18 17  1  0
 19 18  2  0
 20 19  1  0
 21 27  1  0
 21 20  2  0
 23 22  1  6
 22 21  1  0
 23 24  1  0
 23 25  1  0
 25 26  1  0
 27 28  2  0
 28 18  1  0
 29 25  2  0
M  END
$$$$
