TKY.pdb
     RDKit          3D

 29 29  0  0  1  0  0  0  0  0999 V2000
   26.0525  -15.8983  -18.1283 C   0  0  0  0  0  0  0  0  0  0  0  0
   24.6605  -16.4897  -17.9876 C   0  0  1  0  0  0  0  0  0  0  0  0
   23.8350  -16.1383  -19.0424 O   0  0  0  0  0  0  0  0  0  0  0  0
   24.7443  -17.9707  -17.9026 C   0  0  2  0  0  0  0  0  0  0  0  0
   25.2522  -18.5870  -19.1018 N   0  0  0  0  0  0  0  0  0  0  0  0
   23.4115  -18.5392  -17.6081 C   0  0  0  0  0  0  0  0  0  0  0  0
   22.4872  -18.5139  -18.4882 O   0  0  0  0  0  0  0  0  0  0  0  0
   23.0878  -19.1366  -16.3643 N   0  0  0  0  0  0  0  0  0  0  0  0
   21.7940  -19.6081  -16.0163 C   0  0  1  0  0  0  0  0  0  0  0  0
   21.6814  -20.7651  -15.1076 C   0  0  0  0  0  0  0  0  0  0  0  0
   20.3236  -21.3010  -14.8303 C   0  0  0  0  0  0  0  0  0  0  0  0
   20.2240  -22.4731  -13.9281 C   0  0  0  0  0  0  0  0  0  0  0  0
   18.7285  -22.8284  -13.8380 C   0  0  0  0  0  0  0  0  0  0  0  0
   18.5435  -23.9729  -12.9619 N   0  0  0  0  0  0  0  0  0  0  0  0
   20.9586  -18.4516  -15.5052 C   0  0  0  0  0  0  0  0  0  0  0  0
   21.3813  -17.7757  -14.5296 O   0  0  0  0  0  0  0  0  0  0  0  0
   17.4290  -15.7916  -21.5580 O   0  0  0  0  0  0  0  0  0  0  0  0
   17.8593  -15.7378  -20.2342 C   0  0  0  0  0  0  0  0  0  0  0  0
   19.1055  -16.2858  -19.9555 C   0  0  0  0  0  0  0  0  0  0  0  0
   19.5870  -16.2646  -18.6605 C   0  0  0  0  0  0  0  0  0  0  0  0
   18.8427  -15.7009  -17.6286 C   0  0  0  0  0  0  0  0  0  0  0  0
   19.3927  -15.6931  -16.2661 C   0  0  0  0  0  0  0  0  0  0  0  0
   19.0151  -16.9411  -15.5395 C   0  0  2  0  0  0  0  0  0  0  0  0
   19.7301  -18.0902  -16.0630 N   0  0  0  0  0  0  0  0  0  0  0  0
   17.5483  -17.2291  -15.5509 C   0  0  0  0  0  0  0  0  0  0  0  0
   16.6610  -16.3244  -14.9798 O   0  0  0  0  0  0  0  0  0  0  0  0
   17.6160  -15.1708  -17.9584 C   0  0  0  0  0  0  0  0  0  0  0  0
   17.1147  -15.1797  -19.2355 C   0  0  0  0  0  0  0  0  0  0  0  0
   17.0394  -18.2597  -16.0501 O   0  0  0  0  0  0  0  0  0  0  0  0
  2  3  1  0
  2  1  1  6
  4  2  1  0
  4  5  1  6
  6  7  2  0
  6  4  1  0
  8  6  1  0
  9  8  1  0
  9 10  1  1
 11 12  1  0
 11 10  1  0
 12 13  1  0
 14 13  1  0
 15 24  1  0
 15  9  1  0
 16 15  2  0
 18 17  1  0
 19 18  2  0
 20 19  1  0
 21 27  1  0
 21 20  2  0
 23 22  1  6
 22 21  1  0
 23 24  1  0
 23 25  1  0
 25 26  1  0
 27 28  2  0
 28 18  1  0
 29 25  2  0
M  END
$$$$
