TKY.pdb
     RDKit          3D

 29 29  0  0  1  0  0  0  0  0999 V2000
   22.3817  -15.7317  -18.7884 C   0  0  0  0  0  0  0  0  0  0  0  0
   23.5959  -14.9901  -18.2564 C   0  0  1  0  0  0  0  0  0  0  0  0
   23.6246  -14.9609  -16.8722 O   0  0  0  0  0  0  0  0  0  0  0  0
   24.8405  -15.6270  -18.7594 C   0  0  2  0  0  0  0  0  0  0  0  0
   24.9164  -15.6828  -20.1971 N   0  0  0  0  0  0  0  0  0  0  0  0
   24.9593  -17.0013  -18.2270 C   0  0  0  0  0  0  0  0  0  0  0  0
   24.1432  -17.9115  -18.5944 O   0  0  0  0  0  0  0  0  0  0  0  0
   25.9639  -17.3843  -17.3035 N   0  0  0  0  0  0  0  0  0  0  0  0
   26.0802  -18.6836  -16.7417 C   0  0  1  0  0  0  0  0  0  0  0  0
   27.4097  -19.1508  -16.3043 C   0  0  0  0  0  0  0  0  0  0  0  0
   27.5264  -20.5457  -15.8058 C   0  0  0  0  0  0  0  0  0  0  0  0
   27.0302  -21.6290  -16.6877 C   0  0  0  0  0  0  0  0  0  0  0  0
   27.2141  -22.9443  -15.9087 C   0  0  0  0  0  0  0  0  0  0  0  0
   26.6264  -24.0461  -16.6518 N   0  0  0  0  0  0  0  0  0  0  0  0
   25.0709  -18.8388  -15.6220 C   0  0  0  0  0  0  0  0  0  0  0  0
   25.1385  -18.0698  -14.6263 O   0  0  0  0  0  0  0  0  0  0  0  0
   18.5606  -17.8932  -18.3970 O   0  0  0  0  0  0  0  0  0  0  0  0
   19.4666  -18.1176  -17.3631 C   0  0  0  0  0  0  0  0  0  0  0  0
   20.6454  -17.3823  -17.3896 C   0  0  0  0  0  0  0  0  0  0  0  0
   21.5850  -17.5615  -16.3924 C   0  0  0  0  0  0  0  0  0  0  0  0
   21.3688  -18.4680  -15.3589 C   0  0  0  0  0  0  0  0  0  0  0  0
   22.3903  -18.6251  -14.3144 C   0  0  0  0  0  0  0  0  0  0  0  0
   23.1479  -19.8966  -14.5070 C   0  0  2  0  0  0  0  0  0  0  0  0
   24.0578  -19.8003  -15.6333 N   0  0  0  0  0  0  0  0  0  0  0  0
   22.2785  -21.1002  -14.6803 C   0  0  0  0  0  0  0  0  0  0  0  0
   21.4040  -21.4738  -13.6666 O   0  0  0  0  0  0  0  0  0  0  0  0
   20.1849  -19.1697  -15.3788 C   0  0  0  0  0  0  0  0  0  0  0  0
   19.2361  -19.0111  -16.3572 C   0  0  0  0  0  0  0  0  0  0  0  0
   22.2790  -21.8248  -15.7027 O   0  0  0  0  0  0  0  0  0  0  0  0
  2  3  1  0
  2  1  1  1
  4  2  1  0
  4  5  1  6
  6  7  2  0
  6  4  1  0
  8  6  1  0
  9  8  1  0
  9 10  1  1
 11 12  1  0
 11 10  1  0
 12 13  1  0
 14 13  1  0
 15 24  1  0
 15  9  1  0
 16 15  2  0
 18 17  1  0
 19 18  2  0
 20 19  1  0
 21 27  1  0
 21 20  2  0
 23 22  1  6
 22 21  1  0
 23 24  1  0
 23 25  1  0
 25 26  1  0
 27 28  2  0
 28 18  1  0
 29 25  2  0
M  END
$$$$
