TKY.pdb
     RDKit          3D

 29 29  0  0  1  0  0  0  0  0999 V2000
   18.0430  -17.4031  -21.9536 C   0  0  0  0  0  0  0  0  0  0  0  0
   18.3959  -18.5436  -21.0145 C   0  0  1  0  0  0  0  0  0  0  0  0
   17.6214  -19.6682  -21.2450 O   0  0  0  0  0  0  0  0  0  0  0  0
   19.8313  -18.8977  -21.1627 C   0  0  2  0  0  0  0  0  0  0  0  0
   20.2188  -20.0562  -20.3989 N   0  0  0  0  0  0  0  0  0  0  0  0
   20.6806  -17.7581  -20.7552 C   0  0  0  0  0  0  0  0  0  0  0  0
   20.2428  -16.8847  -19.9336 O   0  0  0  0  0  0  0  0  0  0  0  0
   22.0013  -17.5727  -21.2351 N   0  0  0  0  0  0  0  0  0  0  0  0
   22.8516  -16.5044  -20.8440 C   0  0  1  0  0  0  0  0  0  0  0  0
   24.2920  -16.5958  -21.1504 C   0  0  0  0  0  0  0  0  0  0  0  0
   25.0000  -17.8522  -20.7928 C   0  0  0  0  0  0  0  0  0  0  0  0
   26.4564  -17.9150  -21.0623 C   0  0  0  0  0  0  0  0  0  0  0  0
   26.9256  -19.3074  -20.6021 C   0  0  0  0  0  0  0  0  0  0  0  0
   28.3363  -19.4797  -20.9053 N   0  0  0  0  0  0  0  0  0  0  0  0
   22.2840  -15.1967  -21.3580 C   0  0  0  0  0  0  0  0  0  0  0  0
   22.0178  -15.0853  -22.5844 O   0  0  0  0  0  0  0  0  0  0  0  0
   17.7105   -8.4024  -23.5003 O   0  0  0  0  0  0  0  0  0  0  0  0
   18.2705   -9.5828  -23.0171 C   0  0  0  0  0  0  0  0  0  0  0  0
   19.2809  -10.1570  -23.7789 C   0  0  0  0  0  0  0  0  0  0  0  0
   19.8747  -11.3299  -23.3532 C   0  0  0  0  0  0  0  0  0  0  0  0
   19.4771  -11.9461  -22.1706 C   0  0  0  0  0  0  0  0  0  0  0  0
   20.1377  -13.1893  -21.7498 C   0  0  0  0  0  0  0  0  0  0  0  0
   21.4503  -12.8945  -21.1033 C   0  0  2  0  0  0  0  0  0  0  0  0
   22.0377  -14.0942  -20.5365 N   0  0  0  0  0  0  0  0  0  0  0  0
   21.3832  -11.8363  -20.0496 C   0  0  0  0  0  0  0  0  0  0  0  0
   20.9963  -10.5452  -20.3892 O   0  0  0  0  0  0  0  0  0  0  0  0
   18.4735  -11.3357  -21.4531 C   0  0  0  0  0  0  0  0  0  0  0  0
   17.8672  -10.1719  -21.8537 C   0  0  0  0  0  0  0  0  0  0  0  0
   21.6608  -12.0290  -18.8429 O   0  0  0  0  0  0  0  0  0  0  0  0
  2  3  1  0
  2  1  1  6
  4  2  1  0
  4  5  1  1
  6  7  2  0
  6  4  1  0
  8  6  1  0
  9  8  1  0
  9 10  1  6
 11 12  1  0
 11 10  1  0
 12 13  1  0
 14 13  1  0
 15 24  1  0
 15  9  1  0
 16 15  2  0
 18 17  1  0
 19 18  2  0
 20 19  1  0
 21 27  1  0
 21 20  2  0
 23 22  1  1
 22 21  1  0
 23 24  1  0
 23 25  1  0
 25 26  1  0
 27 28  2  0
 28 18  1  0
 29 25  2  0
M  END
$$$$
