TKY.pdb
     RDKit          3D

 29 29  0  0  1  0  0  0  0  0999 V2000
   16.7608  -13.5588  -18.0509 C   0  0  0  0  0  0  0  0  0  0  0  0
   17.9990  -13.0199  -17.3554 C   0  0  1  0  0  0  0  0  0  0  0  0
   18.8166  -14.0338  -16.8852 O   0  0  0  0  0  0  0  0  0  0  0  0
   18.7717  -12.1598  -18.2887 C   0  0  2  0  0  0  0  0  0  0  0  0
   19.2847  -12.8697  -19.4326 N   0  0  0  0  0  0  0  0  0  0  0  0
   19.9043  -11.5284  -17.5782 C   0  0  0  0  0  0  0  0  0  0  0  0
   19.7107  -10.8835  -16.4938 O   0  0  0  0  0  0  0  0  0  0  0  0
   21.2413  -11.6029  -18.0427 N   0  0  0  0  0  0  0  0  0  0  0  0
   22.3640  -11.1028  -17.3309 C   0  0  1  0  0  0  0  0  0  0  0  0
   23.6821  -11.7265  -17.5564 C   0  0  0  0  0  0  0  0  0  0  0  0
   24.8294  -11.2373  -16.7488 C   0  0  0  0  0  0  0  0  0  0  0  0
   26.1238  -11.9428  -16.9053 C   0  0  0  0  0  0  0  0  0  0  0  0
   27.1189  -11.2429  -15.9616 C   0  0  0  0  0  0  0  0  0  0  0  0
   28.3573  -12.0004  -15.8979 N   0  0  0  0  0  0  0  0  0  0  0  0
   22.4506   -9.6017  -17.5200 C   0  0  0  0  0  0  0  0  0  0  0  0
   22.9178   -9.1467  -18.5980 O   0  0  0  0  0  0  0  0  0  0  0  0
   15.9971   -6.2365  -17.3183 O   0  0  0  0  0  0  0  0  0  0  0  0
   17.3575   -6.4435  -17.5347 C   0  0  0  0  0  0  0  0  0  0  0  0
   18.2254   -5.4688  -17.0574 C   0  0  0  0  0  0  0  0  0  0  0  0
   19.5868   -5.6161  -17.2429 C   0  0  0  0  0  0  0  0  0  0  0  0
   20.1040   -6.7281  -17.9005 C   0  0  0  0  0  0  0  0  0  0  0  0
   21.5581   -6.8503  -18.0724 C   0  0  0  0  0  0  0  0  0  0  0  0
   22.2060   -7.2627  -16.7925 C   0  0  2  0  0  0  0  0  0  0  0  0
   22.0365   -8.6836  -16.5521 N   0  0  0  0  0  0  0  0  0  0  0  0
   21.7268   -6.5025  -15.5979 C   0  0  0  0  0  0  0  0  0  0  0  0
   21.8885   -5.1230  -15.5449 O   0  0  0  0  0  0  0  0  0  0  0  0
   19.2018   -7.6644  -18.3523 C   0  0  0  0  0  0  0  0  0  0  0  0
   17.8459   -7.5417  -18.1817 C   0  0  0  0  0  0  0  0  0  0  0  0
   21.1739   -7.0311  -14.6053 O   0  0  0  0  0  0  0  0  0  0  0  0
  2  3  1  0
  2  1  1  6
  4  2  1  0
  4  5  1  6
  6  7  2  0
  6  4  1  0
  8  6  1  0
  9  8  1  0
  9 10  1  6
 11 12  1  0
 11 10  1  0
 12 13  1  0
 14 13  1  0
 15 24  1  0
 15  9  1  0
 16 15  2  0
 18 17  1  0
 19 18  2  0
 20 19  1  0
 21 27  1  0
 21 20  2  0
 23 22  1  6
 22 21  1  0
 23 24  1  0
 23 25  1  0
 25 26  1  0
 27 28  2  0
 28 18  1  0
 29 25  2  0
M  END
$$$$
