TKY.pdb
     RDKit          3D

 29 29  0  0  1  0  0  0  0  0999 V2000
   28.7764  -21.6655  -16.7189 C   0  0  0  0  0  0  0  0  0  0  0  0
   27.3014  -21.5095  -16.3912 C   0  0  1  0  0  0  0  0  0  0  0  0
   27.0773  -21.4091  -15.0283 O   0  0  0  0  0  0  0  0  0  0  0  0
   26.7556  -20.3047  -17.0681 C   0  0  2  0  0  0  0  0  0  0  0  0
   27.5103  -19.1062  -16.8043 N   0  0  0  0  0  0  0  0  0  0  0  0
   25.3539  -20.0804  -16.6542 C   0  0  0  0  0  0  0  0  0  0  0  0
   25.0818  -19.2918  -15.6880 O   0  0  0  0  0  0  0  0  0  0  0  0
   24.2540  -20.7068  -17.2918 N   0  0  0  0  0  0  0  0  0  0  0  0
   22.8943  -20.4680  -16.9580 C   0  0  1  0  0  0  0  0  0  0  0  0
   21.9747  -20.0069  -18.0157 C   0  0  0  0  0  0  0  0  0  0  0  0
   22.2022  -18.6573  -18.5943 C   0  0  0  0  0  0  0  0  0  0  0  0
   21.2654  -18.2002  -19.6483 C   0  0  0  0  0  0  0  0  0  0  0  0
   21.8700  -18.6457  -20.9924 C   0  0  0  0  0  0  0  0  0  0  0  0
   20.9955  -18.2510  -22.0838 N   0  0  0  0  0  0  0  0  0  0  0  0
   22.3270  -21.6873  -16.2594 C   0  0  0  0  0  0  0  0  0  0  0  0
   22.8041  -22.8225  -16.5261 O   0  0  0  0  0  0  0  0  0  0  0  0
   19.5249  -18.4355  -10.1990 O   0  0  0  0  0  0  0  0  0  0  0  0
   19.9722  -19.5399  -10.9206 C   0  0  0  0  0  0  0  0  0  0  0  0
   21.1576  -19.3893  -11.6297 C   0  0  0  0  0  0  0  0  0  0  0  0
   21.6521  -20.4485  -12.3667 C   0  0  0  0  0  0  0  0  0  0  0  0
   20.9811  -21.6668  -12.4093 C   0  0  0  0  0  0  0  0  0  0  0  0
   21.5430  -22.7703  -13.2002 C   0  0  0  0  0  0  0  0  0  0  0  0
   20.9352  -22.8032  -14.5630 C   0  0  2  0  0  0  0  0  0  0  0  0
   21.2907  -21.6207  -15.3252 N   0  0  0  0  0  0  0  0  0  0  0  0
   19.4482  -22.9562  -14.5602 C   0  0  0  0  0  0  0  0  0  0  0  0
   18.8747  -24.1340  -14.0956 O   0  0  0  0  0  0  0  0  0  0  0  0
   19.8125  -21.7637  -11.6884 C   0  0  0  0  0  0  0  0  0  0  0  0
   19.2998  -20.7275  -10.9495 C   0  0  0  0  0  0  0  0  0  0  0  0
   18.6514  -22.0757  -14.9605 O   0  0  0  0  0  0  0  0  0  0  0  0
  2  3  1  0
  2  1  1  1
  4  2  1  0
  4  5  1  1
  6  7  2  0
  6  4  1  0
  8  6  1  0
  9  8  1  0
  9 10  1  6
 11 12  1  0
 11 10  1  0
 12 13  1  0
 14 13  1  0
 15 24  1  0
 15  9  1  0
 16 15  2  0
 18 17  1  0
 19 18  2  0
 20 19  1  0
 21 27  1  0
 21 20  2  0
 23 22  1  1
 22 21  1  0
 23 24  1  0
 23 25  1  0
 25 26  1  0
 27 28  2  0
 28 18  1  0
 29 25  2  0
M  END
$$$$
