TKY.pdb
     RDKit          3D

 29 29  0  0  1  0  0  0  0  0999 V2000
   25.7292  -13.3959  -23.8225 C   0  0  0  0  0  0  0  0  0  0  0  0
   26.1591  -14.2076  -25.0323 C   0  0  1  0  0  0  0  0  0  0  0  0
   27.1137  -13.5499  -25.7898 O   0  0  0  0  0  0  0  0  0  0  0  0
   26.6987  -15.5216  -24.5964 C   0  0  2  0  0  0  0  0  0  0  0  0
   27.3947  -16.2312  -25.6394 N   0  0  0  0  0  0  0  0  0  0  0  0
   25.6043  -16.3785  -24.0920 C   0  0  0  0  0  0  0  0  0  0  0  0
   24.6853  -16.7861  -24.8786 O   0  0  0  0  0  0  0  0  0  0  0  0
   25.5133  -16.7938  -22.7400 N   0  0  0  0  0  0  0  0  0  0  0  0
   24.5103  -17.6643  -22.2367 C   0  0  1  0  0  0  0  0  0  0  0  0
   24.7760  -18.4067  -20.9896 C   0  0  0  0  0  0  0  0  0  0  0  0
   23.7329  -19.3477  -20.5056 C   0  0  0  0  0  0  0  0  0  0  0  0
   24.0979  -20.2573  -19.3934 C   0  0  0  0  0  0  0  0  0  0  0  0
   22.9562  -21.2838  -19.2769 C   0  0  0  0  0  0  0  0  0  0  0  0
   23.2685  -22.2565  -18.2434 N   0  0  0  0  0  0  0  0  0  0  0  0
   23.1981  -16.9130  -22.1349 C   0  0  0  0  0  0  0  0  0  0  0  0
   23.2113  -15.7037  -21.7815 O   0  0  0  0  0  0  0  0  0  0  0  0
   15.9481  -12.6311  -22.9408 O   0  0  0  0  0  0  0  0  0  0  0  0
   17.1694  -13.3009  -22.9507 C   0  0  0  0  0  0  0  0  0  0  0  0
   17.3105  -14.3375  -23.8653 C   0  0  0  0  0  0  0  0  0  0  0  0
   18.4981  -15.0415  -23.9222 C   0  0  0  0  0  0  0  0  0  0  0  0
   19.5582  -14.7276  -23.0772 C   0  0  0  0  0  0  0  0  0  0  0  0
   20.8067  -15.4965  -23.1731 C   0  0  0  0  0  0  0  0  0  0  0  0
   20.7507  -16.7017  -22.2943 C   0  0  2  0  0  0  0  0  0  0  0  0
   21.9596  -17.4954  -22.4139 N   0  0  0  0  0  0  0  0  0  0  0  0
   19.5635  -17.5763  -22.5395 C   0  0  0  0  0  0  0  0  0  0  0  0
   18.3462  -17.2746  -21.9403 O   0  0  0  0  0  0  0  0  0  0  0  0
   19.3672  -13.6917  -22.1911 C   0  0  0  0  0  0  0  0  0  0  0  0
   18.1982  -12.9776  -22.1139 C   0  0  0  0  0  0  0  0  0  0  0  0
   19.5820  -18.5970  -23.2662 O   0  0  0  0  0  0  0  0  0  0  0  0
  2  3  1  0
  2  1  1  1
  4  2  1  0
  4  5  1  6
  6  7  2  0
  6  4  1  0
  8  6  1  0
  9  8  1  0
  9 10  1  1
 11 12  1  0
 11 10  1  0
 12 13  1  0
 14 13  1  0
 15 24  1  0
 15  9  1  0
 16 15  2  0
 18 17  1  0
 19 18  2  0
 20 19  1  0
 21 27  1  0
 21 20  2  0
 23 22  1  6
 22 21  1  0
 23 24  1  0
 23 25  1  0
 25 26  1  0
 27 28  2  0
 28 18  1  0
 29 25  2  0
M  END
$$$$
