TKY.pdb
     RDKit          3D

 29 29  0  0  1  0  0  0  0  0999 V2000
   28.7649  -18.9622  -16.4558 C   0  0  0  0  0  0  0  0  0  0  0  0
   27.5150  -19.4002  -15.7121 C   0  0  1  0  0  0  0  0  0  0  0  0
   26.3730  -19.2597  -16.4826 O   0  0  0  0  0  0  0  0  0  0  0  0
   27.6481  -20.8175  -15.2863 C   0  0  2  0  0  0  0  0  0  0  0  0
   27.7326  -21.7426  -16.3876 N   0  0  0  0  0  0  0  0  0  0  0  0
   26.5025  -21.2018  -14.4341 C   0  0  0  0  0  0  0  0  0  0  0  0
   25.6753  -22.0928  -14.8233 O   0  0  0  0  0  0  0  0  0  0  0  0
   26.2612  -20.6235  -13.1628 N   0  0  0  0  0  0  0  0  0  0  0  0
   25.1273  -20.9089  -12.3567 C   0  0  1  0  0  0  0  0  0  0  0  0
   25.2709  -20.8630  -10.8889 C   0  0  0  0  0  0  0  0  0  0  0  0
   24.0737  -21.1696  -10.0639 C   0  0  0  0  0  0  0  0  0  0  0  0
   23.6901  -20.1834   -9.0256 C   0  0  0  0  0  0  0  0  0  0  0  0
   22.5207  -20.8075   -8.2422 C   0  0  0  0  0  0  0  0  0  0  0  0
   23.0181  -21.4469   -7.0358 N   0  0  0  0  0  0  0  0  0  0  0  0
   23.9646  -20.0446  -12.8011 C   0  0  0  0  0  0  0  0  0  0  0  0
   24.1531  -18.8123  -12.9839 O   0  0  0  0  0  0  0  0  0  0  0  0
   18.0989  -15.9240  -17.2417 O   0  0  0  0  0  0  0  0  0  0  0  0
   19.1127  -16.6582  -16.6305 C   0  0  0  0  0  0  0  0  0  0  0  0
   19.2218  -17.9969  -16.9868 C   0  0  0  0  0  0  0  0  0  0  0  0
   20.2065  -18.7785  -16.4133 C   0  0  0  0  0  0  0  0  0  0  0  0
   21.0936  -18.2451  -15.4833 C   0  0  0  0  0  0  0  0  0  0  0  0
   22.1303  -19.1081  -14.9008 C   0  0  0  0  0  0  0  0  0  0  0  0
   21.6658  -19.6874  -13.6060 C   0  0  2  0  0  0  0  0  0  0  0  0
   22.6793  -20.5453  -13.0209 N   0  0  0  0  0  0  0  0  0  0  0  0
   20.3808  -20.4446  -13.7068 C   0  0  0  0  0  0  0  0  0  0  0  0
   19.1781  -19.8071  -13.4257 O   0  0  0  0  0  0  0  0  0  0  0  0
   20.9433  -16.9141  -15.1663 C   0  0  0  0  0  0  0  0  0  0  0  0
   19.9740  -16.1166  -15.7205 C   0  0  0  0  0  0  0  0  0  0  0  0
   20.3015  -21.6517  -14.0337 O   0  0  0  0  0  0  0  0  0  0  0  0
  2  3  1  0
  2  1  1  6
  4  2  1  0
  4  5  1  6
  6  7  2  0
  6  4  1  0
  8  6  1  0
  9  8  1  0
  9 10  1  1
 11 12  1  0
 11 10  1  0
 12 13  1  0
 14 13  1  0
 15 24  1  0
 15  9  1  0
 16 15  2  0
 18 17  1  0
 19 18  2  0
 20 19  1  0
 21 27  1  0
 21 20  2  0
 23 22  1  6
 22 21  1  0
 23 24  1  0
 23 25  1  0
 25 26  1  0
 27 28  2  0
 28 18  1  0
 29 25  2  0
M  END
$$$$
