TKY.pdb
     RDKit          3D

 29 29  0  0  1  0  0  0  0  0999 V2000
   23.6446  -15.3279  -18.4675 C   0  0  0  0  0  0  0  0  0  0  0  0
   24.3516  -16.5765  -17.9692 C   0  0  1  0  0  0  0  0  0  0  0  0
   23.6211  -17.2365  -16.9953 O   0  0  0  0  0  0  0  0  0  0  0  0
   24.6064  -17.5024  -19.1029 C   0  0  2  0  0  0  0  0  0  0  0  0
   23.4090  -17.9062  -19.7950 N   0  0  0  0  0  0  0  0  0  0  0  0
   25.3050  -18.7139  -18.6227 C   0  0  0  0  0  0  0  0  0  0  0  0
   24.6578  -19.7930  -18.4079 O   0  0  0  0  0  0  0  0  0  0  0  0
   26.7012  -18.7523  -18.3824 N   0  0  0  0  0  0  0  0  0  0  0  0
   27.4038  -19.9017  -17.9323 C   0  0  1  0  0  0  0  0  0  0  0  0
   28.8333  -20.0372  -18.2715 C   0  0  0  0  0  0  0  0  0  0  0  0
   29.5391  -21.2672  -17.8277 C   0  0  0  0  0  0  0  0  0  0  0  0
   28.9713  -22.5696  -18.2505 C   0  0  0  0  0  0  0  0  0  0  0  0
   29.9680  -23.6496  -17.7915 C   0  0  0  0  0  0  0  0  0  0  0  0
   29.4010  -24.9702  -18.0066 N   0  0  0  0  0  0  0  0  0  0  0  0
   27.1972  -20.0643  -16.4398 C   0  0  0  0  0  0  0  0  0  0  0  0
   27.8545  -19.3370  -15.6484 O   0  0  0  0  0  0  0  0  0  0  0  0
   25.4102  -20.5228   -8.2265 O   0  0  0  0  0  0  0  0  0  0  0  0
   25.5756  -20.2884   -9.5896 C   0  0  0  0  0  0  0  0  0  0  0  0
   25.0755  -21.2509  -10.4582 C   0  0  0  0  0  0  0  0  0  0  0  0
   25.2105  -21.0764  -11.8223 C   0  0  0  0  0  0  0  0  0  0  0  0
   25.8398  -19.9490  -12.3415 C   0  0  0  0  0  0  0  0  0  0  0  0
   25.9581  -19.7981  -13.7983 C   0  0  0  0  0  0  0  0  0  0  0  0
   26.2137  -21.1189  -14.4447 C   0  0  2  0  0  0  0  0  0  0  0  0
   26.3076  -20.9883  -15.8869 N   0  0  0  0  0  0  0  0  0  0  0  0
   25.1976  -22.1636  -14.1120 C   0  0  0  0  0  0  0  0  0  0  0  0
   25.1484  -22.6974  -12.8295 O   0  0  0  0  0  0  0  0  0  0  0  0
   26.3159  -19.0258  -11.4384 C   0  0  0  0  0  0  0  0  0  0  0  0
   26.1954  -19.1754  -10.0799 C   0  0  0  0  0  0  0  0  0  0  0  0
   24.3598  -22.6128  -14.9284 O   0  0  0  0  0  0  0  0  0  0  0  0
  2  3  1  0
  2  1  1  6
  4  2  1  0
  4  5  1  1
  6  7  2  0
  6  4  1  0
  8  6  1  0
  9  8  1  0
  9 10  1  1
 11 12  1  0
 11 10  1  0
 12 13  1  0
 14 13  1  0
 15 24  1  0
 15  9  1  0
 16 15  2  0
 18 17  1  0
 19 18  2  0
 20 19  1  0
 21 27  1  0
 21 20  2  0
 23 22  1  1
 22 21  1  0
 23 24  1  0
 23 25  1  0
 25 26  1  0
 27 28  2  0
 28 18  1  0
 29 25  2  0
M  END
$$$$
