TKY.pdb
     RDKit          3D

 29 29  0  0  1  0  0  0  0  0999 V2000
   33.6608  -29.4226  -21.2632 C   0  0  0  0  0  0  0  0  0  0  0  0
   32.4663  -28.7914  -20.5690 C   0  0  1  0  0  0  0  0  0  0  0  0
   31.5334  -29.7354  -20.1739 O   0  0  0  0  0  0  0  0  0  0  0  0
   32.9179  -28.0210  -19.3815 C   0  0  2  0  0  0  0  0  0  0  0  0
   33.5984  -28.8261  -18.3994 N   0  0  0  0  0  0  0  0  0  0  0  0
   31.7633  -27.3624  -18.7338 C   0  0  0  0  0  0  0  0  0  0  0  0
   31.5441  -27.5188  -17.4860 O   0  0  0  0  0  0  0  0  0  0  0  0
   30.8551  -26.5339  -19.4391 N   0  0  0  0  0  0  0  0  0  0  0  0
   29.8442  -25.7495  -18.8227 C   0  0  1  0  0  0  0  0  0  0  0  0
   29.5044  -24.4401  -19.4118 C   0  0  0  0  0  0  0  0  0  0  0  0
   28.7835  -23.4604  -18.5584 C   0  0  0  0  0  0  0  0  0  0  0  0
   28.0482  -23.9891  -17.3849 C   0  0  0  0  0  0  0  0  0  0  0  0
   27.2551  -22.8070  -16.7982 C   0  0  0  0  0  0  0  0  0  0  0  0
   26.4108  -23.2689  -15.7094 N   0  0  0  0  0  0  0  0  0  0  0  0
   28.5951  -26.5891  -18.6454 C   0  0  0  0  0  0  0  0  0  0  0  0
   28.0992  -27.1676  -19.6488 O   0  0  0  0  0  0  0  0  0  0  0  0
   22.2816  -31.8157  -15.8953 O   0  0  0  0  0  0  0  0  0  0  0  0
   23.3477  -30.9194  -15.9123 C   0  0  0  0  0  0  0  0  0  0  0  0
   24.5713  -31.4063  -16.3559 C   0  0  0  0  0  0  0  0  0  0  0  0
   25.6676  -30.5661  -16.3942 C   0  0  0  0  0  0  0  0  0  0  0  0
   25.5657  -29.2367  -15.9958 C   0  0  0  0  0  0  0  0  0  0  0  0
   26.7538  -28.3743  -16.0569 C   0  0  0  0  0  0  0  0  0  0  0  0
   26.7739  -27.5966  -17.3308 C   0  0  2  0  0  0  0  0  0  0  0  0
   27.9551  -26.7580  -17.4154 N   0  0  0  0  0  0  0  0  0  0  0  0
   25.5579  -26.7543  -17.5462 C   0  0  0  0  0  0  0  0  0  0  0  0
   24.6582  -27.0829  -18.5534 O   0  0  0  0  0  0  0  0  0  0  0  0
   24.3314  -28.8045  -15.5663 C   0  0  0  0  0  0  0  0  0  0  0  0
   23.2277  -29.6181  -15.5180 C   0  0  0  0  0  0  0  0  0  0  0  0
   25.2787  -25.7385  -16.8676 O   0  0  0  0  0  0  0  0  0  0  0  0
  2  3  1  0
  2  1  1  1
  4  2  1  0
  4  5  1  1
  6  7  2  0
  6  4  1  0
  8  6  1  0
  9  8  1  0
  9 10  1  6
 11 12  1  0
 11 10  1  0
 12 13  1  0
 14 13  1  0
 15 24  1  0
 15  9  1  0
 16 15  2  0
 18 17  1  0
 19 18  2  0
 20 19  1  0
 21 27  1  0
 21 20  2  0
 23 22  1  1
 22 21  1  0
 23 24  1  0
 23 25  1  0
 25 26  1  0
 27 28  2  0
 28 18  1  0
 29 25  2  0
M  END
$$$$
