TKY.pdb
     RDKit          3D

 29 29  0  0  1  0  0  0  0  0999 V2000
   25.9144  -19.9449  -19.3146 C   0  0  0  0  0  0  0  0  0  0  0  0
   26.4472  -21.3629  -19.4275 C   0  0  1  0  0  0  0  0  0  0  0  0
   27.0063  -21.6131  -20.6695 O   0  0  0  0  0  0  0  0  0  0  0  0
   27.4648  -21.6083  -18.3730 C   0  0  2  0  0  0  0  0  0  0  0  0
   27.9793  -22.9541  -18.3736 N   0  0  0  0  0  0  0  0  0  0  0  0
   26.8939  -21.3220  -17.0394 C   0  0  0  0  0  0  0  0  0  0  0  0
   26.1135  -22.1597  -16.4750 O   0  0  0  0  0  0  0  0  0  0  0  0
   27.1751  -20.1327  -16.3216 N   0  0  0  0  0  0  0  0  0  0  0  0
   26.5465  -19.7677  -15.1014 C   0  0  1  0  0  0  0  0  0  0  0  0
   27.2277  -18.8075  -14.2121 C   0  0  0  0  0  0  0  0  0  0  0  0
   26.9964  -18.9306  -12.7495 C   0  0  0  0  0  0  0  0  0  0  0  0
   26.2595  -20.1255  -12.2736 C   0  0  0  0  0  0  0  0  0  0  0  0
   26.0518  -19.9358  -10.7598 C   0  0  0  0  0  0  0  0  0  0  0  0
   25.2568  -21.0298  -10.2281 N   0  0  0  0  0  0  0  0  0  0  0  0
   25.1287  -19.3125  -15.3833 C   0  0  0  0  0  0  0  0  0  0  0  0
   24.9404  -18.3571  -16.1827 O   0  0  0  0  0  0  0  0  0  0  0  0
   21.3760  -24.9571  -17.7373 O   0  0  0  0  0  0  0  0  0  0  0  0
   21.5505  -23.6152  -17.4072 C   0  0  0  0  0  0  0  0  0  0  0  0
   22.7623  -23.0336  -17.7597 C   0  0  0  0  0  0  0  0  0  0  0  0
   22.9963  -21.7057  -17.4575 C   0  0  0  0  0  0  0  0  0  0  0  0
   22.0352  -20.9392  -16.8054 C   0  0  0  0  0  0  0  0  0  0  0  0
   22.3206  -19.5290  -16.5072 C   0  0  0  0  0  0  0  0  0  0  0  0
   22.6874  -19.3592  -15.0704 C   0  0  2  0  0  0  0  0  0  0  0  0
   24.0056  -19.9010  -14.7974 N   0  0  0  0  0  0  0  0  0  0  0  0
   21.7036  -19.9596  -14.1184 C   0  0  0  0  0  0  0  0  0  0  0  0
   20.3765  -19.5471  -14.1432 O   0  0  0  0  0  0  0  0  0  0  0  0
   20.8521  -21.5628  -16.4797 C   0  0  0  0  0  0  0  0  0  0  0  0
   20.5951  -22.8794  -16.7676 C   0  0  0  0  0  0  0  0  0  0  0  0
   21.9932  -20.8339  -13.2687 O   0  0  0  0  0  0  0  0  0  0  0  0
  2  3  1  0
  2  1  1  6
  4  2  1  0
  4  5  1  1
  6  7  2  0
  6  4  1  0
  8  6  1  0
  9  8  1  0
  9 10  1  6
 11 12  1  0
 11 10  1  0
 12 13  1  0
 14 13  1  0
 15 24  1  0
 15  9  1  0
 16 15  2  0
 18 17  1  0
 19 18  2  0
 20 19  1  0
 21 27  1  0
 21 20  2  0
 23 22  1  6
 22 21  1  0
 23 24  1  0
 23 25  1  0
 25 26  1  0
 27 28  2  0
 28 18  1  0
 29 25  2  0
M  END
$$$$
