VCL.pdb
     RDKit          3D

 22 21  0  0  1  0  0  0  0  0999 V2000
   18.7325  -14.2665  -17.8405 C   0  0  0  0  0  0  0  0  0  0  0  0
   17.8660  -14.1561  -16.6046 C   0  0  2  0  0  0  0  0  0  0  0  0
   17.3554  -15.5241  -16.2305 C   0  0  0  0  0  0  0  0  0  0  0  0
   16.7263  -13.1859  -16.8559 C   0  0  2  0  0  0  0  0  0  0  0  0
   15.9197  -13.7268  -17.9098 N   0  0  0  0  0  0  0  0  0  0  0  0
   17.2510  -11.8321  -17.1948 C   0  0  0  0  0  0  0  0  0  0  0  0
   16.9698  -11.3824  -18.3468 O   0  0  0  0  0  0  0  0  0  0  0  0
   18.0187  -11.0834  -16.2923 N   0  0  0  0  0  0  0  0  0  0  0  0
   18.5195   -9.7473  -16.6695 C   0  0  1  0  0  0  0  0  0  0  0  0
   17.3375   -8.8913  -16.9786 C   0  0  0  0  0  0  0  0  0  0  0  0
   16.2394   -8.5249  -15.6235 S   0  0  0  0  0  0  0  0  0  0  0  0
   19.3425   -9.2213  -15.5932 C   0  0  0  0  0  0  0  0  0  0  0  0
   19.4417   -9.8284  -14.4621 O   0  0  0  0  0  0  0  0  0  0  0  0
   22.4884  -10.1135  -13.3529 C   0  0  0  0  0  0  0  0  0  0  0  0
   22.6934   -9.9486  -14.8572 C   0  0  2  0  0  0  0  0  0  0  0  0
   23.9093  -10.6594  -15.3011 C   0  0  0  0  0  0  0  0  0  0  0  0
   22.5082   -8.5308  -15.2773 C   0  0  0  0  0  0  0  0  0  0  0  0
   21.2700   -7.8299  -14.8586 C   0  0  2  0  0  0  0  0  0  0  0  0
   20.0943   -8.0301  -15.6923 N   0  0  0  0  0  0  0  0  0  0  0  0
   21.5310   -6.3389  -14.7638 C   0  0  0  0  0  0  0  0  0  0  0  0
   21.1373   -5.6591  -15.7335 O   0  0  0  0  0  0  0  0  0  0  0  0
   22.1518   -5.7130  -13.7198 O   0  0  0  0  0  0  0  0  0  0  0  0
  2  1  1  6
  2  3  1  0
  4  2  1  0
  4  5  1  6
  6  4  1  0
  6  8  1  0
  7  6  2  0
  9  8  1  0
  9 12  1  0
  9 10  1  1
 11 10  1  0
 12 19  1  0
 12 13  2  0
 15 17  1  0
 15 14  1  1
 16 15  1  0
 18 20  1  0
 18 17  1  6
 19 18  1  0
 20 22  1  0
 21 20  2  0
M  END
$$$$
