VCL.pdb
     RDKit          3D

 22 21  0  0  1  0  0  0  0  0999 V2000
   11.9688  -22.8858    2.1188 C   0  0  0  0  0  0  0  0  0  0  0  0
   12.2287  -22.2227    0.7834 C   0  0  2  0  0  0  0  0  0  0  0  0
   12.2726  -23.2748   -0.2951 C   0  0  0  0  0  0  0  0  0  0  0  0
   13.5219  -21.4304    0.8414 C   0  0  2  0  0  0  0  0  0  0  0  0
   14.6040  -22.3685    0.8947 N   0  0  0  0  0  0  0  0  0  0  0  0
   13.5244  -20.5097    2.0140 C   0  0  0  0  0  0  0  0  0  0  0  0
   12.6285  -19.6122    2.0376 O   0  0  0  0  0  0  0  0  0  0  0  0
   14.4661  -20.6208    3.0461 N   0  0  0  0  0  0  0  0  0  0  0  0
   14.4985  -19.6254    4.1354 C   0  0  1  0  0  0  0  0  0  0  0  0
   14.1353  -20.3269    5.4008 C   0  0  0  0  0  0  0  0  0  0  0  0
   15.2607  -20.1401    6.7701 S   0  0  0  0  0  0  0  0  0  0  0  0
   15.8123  -19.0053    4.1805 C   0  0  0  0  0  0  0  0  0  0  0  0
   16.8739  -19.6498    3.8406 O   0  0  0  0  0  0  0  0  0  0  0  0
   18.9156  -16.5486    2.1640 C   0  0  0  0  0  0  0  0  0  0  0  0
   17.8187  -15.6137    2.6692 C   0  0  2  0  0  0  0  0  0  0  0  0
   18.0043  -14.2505    2.1327 C   0  0  0  0  0  0  0  0  0  0  0  0
   17.6018  -15.7750    4.1348 C   0  0  0  0  0  0  0  0  0  0  0  0
   17.3888  -17.1428    4.6672 C   0  0  2  0  0  0  0  0  0  0  0  0
   16.0352  -17.6708    4.5844 N   0  0  0  0  0  0  0  0  0  0  0  0
   17.8296  -17.2039    6.1171 C   0  0  0  0  0  0  0  0  0  0  0  0
   16.9260  -17.0464    6.9633 O   0  0  0  0  0  0  0  0  0  0  0  0
   19.1115  -17.4109    6.5422 O   0  0  0  0  0  0  0  0  0  0  0  0
  2  1  1  1
  2  3  1  0
  4  2  1  0
  4  5  1  1
  6  4  1  0
  6  8  1  0
  7  6  2  0
  9  8  1  0
  9 12  1  0
  9 10  1  1
 11 10  1  0
 12 19  1  0
 12 13  2  0
 15 17  1  0
 15 14  1  1
 16 15  1  0
 18 20  1  0
 18 17  1  1
 19 18  1  0
 20 22  1  0
 21 20  2  0
M  END
$$$$
