VCL.pdb
     RDKit          3D

 22 21  0  0  1  0  0  0  0  0999 V2000
   18.2524  -11.5732  -17.8968 C   0  0  0  0  0  0  0  0  0  0  0  0
   18.2103  -10.3397  -17.0210 C   0  0  2  0  0  0  0  0  0  0  0  0
   18.2124   -9.1098  -17.8923 C   0  0  0  0  0  0  0  0  0  0  0  0
   19.3867  -10.3448  -16.0621 C   0  0  2  0  0  0  0  0  0  0  0  0
   19.2313  -11.4713  -15.1898 N   0  0  0  0  0  0  0  0  0  0  0  0
   19.4574   -9.0612  -15.3069 C   0  0  0  0  0  0  0  0  0  0  0  0
   18.5892   -8.8836  -14.3996 O   0  0  0  0  0  0  0  0  0  0  0  0
   20.4315   -8.0905  -15.5776 N   0  0  0  0  0  0  0  0  0  0  0  0
   20.4786   -6.8426  -14.7910 C   0  0  1  0  0  0  0  0  0  0  0  0
   21.8637   -6.6958  -14.2572 C   0  0  0  0  0  0  0  0  0  0  0  0
   22.2664   -5.1351  -13.4964 S   0  0  0  0  0  0  0  0  0  0  0  0
   20.0667   -5.7298  -15.6304 C   0  0  0  0  0  0  0  0  0  0  0  0
   20.3029   -5.7168  -16.8961 O   0  0  0  0  0  0  0  0  0  0  0  0
   18.2192   -2.6667  -18.8940 C   0  0  0  0  0  0  0  0  0  0  0  0
   17.2136   -2.7450  -17.7473 C   0  0  2  0  0  0  0  0  0  0  0  0
   16.8252   -1.3929  -17.2982 C   0  0  0  0  0  0  0  0  0  0  0  0
   17.6388   -3.7379  -16.7205 C   0  0  0  0  0  0  0  0  0  0  0  0
   18.9530   -3.5467  -16.0601 C   0  0  2  0  0  0  0  0  0  0  0  0
   19.3812   -4.5945  -15.1457 N   0  0  0  0  0  0  0  0  0  0  0  0
   18.9619   -2.2312  -15.3054 C   0  0  0  0  0  0  0  0  0  0  0  0
   18.5381   -2.2787  -14.1326 O   0  0  0  0  0  0  0  0  0  0  0  0
   19.3879   -1.0358  -15.8118 O   0  0  0  0  0  0  0  0  0  0  0  0
  2  1  1  6
  2  3  1  0
  4  2  1  0
  4  5  1  1
  6  4  1  0
  6  8  1  0
  7  6  2  0
  9  8  1  0
  9 12  1  0
  9 10  1  6
 11 10  1  0
 12 19  1  0
 12 13  2  0
 15 17  1  0
 15 14  1  6
 16 15  1  0
 18 20  1  0
 18 17  1  1
 19 18  1  0
 20 22  1  0
 21 20  2  0
M  END
$$$$
