VCL.pdb
     RDKit          3D

 22 21  0  0  1  0  0  0  0  0999 V2000
   19.0455  -27.0036   -8.8287 C   0  0  0  0  0  0  0  0  0  0  0  0
   17.7250  -26.6237   -9.4631 C   0  0  2  0  0  0  0  0  0  0  0  0
   17.7502  -26.9924  -10.9245 C   0  0  0  0  0  0  0  0  0  0  0  0
   17.4635  -25.1417   -9.2672 C   0  0  2  0  0  0  0  0  0  0  0  0
   18.5086  -24.4240   -9.9354 N   0  0  0  0  0  0  0  0  0  0  0  0
   17.3962  -24.8051   -7.8163 C   0  0  0  0  0  0  0  0  0  0  0  0
   18.3761  -24.1607   -7.3333 O   0  0  0  0  0  0  0  0  0  0  0  0
   16.3082  -25.1773   -7.0150 N   0  0  0  0  0  0  0  0  0  0  0  0
   16.1886  -24.6647   -5.6361 C   0  0  1  0  0  0  0  0  0  0  0  0
   14.8764  -23.9637   -5.5259 C   0  0  0  0  0  0  0  0  0  0  0  0
   14.4062  -23.3974   -3.9028 S   0  0  0  0  0  0  0  0  0  0  0  0
   16.3299  -25.7674   -4.6998 C   0  0  0  0  0  0  0  0  0  0  0  0
   15.8757  -26.9419   -4.9681 O   0  0  0  0  0  0  0  0  0  0  0  0
   19.4304  -28.6162   -2.5876 C   0  0  0  0  0  0  0  0  0  0  0  0
   19.4343  -27.2061   -2.0013 C   0  0  2  0  0  0  0  0  0  0  0  0
   20.5781  -27.0230   -1.0852 C   0  0  0  0  0  0  0  0  0  0  0  0
   18.0772  -26.8122   -1.5279 C   0  0  0  0  0  0  0  0  0  0  0  0
   16.9723  -26.7731   -2.5165 C   0  0  2  0  0  0  0  0  0  0  0  0
   16.9687  -25.6532   -3.4457 N   0  0  0  0  0  0  0  0  0  0  0  0
   15.6378  -26.7905   -1.7959 C   0  0  0  0  0  0  0  0  0  0  0  0
   15.0128  -25.7104   -1.7907 O   0  0  0  0  0  0  0  0  0  0  0  0
   15.0950  -27.8771   -1.1701 O   0  0  0  0  0  0  0  0  0  0  0  0
  2  1  1  6
  2  3  1  0
  4  2  1  0
  4  5  1  1
  6  4  1  0
  6  8  1  0
  7  6  2  0
  9  8  1  0
  9 12  1  0
  9 10  1  6
 11 10  1  0
 12 19  1  0
 12 13  2  0
 15 17  1  0
 15 14  1  1
 16 15  1  0
 18 20  1  0
 18 17  1  1
 19 18  1  0
 20 22  1  0
 21 20  2  0
M  END
$$$$
