VCL.pdb
     RDKit          3D

 22 21  0  0  1  0  0  0  0  0999 V2000
   26.0952  -18.6009  -15.8021 C   0  0  0  0  0  0  0  0  0  0  0  0
   27.2785  -18.8081  -14.8814 C   0  0  2  0  0  0  0  0  0  0  0  0
   28.5201  -18.2567  -15.5343 C   0  0  0  0  0  0  0  0  0  0  0  0
   27.4289  -20.2826  -14.5551 C   0  0  2  0  0  0  0  0  0  0  0  0
   27.6201  -20.9836  -15.7904 N   0  0  0  0  0  0  0  0  0  0  0  0
   26.2382  -20.7822  -13.8097 C   0  0  0  0  0  0  0  0  0  0  0  0
   25.4362  -21.5287  -14.4485 O   0  0  0  0  0  0  0  0  0  0  0  0
   26.0059  -20.4497  -12.4682 N   0  0  0  0  0  0  0  0  0  0  0  0
   24.8103  -20.9611  -11.7700 C   0  0  1  0  0  0  0  0  0  0  0  0
   24.9952  -20.7092  -10.3114 C   0  0  0  0  0  0  0  0  0  0  0  0
   26.6348  -20.9582   -9.6585 S   0  0  0  0  0  0  0  0  0  0  0  0
   23.6249  -20.3217  -12.3165 C   0  0  0  0  0  0  0  0  0  0  0  0
   23.5681  -19.0480  -12.4959 O   0  0  0  0  0  0  0  0  0  0  0  0
   19.5203  -20.5629  -16.1859 C   0  0  0  0  0  0  0  0  0  0  0  0
   20.5958  -19.5710  -15.7481 C   0  0  2  0  0  0  0  0  0  0  0  0
   21.0240  -18.7282  -16.8826 C   0  0  0  0  0  0  0  0  0  0  0  0
   21.6444  -20.2370  -14.9247 C   0  0  0  0  0  0  0  0  0  0  0  0
   21.4176  -20.3606  -13.4642 C   0  0  2  0  0  0  0  0  0  0  0  0
   22.4606  -21.0244  -12.6968 N   0  0  0  0  0  0  0  0  0  0  0  0
   20.1106  -21.0860  -13.2071 C   0  0  0  0  0  0  0  0  0  0  0  0
   19.1288  -20.3572  -12.9575 O   0  0  0  0  0  0  0  0  0  0  0  0
   19.9454  -22.4421  -13.2281 O   0  0  0  0  0  0  0  0  0  0  0  0
  2  1  1  6
  2  3  1  0
  4  2  1  0
  4  5  1  6
  6  4  1  0
  6  8  1  0
  7  6  2  0
  9  8  1  0
  9 12  1  0
  9 10  1  1
 11 10  1  0
 12 19  1  0
 12 13  2  0
 15 17  1  0
 15 14  1  6
 16 15  1  0
 18 20  1  0
 18 17  1  6
 19 18  1  0
 20 22  1  0
 21 20  2  0
M  END
$$$$
