VCL.pdb
     RDKit          3D

 22 21  0  0  1  0  0  0  0  0999 V2000
   21.5145  -38.0527  -10.5430 C   0  0  0  0  0  0  0  0  0  0  0  0
   22.8015  -37.3841  -10.1103 C   0  0  2  0  0  0  0  0  0  0  0  0
   22.9399  -37.4919   -8.6133 C   0  0  0  0  0  0  0  0  0  0  0  0
   22.8127  -35.9371  -10.5679 C   0  0  2  0  0  0  0  0  0  0  0  0
   22.9891  -35.9326  -11.9901 N   0  0  0  0  0  0  0  0  0  0  0  0
   23.8858  -35.1717   -9.8710 C   0  0  0  0  0  0  0  0  0  0  0  0
   25.0398  -35.1982  -10.3967 O   0  0  0  0  0  0  0  0  0  0  0  0
   23.6431  -34.4542   -8.6918 N   0  0  0  0  0  0  0  0  0  0  0  0
   24.7473  -33.7592   -8.0019 C   0  0  1  0  0  0  0  0  0  0  0  0
   24.8039  -32.3647   -8.5285 C   0  0  0  0  0  0  0  0  0  0  0  0
   26.2235  -31.3918   -8.0651 S   0  0  0  0  0  0  0  0  0  0  0  0
   24.5313  -33.8215   -6.5659 C   0  0  0  0  0  0  0  0  0  0  0  0
   23.4377  -33.4035   -6.0300 O   0  0  0  0  0  0  0  0  0  0  0  0
   22.4707  -35.3024   -3.4267 C   0  0  0  0  0  0  0  0  0  0  0  0
   23.5954  -36.2672   -3.7960 C   0  0  2  0  0  0  0  0  0  0  0  0
   23.3479  -37.6047   -3.2210 C   0  0  0  0  0  0  0  0  0  0  0  0
   24.9334  -35.6440   -3.5905 C   0  0  0  0  0  0  0  0  0  0  0  0
   25.2015  -34.3302   -4.2243 C   0  0  2  0  0  0  0  0  0  0  0  0
   25.4759  -34.3400   -5.6534 N   0  0  0  0  0  0  0  0  0  0  0  0
   26.3645  -33.6512   -3.5267 C   0  0  0  0  0  0  0  0  0  0  0  0
   27.4199  -33.5734   -4.1881 O   0  0  0  0  0  0  0  0  0  0  0  0
   26.3325  -33.1384   -2.2606 O   0  0  0  0  0  0  0  0  0  0  0  0
  2  1  1  1
  2  3  1  0
  4  2  1  0
  4  5  1  6
  6  4  1  0
  6  8  1  0
  7  6  2  0
  9  8  1  0
  9 12  1  0
  9 10  1  6
 11 10  1  0
 12 19  1  0
 12 13  2  0
 15 17  1  0
 15 14  1  1
 16 15  1  0
 18 20  1  0
 18 17  1  1
 19 18  1  0
 20 22  1  0
 21 20  2  0
M  END
$$$$
