VCL.pdb
     RDKit          3D

 22 21  0  0  1  0  0  0  0  0999 V2000
   18.5560  -14.3456  -18.3198 C   0  0  0  0  0  0  0  0  0  0  0  0
   19.6317  -14.1830  -17.2678 C   0  0  2  0  0  0  0  0  0  0  0  0
   19.9700  -15.5328  -16.6884 C   0  0  0  0  0  0  0  0  0  0  0  0
   19.1646  -13.2174  -16.1941 C   0  0  2  0  0  0  0  0  0  0  0  0
   17.9322  -13.7209  -15.6634 N   0  0  0  0  0  0  0  0  0  0  0  0
   19.0108  -11.8430  -16.7513 C   0  0  0  0  0  0  0  0  0  0  0  0
   18.2485  -11.7163  -17.7570 O   0  0  0  0  0  0  0  0  0  0  0  0
   19.6715  -10.7372  -16.1990 N   0  0  0  0  0  0  0  0  0  0  0  0
   19.4547   -9.3866  -16.7531 C   0  0  1  0  0  0  0  0  0  0  0  0
   18.0077   -9.0598  -16.5965 C   0  0  0  0  0  0  0  0  0  0  0  0
   17.5992   -7.3456  -16.3299 S   0  0  0  0  0  0  0  0  0  0  0  0
   20.3315   -8.4441  -16.0782 C   0  0  0  0  0  0  0  0  0  0  0  0
   20.6003   -8.5529  -14.8237 O   0  0  0  0  0  0  0  0  0  0  0  0
   25.2057   -5.0883  -17.3256 C   0  0  0  0  0  0  0  0  0  0  0  0
   24.2988   -5.9066  -16.4089 C   0  0  2  0  0  0  0  0  0  0  0  0
   24.8251   -7.2758  -16.2381 C   0  0  0  0  0  0  0  0  0  0  0  0
   22.8642   -5.7396  -16.7761 C   0  0  0  0  0  0  0  0  0  0  0  0
   21.8464   -6.4724  -15.9844 C   0  0  2  0  0  0  0  0  0  0  0  0
   20.9574   -7.3556  -16.7242 N   0  0  0  0  0  0  0  0  0  0  0  0
   20.9926   -5.4878  -15.2087 C   0  0  0  0  0  0  0  0  0  0  0  0
   19.9534   -5.1044  -15.7834 O   0  0  0  0  0  0  0  0  0  0  0  0
   21.2806   -5.0072  -13.9625 O   0  0  0  0  0  0  0  0  0  0  0  0
  2  1  1  6
  2  3  1  0
  4  2  1  0
  4  5  1  6
  6  4  1  0
  6  8  1  0
  7  6  2  0
  9  8  1  0
  9 12  1  0
  9 10  1  1
 11 10  1  0
 12 19  1  0
 12 13  2  0
 15 17  1  0
 15 14  1  6
 16 15  1  0
 18 20  1  0
 18 17  1  6
 19 18  1  0
 20 22  1  0
 21 20  2  0
M  END
$$$$
