VCL.pdb
     RDKit          3D

 22 21  0  0  1  0  0  0  0  0999 V2000
   26.2778  -19.1403  -16.3504 C   0  0  0  0  0  0  0  0  0  0  0  0
   27.6449  -18.7058  -15.8677 C   0  0  2  0  0  0  0  0  0  0  0  0
   28.6504  -18.9070  -16.9725 C   0  0  0  0  0  0  0  0  0  0  0  0
   28.0249  -19.4826  -14.6205 C   0  0  2  0  0  0  0  0  0  0  0  0
   28.1082  -20.8675  -14.9799 N   0  0  0  0  0  0  0  0  0  0  0  0
   27.0347  -19.2484  -13.5308 C   0  0  0  0  0  0  0  0  0  0  0  0
   26.8550  -18.0456  -13.1710 O   0  0  0  0  0  0  0  0  0  0  0  0
   26.3305  -20.2985  -12.9260 N   0  0  0  0  0  0  0  0  0  0  0  0
   25.3908  -20.0263  -11.8209 C   0  0  1  0  0  0  0  0  0  0  0  0
   24.0430  -20.5053  -12.2442 C   0  0  0  0  0  0  0  0  0  0  0  0
   22.9819  -19.3114  -13.0347 S   0  0  0  0  0  0  0  0  0  0  0  0
   25.8738  -20.6697  -10.6103 C   0  0  0  0  0  0  0  0  0  0  0  0
   26.3832  -21.8520  -10.6326 O   0  0  0  0  0  0  0  0  0  0  0  0
   28.9789  -20.7656   -6.9676 C   0  0  0  0  0  0  0  0  0  0  0  0
   27.9713  -19.6180   -6.9567 C   0  0  2  0  0  0  0  0  0  0  0  0
   28.3545  -18.5941   -5.9640 C   0  0  0  0  0  0  0  0  0  0  0  0
   26.5706  -20.1268   -6.9454 C   0  0  0  0  0  0  0  0  0  0  0  0
   26.0793  -20.8591   -8.1379 C   0  0  2  0  0  0  0  0  0  0  0  0
   25.8350  -20.0670   -9.3340 N   0  0  0  0  0  0  0  0  0  0  0  0
   24.8011  -21.5999   -7.7951 C   0  0  0  0  0  0  0  0  0  0  0  0
   23.7644  -21.1684   -8.3395 O   0  0  0  0  0  0  0  0  0  0  0  0
   24.7145  -22.6730   -6.9537 O   0  0  0  0  0  0  0  0  0  0  0  0
  2  1  1  6
  2  3  1  0
  4  2  1  0
  4  5  1  6
  6  4  1  0
  6  8  1  0
  7  6  2  0
  9  8  1  0
  9 12  1  0
  9 10  1  6
 11 10  1  0
 12 19  1  0
 12 13  2  0
 15 17  1  0
 15 14  1  1
 16 15  1  0
 18 20  1  0
 18 17  1  1
 19 18  1  0
 20 22  1  0
 21 20  2  0
M  END
$$$$
