VCL.pdb
     RDKit          3D

 22 21  0  0  1  0  0  0  0  0999 V2000
   16.4330  -10.7575  -20.0138 C   0  0  0  0  0  0  0  0  0  0  0  0
   17.1779  -10.4846  -18.7249 C   0  0  2  0  0  0  0  0  0  0  0  0
   17.4891   -9.0127  -18.6316 C   0  0  0  0  0  0  0  0  0  0  0  0
   18.4402  -11.3253  -18.6682 C   0  0  2  0  0  0  0  0  0  0  0  0
   18.0433  -12.6995  -18.5801 N   0  0  0  0  0  0  0  0  0  0  0  0
   19.2945  -10.9173  -17.5164 C   0  0  0  0  0  0  0  0  0  0  0  0
   18.9405  -11.3267  -16.3693 O   0  0  0  0  0  0  0  0  0  0  0  0
   20.4356  -10.1204  -17.6809 N   0  0  0  0  0  0  0  0  0  0  0  0
   21.2225   -9.6945  -16.5071 C   0  0  1  0  0  0  0  0  0  0  0  0
   22.5507  -10.3694  -16.5833 C   0  0  0  0  0  0  0  0  0  0  0  0
   23.7706   -9.8715  -15.3832 S   0  0  0  0  0  0  0  0  0  0  0  0
   21.3165   -8.2442  -16.4924 C   0  0  0  0  0  0  0  0  0  0  0  0
   21.4185   -7.5642  -17.5810 O   0  0  0  0  0  0  0  0  0  0  0  0
   21.6116   -3.4664  -16.8950 C   0  0  0  0  0  0  0  0  0  0  0  0
   20.4078   -3.7814  -16.0096 C   0  0  2  0  0  0  0  0  0  0  0  0
   20.3824   -2.8979  -14.8266 C   0  0  0  0  0  0  0  0  0  0  0  0
   20.2579   -5.2494  -15.8010 C   0  0  0  0  0  0  0  0  0  0  0  0
   21.4494   -6.0241  -15.3768 C   0  0  2  0  0  0  0  0  0  0  0  0
   21.2974   -7.4699  -15.3117 N   0  0  0  0  0  0  0  0  0  0  0  0
   21.9205   -5.5392  -14.0191 C   0  0  0  0  0  0  0  0  0  0  0  0
   21.5736   -6.2388  -13.0457 O   0  0  0  0  0  0  0  0  0  0  0  0
   22.6737   -4.4203  -13.8005 O   0  0  0  0  0  0  0  0  0  0  0  0
  2  1  1  6
  2  3  1  0
  4  2  1  0
  4  5  1  1
  6  4  1  0
  6  8  1  0
  7  6  2  0
  9  8  1  0
  9 12  1  0
  9 10  1  6
 11 10  1  0
 12 19  1  0
 12 13  2  0
 15 17  1  0
 15 14  1  1
 16 15  1  0
 18 20  1  0
 18 17  1  1
 19 18  1  0
 20 22  1  0
 21 20  2  0
M  END
$$$$
