VCL.pdb
     RDKit          3D

 22 21  0  0  1  0  0  0  0  0999 V2000
   16.4681  -14.1030  -19.0126 C   0  0  0  0  0  0  0  0  0  0  0  0
   17.8253  -14.7255  -18.7653 C   0  0  2  0  0  0  0  0  0  0  0  0
   17.6481  -16.1757  -18.3948 C   0  0  0  0  0  0  0  0  0  0  0  0
   18.5567  -13.9585  -17.6790 C   0  0  2  0  0  0  0  0  0  0  0  0
   17.8304  -14.1377  -16.4565 N   0  0  0  0  0  0  0  0  0  0  0  0
   18.6853  -12.5189  -18.0447 C   0  0  0  0  0  0  0  0  0  0  0  0
   19.3458  -12.2529  -19.0943 O   0  0  0  0  0  0  0  0  0  0  0  0
   18.1086  -11.5002  -17.2740 N   0  0  0  0  0  0  0  0  0  0  0  0
   18.4292  -10.0859  -17.5484 C   0  0  1  0  0  0  0  0  0  0  0  0
   17.1471   -9.3776  -17.8309 C   0  0  0  0  0  0  0  0  0  0  0  0
   16.2843   -9.8479  -19.3178 S   0  0  0  0  0  0  0  0  0  0  0  0
   19.1545   -9.5298  -16.4183 C   0  0  0  0  0  0  0  0  0  0  0  0
   18.7742   -9.7364  -15.2056 O   0  0  0  0  0  0  0  0  0  0  0  0
   22.0467  -10.3266  -13.2478 C   0  0  0  0  0  0  0  0  0  0  0  0
   22.6117  -10.2460  -14.6643 C   0  0  2  0  0  0  0  0  0  0  0  0
   23.9453  -10.8764  -14.7329 C   0  0  0  0  0  0  0  0  0  0  0  0
   22.4428   -8.8811  -15.2384 C   0  0  0  0  0  0  0  0  0  0  0  0
   21.0686   -8.3379  -15.3664 C   0  0  2  0  0  0  0  0  0  0  0  0
   20.3169   -8.7385  -16.5463 N   0  0  0  0  0  0  0  0  0  0  0  0
   21.1099   -6.8223  -15.3271 C   0  0  0  0  0  0  0  0  0  0  0  0
   20.9259   -6.2487  -16.4201 O   0  0  0  0  0  0  0  0  0  0  0  0
   21.3311   -6.0694  -14.2086 O   0  0  0  0  0  0  0  0  0  0  0  0
  2  1  1  1
  2  3  1  0
  4  2  1  0
  4  5  1  1
  6  4  1  0
  6  8  1  0
  7  6  2  0
  9  8  1  0
  9 12  1  0
  9 10  1  1
 11 10  1  0
 12 19  1  0
 12 13  2  0
 15 17  1  0
 15 14  1  1
 16 15  1  0
 18 20  1  0
 18 17  1  6
 19 18  1  0
 20 22  1  0
 21 20  2  0
M  END
$$$$
