VCL.pdb
     RDKit          3D

 22 21  0  0  1  0  0  0  0  0999 V2000
   28.1801  -23.5227  -18.9537 C   0  0  0  0  0  0  0  0  0  0  0  0
   28.2987  -24.6933  -18.0017 C   0  0  2  0  0  0  0  0  0  0  0  0
   29.0895  -25.7938  -18.6615 C   0  0  0  0  0  0  0  0  0  0  0  0
   26.9173  -25.1693  -17.5914 C   0  0  2  0  0  0  0  0  0  0  0  0
   26.2688  -24.0868  -16.9119 N   0  0  0  0  0  0  0  0  0  0  0  0
   27.0112  -26.3871  -16.7364 C   0  0  0  0  0  0  0  0  0  0  0  0
   26.7973  -26.2321  -15.4959 O   0  0  0  0  0  0  0  0  0  0  0  0
   27.3201  -27.6472  -17.2664 N   0  0  0  0  0  0  0  0  0  0  0  0
   27.1663  -28.8609  -16.4408 C   0  0  1  0  0  0  0  0  0  0  0  0
   25.7464  -28.9233  -15.9876 C   0  0  0  0  0  0  0  0  0  0  0  0
   24.4972  -28.6855  -17.2363 S   0  0  0  0  0  0  0  0  0  0  0  0
   27.5727  -30.0226  -17.2141 C   0  0  0  0  0  0  0  0  0  0  0  0
   27.3402  -30.1062  -18.4778 O   0  0  0  0  0  0  0  0  0  0  0  0
   31.5283  -31.8479  -18.3324 C   0  0  0  0  0  0  0  0  0  0  0  0
   31.1455  -32.4480  -16.9812 C   0  0  2  0  0  0  0  0  0  0  0  0
   32.2608  -33.2403  -16.4253 C   0  0  0  0  0  0  0  0  0  0  0  0
   29.7906  -33.0670  -17.0275 C   0  0  0  0  0  0  0  0  0  0  0  0
   28.6574  -32.2420  -17.5121 C   0  0  2  0  0  0  0  0  0  0  0  0
   28.2489  -31.1330  -16.6631 N   0  0  0  0  0  0  0  0  0  0  0  0
   27.4459  -33.1229  -17.7505 C   0  0  0  0  0  0  0  0  0  0  0  0
   26.5736  -33.0942  -16.8584 O   0  0  0  0  0  0  0  0  0  0  0  0
   27.2560  -33.9218  -18.8425 O   0  0  0  0  0  0  0  0  0  0  0  0
  2  1  1  6
  2  3  1  0
  4  2  1  0
  4  5  1  1
  6  4  1  0
  6  8  1  0
  7  6  2  0
  9  8  1  0
  9 12  1  0
  9 10  1  6
 11 10  1  0
 12 19  1  0
 12 13  2  0
 15 17  1  0
 15 14  1  6
 16 15  1  0
 18 20  1  0
 18 17  1  1
 19 18  1  0
 20 22  1  0
 21 20  2  0
M  END
$$$$
