NVN.pdb
     RDKit          3D

 24 23  0  0  1  0  0  0  0  0999 V2000
    9.1411  -19.2894   13.6666 N   0  0  0  0  0  0  0  0  0  0  0  0
    8.5629  -18.1416   14.2731 C   0  0  0  0  0  0  0  0  0  0  0  0
    7.3865  -17.8332   13.9440 O   0  0  0  0  0  0  0  0  0  0  0  0
    9.2830  -17.3167   15.2630 C   0  0  0  0  0  0  0  0  0  0  0  0
    8.7598  -15.8830   15.2084 C   0  0  2  0  0  0  0  0  0  0  0  0
    9.2016  -15.2422   13.9726 N   0  0  0  0  0  0  0  0  0  0  0  0
    9.2841  -15.1171   16.3514 C   0  0  0  0  0  0  0  0  0  0  0  0
   10.4689  -14.6468   16.2544 O   0  0  0  0  0  0  0  0  0  0  0  0
    8.3772  -12.9061   20.6721 C   0  0  0  0  0  0  0  0  0  0  0  0
    7.9120  -13.6672   19.4658 C   0  0  1  0  0  0  0  0  0  0  0  0
    6.9778  -12.7667   18.6813 C   0  0  0  0  0  0  0  0  0  0  0  0
    9.1164  -14.0634   18.6245 C   0  0  2  0  0  0  0  0  0  0  0  0
    8.5558  -14.8820   17.5232 N   0  0  0  0  0  0  0  0  0  0  0  0
    9.9543  -14.9722   19.4320 C   0  0  0  0  0  0  0  0  0  0  0  0
    9.5089  -16.1680   19.6032 O   0  0  0  0  0  0  0  0  0  0  0  0
   14.2308  -16.3107   18.7292 N   0  0  0  0  0  0  0  0  0  0  0  0
   13.9954  -15.1851   19.5310 C   0  0  0  0  0  0  0  0  0  0  0  0
   14.2797  -14.0359   19.0531 O   0  0  0  0  0  0  0  0  0  0  0  0
   13.4353  -15.1982   20.9050 C   0  0  0  0  0  0  0  0  0  0  0  0
   11.9693  -15.6138   20.7578 C   0  0  2  0  0  0  0  0  0  0  0  0
   11.1988  -14.6374   20.0280 N   0  0  0  0  0  0  0  0  0  0  0  0
   11.4775  -15.7323   22.1710 C   0  0  0  0  0  0  0  0  0  0  0  0
   10.6479  -14.9229   22.6565 O   0  0  0  0  0  0  0  0  0  0  0  0
   11.9262  -16.7495   23.0000 O   0  0  0  0  0  0  0  0  0  0  0  0
  1  2  1  0
  2  3  2  0
  4  2  1  0
  5  4  1  0
  5  6  1  6
  7  5  1  0
  7  8  2  0
 10  9  1  1
 10 11  1  0
 10 12  1  0
 12 13  1  6
 13  7  1  0
 14 12  1  0
 15 14  2  0
 16 17  1  0
 17 19  1  0
 17 18  2  0
 20 19  1  1
 20 21  1  0
 20 22  1  0
 21 14  1  0
 22 24  1  0
 23 22  2  0
M  END
$$$$
