NVN.pdb
     RDKit          3D

 24 23  0  0  1  0  0  0  0  0999 V2000
    7.3349  -17.7676   14.0740 N   0  0  0  0  0  0  0  0  0  0  0  0
    8.6235  -17.5312   14.6247 C   0  0  0  0  0  0  0  0  0  0  0  0
    9.5869  -18.2077   14.1758 O   0  0  0  0  0  0  0  0  0  0  0  0
    8.8651  -16.5320   15.6840 C   0  0  0  0  0  0  0  0  0  0  0  0
    8.8003  -17.2119   17.0499 C   0  0  2  0  0  0  0  0  0  0  0  0
    7.4372  -17.6662   17.3118 N   0  0  0  0  0  0  0  0  0  0  0  0
    9.1903  -16.2574   18.1010 C   0  0  0  0  0  0  0  0  0  0  0  0
   10.4015  -15.8485   18.1085 O   0  0  0  0  0  0  0  0  0  0  0  0
    7.8253  -13.4711   21.9443 C   0  0  0  0  0  0  0  0  0  0  0  0
    7.5166  -14.1988   20.6691 C   0  0  1  0  0  0  0  0  0  0  0  0
    7.0176  -13.1800   19.6630 C   0  0  0  0  0  0  0  0  0  0  0  0
    8.7761  -14.8873   20.1641 C   0  0  2  0  0  0  0  0  0  0  0  0
    8.3089  -15.7822   19.0788 N   0  0  0  0  0  0  0  0  0  0  0  0
    9.2751  -15.7661   21.2407 C   0  0  0  0  0  0  0  0  0  0  0  0
    8.5502  -16.7893   21.5326 O   0  0  0  0  0  0  0  0  0  0  0  0
   12.4316  -18.1068   21.3512 N   0  0  0  0  0  0  0  0  0  0  0  0
   12.9611  -17.0507   22.1059 C   0  0  0  0  0  0  0  0  0  0  0  0
   14.0691  -16.5393   21.7307 O   0  0  0  0  0  0  0  0  0  0  0  0
   12.3474  -16.4558   23.3188 C   0  0  0  0  0  0  0  0  0  0  0  0
   10.8377  -16.4451   23.0645 C   0  0  2  0  0  0  0  0  0  0  0  0
   10.4774  -15.5760   21.9716 N   0  0  0  0  0  0  0  0  0  0  0  0
   10.2515  -15.9498   24.3545 C   0  0  0  0  0  0  0  0  0  0  0  0
    9.7633  -14.7970   24.4638 O   0  0  0  0  0  0  0  0  0  0  0  0
   10.2279  -16.7548   25.4834 O   0  0  0  0  0  0  0  0  0  0  0  0
  1  2  1  0
  2  3  2  0
  4  2  1  0
  5  4  1  0
  5  6  1  1
  7  5  1  0
  7  8  2  0
 10  9  1  1
 10 11  1  0
 10 12  1  0
 12 13  1  6
 13  7  1  0
 14 12  1  0
 15 14  2  0
 16 17  1  0
 17 19  1  0
 17 18  2  0
 20 19  1  1
 20 21  1  0
 20 22  1  0
 21 14  1  0
 22 24  1  0
 23 22  2  0
M  END
$$$$
