NVN.pdb
     RDKit          3D

 24 23  0  0  1  0  0  0  0  0999 V2000
    6.8800  -18.4633   19.9316 N   0  0  0  0  0  0  0  0  0  0  0  0
    6.4256  -17.6437   21.0000 C   0  0  0  0  0  0  0  0  0  0  0  0
    5.1855  -17.4465   21.1023 O   0  0  0  0  0  0  0  0  0  0  0  0
    7.3445  -17.0310   21.9794 C   0  0  0  0  0  0  0  0  0  0  0  0
    7.1724  -15.5138   21.9594 C   0  0  2  0  0  0  0  0  0  0  0  0
    7.7052  -14.9722   20.7121 N   0  0  0  0  0  0  0  0  0  0  0  0
    7.9060  -14.9139   23.0864 C   0  0  0  0  0  0  0  0  0  0  0  0
    9.1708  -14.7759   22.9621 O   0  0  0  0  0  0  0  0  0  0  0  0
    7.7525  -12.6927   27.4958 C   0  0  0  0  0  0  0  0  0  0  0  0
    7.0693  -13.2131   26.2656 C   0  0  1  0  0  0  0  0  0  0  0  0
    6.4670  -12.0294   25.5340 C   0  0  0  0  0  0  0  0  0  0  0  0
    8.0856  -13.9314   25.3902 C   0  0  2  0  0  0  0  0  0  0  0  0
    7.2918  -14.4924   24.2712 N   0  0  0  0  0  0  0  0  0  0  0  0
    8.6039  -15.0858   26.1511 C   0  0  0  0  0  0  0  0  0  0  0  0
    7.7435  -15.9748   26.5077 O   0  0  0  0  0  0  0  0  0  0  0  0
   12.4755  -16.7128   24.4553 N   0  0  0  0  0  0  0  0  0  0  0  0
   11.6764  -17.2672   25.4649 C   0  0  0  0  0  0  0  0  0  0  0  0
   10.8002  -18.1338   25.1310 O   0  0  0  0  0  0  0  0  0  0  0  0
   11.7519  -16.9418   26.9106 C   0  0  0  0  0  0  0  0  0  0  0  0
   10.3613  -16.4343   27.3009 C   0  0  2  0  0  0  0  0  0  0  0  0
    9.9602  -15.2926   26.5166 N   0  0  0  0  0  0  0  0  0  0  0  0
   10.4986  -16.0641   28.7490 C   0  0  0  0  0  0  0  0  0  0  0  0
   10.3759  -14.8784   29.1468 O   0  0  0  0  0  0  0  0  0  0  0  0
   10.7690  -17.0271   29.7095 O   0  0  0  0  0  0  0  0  0  0  0  0
  1  2  1  0
  2  3  2  0
  4  2  1  0
  5  4  1  0
  5  6  1  6
  7  5  1  0
  7  8  2  0
 10  9  1  1
 10 11  1  0
 10 12  1  0
 12 13  1  6
 13  7  1  0
 14 12  1  0
 15 14  2  0
 16 17  1  0
 17 19  1  0
 17 18  2  0
 20 19  1  6
 20 21  1  0
 20 22  1  0
 21 14  1  0
 22 24  1  0
 23 22  2  0
M  END
$$$$
