NVN.pdb
     RDKit          3D

 24 23  0  0  1  0  0  0  0  0999 V2000
    4.6464  -18.4672   22.6223 N   0  0  0  0  0  0  0  0  0  0  0  0
    5.4781  -18.9225   23.6808 C   0  0  0  0  0  0  0  0  0  0  0  0
    5.1265  -19.9633   24.2977 O   0  0  0  0  0  0  0  0  0  0  0  0
    6.7218  -18.2294   24.0701 C   0  0  0  0  0  0  0  0  0  0  0  0
    6.8182  -16.8995   23.3256 C   0  0  2  0  0  0  0  0  0  0  0  0
    7.5078  -17.0942   22.0530 N   0  0  0  0  0  0  0  0  0  0  0  0
    7.5794  -15.9307   24.1320 C   0  0  0  0  0  0  0  0  0  0  0  0
    8.8414  -15.8633   23.9394 O   0  0  0  0  0  0  0  0  0  0  0  0
    7.5955  -12.1859   27.3350 C   0  0  0  0  0  0  0  0  0  0  0  0
    6.8463  -13.1799   26.4972 C   0  0  1  0  0  0  0  0  0  0  0  0
    6.1665  -12.4210   25.3743 C   0  0  0  0  0  0  0  0  0  0  0  0
    7.8211  -14.2089   25.9436 C   0  0  2  0  0  0  0  0  0  0  0  0
    6.9940  -15.0907   25.0862 N   0  0  0  0  0  0  0  0  0  0  0  0
    8.2874  -15.0431   27.0692 C   0  0  0  0  0  0  0  0  0  0  0  0
    7.6463  -14.9245   28.1794 O   0  0  0  0  0  0  0  0  0  0  0  0
    7.7206  -18.3911   27.3740 N   0  0  0  0  0  0  0  0  0  0  0  0
    9.0510  -18.8194   27.2653 C   0  0  0  0  0  0  0  0  0  0  0  0
    9.2848  -19.9012   26.6288 O   0  0  0  0  0  0  0  0  0  0  0  0
   10.2365  -18.1247   27.8254 C   0  0  0  0  0  0  0  0  0  0  0  0
    9.7649  -16.7142   28.1887 C   0  0  2  0  0  0  0  0  0  0  0  0
    9.3739  -15.9562   27.0260 N   0  0  0  0  0  0  0  0  0  0  0  0
   10.9554  -16.0896   28.8563 C   0  0  0  0  0  0  0  0  0  0  0  0
   11.3598  -16.4679   29.9844 O   0  0  0  0  0  0  0  0  0  0  0  0
   11.6585  -15.0619   28.2459 O   0  0  0  0  0  0  0  0  0  0  0  0
  1  2  1  0
  2  3  2  0
  4  2  1  0
  5  4  1  0
  5  6  1  6
  7  5  1  0
  7  8  2  0
 10  9  1  1
 10 11  1  0
 10 12  1  0
 12 13  1  6
 13  7  1  0
 14 12  1  0
 15 14  2  0
 16 17  1  0
 17 19  1  0
 17 18  2  0
 20 19  1  6
 20 21  1  0
 20 22  1  0
 21 14  1  0
 22 24  1  0
 23 22  2  0
M  END
$$$$
