NVN.pdb
     RDKit          3D

 24 23  0  0  1  0  0  0  0  0999 V2000
    7.7523  -19.6639   16.6013 N   0  0  0  0  0  0  0  0  0  0  0  0
    8.2428  -19.9623   17.9013 C   0  0  0  0  0  0  0  0  0  0  0  0
    8.0881  -21.1361   18.3322 O   0  0  0  0  0  0  0  0  0  0  0  0
    8.9203  -18.9590   18.7459 C   0  0  0  0  0  0  0  0  0  0  0  0
    8.8067  -17.5832   18.0929 C   0  0  2  0  0  0  0  0  0  0  0  0
    9.6909  -17.5120   16.9327 N   0  0  0  0  0  0  0  0  0  0  0  0
    9.2036  -16.5408   19.0541 C   0  0  0  0  0  0  0  0  0  0  0  0
   10.4484  -16.2646   19.1462 O   0  0  0  0  0  0  0  0  0  0  0  0
    7.7949  -13.1086   22.3142 C   0  0  0  0  0  0  0  0  0  0  0  0
    7.5400  -13.9672   21.1105 C   0  0  1  0  0  0  0  0  0  0  0  0
    7.2765  -13.0487   19.9332 C   0  0  0  0  0  0  0  0  0  0  0  0
    8.7553  -14.8454   20.8513 C   0  0  2  0  0  0  0  0  0  0  0  0
    8.2943  -15.8466   19.8603 N   0  0  0  0  0  0  0  0  0  0  0  0
    9.0475  -15.5925   22.0909 C   0  0  0  0  0  0  0  0  0  0  0  0
    8.2123  -16.5161   22.4182 O   0  0  0  0  0  0  0  0  0  0  0  0
   13.5786  -15.8581   22.6896 N   0  0  0  0  0  0  0  0  0  0  0  0
   12.6353  -16.6236   23.3892 C   0  0  0  0  0  0  0  0  0  0  0  0
   12.4235  -17.8208   22.9995 O   0  0  0  0  0  0  0  0  0  0  0  0
   11.8460  -16.1716   24.5616 C   0  0  0  0  0  0  0  0  0  0  0  0
   10.3819  -16.1872   24.1145 C   0  0  2  0  0  0  0  0  0  0  0  0
   10.1637  -15.3771   22.9416 N   0  0  0  0  0  0  0  0  0  0  0  0
    9.6327  -15.6334   25.2913 C   0  0  0  0  0  0  0  0  0  0  0  0
    9.0524  -14.5196   25.2459 O   0  0  0  0  0  0  0  0  0  0  0  0
    9.5536  -16.3380   26.4831 O   0  0  0  0  0  0  0  0  0  0  0  0
  1  2  1  0
  2  3  2  0
  4  2  1  0
  5  4  1  0
  5  6  1  6
  7  5  1  0
  7  8  2  0
 10  9  1  1
 10 11  1  0
 10 12  1  0
 12 13  1  6
 13  7  1  0
 14 12  1  0
 15 14  2  0
 16 17  1  0
 17 19  1  0
 17 18  2  0
 20 19  1  1
 20 21  1  0
 20 22  1  0
 21 14  1  0
 22 24  1  0
 23 22  2  0
M  END
$$$$
