NVN.pdb
     RDKit          3D

 24 23  0  0  1  0  0  0  0  0999 V2000
    6.6534  -18.9528   15.8169 N   0  0  0  0  0  0  0  0  0  0  0  0
    7.0093  -19.5028   17.0780 C   0  0  0  0  0  0  0  0  0  0  0  0
    6.6065  -20.6661   17.3461 O   0  0  0  0  0  0  0  0  0  0  0  0
    7.8260  -18.7687   18.0644 C   0  0  0  0  0  0  0  0  0  0  0  0
    8.1102  -17.3614   17.5440 C   0  0  2  0  0  0  0  0  0  0  0  0
    9.0545  -17.4269   16.4318 N   0  0  0  0  0  0  0  0  0  0  0  0
    8.6996  -16.5427   18.6166 C   0  0  0  0  0  0  0  0  0  0  0  0
    9.9738  -16.5310   18.7191 O   0  0  0  0  0  0  0  0  0  0  0  0
    8.0069  -13.0757   22.0638 C   0  0  0  0  0  0  0  0  0  0  0  0
    7.5014  -13.9278   20.9371 C   0  0  1  0  0  0  0  0  0  0  0  0
    7.1298  -13.0077   19.7906 C   0  0  0  0  0  0  0  0  0  0  0  0
    8.5892  -14.9052   20.5170 C   0  0  2  0  0  0  0  0  0  0  0  0
    7.9407  -15.7861   19.5168 N   0  0  0  0  0  0  0  0  0  0  0  0
    8.9050  -15.7592   21.6794 C   0  0  0  0  0  0  0  0  0  0  0  0
    7.9289  -16.4295   22.1848 O   0  0  0  0  0  0  0  0  0  0  0  0
   11.9415  -19.0491   21.7897 N   0  0  0  0  0  0  0  0  0  0  0  0
   12.2607  -17.7626   22.2462 C   0  0  0  0  0  0  0  0  0  0  0  0
   12.9517  -17.0075   21.4831 O   0  0  0  0  0  0  0  0  0  0  0  0
   11.8645  -17.1804   23.5523 C   0  0  0  0  0  0  0  0  0  0  0  0
   10.3956  -16.7752   23.4042 C   0  0  2  0  0  0  0  0  0  0  0  0
   10.1849  -15.8997   22.2778 N   0  0  0  0  0  0  0  0  0  0  0  0
   10.0769  -16.0728   24.6918 C   0  0  0  0  0  0  0  0  0  0  0  0
    9.7256  -16.7004   25.7224 O   0  0  0  0  0  0  0  0  0  0  0  0
   10.1591  -14.6921   24.7911 O   0  0  0  0  0  0  0  0  0  0  0  0
  1  2  1  0
  2  3  2  0
  4  2  1  0
  5  4  1  0
  5  6  1  6
  7  5  1  0
  7  8  2  0
 10  9  1  1
 10 11  1  0
 10 12  1  0
 12 13  1  6
 13  7  1  0
 14 12  1  0
 15 14  2  0
 16 17  1  0
 17 19  1  0
 17 18  2  0
 20 19  1  1
 20 21  1  0
 20 22  1  0
 21 14  1  0
 22 24  1  0
 23 22  2  0
M  END
$$$$
