NVN.pdb
     RDKit          3D

 24 23  0  0  1  0  0  0  0  0999 V2000
    7.8399  -16.5312   19.3906 N   0  0  0  0  0  0  0  0  0  0  0  0
    7.9494  -15.1184   19.4981 C   0  0  0  0  0  0  0  0  0  0  0  0
    7.8182  -14.4375   18.4462 O   0  0  0  0  0  0  0  0  0  0  0  0
    8.2027  -14.4352   20.7818 C   0  0  0  0  0  0  0  0  0  0  0  0
    8.2559  -15.4673   21.9062 C   0  0  2  0  0  0  0  0  0  0  0  0
    6.9472  -16.0963   22.0624 N   0  0  0  0  0  0  0  0  0  0  0  0
    8.6170  -14.8074   23.1720 C   0  0  0  0  0  0  0  0  0  0  0  0
    9.8024  -14.3409   23.2784 O   0  0  0  0  0  0  0  0  0  0  0  0
    7.1996  -12.5722   27.2786 C   0  0  0  0  0  0  0  0  0  0  0  0
    6.8761  -13.3656   26.0469 C   0  0  1  0  0  0  0  0  0  0  0  0
    6.2608  -12.4194   25.0343 C   0  0  0  0  0  0  0  0  0  0  0  0
    8.1515  -13.9900   25.5002 C   0  0  2  0  0  0  0  0  0  0  0  0
    7.7349  -14.6679   24.2496 N   0  0  0  0  0  0  0  0  0  0  0  0
    8.5692  -15.0570   26.4314 C   0  0  0  0  0  0  0  0  0  0  0  0
    8.9696  -14.6819   27.5962 O   0  0  0  0  0  0  0  0  0  0  0  0
    6.3953  -18.6276   25.3033 N   0  0  0  0  0  0  0  0  0  0  0  0
    6.9648  -18.5130   26.5791 C   0  0  0  0  0  0  0  0  0  0  0  0
    6.2123  -18.1471   27.5434 O   0  0  0  0  0  0  0  0  0  0  0  0
    8.3821  -18.7829   26.9258 C   0  0  0  0  0  0  0  0  0  0  0  0
    9.0382  -17.4121   27.1116 C   0  0  2  0  0  0  0  0  0  0  0  0
    8.5642  -16.4485   26.1491 N   0  0  0  0  0  0  0  0  0  0  0  0
   10.5033  -17.6776   26.9224 C   0  0  0  0  0  0  0  0  0  0  0  0
   11.1645  -17.1328   26.0030 O   0  0  0  0  0  0  0  0  0  0  0  0
   11.1865  -18.5428   27.7637 O   0  0  0  0  0  0  0  0  0  0  0  0
  1  2  1  0
  2  3  2  0
  4  2  1  0
  5  4  1  0
  5  6  1  1
  7  5  1  0
  7  8  2  0
 10  9  1  1
 10 11  1  0
 10 12  1  0
 12 13  1  6
 13  7  1  0
 14 12  1  0
 15 14  2  0
 16 17  1  0
 17 19  1  0
 17 18  2  0
 20 19  1  6
 20 21  1  0
 20 22  1  0
 21 14  1  0
 22 24  1  0
 23 22  2  0
M  END
$$$$
