NVN.pdb
     RDKit          3D

 24 23  0  0  1  0  0  0  0  0999 V2000
    8.8549  -19.2585   15.7616 N   0  0  0  0  0  0  0  0  0  0  0  0
    9.3458  -17.9879   15.3563 C   0  0  0  0  0  0  0  0  0  0  0  0
    9.7597  -17.8687   14.1724 O   0  0  0  0  0  0  0  0  0  0  0  0
    9.3807  -16.8226   16.2617 C   0  0  0  0  0  0  0  0  0  0  0  0
    8.9326  -17.2488   17.6580 C   0  0  2  0  0  0  0  0  0  0  0  0
    7.4742  -17.2353   17.7347 N   0  0  0  0  0  0  0  0  0  0  0  0
    9.4671  -16.3123   18.6607 C   0  0  0  0  0  0  0  0  0  0  0  0
   10.7367  -16.2540   18.7976 O   0  0  0  0  0  0  0  0  0  0  0  0
    7.7278  -12.8471   19.8319 C   0  0  0  0  0  0  0  0  0  0  0  0
    8.1116  -13.7412   20.9739 C   0  0  1  0  0  0  0  0  0  0  0  0
    6.8867  -14.5444   21.3658 C   0  0  0  0  0  0  0  0  0  0  0  0
    9.2443  -14.6587   20.5371 C   0  0  2  0  0  0  0  0  0  0  0  0
    8.6613  -15.4932   19.4598 N   0  0  0  0  0  0  0  0  0  0  0  0
    9.5429  -15.5745   21.6561 C   0  0  0  0  0  0  0  0  0  0  0  0
    8.7743  -16.5995   21.7835 O   0  0  0  0  0  0  0  0  0  0  0  0
   12.5910  -17.6079   21.7893 N   0  0  0  0  0  0  0  0  0  0  0  0
   13.0534  -16.8006   22.8380 C   0  0  0  0  0  0  0  0  0  0  0  0
   14.2312  -16.3159   22.7499 O   0  0  0  0  0  0  0  0  0  0  0  0
   12.2933  -16.4452   24.0618 C   0  0  0  0  0  0  0  0  0  0  0  0
   10.8227  -16.3829   23.6405 C   0  0  2  0  0  0  0  0  0  0  0  0
   10.5987  -15.4180   22.5925 N   0  0  0  0  0  0  0  0  0  0  0  0
   10.0982  -15.9862   24.8937 C   0  0  0  0  0  0  0  0  0  0  0  0
   10.0439  -16.7403   25.8975 O   0  0  0  0  0  0  0  0  0  0  0  0
    9.4559  -14.7608   24.9895 O   0  0  0  0  0  0  0  0  0  0  0  0
  1  2  1  0
  2  3  2  0
  4  2  1  0
  5  4  1  0
  5  6  1  6
  7  5  1  0
  7  8  2  0
 10  9  1  6
 10 11  1  0
 10 12  1  0
 12 13  1  6
 13  7  1  0
 14 12  1  0
 15 14  2  0
 16 17  1  0
 17 19  1  0
 17 18  2  0
 20 19  1  1
 20 21  1  0
 20 22  1  0
 21 14  1  0
 22 24  1  0
 23 22  2  0
M  END
$$$$
