NVN.pdb
     RDKit          3D

 24 23  0  0  1  0  0  0  0  0999 V2000
   11.1049  -19.2600   18.8163 N   0  0  0  0  0  0  0  0  0  0  0  0
   11.5243  -17.9047   18.7318 C   0  0  0  0  0  0  0  0  0  0  0  0
   12.1378  -17.5437   17.6923 O   0  0  0  0  0  0  0  0  0  0  0  0
   11.2640  -16.9229   19.8028 C   0  0  0  0  0  0  0  0  0  0  0  0
   10.6153  -17.6270   20.9926 C   0  0  2  0  0  0  0  0  0  0  0  0
    9.3277  -18.1885   20.5930 N   0  0  0  0  0  0  0  0  0  0  0  0
   10.3921  -16.6618   22.0820 C   0  0  0  0  0  0  0  0  0  0  0  0
   11.4227  -16.1473   22.6365 O   0  0  0  0  0  0  0  0  0  0  0  0
    7.2066  -13.9078   24.6548 C   0  0  0  0  0  0  0  0  0  0  0  0
    7.5544  -14.7589   23.4693 C   0  0  1  0  0  0  0  0  0  0  0  0
    7.4774  -13.8850   22.2325 C   0  0  0  0  0  0  0  0  0  0  0  0
    8.9563  -15.3232   23.6477 C   0  0  2  0  0  0  0  0  0  0  0  0
    9.1216  -16.2855   22.5325 N   0  0  0  0  0  0  0  0  0  0  0  0
    8.9689  -16.1213   24.8899 C   0  0  0  0  0  0  0  0  0  0  0  0
    8.7716  -15.4807   25.9892 O   0  0  0  0  0  0  0  0  0  0  0  0
    6.9741  -18.3446   27.9219 N   0  0  0  0  0  0  0  0  0  0  0  0
    7.2362  -19.4320   27.0768 C   0  0  0  0  0  0  0  0  0  0  0  0
    6.4323  -20.4236   27.1052 O   0  0  0  0  0  0  0  0  0  0  0  0
    8.3756  -19.5448   26.1331 C   0  0  0  0  0  0  0  0  0  0  0  0
    9.1358  -18.2195   26.2311 C   0  0  2  0  0  0  0  0  0  0  0  0
    9.1782  -17.5234   24.9689 N   0  0  0  0  0  0  0  0  0  0  0  0
   10.5158  -18.6191   26.6657 C   0  0  0  0  0  0  0  0  0  0  0  0
   10.7365  -19.1292   27.7928 O   0  0  0  0  0  0  0  0  0  0  0  0
   11.6079  -18.4373   25.8306 O   0  0  0  0  0  0  0  0  0  0  0  0
  1  2  1  0
  2  3  2  0
  4  2  1  0
  5  4  1  0
  5  6  1  6
  7  5  1  0
  7  8  2  0
 10  9  1  1
 10 11  1  0
 10 12  1  0
 12 13  1  6
 13  7  1  0
 14 12  1  0
 15 14  2  0
 16 17  1  0
 17 19  1  0
 17 18  2  0
 20 19  1  6
 20 21  1  0
 20 22  1  0
 21 14  1  0
 22 24  1  0
 23 22  2  0
M  END
$$$$
