NVN.pdb
     RDKit          3D

 24 23  0  0  1  0  0  0  0  0999 V2000
    7.0961  -18.6311   14.8650 N   0  0  0  0  0  0  0  0  0  0  0  0
    7.3379  -19.2097   16.1402 C   0  0  0  0  0  0  0  0  0  0  0  0
    7.0196  -20.4173   16.3070 O   0  0  0  0  0  0  0  0  0  0  0  0
    7.9444  -18.4551   17.2545 C   0  0  0  0  0  0  0  0  0  0  0  0
    8.1116  -16.9926   16.8477 C   0  0  2  0  0  0  0  0  0  0  0  0
    8.9825  -16.9010   15.6789 N   0  0  0  0  0  0  0  0  0  0  0  0
    8.7224  -16.2346   17.9525 C   0  0  0  0  0  0  0  0  0  0  0  0
    9.9986  -16.2186   18.0240 O   0  0  0  0  0  0  0  0  0  0  0  0
    8.1521  -13.2360   21.8331 C   0  0  0  0  0  0  0  0  0  0  0  0
    7.6219  -13.8873   20.5899 C   0  0  1  0  0  0  0  0  0  0  0  0
    7.3685  -12.7969   19.5672 C   0  0  0  0  0  0  0  0  0  0  0  0
    8.6424  -14.8899   20.0716 C   0  0  2  0  0  0  0  0  0  0  0  0
    7.9812  -15.5392   18.9147 N   0  0  0  0  0  0  0  0  0  0  0  0
    8.8085  -15.9391   21.0972 C   0  0  0  0  0  0  0  0  0  0  0  0
    8.0684  -16.9857   20.9770 O   0  0  0  0  0  0  0  0  0  0  0  0
   13.0461  -19.3011   22.6524 N   0  0  0  0  0  0  0  0  0  0  0  0
   11.7032  -19.0154   22.3686 C   0  0  0  0  0  0  0  0  0  0  0  0
   10.8203  -19.8713   22.7121 O   0  0  0  0  0  0  0  0  0  0  0  0
   11.1975  -17.7919   21.6984 C   0  0  0  0  0  0  0  0  0  0  0  0
   10.3123  -17.0838   22.7274 C   0  0  2  0  0  0  0  0  0  0  0  0
    9.7096  -15.8875   22.1933 N   0  0  0  0  0  0  0  0  0  0  0  0
   11.2497  -16.7518   23.8516 C   0  0  0  0  0  0  0  0  0  0  0  0
   12.0221  -15.7617   23.8030 O   0  0  0  0  0  0  0  0  0  0  0  0
   11.2977  -17.5340   24.9957 O   0  0  0  0  0  0  0  0  0  0  0  0
  1  2  1  0
  2  3  2  0
  4  2  1  0
  5  4  1  0
  5  6  1  6
  7  5  1  0
  7  8  2  0
 10  9  1  1
 10 11  1  0
 10 12  1  0
 12 13  1  6
 13  7  1  0
 14 12  1  0
 15 14  2  0
 16 17  1  0
 17 19  1  0
 17 18  2  0
 20 19  1  6
 20 21  1  0
 20 22  1  0
 21 14  1  0
 22 24  1  0
 23 22  2  0
M  END
$$$$
