NVN.pdb
     RDKit          3D

 24 23  0  0  1  0  0  0  0  0999 V2000
    6.9304  -21.2075   17.7135 N   0  0  0  0  0  0  0  0  0  0  0  0
    6.8200  -19.7959   17.5924 C   0  0  0  0  0  0  0  0  0  0  0  0
    6.0002  -19.3410   16.7508 O   0  0  0  0  0  0  0  0  0  0  0  0
    7.6181  -18.8622   18.4110 C   0  0  0  0  0  0  0  0  0  0  0  0
    7.7258  -17.5190   17.6924 C   0  0  2  0  0  0  0  0  0  0  0  0
    8.4951  -17.6774   16.4610 N   0  0  0  0  0  0  0  0  0  0  0  0
    8.4129  -16.5448   18.5566 C   0  0  0  0  0  0  0  0  0  0  0  0
    9.6728  -16.3986   18.3976 O   0  0  0  0  0  0  0  0  0  0  0  0
    8.0511  -12.6125   21.4472 C   0  0  0  0  0  0  0  0  0  0  0  0
    7.5169  -13.6000   20.4520 C   0  0  1  0  0  0  0  0  0  0  0  0
    7.3577  -12.8819   19.1260 C   0  0  0  0  0  0  0  0  0  0  0  0
    8.4891  -14.7636   20.3248 C   0  0  2  0  0  0  0  0  0  0  0  0
    7.7600  -15.7808   19.5307 N   0  0  0  0  0  0  0  0  0  0  0  0
    8.6792  -15.3444   21.6690 C   0  0  0  0  0  0  0  0  0  0  0  0
    7.6383  -15.8545   22.2294 O   0  0  0  0  0  0  0  0  0  0  0  0
   11.2667  -18.9225   24.1694 N   0  0  0  0  0  0  0  0  0  0  0  0
   11.1282  -18.8704   22.7754 C   0  0  0  0  0  0  0  0  0  0  0  0
   11.4072  -19.9195   22.1034 O   0  0  0  0  0  0  0  0  0  0  0  0
   10.6782  -17.6949   21.9897 C   0  0  0  0  0  0  0  0  0  0  0  0
   10.3671  -16.5992   23.0127 C   0  0  2  0  0  0  0  0  0  0  0  0
    9.9045  -15.3860   22.3852 N   0  0  0  0  0  0  0  0  0  0  0  0
   11.6739  -16.3708   23.7149 C   0  0  0  0  0  0  0  0  0  0  0  0
   11.9058  -16.8399   24.8575 O   0  0  0  0  0  0  0  0  0  0  0  0
   12.6823  -15.6259   23.1220 O   0  0  0  0  0  0  0  0  0  0  0  0
  1  2  1  0
  2  3  2  0
  4  2  1  0
  5  4  1  0
  5  6  1  6
  7  5  1  0
  7  8  2  0
 10  9  1  1
 10 11  1  0
 10 12  1  0
 12 13  1  6
 13  7  1  0
 14 12  1  0
 15 14  2  0
 16 17  1  0
 17 19  1  0
 17 18  2  0
 20 19  1  6
 20 21  1  0
 20 22  1  0
 21 14  1  0
 22 24  1  0
 23 22  2  0
M  END
$$$$
