FFV.pdb
     RDKit          3D

 30 31  0  0  1  0  0  0  0  0999 V2000
   11.1557  -16.7786   19.9568 N   0  0  0  0  0  0  0  0  0  0  0  0
   10.0749  -17.2535   20.7998 C   0  0  1  0  0  0  0  0  0  0  0  0
   10.5345  -18.5691   21.4390 C   0  0  0  0  0  0  0  0  0  0  0  0
    9.6059  -19.6667   21.1638 C   0  0  0  0  0  0  0  0  0  0  0  0
    8.4867  -19.4483   20.4055 C   0  0  0  0  0  0  0  0  0  0  0  0
    7.6326  -20.4803   20.1588 C   0  0  0  0  0  0  0  0  0  0  0  0
    7.8574  -21.7405   20.6480 C   0  0  0  0  0  0  0  0  0  0  0  0
    8.9766  -21.9733   21.4104 C   0  0  0  0  0  0  0  0  0  0  0  0
    9.8361  -20.9238   21.6555 C   0  0  0  0  0  0  0  0  0  0  0  0
    9.9351  -16.2904   21.9482 C   0  0  0  0  0  0  0  0  0  0  0  0
   10.9409  -15.6803   22.4186 O   0  0  0  0  0  0  0  0  0  0  0  0
    8.6868  -16.0177   22.5575 N   0  0  0  0  0  0  0  0  0  0  0  0
    8.5620  -15.1111   23.6500 C   0  0  1  0  0  0  0  0  0  0  0  0
    7.2298  -14.4177   23.7225 C   0  0  0  0  0  0  0  0  0  0  0  0
    7.0604  -13.5312   24.8714 C   0  0  0  0  0  0  0  0  0  0  0  0
    6.2742  -13.8923   25.9494 C   0  0  0  0  0  0  0  0  0  0  0  0
    6.1051  -13.0626   27.0426 C   0  0  0  0  0  0  0  0  0  0  0  0
    6.7167  -11.8295   27.1075 C   0  0  0  0  0  0  0  0  0  0  0  0
    7.5039  -11.4557   26.0397 C   0  0  0  0  0  0  0  0  0  0  0  0
    7.6736  -12.2960   24.9356 C   0  0  0  0  0  0  0  0  0  0  0  0
    8.8867  -15.7549   24.9542 C   0  0  0  0  0  0  0  0  0  0  0  0
    8.3560  -16.8592   25.2350 O   0  0  0  0  0  0  0  0  0  0  0  0
   12.2028  -15.9832   28.6331 C   0  0  0  0  0  0  0  0  0  0  0  0
   11.4657  -15.0923   27.6628 C   0  0  2  0  0  0  0  0  0  0  0  0
   10.9130  -13.8538   28.2913 C   0  0  0  0  0  0  0  0  0  0  0  0
   10.4230  -15.9247   26.9518 C   0  0  2  0  0  0  0  0  0  0  0  0
    9.7675  -15.1801   25.8954 N   0  0  0  0  0  0  0  0  0  0  0  0
    9.4272  -16.4118   27.9389 C   0  0  0  0  0  0  0  0  0  0  0  0
    9.7955  -17.4194   28.8137 O   0  0  0  0  0  0  0  0  0  0  0  0
    8.2717  -15.9663   28.0291 O   0  0  0  0  0  0  0  0  0  0  0  0
  2  1  1  6
  3  4  1  0
  3  2  1  0
  4  9  2  0
  5  6  2  0
  5  4  1  0
  6  7  1  0
  7  8  2  0
  9  8  1  0
 10  2  1  0
 10 11  2  0
 12 10  1  0
 13 12  1  0
 13 21  1  0
 13 14  1  1
 15 14  1  0
 15 16  2  0
 17 16  1  0
 18 17  2  0
 19 20  2  0
 19 18  1  0
 20 15  1  0
 21 22  2  0
 21 27  1  0
 24 23  1  1
 24 25  1  0
 24 26  1  0
 26 28  1  0
 26 27  1  6
 28 30  2  0
 28 29  1  0
M  END
$$$$
