FFV.pdb
     RDKit          3D

 30 31  0  0  1  0  0  0  0  0999 V2000
    7.4377  -17.8847   20.2945 N   0  0  0  0  0  0  0  0  0  0  0  0
    6.5205  -17.4134   21.3150 C   0  0  1  0  0  0  0  0  0  0  0  0
    5.9903  -18.6439   22.0603 C   0  0  0  0  0  0  0  0  0  0  0  0
    4.6274  -18.9877   21.6518 C   0  0  0  0  0  0  0  0  0  0  0  0
    3.9836  -20.0511   22.2266 C   0  0  0  0  0  0  0  0  0  0  0  0
    2.7156  -20.3579   21.8351 C   0  0  0  0  0  0  0  0  0  0  0  0
    2.0566  -19.6323   20.8774 C   0  0  0  0  0  0  0  0  0  0  0  0
    2.6910  -18.5629   20.2926 C   0  0  0  0  0  0  0  0  0  0  0  0
    3.9742  -18.2588   20.6942 C   0  0  0  0  0  0  0  0  0  0  0  0
    7.3253  -16.6558   22.3369 C   0  0  0  0  0  0  0  0  0  0  0  0
    8.5905  -16.7197   22.3539 O   0  0  0  0  0  0  0  0  0  0  0  0
    6.7188  -15.8406   23.3225 N   0  0  0  0  0  0  0  0  0  0  0  0
    7.4822  -15.1699   24.3218 C   0  0  1  0  0  0  0  0  0  0  0  0
    6.7463  -14.0534   25.0093 C   0  0  0  0  0  0  0  0  0  0  0  0
    7.4940  -13.3892   26.0744 C   0  0  0  0  0  0  0  0  0  0  0  0
    7.2550  -13.6725   27.4061 C   0  0  0  0  0  0  0  0  0  0  0  0
    7.9550  -13.0508   28.4237 C   0  0  0  0  0  0  0  0  0  0  0  0
    8.9293  -12.1141   28.1548 C   0  0  0  0  0  0  0  0  0  0  0  0
    9.1786  -11.8213   26.8313 C   0  0  0  0  0  0  0  0  0  0  0  0
    8.4699  -12.4509   25.8041 C   0  0  0  0  0  0  0  0  0  0  0  0
    8.0498  -16.1155   25.3240 C   0  0  0  0  0  0  0  0  0  0  0  0
    7.2637  -16.8026   26.0237 O   0  0  0  0  0  0  0  0  0  0  0  0
   12.3365  -16.8513   25.7093 C   0  0  0  0  0  0  0  0  0  0  0  0
   11.2586  -17.9080   25.7237 C   0  0  2  0  0  0  0  0  0  0  0  0
   11.0090  -18.5242   24.3849 C   0  0  0  0  0  0  0  0  0  0  0  0
   10.0198  -17.3140   26.3547 C   0  0  2  0  0  0  0  0  0  0  0  0
    9.4372  -16.2774   25.5264 N   0  0  0  0  0  0  0  0  0  0  0  0
   10.3613  -16.7768   27.6956 C   0  0  0  0  0  0  0  0  0  0  0  0
   10.2298  -15.4173   27.9209 O   0  0  0  0  0  0  0  0  0  0  0  0
   10.7619  -17.4794   28.6377 O   0  0  0  0  0  0  0  0  0  0  0  0
  2  1  1  6
  3  4  1  0
  3  2  1  0
  4  9  2  0
  5  6  2  0
  5  4  1  0
  6  7  1  0
  7  8  2  0
  9  8  1  0
 10  2  1  0
 10 11  2  0
 12 10  1  0
 13 12  1  0
 13 21  1  0
 13 14  1  1
 15 14  1  0
 15 16  2  0
 17 16  1  0
 18 17  2  0
 19 20  2  0
 19 18  1  0
 20 15  1  0
 21 22  2  0
 21 27  1  0
 24 23  1  6
 24 25  1  0
 24 26  1  0
 26 28  1  0
 26 27  1  6
 28 30  2  0
 28 29  1  0
M  END
$$$$
