FFV.pdb
     RDKit          3D

 30 31  0  0  1  0  0  0  0  0999 V2000
    9.7854  -16.6058   18.9779 N   0  0  0  0  0  0  0  0  0  0  0  0
    8.6272  -16.8078   19.8278 C   0  0  1  0  0  0  0  0  0  0  0  0
    8.5537  -18.3034   20.1570 C   0  0  0  0  0  0  0  0  0  0  0  0
    8.0441  -19.0886   19.0316 C   0  0  0  0  0  0  0  0  0  0  0  0
    8.9138  -19.6831   18.1567 C   0  0  0  0  0  0  0  0  0  0  0  0
    8.4234  -20.4103   17.1145 C   0  0  0  0  0  0  0  0  0  0  0  0
    7.0775  -20.5683   16.9103 C   0  0  0  0  0  0  0  0  0  0  0  0
    6.1939  -19.9770   17.7807 C   0  0  0  0  0  0  0  0  0  0  0  0
    6.6981  -19.2428   18.8329 C   0  0  0  0  0  0  0  0  0  0  0  0
    8.9040  -16.1323   21.1442 C   0  0  0  0  0  0  0  0  0  0  0  0
   10.0673  -16.1258   21.6462 O   0  0  0  0  0  0  0  0  0  0  0  0
    7.8913  -15.4755   21.8837 N   0  0  0  0  0  0  0  0  0  0  0  0
    8.1601  -14.8348   23.1280 C   0  0  1  0  0  0  0  0  0  0  0  0
    7.1126  -13.8398   23.5445 C   0  0  0  0  0  0  0  0  0  0  0  0
    7.3326  -13.2274   24.8526 C   0  0  0  0  0  0  0  0  0  0  0  0
    8.3056  -12.2639   25.0417 C   0  0  0  0  0  0  0  0  0  0  0  0
    8.5245  -11.6769   26.2744 C   0  0  0  0  0  0  0  0  0  0  0  0
    7.7777  -12.0279   27.3779 C   0  0  0  0  0  0  0  0  0  0  0  0
    6.8036  -12.9875   27.2046 C   0  0  0  0  0  0  0  0  0  0  0  0
    6.5839  -13.5798   25.9576 C   0  0  0  0  0  0  0  0  0  0  0  0
    8.4126  -15.8151   24.2217 C   0  0  0  0  0  0  0  0  0  0  0  0
    7.4715  -16.5565   24.6017 O   0  0  0  0  0  0  0  0  0  0  0  0
   12.3805  -16.9225   25.3492 C   0  0  0  0  0  0  0  0  0  0  0  0
   11.1656  -17.8175   25.3903 C   0  0  2  0  0  0  0  0  0  0  0  0
   10.9369  -18.5719   24.1203 C   0  0  0  0  0  0  0  0  0  0  0  0
    9.9780  -16.9867   25.8205 C   0  0  2  0  0  0  0  0  0  0  0  0
    9.6664  -15.9517   24.8553 N   0  0  0  0  0  0  0  0  0  0  0  0
   10.2528  -16.3900   27.1516 C   0  0  0  0  0  0  0  0  0  0  0  0
   10.3890  -15.0159   27.2495 O   0  0  0  0  0  0  0  0  0  0  0  0
   10.3693  -17.0548   28.1938 O   0  0  0  0  0  0  0  0  0  0  0  0
  2  1  1  6
  3  4  1  0
  3  2  1  0
  4  9  2  0
  5  6  2  0
  5  4  1  0
  6  7  1  0
  7  8  2  0
  9  8  1  0
 10  2  1  0
 10 11  2  0
 12 10  1  0
 13 12  1  0
 13 21  1  0
 13 14  1  1
 15 14  1  0
 15 16  2  0
 17 16  1  0
 18 17  2  0
 19 20  2  0
 19 18  1  0
 20 15  1  0
 21 22  2  0
 21 27  1  0
 24 23  1  6
 24 25  1  0
 24 26  1  0
 26 28  1  0
 26 27  1  6
 28 30  2  0
 28 29  1  0
M  END
$$$$
