FFV.pdb
     RDKit          3D

 30 31  0  0  1  0  0  0  0  0999 V2000
    6.6280  -15.9333   21.7005 N   0  0  0  0  0  0  0  0  0  0  0  0
    7.9831  -16.4501   21.7334 C   0  0  1  0  0  0  0  0  0  0  0  0
    8.8325  -15.5724   20.8067 C   0  0  0  0  0  0  0  0  0  0  0  0
    8.2120  -14.2689   20.5648 C   0  0  0  0  0  0  0  0  0  0  0  0
    8.8633  -13.1187   20.9233 C   0  0  0  0  0  0  0  0  0  0  0  0
    8.2721  -11.9138   20.6914 C   0  0  0  0  0  0  0  0  0  0  0  0
    7.0369  -11.8125   20.1066 C   0  0  0  0  0  0  0  0  0  0  0  0
    6.3724  -12.9587   19.7420 C   0  0  0  0  0  0  0  0  0  0  0  0
    6.9774  -14.1743   19.9800 C   0  0  0  0  0  0  0  0  0  0  0  0
    8.5317  -16.2043   23.1134 C   0  0  0  0  0  0  0  0  0  0  0  0
    9.5800  -15.5149   23.2893 O   0  0  0  0  0  0  0  0  0  0  0  0
    7.9131  -16.7242   24.2757 N   0  0  0  0  0  0  0  0  0  0  0  0
    8.5349  -16.6569   25.5563 C   0  0  1  0  0  0  0  0  0  0  0  0
    7.6733  -16.0429   26.6248 C   0  0  0  0  0  0  0  0  0  0  0  0
    7.4141  -14.6146   26.4595 C   0  0  0  0  0  0  0  0  0  0  0  0
    8.2672  -13.6627   26.9856 C   0  0  0  0  0  0  0  0  0  0  0  0
    8.0333  -12.3080   26.8369 C   0  0  0  0  0  0  0  0  0  0  0  0
    6.9316  -11.8420   26.1528 C   0  0  0  0  0  0  0  0  0  0  0  0
    6.0719  -12.7797   25.6224 C   0  0  0  0  0  0  0  0  0  0  0  0
    6.3102  -14.1487   25.7739 C   0  0  0  0  0  0  0  0  0  0  0  0
    9.0516  -17.9822   26.0003 C   0  0  0  0  0  0  0  0  0  0  0  0
    8.4537  -19.0230   25.6273 O   0  0  0  0  0  0  0  0  0  0  0  0
   11.6313  -19.8707   24.4898 C   0  0  0  0  0  0  0  0  0  0  0  0
   12.1235  -19.1507   25.7218 C   0  0  2  0  0  0  0  0  0  0  0  0
   13.4827  -19.5873   26.1652 C   0  0  0  0  0  0  0  0  0  0  0  0
   11.0691  -19.2757   26.7980 C   0  0  2  0  0  0  0  0  0  0  0  0
   10.1878  -18.1256   26.8252 N   0  0  0  0  0  0  0  0  0  0  0  0
   11.7305  -19.4546   28.1147 C   0  0  0  0  0  0  0  0  0  0  0  0
   11.5711  -18.4735   29.0781 O   0  0  0  0  0  0  0  0  0  0  0  0
   12.4253  -20.4409   28.4083 O   0  0  0  0  0  0  0  0  0  0  0  0
  2  1  1  1
  3  4  1  0
  3  2  1  0
  4  9  2  0
  5  6  2  0
  5  4  1  0
  6  7  1  0
  7  8  2  0
  9  8  1  0
 10  2  1  0
 10 11  2  0
 12 10  1  0
 13 12  1  0
 13 21  1  0
 13 14  1  1
 15 14  1  0
 15 16  2  0
 17 16  1  0
 18 17  2  0
 19 20  2  0
 19 18  1  0
 20 15  1  0
 21 22  2  0
 21 27  1  0
 24 23  1  6
 24 25  1  0
 24 26  1  0
 26 28  1  0
 26 27  1  1
 28 30  2  0
 28 29  1  0
M  END
$$$$
