FFV.pdb
     RDKit          3D

 30 31  0  0  1  0  0  0  0  0999 V2000
    7.9278  -16.9238   20.2279 N   0  0  0  0  0  0  0  0  0  0  0  0
    9.3229  -16.8059   20.6079 C   0  0  1  0  0  0  0  0  0  0  0  0
    9.9329  -15.6745   19.7723 C   0  0  0  0  0  0  0  0  0  0  0  0
    8.9949  -14.5673   19.5799 C   0  0  0  0  0  0  0  0  0  0  0  0
    9.2163  -13.3627   20.1926 C   0  0  0  0  0  0  0  0  0  0  0  0
    8.3337  -12.3426   20.0034 C   0  0  0  0  0  0  0  0  0  0  0  0
    7.2223  -12.4821   19.2140 C   0  0  0  0  0  0  0  0  0  0  0  0
    6.9883  -13.6855   18.5934 C   0  0  0  0  0  0  0  0  0  0  0  0
    7.8861  -14.7130   18.7898 C   0  0  0  0  0  0  0  0  0  0  0  0
    9.3684  -16.3094   22.0282 C   0  0  0  0  0  0  0  0  0  0  0  0
   10.4659  -15.9982   22.5793 O   0  0  0  0  0  0  0  0  0  0  0  0
    8.2008  -16.1651   22.8155 N   0  0  0  0  0  0  0  0  0  0  0  0
    8.2358  -15.5907   24.1194 C   0  0  1  0  0  0  0  0  0  0  0  0
    7.0447  -14.7321   24.4434 C   0  0  0  0  0  0  0  0  0  0  0  0
    7.1654  -13.9533   25.6737 C   0  0  0  0  0  0  0  0  0  0  0  0
    7.6897  -12.6744   25.6674 C   0  0  0  0  0  0  0  0  0  0  0  0
    7.8101  -11.9269   26.8244 C   0  0  0  0  0  0  0  0  0  0  0  0
    7.4101  -12.4263   28.0448 C   0  0  0  0  0  0  0  0  0  0  0  0
    6.8853  -13.7005   28.0668 C   0  0  0  0  0  0  0  0  0  0  0  0
    6.7645  -14.4545   26.8959 C   0  0  0  0  0  0  0  0  0  0  0  0
    8.4432  -16.6169   25.1799 C   0  0  0  0  0  0  0  0  0  0  0  0
    7.4945  -17.3879   25.4726 O   0  0  0  0  0  0  0  0  0  0  0  0
   12.3772  -17.8294   26.3746 C   0  0  0  0  0  0  0  0  0  0  0  0
   11.1373  -18.6843   26.2721 C   0  0  2  0  0  0  0  0  0  0  0  0
   10.9309  -19.2760   24.9149 C   0  0  0  0  0  0  0  0  0  0  0  0
    9.9593  -17.8731   26.7619 C   0  0  2  0  0  0  0  0  0  0  0  0
    9.6619  -16.7656   25.8759 N   0  0  0  0  0  0  0  0  0  0  0  0
   10.2392  -17.3802   28.1338 C   0  0  0  0  0  0  0  0  0  0  0  0
   10.4373  -16.0238   28.3259 O   0  0  0  0  0  0  0  0  0  0  0  0
   10.3073  -18.1178   29.1303 O   0  0  0  0  0  0  0  0  0  0  0  0
  2  1  1  6
  3  4  1  0
  3  2  1  0
  4  9  2  0
  5  6  2  0
  5  4  1  0
  6  7  1  0
  7  8  2  0
  9  8  1  0
 10  2  1  0
 10 11  2  0
 12 10  1  0
 13 12  1  0
 13 21  1  0
 13 14  1  1
 15 14  1  0
 15 16  2  0
 17 16  1  0
 18 17  2  0
 19 20  2  0
 19 18  1  0
 20 15  1  0
 21 22  2  0
 21 27  1  0
 24 23  1  6
 24 25  1  0
 24 26  1  0
 26 28  1  0
 26 27  1  6
 28 30  2  0
 28 29  1  0
M  END
$$$$
