FFV.pdb
     RDKit          3D

 30 31  0  0  1  0  0  0  0  0999 V2000
   10.2931  -16.4374   19.9879 N   0  0  0  0  0  0  0  0  0  0  0  0
    9.6078  -15.4691   20.8229 C   0  0  1  0  0  0  0  0  0  0  0  0
    8.1043  -15.6213   20.5641 C   0  0  0  0  0  0  0  0  0  0  0  0
    7.5745  -14.5275   19.7482 C   0  0  0  0  0  0  0  0  0  0  0  0
    7.4915  -14.6608   18.3877 C   0  0  0  0  0  0  0  0  0  0  0  0
    6.9962  -13.6335   17.6429 C   0  0  0  0  0  0  0  0  0  0  0  0
    6.5746  -12.4612   18.2137 C   0  0  0  0  0  0  0  0  0  0  0  0
    6.6524  -12.3144   19.5777 C   0  0  0  0  0  0  0  0  0  0  0  0
    7.1547  -13.3585   20.3246 C   0  0  0  0  0  0  0  0  0  0  0  0
    9.8004  -15.8856   22.2565 C   0  0  0  0  0  0  0  0  0  0  0  0
   10.6372  -16.7831   22.5720 O   0  0  0  0  0  0  0  0  0  0  0  0
    9.0655  -15.3036   23.3173 N   0  0  0  0  0  0  0  0  0  0  0  0
    9.5392  -15.3190   24.6614 C   0  0  1  0  0  0  0  0  0  0  0  0
    8.8091  -14.3784   25.5796 C   0  0  0  0  0  0  0  0  0  0  0  0
    9.2801  -14.3812   26.9627 C   0  0  0  0  0  0  0  0  0  0  0  0
   10.2613  -13.5068   27.3907 C   0  0  0  0  0  0  0  0  0  0  0  0
   10.7164  -13.4994   28.6964 C   0  0  0  0  0  0  0  0  0  0  0  0
   10.2090  -14.3694   29.6368 C   0  0  0  0  0  0  0  0  0  0  0  0
    9.2298  -15.2474   29.2247 C   0  0  0  0  0  0  0  0  0  0  0  0
    8.7711  -15.2532   27.9042 C   0  0  0  0  0  0  0  0  0  0  0  0
    9.5611  -16.6947   25.2336 C   0  0  0  0  0  0  0  0  0  0  0  0
    8.4767  -17.3181   25.3575 O   0  0  0  0  0  0  0  0  0  0  0  0
   13.0572  -19.1219   25.3875 C   0  0  0  0  0  0  0  0  0  0  0  0
   11.6284  -19.6084   25.3700 C   0  0  2  0  0  0  0  0  0  0  0  0
   11.0848  -19.8143   23.9928 C   0  0  0  0  0  0  0  0  0  0  0  0
   10.7963  -18.6684   26.2125 C   0  0  2  0  0  0  0  0  0  0  0  0
   10.7491  -17.3355   25.6459 N   0  0  0  0  0  0  0  0  0  0  0  0
   11.3459  -18.6278   27.5908 C   0  0  0  0  0  0  0  0  0  0  0  0
   11.2315  -19.7550   28.3861 O   0  0  0  0  0  0  0  0  0  0  0  0
   11.9079  -17.6343   28.0794 O   0  0  0  0  0  0  0  0  0  0  0  0
  2  1  1  6
  3  4  1  0
  3  2  1  0
  4  9  2  0
  5  6  2  0
  5  4  1  0
  6  7  1  0
  7  8  2  0
  9  8  1  0
 10  2  1  0
 10 11  2  0
 12 10  1  0
 13 12  1  0
 13 21  1  0
 13 14  1  1
 15 14  1  0
 15 16  2  0
 17 16  1  0
 18 17  2  0
 19 20  2  0
 19 18  1  0
 20 15  1  0
 21 22  2  0
 21 27  1  0
 24 23  1  6
 24 25  1  0
 24 26  1  0
 26 28  1  0
 26 27  1  6
 28 30  2  0
 28 29  1  0
M  END
$$$$
