FFV.pdb
     RDKit          3D

 30 31  0  0  1  0  0  0  0  0999 V2000
   11.4474  -17.1133   20.4770 N   0  0  0  0  0  0  0  0  0  0  0  0
   10.5400  -15.9843   20.5573 C   0  0  1  0  0  0  0  0  0  0  0  0
    9.2674  -16.3619   19.7902 C   0  0  0  0  0  0  0  0  0  0  0  0
    8.3310  -15.2408   19.6950 C   0  0  0  0  0  0  0  0  0  0  0  0
    8.7091  -14.0781   19.0780 C   0  0  0  0  0  0  0  0  0  0  0  0
    7.8260  -13.0442   18.9980 C   0  0  0  0  0  0  0  0  0  0  0  0
    6.5610  -13.1288   19.5184 C   0  0  0  0  0  0  0  0  0  0  0  0
    6.1689  -14.2898   20.1402 C   0  0  0  0  0  0  0  0  0  0  0  0
    7.0684  -15.3315   20.2171 C   0  0  0  0  0  0  0  0  0  0  0  0
   10.1047  -15.8500   21.9920 C   0  0  0  0  0  0  0  0  0  0  0  0
   10.3526  -16.7578   22.8403 O   0  0  0  0  0  0  0  0  0  0  0  0
    9.4029  -14.7153   22.4652 N   0  0  0  0  0  0  0  0  0  0  0  0
    9.0977  -14.5381   23.8460 C   0  0  1  0  0  0  0  0  0  0  0  0
    7.9412  -13.6126   24.1046 C   0  0  0  0  0  0  0  0  0  0  0  0
    7.6864  -13.3271   25.5147 C   0  0  0  0  0  0  0  0  0  0  0  0
    6.6932  -12.4477   25.9029 C   0  0  0  0  0  0  0  0  0  0  0  0
    6.4421  -12.1682   27.2336 C   0  0  0  0  0  0  0  0  0  0  0  0
    7.1755  -12.7577   28.2402 C   0  0  0  0  0  0  0  0  0  0  0  0
    8.1696  -13.6370   27.8683 C   0  0  0  0  0  0  0  0  0  0  0  0
    8.4218  -13.9181   26.5225 C   0  0  0  0  0  0  0  0  0  0  0  0
    8.8935  -15.8369   24.5474 C   0  0  0  0  0  0  0  0  0  0  0  0
    7.8246  -16.4695   24.3547 O   0  0  0  0  0  0  0  0  0  0  0  0
   12.0953  -18.1397   25.7956 C   0  0  0  0  0  0  0  0  0  0  0  0
   10.7106  -18.6874   25.5484 C   0  0  2  0  0  0  0  0  0  0  0  0
   10.4734  -19.0920   24.1291 C   0  0  0  0  0  0  0  0  0  0  0  0
    9.7041  -17.6852   26.0661 C   0  0  2  0  0  0  0  0  0  0  0  0
    9.8493  -16.3944   25.4235 N   0  0  0  0  0  0  0  0  0  0  0  0
    9.8548  -17.5532   27.5369 C   0  0  0  0  0  0  0  0  0  0  0  0
    9.6019  -18.6567   28.3333 O   0  0  0  0  0  0  0  0  0  0  0  0
   10.1975  -16.5024   28.1028 O   0  0  0  0  0  0  0  0  0  0  0  0
  2  1  1  1
  3  4  1  0
  3  2  1  0
  4  9  2  0
  5  6  2  0
  5  4  1  0
  6  7  1  0
  7  8  2  0
  9  8  1  0
 10  2  1  0
 10 11  2  0
 12 10  1  0
 13 12  1  0
 13 21  1  0
 13 14  1  6
 15 14  1  0
 15 16  2  0
 17 16  1  0
 18 17  2  0
 19 20  2  0
 19 18  1  0
 20 15  1  0
 21 22  2  0
 21 27  1  0
 24 23  1  6
 24 25  1  0
 24 26  1  0
 26 28  1  0
 26 27  1  6
 28 30  2  0
 28 29  1  0
M  END
$$$$
