FFV.pdb
     RDKit          3D

 30 31  0  0  1  0  0  0  0  0999 V2000
   10.3428  -16.7066   19.7933 N   0  0  0  0  0  0  0  0  0  0  0  0
    9.4466  -17.2545   20.7939 C   0  0  1  0  0  0  0  0  0  0  0  0
   10.0519  -18.5773   21.2781 C   0  0  0  0  0  0  0  0  0  0  0  0
    9.2390  -19.2030   22.3223 C   0  0  0  0  0  0  0  0  0  0  0  0
    8.0133  -19.7322   22.0166 C   0  0  0  0  0  0  0  0  0  0  0  0
    7.2692  -20.3108   22.9999 C   0  0  0  0  0  0  0  0  0  0  0  0
    7.7093  -20.3819   24.2958 C   0  0  0  0  0  0  0  0  0  0  0  0
    8.9372  -19.8549   24.6161 C   0  0  0  0  0  0  0  0  0  0  0  0
    9.6843  -19.2710   23.6154 C   0  0  0  0  0  0  0  0  0  0  0  0
    9.4898  -16.3446   21.9922 C   0  0  0  0  0  0  0  0  0  0  0  0
   10.5801  -15.8381   22.3921 O   0  0  0  0  0  0  0  0  0  0  0  0
    8.3280  -16.0096   22.7284 N   0  0  0  0  0  0  0  0  0  0  0  0
    8.3636  -15.0933   23.8194 C   0  0  1  0  0  0  0  0  0  0  0  0
    7.1489  -14.2130   23.9207 C   0  0  0  0  0  0  0  0  0  0  0  0
    7.1362  -13.3140   25.0725 C   0  0  0  0  0  0  0  0  0  0  0  0
    7.8986  -12.1612   25.0941 C   0  0  0  0  0  0  0  0  0  0  0  0
    7.8962  -11.3023   26.1778 C   0  0  0  0  0  0  0  0  0  0  0  0
    7.1285  -11.5582   27.2931 C   0  0  0  0  0  0  0  0  0  0  0  0
    6.3628  -12.7043   27.2859 C   0  0  0  0  0  0  0  0  0  0  0  0
    6.3667  -13.5712   26.1894 C   0  0  0  0  0  0  0  0  0  0  0  0
    8.6229  -15.7762   25.1183 C   0  0  0  0  0  0  0  0  0  0  0  0
    7.7246  -16.5039   25.6116 O   0  0  0  0  0  0  0  0  0  0  0  0
   12.5859  -16.0737   26.7369 C   0  0  0  0  0  0  0  0  0  0  0  0
   11.5041  -17.1199   26.8541 C   0  0  2  0  0  0  0  0  0  0  0  0
   11.5232  -18.1247   25.7475 C   0  0  0  0  0  0  0  0  0  0  0  0
   10.1756  -16.4145   27.0054 C   0  0  2  0  0  0  0  0  0  0  0  0
    9.8370  -15.6440   25.8257 N   0  0  0  0  0  0  0  0  0  0  0  0
   10.2184  -15.5388   28.2032 C   0  0  0  0  0  0  0  0  0  0  0  0
   10.3192  -16.1254   29.4530 O   0  0  0  0  0  0  0  0  0  0  0  0
   10.1689  -14.2992   28.1525 O   0  0  0  0  0  0  0  0  0  0  0  0
  2  1  1  6
  3  4  1  0
  3  2  1  0
  4  9  2  0
  5  6  2  0
  5  4  1  0
  6  7  1  0
  7  8  2  0
  9  8  1  0
 10  2  1  0
 10 11  2  0
 12 10  1  0
 13 12  1  0
 13 21  1  0
 13 14  1  1
 15 14  1  0
 15 16  2  0
 17 16  1  0
 18 17  2  0
 19 20  2  0
 19 18  1  0
 20 15  1  0
 21 22  2  0
 21 27  1  0
 24 23  1  6
 24 25  1  0
 24 26  1  0
 26 28  1  0
 26 27  1  6
 28 30  2  0
 28 29  1  0
M  END
$$$$
