FFV.pdb
     RDKit          3D

 30 31  0  0  1  0  0  0  0  0999 V2000
    8.2796  -17.3562   20.9680 N   0  0  0  0  0  0  0  0  0  0  0  0
    9.6324  -16.8815   20.7466 C   0  0  1  0  0  0  0  0  0  0  0  0
    9.5602  -15.7541   19.7101 C   0  0  0  0  0  0  0  0  0  0  0  0
    8.5329  -14.7664   20.0444 C   0  0  0  0  0  0  0  0  0  0  0  0
    8.8859  -13.4732   20.3245 C   0  0  0  0  0  0  0  0  0  0  0  0
    7.9177  -12.5664   20.6338 C   0  0  0  0  0  0  0  0  0  0  0  0
    6.5910  -12.9073   20.6746 C   0  0  0  0  0  0  0  0  0  0  0  0
    6.2231  -14.2016   20.3956 C   0  0  0  0  0  0  0  0  0  0  0  0
    7.2088  -15.1133   20.0834 C   0  0  0  0  0  0  0  0  0  0  0  0
   10.0955  -16.2157   22.0148 C   0  0  0  0  0  0  0  0  0  0  0  0
   10.8757  -15.2180   21.9845 O   0  0  0  0  0  0  0  0  0  0  0  0
    9.6888  -16.6633   23.2947 N   0  0  0  0  0  0  0  0  0  0  0  0
    9.3261  -15.7557   24.3319 C   0  0  1  0  0  0  0  0  0  0  0  0
    8.2592  -14.7713   23.9400 C   0  0  0  0  0  0  0  0  0  0  0  0
    7.8614  -13.8436   24.9964 C   0  0  0  0  0  0  0  0  0  0  0  0
    6.6380  -13.9558   25.6297 C   0  0  0  0  0  0  0  0  0  0  0  0
    6.2491  -13.0843   26.6304 C   0  0  0  0  0  0  0  0  0  0  0  0
    7.0691  -12.0573   27.0446 C   0  0  0  0  0  0  0  0  0  0  0  0
    8.2924  -11.9329   26.4221 C   0  0  0  0  0  0  0  0  0  0  0  0
    8.6837  -12.8150   25.4107 C   0  0  0  0  0  0  0  0  0  0  0  0
    8.9488  -16.4610   25.5892 C   0  0  0  0  0  0  0  0  0  0  0  0
    7.7332  -16.6830   25.8195 O   0  0  0  0  0  0  0  0  0  0  0  0
   11.2297  -20.3761   26.2704 C   0  0  0  0  0  0  0  0  0  0  0  0
   11.2889  -18.8737   26.1371 C   0  0  2  0  0  0  0  0  0  0  0  0
   12.6071  -18.2908   26.5335 C   0  0  0  0  0  0  0  0  0  0  0  0
   10.1179  -18.2837   26.8895 C   0  0  2  0  0  0  0  0  0  0  0  0
    9.8974  -16.8947   26.5400 N   0  0  0  0  0  0  0  0  0  0  0  0
   10.3525  -18.4213   28.3487 C   0  0  0  0  0  0  0  0  0  0  0  0
   10.3969  -17.2769   29.1263 O   0  0  0  0  0  0  0  0  0  0  0  0
   10.5130  -19.5115   28.9209 O   0  0  0  0  0  0  0  0  0  0  0  0
  2  1  1  1
  3  4  1  0
  3  2  1  0
  4  9  2  0
  5  6  2  0
  5  4  1  0
  6  7  1  0
  7  8  2  0
  9  8  1  0
 10  2  1  0
 10 11  2  0
 12 10  1  0
 13 12  1  0
 13 21  1  0
 13 14  1  6
 15 14  1  0
 15 16  2  0
 17 16  1  0
 18 17  2  0
 19 20  2  0
 19 18  1  0
 20 15  1  0
 21 22  2  0
 21 27  1  0
 24 23  1  1
 24 25  1  0
 24 26  1  0
 26 28  1  0
 26 27  1  1
 28 30  2  0
 28 29  1  0
M  END
$$$$
