QHV.pdb
     RDKit          3D

 27 27  0  0  1  0  0  0  0  0999 V2000
   26.7053  -20.7955  -10.9193 N   0  0  0  0  0  0  0  0  0  0  0  0
   25.3286  -21.0256  -11.0885 C   0  0  0  0  0  0  0  0  0  0  0  0
   24.5018  -20.2986  -10.5121 O   0  0  0  0  0  0  0  0  0  0  0  0
   24.8647  -22.1259  -11.9470 C   0  0  0  0  0  0  0  0  0  0  0  0
   24.8686  -21.7651  -13.4117 C   0  0  0  0  0  0  0  0  0  0  0  0
   23.4877  -21.1679  -13.7129 C   0  0  2  0  0  0  0  0  0  0  0  0
   22.4961  -22.1885  -13.8672 N   0  0  0  0  0  0  0  0  0  0  0  0
   23.5324  -20.3485  -14.9491 C   0  0  0  0  0  0  0  0  0  0  0  0
   23.7088  -20.9879  -16.0299 O   0  0  0  0  0  0  0  0  0  0  0  0
   23.3816  -18.9430  -14.8688 N   0  0  0  0  0  0  0  0  0  0  0  0
   23.3877  -18.1579  -16.0731 C   0  0  1  0  0  0  0  0  0  0  0  0
   22.2015  -17.2606  -16.1378 C   0  0  0  0  0  0  0  0  0  0  0  0
   20.9267  -18.0052  -16.2863 C   0  0  0  0  0  0  0  0  0  0  0  0
   20.4845  -18.7698  -17.3449 C   0  0  0  0  0  0  0  0  0  0  0  0
   19.2497  -19.2556  -17.0207 N   0  0  0  0  0  0  0  0  0  0  0  0
   18.9304  -18.8103  -15.8013 C   0  0  0  0  0  0  0  0  0  0  0  0
   19.9438  -18.0618  -15.3716 N   0  0  0  0  0  0  0  0  0  0  0  0
   24.6807  -17.3982  -16.1309 C   0  0  0  0  0  0  0  0  0  0  0  0
   24.8919  -16.5636  -15.2423 O   0  0  0  0  0  0  0  0  0  0  0  0
   28.2110  -19.0245  -18.0329 C   0  0  0  0  0  0  0  0  0  0  0  0
   28.0730  -17.9258  -17.0075 C   0  0  2  0  0  0  0  0  0  0  0  0
   27.9651  -18.5618  -15.6394 C   0  0  0  0  0  0  0  0  0  0  0  0
   26.9064  -17.0473  -17.3315 C   0  0  2  0  0  0  0  0  0  0  0  0
   25.6228  -17.6171  -17.1493 N   0  0  0  0  0  0  0  0  0  0  0  0
   27.0434  -16.2144  -18.5179 C   0  0  0  0  0  0  0  0  0  0  0  0
   26.2354  -16.2853  -19.4624 O   0  0  0  0  0  0  0  0  0  0  0  0
   28.0941  -15.3146  -18.6143 O   0  0  0  0  0  0  0  0  0  0  0  0
  2  1  1  0
  3  2  2  0
  4  2  1  0
  5  4  1  0
  6  5  1  0
  6  8  1  0
  6  7  1  6
  8  9  2  0
 10  8  1  0
 10 11  1  0
 11 12  1  1
 12 13  1  0
 13 17  1  0
 14 13  2  0
 14 15  1  0
 15 16  1  0
 17 16  2  0
 18 19  2  0
 18 11  1  0
 21 20  1  6
 21 23  1  0
 22 21  1  0
 23 24  1  6
 24 18  1  0
 25 23  1  0
 25 27  1  0
 26 25  2  0
M  END
$$$$
