QHV.pdb
     RDKit          3D

 27 27  0  0  1  0  0  0  0  0999 V2000
   27.0455  -20.2318  -19.4758 N   0  0  0  0  0  0  0  0  0  0  0  0
   28.2497  -20.9476  -19.5957 C   0  0  0  0  0  0  0  0  0  0  0  0
   29.0992  -20.5985  -20.4328 O   0  0  0  0  0  0  0  0  0  0  0  0
   28.5061  -22.1099  -18.7317 C   0  0  0  0  0  0  0  0  0  0  0  0
   27.3880  -22.3673  -17.7525 C   0  0  0  0  0  0  0  0  0  0  0  0
   27.4899  -21.2718  -16.6831 C   0  0  2  0  0  0  0  0  0  0  0  0
   28.7307  -21.3441  -15.9733 N   0  0  0  0  0  0  0  0  0  0  0  0
   26.3726  -21.3843  -15.7132 C   0  0  0  0  0  0  0  0  0  0  0  0
   25.3244  -21.9553  -16.1414 O   0  0  0  0  0  0  0  0  0  0  0  0
   26.5220  -20.8685  -14.4031 N   0  0  0  0  0  0  0  0  0  0  0  0
   25.4574  -21.0296  -13.4506 C   0  0  1  0  0  0  0  0  0  0  0  0
   25.9272  -20.7534  -12.0651 C   0  0  0  0  0  0  0  0  0  0  0  0
   24.8577  -20.9275  -11.0515 C   0  0  0  0  0  0  0  0  0  0  0  0
   23.5453  -21.3109  -11.2293 C   0  0  0  0  0  0  0  0  0  0  0  0
   22.9468  -21.3293  -10.0016 N   0  0  0  0  0  0  0  0  0  0  0  0
   23.8535  -20.9700   -9.0873 C   0  0  0  0  0  0  0  0  0  0  0  0
   24.9950  -20.7317   -9.7291 N   0  0  0  0  0  0  0  0  0  0  0  0
   24.3247  -20.1332  -13.8575 C   0  0  0  0  0  0  0  0  0  0  0  0
   24.5632  -18.9234  -13.9597 O   0  0  0  0  0  0  0  0  0  0  0  0
   20.9341  -21.5154  -16.1773 C   0  0  0  0  0  0  0  0  0  0  0  0
   21.4416  -20.1157  -15.9310 C   0  0  2  0  0  0  0  0  0  0  0  0
   22.5627  -19.8367  -16.9074 C   0  0  0  0  0  0  0  0  0  0  0  0
   21.8617  -19.9518  -14.5047 C   0  0  2  0  0  0  0  0  0  0  0  0
   23.0388  -20.6359  -14.1152 N   0  0  0  0  0  0  0  0  0  0  0  0
   20.7913  -19.9647  -13.5176 C   0  0  0  0  0  0  0  0  0  0  0  0
   19.9546  -19.0454  -13.4496 O   0  0  0  0  0  0  0  0  0  0  0  0
   20.6870  -21.0196  -12.6236 O   0  0  0  0  0  0  0  0  0  0  0  0
  2  1  1  0
  3  2  2  0
  4  2  1  0
  5  4  1  0
  6  5  1  0
  6  8  1  0
  6  7  1  1
  8  9  2  0
 10  8  1  0
 10 11  1  0
 11 12  1  1
 12 13  1  0
 13 17  1  0
 14 13  2  0
 14 15  1  0
 15 16  1  0
 17 16  2  0
 18 19  2  0
 18 11  1  0
 21 20  1  1
 21 23  1  0
 22 21  1  0
 23 24  1  1
 24 18  1  0
 25 23  1  0
 25 27  1  0
 26 25  2  0
M  END
$$$$
