QHV.pdb
     RDKit          3D

 27 27  0  0  1  0  0  0  0  0999 V2000
   25.9988  -21.7519  -11.0277 N   0  0  0  0  0  0  0  0  0  0  0  0
   24.8876  -21.2571  -10.3225 C   0  0  0  0  0  0  0  0  0  0  0  0
   24.7094  -21.5824   -9.1365 O   0  0  0  0  0  0  0  0  0  0  0  0
   23.9347  -20.3546  -10.9863 C   0  0  0  0  0  0  0  0  0  0  0  0
   24.3283  -20.0323  -12.4064 C   0  0  0  0  0  0  0  0  0  0  0  0
   23.1383  -20.4366  -13.2865 C   0  0  2  0  0  0  0  0  0  0  0  0
   22.8629  -21.8376  -13.1867 N   0  0  0  0  0  0  0  0  0  0  0  0
   23.4011  -20.0971  -14.7068 C   0  0  0  0  0  0  0  0  0  0  0  0
   24.1363  -20.9114  -15.3429 O   0  0  0  0  0  0  0  0  0  0  0  0
   22.8403  -18.9236  -15.2663 N   0  0  0  0  0  0  0  0  0  0  0  0
   23.0095  -18.6541  -16.6683 C   0  0  1  0  0  0  0  0  0  0  0  0
   21.6964  -18.4553  -17.3414 C   0  0  0  0  0  0  0  0  0  0  0  0
   20.9023  -19.7055  -17.4298 C   0  0  0  0  0  0  0  0  0  0  0  0
   19.8004  -20.0894  -16.6956 C   0  0  0  0  0  0  0  0  0  0  0  0
   19.4153  -21.3235  -17.1367 N   0  0  0  0  0  0  0  0  0  0  0  0
   20.2476  -21.6987  -18.1132 C   0  0  0  0  0  0  0  0  0  0  0  0
   21.1347  -20.7203  -18.2797 N   0  0  0  0  0  0  0  0  0  0  0  0
   23.9093  -17.4615  -16.8111 C   0  0  0  0  0  0  0  0  0  0  0  0
   23.6808  -16.4847  -16.0870 O   0  0  0  0  0  0  0  0  0  0  0  0
   27.6684  -17.4325  -16.5814 C   0  0  0  0  0  0  0  0  0  0  0  0
   27.3574  -16.8126  -17.9217 C   0  0  2  0  0  0  0  0  0  0  0  0
   28.2937  -15.6439  -18.1348 C   0  0  0  0  0  0  0  0  0  0  0  0
   25.9157  -16.4211  -17.9985 C   0  0  2  0  0  0  0  0  0  0  0  0
   24.9733  -17.4428  -17.7277 N   0  0  0  0  0  0  0  0  0  0  0  0
   25.5532  -15.5277  -19.0897 C   0  0  0  0  0  0  0  0  0  0  0  0
   25.3074  -15.9582  -20.2317 O   0  0  0  0  0  0  0  0  0  0  0  0
   25.4753  -14.1610  -18.8685 O   0  0  0  0  0  0  0  0  0  0  0  0
  2  1  1  0
  3  2  2  0
  4  2  1  0
  5  4  1  0
  6  5  1  0
  6  8  1  0
  6  7  1  6
  8  9  2  0
 10  8  1  0
 10 11  1  0
 11 12  1  1
 12 13  1  0
 13 17  1  0
 14 13  2  0
 14 15  1  0
 15 16  1  0
 17 16  2  0
 18 19  2  0
 18 11  1  0
 21 20  1  1
 21 23  1  0
 22 21  1  0
 23 24  1  6
 24 18  1  0
 25 23  1  0
 25 27  1  0
 26 25  2  0
M  END
$$$$
