QHV.pdb
     RDKit          3D

 27 27  0  0  1  0  0  0  0  0999 V2000
   20.1187  -15.6454  -19.3445 N   0  0  0  0  0  0  0  0  0  0  0  0
   19.2517  -15.2060  -18.3286 C   0  0  0  0  0  0  0  0  0  0  0  0
   18.3184  -15.9342  -17.9503 O   0  0  0  0  0  0  0  0  0  0  0  0
   19.4471  -13.8851  -17.7122 C   0  0  0  0  0  0  0  0  0  0  0  0
   20.3527  -12.9911  -18.5222 C   0  0  0  0  0  0  0  0  0  0  0  0
   21.7871  -13.3284  -18.0946 C   0  0  2  0  0  0  0  0  0  0  0  0
   21.8839  -14.6627  -17.5859 N   0  0  0  0  0  0  0  0  0  0  0  0
   22.2576  -12.3807  -17.0543 C   0  0  0  0  0  0  0  0  0  0  0  0
   21.5996  -12.3785  -15.9703 O   0  0  0  0  0  0  0  0  0  0  0  0
   23.3777  -11.5532  -17.3097 N   0  0  0  0  0  0  0  0  0  0  0  0
   23.7266  -10.5207  -16.3721 C   0  0  1  0  0  0  0  0  0  0  0  0
   25.1776  -10.1950  -16.4439 C   0  0  0  0  0  0  0  0  0  0  0  0
   26.0417  -11.3403  -16.0655 C   0  0  0  0  0  0  0  0  0  0  0  0
   25.6817  -12.5718  -15.5610 C   0  0  0  0  0  0  0  0  0  0  0  0
   26.8253  -13.2933  -15.3679 N   0  0  0  0  0  0  0  0  0  0  0  0
   27.8650  -12.5393  -15.7389 C   0  0  0  0  0  0  0  0  0  0  0  0
   27.3823  -11.3707  -16.1552 N   0  0  0  0  0  0  0  0  0  0  0  0
   22.8603   -9.3263  -16.6462 C   0  0  0  0  0  0  0  0  0  0  0  0
   22.5405   -9.1115  -17.8220 O   0  0  0  0  0  0  0  0  0  0  0  0
   19.2354   -8.5213  -15.6233 C   0  0  0  0  0  0  0  0  0  0  0  0
   20.2175   -7.7153  -16.4378 C   0  0  2  0  0  0  0  0  0  0  0  0
   20.4959   -8.4617  -17.7236 C   0  0  0  0  0  0  0  0  0  0  0  0
   21.4574   -7.4417  -15.6469 C   0  0  2  0  0  0  0  0  0  0  0  0
   22.4228   -8.4774  -15.6164 N   0  0  0  0  0  0  0  0  0  0  0  0
   21.2685   -6.7438  -14.3830 C   0  0  0  0  0  0  0  0  0  0  0  0
   20.7227   -5.6262  -14.3295 O   0  0  0  0  0  0  0  0  0  0  0  0
   21.7014   -7.3242  -13.2004 O   0  0  0  0  0  0  0  0  0  0  0  0
  2  1  1  0
  3  2  2  0
  4  2  1  0
  5  4  1  0
  6  5  1  0
  6  8  1  0
  6  7  1  1
  8  9  2  0
 10  8  1  0
 10 11  1  0
 11 12  1  6
 12 13  1  0
 13 17  1  0
 14 13  2  0
 14 15  1  0
 15 16  1  0
 17 16  2  0
 18 19  2  0
 18 11  1  0
 21 20  1  1
 21 23  1  0
 22 21  1  0
 23 24  1  1
 24 18  1  0
 25 23  1  0
 25 27  1  0
 26 25  2  0
M  END
$$$$
