QHV.pdb
     RDKit          3D

 27 27  0  0  1  0  0  0  0  0999 V2000
   27.0188  -23.2680  -15.2944 N   0  0  0  0  0  0  0  0  0  0  0  0
   27.9166  -23.6169  -16.3188 C   0  0  0  0  0  0  0  0  0  0  0  0
   28.0090  -24.8000  -16.6875 O   0  0  0  0  0  0  0  0  0  0  0  0
   28.7472  -22.5835  -16.9553 C   0  0  0  0  0  0  0  0  0  0  0  0
   28.5674  -21.2228  -16.3297 C   0  0  0  0  0  0  0  0  0  0  0  0
   27.5239  -20.4898  -17.1829 C   0  0  2  0  0  0  0  0  0  0  0  0
   28.1265  -19.4765  -17.9946 N   0  0  0  0  0  0  0  0  0  0  0  0
   26.4908  -19.8651  -16.3203 C   0  0  0  0  0  0  0  0  0  0  0  0
   26.8691  -18.8623  -15.6426 O   0  0  0  0  0  0  0  0  0  0  0  0
   25.1789  -20.3970  -16.2941 N   0  0  0  0  0  0  0  0  0  0  0  0
   24.1926  -19.8127  -15.4265 C   0  0  1  0  0  0  0  0  0  0  0  0
   22.9354  -19.5117  -16.1651 C   0  0  0  0  0  0  0  0  0  0  0  0
   22.9790  -18.2022  -16.8615 C   0  0  0  0  0  0  0  0  0  0  0  0
   23.9595  -17.2334  -16.8312 C   0  0  0  0  0  0  0  0  0  0  0  0
   23.5531  -16.2042  -17.6319 N   0  0  0  0  0  0  0  0  0  0  0  0
   22.3595  -16.5182  -18.1455 C   0  0  0  0  0  0  0  0  0  0  0  0
   22.0261  -17.7184  -17.6762 N   0  0  0  0  0  0  0  0  0  0  0  0
   23.9671  -20.7491  -14.2756 C   0  0  0  0  0  0  0  0  0  0  0  0
   23.7825  -21.9436  -14.5399 O   0  0  0  0  0  0  0  0  0  0  0  0
   24.8924  -19.6783  -10.0355 C   0  0  0  0  0  0  0  0  0  0  0  0
   24.8198  -21.0126  -10.7370 C   0  0  2  0  0  0  0  0  0  0  0  0
   26.1737  -21.3057  -11.3447 C   0  0  0  0  0  0  0  0  0  0  0  0
   23.7180  -21.0158  -11.7488 C   0  0  2  0  0  0  0  0  0  0  0  0
   23.9633  -20.2990  -12.9452 N   0  0  0  0  0  0  0  0  0  0  0  0
   22.3667  -20.8841  -11.2226 C   0  0  0  0  0  0  0  0  0  0  0  0
   21.6456  -19.9110  -11.5109 O   0  0  0  0  0  0  0  0  0  0  0  0
   21.8547  -21.8576  -10.3783 O   0  0  0  0  0  0  0  0  0  0  0  0
  2  1  1  0
  3  2  2  0
  4  2  1  0
  5  4  1  0
  6  5  1  0
  6  8  1  0
  6  7  1  1
  8  9  2  0
 10  8  1  0
 10 11  1  0
 11 12  1  6
 12 13  1  0
 13 17  1  0
 14 13  2  0
 14 15  1  0
 15 16  1  0
 17 16  2  0
 18 19  2  0
 18 11  1  0
 21 20  1  6
 21 23  1  0
 22 21  1  0
 23 24  1  6
 24 18  1  0
 25 23  1  0
 25 27  1  0
 26 25  2  0
M  END
$$$$
