QHV.pdb
     RDKit          3D

 27 27  0  0  1  0  0  0  0  0999 V2000
   26.9840  -21.7446  -18.5876 N   0  0  0  0  0  0  0  0  0  0  0  0
   27.9214  -20.8398  -18.0590 C   0  0  0  0  0  0  0  0  0  0  0  0
   28.9799  -20.6143  -18.6697 O   0  0  0  0  0  0  0  0  0  0  0  0
   27.6514  -20.1588  -16.7836 C   0  0  0  0  0  0  0  0  0  0  0  0
   26.2966  -20.5004  -16.2149 C   0  0  0  0  0  0  0  0  0  0  0  0
   26.5534  -21.1535  -14.8505 C   0  0  2  0  0  0  0  0  0  0  0  0
   27.2051  -22.4204  -14.9886 N   0  0  0  0  0  0  0  0  0  0  0  0
   25.2785  -21.3449  -14.1159 C   0  0  0  0  0  0  0  0  0  0  0  0
   24.4563  -22.1569  -14.6379 O   0  0  0  0  0  0  0  0  0  0  0  0
   25.0468  -20.6387  -12.9108 N   0  0  0  0  0  0  0  0  0  0  0  0
   23.8519  -20.8974  -12.1543 C   0  0  1  0  0  0  0  0  0  0  0  0
   23.9783  -20.3957  -10.7583 C   0  0  0  0  0  0  0  0  0  0  0  0
   22.7515  -20.6208   -9.9548 C   0  0  0  0  0  0  0  0  0  0  0  0
   21.6229  -19.8356   -9.8523 C   0  0  0  0  0  0  0  0  0  0  0  0
   20.7613  -20.4547   -8.9921 N   0  0  0  0  0  0  0  0  0  0  0  0
   21.3312  -21.5882   -8.5708 C   0  0  0  0  0  0  0  0  0  0  0  0
   22.5240  -21.6765   -9.1550 N   0  0  0  0  0  0  0  0  0  0  0  0
   22.6941  -20.2769  -12.8801 C   0  0  0  0  0  0  0  0  0  0  0  0
   22.8627  -19.1518  -13.3664 O   0  0  0  0  0  0  0  0  0  0  0  0
   19.6089  -22.4335  -14.9983 C   0  0  0  0  0  0  0  0  0  0  0  0
   19.9967  -20.9750  -15.0021 C   0  0  2  0  0  0  0  0  0  0  0  0
   21.1913  -20.8020  -15.9137 C   0  0  0  0  0  0  0  0  0  0  0  0
   20.2571  -20.4962  -13.6091 C   0  0  2  0  0  0  0  0  0  0  0  0
   21.4615  -20.9378  -13.0092 N   0  0  0  0  0  0  0  0  0  0  0  0
   19.1057  -20.4643  -12.7184 C   0  0  0  0  0  0  0  0  0  0  0  0
   19.0346  -21.1999  -11.7165 O   0  0  0  0  0  0  0  0  0  0  0  0
   18.0537  -19.5990  -12.9779 O   0  0  0  0  0  0  0  0  0  0  0  0
  2  1  1  0
  3  2  2  0
  4  2  1  0
  5  4  1  0
  6  5  1  0
  6  8  1  0
  6  7  1  6
  8  9  2  0
 10  8  1  0
 10 11  1  0
 11 12  1  1
 12 13  1  0
 13 17  1  0
 14 13  2  0
 14 15  1  0
 15 16  1  0
 17 16  2  0
 18 19  2  0
 18 11  1  0
 21 20  1  1
 21 23  1  0
 22 21  1  0
 23 24  1  1
 24 18  1  0
 25 23  1  0
 25 27  1  0
 26 25  2  0
M  END
$$$$
