QHV.pdb
     RDKit          3D

 27 27  0  0  1  0  0  0  0  0999 V2000
   16.3810  -12.4090  -17.6878 N   0  0  0  0  0  0  0  0  0  0  0  0
   16.5942  -13.3062  -16.6264 C   0  0  0  0  0  0  0  0  0  0  0  0
   16.5934  -14.5307  -16.8384 O   0  0  0  0  0  0  0  0  0  0  0  0
   16.8185  -12.7979  -15.2646 C   0  0  0  0  0  0  0  0  0  0  0  0
   16.6933  -11.2974  -15.1735 C   0  0  0  0  0  0  0  0  0  0  0  0
   16.2169  -10.9898  -13.7479 C   0  0  2  0  0  0  0  0  0  0  0  0
   14.8699  -11.4262  -13.5382 N   0  0  0  0  0  0  0  0  0  0  0  0
   16.3001   -9.5340  -13.4731 C   0  0  0  0  0  0  0  0  0  0  0  0
   15.2206   -8.8829  -13.6106 O   0  0  0  0  0  0  0  0  0  0  0  0
   17.5345   -8.9597  -13.0845 N   0  0  0  0  0  0  0  0  0  0  0  0
   17.6002   -7.5563  -12.7793 C   0  0  1  0  0  0  0  0  0  0  0  0
   16.6373   -7.1929  -11.7035 C   0  0  0  0  0  0  0  0  0  0  0  0
   16.7939   -5.7910  -11.2434 C   0  0  0  0  0  0  0  0  0  0  0  0
   17.7294   -4.8512  -11.6209 C   0  0  0  0  0  0  0  0  0  0  0  0
   17.4715   -3.7041  -10.9257 N   0  0  0  0  0  0  0  0  0  0  0  0
   16.4112   -3.9187  -10.1403 C   0  0  0  0  0  0  0  0  0  0  0  0
   16.0140   -5.1734  -10.3399 N   0  0  0  0  0  0  0  0  0  0  0  0
   19.0167   -7.2221  -12.4129 C   0  0  0  0  0  0  0  0  0  0  0  0
   19.4367   -7.6342  -11.3245 O   0  0  0  0  0  0  0  0  0  0  0  0
   21.9529   -6.5419  -15.5022 C   0  0  0  0  0  0  0  0  0  0  0  0
   22.1273   -6.9793  -14.0684 C   0  0  2  0  0  0  0  0  0  0  0  0
   21.8779   -8.4693  -13.9911 C   0  0  0  0  0  0  0  0  0  0  0  0
   21.2291   -6.1943  -13.1658 C   0  0  2  0  0  0  0  0  0  0  0  0
   19.8439   -6.4714  -13.2643 N   0  0  0  0  0  0  0  0  0  0  0  0
   21.5613   -4.7863  -13.0005 C   0  0  0  0  0  0  0  0  0  0  0  0
   20.8033   -3.8848  -13.4040 O   0  0  0  0  0  0  0  0  0  0  0  0
   22.7473   -4.4231  -12.3806 O   0  0  0  0  0  0  0  0  0  0  0  0
  2  1  1  0
  3  2  2  0
  4  2  1  0
  5  4  1  0
  6  5  1  0
  6  8  1  0
  6  7  1  6
  8  9  2  0
 10  8  1  0
 10 11  1  0
 11 12  1  1
 12 13  1  0
 13 17  1  0
 14 13  2  0
 14 15  1  0
 15 16  1  0
 17 16  2  0
 18 19  2  0
 18 11  1  0
 21 20  1  6
 21 23  1  0
 22 21  1  0
 23 24  1  6
 24 18  1  0
 25 23  1  0
 25 27  1  0
 26 25  2  0
M  END
$$$$
