QHV.pdb
     RDKit          3D

 27 27  0  0  1  0  0  0  0  0999 V2000
   21.4214  -10.9507  -21.2375 N   0  0  0  0  0  0  0  0  0  0  0  0
   20.9736  -12.2830  -21.2763 C   0  0  0  0  0  0  0  0  0  0  0  0
   20.8295  -12.8584  -22.3684 O   0  0  0  0  0  0  0  0  0  0  0  0
   20.6752  -12.9977  -20.0260 C   0  0  0  0  0  0  0  0  0  0  0  0
   20.7426  -12.1042  -18.8125 C   0  0  0  0  0  0  0  0  0  0  0  0
   22.2249  -12.0092  -18.4281 C   0  0  2  0  0  0  0  0  0  0  0  0
   22.7205  -13.2573  -17.9327 N   0  0  0  0  0  0  0  0  0  0  0  0
   22.4296  -10.9649  -17.3942 C   0  0  0  0  0  0  0  0  0  0  0  0
   22.0154  -11.2508  -16.2302 O   0  0  0  0  0  0  0  0  0  0  0  0
   23.0545   -9.7427  -17.7411 N   0  0  0  0  0  0  0  0  0  0  0  0
   23.1812   -8.7046  -16.7546 C   0  0  1  0  0  0  0  0  0  0  0  0
   24.6049   -8.3137  -16.5630 C   0  0  0  0  0  0  0  0  0  0  0  0
   25.4499   -9.4385  -16.0914 C   0  0  0  0  0  0  0  0  0  0  0  0
   25.0825  -10.7296  -15.7768 C   0  0  0  0  0  0  0  0  0  0  0  0
   26.2078  -11.4004  -15.3901 N   0  0  0  0  0  0  0  0  0  0  0  0
   27.2435  -10.5580  -15.4603 C   0  0  0  0  0  0  0  0  0  0  0  0
   26.7762   -9.3850  -15.8819 N   0  0  0  0  0  0  0  0  0  0  0  0
   22.3248   -7.5475  -17.1790 C   0  0  0  0  0  0  0  0  0  0  0  0
   22.2268   -7.3254  -18.3923 O   0  0  0  0  0  0  0  0  0  0  0  0
   18.7180   -5.0388  -17.8380 C   0  0  0  0  0  0  0  0  0  0  0  0
   19.5171   -6.2348  -17.3813 C   0  0  2  0  0  0  0  0  0  0  0  0
   18.5654   -7.2378  -16.7680 C   0  0  0  0  0  0  0  0  0  0  0  0
   20.6014   -5.8148  -16.4402 C   0  0  2  0  0  0  0  0  0  0  0  0
   21.6552   -6.7404  -16.2448 N   0  0  0  0  0  0  0  0  0  0  0  0
   20.1692   -5.1168  -15.2377 C   0  0  0  0  0  0  0  0  0  0  0  0
   20.3492   -5.5973  -14.1034 O   0  0  0  0  0  0  0  0  0  0  0  0
   19.5399   -3.8855  -15.3406 O   0  0  0  0  0  0  0  0  0  0  0  0
  2  1  1  0
  3  2  2  0
  4  2  1  0
  5  4  1  0
  6  5  1  0
  6  8  1  0
  6  7  1  1
  8  9  2  0
 10  8  1  0
 10 11  1  0
 11 12  1  6
 12 13  1  0
 13 17  1  0
 14 13  2  0
 14 15  1  0
 15 16  1  0
 17 16  2  0
 18 19  2  0
 18 11  1  0
 21 20  1  1
 21 23  1  0
 22 21  1  0
 23 24  1  1
 24 18  1  0
 25 23  1  0
 25 27  1  0
 26 25  2  0
M  END
$$$$
