QHV.pdb
     RDKit          3D

 27 27  0  0  1  0  0  0  0  0999 V2000
   29.9604  -32.6594  -15.2511 N   0  0  0  0  0  0  0  0  0  0  0  0
   28.5803  -32.9283  -15.2551 C   0  0  0  0  0  0  0  0  0  0  0  0
   28.0811  -33.6279  -14.3575 O   0  0  0  0  0  0  0  0  0  0  0  0
   27.7255  -32.3827  -16.3203 C   0  0  0  0  0  0  0  0  0  0  0  0
   28.5057  -31.6193  -17.3614 C   0  0  0  0  0  0  0  0  0  0  0  0
   28.9190  -30.2950  -16.7061 C   0  0  2  0  0  0  0  0  0  0  0  0
   27.8052  -29.4067  -16.5681 N   0  0  0  0  0  0  0  0  0  0  0  0
   29.9740  -29.6246  -17.5056 C   0  0  0  0  0  0  0  0  0  0  0  0
   29.5652  -28.8155  -18.3924 O   0  0  0  0  0  0  0  0  0  0  0  0
   31.3377  -29.9079  -17.2516 N   0  0  0  0  0  0  0  0  0  0  0  0
   32.3543  -29.2859  -18.0557 C   0  0  1  0  0  0  0  0  0  0  0  0
   33.2815  -28.4746  -17.2198 C   0  0  0  0  0  0  0  0  0  0  0  0
   32.6727  -27.2031  -16.7572 C   0  0  0  0  0  0  0  0  0  0  0  0
   31.4235  -26.6873  -17.0299 C   0  0  0  0  0  0  0  0  0  0  0  0
   31.3162  -25.4903  -16.3807 N   0  0  0  0  0  0  0  0  0  0  0  0
   32.4589  -25.2650  -15.7244 C   0  0  0  0  0  0  0  0  0  0  0  0
   33.2641  -26.2989  -15.9580 N   0  0  0  0  0  0  0  0  0  0  0  0
   33.0695  -30.3606  -18.8210 C   0  0  0  0  0  0  0  0  0  0  0  0
   33.4377  -31.3601  -18.1915 O   0  0  0  0  0  0  0  0  0  0  0  0
   32.3334  -31.0280  -22.9025 C   0  0  0  0  0  0  0  0  0  0  0  0
   33.1259  -31.9372  -21.9955 C   0  0  2  0  0  0  0  0  0  0  0  0
   32.1583  -32.8372  -21.2594 C   0  0  0  0  0  0  0  0  0  0  0  0
   33.9893  -31.1371  -21.0724 C   0  0  2  0  0  0  0  0  0  0  0  0
   33.3175  -30.2479  -20.1988 N   0  0  0  0  0  0  0  0  0  0  0  0
   35.2251  -30.6186  -21.6418 C   0  0  0  0  0  0  0  0  0  0  0  0
   36.1375  -31.3759  -22.0213 O   0  0  0  0  0  0  0  0  0  0  0  0
   35.4065  -29.2500  -21.7718 O   0  0  0  0  0  0  0  0  0  0  0  0
  2  1  1  0
  3  2  2  0
  4  2  1  0
  5  4  1  0
  6  5  1  0
  6  8  1  0
  6  7  1  6
  8  9  2  0
 10  8  1  0
 10 11  1  0
 11 12  1  1
 12 13  1  0
 13 17  1  0
 14 13  2  0
 14 15  1  0
 15 16  1  0
 17 16  2  0
 18 19  2  0
 18 11  1  0
 21 20  1  1
 21 23  1  0
 22 21  1  0
 23 24  1  6
 24 18  1  0
 25 23  1  0
 25 27  1  0
 26 25  2  0
M  END
$$$$
