QHV.pdb
     RDKit          3D

 27 27  0  0  1  0  0  0  0  0999 V2000
   16.2214  -15.3626  -14.3153 N   0  0  0  0  0  0  0  0  0  0  0  0
   15.2607  -14.3953  -14.6590 C   0  0  0  0  0  0  0  0  0  0  0  0
   14.2743  -14.2113  -13.9258 O   0  0  0  0  0  0  0  0  0  0  0  0
   15.4209  -13.5999  -15.8858 C   0  0  0  0  0  0  0  0  0  0  0  0
   16.6938  -12.7906  -15.8947 C   0  0  0  0  0  0  0  0  0  0  0  0
   16.7415  -12.0761  -17.2517 C   0  0  2  0  0  0  0  0  0  0  0  0
   16.9293  -13.0020  -18.3269 N   0  0  0  0  0  0  0  0  0  0  0  0
   17.8397  -11.0786  -17.2773 C   0  0  0  0  0  0  0  0  0  0  0  0
   18.9980  -11.5376  -17.5135 O   0  0  0  0  0  0  0  0  0  0  0  0
   17.5551   -9.7111  -17.0458 N   0  0  0  0  0  0  0  0  0  0  0  0
   18.5813   -8.7264  -17.2563 C   0  0  1  0  0  0  0  0  0  0  0  0
   18.0553   -7.5509  -18.0033 C   0  0  0  0  0  0  0  0  0  0  0  0
   17.7845   -7.8527  -19.4305 C   0  0  0  0  0  0  0  0  0  0  0  0
   18.6773   -8.0391  -20.4645 C   0  0  0  0  0  0  0  0  0  0  0  0
   17.9565   -8.2935  -21.5965 N   0  0  0  0  0  0  0  0  0  0  0  0
   16.6575   -8.2671  -21.2817 C   0  0  0  0  0  0  0  0  0  0  0  0
   16.5674   -8.0019  -19.9803 N   0  0  0  0  0  0  0  0  0  0  0  0
   19.1468   -8.3455  -15.9194 C   0  0  0  0  0  0  0  0  0  0  0  0
   18.3504   -8.2001  -14.9837 O   0  0  0  0  0  0  0  0  0  0  0  0
   23.3584   -9.1294  -14.8677 C   0  0  0  0  0  0  0  0  0  0  0  0
   22.1113   -9.0064  -14.0268 C   0  0  2  0  0  0  0  0  0  0  0  0
   21.4072  -10.3451  -14.0198 C   0  0  0  0  0  0  0  0  0  0  0  0
   21.2430   -7.8981  -14.5324 C   0  0  2  0  0  0  0  0  0  0  0  0
   20.5251   -8.1584  -15.7250 N   0  0  0  0  0  0  0  0  0  0  0  0
   21.7974   -6.5554  -14.4325 C   0  0  0  0  0  0  0  0  0  0  0  0
   21.9698   -5.8436  -15.4392 O   0  0  0  0  0  0  0  0  0  0  0  0
   22.1473   -6.0415  -13.1930 O   0  0  0  0  0  0  0  0  0  0  0  0
  2  1  1  0
  3  2  2  0
  4  2  1  0
  5  4  1  0
  6  5  1  0
  6  8  1  0
  6  7  1  6
  8  9  2  0
 10  8  1  0
 10 11  1  0
 11 12  1  1
 12 13  1  0
 13 17  1  0
 14 13  2  0
 14 15  1  0
 15 16  1  0
 17 16  2  0
 18 19  2  0
 18 11  1  0
 21 20  1  6
 21 23  1  0
 22 21  1  0
 23 24  1  6
 24 18  1  0
 25 23  1  0
 25 27  1  0
 26 25  2  0
M  END
$$$$
