QHV.pdb
     RDKit          3D

 27 27  0  0  1  0  0  0  0  0999 V2000
   19.8680  -14.3219  -14.6343 N   0  0  0  0  0  0  0  0  0  0  0  0
   19.0159  -15.2320  -15.2844 C   0  0  0  0  0  0  0  0  0  0  0  0
   18.9949  -16.4236  -14.9323 O   0  0  0  0  0  0  0  0  0  0  0  0
   18.1486  -14.7761  -16.3813 C   0  0  0  0  0  0  0  0  0  0  0  0
   18.2967  -13.3027  -16.6688 C   0  0  0  0  0  0  0  0  0  0  0  0
   17.1398  -12.6030  -15.9433 C   0  0  2  0  0  0  0  0  0  0  0  0
   15.8733  -12.9619  -16.5053 N   0  0  0  0  0  0  0  0  0  0  0  0
   17.2970  -11.1292  -16.0114 C   0  0  0  0  0  0  0  0  0  0  0  0
   17.2473  -10.6210  -17.1722 O   0  0  0  0  0  0  0  0  0  0  0  0
   17.4882  -10.3852  -14.8221 N   0  0  0  0  0  0  0  0  0  0  0  0
   17.5882   -8.9525  -14.8887 C   0  0  1  0  0  0  0  0  0  0  0  0
   16.4193   -8.2996  -14.2377 C   0  0  0  0  0  0  0  0  0  0  0  0
   15.1647   -8.4661  -15.0121 C   0  0  0  0  0  0  0  0  0  0  0  0
   14.8019   -7.8947  -16.2132 C   0  0  0  0  0  0  0  0  0  0  0  0
   13.5531   -8.3483  -16.5300 N   0  0  0  0  0  0  0  0  0  0  0  0
   13.1484   -9.1749  -15.5604 C   0  0  0  0  0  0  0  0  0  0  0  0
   14.1233   -9.2374  -14.6563 N   0  0  0  0  0  0  0  0  0  0  0  0
   18.8902   -8.5440  -14.2638 C   0  0  0  0  0  0  0  0  0  0  0  0
   19.1057   -8.9121  -13.1024 O   0  0  0  0  0  0  0  0  0  0  0  0
   22.3666   -7.6028  -16.6453 C   0  0  0  0  0  0  0  0  0  0  0  0
   22.2930   -7.9535  -15.1793 C   0  0  2  0  0  0  0  0  0  0  0  0
   22.2771   -9.4606  -15.0502 C   0  0  0  0  0  0  0  0  0  0  0  0
   21.1050   -7.3051  -14.5422 C   0  0  2  0  0  0  0  0  0  0  0  0
   19.8357   -7.7736  -14.9602 N   0  0  0  0  0  0  0  0  0  0  0  0
   21.1916   -5.8649  -14.3458 C   0  0  0  0  0  0  0  0  0  0  0  0
   22.0850   -5.3539  -13.6455 O   0  0  0  0  0  0  0  0  0  0  0  0
   20.2639   -5.0275  -14.9466 O   0  0  0  0  0  0  0  0  0  0  0  0
  2  1  1  0
  3  2  2  0
  4  2  1  0
  5  4  1  0
  6  5  1  0
  6  8  1  0
  6  7  1  6
  8  9  2  0
 10  8  1  0
 10 11  1  0
 11 12  1  1
 12 13  1  0
 13 17  1  0
 14 13  2  0
 14 15  1  0
 15 16  1  0
 17 16  2  0
 18 19  2  0
 18 11  1  0
 21 20  1  6
 21 23  1  0
 22 21  1  0
 23 24  1  6
 24 18  1  0
 25 23  1  0
 25 27  1  0
 26 25  2  0
M  END
$$$$
