QHV.pdb
     RDKit          3D

 27 27  0  0  1  0  0  0  0  0999 V2000
   28.3874  -33.9014   -7.9772 N   0  0  0  0  0  0  0  0  0  0  0  0
   27.2425  -33.5808   -8.7276 C   0  0  0  0  0  0  0  0  0  0  0  0
   27.1357  -33.9806   -9.8993 O   0  0  0  0  0  0  0  0  0  0  0  0
   26.1699  -32.7725   -8.1281 C   0  0  0  0  0  0  0  0  0  0  0  0
   26.4526  -32.3987   -6.6943 C   0  0  0  0  0  0  0  0  0  0  0  0
   25.9757  -33.5793   -5.8382 C   0  0  2  0  0  0  0  0  0  0  0  0
   24.5756  -33.4909   -5.5543 N   0  0  0  0  0  0  0  0  0  0  0  0
   26.7246  -33.6315   -4.5584 C   0  0  0  0  0  0  0  0  0  0  0  0
   26.6126  -32.6136   -3.8105 O   0  0  0  0  0  0  0  0  0  0  0  0
   27.5011  -34.7725   -4.2423 N   0  0  0  0  0  0  0  0  0  0  0  0
   28.2191  -34.8206   -2.9977 C   0  0  1  0  0  0  0  0  0  0  0  0
   27.6671  -35.8698   -2.0971 C   0  0  0  0  0  0  0  0  0  0  0  0
   26.5623  -35.3688   -1.2427 C   0  0  0  0  0  0  0  0  0  0  0  0
   26.1465  -34.0714   -1.0310 C   0  0  0  0  0  0  0  0  0  0  0  0
   25.0916  -34.1083   -0.1641 N   0  0  0  0  0  0  0  0  0  0  0  0
   24.8555  -35.3848    0.1555 C   0  0  0  0  0  0  0  0  0  0  0  0
   25.7437  -36.1307   -0.4974 N   0  0  0  0  0  0  0  0  0  0  0  0
   29.6722  -35.0386   -3.3030 C   0  0  0  0  0  0  0  0  0  0  0  0
   29.9504  -35.7863   -4.2488 O   0  0  0  0  0  0  0  0  0  0  0  0
   32.2954  -32.2503   -3.5191 C   0  0  0  0  0  0  0  0  0  0  0  0
   32.8829  -33.2859   -2.5918 C   0  0  2  0  0  0  0  0  0  0  0  0
   34.3372  -33.4833   -2.9581 C   0  0  0  0  0  0  0  0  0  0  0  0
   32.0931  -34.5549   -2.6523 C   0  0  2  0  0  0  0  0  0  0  0  0
   30.6867  -34.4234   -2.5514 N   0  0  0  0  0  0  0  0  0  0  0  0
   32.6544  -35.6919   -1.9365 C   0  0  0  0  0  0  0  0  0  0  0  0
   32.1259  -36.1371   -0.9010 O   0  0  0  0  0  0  0  0  0  0  0  0
   33.8057  -36.3057   -2.4063 O   0  0  0  0  0  0  0  0  0  0  0  0
  2  1  1  0
  3  2  2  0
  4  2  1  0
  5  4  1  0
  6  5  1  0
  6  8  1  0
  6  7  1  1
  8  9  2  0
 10  8  1  0
 10 11  1  0
 11 12  1  1
 12 13  1  0
 13 17  1  0
 14 13  2  0
 14 15  1  0
 15 16  1  0
 17 16  2  0
 18 19  2  0
 18 11  1  0
 21 20  1  6
 21 23  1  0
 22 21  1  0
 23 24  1  1
 24 18  1  0
 25 23  1  0
 25 27  1  0
 26 25  2  0
M  END
$$$$
