QHV.pdb
     RDKit          3D

 27 27  0  0  1  0  0  0  0  0999 V2000
   11.9739  -24.2365   -3.2308 N   0  0  0  0  0  0  0  0  0  0  0  0
   11.5497  -25.2591   -4.0976 C   0  0  0  0  0  0  0  0  0  0  0  0
   10.8977  -26.2192   -3.6534 O   0  0  0  0  0  0  0  0  0  0  0  0
   11.8763  -25.1946   -5.5301 C   0  0  0  0  0  0  0  0  0  0  0  0
   12.8136  -24.0610   -5.8648 C   0  0  0  0  0  0  0  0  0  0  0  0
   13.8212  -24.6189   -6.8785 C   0  0  2  0  0  0  0  0  0  0  0  0
   13.1626  -25.2545   -7.9789 N   0  0  0  0  0  0  0  0  0  0  0  0
   14.7271  -25.5979   -6.2284 C   0  0  0  0  0  0  0  0  0  0  0  0
   14.4885  -26.8191   -6.4733 O   0  0  0  0  0  0  0  0  0  0  0  0
   15.7772  -25.1413   -5.3956 N   0  0  0  0  0  0  0  0  0  0  0  0
   16.7990  -26.0600   -4.9726 C   0  0  1  0  0  0  0  0  0  0  0  0
   18.1583  -25.5000   -5.2076 C   0  0  0  0  0  0  0  0  0  0  0  0
   18.5286  -25.4772   -6.6442 C   0  0  0  0  0  0  0  0  0  0  0  0
   18.5543  -26.5145   -7.5521 C   0  0  0  0  0  0  0  0  0  0  0  0
   18.9609  -26.0068   -8.7532 N   0  0  0  0  0  0  0  0  0  0  0  0
   19.1820  -24.6971   -8.6020 C   0  0  0  0  0  0  0  0  0  0  0  0
   18.9194  -24.3917   -7.3333 N   0  0  0  0  0  0  0  0  0  0  0  0
   16.5615  -26.3927   -3.5286 C   0  0  0  0  0  0  0  0  0  0  0  0
   16.1423  -25.4878   -2.7963 O   0  0  0  0  0  0  0  0  0  0  0  0
   15.7381  -30.0267   -0.2759 C   0  0  0  0  0  0  0  0  0  0  0  0
   16.2720  -29.6640   -1.6400 C   0  0  2  0  0  0  0  0  0  0  0  0
   17.4956  -30.5103   -1.9132 C   0  0  0  0  0  0  0  0  0  0  0  0
   16.5524  -28.1970   -1.7223 C   0  0  2  0  0  0  0  0  0  0  0  0
   16.8021  -27.6780   -3.0161 N   0  0  0  0  0  0  0  0  0  0  0  0
   17.3944  -27.6471   -0.6694 C   0  0  0  0  0  0  0  0  0  0  0  0
   18.5848  -27.3462   -0.8754 O   0  0  0  0  0  0  0  0  0  0  0  0
   16.8733  -27.4471    0.6000 O   0  0  0  0  0  0  0  0  0  0  0  0
  2  1  1  0
  3  2  2  0
  4  2  1  0
  5  4  1  0
  6  5  1  0
  6  8  1  0
  6  7  1  6
  8  9  2  0
 10  8  1  0
 10 11  1  0
 11 12  1  1
 12 13  1  0
 13 17  1  0
 14 13  2  0
 14 15  1  0
 15 16  1  0
 17 16  2  0
 18 19  2  0
 18 11  1  0
 21 20  1  1
 21 23  1  0
 22 21  1  0
 23 24  1  6
 24 18  1  0
 25 23  1  0
 25 27  1  0
 26 25  2  0
M  END
$$$$
