YCR.pdb
     RDKit          3D

 30 30  0  0  1  0  0  0  0  0999 V2000
    6.5204  -13.9264   17.0397 O   0  0  0  0  0  0  0  0  0  0  0  0
    7.2224  -13.9437   18.2251 C   0  0  0  0  0  0  0  0  0  0  0  0
    8.0978  -14.9969   18.4797 C   0  0  0  0  0  0  0  0  0  0  0  0
    8.7965  -15.0272   19.6446 C   0  0  0  0  0  0  0  0  0  0  0  0
    8.6893  -14.0540   20.6152 C   0  0  0  0  0  0  0  0  0  0  0  0
    9.4318  -14.0810   21.8694 C   0  0  0  0  0  0  0  0  0  0  0  0
    9.2810  -15.3194   22.6961 C   0  0  2  0  0  0  0  0  0  0  0  0
    7.8998  -15.2965   23.2096 N   0  0  0  0  0  0  0  0  0  0  0  0
   10.1544  -15.3184   23.9132 C   0  0  0  0  0  0  0  0  0  0  0  0
   11.3673  -14.9542   23.7616 O   0  0  0  0  0  0  0  0  0  0  0  0
    7.8267  -13.0154   20.3647 C   0  0  0  0  0  0  0  0  0  0  0  0
    7.0979  -12.9545   19.1846 C   0  0  0  0  0  0  0  0  0  0  0  0
    9.7161  -15.6909   25.1900 N   0  0  0  0  0  0  0  0  0  0  0  0
   10.6328  -15.5994   26.3475 C   0  0  1  0  0  0  0  0  0  0  0  0
   10.4410  -14.2063   26.9215 C   0  0  0  0  0  0  0  0  0  0  0  0
    8.7421  -13.9496   27.4272 S   0  0  0  0  0  0  0  0  0  0  0  0
   10.3294  -16.6730   27.2979 C   0  0  0  0  0  0  0  0  0  0  0  0
    9.1091  -17.0389   27.4123 O   0  0  0  0  0  0  0  0  0  0  0  0
   15.2572  -23.4583   30.3403 N   0  0  0  0  0  0  0  0  0  0  0  0
   14.7699  -22.5747   31.3570 C   0  0  0  0  0  0  0  0  0  0  0  0
   15.2619  -22.6381   32.5401 N   0  0  0  0  0  0  0  0  0  0  0  0
   13.7525  -21.6275   31.0936 N   0  0  0  0  0  0  0  0  0  0  0  0
   13.1298  -21.5399   29.7455 C   0  0  0  0  0  0  0  0  0  0  0  0
   12.0432  -20.5511   29.8733 C   0  0  0  0  0  0  0  0  0  0  0  0
   11.9463  -19.3585   29.0572 C   0  0  0  0  0  0  0  0  0  0  0  0
   10.8591  -18.3669   29.1210 C   0  0  2  0  0  0  0  0  0  0  0  0
   11.2665  -17.3370   28.0944 N   0  0  0  0  0  0  0  0  0  0  0  0
   10.8335  -17.5963   30.3640 C   0  0  0  0  0  0  0  0  0  0  0  0
   11.4388  -16.5306   30.5212 O   0  0  0  0  0  0  0  0  0  0  0  0
   10.0979  -18.0491   31.4605 O   0  0  0  0  0  0  0  0  0  0  0  0
  2 12  2  0
  2  1  1  0
  3  2  1  0
  4  5  1  0
  4  3  2  0
  5 11  2  0
  6  5  1  0
  7  8  1  1
  7  6  1  0
  9  7  1  0
 10  9  2  0
 11 12  1  0
 13  9  1  0
 14 17  1  0
 14 13  1  0
 14 15  1  1
 16 15  1  0
 17 18  2  0
 20 22  1  0
 20 19  1  0
 21 20  2  0
 23 24  1  0
 23 22  1  0
 26 25  1  1
 25 24  1  0
 27 26  1  0
 27 17  1  0
 28 30  1  0
 28 26  1  0
 29 28  2  0
M  END
$$$$
