YCR.pdb
     RDKit          3D

 30 30  0  0  1  0  0  0  0  0999 V2000
   16.7822  -15.6287   17.1793 O   0  0  0  0  0  0  0  0  0  0  0  0
   15.5754  -15.3894   17.7993 C   0  0  0  0  0  0  0  0  0  0  0  0
   15.1442  -14.0746   17.9600 C   0  0  0  0  0  0  0  0  0  0  0  0
   13.9563  -13.8236   18.5699 C   0  0  0  0  0  0  0  0  0  0  0  0
   13.1301  -14.8164   19.0519 C   0  0  0  0  0  0  0  0  0  0  0  0
   11.8563  -14.5559   19.7112 C   0  0  0  0  0  0  0  0  0  0  0  0
   10.6296  -14.7835   18.8847 C   0  0  2  0  0  0  0  0  0  0  0  0
   10.5043  -13.6011   18.0139 N   0  0  0  0  0  0  0  0  0  0  0  0
    9.3730  -14.8078   19.7000 C   0  0  0  0  0  0  0  0  0  0  0  0
    8.7816  -13.6948   19.8951 O   0  0  0  0  0  0  0  0  0  0  0  0
   13.5545  -16.1127   18.8937 C   0  0  0  0  0  0  0  0  0  0  0  0
   14.7629  -16.4035   18.2751 C   0  0  0  0  0  0  0  0  0  0  0  0
    8.8215  -15.9710   20.2512 N   0  0  0  0  0  0  0  0  0  0  0  0
    7.6121  -15.8914   21.0995 C   0  0  1  0  0  0  0  0  0  0  0  0
    6.5599  -16.7387   20.4051 C   0  0  0  0  0  0  0  0  0  0  0  0
    5.2050  -17.1145   21.5146 S   0  0  0  0  0  0  0  0  0  0  0  0
    7.9339  -16.3485   22.4542 C   0  0  0  0  0  0  0  0  0  0  0  0
    8.4063  -17.5297   22.5871 O   0  0  0  0  0  0  0  0  0  0  0  0
   11.2246  -14.3696   28.3234 N   0  0  0  0  0  0  0  0  0  0  0  0
   10.3613  -14.5200   29.4565 C   0  0  0  0  0  0  0  0  0  0  0  0
   10.8333  -14.9858   30.5547 N   0  0  0  0  0  0  0  0  0  0  0  0
    8.9920  -14.1689   29.3997 N   0  0  0  0  0  0  0  0  0  0  0  0
    8.3658  -13.7680   28.1113 C   0  0  0  0  0  0  0  0  0  0  0  0
    8.3526  -14.9861   27.2801 C   0  0  0  0  0  0  0  0  0  0  0  0
    8.1002  -14.9790   25.8539 C   0  0  0  0  0  0  0  0  0  0  0  0
    8.0549  -16.1707   24.9895 C   0  0  2  0  0  0  0  0  0  0  0  0
    7.7688  -15.5980   23.6217 N   0  0  0  0  0  0  0  0  0  0  0  0
    6.8983  -17.0330   25.2307 C   0  0  0  0  0  0  0  0  0  0  0  0
    5.7835  -16.8374   24.7349 O   0  0  0  0  0  0  0  0  0  0  0  0
    7.0114  -18.1509   26.0590 O   0  0  0  0  0  0  0  0  0  0  0  0
  2 12  2  0
  2  1  1  0
  3  2  1  0
  4  5  1  0
  4  3  2  0
  5 11  2  0
  6  5  1  0
  7  8  1  6
  7  6  1  0
  9  7  1  0
 10  9  2  0
 11 12  1  0
 13  9  1  0
 14 17  1  0
 14 13  1  0
 14 15  1  6
 16 15  1  0
 17 18  2  0
 20 22  1  0
 20 19  1  0
 21 20  2  0
 23 24  1  0
 23 22  1  0
 26 25  1  1
 25 24  1  0
 27 26  1  0
 27 17  1  0
 28 30  1  0
 28 26  1  0
 29 28  2  0
M  END
$$$$
