YCR.pdb
     RDKit          3D

 30 30  0  0  1  0  0  0  0  0999 V2000
    9.6269  -13.2039   17.6248 O   0  0  0  0  0  0  0  0  0  0  0  0
    8.7929  -13.6983   18.6036 C   0  0  0  0  0  0  0  0  0  0  0  0
    8.3590  -15.0194   18.5214 C   0  0  0  0  0  0  0  0  0  0  0  0
    7.5360  -15.5204   19.4795 C   0  0  0  0  0  0  0  0  0  0  0  0
    7.0928  -14.7820   20.5560 C   0  0  0  0  0  0  0  0  0  0  0  0
    6.2065  -15.3102   21.5858 C   0  0  0  0  0  0  0  0  0  0  0  0
    6.6794  -16.5423   22.2915 C   0  0  2  0  0  0  0  0  0  0  0  0
    5.5225  -17.0373   23.0588 N   0  0  0  0  0  0  0  0  0  0  0  0
    7.7384  -16.2597   23.3127 C   0  0  0  0  0  0  0  0  0  0  0  0
    7.4880  -15.3586   24.1799 O   0  0  0  0  0  0  0  0  0  0  0  0
    7.5203  -13.4796   20.6377 C   0  0  0  0  0  0  0  0  0  0  0  0
    8.3613  -12.9370   19.6755 C   0  0  0  0  0  0  0  0  0  0  0  0
    8.9707  -16.9227   23.3647 N   0  0  0  0  0  0  0  0  0  0  0  0
   10.0995  -16.3370   24.1206 C   0  0  1  0  0  0  0  0  0  0  0  0
    9.7864  -16.5752   25.5877 C   0  0  0  0  0  0  0  0  0  0  0  0
   11.1620  -17.3685   26.4161 S   0  0  0  0  0  0  0  0  0  0  0  0
   11.3547  -16.9525   23.6806 C   0  0  0  0  0  0  0  0  0  0  0  0
   11.3686  -18.2204   23.5125 O   0  0  0  0  0  0  0  0  0  0  0  0
   17.2759  -12.5241   18.9119 N   0  0  0  0  0  0  0  0  0  0  0  0
   16.5637  -13.4397   18.0715 C   0  0  0  0  0  0  0  0  0  0  0  0
   16.8105  -13.4671   16.8129 N   0  0  0  0  0  0  0  0  0  0  0  0
   15.5869  -14.3208   18.5921 N   0  0  0  0  0  0  0  0  0  0  0  0
   15.0224  -14.1077   19.9518 C   0  0  0  0  0  0  0  0  0  0  0  0
   14.0582  -15.2044   20.1580 C   0  0  0  0  0  0  0  0  0  0  0  0
   13.3345  -15.4116   21.3954 C   0  0  0  0  0  0  0  0  0  0  0  0
   13.4301  -16.6077   22.2496 C   0  0  2  0  0  0  0  0  0  0  0  0
   12.5458  -16.2672   23.4255 N   0  0  0  0  0  0  0  0  0  0  0  0
   14.7424  -16.7885   22.8697 C   0  0  0  0  0  0  0  0  0  0  0  0
   15.6916  -17.3495   22.3117 O   0  0  0  0  0  0  0  0  0  0  0  0
   14.9841  -16.3176   24.1613 O   0  0  0  0  0  0  0  0  0  0  0  0
  2 12  2  0
  2  1  1  0
  3  2  1  0
  4  5  1  0
  4  3  2  0
  5 11  2  0
  6  5  1  0
  7  8  1  1
  7  6  1  0
  9  7  1  0
 10  9  2  0
 11 12  1  0
 13  9  1  0
 14 17  1  0
 14 13  1  0
 14 15  1  1
 16 15  1  0
 17 18  2  0
 20 22  1  0
 20 19  1  0
 21 20  2  0
 23 24  1  0
 23 22  1  0
 26 25  1  6
 25 24  1  0
 27 26  1  0
 27 17  1  0
 28 30  1  0
 28 26  1  0
 29 28  2  0
M  END
$$$$
