YCR.pdb
     RDKit          3D

 30 30  0  0  1  0  0  0  0  0999 V2000
    7.9175  -14.3556   14.3679 O   0  0  0  0  0  0  0  0  0  0  0  0
    7.9033  -14.1877   15.7353 C   0  0  0  0  0  0  0  0  0  0  0  0
    7.1571  -13.1468   16.2832 C   0  0  0  0  0  0  0  0  0  0  0  0
    7.1340  -12.9690   17.6300 C   0  0  0  0  0  0  0  0  0  0  0  0
    7.8218  -13.7768   18.5104 C   0  0  0  0  0  0  0  0  0  0  0  0
    7.8061  -13.5905   19.9561 C   0  0  0  0  0  0  0  0  0  0  0  0
    7.5848  -14.8232   20.7754 C   0  0  2  0  0  0  0  0  0  0  0  0
    6.1240  -15.0055   20.8441 N   0  0  0  0  0  0  0  0  0  0  0  0
    8.0301  -14.6666   22.1971 C   0  0  0  0  0  0  0  0  0  0  0  0
    7.8046  -13.5444   22.7597 O   0  0  0  0  0  0  0  0  0  0  0  0
    8.5575  -14.8031   17.9709 C   0  0  0  0  0  0  0  0  0  0  0  0
    8.6024  -15.0122   16.5992 C   0  0  0  0  0  0  0  0  0  0  0  0
    8.6716  -15.6724   22.9304 N   0  0  0  0  0  0  0  0  0  0  0  0
    9.2239  -15.3787   24.2712 C   0  0  1  0  0  0  0  0  0  0  0  0
    8.0261  -15.1037   25.1638 C   0  0  0  0  0  0  0  0  0  0  0  0
    6.8146  -16.4164   25.0334 S   0  0  0  0  0  0  0  0  0  0  0  0
   10.0441  -16.5072   24.7203 C   0  0  0  0  0  0  0  0  0  0  0  0
    9.6069  -17.6877   24.4939 O   0  0  0  0  0  0  0  0  0  0  0  0
   16.5236  -16.6037   21.0467 N   0  0  0  0  0  0  0  0  0  0  0  0
   15.7819  -15.5820   21.7233 C   0  0  0  0  0  0  0  0  0  0  0  0
   15.4454  -14.5187   21.0893 N   0  0  0  0  0  0  0  0  0  0  0  0
   15.4075  -15.7109   23.0815 N   0  0  0  0  0  0  0  0  0  0  0  0
   15.7630  -16.9324   23.8524 C   0  0  0  0  0  0  0  0  0  0  0  0
   14.4793  -17.5671   24.2051 C   0  0  0  0  0  0  0  0  0  0  0  0
   13.5253  -16.9850   25.1263 C   0  0  0  0  0  0  0  0  0  0  0  0
   12.2237  -17.5707   25.4899 C   0  0  2  0  0  0  0  0  0  0  0  0
   11.2729  -16.4028   25.3781 N   0  0  0  0  0  0  0  0  0  0  0  0
   12.1164  -17.9451   26.8997 C   0  0  0  0  0  0  0  0  0  0  0  0
   12.4534  -19.0485   27.3425 O   0  0  0  0  0  0  0  0  0  0  0  0
   11.6124  -17.0393   27.8346 O   0  0  0  0  0  0  0  0  0  0  0  0
  2 12  2  0
  2  1  1  0
  3  2  1  0
  4  5  1  0
  4  3  2  0
  5 11  2  0
  6  5  1  0
  7  8  1  1
  7  6  1  0
  9  7  1  0
 10  9  2  0
 11 12  1  0
 13  9  1  0
 14 17  1  0
 14 13  1  0
 14 15  1  1
 16 15  1  0
 17 18  2  0
 20 22  1  0
 20 19  1  0
 21 20  2  0
 23 24  1  0
 23 22  1  0
 26 25  1  1
 25 24  1  0
 27 26  1  0
 27 17  1  0
 28 30  1  0
 28 26  1  0
 29 28  2  0
M  END
$$$$
