YCR.pdb
     RDKit          3D

 30 30  0  0  1  0  0  0  0  0999 V2000
    9.9643  -11.6442   20.6254 O   0  0  0  0  0  0  0  0  0  0  0  0
    9.0853  -12.7050   20.6134 C   0  0  0  0  0  0  0  0  0  0  0  0
    7.9088  -12.6194   21.3542 C   0  0  0  0  0  0  0  0  0  0  0  0
    7.0327  -13.6579   21.3519 C   0  0  0  0  0  0  0  0  0  0  0  0
    7.2423  -14.8214   20.6428 C   0  0  0  0  0  0  0  0  0  0  0  0
    6.3099  -15.9420   20.6382 C   0  0  0  0  0  0  0  0  0  0  0  0
    6.8893  -17.2807   20.9726 C   0  0  2  0  0  0  0  0  0  0  0  0
    5.8194  -18.2602   20.7122 N   0  0  0  0  0  0  0  0  0  0  0  0
    7.2143  -17.4290   22.4274 C   0  0  0  0  0  0  0  0  0  0  0  0
    6.2348  -17.5459   23.2358 O   0  0  0  0  0  0  0  0  0  0  0  0
    8.4018  -14.9063   19.9121 C   0  0  0  0  0  0  0  0  0  0  0  0
    9.3179  -13.8633   19.8929 C   0  0  0  0  0  0  0  0  0  0  0  0
    8.5177  -17.4456   22.9393 N   0  0  0  0  0  0  0  0  0  0  0  0
    8.7428  -17.5329   24.3989 C   0  0  1  0  0  0  0  0  0  0  0  0
    9.0466  -18.9930   24.6868 C   0  0  0  0  0  0  0  0  0  0  0  0
   10.5556  -19.5069   23.8701 S   0  0  0  0  0  0  0  0  0  0  0  0
    9.8244  -16.6213   24.7823 C   0  0  0  0  0  0  0  0  0  0  0  0
   10.8064  -16.4897   23.9734 O   0  0  0  0  0  0  0  0  0  0  0  0
    7.2983  -12.9676   24.6686 N   0  0  0  0  0  0  0  0  0  0  0  0
    6.7578  -13.8314   25.6753 C   0  0  0  0  0  0  0  0  0  0  0  0
    5.8868  -14.7154   25.3501 N   0  0  0  0  0  0  0  0  0  0  0  0
    7.1577  -13.7368   27.0290 N   0  0  0  0  0  0  0  0  0  0  0  0
    8.2562  -12.8181   27.4318 C   0  0  0  0  0  0  0  0  0  0  0  0
    9.4091  -13.6863   27.7349 C   0  0  0  0  0  0  0  0  0  0  0  0
   10.5565  -13.8267   26.8622 C   0  0  0  0  0  0  0  0  0  0  0  0
   11.1049  -15.1029   26.3725 C   0  0  2  0  0  0  0  0  0  0  0  0
    9.8741  -15.8770   25.9643 N   0  0  0  0  0  0  0  0  0  0  0  0
   11.6835  -15.9402   27.4231 C   0  0  0  0  0  0  0  0  0  0  0  0
   11.1195  -16.9331   27.8953 O   0  0  0  0  0  0  0  0  0  0  0  0
   12.9401  -15.6413   27.9524 O   0  0  0  0  0  0  0  0  0  0  0  0
  2 12  2  0
  2  1  1  0
  3  2  1  0
  4  5  1  0
  4  3  2  0
  5 11  2  0
  6  5  1  0
  7  8  1  1
  7  6  1  0
  9  7  1  0
 10  9  2  0
 11 12  1  0
 13  9  1  0
 14 17  1  0
 14 13  1  0
 14 15  1  6
 16 15  1  0
 17 18  2  0
 20 22  1  0
 20 19  1  0
 21 20  2  0
 23 24  1  0
 23 22  1  0
 26 25  1  1
 25 24  1  0
 27 26  1  0
 27 17  1  0
 28 30  1  0
 28 26  1  0
 29 28  2  0
M  END
$$$$
