YCR.pdb
     RDKit          3D

 30 30  0  0  1  0  0  0  0  0999 V2000
    6.5313  -10.7108   27.1757 O   0  0  0  0  0  0  0  0  0  0  0  0
    6.7075  -12.0420   26.8676 C   0  0  0  0  0  0  0  0  0  0  0  0
    6.8323  -12.4185   25.5323 C   0  0  0  0  0  0  0  0  0  0  0  0
    7.0063  -13.7278   25.2136 C   0  0  0  0  0  0  0  0  0  0  0  0
    7.0684  -14.7326   26.1555 C   0  0  0  0  0  0  0  0  0  0  0  0
    7.2504  -16.1400   25.8221 C   0  0  0  0  0  0  0  0  0  0  0  0
    6.6119  -16.6022   24.5499 C   0  0  2  0  0  0  0  0  0  0  0  0
    6.1029  -17.9581   24.8229 N   0  0  0  0  0  0  0  0  0  0  0  0
    7.5938  -16.7673   23.4307 C   0  0  0  0  0  0  0  0  0  0  0  0
    8.3496  -17.7942   23.4634 O   0  0  0  0  0  0  0  0  0  0  0  0
    6.9456  -14.3621   27.4720 C   0  0  0  0  0  0  0  0  0  0  0  0
    6.7668  -13.0331   27.8315 C   0  0  0  0  0  0  0  0  0  0  0  0
    7.7239  -15.8671   22.3660 N   0  0  0  0  0  0  0  0  0  0  0  0
    8.8367  -16.0109   21.4017 C   0  0  1  0  0  0  0  0  0  0  0  0
    8.5365  -15.0412   20.2718 C   0  0  0  0  0  0  0  0  0  0  0  0
    7.0388  -15.5078   19.4074 S   0  0  0  0  0  0  0  0  0  0  0  0
   10.1088  -15.7468   22.0798 C   0  0  0  0  0  0  0  0  0  0  0  0
   10.1494  -14.7756   22.9112 O   0  0  0  0  0  0  0  0  0  0  0  0
   11.2012  -17.5806   29.1180 N   0  0  0  0  0  0  0  0  0  0  0  0
   11.1061  -16.1818   28.8244 C   0  0  0  0  0  0  0  0  0  0  0  0
   11.0286  -15.3368   29.7866 N   0  0  0  0  0  0  0  0  0  0  0  0
   11.0932  -15.7005   27.4941 N   0  0  0  0  0  0  0  0  0  0  0  0
   10.8493  -16.6268   26.3560 C   0  0  0  0  0  0  0  0  0  0  0  0
   11.8965  -16.3210   25.3636 C   0  0  0  0  0  0  0  0  0  0  0  0
   11.9891  -16.9700   24.0721 C   0  0  0  0  0  0  0  0  0  0  0  0
   12.4671  -16.3366   22.8312 C   0  0  2  0  0  0  0  0  0  0  0  0
   11.2895  -16.4717   21.8954 N   0  0  0  0  0  0  0  0  0  0  0  0
   13.5159  -17.0925   22.1471 C   0  0  0  0  0  0  0  0  0  0  0  0
   14.7143  -16.7943   22.1915 O   0  0  0  0  0  0  0  0  0  0  0  0
   13.1944  -18.2209   21.3910 O   0  0  0  0  0  0  0  0  0  0  0  0
  2 12  2  0
  2  1  1  0
  3  2  1  0
  4  5  1  0
  4  3  2  0
  5 11  2  0
  6  5  1  0
  7  8  1  1
  7  6  1  0
  9  7  1  0
 10  9  2  0
 11 12  1  0
 13  9  1  0
 14 17  1  0
 14 13  1  0
 14 15  1  6
 16 15  1  0
 17 18  2  0
 20 22  1  0
 20 19  1  0
 21 20  2  0
 23 24  1  0
 23 22  1  0
 26 25  1  1
 25 24  1  0
 27 26  1  0
 27 17  1  0
 28 30  1  0
 28 26  1  0
 29 28  2  0
M  END
$$$$
