YCR.pdb
     RDKit          3D

 30 30  0  0  1  0  0  0  0  0999 V2000
    6.8001  -10.6001   26.7805 O   0  0  0  0  0  0  0  0  0  0  0  0
    6.7778  -11.9724   26.6608 C   0  0  0  0  0  0  0  0  0  0  0  0
    7.9824  -12.6719   26.6481 C   0  0  0  0  0  0  0  0  0  0  0  0
    7.9757  -14.0255   26.5304 C   0  0  0  0  0  0  0  0  0  0  0  0
    6.8195  -14.7683   26.4201 C   0  0  0  0  0  0  0  0  0  0  0  0
    6.8034  -16.2201   26.2891 C   0  0  0  0  0  0  0  0  0  0  0  0
    6.2536  -16.7583   25.0054 C   0  0  2  0  0  0  0  0  0  0  0  0
    5.8849  -18.1586   25.2797 N   0  0  0  0  0  0  0  0  0  0  0  0
    7.2784  -16.8266   23.9148 C   0  0  0  0  0  0  0  0  0  0  0  0
    7.9996  -17.8768   23.8558 O   0  0  0  0  0  0  0  0  0  0  0  0
    5.6318  -14.0794   26.4327 C   0  0  0  0  0  0  0  0  0  0  0  0
    5.6036  -12.6965   26.5515 C   0  0  0  0  0  0  0  0  0  0  0  0
    7.4833  -15.8130   22.9705 N   0  0  0  0  0  0  0  0  0  0  0  0
    8.4628  -16.0011   21.8778 C   0  0  1  0  0  0  0  0  0  0  0  0
    8.2030  -14.8788   20.8879 C   0  0  0  0  0  0  0  0  0  0  0  0
    8.3989  -13.2782   21.6676 S   0  0  0  0  0  0  0  0  0  0  0  0
    9.8200  -15.9939   22.4308 C   0  0  0  0  0  0  0  0  0  0  0  0
   10.0587  -15.2081   23.4114 O   0  0  0  0  0  0  0  0  0  0  0  0
   11.9000  -22.7506   22.9833 N   0  0  0  0  0  0  0  0  0  0  0  0
   12.1342  -22.2737   24.3136 C   0  0  0  0  0  0  0  0  0  0  0  0
   12.7569  -23.0181   25.1526 N   0  0  0  0  0  0  0  0  0  0  0  0
   11.6942  -20.9965   24.7338 N   0  0  0  0  0  0  0  0  0  0  0  0
   11.3392  -19.9517   23.7362 C   0  0  0  0  0  0  0  0  0  0  0  0
   12.5888  -19.2145   23.4713 C   0  0  0  0  0  0  0  0  0  0  0  0
   12.7022  -18.1603   22.4846 C   0  0  0  0  0  0  0  0  0  0  0  0
   12.2307  -16.7757   22.6575 C   0  0  2  0  0  0  0  0  0  0  0  0
   10.8830  -16.7792   21.9760 N   0  0  0  0  0  0  0  0  0  0  0  0
   12.9861  -15.7923   21.8818 C   0  0  0  0  0  0  0  0  0  0  0  0
   12.6807  -15.4430   20.7365 O   0  0  0  0  0  0  0  0  0  0  0  0
   14.1215  -15.1870   22.4232 O   0  0  0  0  0  0  0  0  0  0  0  0
  2 12  2  0
  2  1  1  0
  3  2  1  0
  4  5  1  0
  4  3  2  0
  5 11  2  0
  6  5  1  0
  7  8  1  1
  7  6  1  0
  9  7  1  0
 10  9  2  0
 11 12  1  0
 13  9  1  0
 14 17  1  0
 14 13  1  0
 14 15  1  6
 16 15  1  0
 17 18  2  0
 20 22  1  0
 20 19  1  0
 21 20  2  0
 23 24  1  0
 23 22  1  0
 26 25  1  6
 25 24  1  0
 27 26  1  0
 27 17  1  0
 28 30  1  0
 28 26  1  0
 29 28  2  0
M  END
$$$$
