YCR.pdb
     RDKit          3D

 30 30  0  0  1  0  0  0  0  0999 V2000
    7.5986  -23.0063   30.0676 O   0  0  0  0  0  0  0  0  0  0  0  0
    7.7092  -21.9587   29.1796 C   0  0  0  0  0  0  0  0  0  0  0  0
    6.5543  -21.4275   28.6100 C   0  0  0  0  0  0  0  0  0  0  0  0
    6.6482  -20.3944   27.7326 C   0  0  0  0  0  0  0  0  0  0  0  0
    7.8477  -19.8249   27.3619 C   0  0  0  0  0  0  0  0  0  0  0  0
    7.9578  -18.7194   26.4181 C   0  0  0  0  0  0  0  0  0  0  0  0
    6.7760  -18.4950   25.5277 C   0  0  2  0  0  0  0  0  0  0  0  0
    6.5270  -19.7825   24.8551 N   0  0  0  0  0  0  0  0  0  0  0  0
    7.0535  -17.5206   24.4242 C   0  0  0  0  0  0  0  0  0  0  0  0
    7.2649  -17.9998   23.2612 O   0  0  0  0  0  0  0  0  0  0  0  0
    8.9865  -20.3480   27.9232 C   0  0  0  0  0  0  0  0  0  0  0  0
    8.9255  -21.4035   28.8230 C   0  0  0  0  0  0  0  0  0  0  0  0
    7.0926  -16.1318   24.5994 N   0  0  0  0  0  0  0  0  0  0  0  0
    7.6158  -15.2606   23.5242 C   0  0  1  0  0  0  0  0  0  0  0  0
    7.2110  -13.8459   23.9005 C   0  0  0  0  0  0  0  0  0  0  0  0
    7.8064  -13.4223   25.5358 S   0  0  0  0  0  0  0  0  0  0  0  0
    9.0650  -15.4452   23.4067 C   0  0  0  0  0  0  0  0  0  0  0  0
    9.7166  -15.7294   24.4701 O   0  0  0  0  0  0  0  0  0  0  0  0
   12.0701  -20.7878   25.9509 N   0  0  0  0  0  0  0  0  0  0  0  0
   13.1161  -20.2896   25.1086 C   0  0  0  0  0  0  0  0  0  0  0  0
   14.2622  -20.8658   25.1142 N   0  0  0  0  0  0  0  0  0  0  0  0
   12.9218  -19.1706   24.2650 N   0  0  0  0  0  0  0  0  0  0  0  0
   12.5193  -19.3537   22.8447 C   0  0  0  0  0  0  0  0  0  0  0  0
   12.4310  -17.9948   22.2785 C   0  0  0  0  0  0  0  0  0  0  0  0
   11.3053  -17.1094   22.4947 C   0  0  0  0  0  0  0  0  0  0  0  0
   11.2715  -15.6753   22.1609 C   0  0  2  0  0  0  0  0  0  0  0  0
    9.8008  -15.3378   22.2233 N   0  0  0  0  0  0  0  0  0  0  0  0
   11.6145  -15.3835   20.7692 C   0  0  0  0  0  0  0  0  0  0  0  0
   12.7742  -15.2540   20.3628 O   0  0  0  0  0  0  0  0  0  0  0  0
   10.6106  -15.2351   19.8107 O   0  0  0  0  0  0  0  0  0  0  0  0
  2 12  2  0
  2  1  1  0
  3  2  1  0
  4  5  1  0
  4  3  2  0
  5 11  2  0
  6  5  1  0
  7  8  1  6
  7  6  1  0
  9  7  1  0
 10  9  2  0
 11 12  1  0
 13  9  1  0
 14 17  1  0
 14 13  1  0
 14 15  1  1
 16 15  1  0
 17 18  2  0
 20 22  1  0
 20 19  1  0
 21 20  2  0
 23 24  1  0
 23 22  1  0
 26 25  1  6
 25 24  1  0
 27 26  1  0
 27 17  1  0
 28 30  1  0
 28 26  1  0
 29 28  2  0
M  END
$$$$
