YCR.pdb
     RDKit          3D

 30 30  0  0  1  0  0  0  0  0999 V2000
    7.5796  -11.4790   18.2401 O   0  0  0  0  0  0  0  0  0  0  0  0
    7.7602  -12.4951   19.1528 C   0  0  0  0  0  0  0  0  0  0  0  0
    6.8076  -13.5079   19.2378 C   0  0  0  0  0  0  0  0  0  0  0  0
    6.9725  -14.5162   20.1334 C   0  0  0  0  0  0  0  0  0  0  0  0
    8.0531  -14.6004   20.9854 C   0  0  0  0  0  0  0  0  0  0  0  0
    8.2356  -15.6761   21.9522 C   0  0  0  0  0  0  0  0  0  0  0  0
    9.3325  -16.6495   21.6533 C   0  0  2  0  0  0  0  0  0  0  0  0
    8.8905  -17.4041   20.4670 N   0  0  0  0  0  0  0  0  0  0  0  0
    9.5110  -17.6759   22.7298 C   0  0  0  0  0  0  0  0  0  0  0  0
    8.7631  -18.7080   22.6827 O   0  0  0  0  0  0  0  0  0  0  0  0
    8.9926  -13.6024   20.9020 C   0  0  0  0  0  0  0  0  0  0  0  0
    8.8541  -12.5580   19.9980 C   0  0  0  0  0  0  0  0  0  0  0  0
   10.4420  -17.5638   23.7698 N   0  0  0  0  0  0  0  0  0  0  0  0
   10.7106  -18.7178   24.6557 C   0  0  1  0  0  0  0  0  0  0  0  0
   12.1643  -18.5901   25.0769 C   0  0  0  0  0  0  0  0  0  0  0  0
   12.3242  -17.5381   26.5176 S   0  0  0  0  0  0  0  0  0  0  0  0
    9.7700  -18.7011   25.7795 C   0  0  0  0  0  0  0  0  0  0  0  0
    9.3354  -17.5649   26.1747 O   0  0  0  0  0  0  0  0  0  0  0  0
    3.8997  -22.5557   23.7616 N   0  0  0  0  0  0  0  0  0  0  0  0
    4.0859  -23.0847   25.0797 C   0  0  0  0  0  0  0  0  0  0  0  0
    3.1882  -23.8468   25.5888 N   0  0  0  0  0  0  0  0  0  0  0  0
    5.2390  -22.7880   25.8439 N   0  0  0  0  0  0  0  0  0  0  0  0
    6.3168  -21.9280   25.2857 C   0  0  0  0  0  0  0  0  0  0  0  0
    6.4414  -20.7920   26.2178 C   0  0  0  0  0  0  0  0  0  0  0  0
    7.3536  -20.7762   27.3428 C   0  0  0  0  0  0  0  0  0  0  0  0
    8.3448  -19.7234   27.6228 C   0  0  2  0  0  0  0  0  0  0  0  0
    9.3027  -19.8289   26.4601 N   0  0  0  0  0  0  0  0  0  0  0  0
    9.1988  -20.0065   28.7760 C   0  0  0  0  0  0  0  0  0  0  0  0
   10.3644  -20.4058   28.6829 O   0  0  0  0  0  0  0  0  0  0  0  0
    8.7149  -19.8299   30.0734 O   0  0  0  0  0  0  0  0  0  0  0  0
  2 12  2  0
  2  1  1  0
  3  2  1  0
  4  5  1  0
  4  3  2  0
  5 11  2  0
  6  5  1  0
  7  8  1  6
  7  6  1  0
  9  7  1  0
 10  9  2  0
 11 12  1  0
 13  9  1  0
 14 17  1  0
 14 13  1  0
 14 15  1  1
 16 15  1  0
 17 18  2  0
 20 22  1  0
 20 19  1  0
 21 20  2  0
 23 24  1  0
 23 22  1  0
 26 25  1  6
 25 24  1  0
 27 26  1  0
 27 17  1  0
 28 30  1  0
 28 26  1  0
 29 28  2  0
M  END
$$$$
