YCR.pdb
     RDKit          3D

 30 30  0  0  1  0  0  0  0  0999 V2000
    5.2775  -10.4104   27.2998 O   0  0  0  0  0  0  0  0  0  0  0  0
    5.9724  -11.4829   26.7850 C   0  0  0  0  0  0  0  0  0  0  0  0
    6.4749  -12.4468   27.6561 C   0  0  0  0  0  0  0  0  0  0  0  0
    7.1623  -13.5098   27.1625 C   0  0  0  0  0  0  0  0  0  0  0  0
    7.3991  -13.6976   25.8175 C   0  0  0  0  0  0  0  0  0  0  0  0
    8.1393  -14.8326   25.2799 C   0  0  0  0  0  0  0  0  0  0  0  0
    7.4276  -15.6537   24.2508 C   0  0  2  0  0  0  0  0  0  0  0  0
    6.5795  -16.5962   25.0021 N   0  0  0  0  0  0  0  0  0  0  0  0
    8.3546  -16.5124   23.4462 C   0  0  0  0  0  0  0  0  0  0  0  0
    8.6852  -17.6398   23.9427 O   0  0  0  0  0  0  0  0  0  0  0  0
    6.9039  -12.7478   24.9583 C   0  0  0  0  0  0  0  0  0  0  0  0
    6.1973  -11.6498   25.4299 C   0  0  0  0  0  0  0  0  0  0  0  0
    8.8699  -16.1481   22.1961 N   0  0  0  0  0  0  0  0  0  0  0  0
    9.8126  -17.0436   21.4902 C   0  0  1  0  0  0  0  0  0  0  0  0
    9.8620  -16.5483   20.0552 C   0  0  0  0  0  0  0  0  0  0  0  0
    8.2571  -16.6892   19.2727 S   0  0  0  0  0  0  0  0  0  0  0  0
   11.1126  -17.0161   22.1661 C   0  0  0  0  0  0  0  0  0  0  0  0
   11.6037  -15.8734   22.4648 O   0  0  0  0  0  0  0  0  0  0  0  0
   11.4870  -18.4584   28.8117 N   0  0  0  0  0  0  0  0  0  0  0  0
   11.6275  -19.8527   28.5152 C   0  0  0  0  0  0  0  0  0  0  0  0
   11.9934  -20.6630   29.4400 N   0  0  0  0  0  0  0  0  0  0  0  0
   11.3745  -20.3669   27.2217 N   0  0  0  0  0  0  0  0  0  0  0  0
   11.1443  -19.4494   26.0736 C   0  0  0  0  0  0  0  0  0  0  0  0
   12.4824  -18.9874   25.6599 C   0  0  0  0  0  0  0  0  0  0  0  0
   12.9957  -19.1261   24.3127 C   0  0  0  0  0  0  0  0  0  0  0  0
   13.1311  -18.0332   23.3345 C   0  0  2  0  0  0  0  0  0  0  0  0
   11.8664  -18.1398   22.5161 N   0  0  0  0  0  0  0  0  0  0  0  0
   14.1820  -18.2547   22.3416 C   0  0  0  0  0  0  0  0  0  0  0  0
   13.9726  -18.7161   21.2146 O   0  0  0  0  0  0  0  0  0  0  0  0
   15.5099  -17.9421   22.6371 O   0  0  0  0  0  0  0  0  0  0  0  0
  2 12  2  0
  2  1  1  0
  3  2  1  0
  4  5  1  0
  4  3  2  0
  5 11  2  0
  6  5  1  0
  7  8  1  1
  7  6  1  0
  9  7  1  0
 10  9  2  0
 11 12  1  0
 13  9  1  0
 14 17  1  0
 14 13  1  0
 14 15  1  6
 16 15  1  0
 17 18  2  0
 20 22  1  0
 20 19  1  0
 21 20  2  0
 23 24  1  0
 23 22  1  0
 26 25  1  1
 25 24  1  0
 27 26  1  0
 27 17  1  0
 28 30  1  0
 28 26  1  0
 29 28  2  0
M  END
$$$$
