YCR.pdb
     RDKit          3D

 30 30  0  0  1  0  0  0  0  0999 V2000
   10.3913  -14.1832   31.0686 O   0  0  0  0  0  0  0  0  0  0  0  0
   10.0326  -14.4430   29.7641 C   0  0  0  0  0  0  0  0  0  0  0  0
    9.1242  -13.5990   29.1294 C   0  0  0  0  0  0  0  0  0  0  0  0
    8.7610  -13.8431   27.8431 C   0  0  0  0  0  0  0  0  0  0  0  0
    9.2494  -14.9026   27.1085 C   0  0  0  0  0  0  0  0  0  0  0  0
    8.8618  -15.1744   25.7297 C   0  0  0  0  0  0  0  0  0  0  0  0
    7.6770  -16.0697   25.5441 C   0  0  2  0  0  0  0  0  0  0  0  0
    7.8658  -17.1892   26.4839 N   0  0  0  0  0  0  0  0  0  0  0  0
    7.6284  -16.6990   24.1855 C   0  0  0  0  0  0  0  0  0  0  0  0
    6.7993  -17.6527   24.0128 O   0  0  0  0  0  0  0  0  0  0  0  0
   10.1450  -15.7349   27.7335 C   0  0  0  0  0  0  0  0  0  0  0  0
   10.5369  -15.5136   29.0469 C   0  0  0  0  0  0  0  0  0  0  0  0
    8.4333  -16.3014   23.1108 N   0  0  0  0  0  0  0  0  0  0  0  0
    7.8903  -16.3014   21.7346 C   0  0  1  0  0  0  0  0  0  0  0  0
    6.6500  -15.4257   21.7763 C   0  0  0  0  0  0  0  0  0  0  0  0
    5.4658  -15.9319   20.5316 S   0  0  0  0  0  0  0  0  0  0  0  0
    8.9163  -15.8225   20.8040 C   0  0  0  0  0  0  0  0  0  0  0  0
    9.2661  -14.5949   20.8845 O   0  0  0  0  0  0  0  0  0  0  0  0
   15.5189  -15.9910   23.5894 N   0  0  0  0  0  0  0  0  0  0  0  0
   15.9280  -17.1453   22.8465 C   0  0  0  0  0  0  0  0  0  0  0  0
   17.1748  -17.4360   22.7639 N   0  0  0  0  0  0  0  0  0  0  0  0
   14.9906  -17.9803   22.1942 N   0  0  0  0  0  0  0  0  0  0  0  0
   13.5304  -17.7852   22.4004 C   0  0  0  0  0  0  0  0  0  0  0  0
   13.0032  -17.3287   21.1010 C   0  0  0  0  0  0  0  0  0  0  0  0
   11.6042  -17.0397   20.8618 C   0  0  0  0  0  0  0  0  0  0  0  0
   11.0416  -16.5325   19.5987 C   0  0  2  0  0  0  0  0  0  0  0  0
    9.5507  -16.5988   19.8302 N   0  0  0  0  0  0  0  0  0  0  0  0
   11.2356  -17.4316   18.4614 C   0  0  0  0  0  0  0  0  0  0  0  0
   10.4655  -18.3564   18.1809 O   0  0  0  0  0  0  0  0  0  0  0  0
   12.3363  -17.2752   17.6173 O   0  0  0  0  0  0  0  0  0  0  0  0
  2 12  2  0
  2  1  1  0
  3  2  1  0
  4  5  1  0
  4  3  2  0
  5 11  2  0
  6  5  1  0
  7  8  1  1
  7  6  1  0
  9  7  1  0
 10  9  2  0
 11 12  1  0
 13  9  1  0
 14 17  1  0
 14 13  1  0
 14 15  1  1
 16 15  1  0
 17 18  2  0
 20 22  1  0
 20 19  1  0
 21 20  2  0
 23 24  1  0
 23 22  1  0
 26 25  1  1
 25 24  1  0
 27 26  1  0
 27 17  1  0
 28 30  1  0
 28 26  1  0
 29 28  2  0
M  END
$$$$
