YCR.pdb
     RDKit          3D

 30 30  0  0  1  0  0  0  0  0999 V2000
    5.5031  -10.4065   28.2057 O   0  0  0  0  0  0  0  0  0  0  0  0
    6.0773  -11.2752   27.3035 C   0  0  0  0  0  0  0  0  0  0  0  0
    5.5104  -11.4118   26.0384 C   0  0  0  0  0  0  0  0  0  0  0  0
    6.0659  -12.2649   25.1385 C   0  0  0  0  0  0  0  0  0  0  0  0
    7.1852  -13.0232   25.4079 C   0  0  0  0  0  0  0  0  0  0  0  0
    7.7849  -13.9440   24.4499 C   0  0  0  0  0  0  0  0  0  0  0  0
    6.8737  -14.9858   23.8804 C   0  0  2  0  0  0  0  0  0  0  0  0
    6.7103  -16.0004   24.9368 N   0  0  0  0  0  0  0  0  0  0  0  0
    7.4768  -15.7174   22.7206 C   0  0  0  0  0  0  0  0  0  0  0  0
    8.0611  -16.8239   22.9679 O   0  0  0  0  0  0  0  0  0  0  0  0
    7.7446  -12.8888   26.6547 C   0  0  0  0  0  0  0  0  0  0  0  0
    7.2019  -12.0261   27.5973 C   0  0  0  0  0  0  0  0  0  0  0  0
    7.4336  -15.2576   21.3987 N   0  0  0  0  0  0  0  0  0  0  0  0
    8.0578  -16.0481   20.3150 C   0  0  1  0  0  0  0  0  0  0  0  0
    7.8007  -15.2740   19.0337 C   0  0  0  0  0  0  0  0  0  0  0  0
    8.3051  -13.5641   19.2056 S   0  0  0  0  0  0  0  0  0  0  0  0
    9.4805  -16.2423   20.6084 C   0  0  0  0  0  0  0  0  0  0  0  0
   10.0871  -15.3174   21.2508 O   0  0  0  0  0  0  0  0  0  0  0  0
   11.3100  -20.6043   26.6940 N   0  0  0  0  0  0  0  0  0  0  0  0
   10.8455  -19.2552   26.5677 C   0  0  0  0  0  0  0  0  0  0  0  0
   10.3677  -18.6513   27.5938 N   0  0  0  0  0  0  0  0  0  0  0  0
   10.8967  -18.5637   25.3345 N   0  0  0  0  0  0  0  0  0  0  0  0
   11.5846  -19.1616   24.1589 C   0  0  0  0  0  0  0  0  0  0  0  0
   11.4612  -18.1662   23.0778 C   0  0  0  0  0  0  0  0  0  0  0  0
   11.7160  -18.4635   21.6833 C   0  0  0  0  0  0  0  0  0  0  0  0
   11.7024  -17.4819   20.5854 C   0  0  2  0  0  0  0  0  0  0  0  0
   10.2361  -17.3605   20.2449 N   0  0  0  0  0  0  0  0  0  0  0  0
   12.2865  -17.9791   19.3399 C   0  0  0  0  0  0  0  0  0  0  0  0
   13.4471  -17.7442   18.9867 O   0  0  0  0  0  0  0  0  0  0  0  0
   11.5304  -18.7671   18.4705 O   0  0  0  0  0  0  0  0  0  0  0  0
  2 12  2  0
  2  1  1  0
  3  2  1  0
  4  5  1  0
  4  3  2  0
  5 11  2  0
  6  5  1  0
  7  8  1  1
  7  6  1  0
  9  7  1  0
 10  9  2  0
 11 12  1  0
 13  9  1  0
 14 17  1  0
 14 13  1  0
 14 15  1  6
 16 15  1  0
 17 18  2  0
 20 22  1  0
 20 19  1  0
 21 20  2  0
 23 24  1  0
 23 22  1  0
 26 25  1  1
 25 24  1  0
 27 26  1  0
 27 17  1  0
 28 30  1  0
 28 26  1  0
 29 28  2  0
M  END
$$$$
