YCR.pdb
     RDKit          3D

 30 30  0  0  1  0  0  0  0  0999 V2000
   11.3908  -16.1071   31.3741 O   0  0  0  0  0  0  0  0  0  0  0  0
   10.4918  -15.9911   30.3366 C   0  0  0  0  0  0  0  0  0  0  0  0
   10.2170  -14.7291   29.8150 C   0  0  0  0  0  0  0  0  0  0  0  0
    9.3323  -14.5996   28.7919 C   0  0  0  0  0  0  0  0  0  0  0  0
    8.6730  -15.6687   28.2237 C   0  0  0  0  0  0  0  0  0  0  0  0
    7.7192  -15.5383   27.1289 C   0  0  0  0  0  0  0  0  0  0  0  0
    7.9418  -16.4364   25.9526 C   0  0  2  0  0  0  0  0  0  0  0  0
    9.4033  -16.5704   25.8178 N   0  0  0  0  0  0  0  0  0  0  0  0
    7.4803  -15.8325   24.6618 C   0  0  0  0  0  0  0  0  0  0  0  0
    6.2444  -15.9516   24.3700 O   0  0  0  0  0  0  0  0  0  0  0  0
    8.9436  -16.9131   28.7374 C   0  0  0  0  0  0  0  0  0  0  0  0
    9.8420  -17.0800   29.7824 C   0  0  0  0  0  0  0  0  0  0  0  0
    8.3217  -15.1540   23.7715 N   0  0  0  0  0  0  0  0  0  0  0  0
    7.8027  -14.6853   22.4677 C   0  0  1  0  0  0  0  0  0  0  0  0
    7.7955  -13.1683   22.5433 C   0  0  0  0  0  0  0  0  0  0  0  0
    8.1130  -12.6083   24.2147 S   0  0  0  0  0  0  0  0  0  0  0  0
    8.6407  -15.2155   21.3886 C   0  0  0  0  0  0  0  0  0  0  0  0
    9.6794  -15.8859   21.7166 O   0  0  0  0  0  0  0  0  0  0  0  0
    7.2744  -13.0296   13.2369 N   0  0  0  0  0  0  0  0  0  0  0  0
    7.9252  -14.2352   13.6549 C   0  0  0  0  0  0  0  0  0  0  0  0
    8.0544  -15.2054   12.8255 N   0  0  0  0  0  0  0  0  0  0  0  0
    8.4324  -14.3899   14.9665 N   0  0  0  0  0  0  0  0  0  0  0  0
    8.2375  -13.3230   15.9847 C   0  0  0  0  0  0  0  0  0  0  0  0
    8.8821  -13.8236   17.2130 C   0  0  0  0  0  0  0  0  0  0  0  0
    8.7210  -15.1755   17.7073 C   0  0  0  0  0  0  0  0  0  0  0  0
    9.2731  -15.6934   18.9708 C   0  0  2  0  0  0  0  0  0  0  0  0
    8.3991  -15.0513   20.0218 N   0  0  0  0  0  0  0  0  0  0  0  0
   10.6030  -15.1758   19.2915 C   0  0  0  0  0  0  0  0  0  0  0  0
   11.6492  -15.6432   18.8290 O   0  0  0  0  0  0  0  0  0  0  0  0
   10.7489  -14.0949   20.1626 O   0  0  0  0  0  0  0  0  0  0  0  0
  2 12  2  0
  2  1  1  0
  3  2  1  0
  4  5  1  0
  4  3  2  0
  5 11  2  0
  6  5  1  0
  7  8  1  6
  7  6  1  0
  9  7  1  0
 10  9  2  0
 11 12  1  0
 13  9  1  0
 14 17  1  0
 14 13  1  0
 14 15  1  1
 16 15  1  0
 17 18  2  0
 20 22  1  0
 20 19  1  0
 21 20  2  0
 23 24  1  0
 23 22  1  0
 26 25  1  6
 25 24  1  0
 27 26  1  0
 27 17  1  0
 28 30  1  0
 28 26  1  0
 29 28  2  0
M  END
$$$$
