YCR.pdb
     RDKit          3D

 30 30  0  0  1  0  0  0  0  0999 V2000
    7.1843  -13.2018   15.5278 O   0  0  0  0  0  0  0  0  0  0  0  0
    7.7284  -13.4588   16.7671 C   0  0  0  0  0  0  0  0  0  0  0  0
    8.2770  -14.7140   17.0201 C   0  0  0  0  0  0  0  0  0  0  0  0
    8.8169  -14.9817   18.2378 C   0  0  0  0  0  0  0  0  0  0  0  0
    8.8561  -14.0631   19.2651 C   0  0  0  0  0  0  0  0  0  0  0  0
    9.4293  -14.3433   20.5758 C   0  0  0  0  0  0  0  0  0  0  0  0
    8.7299  -15.3864   21.3899 C   0  0  2  0  0  0  0  0  0  0  0  0
    7.5182  -14.7378   21.9221 N   0  0  0  0  0  0  0  0  0  0  0  0
    9.5133  -15.8082   22.5951 C   0  0  0  0  0  0  0  0  0  0  0  0
    9.4028  -15.0911   23.6440 O   0  0  0  0  0  0  0  0  0  0  0  0
    8.3156  -12.8255   19.0163 C   0  0  0  0  0  0  0  0  0  0  0  0
    7.7562  -12.5197   17.7831 C   0  0  0  0  0  0  0  0  0  0  0  0
   10.3483  -16.9318   22.6304 N   0  0  0  0  0  0  0  0  0  0  0  0
   11.1136  -17.2519   23.8554 C   0  0  1  0  0  0  0  0  0  0  0  0
   10.0814  -17.4432   24.9532 C   0  0  0  0  0  0  0  0  0  0  0  0
   10.8573  -17.9770   26.4767 S   0  0  0  0  0  0  0  0  0  0  0  0
   11.9444  -18.4356   23.6178 C   0  0  0  0  0  0  0  0  0  0  0  0
   11.4644  -19.3600   22.8754 O   0  0  0  0  0  0  0  0  0  0  0  0
   13.9119  -14.3539   21.6670 N   0  0  0  0  0  0  0  0  0  0  0  0
   13.6005  -14.7637   20.3303 C   0  0  0  0  0  0  0  0  0  0  0  0
   13.7272  -13.9272   19.3659 N   0  0  0  0  0  0  0  0  0  0  0  0
   13.1518  -16.0735   20.0397 N   0  0  0  0  0  0  0  0  0  0  0  0
   14.1204  -17.1956   19.9148 C   0  0  0  0  0  0  0  0  0  0  0  0
   13.7913  -18.1280   21.0090 C   0  0  0  0  0  0  0  0  0  0  0  0
   14.5377  -18.2031   22.2480 C   0  0  0  0  0  0  0  0  0  0  0  0
   14.3452  -19.2159   23.2999 C   0  0  2  0  0  0  0  0  0  0  0  0
   13.2261  -18.6415   24.1357 N   0  0  0  0  0  0  0  0  0  0  0  0
   15.4533  -19.2990   24.2511 C   0  0  0  0  0  0  0  0  0  0  0  0
   16.3551  -20.1408   24.1796 O   0  0  0  0  0  0  0  0  0  0  0  0
   15.5402  -18.3989   25.3144 O   0  0  0  0  0  0  0  0  0  0  0  0
  2 12  2  0
  2  1  1  0
  3  2  1  0
  4  5  1  0
  4  3  2  0
  5 11  2  0
  6  5  1  0
  7  8  1  1
  7  6  1  0
  9  7  1  0
 10  9  2  0
 11 12  1  0
 13  9  1  0
 14 17  1  0
 14 13  1  0
 14 15  1  1
 16 15  1  0
 17 18  2  0
 20 22  1  0
 20 19  1  0
 21 20  2  0
 23 24  1  0
 23 22  1  0
 26 25  1  6
 25 24  1  0
 27 26  1  0
 27 17  1  0
 28 30  1  0
 28 26  1  0
 29 28  2  0
M  END
$$$$
