IKH.pdb
     RDKit          3D

 28 28  0  0  1  0  0  0  0  0999 V2000
    7.8955  -11.5641   18.8460 C   0  0  0  0  0  0  0  0  0  0  0  0
    8.1754  -12.9150   18.2814 C   0  0  0  0  0  0  0  0  0  0  0  0
    8.3000  -13.9895   19.3735 C   0  0  2  0  0  0  0  0  0  0  0  0
    9.5208  -13.6007   20.1738 C   0  0  0  0  0  0  0  0  0  0  0  0
    8.6134  -15.2720   18.6281 C   0  0  2  0  0  0  0  0  0  0  0  0
    7.4592  -15.4994   17.7405 N   0  0  0  0  0  0  0  0  0  0  0  0
    8.7043  -16.4563   19.5027 C   0  0  0  0  0  0  0  0  0  0  0  0
    7.7554  -16.7491   20.3088 O   0  0  0  0  0  0  0  0  0  0  0  0
    9.7892  -17.3629   19.5543 N   0  0  0  0  0  0  0  0  0  0  0  0
    9.9637  -18.3641   20.5802 C   0  0  1  0  0  0  0  0  0  0  0  0
    9.9022  -19.7713   19.9773 C   0  0  0  0  0  0  0  0  0  0  0  0
    8.6325  -20.0051   19.2419 C   0  0  0  0  0  0  0  0  0  0  0  0
    8.5954  -21.3614   18.6018 C   0  0  0  0  0  0  0  0  0  0  0  0
    7.3015  -21.5301   17.8463 C   0  0  0  0  0  0  0  0  0  0  0  0
    7.2112  -22.8576   17.2459 N   0  0  0  0  0  0  0  0  0  0  0  0
   11.1711  -18.1646   21.3841 C   0  0  0  0  0  0  0  0  0  0  0  0
   12.3099  -18.1756   20.8401 O   0  0  0  0  0  0  0  0  0  0  0  0
   11.1492  -17.9516   22.7878 N   0  0  0  0  0  0  0  0  0  0  0  0
   12.3666  -17.8061   23.5746 C   0  0  1  0  0  0  0  0  0  0  0  0
   12.7187  -16.3739   23.7984 C   0  0  0  0  0  0  0  0  0  0  0  0
   13.1204  -15.7467   22.5218 C   0  0  0  0  0  0  0  0  0  0  0  0
   12.3252  -15.0270   21.6543 C   0  0  0  0  0  0  0  0  0  0  0  0
   13.1105  -14.6711   20.6273 N   0  0  0  0  0  0  0  0  0  0  0  0
   14.3638  -15.1537   20.8441 C   0  0  0  0  0  0  0  0  0  0  0  0
   14.3770  -15.8149   22.0049 N   0  0  0  0  0  0  0  0  0  0  0  0
   12.3211  -18.6273   24.8019 C   0  0  0  0  0  0  0  0  0  0  0  0
   11.1470  -19.3800   25.0165 O   0  0  0  0  0  0  0  0  0  0  0  0
   13.1987  -18.7296   25.6645 O   0  0  0  0  0  0  0  0  0  0  0  0
  2  1  1  0
  3  2  1  0
  3  5  1  0
  3  4  1  1
  5  6  1  6
  7  8  2  0
  7  5  1  0
  9  7  1  0
 10  9  1  0
 11 12  1  0
 10 11  1  6
 12 13  1  0
 13 14  1  0
 14 15  1  0
 16 17  2  0
 16 10  1  0
 18 16  1  0
 19 20  1  1
 19 18  1  0
 20 21  1  0
 21 25  1  0
 21 22  2  0
 22 23  1  0
 24 23  1  0
 25 24  2  0
 26 19  1  0
 27 26  1  0
 28 26  2  0
M  END
$$$$
