IKH.pdb
     RDKit          3D

 28 28  0  0  1  0  0  0  0  0999 V2000
    6.2689  -11.7207   28.1837 C   0  0  0  0  0  0  0  0  0  0  0  0
    5.7442  -12.7966   27.2953 C   0  0  0  0  0  0  0  0  0  0  0  0
    6.8131  -13.3260   26.3258 C   0  0  2  0  0  0  0  0  0  0  0  0
    7.2387  -12.1262   25.5124 C   0  0  0  0  0  0  0  0  0  0  0  0
    6.0731  -14.2795   25.4084 C   0  0  2  0  0  0  0  0  0  0  0  0
    5.7268  -15.4395   26.2486 N   0  0  0  0  0  0  0  0  0  0  0  0
    6.9015  -14.7991   24.3041 C   0  0  0  0  0  0  0  0  0  0  0  0
    7.6415  -15.8291   24.4696 O   0  0  0  0  0  0  0  0  0  0  0  0
    6.9750  -14.2544   23.0005 N   0  0  0  0  0  0  0  0  0  0  0  0
    7.7779  -14.8046   21.9338 C   0  0  1  0  0  0  0  0  0  0  0  0
    7.6905  -13.9243   20.6828 C   0  0  0  0  0  0  0  0  0  0  0  0
    8.3246  -14.5699   19.5044 C   0  0  0  0  0  0  0  0  0  0  0  0
    8.1528  -13.7546   18.2568 C   0  0  0  0  0  0  0  0  0  0  0  0
    8.6190  -14.5497   17.0636 C   0  0  0  0  0  0  0  0  0  0  0  0
    8.4492  -13.7926   15.8270 N   0  0  0  0  0  0  0  0  0  0  0  0
    9.1647  -15.0619   22.3270 C   0  0  0  0  0  0  0  0  0  0  0  0
    9.5983  -14.6581   23.4413 O   0  0  0  0  0  0  0  0  0  0  0  0
   10.0919  -15.7613   21.5099 N   0  0  0  0  0  0  0  0  0  0  0  0
   11.1107  -16.6431   22.0637 C   0  0  1  0  0  0  0  0  0  0  0  0
   10.5262  -17.6651   22.9797 C   0  0  0  0  0  0  0  0  0  0  0  0
   10.5858  -17.1851   24.3764 C   0  0  0  0  0  0  0  0  0  0  0  0
   10.8188  -15.8969   24.8111 C   0  0  0  0  0  0  0  0  0  0  0  0
   10.7995  -15.9400   26.1512 N   0  0  0  0  0  0  0  0  0  0  0  0
   10.5609  -17.2195   26.5466 C   0  0  0  0  0  0  0  0  0  0  0  0
   10.4288  -17.9890   25.4626 N   0  0  0  0  0  0  0  0  0  0  0  0
   11.9855  -17.1924   21.0075 C   0  0  0  0  0  0  0  0  0  0  0  0
   13.0903  -17.9586   21.4357 O   0  0  0  0  0  0  0  0  0  0  0  0
   11.8580  -17.0557   19.7868 O   0  0  0  0  0  0  0  0  0  0  0  0
  2  1  1  0
  3  2  1  0
  3  5  1  0
  3  4  1  6
  5  6  1  1
  7  8  2  0
  7  5  1  0
  9  7  1  0
 10  9  1  0
 11 12  1  0
 10 11  1  6
 12 13  1  0
 13 14  1  0
 14 15  1  0
 16 17  2  0
 16 10  1  0
 18 16  1  0
 19 20  1  6
 19 18  1  0
 20 21  1  0
 21 25  1  0
 21 22  2  0
 22 23  1  0
 24 23  1  0
 25 24  2  0
 26 19  1  0
 27 26  1  0
 28 26  2  0
M  END
$$$$
