IKH.pdb
     RDKit          3D

 28 28  0  0  1  0  0  0  0  0999 V2000
    6.4620  -12.4245   28.3288 C   0  0  0  0  0  0  0  0  0  0  0  0
    5.8670  -13.3874   27.3589 C   0  0  0  0  0  0  0  0  0  0  0  0
    6.8864  -13.8679   26.3136 C   0  0  2  0  0  0  0  0  0  0  0  0
    7.4115  -12.6086   25.6649 C   0  0  0  0  0  0  0  0  0  0  0  0
    6.0674  -14.6223   25.2847 C   0  0  2  0  0  0  0  0  0  0  0  0
    5.5635  -15.8161   25.9863 N   0  0  0  0  0  0  0  0  0  0  0  0
    6.8617  -15.1154   24.1438 C   0  0  0  0  0  0  0  0  0  0  0  0
    7.4704  -16.2386   24.2068 O   0  0  0  0  0  0  0  0  0  0  0  0
    7.0375  -14.4462   22.9098 N   0  0  0  0  0  0  0  0  0  0  0  0
    7.8642  -14.9341   21.8311 C   0  0  1  0  0  0  0  0  0  0  0  0
    7.8254  -13.9689   20.6418 C   0  0  0  0  0  0  0  0  0  0  0  0
    8.5647  -14.5032   19.4690 C   0  0  0  0  0  0  0  0  0  0  0  0
    8.4289  -13.6156   18.2671 C   0  0  0  0  0  0  0  0  0  0  0  0
    9.0268  -14.2980   17.0629 C   0  0  0  0  0  0  0  0  0  0  0  0
    8.8458  -13.4942   15.8579 N   0  0  0  0  0  0  0  0  0  0  0  0
    9.2353  -15.2387   22.2450 C   0  0  0  0  0  0  0  0  0  0  0  0
    9.8969  -14.4071   22.9258 O   0  0  0  0  0  0  0  0  0  0  0  0
    9.8983  -16.4519   21.9210 N   0  0  0  0  0  0  0  0  0  0  0  0
   11.2814  -16.7107   22.2982 C   0  0  1  0  0  0  0  0  0  0  0  0
   11.4095  -17.9306   23.1470 C   0  0  0  0  0  0  0  0  0  0  0  0
   11.0350  -17.6173   24.5420 C   0  0  0  0  0  0  0  0  0  0  0  0
   11.1400  -16.4018   25.1857 C   0  0  0  0  0  0  0  0  0  0  0  0
   10.7002  -16.5967   26.4373 N   0  0  0  0  0  0  0  0  0  0  0  0
   10.3293  -17.8982   26.5755 C   0  0  0  0  0  0  0  0  0  0  0  0
   10.5321  -18.5304   25.4163 N   0  0  0  0  0  0  0  0  0  0  0  0
   12.1787  -16.6807   21.1249 C   0  0  0  0  0  0  0  0  0  0  0  0
   11.5664  -16.5196   19.8639 O   0  0  0  0  0  0  0  0  0  0  0  0
   13.4094  -16.7811   21.1237 O   0  0  0  0  0  0  0  0  0  0  0  0
  2  1  1  0
  3  2  1  0
  3  5  1  0
  3  4  1  6
  5  6  1  1
  7  8  2  0
  7  5  1  0
  9  7  1  0
 10  9  1  0
 11 12  1  0
 10 11  1  6
 12 13  1  0
 13 14  1  0
 14 15  1  0
 16 17  2  0
 16 10  1  0
 18 16  1  0
 19 20  1  6
 19 18  1  0
 20 21  1  0
 21 25  1  0
 21 22  2  0
 22 23  1  0
 24 23  1  0
 25 24  2  0
 26 19  1  0
 27 26  1  0
 28 26  2  0
M  END
$$$$
