IKH.pdb
     RDKit          3D

 28 28  0  0  1  0  0  0  0  0999 V2000
    7.8995  -11.6996   18.8886 C   0  0  0  0  0  0  0  0  0  0  0  0
    7.4916  -13.0746   19.2950 C   0  0  0  0  0  0  0  0  0  0  0  0
    8.5748  -13.7836   20.1237 C   0  0  2  0  0  0  0  0  0  0  0  0
    9.7375  -13.9711   19.1776 C   0  0  0  0  0  0  0  0  0  0  0  0
    7.9971  -15.1497   20.4377 C   0  0  2  0  0  0  0  0  0  0  0  0
    6.7323  -14.8850   21.1460 N   0  0  0  0  0  0  0  0  0  0  0  0
    8.8301  -15.9457   21.3587 C   0  0  0  0  0  0  0  0  0  0  0  0
    8.9662  -15.6001   22.5826 O   0  0  0  0  0  0  0  0  0  0  0  0
    9.5396  -17.1225   21.0218 N   0  0  0  0  0  0  0  0  0  0  0  0
   10.4273  -17.8217   21.9208 C   0  0  1  0  0  0  0  0  0  0  0  0
   10.1103  -19.3206   21.9354 C   0  0  0  0  0  0  0  0  0  0  0  0
   10.9201  -20.0494   22.9458 C   0  0  0  0  0  0  0  0  0  0  0  0
   10.7449  -21.5356   22.8405 C   0  0  0  0  0  0  0  0  0  0  0  0
   11.5514  -22.2184   23.9160 C   0  0  0  0  0  0  0  0  0  0  0  0
   10.6831  -22.8370   24.9132 N   0  0  0  0  0  0  0  0  0  0  0  0
   11.8435  -17.5637   21.6524 C   0  0  0  0  0  0  0  0  0  0  0  0
   12.2525  -17.4151   20.4677 O   0  0  0  0  0  0  0  0  0  0  0  0
   12.8270  -17.4656   22.6719 N   0  0  0  0  0  0  0  0  0  0  0  0
   14.0182  -16.6389   22.5307 C   0  0  1  0  0  0  0  0  0  0  0  0
   13.6854  -15.2479   22.1071 C   0  0  0  0  0  0  0  0  0  0  0  0
   14.0424  -15.0533   20.6861 C   0  0  0  0  0  0  0  0  0  0  0  0
   14.5920  -15.9802   19.8249 C   0  0  0  0  0  0  0  0  0  0  0  0
   14.7585  -15.3544   18.6508 N   0  0  0  0  0  0  0  0  0  0  0  0
   14.3254  -14.0705   18.7714 C   0  0  0  0  0  0  0  0  0  0  0  0
   13.8846  -13.8788   20.0179 N   0  0  0  0  0  0  0  0  0  0  0  0
   14.8850  -16.7278   23.7238 C   0  0  0  0  0  0  0  0  0  0  0  0
   14.3482  -17.3899   24.8482 O   0  0  0  0  0  0  0  0  0  0  0  0
   16.0314  -16.2859   23.8481 O   0  0  0  0  0  0  0  0  0  0  0  0
  2  1  1  0
  3  2  1  0
  3  5  1  0
  3  4  1  6
  5  6  1  1
  7  8  2  0
  7  5  1  0
  9  7  1  0
 10  9  1  0
 11 12  1  0
 10 11  1  6
 12 13  1  0
 13 14  1  0
 14 15  1  0
 16 17  2  0
 16 10  1  0
 18 16  1  0
 19 20  1  1
 19 18  1  0
 20 21  1  0
 21 25  1  0
 21 22  2  0
 22 23  1  0
 24 23  1  0
 25 24  2  0
 26 19  1  0
 27 26  1  0
 28 26  2  0
M  END
$$$$
