IKH.pdb
     RDKit          3D

 28 28  0  0  1  0  0  0  0  0999 V2000
    5.9594  -11.4650   28.0604 C   0  0  0  0  0  0  0  0  0  0  0  0
    5.5328  -12.6586   27.2760 C   0  0  0  0  0  0  0  0  0  0  0  0
    6.6782  -13.2436   26.4341 C   0  0  2  0  0  0  0  0  0  0  0  0
    7.1258  -12.1144   25.5359 C   0  0  0  0  0  0  0  0  0  0  0  0
    6.0271  -14.3048   25.5691 C   0  0  2  0  0  0  0  0  0  0  0  0
    5.6427  -15.3829   26.4972 N   0  0  0  0  0  0  0  0  0  0  0  0
    6.9450  -14.9105   24.5862 C   0  0  0  0  0  0  0  0  0  0  0  0
    7.8028  -15.7885   24.9460 O   0  0  0  0  0  0  0  0  0  0  0  0
    6.9871  -14.6133   23.2036 N   0  0  0  0  0  0  0  0  0  0  0  0
    8.0357  -15.0469   22.3106 C   0  0  1  0  0  0  0  0  0  0  0  0
    7.9058  -14.3559   20.9493 C   0  0  0  0  0  0  0  0  0  0  0  0
    8.7908  -14.9722   19.9272 C   0  0  0  0  0  0  0  0  0  0  0  0
    8.6637  -14.2974   18.5934 C   0  0  0  0  0  0  0  0  0  0  0  0
    9.5491  -14.9900   17.5886 C   0  0  0  0  0  0  0  0  0  0  0  0
    9.5670  -14.2711   16.3182 N   0  0  0  0  0  0  0  0  0  0  0  0
    9.3775  -14.8945   22.8765 C   0  0  0  0  0  0  0  0  0  0  0  0
    9.5920  -14.0564   23.7955 O   0  0  0  0  0  0  0  0  0  0  0  0
   10.4981  -15.6535   22.4466 N   0  0  0  0  0  0  0  0  0  0  0  0
   11.4069  -16.3026   23.3820 C   0  0  1  0  0  0  0  0  0  0  0  0
   10.6756  -17.1048   24.4051 C   0  0  0  0  0  0  0  0  0  0  0  0
   10.6183  -16.3634   25.6824 C   0  0  0  0  0  0  0  0  0  0  0  0
   10.0948  -16.7989   26.8821 C   0  0  0  0  0  0  0  0  0  0  0  0
   10.2458  -15.7884   27.7505 N   0  0  0  0  0  0  0  0  0  0  0  0
   10.8473  -14.7475   27.1137 C   0  0  0  0  0  0  0  0  0  0  0  0
   11.0787  -15.0935   25.8443 N   0  0  0  0  0  0  0  0  0  0  0  0
   12.4791  -17.0350   22.6773 C   0  0  0  0  0  0  0  0  0  0  0  0
   13.8003  -16.5941   22.9025 O   0  0  0  0  0  0  0  0  0  0  0  0
   12.3483  -17.9938   21.9101 O   0  0  0  0  0  0  0  0  0  0  0  0
  2  1  1  0
  3  2  1  0
  3  5  1  0
  3  4  1  6
  5  6  1  1
  7  8  2  0
  7  5  1  0
  9  7  1  0
 10  9  1  0
 11 12  1  0
 10 11  1  6
 12 13  1  0
 13 14  1  0
 14 15  1  0
 16 17  2  0
 16 10  1  0
 18 16  1  0
 19 20  1  6
 19 18  1  0
 20 21  1  0
 21 25  1  0
 21 22  2  0
 22 23  1  0
 24 23  1  0
 25 24  2  0
 26 19  1  0
 27 26  1  0
 28 26  2  0
M  END
$$$$
