IKH.pdb
     RDKit          3D

 28 28  0  0  1  0  0  0  0  0999 V2000
    7.7800  -12.0729   19.7843 C   0  0  0  0  0  0  0  0  0  0  0  0
    7.2563  -13.4679   19.7391 C   0  0  0  0  0  0  0  0  0  0  0  0
    7.8898  -14.3642   20.8153 C   0  0  2  0  0  0  0  0  0  0  0  0
    9.3462  -14.4762   20.4300 C   0  0  0  0  0  0  0  0  0  0  0  0
    7.2451  -15.7229   20.6235 C   0  0  2  0  0  0  0  0  0  0  0  0
    5.7979  -15.4936   20.7793 N   0  0  0  0  0  0  0  0  0  0  0  0
    7.6232  -16.7069   21.6553 C   0  0  0  0  0  0  0  0  0  0  0  0
    7.2416  -16.5635   22.8676 O   0  0  0  0  0  0  0  0  0  0  0  0
    8.4084  -17.8646   21.4435 N   0  0  0  0  0  0  0  0  0  0  0  0
    8.7726  -18.8006   22.4809 C   0  0  1  0  0  0  0  0  0  0  0  0
    8.4888  -20.2386   22.0348 C   0  0  0  0  0  0  0  0  0  0  0  0
    8.8561  -21.2272   23.0815 C   0  0  0  0  0  0  0  0  0  0  0  0
    8.6845  -22.6395   22.6054 C   0  0  0  0  0  0  0  0  0  0  0  0
    9.0121  -23.5950   23.7248 C   0  0  0  0  0  0  0  0  0  0  0  0
    7.8386  -24.3699   24.1165 N   0  0  0  0  0  0  0  0  0  0  0  0
   10.1488  -18.6348   22.9528 C   0  0  0  0  0  0  0  0  0  0  0  0
   11.0759  -18.3700   22.1385 O   0  0  0  0  0  0  0  0  0  0  0  0
   10.5277  -18.7561   24.3159 N   0  0  0  0  0  0  0  0  0  0  0  0
   11.6338  -18.0009   24.8891 C   0  0  1  0  0  0  0  0  0  0  0  0
   11.5764  -16.5576   24.5169 C   0  0  0  0  0  0  0  0  0  0  0  0
   12.4547  -16.2995   23.3565 C   0  0  0  0  0  0  0  0  0  0  0  0
   13.2850  -17.1967   22.7173 C   0  0  0  0  0  0  0  0  0  0  0  0
   13.8964  -16.5153   21.7376 N   0  0  0  0  0  0  0  0  0  0  0  0
   13.4621  -15.2264   21.7610 C   0  0  0  0  0  0  0  0  0  0  0  0
   12.5772  -15.0868   22.7521 N   0  0  0  0  0  0  0  0  0  0  0  0
   11.7734  -18.2576   26.3373 C   0  0  0  0  0  0  0  0  0  0  0  0
   10.6763  -17.9045   27.1513 O   0  0  0  0  0  0  0  0  0  0  0  0
   12.7464  -18.7486   26.9179 O   0  0  0  0  0  0  0  0  0  0  0  0
  2  1  1  0
  3  2  1  0
  3  5  1  0
  3  4  1  6
  5  6  1  1
  7  8  2  0
  7  5  1  0
  9  7  1  0
 10  9  1  0
 11 12  1  0
 10 11  1  6
 12 13  1  0
 13 14  1  0
 14 15  1  0
 16 17  2  0
 16 10  1  0
 18 16  1  0
 19 20  1  1
 19 18  1  0
 20 21  1  0
 21 25  1  0
 21 22  2  0
 22 23  1  0
 24 23  1  0
 25 24  2  0
 26 19  1  0
 27 26  1  0
 28 26  2  0
M  END
$$$$
