IKH.pdb
     RDKit          3D

 28 28  0  0  1  0  0  0  0  0999 V2000
    6.6920  -11.9613   28.2089 C   0  0  0  0  0  0  0  0  0  0  0  0
    6.0435  -12.9164   27.2658 C   0  0  0  0  0  0  0  0  0  0  0  0
    7.0335  -13.4807   26.2342 C   0  0  2  0  0  0  0  0  0  0  0  0
    7.4988  -12.2849   25.4369 C   0  0  0  0  0  0  0  0  0  0  0  0
    6.1950  -14.3570   25.3244 C   0  0  2  0  0  0  0  0  0  0  0  0
    5.7737  -15.4957   26.1593 N   0  0  0  0  0  0  0  0  0  0  0  0
    6.9509  -14.9282   24.1939 C   0  0  0  0  0  0  0  0  0  0  0  0
    7.4105  -16.1205   24.2495 O   0  0  0  0  0  0  0  0  0  0  0  0
    7.2432  -14.2664   22.9780 N   0  0  0  0  0  0  0  0  0  0  0  0
    8.0908  -14.8073   21.9416 C   0  0  1  0  0  0  0  0  0  0  0  0
    7.7994  -14.1311   20.5980 C   0  0  0  0  0  0  0  0  0  0  0  0
    8.5781  -14.7410   19.4893 C   0  0  0  0  0  0  0  0  0  0  0  0
    8.3091  -14.0667   18.1764 C   0  0  0  0  0  0  0  0  0  0  0  0
    9.0464  -14.7872   17.0761 C   0  0  0  0  0  0  0  0  0  0  0  0
    8.7897  -14.1704   15.7782 N   0  0  0  0  0  0  0  0  0  0  0  0
    9.5151  -14.7658   22.2785 C   0  0  0  0  0  0  0  0  0  0  0  0
   10.1221  -13.6618   22.3532 O   0  0  0  0  0  0  0  0  0  0  0  0
   10.2914  -15.9264   22.5370 N   0  0  0  0  0  0  0  0  0  0  0  0
   10.8817  -16.1965   23.8412 C   0  0  1  0  0  0  0  0  0  0  0  0
    9.8719  -16.1241   24.9367 C   0  0  0  0  0  0  0  0  0  0  0  0
   10.5338  -16.2993   26.2466 C   0  0  0  0  0  0  0  0  0  0  0  0
   11.8836  -16.4448   26.4913 C   0  0  0  0  0  0  0  0  0  0  0  0
   12.0145  -16.5908   27.8178 N   0  0  0  0  0  0  0  0  0  0  0  0
   10.7814  -16.5383   28.3898 C   0  0  0  0  0  0  0  0  0  0  0  0
    9.8680  -16.3596   27.4315 N   0  0  0  0  0  0  0  0  0  0  0  0
   11.6859  -17.4357   23.8267 C   0  0  0  0  0  0  0  0  0  0  0  0
   10.9913  -18.6381   23.5763 O   0  0  0  0  0  0  0  0  0  0  0  0
   12.9028  -17.5379   24.0099 O   0  0  0  0  0  0  0  0  0  0  0  0
  2  1  1  0
  3  2  1  0
  3  5  1  0
  3  4  1  6
  5  6  1  1
  7  8  2  0
  7  5  1  0
  9  7  1  0
 10  9  1  0
 11 12  1  0
 10 11  1  6
 12 13  1  0
 13 14  1  0
 14 15  1  0
 16 17  2  0
 16 10  1  0
 18 16  1  0
 19 20  1  1
 19 18  1  0
 20 21  1  0
 21 25  1  0
 21 22  2  0
 22 23  1  0
 24 23  1  0
 25 24  2  0
 26 19  1  0
 27 26  1  0
 28 26  2  0
M  END
$$$$
