IKH.pdb
     RDKit          3D

 28 28  0  0  1  0  0  0  0  0999 V2000
    6.9986  -11.9881   28.1076 C   0  0  0  0  0  0  0  0  0  0  0  0
    6.3324  -12.9864   27.2235 C   0  0  0  0  0  0  0  0  0  0  0  0
    7.3230  -13.6756   26.2713 C   0  0  2  0  0  0  0  0  0  0  0  0
    7.8728  -12.5684   25.4030 C   0  0  0  0  0  0  0  0  0  0  0  0
    6.4688  -14.5770   25.4017 C   0  0  2  0  0  0  0  0  0  0  0  0
    5.9045  -15.5831   26.3188 N   0  0  0  0  0  0  0  0  0  0  0  0
    7.2391  -15.3236   24.3893 C   0  0  0  0  0  0  0  0  0  0  0  0
    7.7079  -16.4850   24.6488 O   0  0  0  0  0  0  0  0  0  0  0  0
    7.5365  -14.8738   23.0814 N   0  0  0  0  0  0  0  0  0  0  0  0
    8.3581  -15.5976   22.1401 C   0  0  1  0  0  0  0  0  0  0  0  0
    8.1162  -15.0943   20.7133 C   0  0  0  0  0  0  0  0  0  0  0  0
    8.7770  -15.9576   19.7006 C   0  0  0  0  0  0  0  0  0  0  0  0
    8.5043  -15.4916   18.3009 C   0  0  0  0  0  0  0  0  0  0  0  0
    9.1556  -16.4312   17.3180 C   0  0  0  0  0  0  0  0  0  0  0  0
    8.7779  -16.1037   15.9464 N   0  0  0  0  0  0  0  0  0  0  0  0
    9.7801  -15.5922   22.4893 C   0  0  0  0  0  0  0  0  0  0  0  0
   10.3153  -14.5565   22.9728 O   0  0  0  0  0  0  0  0  0  0  0  0
   10.6322  -16.7146   22.3150 N   0  0  0  0  0  0  0  0  0  0  0  0
   12.0327  -16.7016   22.7155 C   0  0  1  0  0  0  0  0  0  0  0  0
   12.6812  -15.3877   22.4352 C   0  0  0  0  0  0  0  0  0  0  0  0
   12.9645  -15.2620   20.9901 C   0  0  0  0  0  0  0  0  0  0  0  0
   12.3015  -15.8778   19.9488 C   0  0  0  0  0  0  0  0  0  0  0  0
   12.9147  -15.4835   18.8234 N   0  0  0  0  0  0  0  0  0  0  0  0
   13.9340  -14.6436   19.1490 C   0  0  0  0  0  0  0  0  0  0  0  0
   13.9704  -14.5032   20.4770 N   0  0  0  0  0  0  0  0  0  0  0  0
   12.2063  -17.1905   24.0988 C   0  0  0  0  0  0  0  0  0  0  0  0
   13.5230  -17.2010   24.6058 O   0  0  0  0  0  0  0  0  0  0  0  0
   11.3248  -17.5926   24.8644 O   0  0  0  0  0  0  0  0  0  0  0  0
  2  1  1  0
  3  2  1  0
  3  5  1  0
  3  4  1  6
  5  6  1  1
  7  8  2  0
  7  5  1  0
  9  7  1  0
 10  9  1  0
 11 12  1  0
 10 11  1  6
 12 13  1  0
 13 14  1  0
 14 15  1  0
 16 17  2  0
 16 10  1  0
 18 16  1  0
 19 20  1  1
 19 18  1  0
 20 21  1  0
 21 25  1  0
 21 22  2  0
 22 23  1  0
 24 23  1  0
 25 24  2  0
 26 19  1  0
 27 26  1  0
 28 26  2  0
M  END
$$$$
