IKH.pdb
     RDKit          3D

 28 28  0  0  1  0  0  0  0  0999 V2000
    6.3152  -11.5112   27.7213 C   0  0  0  0  0  0  0  0  0  0  0  0
    5.8537  -12.5807   26.7911 C   0  0  0  0  0  0  0  0  0  0  0  0
    7.0244  -13.2981   26.1001 C   0  0  2  0  0  0  0  0  0  0  0  0
    7.7493  -12.2203   25.3287 C   0  0  0  0  0  0  0  0  0  0  0  0
    6.3752  -14.2368   25.1021 C   0  0  2  0  0  0  0  0  0  0  0  0
    5.7071  -15.2688   25.9147 N   0  0  0  0  0  0  0  0  0  0  0  0
    7.3420  -14.9461   24.2432 C   0  0  0  0  0  0  0  0  0  0  0  0
    7.7947  -16.0948   24.5772 O   0  0  0  0  0  0  0  0  0  0  0  0
    7.8574  -14.4716   23.0141 N   0  0  0  0  0  0  0  0  0  0  0  0
    8.8607  -15.1576   22.2343 C   0  0  1  0  0  0  0  0  0  0  0  0
    9.2120  -14.3532   20.9785 C   0  0  0  0  0  0  0  0  0  0  0  0
    8.1808  -14.4997   19.9190 C   0  0  0  0  0  0  0  0  0  0  0  0
    8.5504  -13.7576   18.6686 C   0  0  0  0  0  0  0  0  0  0  0  0
    7.5088  -14.0036   17.6066 C   0  0  0  0  0  0  0  0  0  0  0  0
    7.8761  -13.3594   16.3492 N   0  0  0  0  0  0  0  0  0  0  0  0
   10.0517  -15.5134   23.0082 C   0  0  0  0  0  0  0  0  0  0  0  0
   10.6829  -14.6302   23.6518 O   0  0  0  0  0  0  0  0  0  0  0  0
   10.5662  -16.8345   23.0879 N   0  0  0  0  0  0  0  0  0  0  0  0
   11.2484  -17.3367   24.2730 C   0  0  1  0  0  0  0  0  0  0  0  0
   10.3319  -18.1128   25.1578 C   0  0  0  0  0  0  0  0  0  0  0  0
   11.0902  -18.6944   26.2853 C   0  0  0  0  0  0  0  0  0  0  0  0
   12.4472  -18.6066   26.5172 C   0  0  0  0  0  0  0  0  0  0  0  0
   12.6849  -19.2978   27.6414 N   0  0  0  0  0  0  0  0  0  0  0  0
   11.5099  -19.8052   28.1024 C   0  0  0  0  0  0  0  0  0  0  0  0
   10.5271  -19.4388   27.2751 N   0  0  0  0  0  0  0  0  0  0  0  0
   12.5024  -18.0348   23.9226 C   0  0  0  0  0  0  0  0  0  0  0  0
   12.3790  -19.2052   23.1443 O   0  0  0  0  0  0  0  0  0  0  0  0
   13.6513  -17.7077   24.2355 O   0  0  0  0  0  0  0  0  0  0  0  0
  2  1  1  0
  3  2  1  0
  3  5  1  0
  3  4  1  6
  5  6  1  1
  7  8  2  0
  7  5  1  0
  9  7  1  0
 10  9  1  0
 11 12  1  0
 10 11  1  6
 12 13  1  0
 13 14  1  0
 14 15  1  0
 16 17  2  0
 16 10  1  0
 18 16  1  0
 19 20  1  6
 19 18  1  0
 20 21  1  0
 21 25  1  0
 21 22  2  0
 22 23  1  0
 24 23  1  0
 25 24  2  0
 26 19  1  0
 27 26  1  0
 28 26  2  0
M  END
$$$$
