IKH.pdb
     RDKit          3D

 28 28  0  0  1  0  0  0  0  0999 V2000
    6.3425  -11.5921   27.6803 C   0  0  0  0  0  0  0  0  0  0  0  0
    5.9069  -12.8387   26.9888 C   0  0  0  0  0  0  0  0  0  0  0  0
    6.9545  -13.3455   25.9846 C   0  0  2  0  0  0  0  0  0  0  0  0
    7.1529  -12.2073   25.0112 C   0  0  0  0  0  0  0  0  0  0  0  0
    6.2742  -14.4828   25.2482 C   0  0  2  0  0  0  0  0  0  0  0  0
    5.8770  -15.4423   26.2937 N   0  0  0  0  0  0  0  0  0  0  0  0
    7.1706  -15.2136   24.3327 C   0  0  0  0  0  0  0  0  0  0  0  0
    8.2422  -15.7621   24.7652 O   0  0  0  0  0  0  0  0  0  0  0  0
    6.9673  -15.3890   22.9437 N   0  0  0  0  0  0  0  0  0  0  0  0
    7.9955  -15.2202   21.9440 C   0  0  1  0  0  0  0  0  0  0  0  0
    7.6501  -14.0603   21.0045 C   0  0  0  0  0  0  0  0  0  0  0  0
    8.6245  -13.9403   19.8892 C   0  0  0  0  0  0  0  0  0  0  0  0
    7.9589  -14.0394   18.5484 C   0  0  0  0  0  0  0  0  0  0  0  0
    9.0051  -14.0513   17.4628 C   0  0  0  0  0  0  0  0  0  0  0  0
    8.3972  -14.2256   16.1470 N   0  0  0  0  0  0  0  0  0  0  0  0
    9.3382  -15.0840   22.5121 C   0  0  0  0  0  0  0  0  0  0  0  0
    9.4954  -14.6255   23.6774 O   0  0  0  0  0  0  0  0  0  0  0  0
   10.5218  -15.4457   21.8161 N   0  0  0  0  0  0  0  0  0  0  0  0
   11.4602  -16.4334   22.3320 C   0  0  1  0  0  0  0  0  0  0  0  0
   10.7744  -17.6914   22.7469 C   0  0  0  0  0  0  0  0  0  0  0  0
   10.6953  -17.7615   24.2211 C   0  0  0  0  0  0  0  0  0  0  0  0
   11.0497  -16.7837   25.1273 C   0  0  0  0  0  0  0  0  0  0  0  0
   10.8242  -17.2966   26.3456 N   0  0  0  0  0  0  0  0  0  0  0  0
   10.3417  -18.5610   26.2080 C   0  0  0  0  0  0  0  0  0  0  0  0
   10.2600  -18.8529   24.9069 N   0  0  0  0  0  0  0  0  0  0  0  0
   12.6015  -16.6288   21.4145 C   0  0  0  0  0  0  0  0  0  0  0  0
   12.2907  -16.8555   20.0570 O   0  0  0  0  0  0  0  0  0  0  0  0
   13.8021  -16.6158   21.7033 O   0  0  0  0  0  0  0  0  0  0  0  0
  2  1  1  0
  3  2  1  0
  3  5  1  0
  3  4  1  6
  5  6  1  1
  7  8  2  0
  7  5  1  0
  9  7  1  0
 10  9  1  0
 11 12  1  0
 10 11  1  1
 12 13  1  0
 13 14  1  0
 14 15  1  0
 16 17  2  0
 16 10  1  0
 18 16  1  0
 19 20  1  6
 19 18  1  0
 20 21  1  0
 21 25  1  0
 21 22  2  0
 22 23  1  0
 24 23  1  0
 25 24  2  0
 26 19  1  0
 27 26  1  0
 28 26  2  0
M  END
$$$$
