IKH.pdb
     RDKit          3D

 28 28  0  0  1  0  0  0  0  0999 V2000
    7.7583  -11.3855   19.1756 C   0  0  0  0  0  0  0  0  0  0  0  0
    7.8579  -12.6990   18.4777 C   0  0  0  0  0  0  0  0  0  0  0  0
    8.8013  -13.6738   19.2007 C   0  0  2  0  0  0  0  0  0  0  0  0
   10.1573  -13.0087   19.1697 C   0  0  0  0  0  0  0  0  0  0  0  0
    8.8566  -14.8995   18.3100 C   0  0  2  0  0  0  0  0  0  0  0  0
    7.4772  -15.4166   18.2719 N   0  0  0  0  0  0  0  0  0  0  0  0
    9.6928  -15.9866   18.8527 C   0  0  0  0  0  0  0  0  0  0  0  0
    9.2567  -16.7439   19.7867 O   0  0  0  0  0  0  0  0  0  0  0  0
   11.0044  -16.3082   18.4309 N   0  0  0  0  0  0  0  0  0  0  0  0
   11.7859  -17.3982   18.9659 C   0  0  1  0  0  0  0  0  0  0  0  0
   12.9340  -17.7563   18.0167 C   0  0  0  0  0  0  0  0  0  0  0  0
   13.7223  -18.9147   18.5112 C   0  0  0  0  0  0  0  0  0  0  0  0
   14.8219  -19.2919   17.5630 C   0  0  0  0  0  0  0  0  0  0  0  0
   15.3067  -20.6846   17.8774 C   0  0  0  0  0  0  0  0  0  0  0  0
   16.4162  -21.0650   17.0082 N   0  0  0  0  0  0  0  0  0  0  0  0
   12.2585  -17.1561   20.3305 C   0  0  0  0  0  0  0  0  0  0  0  0
   12.8156  -16.0638   20.6295 O   0  0  0  0  0  0  0  0  0  0  0  0
   12.1287  -18.1017   21.3819 N   0  0  0  0  0  0  0  0  0  0  0  0
   12.6569  -17.8611   22.7181 C   0  0  1  0  0  0  0  0  0  0  0  0
   11.5936  -17.9408   23.7613 C   0  0  0  0  0  0  0  0  0  0  0  0
   10.5541  -16.9225   23.5024 C   0  0  0  0  0  0  0  0  0  0  0  0
   10.5939  -15.9000   22.5773 C   0  0  0  0  0  0  0  0  0  0  0  0
    9.4448  -15.2221   22.7122 N   0  0  0  0  0  0  0  0  0  0  0  0
    8.7043  -15.8030   23.6945 C   0  0  0  0  0  0  0  0  0  0  0  0
    9.3790  -16.8470   24.1838 N   0  0  0  0  0  0  0  0  0  0  0  0
   13.8477  -18.6925   22.9888 C   0  0  0  0  0  0  0  0  0  0  0  0
   14.5626  -18.4080   24.1715 O   0  0  0  0  0  0  0  0  0  0  0  0
   14.2896  -19.6123   22.2934 O   0  0  0  0  0  0  0  0  0  0  0  0
  2  1  1  0
  3  2  1  0
  3  5  1  0
  3  4  1  6
  5  6  1  1
  7  8  2  0
  7  5  1  0
  9  7  1  0
 10  9  1  0
 11 12  1  0
 10 11  1  6
 12 13  1  0
 13 14  1  0
 14 15  1  0
 16 17  2  0
 16 10  1  0
 18 16  1  0
 19 20  1  1
 19 18  1  0
 20 21  1  0
 21 25  1  0
 21 22  2  0
 22 23  1  0
 24 23  1  0
 25 24  2  0
 26 19  1  0
 27 26  1  0
 28 26  2  0
M  END
$$$$
