IKH.pdb
     RDKit          3D

 28 28  0  0  1  0  0  0  0  0999 V2000
    6.7630  -11.3164   27.6418 C   0  0  0  0  0  0  0  0  0  0  0  0
    6.1857  -12.5249   26.9873 C   0  0  0  0  0  0  0  0  0  0  0  0
    7.2283  -13.2954   26.1613 C   0  0  2  0  0  0  0  0  0  0  0  0
    7.6737  -12.3309   25.0873 C   0  0  0  0  0  0  0  0  0  0  0  0
    6.4524  -14.4157   25.4969 C   0  0  2  0  0  0  0  0  0  0  0  0
    6.0044  -15.2864   26.5982 N   0  0  0  0  0  0  0  0  0  0  0  0
    7.2755  -15.2587   24.6096 C   0  0  0  0  0  0  0  0  0  0  0  0
    7.9302  -16.2543   25.0746 O   0  0  0  0  0  0  0  0  0  0  0  0
    7.4327  -15.0812   23.2148 N   0  0  0  0  0  0  0  0  0  0  0  0
    8.2305  -15.9396   22.3710 C   0  0  1  0  0  0  0  0  0  0  0  0
    7.8741  -15.7292   20.8958 C   0  0  0  0  0  0  0  0  0  0  0  0
    8.5588  -14.5413   20.3234 C   0  0  0  0  0  0  0  0  0  0  0  0
    8.2446  -14.3588   18.8678 C   0  0  0  0  0  0  0  0  0  0  0  0
    9.0481  -13.2084   18.3162 C   0  0  0  0  0  0  0  0  0  0  0  0
    8.7376  -12.9758   16.9089 N   0  0  0  0  0  0  0  0  0  0  0  0
    9.6693  -15.8114   22.6108 C   0  0  0  0  0  0  0  0  0  0  0  0
   10.1491  -14.7330   23.0576 O   0  0  0  0  0  0  0  0  0  0  0  0
   10.5987  -16.8568   22.3660 N   0  0  0  0  0  0  0  0  0  0  0  0
   11.9969  -16.7679   22.7651 C   0  0  1  0  0  0  0  0  0  0  0  0
   12.5794  -15.4282   22.4637 C   0  0  0  0  0  0  0  0  0  0  0  0
   12.6023  -15.2039   21.0030 C   0  0  0  0  0  0  0  0  0  0  0  0
   12.1392  -16.0506   20.0173 C   0  0  0  0  0  0  0  0  0  0  0  0
   12.3839  -15.4408   18.8484 N   0  0  0  0  0  0  0  0  0  0  0  0
   12.9838  -14.2447   19.0935 C   0  0  0  0  0  0  0  0  0  0  0  0
   13.1209  -14.0928   20.4137 N   0  0  0  0  0  0  0  0  0  0  0  0
   12.1945  -17.2259   24.1558 C   0  0  0  0  0  0  0  0  0  0  0  0
   13.5174  -17.2078   24.6462 O   0  0  0  0  0  0  0  0  0  0  0  0
   11.3283  -17.6242   24.9406 O   0  0  0  0  0  0  0  0  0  0  0  0
  2  1  1  0
  3  2  1  0
  3  5  1  0
  3  4  1  6
  5  6  1  1
  7  8  2  0
  7  5  1  0
  9  7  1  0
 10  9  1  0
 11 12  1  0
 10 11  1  6
 12 13  1  0
 13 14  1  0
 14 15  1  0
 16 17  2  0
 16 10  1  0
 18 16  1  0
 19 20  1  1
 19 18  1  0
 20 21  1  0
 21 25  1  0
 21 22  2  0
 22 23  1  0
 24 23  1  0
 25 24  2  0
 26 19  1  0
 27 26  1  0
 28 26  2  0
M  END
$$$$
