IKH.pdb
     RDKit          3D

 28 28  0  0  1  0  0  0  0  0999 V2000
    7.8065  -11.7693   19.2079 C   0  0  0  0  0  0  0  0  0  0  0  0
    7.5740  -13.2403   19.2726 C   0  0  0  0  0  0  0  0  0  0  0  0
    7.5832  -13.7697   20.7157 C   0  0  2  0  0  0  0  0  0  0  0  0
    9.0210  -13.6633   21.1670 C   0  0  0  0  0  0  0  0  0  0  0  0
    7.2338  -15.2401   20.5965 C   0  0  2  0  0  0  0  0  0  0  0  0
    5.8915  -15.2741   19.9893 N   0  0  0  0  0  0  0  0  0  0  0  0
    7.1191  -15.9272   21.8966 C   0  0  0  0  0  0  0  0  0  0  0  0
    6.1812  -15.6294   22.7138 O   0  0  0  0  0  0  0  0  0  0  0  0
    7.9817  -16.9425   22.3725 N   0  0  0  0  0  0  0  0  0  0  0  0
    7.9994  -17.4216   23.7346 C   0  0  1  0  0  0  0  0  0  0  0  0
    8.1790  -18.9428   23.7698 C   0  0  0  0  0  0  0  0  0  0  0  0
    7.8816  -19.5059   25.1122 C   0  0  0  0  0  0  0  0  0  0  0  0
    8.0576  -20.9953   25.1484 C   0  0  0  0  0  0  0  0  0  0  0  0
    7.6283  -21.5239   26.4936 C   0  0  0  0  0  0  0  0  0  0  0  0
    7.8807  -22.9577   26.6013 N   0  0  0  0  0  0  0  0  0  0  0  0
    8.9802  -16.7343   24.5771 C   0  0  0  0  0  0  0  0  0  0  0  0
    9.5745  -15.7040   24.1552 O   0  0  0  0  0  0  0  0  0  0  0  0
    9.3228  -17.1633   25.8867 N   0  0  0  0  0  0  0  0  0  0  0  0
    9.0216  -16.3712   27.0716 C   0  0  1  0  0  0  0  0  0  0  0  0
    7.5955  -15.9349   27.1037 C   0  0  0  0  0  0  0  0  0  0  0  0
    7.5003  -14.4944   26.7867 C   0  0  0  0  0  0  0  0  0  0  0  0
    8.5361  -13.6268   26.5086 C   0  0  0  0  0  0  0  0  0  0  0  0
    7.9783  -12.4252   26.3010 N   0  0  0  0  0  0  0  0  0  0  0  0
    6.6300  -12.5355   26.4446 C   0  0  0  0  0  0  0  0  0  0  0  0
    6.3297  -13.8026   26.7428 N   0  0  0  0  0  0  0  0  0  0  0  0
    9.4884  -17.0390   28.3040 C   0  0  0  0  0  0  0  0  0  0  0  0
    9.7401  -18.4247   28.2164 O   0  0  0  0  0  0  0  0  0  0  0  0
    9.6840  -16.5187   29.4066 O   0  0  0  0  0  0  0  0  0  0  0  0
  2  1  1  0
  3  2  1  0
  3  5  1  0
  3  4  1  6
  5  6  1  1
  7  8  2  0
  7  5  1  0
  9  7  1  0
 10  9  1  0
 11 12  1  0
 10 11  1  6
 12 13  1  0
 13 14  1  0
 14 15  1  0
 16 17  2  0
 16 10  1  0
 18 16  1  0
 19 20  1  1
 19 18  1  0
 20 21  1  0
 21 25  1  0
 21 22  2  0
 22 23  1  0
 24 23  1  0
 25 24  2  0
 26 19  1  0
 27 26  1  0
 28 26  2  0
M  END
$$$$
