IKH.pdb
     RDKit          3D

 28 28  0  0  1  0  0  0  0  0999 V2000
    7.0600  -11.6735   19.3858 C   0  0  0  0  0  0  0  0  0  0  0  0
    7.6284  -12.6864   18.4514 C   0  0  0  0  0  0  0  0  0  0  0  0
    8.5166  -13.7125   19.1731 C   0  0  2  0  0  0  0  0  0  0  0  0
    9.7123  -12.9280   19.6598 C   0  0  0  0  0  0  0  0  0  0  0  0
    8.9848  -14.6597   18.0858 C   0  0  2  0  0  0  0  0  0  0  0  0
    7.7568  -15.2638   17.5392 N   0  0  0  0  0  0  0  0  0  0  0  0
    9.8081  -15.7754   18.5887 C   0  0  0  0  0  0  0  0  0  0  0  0
    9.2698  -16.7648   19.1949 O   0  0  0  0  0  0  0  0  0  0  0  0
   11.2136  -15.8835   18.4688 N   0  0  0  0  0  0  0  0  0  0  0  0
   12.0004  -16.9428   19.0554 C   0  0  1  0  0  0  0  0  0  0  0  0
   13.0666  -17.4327   18.0702 C   0  0  0  0  0  0  0  0  0  0  0  0
   12.5009  -18.3590   17.0555 C   0  0  0  0  0  0  0  0  0  0  0  0
   13.5662  -18.9570   16.1847 C   0  0  0  0  0  0  0  0  0  0  0  0
   12.9345  -19.8755   15.1695 C   0  0  0  0  0  0  0  0  0  0  0  0
   13.9499  -20.5703   14.3838 N   0  0  0  0  0  0  0  0  0  0  0  0
   12.5765  -16.5851   20.3532 C   0  0  0  0  0  0  0  0  0  0  0  0
   13.2901  -15.5510   20.4723 O   0  0  0  0  0  0  0  0  0  0  0  0
   12.3808  -17.3507   21.5330 N   0  0  0  0  0  0  0  0  0  0  0  0
   13.0773  -17.0576   22.7785 C   0  0  1  0  0  0  0  0  0  0  0  0
   12.1955  -17.2409   23.9676 C   0  0  0  0  0  0  0  0  0  0  0  0
   11.1088  -16.2392   23.9502 C   0  0  0  0  0  0  0  0  0  0  0  0
   10.9403  -15.2001   23.0586 C   0  0  0  0  0  0  0  0  0  0  0  0
    9.8331  -14.5479   23.4419 N   0  0  0  0  0  0  0  0  0  0  0  0
    9.3208  -15.1605   24.5432 C   0  0  0  0  0  0  0  0  0  0  0  0
   10.0987  -16.1992   24.8606 N   0  0  0  0  0  0  0  0  0  0  0  0
   14.3709  -17.7669   22.8569 C   0  0  0  0  0  0  0  0  0  0  0  0
   14.3755  -19.1206   22.4590 O   0  0  0  0  0  0  0  0  0  0  0  0
   15.4531  -17.3062   23.2329 O   0  0  0  0  0  0  0  0  0  0  0  0
  2  1  1  0
  3  2  1  0
  3  5  1  0
  3  4  1  6
  5  6  1  1
  7  8  2  0
  7  5  1  0
  9  7  1  0
 10  9  1  0
 11 12  1  0
 10 11  1  6
 12 13  1  0
 13 14  1  0
 14 15  1  0
 16 17  2  0
 16 10  1  0
 18 16  1  0
 19 20  1  1
 19 18  1  0
 20 21  1  0
 21 25  1  0
 21 22  2  0
 22 23  1  0
 24 23  1  0
 25 24  2  0
 26 19  1  0
 27 26  1  0
 28 26  2  0
M  END
$$$$
