IKH.pdb
     RDKit          3D

 28 28  0  0  1  0  0  0  0  0999 V2000
    6.4117  -10.6292   26.9650 C   0  0  0  0  0  0  0  0  0  0  0  0
    5.8411  -11.8291   26.2891 C   0  0  0  0  0  0  0  0  0  0  0  0
    6.9127  -12.8837   25.9696 C   0  0  2  0  0  0  0  0  0  0  0  0
    7.8816  -12.1939   25.0382 C   0  0  0  0  0  0  0  0  0  0  0  0
    6.1851  -13.9566   25.1833 C   0  0  2  0  0  0  0  0  0  0  0  0
    5.2780  -14.6008   26.1495 N   0  0  0  0  0  0  0  0  0  0  0  0
    7.0721  -15.0194   24.6741 C   0  0  0  0  0  0  0  0  0  0  0  0
    7.4122  -16.0014   25.4198 O   0  0  0  0  0  0  0  0  0  0  0  0
    7.6237  -15.0810   23.3727 N   0  0  0  0  0  0  0  0  0  0  0  0
    8.4608  -16.1562   22.8948 C   0  0  1  0  0  0  0  0  0  0  0  0
    8.9196  -15.8857   21.4582 C   0  0  0  0  0  0  0  0  0  0  0  0
    9.8236  -16.9518   20.9542 C   0  0  0  0  0  0  0  0  0  0  0  0
    9.0983  -18.2466   20.7355 C   0  0  0  0  0  0  0  0  0  0  0  0
   10.0591  -19.2835   20.2112 C   0  0  0  0  0  0  0  0  0  0  0  0
   10.2181  -19.1706   18.7644 N   0  0  0  0  0  0  0  0  0  0  0  0
    9.5866  -16.4517   23.7831 C   0  0  0  0  0  0  0  0  0  0  0  0
   10.4647  -15.5753   24.0150 O   0  0  0  0  0  0  0  0  0  0  0  0
    9.7665  -17.7045   24.4270 N   0  0  0  0  0  0  0  0  0  0  0  0
   10.8618  -17.9560   25.3540 C   0  0  1  0  0  0  0  0  0  0  0  0
   10.4592  -18.8757   26.4572 C   0  0  0  0  0  0  0  0  0  0  0  0
   11.6274  -19.1866   27.3077 C   0  0  0  0  0  0  0  0  0  0  0  0
   12.8454  -18.5394   27.3287 C   0  0  0  0  0  0  0  0  0  0  0  0
   13.5969  -19.1757   28.2388 N   0  0  0  0  0  0  0  0  0  0  0  0
   12.8709  -20.1939   28.7743 C   0  0  0  0  0  0  0  0  0  0  0  0
   11.6612  -20.2065   28.2075 N   0  0  0  0  0  0  0  0  0  0  0  0
   12.0948  -18.3512   24.6427 C   0  0  0  0  0  0  0  0  0  0  0  0
   11.9308  -19.1202   23.4711 O   0  0  0  0  0  0  0  0  0  0  0  0
   13.2578  -18.0830   24.9596 O   0  0  0  0  0  0  0  0  0  0  0  0
  2  1  1  0
  3  2  1  0
  3  5  1  0
  3  4  1  6
  5  6  1  1
  7  8  2  0
  7  5  1  0
  9  7  1  0
 10  9  1  0
 11 12  1  0
 10 11  1  6
 12 13  1  0
 13 14  1  0
 14 15  1  0
 16 17  2  0
 16 10  1  0
 18 16  1  0
 19 20  1  1
 19 18  1  0
 20 21  1  0
 21 25  1  0
 21 22  2  0
 22 23  1  0
 24 23  1  0
 25 24  2  0
 26 19  1  0
 27 26  1  0
 28 26  2  0
M  END
$$$$
