IKH.pdb
     RDKit          3D

 28 28  0  0  1  0  0  0  0  0999 V2000
    6.9125  -11.2732   27.7908 C   0  0  0  0  0  0  0  0  0  0  0  0
    6.8706  -12.7327   27.4904 C   0  0  0  0  0  0  0  0  0  0  0  0
    6.8435  -13.0171   25.9801 C   0  0  2  0  0  0  0  0  0  0  0  0
    5.4808  -12.5596   25.5156 C   0  0  0  0  0  0  0  0  0  0  0  0
    6.8987  -14.5278   25.8643 C   0  0  2  0  0  0  0  0  0  0  0  0
    8.0813  -14.9358   26.6432 N   0  0  0  0  0  0  0  0  0  0  0  0
    7.1228  -15.0068   24.4874 C   0  0  0  0  0  0  0  0  0  0  0  0
    6.2515  -15.7340   23.8974 O   0  0  0  0  0  0  0  0  0  0  0  0
    8.2627  -14.7358   23.6944 N   0  0  0  0  0  0  0  0  0  0  0  0
    8.4607  -15.2410   22.3563 C   0  0  1  0  0  0  0  0  0  0  0  0
    8.3587  -14.1076   21.3304 C   0  0  0  0  0  0  0  0  0  0  0  0
    8.4365  -14.6129   19.9354 C   0  0  0  0  0  0  0  0  0  0  0  0
    8.3535  -13.5024   18.9300 C   0  0  0  0  0  0  0  0  0  0  0  0
    8.2692  -14.0819   17.5406 C   0  0  0  0  0  0  0  0  0  0  0  0
    8.2141  -13.0275   16.5325 N   0  0  0  0  0  0  0  0  0  0  0  0
    9.6990  -16.0076   22.2045 C   0  0  0  0  0  0  0  0  0  0  0  0
   10.8070  -15.5045   22.5392 O   0  0  0  0  0  0  0  0  0  0  0  0
    9.7417  -17.3291   21.6866 N   0  0  0  0  0  0  0  0  0  0  0  0
   10.9742  -18.1032   21.6225 C   0  0  1  0  0  0  0  0  0  0  0  0
   10.8700  -19.3825   22.3825 C   0  0  0  0  0  0  0  0  0  0  0  0
   10.7620  -19.1032   23.8298 C   0  0  0  0  0  0  0  0  0  0  0  0
   11.3025  -18.0388   24.5211 C   0  0  0  0  0  0  0  0  0  0  0  0
   10.9618  -18.2099   25.8067 N   0  0  0  0  0  0  0  0  0  0  0  0
   10.2279  -19.3497   25.9193 C   0  0  0  0  0  0  0  0  0  0  0  0
   10.1014  -19.9031   24.7100 N   0  0  0  0  0  0  0  0  0  0  0  0
   11.4505  -18.2509   20.2318 C   0  0  0  0  0  0  0  0  0  0  0  0
   10.6510  -17.6713   19.2240 O   0  0  0  0  0  0  0  0  0  0  0  0
   12.4741  -18.8270   19.8507 O   0  0  0  0  0  0  0  0  0  0  0  0
  2  1  1  0
  3  2  1  0
  3  5  1  0
  3  4  1  1
  5  6  1  1
  7  8  2  0
  7  5  1  0
  9  7  1  0
 10  9  1  0
 11 12  1  0
 10 11  1  6
 12 13  1  0
 13 14  1  0
 14 15  1  0
 16 17  2  0
 16 10  1  0
 18 16  1  0
 19 20  1  6
 19 18  1  0
 20 21  1  0
 21 25  1  0
 21 22  2  0
 22 23  1  0
 24 23  1  0
 25 24  2  0
 26 19  1  0
 27 26  1  0
 28 26  2  0
M  END
$$$$
