IKH.pdb
     RDKit          3D

 28 28  0  0  1  0  0  0  0  0999 V2000
    7.9355  -11.8115   18.9718 C   0  0  0  0  0  0  0  0  0  0  0  0
    7.9247  -13.3005   18.9024 C   0  0  0  0  0  0  0  0  0  0  0  0
    7.5771  -13.9452   20.2537 C   0  0  2  0  0  0  0  0  0  0  0  0
    8.7667  -13.6673   21.1425 C   0  0  0  0  0  0  0  0  0  0  0  0
    7.5324  -15.4353   19.9776 C   0  0  2  0  0  0  0  0  0  0  0  0
    6.4066  -15.6259   19.0462 N   0  0  0  0  0  0  0  0  0  0  0  0
    7.2271  -16.2480   21.1701 C   0  0  0  0  0  0  0  0  0  0  0  0
    6.1139  -16.1145   21.7857 O   0  0  0  0  0  0  0  0  0  0  0  0
    8.0781  -17.2202   21.7464 N   0  0  0  0  0  0  0  0  0  0  0  0
    7.8433  -17.8512   23.0238 C   0  0  1  0  0  0  0  0  0  0  0  0
    7.8846  -19.3768   22.8883 C   0  0  0  0  0  0  0  0  0  0  0  0
    7.6568  -20.0560   24.1900 C   0  0  0  0  0  0  0  0  0  0  0  0
    7.7837  -21.5465   24.0759 C   0  0  0  0  0  0  0  0  0  0  0  0
    7.4596  -22.1858   25.4024 C   0  0  0  0  0  0  0  0  0  0  0  0
    7.4676  -23.6421   25.3014 N   0  0  0  0  0  0  0  0  0  0  0  0
    8.7369  -17.3705   24.0795 C   0  0  0  0  0  0  0  0  0  0  0  0
    9.9876  -17.3795   23.9112 O   0  0  0  0  0  0  0  0  0  0  0  0
    8.2762  -16.8758   25.3283 N   0  0  0  0  0  0  0  0  0  0  0  0
    9.1728  -16.2851   26.3130 C   0  0  1  0  0  0  0  0  0  0  0  0
    8.4406  -15.4328   27.2941 C   0  0  0  0  0  0  0  0  0  0  0  0
    9.3797  -14.9079   28.3075 C   0  0  0  0  0  0  0  0  0  0  0  0
   10.7229  -14.6382   28.1460 C   0  0  0  0  0  0  0  0  0  0  0  0
   11.1663  -14.1983   29.3326 N   0  0  0  0  0  0  0  0  0  0  0  0
   10.1303  -14.1920   30.2143 C   0  0  0  0  0  0  0  0  0  0  0  0
    9.0309  -14.6263   29.5920 N   0  0  0  0  0  0  0  0  0  0  0  0
   10.0571  -17.3009   26.9201 C   0  0  0  0  0  0  0  0  0  0  0  0
    9.4414  -18.4870   27.3726 O   0  0  0  0  0  0  0  0  0  0  0  0
   11.2799  -17.2282   27.0768 O   0  0  0  0  0  0  0  0  0  0  0  0
  2  1  1  0
  3  2  1  0
  3  5  1  0
  3  4  1  1
  5  6  1  6
  7  8  2  0
  7  5  1  0
  9  7  1  0
 10  9  1  0
 11 12  1  0
 10 11  1  6
 12 13  1  0
 13 14  1  0
 14 15  1  0
 16 17  2  0
 16 10  1  0
 18 16  1  0
 19 20  1  1
 19 18  1  0
 20 21  1  0
 21 25  1  0
 21 22  2  0
 22 23  1  0
 24 23  1  0
 25 24  2  0
 26 19  1  0
 27 26  1  0
 28 26  2  0
M  END
$$$$
