ATS.pdb
     RDKit          3D

 19 18  0  0  1  0  0  0  0  0999 V2000
    8.4825  -17.2691   15.6209 C   0  0  0  0  0  0  0  0  0  0  0  0
    8.2712  -15.7932   15.7923 C   0  0  2  0  0  0  0  0  0  0  0  0
    8.6843  -15.1175   14.5778 N   0  0  0  0  0  0  0  0  0  0  0  0
    9.0781  -15.3009   16.9525 C   0  0  0  0  0  0  0  0  0  0  0  0
   10.2531  -14.9140   16.7589 O   0  0  0  0  0  0  0  0  0  0  0  0
    7.6371  -12.6684   19.2761 C   0  0  0  0  0  0  0  0  0  0  0  0
    8.2460  -13.7747   20.1060 C   0  0  1  0  0  0  0  0  0  0  0  0
    7.2670  -14.5890   20.6736 O   0  0  0  0  0  0  0  0  0  0  0  0
    9.2714  -14.5663   19.3390 C   0  0  2  0  0  0  0  0  0  0  0  0
    8.5803  -15.2477   18.2747 N   0  0  0  0  0  0  0  0  0  0  0  0
   10.0141  -15.5258   20.1430 C   0  0  0  0  0  0  0  0  0  0  0  0
    9.6875  -16.7384   20.0910 O   0  0  0  0  0  0  0  0  0  0  0  0
   13.7762  -16.0040   20.4263 O   0  0  0  0  0  0  0  0  0  0  0  0
   13.2886  -16.0172   21.7306 C   0  0  0  0  0  0  0  0  0  0  0  0
   11.7895  -16.2423   21.7448 C   0  0  2  0  0  0  0  0  0  0  0  0
   11.1016  -15.2070   21.0021 N   0  0  0  0  0  0  0  0  0  0  0  0
   11.2856  -16.3558   23.1359 C   0  0  0  0  0  0  0  0  0  0  0  0
   10.2966  -15.4758   23.5528 O   0  0  0  0  0  0  0  0  0  0  0  0
   11.7160  -17.2041   23.9308 O   0  0  0  0  0  0  0  0  0  0  0  0
  2  3  1  0
  2  1  1  6
  4  2  1  0
  5  4  2  0
  7  6  1  6
  7  8  1  0
  7  9  1  0
  9 11  1  0
  9 10  1  6
 10  4  1  0
 11 12  2  0
 15 14  1  1
 14 13  1  0
 16 15  1  0
 16 11  1  0
 17 18  1  0
 17 15  1  0
 19 17  2  0
M  END
$$$$
