ATS.pdb
     RDKit          3D

 19 18  0  0  1  0  0  0  0  0999 V2000
    6.1073  -18.2925   19.9740 C   0  0  0  0  0  0  0  0  0  0  0  0
    5.8511  -18.0423   21.4314 C   0  0  2  0  0  0  0  0  0  0  0  0
    4.7310  -17.1306   21.5595 N   0  0  0  0  0  0  0  0  0  0  0  0
    7.0710  -17.4473   22.0618 C   0  0  0  0  0  0  0  0  0  0  0  0
    8.1499  -17.4502   21.4264 O   0  0  0  0  0  0  0  0  0  0  0  0
    6.7412  -14.8214   25.2330 C   0  0  0  0  0  0  0  0  0  0  0  0
    7.9845  -14.9379   24.3821 C   0  0  1  0  0  0  0  0  0  0  0  0
    9.0834  -14.3358   24.9934 O   0  0  0  0  0  0  0  0  0  0  0  0
    8.2669  -16.3593   23.9744 C   0  0  2  0  0  0  0  0  0  0  0  0
    7.0731  -16.8737   23.3539 N   0  0  0  0  0  0  0  0  0  0  0  0
    8.6719  -17.2291   25.0691 C   0  0  0  0  0  0  0  0  0  0  0  0
    7.7875  -17.6857   25.8365 O   0  0  0  0  0  0  0  0  0  0  0  0
   12.4512  -18.9634   25.4339 O   0  0  0  0  0  0  0  0  0  0  0  0
   11.3215  -19.5900   25.9538 C   0  0  0  0  0  0  0  0  0  0  0  0
   10.2979  -18.5683   26.4082 C   0  0  2  0  0  0  0  0  0  0  0  0
   10.0096  -17.6176   25.3549 N   0  0  0  0  0  0  0  0  0  0  0  0
   10.7392  -17.8976   27.6561 C   0  0  0  0  0  0  0  0  0  0  0  0
   10.9126  -18.6717   28.7950 O   0  0  0  0  0  0  0  0  0  0  0  0
   10.9562  -16.6784   27.7137 O   0  0  0  0  0  0  0  0  0  0  0  0
  2  3  1  0
  2  1  1  6
  4  2  1  0
  5  4  2  0
  7  6  1  1
  7  8  1  0
  7  9  1  0
  9 11  1  0
  9 10  1  1
 10  4  1  0
 11 12  2  0
 15 14  1  6
 14 13  1  0
 16 15  1  0
 16 11  1  0
 17 18  1  0
 17 15  1  0
 19 17  2  0
M  END
$$$$
