ATS.pdb
     RDKit          3D

 19 18  0  0  1  0  0  0  0  0999 V2000
    7.5046  -12.4187   19.0062 C   0  0  0  0  0  0  0  0  0  0  0  0
    8.8606  -13.0299   19.2061 C   0  0  2  0  0  0  0  0  0  0  0  0
    9.3045  -13.6039   17.9507 N   0  0  0  0  0  0  0  0  0  0  0  0
    8.7834  -14.0928   20.2568 C   0  0  0  0  0  0  0  0  0  0  0  0
    8.2492  -13.8260   21.3573 O   0  0  0  0  0  0  0  0  0  0  0  0
    7.9410  -17.8609   19.4986 C   0  0  0  0  0  0  0  0  0  0  0  0
    9.1458  -17.7472   20.4035 C   0  0  1  0  0  0  0  0  0  0  0  0
   10.3260  -18.0545   19.7281 O   0  0  0  0  0  0  0  0  0  0  0  0
    9.2163  -16.4124   21.0961 C   0  0  2  0  0  0  0  0  0  0  0  0
    9.2877  -15.4007   20.0732 N   0  0  0  0  0  0  0  0  0  0  0  0
   10.3370  -16.2703   22.0141 C   0  0  0  0  0  0  0  0  0  0  0  0
   11.0259  -15.2201   21.9681 O   0  0  0  0  0  0  0  0  0  0  0  0
    9.7023  -16.5574   25.8665 O   0  0  0  0  0  0  0  0  0  0  0  0
   10.5473  -15.8702   24.9987 C   0  0  0  0  0  0  0  0  0  0  0  0
   11.4019  -16.8346   24.2000 C   0  0  2  0  0  0  0  0  0  0  0  0
   10.7315  -17.2356   22.9808 N   0  0  0  0  0  0  0  0  0  0  0  0
   11.7947  -18.0020   25.0275 C   0  0  0  0  0  0  0  0  0  0  0  0
   11.3154  -19.2547   24.6702 O   0  0  0  0  0  0  0  0  0  0  0  0
   12.5308  -17.8954   26.0192 O   0  0  0  0  0  0  0  0  0  0  0  0
  2  3  1  0
  2  1  1  6
  4  2  1  0
  5  4  2  0
  7  6  1  6
  7  8  1  0
  7  9  1  0
  9 11  1  0
  9 10  1  6
 10  4  1  0
 11 12  2  0
 15 14  1  1
 14 13  1  0
 16 15  1  0
 16 11  1  0
 17 18  1  0
 17 15  1  0
 19 17  2  0
M  END
$$$$
