ATS.pdb
     RDKit          3D

 19 18  0  0  1  0  0  0  0  0999 V2000
    8.1425  -12.1567   19.2584 C   0  0  0  0  0  0  0  0  0  0  0  0
    8.4824  -13.4591   18.5947 C   0  0  2  0  0  0  0  0  0  0  0  0
    7.5522  -13.6858   17.5057 N   0  0  0  0  0  0  0  0  0  0  0  0
    8.3863  -14.5716   19.5909 C   0  0  0  0  0  0  0  0  0  0  0  0
    7.2567  -14.9926   19.9291 O   0  0  0  0  0  0  0  0  0  0  0  0
    9.0065  -17.8271   19.0932 C   0  0  0  0  0  0  0  0  0  0  0  0
    9.8902  -17.5250   20.2812 C   0  0  1  0  0  0  0  0  0  0  0  0
   11.2302  -17.4202   19.9109 O   0  0  0  0  0  0  0  0  0  0  0  0
    9.4169  -16.3232   21.0545 C   0  0  2  0  0  0  0  0  0  0  0  0
    9.5167  -15.1829   20.1801 N   0  0  0  0  0  0  0  0  0  0  0  0
   10.1537  -16.0719   22.2845 C   0  0  0  0  0  0  0  0  0  0  0  0
   11.1674  -15.3302   22.2404 O   0  0  0  0  0  0  0  0  0  0  0  0
    9.0320  -17.5295   26.0209 O   0  0  0  0  0  0  0  0  0  0  0  0
    9.7946  -16.3647   25.9929 C   0  0  0  0  0  0  0  0  0  0  0  0
   10.6239  -16.2920   24.7260 C   0  0  2  0  0  0  0  0  0  0  0  0
    9.8217  -16.6026   23.5613 N   0  0  0  0  0  0  0  0  0  0  0  0
   11.8190  -17.1660   24.8263 C   0  0  0  0  0  0  0  0  0  0  0  0
   12.7475  -16.9015   25.8234 O   0  0  0  0  0  0  0  0  0  0  0  0
   12.0130  -18.1166   24.0547 O   0  0  0  0  0  0  0  0  0  0  0  0
  2  3  1  0
  2  1  1  1
  4  2  1  0
  5  4  2  0
  7  6  1  6
  7  8  1  0
  7  9  1  0
  9 11  1  0
  9 10  1  6
 10  4  1  0
 11 12  2  0
 15 14  1  1
 14 13  1  0
 16 15  1  0
 16 11  1  0
 17 18  1  0
 17 15  1  0
 19 17  2  0
M  END
$$$$
