ATS.pdb
     RDKit          3D

 19 18  0  0  1  0  0  0  0  0999 V2000
    7.8066  -17.4207   16.6829 C   0  0  0  0  0  0  0  0  0  0  0  0
    7.8485  -15.9211   16.7218 C   0  0  2  0  0  0  0  0  0  0  0  0
    8.4986  -15.4400   15.5183 N   0  0  0  0  0  0  0  0  0  0  0  0
    8.6080  -15.4702   17.9298 C   0  0  0  0  0  0  0  0  0  0  0  0
    9.8581  -15.4192   17.8814 O   0  0  0  0  0  0  0  0  0  0  0  0
    7.4692  -12.4414   20.1909 C   0  0  0  0  0  0  0  0  0  0  0  0
    7.8275  -13.6522   21.0209 C   0  0  1  0  0  0  0  0  0  0  0  0
    6.6917  -14.2790   21.5316 O   0  0  0  0  0  0  0  0  0  0  0  0
    8.7218  -14.6094   20.2790 C   0  0  2  0  0  0  0  0  0  0  0  0
    7.9833  -15.0930   19.1407 N   0  0  0  0  0  0  0  0  0  0  0  0
    9.1948  -15.7310   21.0771 C   0  0  0  0  0  0  0  0  0  0  0  0
    8.5944  -16.8316   20.9876 O   0  0  0  0  0  0  0  0  0  0  0  0
   13.0130  -16.4976   22.2525 O   0  0  0  0  0  0  0  0  0  0  0  0
   11.9919  -17.4424   22.1910 C   0  0  0  0  0  0  0  0  0  0  0  0
   10.6920  -16.8683   22.7190 C   0  0  2  0  0  0  0  0  0  0  0  0
   10.3010  -15.6925   21.9698 N   0  0  0  0  0  0  0  0  0  0  0  0
   10.7887  -16.5930   24.1739 C   0  0  0  0  0  0  0  0  0  0  0  0
   11.1258  -17.6387   25.0219 O   0  0  0  0  0  0  0  0  0  0  0  0
   10.5798  -15.4686   24.6522 O   0  0  0  0  0  0  0  0  0  0  0  0
  2  3  1  0
  2  1  1  6
  4  2  1  0
  5  4  2  0
  7  6  1  6
  7  8  1  0
  7  9  1  0
  9 11  1  0
  9 10  1  6
 10  4  1  0
 11 12  2  0
 15 14  1  6
 14 13  1  0
 16 15  1  0
 16 11  1  0
 17 18  1  0
 17 15  1  0
 19 17  2  0
M  END
$$$$
