ATS.pdb
     RDKit          3D

 19 18  0  0  1  0  0  0  0  0999 V2000
    8.0153  -12.3526   19.4203 C   0  0  0  0  0  0  0  0  0  0  0  0
    8.2388  -13.5148   18.4974 C   0  0  2  0  0  0  0  0  0  0  0  0
    7.1108  -13.6168   17.5921 N   0  0  0  0  0  0  0  0  0  0  0  0
    8.3704  -14.7734   19.2962 C   0  0  0  0  0  0  0  0  0  0  0  0
    7.4679  -15.6385   19.2258 O   0  0  0  0  0  0  0  0  0  0  0  0
    8.9082  -17.4946   18.6777 C   0  0  0  0  0  0  0  0  0  0  0  0
   10.0390  -17.2995   19.6608 C   0  0  1  0  0  0  0  0  0  0  0  0
   11.2266  -16.9567   19.0160 O   0  0  0  0  0  0  0  0  0  0  0  0
    9.6838  -16.3286   20.7551 C   0  0  2  0  0  0  0  0  0  0  0  0
    9.4732  -15.0441   20.1383 N   0  0  0  0  0  0  0  0  0  0  0  0
   10.6839  -16.2165   21.8068 C   0  0  0  0  0  0  0  0  0  0  0  0
   11.6112  -15.3790   21.6716 O   0  0  0  0  0  0  0  0  0  0  0  0
   10.0411  -17.5025   25.6112 O   0  0  0  0  0  0  0  0  0  0  0  0
   10.9882  -16.5080   25.3807 C   0  0  0  0  0  0  0  0  0  0  0  0
   11.6732  -16.7135   24.0440 C   0  0  2  0  0  0  0  0  0  0  0  0
   10.7064  -16.9875   23.0015 N   0  0  0  0  0  0  0  0  0  0  0  0
   12.7053  -17.7756   24.1373 C   0  0  0  0  0  0  0  0  0  0  0  0
   13.8135  -17.5492   24.9417 O   0  0  0  0  0  0  0  0  0  0  0  0
   12.6104  -18.8493   23.5251 O   0  0  0  0  0  0  0  0  0  0  0  0
  2  3  1  0
  2  1  1  1
  4  2  1  0
  5  4  2  0
  7  6  1  6
  7  8  1  0
  7  9  1  0
  9 11  1  0
  9 10  1  6
 10  4  1  0
 11 12  2  0
 15 14  1  1
 14 13  1  0
 16 15  1  0
 16 11  1  0
 17 18  1  0
 17 15  1  0
 19 17  2  0
M  END
$$$$
