ATS.pdb
     RDKit          3D

 19 18  0  0  1  0  0  0  0  0999 V2000
    8.5935  -17.9405   16.5497 C   0  0  0  0  0  0  0  0  0  0  0  0
    8.5588  -16.4434   16.4514 C   0  0  2  0  0  0  0  0  0  0  0  0
    9.2926  -16.0353   15.2692 N   0  0  0  0  0  0  0  0  0  0  0  0
    9.1814  -15.8444   17.6733 C   0  0  0  0  0  0  0  0  0  0  0  0
   10.4195  -15.6591   17.6996 O   0  0  0  0  0  0  0  0  0  0  0  0
    7.4472  -12.7993   19.5879 C   0  0  0  0  0  0  0  0  0  0  0  0
    7.9142  -13.8973   20.5152 C   0  0  1  0  0  0  0  0  0  0  0  0
    6.8495  -14.6773   20.9645 O   0  0  0  0  0  0  0  0  0  0  0  0
    9.0134  -14.7283   19.9089 C   0  0  2  0  0  0  0  0  0  0  0  0
    8.4386  -15.4705   18.8165 N   0  0  0  0  0  0  0  0  0  0  0  0
    9.6619  -15.6389   20.8411 C   0  0  0  0  0  0  0  0  0  0  0  0
    9.3115  -16.8459   20.8489 O   0  0  0  0  0  0  0  0  0  0  0  0
   13.2880  -16.8737   23.7876 O   0  0  0  0  0  0  0  0  0  0  0  0
   12.6902  -15.8794   23.0174 C   0  0  0  0  0  0  0  0  0  0  0  0
   11.2732  -16.2656   22.6416 C   0  0  2  0  0  0  0  0  0  0  0  0
   10.6802  -15.2771   21.7655 N   0  0  0  0  0  0  0  0  0  0  0  0
   10.4500  -16.4981   23.8542 C   0  0  0  0  0  0  0  0  0  0  0  0
    9.4145  -15.6152   24.1274 O   0  0  0  0  0  0  0  0  0  0  0  0
   10.6557  -17.4474   24.6244 O   0  0  0  0  0  0  0  0  0  0  0  0
  2  3  1  0
  2  1  1  1
  4  2  1  0
  5  4  2  0
  7  6  1  6
  7  8  1  0
  7  9  1  0
  9 11  1  0
  9 10  1  6
 10  4  1  0
 11 12  2  0
 15 14  1  1
 14 13  1  0
 16 15  1  0
 16 11  1  0
 17 18  1  0
 17 15  1  0
 19 17  2  0
M  END
$$$$
