ATS.pdb
     RDKit          3D

 19 18  0  0  1  0  0  0  0  0999 V2000
    9.5404  -19.6064   19.2395 C   0  0  0  0  0  0  0  0  0  0  0  0
    9.0399  -18.2535   18.8255 C   0  0  2  0  0  0  0  0  0  0  0  0
    9.6125  -17.9174   17.5365 N   0  0  0  0  0  0  0  0  0  0  0  0
    9.4410  -17.2348   19.8458 C   0  0  0  0  0  0  0  0  0  0  0  0
   10.5402  -16.6480   19.7235 O   0  0  0  0  0  0  0  0  0  0  0  0
    8.1008  -14.1499   23.4375 C   0  0  0  0  0  0  0  0  0  0  0  0
    7.8265  -15.1208   22.3126 C   0  0  1  0  0  0  0  0  0  0  0  0
    7.2631  -14.4820   21.2089 O   0  0  0  0  0  0  0  0  0  0  0  0
    9.0432  -15.9274   21.9445 C   0  0  2  0  0  0  0  0  0  0  0  0
    8.6358  -16.8932   20.9565 N   0  0  0  0  0  0  0  0  0  0  0  0
    9.6784  -16.6027   23.0667 C   0  0  0  0  0  0  0  0  0  0  0  0
    9.0370  -17.4956   23.6758 O   0  0  0  0  0  0  0  0  0  0  0  0
   13.3632  -15.5206   24.6625 O   0  0  0  0  0  0  0  0  0  0  0  0
   13.0262  -16.8658   24.7898 C   0  0  0  0  0  0  0  0  0  0  0  0
   11.5266  -17.0598   24.6809 C   0  0  2  0  0  0  0  0  0  0  0  0
   10.9901  -16.3366   23.5471 N   0  0  0  0  0  0  0  0  0  0  0  0
   10.8522  -16.6848   25.9484 C   0  0  0  0  0  0  0  0  0  0  0  0
   11.2494  -17.3166   27.1186 O   0  0  0  0  0  0  0  0  0  0  0  0
    9.9532  -15.8325   25.9953 O   0  0  0  0  0  0  0  0  0  0  0  0
  2  3  1  0
  2  1  1  1
  4  2  1  0
  5  4  2  0
  7  6  1  1
  7  8  1  0
  7  9  1  0
  9 11  1  0
  9 10  1  6
 10  4  1  0
 11 12  2  0
 15 14  1  1
 14 13  1  0
 16 15  1  0
 16 11  1  0
 17 18  1  0
 17 15  1  0
 19 17  2  0
M  END
$$$$
