ATS.pdb
     RDKit          3D

 19 18  0  0  1  0  0  0  0  0999 V2000
    8.0502  -18.3969   17.0293 C   0  0  0  0  0  0  0  0  0  0  0  0
    8.1061  -16.9228   16.7532 C   0  0  2  0  0  0  0  0  0  0  0  0
    8.8188  -16.7068   15.5091 N   0  0  0  0  0  0  0  0  0  0  0  0
    8.8111  -16.2273   17.8752 C   0  0  0  0  0  0  0  0  0  0  0  0
   10.0585  -16.1250   17.8425 O   0  0  0  0  0  0  0  0  0  0  0  0
    7.5276  -12.8954   19.6070 C   0  0  0  0  0  0  0  0  0  0  0  0
    7.8799  -13.9639   20.6158 C   0  0  1  0  0  0  0  0  0  0  0  0
    6.7392  -14.5436   21.1693 O   0  0  0  0  0  0  0  0  0  0  0  0
    8.8257  -14.9913   20.0533 C   0  0  2  0  0  0  0  0  0  0  0  0
    8.1369  -15.6710   18.9864 N   0  0  0  0  0  0  0  0  0  0  0  0
    9.3103  -15.9586   21.0271 C   0  0  0  0  0  0  0  0  0  0  0  0
    8.7090  -17.0566   21.1383 O   0  0  0  0  0  0  0  0  0  0  0  0
   13.1231  -15.9783   22.7384 O   0  0  0  0  0  0  0  0  0  0  0  0
   12.3539  -17.1223   22.5414 C   0  0  0  0  0  0  0  0  0  0  0  0
   10.8828  -16.8285   22.7595 C   0  0  2  0  0  0  0  0  0  0  0  0
   10.4292  -15.7683   21.8839 N   0  0  0  0  0  0  0  0  0  0  0  0
   10.6109  -16.5247   24.1863 C   0  0  0  0  0  0  0  0  0  0  0  0
   10.0444  -15.2978   24.5029 O   0  0  0  0  0  0  0  0  0  0  0  0
   10.8711  -17.3247   25.0968 O   0  0  0  0  0  0  0  0  0  0  0  0
  2  3  1  0
  2  1  1  1
  4  2  1  0
  5  4  2  0
  7  6  1  6
  7  8  1  0
  7  9  1  0
  9 11  1  0
  9 10  1  6
 10  4  1  0
 11 12  2  0
 15 14  1  1
 14 13  1  0
 16 15  1  0
 16 11  1  0
 17 18  1  0
 17 15  1  0
 19 17  2  0
M  END
$$$$
