ATS.pdb
     RDKit          3D

 19 18  0  0  1  0  0  0  0  0999 V2000
    8.8569  -17.6176   18.8646 C   0  0  0  0  0  0  0  0  0  0  0  0
    8.0131  -18.7448   19.3839 C   0  0  2  0  0  0  0  0  0  0  0  0
    6.9924  -19.0557   18.4021 N   0  0  0  0  0  0  0  0  0  0  0  0
    7.3753  -18.3417   20.6763 C   0  0  0  0  0  0  0  0  0  0  0  0
    6.9292  -17.1784   20.8004 O   0  0  0  0  0  0  0  0  0  0  0  0
    5.8369  -21.1919   23.2787 C   0  0  0  0  0  0  0  0  0  0  0  0
    5.4290  -19.7383   23.2154 C   0  0  1  0  0  0  0  0  0  0  0  0
    4.6612  -19.3719   24.3199 O   0  0  0  0  0  0  0  0  0  0  0  0
    6.6064  -18.8227   23.0107 C   0  0  2  0  0  0  0  0  0  0  0  0
    7.2466  -19.2142   21.7812 N   0  0  0  0  0  0  0  0  0  0  0  0
    7.5727  -18.8341   24.0993 C   0  0  0  0  0  0  0  0  0  0  0  0
    8.6431  -19.4755   23.9499 O   0  0  0  0  0  0  0  0  0  0  0  0
    9.4242  -17.0652   28.2032 O   0  0  0  0  0  0  0  0  0  0  0  0
    8.4974  -16.9595   27.1693 C   0  0  0  0  0  0  0  0  0  0  0  0
    8.4351  -18.2436   26.3661 C   0  0  2  0  0  0  0  0  0  0  0  0
    7.4104  -18.1691   25.3457 N   0  0  0  0  0  0  0  0  0  0  0  0
    8.2472  -19.4153   27.2571 C   0  0  0  0  0  0  0  0  0  0  0  0
    9.3175  -19.8274   28.0388 O   0  0  0  0  0  0  0  0  0  0  0  0
    7.1744  -20.0326   27.3251 O   0  0  0  0  0  0  0  0  0  0  0  0
  2  3  1  0
  2  1  1  6
  4  2  1  0
  5  4  2  0
  7  6  1  1
  7  8  1  0
  7  9  1  0
  9 11  1  0
  9 10  1  6
 10  4  1  0
 11 12  2  0
 15 14  1  1
 14 13  1  0
 16 15  1  0
 16 11  1  0
 17 18  1  0
 17 15  1  0
 19 17  2  0
M  END
$$$$
