ATS.pdb
     RDKit          3D

 19 18  0  0  1  0  0  0  0  0999 V2000
   11.4427  -16.3446   17.2609 C   0  0  0  0  0  0  0  0  0  0  0  0
    9.9631  -16.1257   17.3840 C   0  0  2  0  0  0  0  0  0  0  0  0
    9.5121  -15.3338   16.2563 N   0  0  0  0  0  0  0  0  0  0  0  0
    9.6652  -15.4106   18.6644 C   0  0  0  0  0  0  0  0  0  0  0  0
   10.0783  -14.2389   18.8199 O   0  0  0  0  0  0  0  0  0  0  0  0
    6.3448  -14.6247   20.0455 C   0  0  0  0  0  0  0  0  0  0  0  0
    7.1083  -15.3752   21.1119 C   0  0  1  0  0  0  0  0  0  0  0  0
    6.6786  -16.6973   21.2166 O   0  0  0  0  0  0  0  0  0  0  0  0
    8.5988  -15.2734   20.9263 C   0  0  2  0  0  0  0  0  0  0  0  0
    8.9323  -15.9929   19.7239 N   0  0  0  0  0  0  0  0  0  0  0  0
    9.3797  -15.7842   22.0435 C   0  0  0  0  0  0  0  0  0  0  0  0
   10.0956  -16.8016   21.8647 O   0  0  0  0  0  0  0  0  0  0  0  0
   10.7764  -15.6719   26.7209 O   0  0  0  0  0  0  0  0  0  0  0  0
   10.0852  -15.0412   25.6895 C   0  0  0  0  0  0  0  0  0  0  0  0
   10.1190  -15.8778   24.4258 C   0  0  2  0  0  0  0  0  0  0  0  0
    9.4058  -15.2223   23.3495 N   0  0  0  0  0  0  0  0  0  0  0  0
    9.6017  -17.2445   24.6833 C   0  0  0  0  0  0  0  0  0  0  0  0
   10.4746  -18.1943   25.1953 O   0  0  0  0  0  0  0  0  0  0  0  0
    8.4249  -17.5626   24.4577 O   0  0  0  0  0  0  0  0  0  0  0  0
  2  3  1  0
  2  1  1  6
  4  2  1  0
  5  4  2  0
  7  6  1  6
  7  8  1  0
  7  9  1  0
  9 11  1  0
  9 10  1  6
 10  4  1  0
 11 12  2  0
 15 14  1  1
 14 13  1  0
 16 15  1  0
 16 11  1  0
 17 18  1  0
 17 15  1  0
 19 17  2  0
M  END
$$$$
