ATS.pdb
     RDKit          3D

 19 18  0  0  1  0  0  0  0  0999 V2000
    8.7968  -12.1013   19.3135 C   0  0  0  0  0  0  0  0  0  0  0  0
    8.7356  -13.5536   18.9401 C   0  0  2  0  0  0  0  0  0  0  0  0
    8.0183  -13.6843   17.6867 N   0  0  0  0  0  0  0  0  0  0  0  0
    8.0321  -14.3203   20.0156 C   0  0  0  0  0  0  0  0  0  0  0  0
    6.7803  -14.3441   20.0297 O   0  0  0  0  0  0  0  0  0  0  0  0
    7.7706  -18.0644   23.0005 C   0  0  0  0  0  0  0  0  0  0  0  0
    8.3552  -17.2103   21.8996 C   0  0  1  0  0  0  0  0  0  0  0  0
    8.0030  -17.6873   20.6378 O   0  0  0  0  0  0  0  0  0  0  0  0
    8.0237  -15.7518   22.0706 C   0  0  2  0  0  0  0  0  0  0  0  0
    8.7124  -15.0299   21.0317 N   0  0  0  0  0  0  0  0  0  0  0  0
    8.3753  -15.2045   23.3727 C   0  0  0  0  0  0  0  0  0  0  0  0
    9.5844  -14.9687   23.6222 O   0  0  0  0  0  0  0  0  0  0  0  0
    5.6234  -14.0639   26.3411 O   0  0  0  0  0  0  0  0  0  0  0  0
    6.8643  -13.4356   26.2733 C   0  0  0  0  0  0  0  0  0  0  0  0
    7.9060  -14.3598   25.6742 C   0  0  2  0  0  0  0  0  0  0  0  0
    7.4521  -14.9055   24.4122 N   0  0  0  0  0  0  0  0  0  0  0  0
    8.2829  -15.4248   26.6363 C   0  0  0  0  0  0  0  0  0  0  0  0
    8.9435  -15.0580   27.8005 O   0  0  0  0  0  0  0  0  0  0  0  0
    8.0290  -16.6214   26.4353 O   0  0  0  0  0  0  0  0  0  0  0  0
  2  3  1  0
  2  1  1  1
  4  2  1  0
  5  4  2  0
  7  6  1  1
  7  8  1  0
  7  9  1  0
  9 11  1  0
  9 10  1  6
 10  4  1  0
 11 12  2  0
 15 14  1  1
 14 13  1  0
 16 15  1  0
 16 11  1  0
 17 18  1  0
 17 15  1  0
 19 17  2  0
M  END
$$$$
