ATS.pdb
     RDKit          3D

 19 18  0  0  1  0  0  0  0  0999 V2000
   -4.3060  -24.9739   23.4602 C   0  0  0  0  0  0  0  0  0  0  0  0
   -5.5085  -24.4169   22.7558 C   0  0  2  0  0  0  0  0  0  0  0  0
   -5.0669  -23.6845   21.5849 N   0  0  0  0  0  0  0  0  0  0  0  0
   -6.2551  -23.5059   23.6788 C   0  0  0  0  0  0  0  0  0  0  0  0
   -5.7861  -22.3723   23.9294 O   0  0  0  0  0  0  0  0  0  0  0  0
   -9.8893  -22.5260   23.2285 C   0  0  0  0  0  0  0  0  0  0  0  0
   -9.6831  -23.0464   24.6321 C   0  0  1  0  0  0  0  0  0  0  0  0
  -10.1792  -24.3411   24.7778 O   0  0  0  0  0  0  0  0  0  0  0  0
   -8.2502  -22.9314   25.0795 C   0  0  2  0  0  0  0  0  0  0  0  0
   -7.4786  -23.8591   24.2928 N   0  0  0  0  0  0  0  0  0  0  0  0
   -8.0409  -23.1881   26.4969 C   0  0  0  0  0  0  0  0  0  0  0  0
   -7.8601  -24.3728   26.8758 O   0  0  0  0  0  0  0  0  0  0  0  0
   -6.5559  -22.0742   30.8741 O   0  0  0  0  0  0  0  0  0  0  0  0
   -6.7348  -21.7251   29.5379 C   0  0  0  0  0  0  0  0  0  0  0  0
   -7.8298  -22.5597   28.9034 C   0  0  2  0  0  0  0  0  0  0  0  0
   -8.0221  -22.1957   27.5152 N   0  0  0  0  0  0  0  0  0  0  0  0
   -9.0885  -22.4603   29.6830 C   0  0  0  0  0  0  0  0  0  0  0  0
   -9.2984  -23.3649   30.7144 O   0  0  0  0  0  0  0  0  0  0  0  0
   -9.9512  -21.6025   29.4447 O   0  0  0  0  0  0  0  0  0  0  0  0
  2  3  1  0
  2  1  1  1
  4  2  1  0
  5  4  2  0
  7  6  1  6
  7  8  1  0
  7  9  1  0
  9 11  1  0
  9 10  1  6
 10  4  1  0
 11 12  2  0
 15 14  1  1
 14 13  1  0
 16 15  1  0
 16 11  1  0
 17 18  1  0
 17 15  1  0
 19 17  2  0
M  END
$$$$
