ATS.pdb
     RDKit          3D

 19 18  0  0  1  0  0  0  0  0999 V2000
   -3.0426  -27.5552   33.7268 C   0  0  0  0  0  0  0  0  0  0  0  0
   -3.8306  -28.4266   32.7931 C   0  0  2  0  0  0  0  0  0  0  0  0
   -2.9681  -29.4820   32.2985 N   0  0  0  0  0  0  0  0  0  0  0  0
   -4.3431  -27.6061   31.6512 C   0  0  0  0  0  0  0  0  0  0  0  0
   -3.5947  -27.3886   30.6713 O   0  0  0  0  0  0  0  0  0  0  0  0
   -7.0572  -28.4938   29.3923 C   0  0  0  0  0  0  0  0  0  0  0  0
   -7.4043  -27.1676   30.0279 C   0  0  1  0  0  0  0  0  0  0  0  0
   -8.3184  -27.3208   31.0692 O   0  0  0  0  0  0  0  0  0  0  0  0
   -6.1809  -26.3995   30.4518 C   0  0  2  0  0  0  0  0  0  0  0  0
   -5.6444  -27.0547   31.6169 N   0  0  0  0  0  0  0  0  0  0  0  0
   -6.4242  -24.9937   30.7404 C   0  0  0  0  0  0  0  0  0  0  0  0
   -6.8633  -24.6772   31.8746 O   0  0  0  0  0  0  0  0  0  0  0  0
   -5.9277  -21.8025   28.0193 O   0  0  0  0  0  0  0  0  0  0  0  0
   -5.5987  -21.6022   29.3576 C   0  0  0  0  0  0  0  0  0  0  0  0
   -6.3773  -22.5461   30.2525 C   0  0  2  0  0  0  0  0  0  0  0  0
   -6.2044  -23.9211   29.8329 N   0  0  0  0  0  0  0  0  0  0  0  0
   -7.8087  -22.1589   30.3101 C   0  0  0  0  0  0  0  0  0  0  0  0
   -8.1440  -20.9637   30.9310 O   0  0  0  0  0  0  0  0  0  0  0  0
   -8.7069  -22.8627   29.8258 O   0  0  0  0  0  0  0  0  0  0  0  0
  2  3  1  0
  2  1  1  1
  4  2  1  0
  5  4  2  0
  7  6  1  1
  7  8  1  0
  7  9  1  0
  9 11  1  0
  9 10  1  1
 10  4  1  0
 11 12  2  0
 15 14  1  6
 14 13  1  0
 16 15  1  0
 16 11  1  0
 17 18  1  0
 17 15  1  0
 19 17  2  0
M  END
$$$$
