RTM.pdb
     RDKit          3D

 27 26  0  0  1  0  0  0  0  0999 V2000
    9.9519  -21.4726   22.5715 N   0  0  0  0  0  0  0  0  0  0  0  0
   10.3659  -22.1640   21.4039 C   0  0  0  0  0  0  0  0  0  0  0  0
    9.6130  -23.0663   20.8557 N   0  0  0  0  0  0  0  0  0  0  0  0
   11.5979  -21.9095   20.7639 N   0  0  0  0  0  0  0  0  0  0  0  0
   12.0278  -20.6223   20.2915 C   0  0  0  0  0  0  0  0  0  0  0  0
   11.2974  -19.4771   20.8931 C   0  0  0  0  0  0  0  0  0  0  0  0
   11.6551  -18.1148   20.4425 C   0  0  0  0  0  0  0  0  0  0  0  0
   10.6383  -17.3934   19.6191 C   0  0  2  0  0  0  0  0  0  0  0  0
   11.2155  -17.1468   18.3248 N   0  0  0  0  0  0  0  0  0  0  0  0
   10.1706  -16.1390   20.2750 C   0  0  0  0  0  0  0  0  0  0  0  0
   10.9233  -15.1382   20.2984 O   0  0  0  0  0  0  0  0  0  0  0  0
    9.9115  -23.6198   20.0409 C   0  0  0  0  0  0  0  0  0  0  0  0
    7.5242  -13.8513   19.3316 C   0  0  2  0  0  0  0  0  0  0  0  0
    7.1714  -14.3065   20.7223 O   0  0  0  0  0  0  0  0  0  0  0  0
    6.2845  -15.3806   20.7137 C   0  0  2  0  0  0  0  0  0  0  0  0
    8.4741  -14.7555   21.4038 N   0  0  0  0  0  0  0  0  0  0  0  0
    8.8972  -16.0155   20.8846 C   0  0  0  0  0  0  0  0  0  0  0  0
    8.2304  -14.8076   22.8827 O   0  0  0  0  0  0  0  0  0  0  0  0
    7.1119  -14.4817   23.3687 C   0  0  0  0  0  0  0  0  0  0  0  0
    7.0865  -10.6645   26.7461 S   0  0  0  0  0  0  0  0  0  0  0  0
    6.1108  -12.1814   26.3842 C   0  0  0  0  0  0  0  0  0  0  0  0
    7.1870  -13.5858   26.4776 C   0  0  0  0  0  0  0  0  0  0  0  0
    7.8761  -14.0231   25.2834 C   0  0  1  0  0  0  0  0  0  0  0  0
    9.1803  -14.7265   25.2426 N   0  0  0  0  0  0  0  0  0  0  0  0
    9.2126  -15.2146   23.7969 C   0  0  0  0  0  0  0  0  0  0  0  0
    9.2251  -16.0088   26.0176 O   0  0  0  0  0  0  0  0  0  0  0  0
    9.2011  -15.9543   27.3198 O   0  0  0  0  0  0  0  0  0  0  0  0
  2  3  2  0
  2  1  1  0
  4  2  1  0
  5  4  1  0
  6  5  1  0
  7  6  1  0
  8 10  1  0
  8  7  1  0
  8  9  1  6
 10 16  1  0
 10 11  2  0
 13 12  1  1
 13 14  1  0
 15 13  1  0
 15 16  1  1
 17 18  2  0
 17 15  1  0
 19 20  1  0
 21 20  1  0
 23 22  1  6
 22 21  1  0
 23 24  1  0
 24 17  1  0
 25 23  1  0
 26 25  2  0
 27 25  1  0
M  END
$$$$
