RTM.pdb
     RDKit          3D

 27 26  0  0  1  0  0  0  0  0999 V2000
   13.2839  -21.1212   22.7761 N   0  0  0  0  0  0  0  0  0  0  0  0
   14.3308  -21.0412   21.8221 C   0  0  0  0  0  0  0  0  0  0  0  0
   15.0469  -22.0800   21.5226 N   0  0  0  0  0  0  0  0  0  0  0  0
   14.6475  -19.8489   21.1363 N   0  0  0  0  0  0  0  0  0  0  0  0
   13.7037  -18.8187   20.8006 C   0  0  0  0  0  0  0  0  0  0  0  0
   12.4982  -19.3068   20.0827 C   0  0  0  0  0  0  0  0  0  0  0  0
   11.2025  -18.6634   20.3892 C   0  0  0  0  0  0  0  0  0  0  0  0
   10.7009  -17.6633   19.3991 C   0  0  2  0  0  0  0  0  0  0  0  0
   11.7587  -17.4073   18.4585 N   0  0  0  0  0  0  0  0  0  0  0  0
   10.2176  -16.4153   20.0559 C   0  0  0  0  0  0  0  0  0  0  0  0
   11.0080  -15.4567   20.2150 O   0  0  0  0  0  0  0  0  0  0  0  0
   15.8406  -22.0387   20.8687 C   0  0  0  0  0  0  0  0  0  0  0  0
    7.3513  -13.9472   19.3784 C   0  0  2  0  0  0  0  0  0  0  0  0
    7.1494  -14.5622   20.7373 O   0  0  0  0  0  0  0  0  0  0  0  0
    6.2691  -15.6411   20.6995 C   0  0  2  0  0  0  0  0  0  0  0  0
    8.5182  -15.0668   21.2220 N   0  0  0  0  0  0  0  0  0  0  0  0
    8.8881  -16.2518   20.5185 C   0  0  0  0  0  0  0  0  0  0  0  0
    8.4322  -15.2927   22.7022 O   0  0  0  0  0  0  0  0  0  0  0  0
    8.6983  -16.4201   23.2038 C   0  0  0  0  0  0  0  0  0  0  0  0
    6.5249  -11.1999   29.2523 S   0  0  0  0  0  0  0  0  0  0  0  0
    6.7654  -11.2885   27.4307 C   0  0  0  0  0  0  0  0  0  0  0  0
    7.2134  -12.9467   26.9960 C   0  0  0  0  0  0  0  0  0  0  0  0
    7.5357  -13.2489   25.6187 C   0  0  1  0  0  0  0  0  0  0  0  0
    7.9579  -14.5703   25.0962 N   0  0  0  0  0  0  0  0  0  0  0  0
    8.0587  -14.2831   23.6006 C   0  0  0  0  0  0  0  0  0  0  0  0
    6.9014  -15.6323   25.1507 O   0  0  0  0  0  0  0  0  0  0  0  0
    6.8807  -16.4428   26.1715 O   0  0  0  0  0  0  0  0  0  0  0  0
  2  3  2  0
  2  1  1  0
  4  2  1  0
  5  4  1  0
  6  5  1  0
  7  6  1  0
  8 10  1  0
  8  7  1  0
  8  9  1  6
 10 16  1  0
 10 11  2  0
 13 12  1  1
 13 14  1  0
 15 13  1  0
 15 16  1  1
 17 18  2  0
 17 15  1  0
 19 20  1  0
 21 20  1  0
 23 22  1  1
 22 21  1  0
 23 24  1  0
 24 17  1  0
 25 23  1  0
 26 25  2  0
 27 25  1  0
M  END
$$$$
