RTM.pdb
     RDKit          3D

 27 26  0  0  1  0  0  0  0  0999 V2000
   11.9749  -21.8449   23.2906 N   0  0  0  0  0  0  0  0  0  0  0  0
   10.9383  -22.4405   22.5268 C   0  0  0  0  0  0  0  0  0  0  0  0
   11.1010  -23.5952   21.9596 N   0  0  0  0  0  0  0  0  0  0  0  0
    9.6770  -21.8324   22.3489 N   0  0  0  0  0  0  0  0  0  0  0  0
    9.2412  -21.1819   21.1439 C   0  0  0  0  0  0  0  0  0  0  0  0
   10.2766  -20.3328   20.5009 C   0  0  0  0  0  0  0  0  0  0  0  0
   10.3890  -18.9257   20.9416 C   0  0  0  0  0  0  0  0  0  0  0  0
    9.5755  -17.9221   20.1912 C   0  0  2  0  0  0  0  0  0  0  0  0
   10.0478  -17.9007   18.8326 N   0  0  0  0  0  0  0  0  0  0  0  0
    9.6222  -16.5733   20.8244 C   0  0  0  0  0  0  0  0  0  0  0  0
   10.3610  -15.6880   20.3353 O   0  0  0  0  0  0  0  0  0  0  0  0
   10.3851  -24.0251   21.3579 C   0  0  0  0  0  0  0  0  0  0  0  0
    7.6805  -12.7194   21.6866 C   0  0  2  0  0  0  0  0  0  0  0  0
    8.0415  -14.0857   21.1684 O   0  0  0  0  0  0  0  0  0  0  0  0
    8.9538  -14.0243   20.1176 C   0  0  1  0  0  0  0  0  0  0  0  0
    8.6857  -14.8623   22.3283 N   0  0  0  0  0  0  0  0  0  0  0  0
    8.8620  -16.2324   21.9709 C   0  0  0  0  0  0  0  0  0  0  0  0
    7.8116  -14.7021   23.5364 O   0  0  0  0  0  0  0  0  0  0  0  0
    6.5934  -15.0315   23.5052 C   0  0  0  0  0  0  0  0  0  0  0  0
   10.2753  -12.5635   29.1540 S   0  0  0  0  0  0  0  0  0  0  0  0
   10.5173  -14.3457   28.7679 C   0  0  0  0  0  0  0  0  0  0  0  0
    9.4600  -14.7835   27.4152 C   0  0  0  0  0  0  0  0  0  0  0  0
    8.3732  -13.8982   27.0583 C   0  0  2  0  0  0  0  0  0  0  0  0
    7.3836  -14.1305   25.9794 N   0  0  0  0  0  0  0  0  0  0  0  0
    8.2872  -14.1870   24.7507 C   0  0  0  0  0  0  0  0  0  0  0  0
    6.4997  -12.9583   25.6768 O   0  0  0  0  0  0  0  0  0  0  0  0
    6.8890  -12.0958   24.7802 O   0  0  0  0  0  0  0  0  0  0  0  0
  2  3  2  0
  2  1  1  0
  4  2  1  0
  5  4  1  0
  6  5  1  0
  7  6  1  0
  8 10  1  0
  8  7  1  0
  8  9  1  6
 10 16  1  0
 10 11  2  0
 13 12  1  6
 13 14  1  0
 15 13  1  0
 15 16  1  6
 17 18  2  0
 17 15  1  0
 19 20  1  0
 21 20  1  0
 23 22  1  1
 22 21  1  0
 23 24  1  0
 24 17  1  0
 25 23  1  0
 26 25  2  0
 27 25  1  0
M  END
$$$$
