RTM.pdb
     RDKit          3D

 27 26  0  0  1  0  0  0  0  0999 V2000
    7.9089  -13.3343   15.7307 N   0  0  0  0  0  0  0  0  0  0  0  0
    8.2892  -13.4413   17.0933 C   0  0  0  0  0  0  0  0  0  0  0  0
    8.3602  -12.3940   17.8546 N   0  0  0  0  0  0  0  0  0  0  0  0
    8.5963  -14.6761   17.7042 N   0  0  0  0  0  0  0  0  0  0  0  0
    7.6244  -15.6233   18.1766 C   0  0  0  0  0  0  0  0  0  0  0  0
    6.8544  -15.1665   19.3621 C   0  0  0  0  0  0  0  0  0  0  0  0
    7.3131  -15.6075   20.6969 C   0  0  0  0  0  0  0  0  0  0  0  0
    8.0218  -16.9213   20.7610 C   0  0  2  0  0  0  0  0  0  0  0  0
    7.1360  -17.9247   20.2341 N   0  0  0  0  0  0  0  0  0  0  0  0
    8.4818  -17.2455   22.1414 C   0  0  0  0  0  0  0  0  0  0  0  0
    7.6405  -17.5675   23.0117 O   0  0  0  0  0  0  0  0  0  0  0  0
    8.7204  -12.4300   18.8181 C   0  0  0  0  0  0  0  0  0  0  0  0
   11.4154  -19.4496   23.0259 C   0  0  2  0  0  0  0  0  0  0  0  0
   11.5471  -18.2487   23.9237 O   0  0  0  0  0  0  0  0  0  0  0  0
   12.5565  -17.3863   23.5020 C   0  0  2  0  0  0  0  0  0  0  0  0
   10.2096  -17.4921   23.8793 N   0  0  0  0  0  0  0  0  0  0  0  0
    9.8443  -17.2084   22.5295 C   0  0  0  0  0  0  0  0  0  0  0  0
   10.3544  -16.2445   24.6990 O   0  0  0  0  0  0  0  0  0  0  0  0
   10.4503  -15.1128   24.1482 C   0  0  0  0  0  0  0  0  0  0  0  0
    6.6867  -11.4009   28.0692 S   0  0  0  0  0  0  0  0  0  0  0  0
    7.8633  -12.2343   26.9270 C   0  0  0  0  0  0  0  0  0  0  0  0
    7.5560  -13.9788   26.9670 C   0  0  0  0  0  0  0  0  0  0  0  0
    8.5449  -14.8789   26.4156 C   0  0  1  0  0  0  0  0  0  0  0  0
    9.9340  -15.0469   26.9051 N   0  0  0  0  0  0  0  0  0  0  0  0
   10.3906  -16.2609   26.1006 C   0  0  0  0  0  0  0  0  0  0  0  0
   10.0458  -15.5350   28.3180 O   0  0  0  0  0  0  0  0  0  0  0  0
   10.3182  -14.6739   29.2580 O   0  0  0  0  0  0  0  0  0  0  0  0
  2  3  2  0
  2  1  1  0
  4  2  1  0
  5  4  1  0
  6  5  1  0
  7  6  1  0
  8 10  1  0
  8  7  1  0
  8  9  1  1
 10 16  1  0
 10 11  2  0
 13 12  1  1
 13 14  1  0
 15 13  1  0
 15 16  1  1
 17 18  2  0
 17 15  1  0
 19 20  1  0
 21 20  1  0
 23 22  1  6
 22 21  1  0
 23 24  1  0
 24 17  1  0
 25 23  1  0
 26 25  2  0
 27 25  1  0
M  END
$$$$
