RTM.pdb
     RDKit          3D

 27 26  0  0  1  0  0  0  0  0999 V2000
    8.7583  -13.9161   13.6005 N   0  0  0  0  0  0  0  0  0  0  0  0
    8.0880  -14.8392   14.4438 C   0  0  0  0  0  0  0  0  0  0  0  0
    7.9736  -16.0883   14.1149 N   0  0  0  0  0  0  0  0  0  0  0  0
    7.5232  -14.4683   15.6830 N   0  0  0  0  0  0  0  0  0  0  0  0
    7.6228  -13.1618   16.2731 C   0  0  0  0  0  0  0  0  0  0  0  0
    8.5477  -13.0858   17.4331 C   0  0  0  0  0  0  0  0  0  0  0  0
    8.2657  -13.9487   18.6005 C   0  0  0  0  0  0  0  0  0  0  0  0
    9.2701  -13.9281   19.7063 C   0  0  2  0  0  0  0  0  0  0  0  0
   10.5461  -14.2879   19.1480 N   0  0  0  0  0  0  0  0  0  0  0  0
    8.8799  -14.8175   20.8373 C   0  0  0  0  0  0  0  0  0  0  0  0
    7.8698  -14.5362   21.5224 O   0  0  0  0  0  0  0  0  0  0  0  0
    7.5372  -16.7880   14.7308 C   0  0  0  0  0  0  0  0  0  0  0  0
    9.4803  -18.8228   21.0670 C   0  0  2  0  0  0  0  0  0  0  0  0
    9.9150  -18.1152   22.3223 O   0  0  0  0  0  0  0  0  0  0  0  0
   11.2936  -17.9205   22.3645 C   0  0  2  0  0  0  0  0  0  0  0  0
    9.2279  -16.7401   22.3370 N   0  0  0  0  0  0  0  0  0  0  0  0
    9.6032  -15.9854   21.1856 C   0  0  0  0  0  0  0  0  0  0  0  0
    9.6032  -16.0471   23.6130 O   0  0  0  0  0  0  0  0  0  0  0  0
   10.3355  -15.0190   23.6028 C   0  0  0  0  0  0  0  0  0  0  0  0
    6.2360  -11.3898   27.8993 S   0  0  0  0  0  0  0  0  0  0  0  0
    6.6782  -12.3808   26.4140 C   0  0  0  0  0  0  0  0  0  0  0  0
    7.5846  -13.8117   26.9340 C   0  0  0  0  0  0  0  0  0  0  0  0
    8.1187  -14.7072   25.9315 C   0  0  1  0  0  0  0  0  0  0  0  0
    9.2947  -15.5941   26.0985 N   0  0  0  0  0  0  0  0  0  0  0  0
    9.1700  -16.4916   24.8703 C   0  0  0  0  0  0  0  0  0  0  0  0
    9.1850  -16.5742   27.2273 O   0  0  0  0  0  0  0  0  0  0  0  0
    9.4403  -16.1652   28.4384 O   0  0  0  0  0  0  0  0  0  0  0  0
  2  3  2  0
  2  1  1  0
  4  2  1  0
  5  4  1  0
  6  5  1  0
  7  6  1  0
  8 10  1  0
  8  7  1  0
  8  9  1  6
 10 16  1  0
 10 11  2  0
 13 12  1  1
 13 14  1  0
 15 13  1  0
 15 16  1  1
 17 18  2  0
 17 15  1  0
 19 20  1  0
 21 20  1  0
 23 22  1  6
 22 21  1  0
 23 24  1  0
 24 17  1  0
 25 23  1  0
 26 25  2  0
 27 25  1  0
M  END
$$$$
