RTM.pdb
     RDKit          3D

 27 26  0  0  1  0  0  0  0  0999 V2000
    9.4385  -13.6714   15.8785 N   0  0  0  0  0  0  0  0  0  0  0  0
    8.9423  -14.2664   14.6901 C   0  0  0  0  0  0  0  0  0  0  0  0
    8.3790  -13.5518   13.7662 N   0  0  0  0  0  0  0  0  0  0  0  0
    9.0404  -15.6507   14.4324 N   0  0  0  0  0  0  0  0  0  0  0  0
    9.6631  -16.6069   15.3058 C   0  0  0  0  0  0  0  0  0  0  0  0
    9.3567  -16.4073   16.7456 C   0  0  0  0  0  0  0  0  0  0  0  0
   10.4469  -15.9347   17.6259 C   0  0  0  0  0  0  0  0  0  0  0  0
   10.5062  -16.5281   18.9958 C   0  0  2  0  0  0  0  0  0  0  0  0
    9.7864  -17.7733   18.9669 N   0  0  0  0  0  0  0  0  0  0  0  0
    9.9799  -15.5979   20.0350 C   0  0  0  0  0  0  0  0  0  0  0  0
   10.4928  -14.4623   20.1625 O   0  0  0  0  0  0  0  0  0  0  0  0
    8.1202  -13.9351   12.8468 C   0  0  0  0  0  0  0  0  0  0  0  0
    6.6921  -13.9800   20.3769 C   0  0  2  0  0  0  0  0  0  0  0  0
    6.8936  -14.7852   21.6325 O   0  0  0  0  0  0  0  0  0  0  0  0
    6.3034  -16.0442   21.5490 C   0  0  2  0  0  0  0  0  0  0  0  0
    8.4079  -14.9685   21.8236 N   0  0  0  0  0  0  0  0  0  0  0  0
    8.9111  -15.9350   20.9025 C   0  0  0  0  0  0  0  0  0  0  0  0
    8.6512  -15.3668   23.2489 O   0  0  0  0  0  0  0  0  0  0  0  0
    9.1910  -16.4724   23.5313 C   0  0  0  0  0  0  0  0  0  0  0  0
    7.0919  -10.5332   26.8547 S   0  0  0  0  0  0  0  0  0  0  0  0
    6.1276  -12.0135   27.3672 C   0  0  0  0  0  0  0  0  0  0  0  0
    7.2148  -13.4117   27.4166 C   0  0  0  0  0  0  0  0  0  0  0  0
    7.1528  -14.3874   26.3507 C   0  0  2  0  0  0  0  0  0  0  0  0
    8.3101  -15.0983   25.7568 N   0  0  0  0  0  0  0  0  0  0  0  0
    8.3006  -14.5493   24.3327 C   0  0  0  0  0  0  0  0  0  0  0  0
    8.0990  -16.5662   25.5385 O   0  0  0  0  0  0  0  0  0  0  0  0
    7.3215  -16.9488   24.5646 O   0  0  0  0  0  0  0  0  0  0  0  0
  2  3  2  0
  2  1  1  0
  4  2  1  0
  5  4  1  0
  6  5  1  0
  7  6  1  0
  8 10  1  0
  8  7  1  0
  8  9  1  6
 10 16  1  0
 10 11  2  0
 13 12  1  1
 13 14  1  0
 15 13  1  0
 15 16  1  1
 17 18  2  0
 17 15  1  0
 19 20  1  0
 21 20  1  0
 23 22  1  1
 22 21  1  0
 23 24  1  0
 24 17  1  0
 25 23  1  0
 26 25  2  0
 27 25  1  0
M  END
$$$$
