RTM.pdb
     RDKit          3D

 27 26  0  0  1  0  0  0  0  0999 V2000
    9.6621  -13.8963   19.2184 N   0  0  0  0  0  0  0  0  0  0  0  0
    9.1272  -12.6027   18.9877 C   0  0  0  0  0  0  0  0  0  0  0  0
    9.8845  -11.6212   18.6074 N   0  0  0  0  0  0  0  0  0  0  0  0
    7.7555  -12.3069   19.1403 N   0  0  0  0  0  0  0  0  0  0  0  0
    6.7935  -13.1708   19.7673 C   0  0  0  0  0  0  0  0  0  0  0  0
    7.1496  -14.6124   19.7243 C   0  0  0  0  0  0  0  0  0  0  0  0
    7.5186  -15.2720   20.9953 C   0  0  0  0  0  0  0  0  0  0  0  0
    7.7696  -16.7437   20.9376 C   0  0  2  0  0  0  0  0  0  0  0  0
    6.5819  -17.3724   20.4244 N   0  0  0  0  0  0  0  0  0  0  0  0
    8.1725  -17.2980   22.2615 C   0  0  0  0  0  0  0  0  0  0  0  0
    7.2927  -17.7227   23.0454 O   0  0  0  0  0  0  0  0  0  0  0  0
    9.5482  -10.6504   18.5468 C   0  0  0  0  0  0  0  0  0  0  0  0
   11.5477  -18.9418   25.3831 C   0  0  1  0  0  0  0  0  0  0  0  0
   11.3297  -18.2249   24.0778 O   0  0  0  0  0  0  0  0  0  0  0  0
   11.6752  -19.0128   22.9822 C   0  0  1  0  0  0  0  0  0  0  0  0
    9.8330  -17.8872   23.9825 N   0  0  0  0  0  0  0  0  0  0  0  0
    9.5217  -17.3719   22.6889 C   0  0  0  0  0  0  0  0  0  0  0  0
    9.5071  -16.9101   25.0727 O   0  0  0  0  0  0  0  0  0  0  0  0
    8.4398  -17.0122   25.7389 C   0  0  0  0  0  0  0  0  0  0  0  0
    5.8265  -11.1685   26.2948 S   0  0  0  0  0  0  0  0  0  0  0  0
    6.4037  -12.7881   25.6408 C   0  0  0  0  0  0  0  0  0  0  0  0
    7.9442  -13.1977   26.4143 C   0  0  0  0  0  0  0  0  0  0  0  0
    8.6250  -14.4126   26.0236 C   0  0  2  0  0  0  0  0  0  0  0  0
    9.9580  -14.8519   26.5005 N   0  0  0  0  0  0  0  0  0  0  0  0
   10.3538  -15.8449   25.4110 C   0  0  0  0  0  0  0  0  0  0  0  0
    9.9323  -15.7121   27.7278 O   0  0  0  0  0  0  0  0  0  0  0  0
    9.7604  -15.1427   28.8878 O   0  0  0  0  0  0  0  0  0  0  0  0
  2  3  2  0
  2  1  1  0
  4  2  1  0
  5  4  1  0
  6  5  1  0
  7  6  1  0
  8 10  1  0
  8  7  1  0
  8  9  1  1
 10 16  1  0
 10 11  2  0
 13 12  1  1
 13 14  1  0
 15 13  1  0
 15 16  1  1
 17 18  2  0
 17 15  1  0
 19 20  1  0
 21 20  1  0
 23 22  1  6
 22 21  1  0
 23 24  1  0
 24 17  1  0
 25 23  1  0
 26 25  2  0
 27 25  1  0
M  END
$$$$
