RTM.pdb
     RDKit          3D

 27 26  0  0  1  0  0  0  0  0999 V2000
   15.8717  -19.0330   18.3823 N   0  0  0  0  0  0  0  0  0  0  0  0
   16.2140  -19.1440   19.7546 C   0  0  0  0  0  0  0  0  0  0  0  0
   17.1674  -19.9304   20.1472 N   0  0  0  0  0  0  0  0  0  0  0  0
   15.5600  -18.4069   20.7652 N   0  0  0  0  0  0  0  0  0  0  0  0
   14.1822  -18.0006   20.7247 C   0  0  0  0  0  0  0  0  0  0  0  0
   13.7128  -17.5704   19.3825 C   0  0  0  0  0  0  0  0  0  0  0  0
   12.2861  -17.2122   19.2305 C   0  0  0  0  0  0  0  0  0  0  0  0
   11.2888  -18.2388   19.6593 C   0  0  2  0  0  0  0  0  0  0  0  0
   10.7168  -18.8181   18.4734 N   0  0  0  0  0  0  0  0  0  0  0  0
   10.2503  -17.6701   20.5651 C   0  0  0  0  0  0  0  0  0  0  0  0
    9.3366  -16.9599   20.0859 O   0  0  0  0  0  0  0  0  0  0  0  0
   17.4755  -19.9845   21.1277 C   0  0  0  0  0  0  0  0  0  0  0  0
    7.6913  -19.2808   22.1542 C   0  0  2  0  0  0  0  0  0  0  0  0
    8.3400  -18.5835   23.3198 O   0  0  0  0  0  0  0  0  0  0  0  0
    9.2006  -19.4244   24.0216 C   0  0  2  0  0  0  0  0  0  0  0  0
    9.1573  -17.4095   22.7568 N   0  0  0  0  0  0  0  0  0  0  0  0
   10.2407  -17.8937   21.9645 C   0  0  0  0  0  0  0  0  0  0  0  0
    9.6303  -16.5771   23.9113 O   0  0  0  0  0  0  0  0  0  0  0  0
   10.8407  -16.5911   24.2695 C   0  0  0  0  0  0  0  0  0  0  0  0
    5.8084  -11.9281   25.6679 S   0  0  0  0  0  0  0  0  0  0  0  0
    7.0602  -11.6236   26.9809 C   0  0  0  0  0  0  0  0  0  0  0  0
    8.0525  -13.0794   27.1695 C   0  0  0  0  0  0  0  0  0  0  0  0
    8.1778  -13.9930   26.0553 C   0  0  1  0  0  0  0  0  0  0  0  0
    9.2962  -14.9397   25.8310 N   0  0  0  0  0  0  0  0  0  0  0  0
    8.7717  -15.7484   24.6476 C   0  0  0  0  0  0  0  0  0  0  0  0
    9.4539  -15.9861   26.8928 O   0  0  0  0  0  0  0  0  0  0  0  0
    8.7024  -17.0499   26.8397 O   0  0  0  0  0  0  0  0  0  0  0  0
  2  3  2  0
  2  1  1  0
  4  2  1  0
  5  4  1  0
  6  5  1  0
  7  6  1  0
  8 10  1  0
  8  7  1  0
  8  9  1  6
 10 16  1  0
 10 11  2  0
 13 12  1  1
 13 14  1  0
 15 13  1  0
 15 16  1  1
 17 18  2  0
 17 15  1  0
 19 20  1  0
 21 20  1  0
 23 22  1  6
 22 21  1  0
 23 24  1  0
 24 17  1  0
 25 23  1  0
 26 25  2  0
 27 25  1  0
M  END
$$$$
