RTM.pdb
     RDKit          3D

 27 26  0  0  1  0  0  0  0  0999 V2000
   15.2601  -20.1560   18.6209 N   0  0  0  0  0  0  0  0  0  0  0  0
   14.8027  -20.2240   17.2797 C   0  0  0  0  0  0  0  0  0  0  0  0
   15.5278  -20.7635   16.3498 N   0  0  0  0  0  0  0  0  0  0  0  0
   13.5429  -19.7302   16.8781 N   0  0  0  0  0  0  0  0  0  0  0  0
   12.7468  -18.8005   17.6310 C   0  0  0  0  0  0  0  0  0  0  0  0
   13.1929  -18.6139   19.0356 C   0  0  0  0  0  0  0  0  0  0  0  0
   12.4247  -17.6806   19.8874 C   0  0  0  0  0  0  0  0  0  0  0  0
   11.0314  -17.3665   19.4488 C   0  0  2  0  0  0  0  0  0  0  0  0
   11.0549  -17.1586   18.0256 N   0  0  0  0  0  0  0  0  0  0  0  0
   10.4618  -16.1981   20.1787 C   0  0  0  0  0  0  0  0  0  0  0  0
   11.0722  -15.1045   20.1633 O   0  0  0  0  0  0  0  0  0  0  0  0
   15.2570  -20.7529   15.3569 C   0  0  0  0  0  0  0  0  0  0  0  0
    7.5075  -14.0876   19.7626 C   0  0  2  0  0  0  0  0  0  0  0  0
    7.3619  -14.7312   21.1154 O   0  0  0  0  0  0  0  0  0  0  0  0
    6.5882  -15.8885   21.0655 C   0  0  2  0  0  0  0  0  0  0  0  0
    8.7714  -15.1078   21.6000 N   0  0  0  0  0  0  0  0  0  0  0  0
    9.2449  -16.2590   20.9026 C   0  0  0  0  0  0  0  0  0  0  0  0
    8.7087  -15.3315   23.0816 O   0  0  0  0  0  0  0  0  0  0  0  0
    9.1688  -16.3869   23.5993 C   0  0  0  0  0  0  0  0  0  0  0  0
    6.9805  -10.4366   27.1575 S   0  0  0  0  0  0  0  0  0  0  0  0
    5.8979  -11.8352   27.6629 C   0  0  0  0  0  0  0  0  0  0  0  0
    6.7122  -13.3577   27.2649 C   0  0  0  0  0  0  0  0  0  0  0  0
    7.1843  -13.5693   25.9142 C   0  0  1  0  0  0  0  0  0  0  0  0
    7.9777  -14.7299   25.4442 N   0  0  0  0  0  0  0  0  0  0  0  0
    8.1462  -14.3982   23.9640 C   0  0  0  0  0  0  0  0  0  0  0  0
    7.2264  -16.0263   25.4012 O   0  0  0  0  0  0  0  0  0  0  0  0
    7.3721  -16.8672   26.3866 O   0  0  0  0  0  0  0  0  0  0  0  0
  2  3  2  0
  2  1  1  0
  4  2  1  0
  5  4  1  0
  6  5  1  0
  7  6  1  0
  8 10  1  0
  8  7  1  0
  8  9  1  6
 10 16  1  0
 10 11  2  0
 13 12  1  1
 13 14  1  0
 15 13  1  0
 15 16  1  1
 17 18  2  0
 17 15  1  0
 19 20  1  0
 21 20  1  0
 23 22  1  1
 22 21  1  0
 23 24  1  0
 24 17  1  0
 25 23  1  0
 26 25  2  0
 27 25  1  0
M  END
$$$$
