RTM.pdb
     RDKit          3D

 27 26  0  0  1  0  0  0  0  0999 V2000
   13.6360  -15.5353   17.4762 N   0  0  0  0  0  0  0  0  0  0  0  0
   14.0413  -14.7923   18.6148 C   0  0  0  0  0  0  0  0  0  0  0  0
   15.1759  -14.1650   18.6380 N   0  0  0  0  0  0  0  0  0  0  0  0
   13.2429  -14.6765   19.7730 N   0  0  0  0  0  0  0  0  0  0  0  0
   11.8133  -14.5314   19.7743 C   0  0  0  0  0  0  0  0  0  0  0  0
   11.3026  -13.5181   18.8154 C   0  0  0  0  0  0  0  0  0  0  0  0
    9.8683  -13.1642   18.8813 C   0  0  0  0  0  0  0  0  0  0  0  0
    8.8941  -14.2674   18.6242 C   0  0  2  0  0  0  0  0  0  0  0  0
    7.9673  -13.8109   17.6232 N   0  0  0  0  0  0  0  0  0  0  0  0
    8.2045  -14.7104   19.8693 C   0  0  0  0  0  0  0  0  0  0  0  0
    7.2068  -14.0748   20.2808 O   0  0  0  0  0  0  0  0  0  0  0  0
   15.4804  -13.5955   19.4394 C   0  0  0  0  0  0  0  0  0  0  0  0
    6.7820  -18.0386   20.7715 C   0  0  2  0  0  0  0  0  0  0  0  0
    7.6980  -17.6810   21.9110 O   0  0  0  0  0  0  0  0  0  0  0  0
    8.9232  -18.3384   21.8257 C   0  0  2  0  0  0  0  0  0  0  0  0
    7.9517  -16.1665   21.8397 N   0  0  0  0  0  0  0  0  0  0  0  0
    8.6244  -15.8324   20.6265 C   0  0  0  0  0  0  0  0  0  0  0  0
    8.7423  -15.7705   23.0510 O   0  0  0  0  0  0  0  0  0  0  0  0
    9.9497  -15.4159   22.9513 C   0  0  0  0  0  0  0  0  0  0  0  0
    5.5339  -12.3835   26.7256 S   0  0  0  0  0  0  0  0  0  0  0  0
    7.1420  -12.0343   27.5478 C   0  0  0  0  0  0  0  0  0  0  0  0
    8.2510  -13.3771   27.2218 C   0  0  0  0  0  0  0  0  0  0  0  0
    8.0663  -14.1653   26.0231 C   0  0  1  0  0  0  0  0  0  0  0  0
    8.9891  -15.2114   25.5218 N   0  0  0  0  0  0  0  0  0  0  0  0
    8.1970  -15.7700   24.3428 C   0  0  0  0  0  0  0  0  0  0  0  0
    9.1253  -16.4074   26.4151 O   0  0  0  0  0  0  0  0  0  0  0  0
    8.2871  -17.3952   26.2706 O   0  0  0  0  0  0  0  0  0  0  0  0
  2  3  2  0
  2  1  1  0
  4  2  1  0
  5  4  1  0
  6  5  1  0
  7  6  1  0
  8 10  1  0
  8  7  1  0
  8  9  1  6
 10 16  1  0
 10 11  2  0
 13 12  1  1
 13 14  1  0
 15 13  1  0
 15 16  1  1
 17 18  2  0
 17 15  1  0
 19 20  1  0
 21 20  1  0
 23 22  1  6
 22 21  1  0
 23 24  1  0
 24 17  1  0
 25 23  1  0
 26 25  2  0
 27 25  1  0
M  END
$$$$
