RTM.pdb
     RDKit          3D

 27 26  0  0  1  0  0  0  0  0999 V2000
    7.3681  -13.7374   15.5430 N   0  0  0  0  0  0  0  0  0  0  0  0
    8.6548  -13.9917   16.0837 C   0  0  0  0  0  0  0  0  0  0  0  0
    9.4956  -14.7710   15.4775 N   0  0  0  0  0  0  0  0  0  0  0  0
    9.1031  -13.4115   17.2897 N   0  0  0  0  0  0  0  0  0  0  0  0
    8.2563  -12.7693   18.2569 C   0  0  0  0  0  0  0  0  0  0  0  0
    7.1680  -13.6327   18.7831 C   0  0  0  0  0  0  0  0  0  0  0  0
    7.4459  -14.4358   19.9934 C   0  0  0  0  0  0  0  0  0  0  0  0
    7.6719  -15.8984   19.7890 C   0  0  2  0  0  0  0  0  0  0  0  0
    6.4701  -16.4546   19.2271 N   0  0  0  0  0  0  0  0  0  0  0  0
    8.0751  -16.5867   21.0484 C   0  0  0  0  0  0  0  0  0  0  0  0
    7.1926  -16.9806   21.8452 O   0  0  0  0  0  0  0  0  0  0  0  0
    9.3296  -15.1393   14.5308 C   0  0  0  0  0  0  0  0  0  0  0  0
   11.2849  -18.8376   23.9202 C   0  0  2  0  0  0  0  0  0  0  0  0
   11.0526  -18.2024   22.5755 O   0  0  0  0  0  0  0  0  0  0  0  0
   10.9186  -19.1502   21.5635 C   0  0  1  0  0  0  0  0  0  0  0  0
    9.7457  -17.3981   22.6661 N   0  0  0  0  0  0  0  0  0  0  0  0
    9.4276  -16.8237   21.3993 C   0  0  0  0  0  0  0  0  0  0  0  0
    9.9145  -16.3564   23.7318 O   0  0  0  0  0  0  0  0  0  0  0  0
   10.6902  -15.3748   23.5637 C   0  0  0  0  0  0  0  0  0  0  0  0
    6.2619  -11.0995   27.4053 S   0  0  0  0  0  0  0  0  0  0  0  0
    6.6291  -12.3398   26.0973 C   0  0  0  0  0  0  0  0  0  0  0  0
    7.3981  -13.7482   26.8485 C   0  0  0  0  0  0  0  0  0  0  0  0
    7.9173  -14.7997   26.0019 C   0  0  1  0  0  0  0  0  0  0  0  0
    9.3269  -15.2556   25.9501 N   0  0  0  0  0  0  0  0  0  0  0  0
    9.2324  -16.4096   24.9557 C   0  0  0  0  0  0  0  0  0  0  0  0
    9.8104  -15.9392   27.1934 O   0  0  0  0  0  0  0  0  0  0  0  0
    9.5330  -17.2018   27.3617 O   0  0  0  0  0  0  0  0  0  0  0  0
  2  3  2  0
  2  1  1  0
  4  2  1  0
  5  4  1  0
  6  5  1  0
  7  6  1  0
  8 10  1  0
  8  7  1  0
  8  9  1  1
 10 16  1  0
 10 11  2  0
 13 12  1  6
 13 14  1  0
 15 13  1  0
 15 16  1  6
 17 18  2  0
 17 15  1  0
 19 20  1  0
 21 20  1  0
 23 22  1  6
 22 21  1  0
 23 24  1  0
 24 17  1  0
 25 23  1  0
 26 25  2  0
 27 25  1  0
M  END
$$$$
