RTM.pdb
     RDKit          3D

 27 26  0  0  1  0  0  0  0  0999 V2000
    7.9833  -13.9416   16.7209 N   0  0  0  0  0  0  0  0  0  0  0  0
    8.5356  -13.3143   17.8673 C   0  0  0  0  0  0  0  0  0  0  0  0
    8.2763  -12.0743   18.1443 N   0  0  0  0  0  0  0  0  0  0  0  0
    9.3781  -13.9912   18.7750 N   0  0  0  0  0  0  0  0  0  0  0  0
    8.9236  -14.8458   19.8371 C   0  0  0  0  0  0  0  0  0  0  0  0
    7.5228  -14.5953   20.2638 C   0  0  0  0  0  0  0  0  0  0  0  0
    6.6789  -15.7653   20.5888 C   0  0  0  0  0  0  0  0  0  0  0  0
    7.3554  -16.9104   21.2695 C   0  0  2  0  0  0  0  0  0  0  0  0
    6.8740  -18.1255   20.6687 N   0  0  0  0  0  0  0  0  0  0  0  0
    7.1458  -16.8909   22.7453 C   0  0  0  0  0  0  0  0  0  0  0  0
    6.0150  -17.1620   23.2109 O   0  0  0  0  0  0  0  0  0  0  0  0
    8.7680  -11.5552   18.8846 C   0  0  0  0  0  0  0  0  0  0  0  0
    6.4372  -18.6194   24.6193 C   0  0  2  0  0  0  0  0  0  0  0  0
    7.6700  -18.2232   25.3867 O   0  0  0  0  0  0  0  0  0  0  0  0
    8.7815  -18.9787   25.0203 C   0  0  2  0  0  0  0  0  0  0  0  0
    7.9569  -16.7473   25.0665 N   0  0  0  0  0  0  0  0  0  0  0  0
    8.1755  -16.5764   23.6668 C   0  0  0  0  0  0  0  0  0  0  0  0
    9.1417  -16.3176   25.8795 O   0  0  0  0  0  0  0  0  0  0  0  0
   10.3171  -16.4691   25.4450 C   0  0  0  0  0  0  0  0  0  0  0  0
    6.3852  -13.3184   27.0176 S   0  0  0  0  0  0  0  0  0  0  0  0
    7.4982  -12.1237   27.8647 C   0  0  0  0  0  0  0  0  0  0  0  0
    9.1699  -12.6864   27.6973 C   0  0  0  0  0  0  0  0  0  0  0  0
    9.5886  -13.8684   28.4182 C   0  0  2  0  0  0  0  0  0  0  0  0
   10.2157  -15.0718   27.8217 N   0  0  0  0  0  0  0  0  0  0  0  0
    9.0162  -15.7318   27.1472 C   0  0  0  0  0  0  0  0  0  0  0  0
   10.6422  -16.1125   28.8127 O   0  0  0  0  0  0  0  0  0  0  0  0
    9.8570  -17.1305   29.0284 O   0  0  0  0  0  0  0  0  0  0  0  0
  2  3  2  0
  2  1  1  0
  4  2  1  0
  5  4  1  0
  6  5  1  0
  7  6  1  0
  8 10  1  0
  8  7  1  0
  8  9  1  6
 10 16  1  0
 10 11  2  0
 13 12  1  1
 13 14  1  0
 15 13  1  0
 15 16  1  1
 17 18  2  0
 17 15  1  0
 19 20  1  0
 21 20  1  0
 23 22  1  6
 22 21  1  0
 23 24  1  0
 24 17  1  0
 25 23  1  0
 26 25  2  0
 27 25  1  0
M  END
$$$$
