RTM.pdb
     RDKit          3D

 27 26  0  0  1  0  0  0  0  0999 V2000
    7.7317  -12.9842   17.6512 N   0  0  0  0  0  0  0  0  0  0  0  0
    7.9298  -12.7090   19.0288 C   0  0  0  0  0  0  0  0  0  0  0  0
    8.1632  -11.5035   19.4457 N   0  0  0  0  0  0  0  0  0  0  0  0
    7.8723  -13.7103   20.0219 N   0  0  0  0  0  0  0  0  0  0  0  0
    8.2351  -15.0864   19.8232 C   0  0  0  0  0  0  0  0  0  0  0  0
    7.4031  -16.0525   20.5857 C   0  0  0  0  0  0  0  0  0  0  0  0
    7.6606  -17.4950   20.3870 C   0  0  0  0  0  0  0  0  0  0  0  0
    9.0517  -17.9698   20.6545 C   0  0  2  0  0  0  0  0  0  0  0  0
    9.3042  -19.0966   19.7966 N   0  0  0  0  0  0  0  0  0  0  0  0
    9.2674  -18.2979   22.0926 C   0  0  0  0  0  0  0  0  0  0  0  0
    9.0325  -19.4582   22.5020 O   0  0  0  0  0  0  0  0  0  0  0  0
    8.4363  -11.2935   20.4155 C   0  0  0  0  0  0  0  0  0  0  0  0
   10.8111  -19.9156   23.5157 C   0  0  2  0  0  0  0  0  0  0  0  0
   11.1933  -18.7520   24.3906 O   0  0  0  0  0  0  0  0  0  0  0  0
   12.3311  -18.0969   23.9253 C   0  0  2  0  0  0  0  0  0  0  0  0
   10.0192  -17.7597   24.3754 N   0  0  0  0  0  0  0  0  0  0  0  0
    9.7321  -17.3508   23.0389 C   0  0  0  0  0  0  0  0  0  0  0  0
   10.3800  -16.6000   25.2554 O   0  0  0  0  0  0  0  0  0  0  0  0
   10.5458  -15.4454   24.7728 C   0  0  0  0  0  0  0  0  0  0  0  0
    7.0950  -11.5536   26.1210 S   0  0  0  0  0  0  0  0  0  0  0  0
    8.1597  -12.5412   27.2500 C   0  0  0  0  0  0  0  0  0  0  0  0
    8.4196  -14.1404   26.5329 C   0  0  0  0  0  0  0  0  0  0  0  0
    8.9446  -15.2042   27.3605 C   0  0  2  0  0  0  0  0  0  0  0  0
   10.3789  -15.5207   27.5603 N   0  0  0  0  0  0  0  0  0  0  0  0
   10.5507  -16.7270   26.6413 C   0  0  0  0  0  0  0  0  0  0  0  0
   10.7135  -16.0897   28.9062 O   0  0  0  0  0  0  0  0  0  0  0  0
   10.5012  -17.3580   29.1199 O   0  0  0  0  0  0  0  0  0  0  0  0
  2  3  2  0
  2  1  1  0
  4  2  1  0
  5  4  1  0
  6  5  1  0
  7  6  1  0
  8 10  1  0
  8  7  1  0
  8  9  1  6
 10 16  1  0
 10 11  2  0
 13 12  1  1
 13 14  1  0
 15 13  1  0
 15 16  1  1
 17 18  2  0
 17 15  1  0
 19 20  1  0
 21 20  1  0
 23 22  1  6
 22 21  1  0
 23 24  1  0
 24 17  1  0
 25 23  1  0
 26 25  2  0
 27 25  1  0
M  END
$$$$
