RTM.pdb
     RDKit          3D

 27 26  0  0  1  0  0  0  0  0999 V2000
    8.8396  -12.4519   16.1017 N   0  0  0  0  0  0  0  0  0  0  0  0
    8.3098  -13.6446   15.5454 C   0  0  0  0  0  0  0  0  0  0  0  0
    8.8727  -14.2184   14.5278 N   0  0  0  0  0  0  0  0  0  0  0  0
    7.1623  -14.2829   16.0631 N   0  0  0  0  0  0  0  0  0  0  0  0
    7.0186  -14.7432   17.4168 C   0  0  0  0  0  0  0  0  0  0  0  0
    8.1869  -14.4520   18.2869 C   0  0  0  0  0  0  0  0  0  0  0  0
    8.1179  -14.8747   19.7023 C   0  0  0  0  0  0  0  0  0  0  0  0
    8.5168  -16.2834   20.0005 C   0  0  2  0  0  0  0  0  0  0  0  0
    7.8870  -17.1341   19.0264 N   0  0  0  0  0  0  0  0  0  0  0  0
    8.1783  -16.6802   21.3970 C   0  0  0  0  0  0  0  0  0  0  0  0
    6.9781  -16.7176   21.7534 O   0  0  0  0  0  0  0  0  0  0  0  0
    8.5609  -15.1273   14.1591 C   0  0  0  0  0  0  0  0  0  0  0  0
    8.4532  -19.6081   23.3606 C   0  0  2  0  0  0  0  0  0  0  0  0
    9.1908  -18.6074   24.2091 O   0  0  0  0  0  0  0  0  0  0  0  0
   10.5728  -18.7332   24.0872 C   0  0  2  0  0  0  0  0  0  0  0  0
    8.7846  -17.2058   23.7256 N   0  0  0  0  0  0  0  0  0  0  0  0
    9.1589  -17.0236   22.3608 C   0  0  0  0  0  0  0  0  0  0  0  0
    9.4319  -16.1976   24.6278 O   0  0  0  0  0  0  0  0  0  0  0  0
   10.2700  -15.3674   24.1787 C   0  0  0  0  0  0  0  0  0  0  0  0
    6.8966  -11.4541   25.5522 S   0  0  0  0  0  0  0  0  0  0  0  0
    6.9261  -11.8125   27.3562 C   0  0  0  0  0  0  0  0  0  0  0  0
    8.2863  -12.8949   27.6991 C   0  0  0  0  0  0  0  0  0  0  0  0
    8.4236  -14.1145   26.9337 C   0  0  1  0  0  0  0  0  0  0  0  0
    9.6501  -14.9404   26.8300 N   0  0  0  0  0  0  0  0  0  0  0  0
    9.1490  -16.1183   25.9988 C   0  0  0  0  0  0  0  0  0  0  0  0
   10.0698  -15.6021   28.1079 O   0  0  0  0  0  0  0  0  0  0  0  0
   10.8016  -14.9285   28.9506 O   0  0  0  0  0  0  0  0  0  0  0  0
  2  3  2  0
  2  1  1  0
  4  2  1  0
  5  4  1  0
  6  5  1  0
  7  6  1  0
  8 10  1  0
  8  7  1  0
  8  9  1  6
 10 16  1  0
 10 11  2  0
 13 12  1  1
 13 14  1  0
 15 13  1  0
 15 16  1  1
 17 18  2  0
 17 15  1  0
 19 20  1  0
 21 20  1  0
 23 22  1  6
 22 21  1  0
 23 24  1  0
 24 17  1  0
 25 23  1  0
 26 25  2  0
 27 25  1  0
M  END
$$$$
