RTM.pdb
     RDKit          3D

 27 26  0  0  1  0  0  0  0  0999 V2000
    8.6533  -12.2564   17.3877 N   0  0  0  0  0  0  0  0  0  0  0  0
    8.6978  -11.9572   18.7737 C   0  0  0  0  0  0  0  0  0  0  0  0
    8.8173  -10.7360   19.1933 N   0  0  0  0  0  0  0  0  0  0  0  0
    8.6016  -12.9509   19.7714 N   0  0  0  0  0  0  0  0  0  0  0  0
    8.7906  -14.3582   19.5503 C   0  0  0  0  0  0  0  0  0  0  0  0
    7.7095  -15.0016   18.7603 C   0  0  0  0  0  0  0  0  0  0  0  0
    7.0746  -16.2156   19.3170 C   0  0  0  0  0  0  0  0  0  0  0  0
    7.9460  -17.4205   19.4619 C   0  0  2  0  0  0  0  0  0  0  0  0
    7.4069  -18.4565   18.6221 N   0  0  0  0  0  0  0  0  0  0  0  0
    8.0722  -17.8559   20.8820 C   0  0  0  0  0  0  0  0  0  0  0  0
    7.0663  -18.2994   21.4824 O   0  0  0  0  0  0  0  0  0  0  0  0
    8.8502  -10.4919   20.1926 C   0  0  0  0  0  0  0  0  0  0  0  0
   10.5202  -20.2320   22.5612 C   0  0  2  0  0  0  0  0  0  0  0  0
   10.5930  -18.9318   23.3161 O   0  0  0  0  0  0  0  0  0  0  0  0
   11.6975  -18.1694   22.9430 C   0  0  2  0  0  0  0  0  0  0  0  0
    9.3188  -18.1370   22.9876 N   0  0  0  0  0  0  0  0  0  0  0  0
    9.2908  -17.7940   21.6028 C   0  0  0  0  0  0  0  0  0  0  0  0
    9.2872  -16.9248   23.8701 O   0  0  0  0  0  0  0  0  0  0  0  0
    9.8518  -15.8514   23.5200 C   0  0  0  0  0  0  0  0  0  0  0  0
    7.4789  -11.6947   26.3791 S   0  0  0  0  0  0  0  0  0  0  0  0
    6.1132  -12.9036   26.6180 C   0  0  0  0  0  0  0  0  0  0  0  0
    6.7979  -14.4248   27.2152 C   0  0  0  0  0  0  0  0  0  0  0  0
    7.3118  -15.3851   26.2634 C   0  0  1  0  0  0  0  0  0  0  0  0
    8.7424  -15.6969   26.0319 N   0  0  0  0  0  0  0  0  0  0  0  0
    8.6397  -16.9118   25.1137 C   0  0  0  0  0  0  0  0  0  0  0  0
    9.4634  -16.2523   27.2230 O   0  0  0  0  0  0  0  0  0  0  0  0
    9.3646  -17.5273   27.4760 O   0  0  0  0  0  0  0  0  0  0  0  0
  2  3  2  0
  2  1  1  0
  4  2  1  0
  5  4  1  0
  6  5  1  0
  7  6  1  0
  8 10  1  0
  8  7  1  0
  8  9  1  6
 10 16  1  0
 10 11  2  0
 13 12  1  1
 13 14  1  0
 15 13  1  0
 15 16  1  1
 17 18  2  0
 17 15  1  0
 19 20  1  0
 21 20  1  0
 23 22  1  6
 22 21  1  0
 23 24  1  0
 24 17  1  0
 25 23  1  0
 26 25  2  0
 27 25  1  0
M  END
$$$$
