RTM.pdb
     RDKit          3D

 27 26  0  0  1  0  0  0  0  0999 V2000
    8.2663  -12.6735   12.4606 N   0  0  0  0  0  0  0  0  0  0  0  0
    8.3725  -14.0806   12.6065 C   0  0  0  0  0  0  0  0  0  0  0  0
    8.3594  -14.8654   11.5743 N   0  0  0  0  0  0  0  0  0  0  0  0
    8.5117  -14.7082   13.8631 N   0  0  0  0  0  0  0  0  0  0  0  0
    8.6211  -14.0178   15.1186 C   0  0  0  0  0  0  0  0  0  0  0  0
    8.6264  -14.9100   16.3064 C   0  0  0  0  0  0  0  0  0  0  0  0
    8.5382  -14.2832   17.6429 C   0  0  0  0  0  0  0  0  0  0  0  0
    9.6387  -14.5971   18.6035 C   0  0  2  0  0  0  0  0  0  0  0  0
   10.0443  -15.9586   18.3776 N   0  0  0  0  0  0  0  0  0  0  0  0
    9.2356  -14.3573   20.0185 C   0  0  0  0  0  0  0  0  0  0  0  0
    8.4823  -13.3942   20.2901 O   0  0  0  0  0  0  0  0  0  0  0  0
    8.4335  -15.8890   11.6528 C   0  0  0  0  0  0  0  0  0  0  0  0
    7.1544  -14.0390   21.3558 C   0  0  2  0  0  0  0  0  0  0  0  0
    7.6410  -14.9763   22.4282 O   0  0  0  0  0  0  0  0  0  0  0  0
    7.2311  -16.2886   22.2038 C   0  0  2  0  0  0  0  0  0  0  0  0
    9.1777  -14.9362   22.4118 N   0  0  0  0  0  0  0  0  0  0  0  0
    9.6665  -15.1752   21.0927 C   0  0  0  0  0  0  0  0  0  0  0  0
    9.6792  -15.9540   23.3926 O   0  0  0  0  0  0  0  0  0  0  0  0
    9.1335  -17.0882   23.4881 C   0  0  0  0  0  0  0  0  0  0  0  0
   10.1833  -13.9580   29.7834 S   0  0  0  0  0  0  0  0  0  0  0  0
    9.5022  -13.2308   28.2371 C   0  0  0  0  0  0  0  0  0  0  0  0
    8.8411  -14.5359   27.2376 C   0  0  0  0  0  0  0  0  0  0  0  0
    9.4692  -14.8366   25.9699 C   0  0  1  0  0  0  0  0  0  0  0  0
   10.5947  -15.7785   25.7610 N   0  0  0  0  0  0  0  0  0  0  0  0
   10.7651  -15.7107   24.2458 C   0  0  0  0  0  0  0  0  0  0  0  0
   10.2539  -17.2211   25.9835 O   0  0  0  0  0  0  0  0  0  0  0  0
   10.8521  -17.8642   26.9469 O   0  0  0  0  0  0  0  0  0  0  0  0
  2  3  2  0
  2  1  1  0
  4  2  1  0
  5  4  1  0
  6  5  1  0
  7  6  1  0
  8 10  1  0
  8  7  1  0
  8  9  1  1
 10 16  1  0
 10 11  2  0
 13 12  1  1
 13 14  1  0
 15 13  1  0
 15 16  1  1
 17 18  2  0
 17 15  1  0
 19 20  1  0
 21 20  1  0
 23 22  1  1
 22 21  1  0
 23 24  1  0
 24 17  1  0
 25 23  1  0
 26 25  2  0
 27 25  1  0
M  END
$$$$
