QQA.pdb
     RDKit          3D

 24 23  0  0  1  0  0  0  0  0999 V2000
    9.3768  -12.8497   17.8926 N   0  0  0  0  0  0  0  0  0  0  0  0
    8.1385  -13.5135   17.7806 C   0  0  0  0  0  0  0  0  0  0  0  0
    7.4113  -13.1831   16.7895 O   0  0  0  0  0  0  0  0  0  0  0  0
    7.6990  -14.5510   18.7709 C   0  0  0  0  0  0  0  0  0  0  0  0
    8.7021  -14.5673   19.8725 C   0  0  0  0  0  0  0  0  0  0  0  0
    8.8422  -15.8605   20.6018 C   0  0  2  0  0  0  0  0  0  0  0  0
    8.1384  -16.8724   19.8351 N   0  0  0  0  0  0  0  0  0  0  0  0
    8.3695  -15.8185   22.0078 C   0  0  0  0  0  0  0  0  0  0  0  0
    7.1624  -16.0342   22.2815 O   0  0  0  0  0  0  0  0  0  0  0  0
   10.7710  -20.0650   25.4673 N   0  0  0  0  0  0  0  0  0  0  0  0
   10.4266  -18.7547   25.8934 C   0  0  0  0  0  0  0  0  0  0  0  0
   10.3048  -18.5927   27.1285 O   0  0  0  0  0  0  0  0  0  0  0  0
   10.2471  -17.7053   24.8701 C   0  0  0  0  0  0  0  0  0  0  0  0
    9.6699  -16.4443   25.3551 C   0  0  0  0  0  0  0  0  0  0  0  0
    8.7980  -15.6434   24.4668 C   0  0  2  0  0  0  0  0  0  0  0  0
    9.2303  -15.5394   23.1010 N   0  0  0  0  0  0  0  0  0  0  0  0
    8.4924  -14.2864   25.0188 C   0  0  0  0  0  0  0  0  0  0  0  0
    9.3439  -13.3701   25.0183 O   0  0  0  0  0  0  0  0  0  0  0  0
    5.4762  -12.4668   26.3245 C   0  0  0  0  0  0  0  0  0  0  0  0
    6.9600  -12.6907   26.1200 C   0  0  2  0  0  0  0  0  0  0  0  0
    7.2164  -14.0047   25.5614 N   0  0  0  0  0  0  0  0  0  0  0  0
    7.5859  -12.6653   27.4718 C   0  0  0  0  0  0  0  0  0  0  0  0
    7.5267  -11.6305   28.2094 O   0  0  0  0  0  0  0  0  0  0  0  0
    8.2657  -13.7564   28.0067 O   0  0  0  0  0  0  0  0  0  0  0  0
  1  2  1  0
  2  4  1  0
  2  3  2  0
  4  5  1  0
  6  8  1  0
  6  5  1  0
  6  7  1  6
  8 16  1  0
  9  8  2  0
 11 10  1  0
 11 13  1  0
 12 11  2  0
 14 13  1  0
 15 14  1  1
 15 17  1  0
 16 15  1  0
 17 18  2  0
 20 19  1  1
 20 22  1  0
 21 20  1  0
 21 17  1  0
 22 23  2  0
 22 24  1  0
M  END
$$$$
