QQA.pdb
     RDKit          3D

 24 23  0  0  1  0  0  0  0  0999 V2000
    8.1459  -12.1808   18.9641 N   0  0  0  0  0  0  0  0  0  0  0  0
    8.1374  -13.4282   18.3080 C   0  0  0  0  0  0  0  0  0  0  0  0
    8.2086  -13.3954   17.0374 O   0  0  0  0  0  0  0  0  0  0  0  0
    8.0494  -14.7229   19.0604 C   0  0  0  0  0  0  0  0  0  0  0  0
    7.9754  -14.3901   20.5107 C   0  0  0  0  0  0  0  0  0  0  0  0
    8.8280  -15.2198   21.4100 C   0  0  2  0  0  0  0  0  0  0  0  0
    8.8398  -16.5699   20.8769 N   0  0  0  0  0  0  0  0  0  0  0  0
    8.4063  -15.2018   22.8327 C   0  0  0  0  0  0  0  0  0  0  0  0
    8.0899  -14.1214   23.3905 O   0  0  0  0  0  0  0  0  0  0  0  0
    6.8966  -20.3384   25.7308 N   0  0  0  0  0  0  0  0  0  0  0  0
    5.9491  -19.6273   24.9475 C   0  0  0  0  0  0  0  0  0  0  0  0
    4.9907  -20.2976   24.5018 O   0  0  0  0  0  0  0  0  0  0  0  0
    6.1594  -18.1823   24.7273 C   0  0  0  0  0  0  0  0  0  0  0  0
    7.2595  -17.5816   25.4936 C   0  0  0  0  0  0  0  0  0  0  0  0
    7.9124  -16.3477   25.0015 C   0  0  2  0  0  0  0  0  0  0  0  0
    8.3366  -16.3740   23.6295 N   0  0  0  0  0  0  0  0  0  0  0  0
    9.0323  -15.8898   25.8821 C   0  0  0  0  0  0  0  0  0  0  0  0
   10.2115  -16.2611   25.6916 O   0  0  0  0  0  0  0  0  0  0  0  0
    9.5600  -13.2711   28.4907 C   0  0  0  0  0  0  0  0  0  0  0  0
    9.8885  -14.5730   27.7900 C   0  0  2  0  0  0  0  0  0  0  0  0
    8.7801  -15.0146   26.9648 N   0  0  0  0  0  0  0  0  0  0  0  0
   10.0696  -15.5978   28.8562 C   0  0  0  0  0  0  0  0  0  0  0  0
    9.2235  -16.5326   29.0264 O   0  0  0  0  0  0  0  0  0  0  0  0
   11.1601  -15.5983   29.7219 O   0  0  0  0  0  0  0  0  0  0  0  0
  1  2  1  0
  2  4  1  0
  2  3  2  0
  4  5  1  0
  6  8  1  0
  6  5  1  0
  6  7  1  6
  8 16  1  0
  9  8  2  0
 11 10  1  0
 11 13  1  0
 12 11  2  0
 14 13  1  0
 15 14  1  1
 15 17  1  0
 16 15  1  0
 17 18  2  0
 20 19  1  1
 20 22  1  0
 21 20  1  0
 21 17  1  0
 22 23  2  0
 22 24  1  0
M  END
$$$$
