QQA.pdb
     RDKit          3D

 24 23  0  0  1  0  0  0  0  0999 V2000
    9.6820  -14.5829   17.6739 N   0  0  0  0  0  0  0  0  0  0  0  0
    8.4989  -13.8168   17.6722 C   0  0  0  0  0  0  0  0  0  0  0  0
    8.0821  -13.4290   16.5336 O   0  0  0  0  0  0  0  0  0  0  0  0
    7.7696  -13.4757   18.9378 C   0  0  0  0  0  0  0  0  0  0  0  0
    8.5269  -14.0870   20.0660 C   0  0  0  0  0  0  0  0  0  0  0  0
    8.0648  -15.4367   20.5002 C   0  0  2  0  0  0  0  0  0  0  0  0
    7.1502  -15.9317   19.4873 N   0  0  0  0  0  0  0  0  0  0  0  0
    7.4460  -15.4615   21.8488 C   0  0  0  0  0  0  0  0  0  0  0  0
    6.2992  -14.9826   22.0331 O   0  0  0  0  0  0  0  0  0  0  0  0
    7.6675  -19.6947   26.4719 N   0  0  0  0  0  0  0  0  0  0  0  0
    6.8428  -19.7052   25.3157 C   0  0  0  0  0  0  0  0  0  0  0  0
    6.2484  -20.7799   25.0743 O   0  0  0  0  0  0  0  0  0  0  0  0
    6.7477  -18.4735   24.5068 C   0  0  0  0  0  0  0  0  0  0  0  0
    7.5435  -17.3379   24.9921 C   0  0  0  0  0  0  0  0  0  0  0  0
    7.4841  -16.0400   24.2829 C   0  0  2  0  0  0  0  0  0  0  0  0
    8.0954  -16.0136   22.9834 N   0  0  0  0  0  0  0  0  0  0  0  0
    7.9811  -14.8986   25.1132 C   0  0  0  0  0  0  0  0  0  0  0  0
    9.1970  -14.6114   25.1743 O   0  0  0  0  0  0  0  0  0  0  0  0
    6.4922  -12.0990   27.1243 C   0  0  0  0  0  0  0  0  0  0  0  0
    7.5926  -13.0541   26.7114 C   0  0  2  0  0  0  0  0  0  0  0  0
    7.0753  -14.1074   25.8584 N   0  0  0  0  0  0  0  0  0  0  0  0
    8.0810  -13.7074   27.9581 C   0  0  0  0  0  0  0  0  0  0  0  0
    7.8707  -14.9414   28.1850 O   0  0  0  0  0  0  0  0  0  0  0  0
    8.7886  -13.0196   28.9404 O   0  0  0  0  0  0  0  0  0  0  0  0
  1  2  1  0
  2  4  1  0
  2  3  2  0
  4  5  1  0
  6  8  1  0
  6  5  1  0
  6  7  1  6
  8 16  1  0
  9  8  2  0
 11 10  1  0
 11 13  1  0
 12 11  2  0
 14 13  1  0
 15 14  1  1
 15 17  1  0
 16 15  1  0
 17 18  2  0
 20 19  1  1
 20 22  1  0
 21 20  1  0
 21 17  1  0
 22 23  2  0
 22 24  1  0
M  END
$$$$
