QQA.pdb
     RDKit          3D

 24 23  0  0  1  0  0  0  0  0999 V2000
   14.9985  -14.2327   21.0131 N   0  0  0  0  0  0  0  0  0  0  0  0
   14.2928  -14.2358   19.7931 C   0  0  0  0  0  0  0  0  0  0  0  0
   14.8578  -13.6479   18.8155 O   0  0  0  0  0  0  0  0  0  0  0  0
   12.9521  -14.8933   19.6506 C   0  0  0  0  0  0  0  0  0  0  0  0
   12.7268  -15.7135   20.8739 C   0  0  0  0  0  0  0  0  0  0  0  0
   11.4371  -16.4603   20.9246 C   0  0  2  0  0  0  0  0  0  0  0  0
   10.6562  -16.0617   19.7676 N   0  0  0  0  0  0  0  0  0  0  0  0
   10.6757  -16.2717   22.1843 C   0  0  0  0  0  0  0  0  0  0  0  0
    9.7004  -15.4808   22.2277 O   0  0  0  0  0  0  0  0  0  0  0  0
   11.4940  -21.4976   26.1801 N   0  0  0  0  0  0  0  0  0  0  0  0
   10.5051  -20.5000   25.9709 C   0  0  0  0  0  0  0  0  0  0  0  0
    9.3589  -20.7640   26.3987 O   0  0  0  0  0  0  0  0  0  0  0  0
   10.8966  -19.2528   25.2839 C   0  0  0  0  0  0  0  0  0  0  0  0
    9.8284  -18.2559   25.1304 C   0  0  0  0  0  0  0  0  0  0  0  0
   10.1330  -16.9354   24.5350 C   0  0  2  0  0  0  0  0  0  0  0  0
   10.9947  -16.9558   23.3860 N   0  0  0  0  0  0  0  0  0  0  0  0
   10.6310  -15.9440   25.5393 C   0  0  0  0  0  0  0  0  0  0  0  0
   11.8517  -15.7121   25.6838 O   0  0  0  0  0  0  0  0  0  0  0  0
    9.2181  -13.2760   27.7303 C   0  0  0  0  0  0  0  0  0  0  0  0
   10.2355  -14.3411   27.3781 C   0  0  2  0  0  0  0  0  0  0  0  0
    9.7207  -15.2367   26.3596 N   0  0  0  0  0  0  0  0  0  0  0  0
   10.4425  -15.1569   28.6074 C   0  0  0  0  0  0  0  0  0  0  0  0
   10.0482  -16.3646   28.6746 O   0  0  0  0  0  0  0  0  0  0  0  0
   11.0714  -14.6575   29.7448 O   0  0  0  0  0  0  0  0  0  0  0  0
  1  2  1  0
  2  4  1  0
  2  3  2  0
  4  5  1  0
  6  8  1  0
  6  5  1  0
  6  7  1  6
  8 16  1  0
  9  8  2  0
 11 10  1  0
 11 13  1  0
 12 11  2  0
 14 13  1  0
 15 14  1  1
 15 17  1  0
 16 15  1  0
 17 18  2  0
 20 19  1  1
 20 22  1  0
 21 20  1  0
 21 17  1  0
 22 23  2  0
 22 24  1  0
M  END
$$$$
