QQA.pdb
     RDKit          3D

 24 23  0  0  1  0  0  0  0  0999 V2000
   13.5843  -16.5559   13.2852 N   0  0  0  0  0  0  0  0  0  0  0  0
   12.1818  -16.4407   13.3636 C   0  0  0  0  0  0  0  0  0  0  0  0
   11.5912  -16.0380   12.3102 O   0  0  0  0  0  0  0  0  0  0  0  0
   11.4245  -16.7726   14.6151 C   0  0  0  0  0  0  0  0  0  0  0  0
   12.4195  -17.2098   15.6342 C   0  0  0  0  0  0  0  0  0  0  0  0
   11.8539  -17.8201   16.8717 C   0  0  2  0  0  0  0  0  0  0  0  0
   10.6105  -18.4743   16.5066 N   0  0  0  0  0  0  0  0  0  0  0  0
   11.6551  -16.8600   17.9856 C   0  0  0  0  0  0  0  0  0  0  0  0
   12.6160  -16.1739   18.4153 O   0  0  0  0  0  0  0  0  0  0  0  0
    6.6087  -13.5147   19.6987 N   0  0  0  0  0  0  0  0  0  0  0  0
    7.4620  -13.3310   18.5783 C   0  0  0  0  0  0  0  0  0  0  0  0
    7.0574  -12.5313   17.7047 O   0  0  0  0  0  0  0  0  0  0  0  0
    8.7353  -14.0773   18.5325 C   0  0  0  0  0  0  0  0  0  0  0  0
    9.0057  -14.9343   19.6947 C   0  0  0  0  0  0  0  0  0  0  0  0
   10.2285  -15.7677   19.7270 C   0  0  2  0  0  0  0  0  0  0  0  0
   10.3996  -16.6632   18.6172 N   0  0  0  0  0  0  0  0  0  0  0  0
   10.3982  -16.5041   21.0187 C   0  0  0  0  0  0  0  0  0  0  0  0
    9.8510  -17.6107   21.2206 O   0  0  0  0  0  0  0  0  0  0  0  0
   12.7386  -16.3054   23.9162 C   0  0  0  0  0  0  0  0  0  0  0  0
   11.4663  -16.7607   23.2324 C   0  0  2  0  0  0  0  0  0  0  0  0
   11.1919  -15.9586   22.0552 N   0  0  0  0  0  0  0  0  0  0  0  0
   10.3540  -16.5146   24.1927 C   0  0  0  0  0  0  0  0  0  0  0  0
    9.5006  -15.5920   23.9950 O   0  0  0  0  0  0  0  0  0  0  0  0
   10.1797  -17.2674   25.3509 O   0  0  0  0  0  0  0  0  0  0  0  0
  1  2  1  0
  2  4  1  0
  2  3  2  0
  4  5  1  0
  6  8  1  0
  6  5  1  0
  6  7  1  6
  8 16  1  0
  9  8  2  0
 11 10  1  0
 11 13  1  0
 12 11  2  0
 14 13  1  0
 15 14  1  1
 15 17  1  0
 16 15  1  0
 17 18  2  0
 20 19  1  1
 20 22  1  0
 21 20  1  0
 21 17  1  0
 22 23  2  0
 22 24  1  0
M  END
$$$$
