QQA.pdb
     RDKit          3D

 24 23  0  0  1  0  0  0  0  0999 V2000
    7.7138  -12.1730   18.7153 N   0  0  0  0  0  0  0  0  0  0  0  0
    7.6577  -13.4865   18.2071 C   0  0  0  0  0  0  0  0  0  0  0  0
    7.1994  -13.6132   17.0262 O   0  0  0  0  0  0  0  0  0  0  0  0
    8.1112  -14.6703   19.0089 C   0  0  0  0  0  0  0  0  0  0  0  0
    8.4968  -14.1716   20.3589 C   0  0  0  0  0  0  0  0  0  0  0  0
    9.1785  -15.1595   21.2439 C   0  0  2  0  0  0  0  0  0  0  0  0
    8.9772  -16.4756   20.6654 N   0  0  0  0  0  0  0  0  0  0  0  0
    8.7336  -15.1149   22.6589 C   0  0  0  0  0  0  0  0  0  0  0  0
    8.6924  -14.0237   23.2804 O   0  0  0  0  0  0  0  0  0  0  0  0
    7.5914  -20.6718   26.9493 N   0  0  0  0  0  0  0  0  0  0  0  0
    7.0222  -19.7515   26.0294 C   0  0  0  0  0  0  0  0  0  0  0  0
    5.8298  -19.9594   25.7106 O   0  0  0  0  0  0  0  0  0  0  0  0
    7.8602  -18.6413   25.5336 C   0  0  0  0  0  0  0  0  0  0  0  0
    7.1399  -17.4003   25.2182 C   0  0  0  0  0  0  0  0  0  0  0  0
    7.8876  -16.2155   24.7407 C   0  0  2  0  0  0  0  0  0  0  0  0
    8.3377  -16.2726   23.3780 N   0  0  0  0  0  0  0  0  0  0  0  0
    9.0182  -15.8363   25.6449 C   0  0  0  0  0  0  0  0  0  0  0  0
   10.1885  -16.2223   25.4305 O   0  0  0  0  0  0  0  0  0  0  0  0
    9.6026  -13.3666   28.3817 C   0  0  0  0  0  0  0  0  0  0  0  0
    9.9087  -14.6346   27.6122 C   0  0  2  0  0  0  0  0  0  0  0  0
    8.7865  -15.0215   26.7782 N   0  0  0  0  0  0  0  0  0  0  0  0
   10.0894  -15.7143   28.6228 C   0  0  0  0  0  0  0  0  0  0  0  0
    9.2625  -16.6764   28.7188 O   0  0  0  0  0  0  0  0  0  0  0  0
   11.1589  -15.7393   29.5140 O   0  0  0  0  0  0  0  0  0  0  0  0
  1  2  1  0
  2  4  1  0
  2  3  2  0
  4  5  1  0
  6  8  1  0
  6  5  1  0
  6  7  1  6
  8 16  1  0
  9  8  2  0
 11 10  1  0
 11 13  1  0
 12 11  2  0
 14 13  1  0
 15 14  1  1
 15 17  1  0
 16 15  1  0
 17 18  2  0
 20 19  1  1
 20 22  1  0
 21 20  1  0
 21 17  1  0
 22 23  2  0
 22 24  1  0
M  END
$$$$
