QQA.pdb
     RDKit          3D

 24 23  0  0  1  0  0  0  0  0999 V2000
    8.9324  -20.1388   13.9527 N   0  0  0  0  0  0  0  0  0  0  0  0
   10.3412  -20.1247   13.9926 C   0  0  0  0  0  0  0  0  0  0  0  0
   10.9189  -21.2498   13.8479 O   0  0  0  0  0  0  0  0  0  0  0  0
   11.1193  -18.8581   14.1940 C   0  0  0  0  0  0  0  0  0  0  0  0
   10.1364  -17.7419   14.2831 C   0  0  0  0  0  0  0  0  0  0  0  0
   10.7183  -16.3710   14.3602 C   0  0  2  0  0  0  0  0  0  0  0  0
   11.9682  -16.3854   13.6222 N   0  0  0  0  0  0  0  0  0  0  0  0
   10.9108  -15.8705   15.7439 C   0  0  0  0  0  0  0  0  0  0  0  0
   12.0414  -15.9225   16.2894 O   0  0  0  0  0  0  0  0  0  0  0  0
    6.7740  -12.6299   19.4289 N   0  0  0  0  0  0  0  0  0  0  0  0
    7.8562  -12.8523   20.3213 C   0  0  0  0  0  0  0  0  0  0  0  0
    7.7515  -12.3291   21.4534 O   0  0  0  0  0  0  0  0  0  0  0  0
    8.9953  -13.6697   19.8577 C   0  0  0  0  0  0  0  0  0  0  0  0
    8.9218  -14.1181   18.4606 C   0  0  0  0  0  0  0  0  0  0  0  0
   10.0382  -14.8948   17.8764 C   0  0  2  0  0  0  0  0  0  0  0  0
    9.8564  -15.3166   16.5155 N   0  0  0  0  0  0  0  0  0  0  0  0
   10.4503  -16.0541   18.7281 C   0  0  0  0  0  0  0  0  0  0  0  0
    9.8584  -17.1546   18.6705 O   0  0  0  0  0  0  0  0  0  0  0  0
   13.3092  -17.4459   20.3559 C   0  0  0  0  0  0  0  0  0  0  0  0
   11.8566  -17.0436   20.5032 C   0  0  2  0  0  0  0  0  0  0  0  0
   11.5332  -15.9308   19.6304 N   0  0  0  0  0  0  0  0  0  0  0  0
   11.6873  -16.5599   21.9021 C   0  0  0  0  0  0  0  0  0  0  0  0
   11.3165  -15.3685   22.1503 O   0  0  0  0  0  0  0  0  0  0  0  0
   11.9204  -17.3687   23.0112 O   0  0  0  0  0  0  0  0  0  0  0  0
  1  2  1  0
  2  4  1  0
  2  3  2  0
  4  5  1  0
  6  8  1  0
  6  5  1  0
  6  7  1  1
  8 16  1  0
  9  8  2  0
 11 10  1  0
 11 13  1  0
 12 11  2  0
 14 13  1  0
 15 14  1  1
 15 17  1  0
 16 15  1  0
 17 18  2  0
 20 19  1  1
 20 22  1  0
 21 20  1  0
 21 17  1  0
 22 23  2  0
 22 24  1  0
M  END
$$$$
