QQA.pdb
     RDKit          3D

 24 23  0  0  1  0  0  0  0  0999 V2000
    7.4204  -17.9010   16.7229 N   0  0  0  0  0  0  0  0  0  0  0  0
    8.4614  -18.0954   17.6532 C   0  0  0  0  0  0  0  0  0  0  0  0
    9.6133  -17.6827   17.3020 O   0  0  0  0  0  0  0  0  0  0  0  0
    8.2291  -18.7507   18.9823 C   0  0  0  0  0  0  0  0  0  0  0  0
    6.7700  -19.0322   19.0904 C   0  0  0  0  0  0  0  0  0  0  0  0
    6.3885  -20.1195   20.0370 C   0  0  2  0  0  0  0  0  0  0  0  0
    5.2072  -20.7706   19.5005 N   0  0  0  0  0  0  0  0  0  0  0  0
    6.1694  -19.6610   21.4312 C   0  0  0  0  0  0  0  0  0  0  0  0
    5.4182  -18.6827   21.6703 O   0  0  0  0  0  0  0  0  0  0  0  0
    6.9452  -21.4778   28.4913 N   0  0  0  0  0  0  0  0  0  0  0  0
    6.2232  -21.6326   27.2781 C   0  0  0  0  0  0  0  0  0  0  0  0
    5.6511  -22.7339   27.1157 O   0  0  0  0  0  0  0  0  0  0  0  0
    6.1988  -20.5059   26.3239 C   0  0  0  0  0  0  0  0  0  0  0  0
    6.3571  -20.8737   24.9104 C   0  0  0  0  0  0  0  0  0  0  0  0
    6.5769  -19.8195   23.8949 C   0  0  2  0  0  0  0  0  0  0  0  0
    6.7795  -20.2839   22.5510 N   0  0  0  0  0  0  0  0  0  0  0  0
    7.6556  -18.8560   24.2789 C   0  0  0  0  0  0  0  0  0  0  0  0
    8.8578  -19.0754   24.0120 O   0  0  0  0  0  0  0  0  0  0  0  0
    7.8242  -15.3769   25.6914 C   0  0  0  0  0  0  0  0  0  0  0  0
    8.3946  -16.7129   25.2630 C   0  0  2  0  0  0  0  0  0  0  0  0
    7.3366  -17.6586   24.9619 N   0  0  0  0  0  0  0  0  0  0  0  0
    9.1391  -17.2547   26.4342 C   0  0  0  0  0  0  0  0  0  0  0  0
    8.6998  -18.2487   27.0957 O   0  0  0  0  0  0  0  0  0  0  0  0
   10.3455  -16.7160   26.8736 O   0  0  0  0  0  0  0  0  0  0  0  0
  1  2  1  0
  2  4  1  0
  2  3  2  0
  4  5  1  0
  6  8  1  0
  6  5  1  0
  6  7  1  6
  8 16  1  0
  9  8  2  0
 11 10  1  0
 11 13  1  0
 12 11  2  0
 14 13  1  0
 15 14  1  1
 15 17  1  0
 16 15  1  0
 17 18  2  0
 20 19  1  1
 20 22  1  0
 21 20  1  0
 21 17  1  0
 22 23  2  0
 22 24  1  0
M  END
$$$$
