QQA.pdb
     RDKit          3D

 24 23  0  0  1  0  0  0  0  0999 V2000
   12.3345  -18.6422   18.9391 N   0  0  0  0  0  0  0  0  0  0  0  0
   11.2041  -18.0122   18.3806 C   0  0  0  0  0  0  0  0  0  0  0  0
   11.1496  -17.9799   17.1091 O   0  0  0  0  0  0  0  0  0  0  0  0
   10.1248  -17.4127   19.2324 C   0  0  0  0  0  0  0  0  0  0  0  0
   10.5452  -17.5629   20.6538 C   0  0  0  0  0  0  0  0  0  0  0  0
    9.4510  -17.4881   21.6643 C   0  0  2  0  0  0  0  0  0  0  0  0
    8.2309  -17.1359   20.9611 N   0  0  0  0  0  0  0  0  0  0  0  0
    9.7216  -16.5522   22.7836 C   0  0  0  0  0  0  0  0  0  0  0  0
   10.9023  -16.2830   23.1186 O   0  0  0  0  0  0  0  0  0  0  0  0
    5.6883  -12.5696   25.7539 N   0  0  0  0  0  0  0  0  0  0  0  0
    6.8888  -12.3803   26.4887 C   0  0  0  0  0  0  0  0  0  0  0  0
    6.8587  -11.4942   27.3720 O   0  0  0  0  0  0  0  0  0  0  0  0
    8.0540  -13.2277   26.1651 C   0  0  0  0  0  0  0  0  0  0  0  0
    7.8633  -14.1609   25.0465 C   0  0  0  0  0  0  0  0  0  0  0  0
    8.9604  -15.0733   24.6530 C   0  0  2  0  0  0  0  0  0  0  0  0
    8.6896  -15.9203   23.5250 N   0  0  0  0  0  0  0  0  0  0  0  0
    9.4828  -15.8843   25.7970 C   0  0  0  0  0  0  0  0  0  0  0  0
    8.9010  -16.9207   26.1872 O   0  0  0  0  0  0  0  0  0  0  0  0
   12.5835  -15.9038   27.9277 C   0  0  0  0  0  0  0  0  0  0  0  0
   11.1922  -16.3434   27.5217 C   0  0  2  0  0  0  0  0  0  0  0  0
   10.6624  -15.4925   26.4729 N   0  0  0  0  0  0  0  0  0  0  0  0
   10.3198  -16.1546   28.7144 C   0  0  0  0  0  0  0  0  0  0  0  0
    9.5398  -15.1543   28.8124 O   0  0  0  0  0  0  0  0  0  0  0  0
   10.3022  -17.0475   29.7827 O   0  0  0  0  0  0  0  0  0  0  0  0
  1  2  1  0
  2  4  1  0
  2  3  2  0
  4  5  1  0
  6  8  1  0
  6  5  1  0
  6  7  1  6
  8 16  1  0
  9  8  2  0
 11 10  1  0
 11 13  1  0
 12 11  2  0
 14 13  1  0
 15 14  1  1
 15 17  1  0
 16 15  1  0
 17 18  2  0
 20 19  1  1
 20 22  1  0
 21 20  1  0
 21 17  1  0
 22 23  2  0
 22 24  1  0
M  END
$$$$
