KDK.pdb
     RDKit          3D

 27 26  0  0  1  0  0  0  0  0999 V2000
    6.6134  -16.6638   19.7516 N   0  0  0  0  0  0  0  0  0  0  0  0
    7.7230  -15.8435   20.2270 C   0  0  1  0  0  0  0  0  0  0  0  0
    7.2397  -14.4233   20.3990 C   0  0  0  0  0  0  0  0  0  0  0  0
    7.2828  -13.7051   19.0915 C   0  0  0  0  0  0  0  0  0  0  0  0
    8.6342  -13.7660   18.3994 C   0  0  0  0  0  0  0  0  0  0  0  0
    8.5715  -12.9657   17.1212 C   0  0  0  0  0  0  0  0  0  0  0  0
    9.8787  -13.0110   16.4600 N   0  0  0  0  0  0  0  0  0  0  0  0
    8.3713  -16.3881   21.4269 C   0  0  0  0  0  0  0  0  0  0  0  0
    7.6546  -16.7369   22.3933 O   0  0  0  0  0  0  0  0  0  0  0  0
    9.7903  -16.5506   21.5787 N   0  0  0  0  0  0  0  0  0  0  0  0
   10.3771  -17.1260   22.7552 C   0  0  1  0  0  0  0  0  0  0  0  0
   11.7773  -17.6183   22.6165 C   0  0  0  0  0  0  0  0  0  0  0  0
   12.3042  -18.3352   23.7918 C   0  0  0  0  0  0  0  0  0  0  0  0
   11.6144  -18.6986   24.7765 O   0  0  0  0  0  0  0  0  0  0  0  0
   10.2900  -16.0800   23.8462 C   0  0  0  0  0  0  0  0  0  0  0  0
   10.9776  -15.0350   23.7916 O   0  0  0  0  0  0  0  0  0  0  0  0
   13.6710  -18.6659   23.8839 O   0  0  0  0  0  0  0  0  0  0  0  0
    9.4354  -16.2406   24.9631 N   0  0  0  0  0  0  0  0  0  0  0  0
    9.3527  -15.1781   25.9651 C   0  0  1  0  0  0  0  0  0  0  0  0
    7.9639  -14.5769   25.9808 C   0  0  0  0  0  0  0  0  0  0  0  0
    7.7752  -13.4987   27.0091 C   0  0  0  0  0  0  0  0  0  0  0  0
    6.3395  -13.0205   27.0209 C   0  0  0  0  0  0  0  0  0  0  0  0
    6.0907  -11.9717   28.0696 C   0  0  0  0  0  0  0  0  0  0  0  0
    4.7106  -11.5091   28.0947 N   0  0  0  0  0  0  0  0  0  0  0  0
    9.6120  -15.7944   27.2774 C   0  0  0  0  0  0  0  0  0  0  0  0
    9.6868  -17.0216   27.4895 O   0  0  0  0  0  0  0  0  0  0  0  0
    9.7914  -14.9719   28.3835 O   0  0  0  0  0  0  0  0  0  0  0  0
  2  8  1  0
  2  1  1  1
  3  2  1  0
  4  3  1  0
  5  6  1  0
  5  4  1  0
  7  6  1  0
  8  9  2  0
 10 11  1  0
 10  8  1  0
 12 13  1  0
 11 12  1  6
 13 14  2  0
 15 16  2  0
 15 11  1  0
 17 13  1  0
 18 15  1  0
 19 25  1  0
 19 18  1  0
 19 20  1  1
 21 20  1  0
 22 21  1  0
 23 22  1  0
 23 24  1  0
 25 27  1  0
 26 25  2  0
M  END
$$$$
