KDK.pdb
     RDKit          3D

 27 26  0  0  1  0  0  0  0  0999 V2000
    9.8852  -17.3102   16.0973 N   0  0  0  0  0  0  0  0  0  0  0  0
    9.9917  -17.8772   17.4380 C   0  0  1  0  0  0  0  0  0  0  0  0
   11.1623  -18.8306   17.4716 C   0  0  0  0  0  0  0  0  0  0  0  0
   10.8472  -20.0573   16.6822 C   0  0  0  0  0  0  0  0  0  0  0  0
   10.3415  -21.2179   17.5226 C   0  0  0  0  0  0  0  0  0  0  0  0
   10.1049  -22.4101   16.6277 C   0  0  0  0  0  0  0  0  0  0  0  0
    9.4622  -23.4746   17.4036 N   0  0  0  0  0  0  0  0  0  0  0  0
   10.0394  -16.8580   18.4941 C   0  0  0  0  0  0  0  0  0  0  0  0
   11.1291  -16.6397   19.0722 O   0  0  0  0  0  0  0  0  0  0  0  0
    8.9096  -16.0817   18.9232 N   0  0  0  0  0  0  0  0  0  0  0  0
    8.9958  -15.1197   19.9846 C   0  0  1  0  0  0  0  0  0  0  0  0
    7.8655  -14.1533   20.0879 C   0  0  0  0  0  0  0  0  0  0  0  0
    7.6531  -13.3142   18.8948 C   0  0  0  0  0  0  0  0  0  0  0  0
    8.5488  -13.0016   18.0716 O   0  0  0  0  0  0  0  0  0  0  0  0
    9.1440  -15.8997   21.2736 C   0  0  0  0  0  0  0  0  0  0  0  0
    8.2660  -16.7153   21.6364 O   0  0  0  0  0  0  0  0  0  0  0  0
    6.3794  -12.7896   18.5974 O   0  0  0  0  0  0  0  0  0  0  0  0
   10.2716  -15.7390   22.1140 N   0  0  0  0  0  0  0  0  0  0  0  0
   10.3429  -16.4804   23.3730 C   0  0  1  0  0  0  0  0  0  0  0  0
   11.7858  -16.6874   23.7804 C   0  0  0  0  0  0  0  0  0  0  0  0
   12.5442  -17.6294   22.8901 C   0  0  0  0  0  0  0  0  0  0  0  0
   13.9726  -17.7782   23.3672 C   0  0  0  0  0  0  0  0  0  0  0  0
   14.7852  -18.6795   22.4790 C   0  0  0  0  0  0  0  0  0  0  0  0
   16.1492  -18.8649   22.9528 N   0  0  0  0  0  0  0  0  0  0  0  0
    9.6782  -15.6610   24.4006 C   0  0  0  0  0  0  0  0  0  0  0  0
    9.2638  -14.4967   24.2298 O   0  0  0  0  0  0  0  0  0  0  0  0
    9.4833  -16.1985   25.6675 O   0  0  0  0  0  0  0  0  0  0  0  0
  2  8  1  0
  2  1  1  6
  3  2  1  0
  4  3  1  0
  5  6  1  0
  5  4  1  0
  7  6  1  0
  8  9  2  0
 10 11  1  0
 10  8  1  0
 12 13  1  0
 11 12  1  1
 13 14  2  0
 15 16  2  0
 15 11  1  0
 17 13  1  0
 18 15  1  0
 19 25  1  0
 19 18  1  0
 19 20  1  1
 21 20  1  0
 22 21  1  0
 23 22  1  0
 23 24  1  0
 25 27  1  0
 26 25  2  0
M  END
$$$$
