KDK.pdb
     RDKit          3D

 27 26  0  0  1  0  0  0  0  0999 V2000
    9.1138  -16.6282   19.0464 N   0  0  0  0  0  0  0  0  0  0  0  0
    8.8563  -17.3799   20.2706 C   0  0  1  0  0  0  0  0  0  0  0  0
    8.0900  -18.6330   19.9202 C   0  0  0  0  0  0  0  0  0  0  0  0
    7.4174  -18.4698   18.5981 C   0  0  0  0  0  0  0  0  0  0  0  0
    6.6021  -19.6779   18.1682 C   0  0  0  0  0  0  0  0  0  0  0  0
    5.8555  -19.3444   16.8995 C   0  0  0  0  0  0  0  0  0  0  0  0
    4.9435  -20.4446   16.5741 N   0  0  0  0  0  0  0  0  0  0  0  0
   10.0702  -17.6391   21.0554 C   0  0  0  0  0  0  0  0  0  0  0  0
   10.3509  -18.8217   21.3582 O   0  0  0  0  0  0  0  0  0  0  0  0
   10.9733  -16.6198   21.5121 N   0  0  0  0  0  0  0  0  0  0  0  0
   12.1314  -16.9175   22.3057 C   0  0  1  0  0  0  0  0  0  0  0  0
   13.1621  -15.8441   22.3910 C   0  0  0  0  0  0  0  0  0  0  0  0
   14.4249  -16.2437   23.0379 C   0  0  0  0  0  0  0  0  0  0  0  0
   14.9615  -15.6348   23.9965 O   0  0  0  0  0  0  0  0  0  0  0  0
   11.6344  -17.2845   23.6878 C   0  0  0  0  0  0  0  0  0  0  0  0
   11.0748  -16.4342   24.4168 O   0  0  0  0  0  0  0  0  0  0  0  0
   15.1348  -17.3787   22.5978 O   0  0  0  0  0  0  0  0  0  0  0  0
   11.7821  -18.5928   24.2075 N   0  0  0  0  0  0  0  0  0  0  0  0
   11.3401  -18.8798   25.5721 C   0  0  1  0  0  0  0  0  0  0  0  0
   11.1970  -20.3727   25.7756 C   0  0  0  0  0  0  0  0  0  0  0  0
   10.1593  -21.0133   24.8992 C   0  0  0  0  0  0  0  0  0  0  0  0
   10.2875  -22.5206   24.9379 C   0  0  0  0  0  0  0  0  0  0  0  0
    9.2232  -23.2098   24.1293 C   0  0  0  0  0  0  0  0  0  0  0  0
    9.4042  -24.6528   24.0639 N   0  0  0  0  0  0  0  0  0  0  0  0
   12.3837  -18.3800   26.4833 C   0  0  0  0  0  0  0  0  0  0  0  0
   13.5150  -17.9897   26.1304 O   0  0  0  0  0  0  0  0  0  0  0  0
   12.1178  -18.3272   27.8465 O   0  0  0  0  0  0  0  0  0  0  0  0
  2  8  1  0
  2  1  1  6
  3  2  1  0
  4  3  1  0
  5  6  1  0
  5  4  1  0
  7  6  1  0
  8  9  2  0
 10 11  1  0
 10  8  1  0
 12 13  1  0
 11 12  1  1
 13 14  2  0
 15 16  2  0
 15 11  1  0
 17 13  1  0
 18 15  1  0
 19 25  1  0
 19 18  1  0
 19 20  1  6
 21 20  1  0
 22 21  1  0
 23 22  1  0
 23 24  1  0
 25 27  1  0
 26 25  2  0
M  END
$$$$
