KDK.pdb
     RDKit          3D

 27 26  0  0  1  0  0  0  0  0999 V2000
    7.1243  -16.2195   19.4583 N   0  0  0  0  0  0  0  0  0  0  0  0
    8.2463  -15.5159   20.0718 C   0  0  1  0  0  0  0  0  0  0  0  0
    7.8337  -14.0899   20.3486 C   0  0  0  0  0  0  0  0  0  0  0  0
    7.5440  -13.3820   19.0672 C   0  0  0  0  0  0  0  0  0  0  0  0
    8.4838  -13.7530   17.9321 C   0  0  0  0  0  0  0  0  0  0  0  0
    8.1174  -12.9533   16.7056 C   0  0  0  0  0  0  0  0  0  0  0  0
    8.9239  -13.4141   15.5718 N   0  0  0  0  0  0  0  0  0  0  0  0
    8.7860  -16.2059   21.2504 C   0  0  0  0  0  0  0  0  0  0  0  0
    7.9875  -16.6439   22.1104 O   0  0  0  0  0  0  0  0  0  0  0  0
   10.1854  -16.4170   21.4961 N   0  0  0  0  0  0  0  0  0  0  0  0
   10.6705  -17.0393   22.6948 C   0  0  1  0  0  0  0  0  0  0  0  0
   12.0416  -17.6200   22.6241 C   0  0  0  0  0  0  0  0  0  0  0  0
   12.2293  -18.6481   21.5845 C   0  0  0  0  0  0  0  0  0  0  0  0
   11.6101  -19.7399   21.5384 O   0  0  0  0  0  0  0  0  0  0  0  0
   10.5927  -15.9994   23.7922 C   0  0  0  0  0  0  0  0  0  0  0  0
   11.3965  -15.0400   23.8273 O   0  0  0  0  0  0  0  0  0  0  0  0
   13.1554  -18.4587   20.5394 O   0  0  0  0  0  0  0  0  0  0  0  0
    9.6166  -16.0698   24.8149 N   0  0  0  0  0  0  0  0  0  0  0  0
    9.4884  -14.9653   25.7654 C   0  0  1  0  0  0  0  0  0  0  0  0
    8.1132  -14.3414   25.6644 C   0  0  0  0  0  0  0  0  0  0  0  0
    7.8479  -13.2755   26.6885 C   0  0  0  0  0  0  0  0  0  0  0  0
    6.4380  -12.7437   26.5496 C   0  0  0  0  0  0  0  0  0  0  0  0
    6.1197  -11.6838   27.5679 C   0  0  0  0  0  0  0  0  0  0  0  0
    4.7326  -11.2448   27.5168 N   0  0  0  0  0  0  0  0  0  0  0  0
    9.6492  -15.5305   27.1159 C   0  0  0  0  0  0  0  0  0  0  0  0
    9.5463  -16.7405   27.4022 O   0  0  0  0  0  0  0  0  0  0  0  0
    9.9380  -14.6757   28.1731 O   0  0  0  0  0  0  0  0  0  0  0  0
  2  8  1  0
  2  1  1  1
  3  2  1  0
  4  3  1  0
  5  6  1  0
  5  4  1  0
  7  6  1  0
  8  9  2  0
 10 11  1  0
 10  8  1  0
 12 13  1  0
 11 12  1  6
 13 14  2  0
 15 16  2  0
 15 11  1  0
 17 13  1  0
 18 15  1  0
 19 25  1  0
 19 18  1  0
 19 20  1  1
 21 20  1  0
 22 21  1  0
 23 22  1  0
 23 24  1  0
 25 27  1  0
 26 25  2  0
M  END
$$$$
