KDK.pdb
     RDKit          3D

 27 26  0  0  1  0  0  0  0  0999 V2000
    9.7366  -17.1042   17.6881 N   0  0  0  0  0  0  0  0  0  0  0  0
    8.6636  -17.2930   18.6592 C   0  0  1  0  0  0  0  0  0  0  0  0
    7.5944  -18.1615   18.0405 C   0  0  0  0  0  0  0  0  0  0  0  0
    8.1730  -18.9750   16.9313 C   0  0  0  0  0  0  0  0  0  0  0  0
    7.8695  -18.4313   15.5451 C   0  0  0  0  0  0  0  0  0  0  0  0
    8.2663  -19.4588   14.5132 C   0  0  0  0  0  0  0  0  0  0  0  0
    8.2054  -18.8515   13.1807 N   0  0  0  0  0  0  0  0  0  0  0  0
    9.1396  -17.7896   19.9567 C   0  0  0  0  0  0  0  0  0  0  0  0
    8.2961  -18.1028   20.8283 O   0  0  0  0  0  0  0  0  0  0  0  0
   10.5239  -17.9425   20.3079 N   0  0  0  0  0  0  0  0  0  0  0  0
   10.9421  -18.4834   21.5697 C   0  0  1  0  0  0  0  0  0  0  0  0
   12.0232  -19.5084   21.5184 C   0  0  0  0  0  0  0  0  0  0  0  0
   11.5743  -20.8697   21.1745 C   0  0  0  0  0  0  0  0  0  0  0  0
   11.8413  -21.9005   21.8406 O   0  0  0  0  0  0  0  0  0  0  0  0
   11.3642  -17.3124   22.4314 C   0  0  0  0  0  0  0  0  0  0  0  0
   12.2205  -16.4928   22.0280 O   0  0  0  0  0  0  0  0  0  0  0  0
   10.7885  -21.1038   20.0283 O   0  0  0  0  0  0  0  0  0  0  0  0
   10.8129  -17.0993   23.7176 N   0  0  0  0  0  0  0  0  0  0  0  0
   11.3561  -16.0399   24.5674 C   0  0  1  0  0  0  0  0  0  0  0  0
   10.4368  -15.7848   25.7424 C   0  0  0  0  0  0  0  0  0  0  0  0
   11.0122  -14.8661   26.7817 C   0  0  0  0  0  0  0  0  0  0  0  0
   10.0403  -14.6839   27.9272 C   0  0  0  0  0  0  0  0  0  0  0  0
   10.5547  -13.7334   28.9729 C   0  0  0  0  0  0  0  0  0  0  0  0
    9.6358  -13.5652   30.0894 N   0  0  0  0  0  0  0  0  0  0  0  0
   12.6529  -16.5134   25.0806 C   0  0  0  0  0  0  0  0  0  0  0  0
   12.8631  -17.6472   25.5570 O   0  0  0  0  0  0  0  0  0  0  0  0
   13.7450  -15.6544   25.0448 O   0  0  0  0  0  0  0  0  0  0  0  0
  2  8  1  0
  2  1  1  6
  3  2  1  0
  4  3  1  0
  5  6  1  0
  5  4  1  0
  7  6  1  0
  8  9  2  0
 10 11  1  0
 10  8  1  0
 12 13  1  0
 11 12  1  6
 13 14  2  0
 15 16  2  0
 15 11  1  0
 17 13  1  0
 18 15  1  0
 19 25  1  0
 19 18  1  0
 19 20  1  1
 21 20  1  0
 22 21  1  0
 23 22  1  0
 23 24  1  0
 25 27  1  0
 26 25  2  0
M  END
$$$$
