KDK.pdb
     RDKit          3D

 27 26  0  0  1  0  0  0  0  0999 V2000
    8.9283  -17.7567   17.0964 N   0  0  0  0  0  0  0  0  0  0  0  0
    9.8657  -16.9072   17.8243 C   0  0  1  0  0  0  0  0  0  0  0  0
    9.0827  -15.9116   18.6465 C   0  0  0  0  0  0  0  0  0  0  0  0
    8.3679  -14.9561   17.7503 C   0  0  0  0  0  0  0  0  0  0  0  0
    7.5143  -13.9391   18.4894 C   0  0  0  0  0  0  0  0  0  0  0  0
    7.0156  -12.9061   17.5084 C   0  0  0  0  0  0  0  0  0  0  0  0
    6.1080  -11.9852   18.1986 N   0  0  0  0  0  0  0  0  0  0  0  0
   10.8458  -17.6688   18.6091 C   0  0  0  0  0  0  0  0  0  0  0  0
   10.4458  -18.6353   19.2985 O   0  0  0  0  0  0  0  0  0  0  0  0
   12.2526  -17.3813   18.6483 N   0  0  0  0  0  0  0  0  0  0  0  0
   13.1719  -18.1451   19.4426 C   0  0  1  0  0  0  0  0  0  0  0  0
   14.5823  -18.1809   18.9613 C   0  0  0  0  0  0  0  0  0  0  0  0
   14.7736  -18.8071   17.6407 C   0  0  0  0  0  0  0  0  0  0  0  0
   14.0584  -19.7292   17.1760 O   0  0  0  0  0  0  0  0  0  0  0  0
   13.1070  -17.5869   20.8483 C   0  0  0  0  0  0  0  0  0  0  0  0
   13.1314  -16.3517   21.0516 O   0  0  0  0  0  0  0  0  0  0  0  0
   15.8158  -18.3918   16.7879 O   0  0  0  0  0  0  0  0  0  0  0  0
   13.0175  -18.4323   21.9802 N   0  0  0  0  0  0  0  0  0  0  0  0
   12.9092  -17.8410   23.3138 C   0  0  1  0  0  0  0  0  0  0  0  0
   12.4195  -18.8718   24.3079 C   0  0  0  0  0  0  0  0  0  0  0  0
   12.4885  -18.4229   25.7393 C   0  0  0  0  0  0  0  0  0  0  0  0
   12.1770  -19.5725   26.6729 C   0  0  0  0  0  0  0  0  0  0  0  0
   12.3688  -19.2077   28.1191 C   0  0  0  0  0  0  0  0  0  0  0  0
   12.2527  -20.3503   29.0137 N   0  0  0  0  0  0  0  0  0  0  0  0
   14.2604  -17.4106   23.7116 C   0  0  0  0  0  0  0  0  0  0  0  0
   15.3218  -17.9519   23.3416 O   0  0  0  0  0  0  0  0  0  0  0  0
   14.3958  -16.3208   24.5636 O   0  0  0  0  0  0  0  0  0  0  0  0
  2  8  1  0
  2  1  1  1
  3  2  1  0
  4  3  1  0
  5  6  1  0
  5  4  1  0
  7  6  1  0
  8  9  2  0
 10 11  1  0
 10  8  1  0
 12 13  1  0
 11 12  1  6
 13 14  2  0
 15 16  2  0
 15 11  1  0
 17 13  1  0
 18 15  1  0
 19 25  1  0
 19 18  1  0
 19 20  1  1
 21 20  1  0
 22 21  1  0
 23 22  1  0
 23 24  1  0
 25 27  1  0
 26 25  2  0
M  END
$$$$
