KDK.pdb
     RDKit          3D

 27 26  0  0  1  0  0  0  0  0999 V2000
    9.9037  -15.6636   18.3277 N   0  0  0  0  0  0  0  0  0  0  0  0
    8.8309  -15.4979   19.3033 C   0  0  1  0  0  0  0  0  0  0  0  0
    7.5153  -15.8317   18.6413 C   0  0  0  0  0  0  0  0  0  0  0  0
    7.6062  -15.5934   17.1710 C   0  0  0  0  0  0  0  0  0  0  0  0
    8.0858  -14.1998   16.8010 C   0  0  0  0  0  0  0  0  0  0  0  0
    7.9266  -14.0008   15.3133 C   0  0  0  0  0  0  0  0  0  0  0  0
    8.3641  -12.6476   14.9589 N   0  0  0  0  0  0  0  0  0  0  0  0
    9.0623  -16.2415   20.5483 C   0  0  0  0  0  0  0  0  0  0  0  0
    8.1410  -16.3008   21.3949 O   0  0  0  0  0  0  0  0  0  0  0  0
   10.2885  -16.9147   20.8745 N   0  0  0  0  0  0  0  0  0  0  0  0
   10.5048  -17.5463   22.1449 C   0  0  1  0  0  0  0  0  0  0  0  0
   11.7625  -18.3350   22.2800 C   0  0  0  0  0  0  0  0  0  0  0  0
   11.8683  -19.1310   23.5161 C   0  0  0  0  0  0  0  0  0  0  0  0
   10.9899  -19.1800   24.4125 O   0  0  0  0  0  0  0  0  0  0  0  0
   10.4497  -16.4553   23.1930 C   0  0  0  0  0  0  0  0  0  0  0  0
   11.3744  -15.6178   23.2988 O   0  0  0  0  0  0  0  0  0  0  0  0
   13.0107  -19.9141   23.7761 O   0  0  0  0  0  0  0  0  0  0  0  0
    9.3598  -16.3397   24.0887 N   0  0  0  0  0  0  0  0  0  0  0  0
    9.3017  -15.2046   25.0095 C   0  0  1  0  0  0  0  0  0  0  0  0
    7.9529  -14.5237   24.9206 C   0  0  0  0  0  0  0  0  0  0  0  0
    7.7925  -13.3587   25.8546 C   0  0  0  0  0  0  0  0  0  0  0  0
    6.4268  -12.7282   25.6887 C   0  0  0  0  0  0  0  0  0  0  0  0
    6.2626  -11.4844   26.5179 C   0  0  0  0  0  0  0  0  0  0  0  0
    4.9450  -10.8804   26.3816 N   0  0  0  0  0  0  0  0  0  0  0  0
    9.4688  -15.7384   26.3719 C   0  0  0  0  0  0  0  0  0  0  0  0
    9.3559  -16.9399   26.6887 O   0  0  0  0  0  0  0  0  0  0  0  0
    9.7760  -14.8612   27.4054 O   0  0  0  0  0  0  0  0  0  0  0  0
  2  8  1  0
  2  1  1  6
  3  2  1  0
  4  3  1  0
  5  6  1  0
  5  4  1  0
  7  6  1  0
  8  9  2  0
 10 11  1  0
 10  8  1  0
 12 13  1  0
 11 12  1  6
 13 14  2  0
 15 16  2  0
 15 11  1  0
 17 13  1  0
 18 15  1  0
 19 25  1  0
 19 18  1  0
 19 20  1  1
 21 20  1  0
 22 21  1  0
 23 22  1  0
 23 24  1  0
 25 27  1  0
 26 25  2  0
M  END
$$$$
