KDK.pdb
     RDKit          3D

 27 26  0  0  1  0  0  0  0  0999 V2000
    9.9789  -14.6903   18.3487 N   0  0  0  0  0  0  0  0  0  0  0  0
    9.1136  -14.1716   19.4034 C   0  0  1  0  0  0  0  0  0  0  0  0
    7.7389  -13.9263   18.8284 C   0  0  0  0  0  0  0  0  0  0  0  0
    7.8497  -13.4694   17.4121 C   0  0  0  0  0  0  0  0  0  0  0  0
    7.7025  -14.5854   16.3913 C   0  0  0  0  0  0  0  0  0  0  0  0
    7.7451  -13.9943   15.0031 C   0  0  0  0  0  0  0  0  0  0  0  0
    7.4453  -15.0429   14.0239 N   0  0  0  0  0  0  0  0  0  0  0  0
    9.1007  -15.0137   20.6064 C   0  0  0  0  0  0  0  0  0  0  0  0
    8.1354  -14.9174   21.3991 O   0  0  0  0  0  0  0  0  0  0  0  0
   10.1315  -15.9534   20.9493 N   0  0  0  0  0  0  0  0  0  0  0  0
   10.0239  -16.8362   22.0756 C   0  0  1  0  0  0  0  0  0  0  0  0
   11.0433  -17.9206   22.1593 C   0  0  0  0  0  0  0  0  0  0  0  0
   11.0079  -18.8947   21.0535 C   0  0  0  0  0  0  0  0  0  0  0  0
   12.0162  -19.2955   20.4209 O   0  0  0  0  0  0  0  0  0  0  0  0
   10.0687  -15.9714   23.3175 C   0  0  0  0  0  0  0  0  0  0  0  0
   11.0730  -15.2701   23.5769 O   0  0  0  0  0  0  0  0  0  0  0  0
    9.7887  -19.4544   20.6220 O   0  0  0  0  0  0  0  0  0  0  0  0
    8.9862  -15.9220   24.2281 N   0  0  0  0  0  0  0  0  0  0  0  0
    9.0369  -14.9936   25.3573 C   0  0  1  0  0  0  0  0  0  0  0  0
    7.8208  -14.0925   25.3524 C   0  0  0  0  0  0  0  0  0  0  0  0
    7.7370  -13.1709   26.5351 C   0  0  0  0  0  0  0  0  0  0  0  0
    6.4685  -12.3476   26.4789 C   0  0  0  0  0  0  0  0  0  0  0  0
    6.3425  -11.4042   27.6433 C   0  0  0  0  0  0  0  0  0  0  0  0
    5.0605  -10.7154   27.6806 N   0  0  0  0  0  0  0  0  0  0  0  0
    9.0168  -15.8017   26.5884 C   0  0  0  0  0  0  0  0  0  0  0  0
    9.0433  -15.3409   27.7476 O   0  0  0  0  0  0  0  0  0  0  0  0
    8.9644  -17.1867   26.4835 O   0  0  0  0  0  0  0  0  0  0  0  0
  2  8  1  0
  2  1  1  6
  3  2  1  0
  4  3  1  0
  5  6  1  0
  5  4  1  0
  7  6  1  0
  8  9  2  0
 10 11  1  0
 10  8  1  0
 12 13  1  0
 11 12  1  1
 13 14  2  0
 15 16  2  0
 15 11  1  0
 17 13  1  0
 18 15  1  0
 19 25  1  0
 19 18  1  0
 19 20  1  1
 21 20  1  0
 22 21  1  0
 23 22  1  0
 23 24  1  0
 25 27  1  0
 26 25  2  0
M  END
$$$$
