KDK.pdb
     RDKit          3D

 27 26  0  0  1  0  0  0  0  0999 V2000
    8.1532  -17.6215   19.6122 N   0  0  0  0  0  0  0  0  0  0  0  0
    9.5164  -17.3076   20.0287 C   0  0  1  0  0  0  0  0  0  0  0  0
    9.8491  -15.9026   19.5863 C   0  0  0  0  0  0  0  0  0  0  0  0
    8.6340  -15.0396   19.6633 C   0  0  0  0  0  0  0  0  0  0  0  0
    8.8773  -13.5954   19.2581 C   0  0  0  0  0  0  0  0  0  0  0  0
    7.5699  -12.8424   19.3032 C   0  0  0  0  0  0  0  0  0  0  0  0
    7.7907  -11.4667   18.8485 N   0  0  0  0  0  0  0  0  0  0  0  0
    9.7509  -17.5393   21.4597 C   0  0  0  0  0  0  0  0  0  0  0  0
    8.7642  -17.6126   22.2280 O   0  0  0  0  0  0  0  0  0  0  0  0
   11.0498  -17.6874   22.0548 N   0  0  0  0  0  0  0  0  0  0  0  0
   11.2282  -18.0117   23.4414 C   0  0  1  0  0  0  0  0  0  0  0  0
   12.5395  -18.6169   23.8103 C   0  0  0  0  0  0  0  0  0  0  0  0
   12.8787  -19.8558   23.0872 C   0  0  0  0  0  0  0  0  0  0  0  0
   13.6843  -19.9252   22.1260 O   0  0  0  0  0  0  0  0  0  0  0  0
   10.9951  -16.7371   24.2242 C   0  0  0  0  0  0  0  0  0  0  0  0
   11.7047  -15.7240   24.0296 O   0  0  0  0  0  0  0  0  0  0  0  0
   12.2921  -21.0859   23.4459 O   0  0  0  0  0  0  0  0  0  0  0  0
    9.9745  -16.6405   25.2002 N   0  0  0  0  0  0  0  0  0  0  0  0
    9.8678  -15.4291   26.0132 C   0  0  1  0  0  0  0  0  0  0  0  0
    8.4603  -14.8763   25.9511 C   0  0  0  0  0  0  0  0  0  0  0  0
    8.2314  -13.6838   26.8347 C   0  0  0  0  0  0  0  0  0  0  0  0
    6.7922  -13.2246   26.7463 C   0  0  0  0  0  0  0  0  0  0  0  0
    6.5143  -12.0307   27.6174 C   0  0  0  0  0  0  0  0  0  0  0  0
    5.1675  -11.5047   27.4480 N   0  0  0  0  0  0  0  0  0  0  0  0
   10.1611  -15.8101   27.4053 C   0  0  0  0  0  0  0  0  0  0  0  0
   10.1665  -16.9791   27.8413 O   0  0  0  0  0  0  0  0  0  0  0  0
   10.4583  -14.8135   28.3274 O   0  0  0  0  0  0  0  0  0  0  0  0
  2  8  1  0
  2  1  1  1
  3  2  1  0
  4  3  1  0
  5  6  1  0
  5  4  1  0
  7  6  1  0
  8  9  2  0
 10 11  1  0
 10  8  1  0
 12 13  1  0
 11 12  1  6
 13 14  2  0
 15 16  2  0
 15 11  1  0
 17 13  1  0
 18 15  1  0
 19 25  1  0
 19 18  1  0
 19 20  1  1
 21 20  1  0
 22 21  1  0
 23 22  1  0
 23 24  1  0
 25 27  1  0
 26 25  2  0
M  END
$$$$
