DMW.pdb
     RDKit          3D

 31 32  0  0  1  0  0  0  0  0999 V2000
    8.4461  -20.2681   19.1342 N   0  0  0  0  0  0  0  0  0  0  0  0
    8.1596  -19.5238   20.3196 C   0  0  1  0  0  0  0  0  0  0  0  0
    8.3539  -20.4146   21.5425 C   0  0  0  0  0  0  0  0  0  0  0  0
    9.7659  -20.8045   21.7479 C   0  0  0  0  0  0  0  0  0  0  0  0
   10.5114  -21.2054   20.8214 O   0  0  0  0  0  0  0  0  0  0  0  0
    8.9840  -18.3100   20.5137 C   0  0  0  0  0  0  0  0  0  0  0  0
   10.1506  -18.3473   20.0018 O   0  0  0  0  0  0  0  0  0  0  0  0
   10.3255  -20.7361   23.0144 O   0  0  0  0  0  0  0  0  0  0  0  0
    6.7872  -12.3146   24.3024 C   0  0  0  0  0  0  0  0  0  0  0  0
    7.2657  -12.7738   22.6615 S   0  0  0  0  0  0  0  0  0  0  0  0
    7.6143  -14.4901   22.3615 C   0  0  0  0  0  0  0  0  0  0  0  0
    8.3361  -14.7778   21.0839 C   0  0  0  0  0  0  0  0  0  0  0  0
    9.3140  -15.8957   21.2238 C   0  0  2  0  0  0  0  0  0  0  0  0
    8.5765  -17.1452   21.2087 N   0  0  0  0  0  0  0  0  0  0  0  0
    9.9620  -15.7123   22.5935 C   0  0  0  0  0  0  0  0  0  0  0  0
   10.6327  -14.6886   22.8152 O   0  0  0  0  0  0  0  0  0  0  0  0
    9.8014  -16.6858   23.5944 N   0  0  0  0  0  0  0  0  0  0  0  0
   10.4282  -16.5890   24.9319 C   0  0  1  0  0  0  0  0  0  0  0  0
    9.3372  -17.0215   25.9370 C   0  0  0  0  0  0  0  0  0  0  0  0
    8.1791  -16.1242   25.8594 C   0  0  0  0  0  0  0  0  0  0  0  0
    6.9002  -16.3772   25.4219 C   0  0  0  0  0  0  0  0  0  0  0  0
    6.1633  -15.2616   25.5559 N   0  0  0  0  0  0  0  0  0  0  0  0
    6.9261  -14.2914   26.0676 C   0  0  0  0  0  0  0  0  0  0  0  0
    6.5682  -12.9844   26.3761 C   0  0  0  0  0  0  0  0  0  0  0  0
    7.5448  -12.1736   26.9080 C   0  0  0  0  0  0  0  0  0  0  0  0
    8.8167  -12.6752   27.1121 C   0  0  0  0  0  0  0  0  0  0  0  0
    9.1538  -13.9750   26.8002 C   0  0  0  0  0  0  0  0  0  0  0  0
    8.1842  -14.7937   26.2682 C   0  0  0  0  0  0  0  0  0  0  0  0
   11.4423  -17.6535   24.9702 C   0  0  0  0  0  0  0  0  0  0  0  0
   11.6939  -18.5210   23.9529 O   0  0  0  0  0  0  0  0  0  0  0  0
   12.1586  -17.8029   26.0190 O   0  0  0  0  0  0  0  0  0  0  0  0
  2  1  1  6
  2  6  1  0
  2  3  1  0
  3  4  1  0
  4  8  1  0
  5  4  2  0
  6  7  2  0
  9 10  1  0
 11 10  1  0
 11 12  1  0
 13 14  1  0
 13 12  1  1
 14  6  1  0
 15 13  1  0
 16 15  2  0
 17 15  1  0
 18 17  1  0
 18 19  1  1
 19 20  1  0
 20 21  2  0
 21 22  1  0
 23 24  2  0
 23 22  1  0
 25 24  1  0
 26 25  2  0
 27 26  1  0
 27 28  2  0
 28 20  1  0
 28 23  1  0
 29 18  1  0
 29 30  1  0
 31 29  2  0
M  END
$$$$
