DMW.pdb
     RDKit          3D

 31 32  0  0  1  0  0  0  0  0999 V2000
   11.9279  -18.1024   17.2974 N   0  0  0  0  0  0  0  0  0  0  0  0
   11.4216  -18.5951   18.5392 C   0  0  1  0  0  0  0  0  0  0  0  0
   12.2597  -19.7841   18.9978 C   0  0  0  0  0  0  0  0  0  0  0  0
   12.5483  -20.7368   17.9037 C   0  0  0  0  0  0  0  0  0  0  0  0
   12.2845  -20.5028   16.6993 O   0  0  0  0  0  0  0  0  0  0  0  0
   11.3990  -17.6099   19.6436 C   0  0  0  0  0  0  0  0  0  0  0  0
   12.4967  -17.0002   19.8619 O   0  0  0  0  0  0  0  0  0  0  0  0
   13.1390  -21.9585   18.1877 O   0  0  0  0  0  0  0  0  0  0  0  0
    7.1266  -12.6513   20.5957 C   0  0  0  0  0  0  0  0  0  0  0  0
    7.1821  -14.2844   19.9158 S   0  0  0  0  0  0  0  0  0  0  0  0
    8.6978  -15.1940   20.0960 C   0  0  0  0  0  0  0  0  0  0  0  0
    9.0639  -15.5462   21.5024 C   0  0  0  0  0  0  0  0  0  0  0  0
   10.2904  -16.3923   21.5749 C   0  0  2  0  0  0  0  0  0  0  0  0
   10.2743  -17.3081   20.4495 N   0  0  0  0  0  0  0  0  0  0  0  0
   10.1700  -17.1888   22.8714 C   0  0  0  0  0  0  0  0  0  0  0  0
    9.7364  -18.3538   22.8297 O   0  0  0  0  0  0  0  0  0  0  0  0
   10.5470  -16.6155   24.0979 N   0  0  0  0  0  0  0  0  0  0  0  0
    9.5766  -16.0716   25.0745 C   0  0  1  0  0  0  0  0  0  0  0  0
    8.5401  -15.2858   24.2403 C   0  0  0  0  0  0  0  0  0  0  0  0
    7.5127  -14.7026   25.1103 C   0  0  0  0  0  0  0  0  0  0  0  0
    6.3956  -15.2848   25.6618 C   0  0  0  0  0  0  0  0  0  0  0  0
    5.7550  -14.3751   26.4153 N   0  0  0  0  0  0  0  0  0  0  0  0
    6.4234  -13.2191   26.3693 C   0  0  0  0  0  0  0  0  0  0  0  0
    6.1206  -12.0215   27.0061 C   0  0  0  0  0  0  0  0  0  0  0  0
    6.9815  -10.9668   26.8045 C   0  0  0  0  0  0  0  0  0  0  0  0
    8.0903  -11.1314   25.9955 C   0  0  0  0  0  0  0  0  0  0  0  0
    8.3751  -12.3274   25.3719 C   0  0  0  0  0  0  0  0  0  0  0  0
    7.5205  -13.3880   25.5674 C   0  0  0  0  0  0  0  0  0  0  0  0
    8.8531  -17.2379   25.6031 C   0  0  0  0  0  0  0  0  0  0  0  0
    8.5509  -17.4330   26.9150 O   0  0  0  0  0  0  0  0  0  0  0  0
    8.4640  -18.1539   24.8001 O   0  0  0  0  0  0  0  0  0  0  0  0
  2  1  1  6
  2  6  1  0
  2  3  1  0
  3  4  1  0
  4  8  1  0
  5  4  2  0
  6  7  2  0
  9 10  1  0
 11 10  1  0
 11 12  1  0
 13 14  1  0
 13 12  1  6
 14  6  1  0
 15 13  1  0
 16 15  2  0
 17 15  1  0
 18 17  1  0
 18 19  1  6
 19 20  1  0
 20 21  2  0
 21 22  1  0
 23 24  2  0
 23 22  1  0
 25 24  1  0
 26 25  2  0
 27 26  1  0
 27 28  2  0
 28 20  1  0
 28 23  1  0
 29 18  1  0
 29 30  1  0
 31 29  2  0
M  END
$$$$
