DMW.pdb
     RDKit          3D

 31 32  0  0  1  0  0  0  0  0999 V2000
   12.2029  -18.4187   18.0724 N   0  0  0  0  0  0  0  0  0  0  0  0
   11.4960  -18.8735   19.2277 C   0  0  1  0  0  0  0  0  0  0  0  0
   12.2784  -19.9997   19.8957 C   0  0  0  0  0  0  0  0  0  0  0  0
   12.4892  -21.1589   19.0012 C   0  0  0  0  0  0  0  0  0  0  0  0
   13.6256  -21.5709   18.6641 O   0  0  0  0  0  0  0  0  0  0  0  0
   11.2366  -17.8383   20.2533 C   0  0  0  0  0  0  0  0  0  0  0  0
   12.2050  -17.0459   20.4951 O   0  0  0  0  0  0  0  0  0  0  0  0
   11.3988  -21.8472   18.4918 O   0  0  0  0  0  0  0  0  0  0  0  0
    6.3862  -12.4107   22.9150 C   0  0  0  0  0  0  0  0  0  0  0  0
    6.7166  -13.9130   22.0396 S   0  0  0  0  0  0  0  0  0  0  0  0
    8.1911  -14.8047   22.4731 C   0  0  0  0  0  0  0  0  0  0  0  0
    8.4315  -16.0546   21.6883 C   0  0  0  0  0  0  0  0  0  0  0  0
    9.7791  -16.6387   21.9497 C   0  0  2  0  0  0  0  0  0  0  0  0
   10.0218  -17.6739   20.9624 N   0  0  0  0  0  0  0  0  0  0  0  0
    9.6945  -17.2759   23.3341 C   0  0  0  0  0  0  0  0  0  0  0  0
    9.8699  -18.5019   23.4495 O   0  0  0  0  0  0  0  0  0  0  0  0
    9.4251  -16.4882   24.4664 N   0  0  0  0  0  0  0  0  0  0  0  0
   10.3166  -16.4273   25.6465 C   0  0  1  0  0  0  0  0  0  0  0  0
    9.4571  -15.8433   26.7900 C   0  0  0  0  0  0  0  0  0  0  0  0
    8.2107  -15.2778   26.2616 C   0  0  0  0  0  0  0  0  0  0  0  0
    7.0962  -15.9159   25.7698 C   0  0  0  0  0  0  0  0  0  0  0  0
    6.1828  -14.9943   25.4208 N   0  0  0  0  0  0  0  0  0  0  0  0
    6.6713  -13.7762   25.6716 C   0  0  0  0  0  0  0  0  0  0  0  0
    6.0612  -12.5438   25.4709 C   0  0  0  0  0  0  0  0  0  0  0  0
    6.7777  -11.4225   25.8225 C   0  0  0  0  0  0  0  0  0  0  0  0
    8.0482  -11.5580   26.3504 C   0  0  0  0  0  0  0  0  0  0  0  0
    8.6375  -12.7892   26.5427 C   0  0  0  0  0  0  0  0  0  0  0  0
    7.9291  -13.9163   26.1945 C   0  0  0  0  0  0  0  0  0  0  0  0
   10.5711  -17.8266   26.0211 C   0  0  0  0  0  0  0  0  0  0  0  0
   11.4418  -18.2240   26.9879 O   0  0  0  0  0  0  0  0  0  0  0  0
    9.9455  -18.7637   25.4162 O   0  0  0  0  0  0  0  0  0  0  0  0
  2  1  1  6
  2  6  1  0
  2  3  1  0
  3  4  1  0
  4  8  1  0
  5  4  2  0
  6  7  2  0
  9 10  1  0
 11 10  1  0
 11 12  1  0
 13 14  1  0
 13 12  1  6
 14  6  1  0
 15 13  1  0
 16 15  2  0
 17 15  1  0
 18 17  1  0
 18 19  1  1
 19 20  1  0
 20 21  2  0
 21 22  1  0
 23 24  2  0
 23 22  1  0
 25 24  1  0
 26 25  2  0
 27 26  1  0
 27 28  2  0
 28 20  1  0
 28 23  1  0
 29 18  1  0
 29 30  1  0
 31 29  2  0
M  END
$$$$
