DMW.pdb
     RDKit          3D

 31 32  0  0  1  0  0  0  0  0999 V2000
    6.1816  -21.1482   20.1818 N   0  0  0  0  0  0  0  0  0  0  0  0
    7.0471  -20.2027   19.5508 C   0  0  1  0  0  0  0  0  0  0  0  0
    6.4589  -19.7889   18.2057 C   0  0  0  0  0  0  0  0  0  0  0  0
    5.9806  -20.9415   17.4113 C   0  0  0  0  0  0  0  0  0  0  0  0
    6.7173  -21.9012   17.0779 O   0  0  0  0  0  0  0  0  0  0  0  0
    7.3017  -18.9686   20.3274 C   0  0  0  0  0  0  0  0  0  0  0  0
    7.8050  -17.9982   19.6722 O   0  0  0  0  0  0  0  0  0  0  0  0
    4.6585  -20.9960   16.9979 O   0  0  0  0  0  0  0  0  0  0  0  0
    6.1048  -14.0442   26.0712 C   0  0  0  0  0  0  0  0  0  0  0  0
    5.6964  -15.6099   25.3540 S   0  0  0  0  0  0  0  0  0  0  0  0
    7.0327  -16.5872   24.7089 C   0  0  0  0  0  0  0  0  0  0  0  0
    6.6263  -17.6787   23.7710 C   0  0  0  0  0  0  0  0  0  0  0  0
    7.3422  -17.6004   22.4646 C   0  0  2  0  0  0  0  0  0  0  0  0
    7.0320  -18.7985   21.7072 N   0  0  0  0  0  0  0  0  0  0  0  0
    8.8300  -17.5938   22.8056 C   0  0  0  0  0  0  0  0  0  0  0  0
    9.3870  -18.6629   23.1117 O   0  0  0  0  0  0  0  0  0  0  0  0
    9.5639  -16.3957   22.7718 N   0  0  0  0  0  0  0  0  0  0  0  0
   11.0106  -16.3186   23.0760 C   0  0  1  0  0  0  0  0  0  0  0  0
   11.3529  -14.8120   23.1000 C   0  0  0  0  0  0  0  0  0  0  0  0
   10.1606  -14.0073   22.8115 C   0  0  0  0  0  0  0  0  0  0  0  0
    9.2535  -13.4408   23.6760 C   0  0  0  0  0  0  0  0  0  0  0  0
    8.3338  -12.7667   22.9651 N   0  0  0  0  0  0  0  0  0  0  0  0
    8.6170  -12.8787   21.6641 C   0  0  0  0  0  0  0  0  0  0  0  0
    7.9352  -12.3338   20.5826 C   0  0  0  0  0  0  0  0  0  0  0  0
    8.4391  -12.5899   19.3277 C   0  0  0  0  0  0  0  0  0  0  0  0
    9.5780  -13.3612   19.1901 C   0  0  0  0  0  0  0  0  0  0  0  0
   10.2415  -13.8936   20.2749 C   0  0  0  0  0  0  0  0  0  0  0  0
    9.7458  -13.6430   21.5337 C   0  0  0  0  0  0  0  0  0  0  0  0
   11.1458  -16.7747   24.4676 C   0  0  0  0  0  0  0  0  0  0  0  0
   12.3304  -16.9785   25.1047 O   0  0  0  0  0  0  0  0  0  0  0  0
   10.0951  -17.0052   25.1592 O   0  0  0  0  0  0  0  0  0  0  0  0
  2  1  1  1
  2  6  1  0
  2  3  1  0
  3  4  1  0
  4  8  1  0
  5  4  2  0
  6  7  2  0
  9 10  1  0
 11 10  1  0
 11 12  1  0
 13 14  1  0
 13 12  1  1
 14  6  1  0
 15 13  1  0
 16 15  2  0
 17 15  1  0
 18 17  1  0
 18 19  1  1
 19 20  1  0
 20 21  2  0
 21 22  1  0
 23 24  2  0
 23 22  1  0
 25 24  1  0
 26 25  2  0
 27 26  1  0
 27 28  2  0
 28 20  1  0
 28 23  1  0
 29 18  1  0
 29 30  1  0
 31 29  2  0
M  END
$$$$
