DMW.pdb
     RDKit          3D

 31 32  0  0  1  0  0  0  0  0999 V2000
   10.1374  -16.6723   17.6715 N   0  0  0  0  0  0  0  0  0  0  0  0
   10.7533  -17.1133   18.8828 C   0  0  1  0  0  0  0  0  0  0  0  0
   12.2003  -16.6327   18.9256 C   0  0  0  0  0  0  0  0  0  0  0  0
   13.0237  -17.1988   17.8349 C   0  0  0  0  0  0  0  0  0  0  0  0
   14.2778  -17.1540   17.8244 O   0  0  0  0  0  0  0  0  0  0  0  0
   10.0923  -16.6565   20.1259 C   0  0  0  0  0  0  0  0  0  0  0  0
    9.9637  -15.3948   20.2512 O   0  0  0  0  0  0  0  0  0  0  0  0
   12.4118  -17.8164   16.7550 O   0  0  0  0  0  0  0  0  0  0  0  0
    5.1902  -19.9032   23.3516 C   0  0  0  0  0  0  0  0  0  0  0  0
    5.6022  -19.4581   21.6890 S   0  0  0  0  0  0  0  0  0  0  0  0
    6.8459  -18.2096   21.4611 C   0  0  0  0  0  0  0  0  0  0  0  0
    7.7959  -18.0434   22.6038 C   0  0  0  0  0  0  0  0  0  0  0  0
    8.8641  -17.0434   22.3130 C   0  0  2  0  0  0  0  0  0  0  0  0
    9.6078  -17.5012   21.1542 N   0  0  0  0  0  0  0  0  0  0  0  0
    9.7820  -17.0492   23.5325 C   0  0  0  0  0  0  0  0  0  0  0  0
   10.7247  -17.8593   23.5784 O   0  0  0  0  0  0  0  0  0  0  0  0
    9.5681  -16.1488   24.5902 N   0  0  0  0  0  0  0  0  0  0  0  0
   10.3872  -16.1322   25.8231 C   0  0  1  0  0  0  0  0  0  0  0  0
    9.8576  -14.9467   26.6608 C   0  0  0  0  0  0  0  0  0  0  0  0
    8.4263  -14.7394   26.4144 C   0  0  0  0  0  0  0  0  0  0  0  0
    7.3938  -15.6477   26.4205 C   0  0  0  0  0  0  0  0  0  0  0  0
    6.2424  -15.0030   26.1671 N   0  0  0  0  0  0  0  0  0  0  0  0
    6.4968  -13.7024   25.9966 C   0  0  0  0  0  0  0  0  0  0  0  0
    5.5999  -12.6761   25.7256 C   0  0  0  0  0  0  0  0  0  0  0  0
    6.1157  -11.4060   25.6027 C   0  0  0  0  0  0  0  0  0  0  0  0
    7.4748  -11.2005   25.7495 C   0  0  0  0  0  0  0  0  0  0  0  0
    8.3499  -12.2311   26.0186 C   0  0  0  0  0  0  0  0  0  0  0  0
    7.8438  -13.5046   26.1436 C   0  0  0  0  0  0  0  0  0  0  0  0
   10.0042  -17.3416   26.5673 C   0  0  0  0  0  0  0  0  0  0  0  0
    9.0112  -18.1957   26.1998 O   0  0  0  0  0  0  0  0  0  0  0  0
   10.6291  -17.6437   27.6414 O   0  0  0  0  0  0  0  0  0  0  0  0
  2  1  1  6
  2  6  1  0
  2  3  1  0
  3  4  1  0
  4  8  1  0
  5  4  2  0
  6  7  2  0
  9 10  1  0
 11 10  1  0
 11 12  1  0
 13 14  1  0
 13 12  1  1
 14  6  1  0
 15 13  1  0
 16 15  2  0
 17 15  1  0
 18 17  1  0
 18 19  1  1
 19 20  1  0
 20 21  2  0
 21 22  1  0
 23 24  2  0
 23 22  1  0
 25 24  1  0
 26 25  2  0
 27 26  1  0
 27 28  2  0
 28 20  1  0
 28 23  1  0
 29 18  1  0
 29 30  1  0
 31 29  2  0
M  END
$$$$
