DMW.pdb
     RDKit          3D

 31 32  0  0  1  0  0  0  0  0999 V2000
   10.6862  -19.0318   18.6615 N   0  0  0  0  0  0  0  0  0  0  0  0
   11.4934  -17.9090   19.0206 C   0  0  1  0  0  0  0  0  0  0  0  0
   11.6992  -17.0159   17.8013 C   0  0  0  0  0  0  0  0  0  0  0  0
   12.6942  -17.5626   16.8530 C   0  0  0  0  0  0  0  0  0  0  0  0
   13.2397  -18.6835   16.9973 O   0  0  0  0  0  0  0  0  0  0  0  0
   10.9478  -17.0651   20.1073 C   0  0  0  0  0  0  0  0  0  0  0  0
   11.6891  -16.0978   20.4802 O   0  0  0  0  0  0  0  0  0  0  0  0
   13.0655  -16.8261   15.7387 O   0  0  0  0  0  0  0  0  0  0  0  0
    6.8943  -13.2775   21.5057 C   0  0  0  0  0  0  0  0  0  0  0  0
    7.1765  -14.4387   20.2002 S   0  0  0  0  0  0  0  0  0  0  0  0
    7.0124  -16.1642   20.5910 C   0  0  0  0  0  0  0  0  0  0  0  0
    7.6916  -16.5976   21.8508 C   0  0  0  0  0  0  0  0  0  0  0  0
    9.1698  -16.4049   21.7939 C   0  0  2  0  0  0  0  0  0  0  0  0
    9.6957  -17.2542   20.7415 N   0  0  0  0  0  0  0  0  0  0  0  0
    9.7038  -16.8860   23.1404 C   0  0  0  0  0  0  0  0  0  0  0  0
   10.1588  -18.0397   23.2355 O   0  0  0  0  0  0  0  0  0  0  0  0
    9.6854  -16.0362   24.2596 N   0  0  0  0  0  0  0  0  0  0  0  0
   10.0865  -16.4692   25.6171 C   0  0  1  0  0  0  0  0  0  0  0  0
    9.7837  -15.2710   26.5446 C   0  0  0  0  0  0  0  0  0  0  0  0
    8.4467  -14.7321   26.2716 C   0  0  0  0  0  0  0  0  0  0  0  0
    7.2691  -15.3940   26.0139 C   0  0  0  0  0  0  0  0  0  0  0  0
    6.2872  -14.4916   25.8490 N   0  0  0  0  0  0  0  0  0  0  0  0
    6.7925  -13.2631   25.9920 C   0  0  0  0  0  0  0  0  0  0  0  0
    6.1314  -12.0433   25.9107 C   0  0  0  0  0  0  0  0  0  0  0  0
    6.8820  -10.9067   26.1077 C   0  0  0  0  0  0  0  0  0  0  0  0
    8.2343  -11.0152   26.3733 C   0  0  0  0  0  0  0  0  0  0  0  0
    8.8734  -12.2341   26.4506 C   0  0  0  0  0  0  0  0  0  0  0  0
    8.1316  -13.3765   26.2554 C   0  0  0  0  0  0  0  0  0  0  0  0
    9.1243  -17.5143   25.9981 C   0  0  0  0  0  0  0  0  0  0  0  0
    9.2717  -18.3542   27.0580 O   0  0  0  0  0  0  0  0  0  0  0  0
    8.0605  -17.6726   25.3062 O   0  0  0  0  0  0  0  0  0  0  0  0
  2  1  1  6
  2  6  1  0
  2  3  1  0
  3  4  1  0
  4  8  1  0
  5  4  2  0
  6  7  2  0
  9 10  1  0
 11 10  1  0
 11 12  1  0
 13 14  1  0
 13 12  1  1
 14  6  1  0
 15 13  1  0
 16 15  2  0
 17 15  1  0
 18 17  1  0
 18 19  1  1
 19 20  1  0
 20 21  2  0
 21 22  1  0
 23 24  2  0
 23 22  1  0
 25 24  1  0
 26 25  2  0
 27 26  1  0
 27 28  2  0
 28 20  1  0
 28 23  1  0
 29 18  1  0
 29 30  1  0
 31 29  2  0
M  END
$$$$
