DMW.pdb
     RDKit          3D

 31 32  0  0  1  0  0  0  0  0999 V2000
    8.3620  -16.9946   19.0350 N   0  0  0  0  0  0  0  0  0  0  0  0
    8.0167  -17.1981   20.4064 C   0  0  1  0  0  0  0  0  0  0  0  0
    8.5732  -18.5367   20.8809 C   0  0  0  0  0  0  0  0  0  0  0  0
    8.2487  -19.6494   19.9618 C   0  0  0  0  0  0  0  0  0  0  0  0
    7.6752  -19.4856   18.8577 O   0  0  0  0  0  0  0  0  0  0  0  0
    8.5025  -16.1553   21.3377 C   0  0  0  0  0  0  0  0  0  0  0  0
    9.7090  -15.7816   21.1675 O   0  0  0  0  0  0  0  0  0  0  0  0
    8.5805  -20.9506   20.3063 O   0  0  0  0  0  0  0  0  0  0  0  0
    6.6737  -10.7826   26.8381 C   0  0  0  0  0  0  0  0  0  0  0  0
    6.3132  -12.3744   26.1535 S   0  0  0  0  0  0  0  0  0  0  0  0
    7.6102  -13.1902   25.2538 C   0  0  0  0  0  0  0  0  0  0  0  0
    7.1498  -14.0921   24.1534 C   0  0  0  0  0  0  0  0  0  0  0  0
    8.2876  -14.7144   23.4160 C   0  0  2  0  0  0  0  0  0  0  0  0
    7.7402  -15.5625   22.3737 N   0  0  0  0  0  0  0  0  0  0  0  0
    9.0192  -15.5824   24.4363 C   0  0  0  0  0  0  0  0  0  0  0  0
    8.5343  -15.7217   25.5732 O   0  0  0  0  0  0  0  0  0  0  0  0
   10.2246  -16.2199   24.0962 N   0  0  0  0  0  0  0  0  0  0  0  0
   11.4200  -16.2197   24.9694 C   0  0  1  0  0  0  0  0  0  0  0  0
   11.3758  -17.5591   25.7387 C   0  0  0  0  0  0  0  0  0  0  0  0
   11.1012  -17.3282   27.1613 C   0  0  0  0  0  0  0  0  0  0  0  0
   11.0232  -18.2286   28.1978 C   0  0  0  0  0  0  0  0  0  0  0  0
   10.7759  -17.5624   29.3382 N   0  0  0  0  0  0  0  0  0  0  0  0
   10.6909  -16.2557   29.0728 C   0  0  0  0  0  0  0  0  0  0  0  0
   10.4562  -15.2092   29.9567 C   0  0  0  0  0  0  0  0  0  0  0  0
   10.4244  -13.9374   29.4315 C   0  0  0  0  0  0  0  0  0  0  0  0
   10.6224  -13.7499   28.0763 C   0  0  0  0  0  0  0  0  0  0  0  0
   10.8543  -14.8003   27.2143 C   0  0  0  0  0  0  0  0  0  0  0  0
   10.8882  -16.0756   27.7297 C   0  0  0  0  0  0  0  0  0  0  0  0
   12.5718  -16.3258   24.0611 C   0  0  0  0  0  0  0  0  0  0  0  0
   12.4838  -16.5132   22.7165 O   0  0  0  0  0  0  0  0  0  0  0  0
   13.7566  -16.2392   24.5345 O   0  0  0  0  0  0  0  0  0  0  0  0
  2  1  1  6
  2  6  1  0
  2  3  1  0
  3  4  1  0
  4  8  1  0
  5  4  2  0
  6  7  2  0
  9 10  1  0
 11 10  1  0
 11 12  1  0
 13 14  1  0
 13 12  1  1
 14  6  1  0
 15 13  1  0
 16 15  2  0
 17 15  1  0
 18 17  1  0
 18 19  1  1
 19 20  1  0
 20 21  2  0
 21 22  1  0
 23 24  2  0
 23 22  1  0
 25 24  1  0
 26 25  2  0
 27 26  1  0
 27 28  2  0
 28 20  1  0
 28 23  1  0
 29 18  1  0
 29 30  1  0
 31 29  2  0
M  END
$$$$
