DMW.pdb
     RDKit          3D

 31 32  0  0  1  0  0  0  0  0999 V2000
    7.4741  -22.9188   26.0095 N   0  0  0  0  0  0  0  0  0  0  0  0
    8.5342  -21.9709   25.8724 C   0  0  1  0  0  0  0  0  0  0  0  0
    9.1373  -22.0762   24.4753 C   0  0  0  0  0  0  0  0  0  0  0  0
   10.0466  -23.2339   24.3303 C   0  0  0  0  0  0  0  0  0  0  0  0
   10.2337  -24.0804   25.2375 O   0  0  0  0  0  0  0  0  0  0  0  0
    8.1461  -20.5590   26.0879 C   0  0  0  0  0  0  0  0  0  0  0  0
    7.0015  -20.2262   25.6369 O   0  0  0  0  0  0  0  0  0  0  0  0
   10.7427  -23.4230   23.1463 O   0  0  0  0  0  0  0  0  0  0  0  0
    9.7933  -13.4948   29.3879 C   0  0  0  0  0  0  0  0  0  0  0  0
   10.2549  -15.1648   29.0267 S   0  0  0  0  0  0  0  0  0  0  0  0
    9.3292  -16.0157   27.7712 C   0  0  0  0  0  0  0  0  0  0  0  0
    9.5419  -17.4948   27.7179 C   0  0  0  0  0  0  0  0  0  0  0  0
    8.6950  -18.1531   26.6811 C   0  0  2  0  0  0  0  0  0  0  0  0
    8.9366  -19.5825   26.7417 N   0  0  0  0  0  0  0  0  0  0  0  0
    9.1885  -17.6174   25.3397 C   0  0  0  0  0  0  0  0  0  0  0  0
   10.2861  -18.0027   24.8992 O   0  0  0  0  0  0  0  0  0  0  0  0
    8.4123  -16.7022   24.6082 N   0  0  0  0  0  0  0  0  0  0  0  0
    8.6976  -16.3333   23.2034 C   0  0  1  0  0  0  0  0  0  0  0  0
    7.6760  -15.2307   22.8451 C   0  0  0  0  0  0  0  0  0  0  0  0
    7.0546  -14.6889   24.0587 C   0  0  0  0  0  0  0  0  0  0  0  0
    6.2888  -15.3209   25.0101 C   0  0  0  0  0  0  0  0  0  0  0  0
    5.9555  -14.4342   25.9631 N   0  0  0  0  0  0  0  0  0  0  0  0
    6.4824  -13.2448   25.6585 C   0  0  0  0  0  0  0  0  0  0  0  0
    6.3945  -12.0544   26.3703 C   0  0  0  0  0  0  0  0  0  0  0  0
    7.0403  -10.9583   25.8452 C   0  0  0  0  0  0  0  0  0  0  0  0
    7.7370  -11.0768   24.6571 C   0  0  0  0  0  0  0  0  0  0  0  0
    7.8136  -12.2663   23.9646 C   0  0  0  0  0  0  0  0  0  0  0  0
    7.1715  -13.3680   24.4816 C   0  0  0  0  0  0  0  0  0  0  0  0
   10.0065  -15.6631   23.2296 C   0  0  0  0  0  0  0  0  0  0  0  0
   10.7068  -15.2871   22.1256 O   0  0  0  0  0  0  0  0  0  0  0  0
   10.5553  -15.3981   24.3538 O   0  0  0  0  0  0  0  0  0  0  0  0
  2  1  1  6
  2  6  1  0
  2  3  1  0
  3  4  1  0
  4  8  1  0
  5  4  2  0
  6  7  2  0
  9 10  1  0
 11 10  1  0
 11 12  1  0
 13 14  1  0
 13 12  1  1
 14  6  1  0
 15 13  1  0
 16 15  2  0
 17 15  1  0
 18 17  1  0
 18 19  1  1
 19 20  1  0
 20 21  2  0
 21 22  1  0
 23 24  2  0
 23 22  1  0
 25 24  1  0
 26 25  2  0
 27 26  1  0
 27 28  2  0
 28 20  1  0
 28 23  1  0
 29 18  1  0
 29 30  1  0
 31 29  2  0
M  END
$$$$
