DMW.pdb
     RDKit          3D

 31 32  0  0  1  0  0  0  0  0999 V2000
    9.6472  -18.1919   18.9795 N   0  0  0  0  0  0  0  0  0  0  0  0
    9.4482  -18.4353   20.3732 C   0  0  1  0  0  0  0  0  0  0  0  0
   10.2533  -19.6589   20.7990 C   0  0  0  0  0  0  0  0  0  0  0  0
    9.8083  -20.8990   20.1266 C   0  0  0  0  0  0  0  0  0  0  0  0
    8.6012  -21.1821   19.9327 O   0  0  0  0  0  0  0  0  0  0  0  0
    9.8262  -17.3171   21.2663 C   0  0  0  0  0  0  0  0  0  0  0  0
   11.0387  -16.9328   21.1869 O   0  0  0  0  0  0  0  0  0  0  0  0
   10.7450  -21.8163   19.6758 O   0  0  0  0  0  0  0  0  0  0  0  0
    6.2312  -12.4971   25.7470 C   0  0  0  0  0  0  0  0  0  0  0  0
    7.2149  -12.3075   24.2880 S   0  0  0  0  0  0  0  0  0  0  0  0
    8.5454  -13.4595   24.0436 C   0  0  0  0  0  0  0  0  0  0  0  0
    8.2151  -14.6387   23.1854 C   0  0  0  0  0  0  0  0  0  0  0  0
    9.3558  -15.5930   23.0685 C   0  0  2  0  0  0  0  0  0  0  0  0
    8.9578  -16.6651   22.1754 N   0  0  0  0  0  0  0  0  0  0  0  0
    9.5686  -16.1601   24.4695 C   0  0  0  0  0  0  0  0  0  0  0  0
    9.0494  -15.5847   25.4423 O   0  0  0  0  0  0  0  0  0  0  0  0
   10.3391  -17.3200   24.6597 N   0  0  0  0  0  0  0  0  0  0  0  0
   11.7162  -17.3025   25.2024 C   0  0  1  0  0  0  0  0  0  0  0  0
   11.5911  -16.7554   26.6420 C   0  0  0  0  0  0  0  0  0  0  0  0
   10.2316  -16.2634   26.8908 C   0  0  0  0  0  0  0  0  0  0  0  0
    9.0202  -16.8412   26.5912 C   0  0  0  0  0  0  0  0  0  0  0  0
    8.0336  -16.0412   27.0295 N   0  0  0  0  0  0  0  0  0  0  0  0
    8.5686  -14.9607   27.6051 C   0  0  0  0  0  0  0  0  0  0  0  0
    7.9160  -13.8862   28.1976 C   0  0  0  0  0  0  0  0  0  0  0  0
    8.7013  -12.8915   28.7341 C   0  0  0  0  0  0  0  0  0  0  0  0
   10.0783  -12.9933   28.6668 C   0  0  0  0  0  0  0  0  0  0  0  0
   10.7086  -14.0671   28.0752 C   0  0  0  0  0  0  0  0  0  0  0  0
    9.9321  -15.0670   27.5361 C   0  0  0  0  0  0  0  0  0  0  0  0
   12.0998  -18.7146   25.3503 C   0  0  0  0  0  0  0  0  0  0  0  0
   13.3012  -19.1460   25.8206 O   0  0  0  0  0  0  0  0  0  0  0  0
   11.2686  -19.6300   25.0239 O   0  0  0  0  0  0  0  0  0  0  0  0
  2  1  1  6
  2  6  1  0
  2  3  1  0
  3  4  1  0
  4  8  1  0
  5  4  2  0
  6  7  2  0
  9 10  1  0
 11 10  1  0
 11 12  1  0
 13 14  1  0
 13 12  1  1
 14  6  1  0
 15 13  1  0
 16 15  2  0
 17 15  1  0
 18 17  1  0
 18 19  1  1
 19 20  1  0
 20 21  2  0
 21 22  1  0
 23 24  2  0
 23 22  1  0
 25 24  1  0
 26 25  2  0
 27 26  1  0
 27 28  2  0
 28 20  1  0
 28 23  1  0
 29 18  1  0
 29 30  1  0
 31 29  2  0
M  END
$$$$
