DMW.pdb
     RDKit          3D

 31 32  0  0  1  0  0  0  0  0999 V2000
   11.8145  -17.5808   18.3605 N   0  0  0  0  0  0  0  0  0  0  0  0
   12.1976  -17.9084   19.6973 C   0  0  1  0  0  0  0  0  0  0  0  0
   13.7008  -17.7086   19.8622 C   0  0  0  0  0  0  0  0  0  0  0  0
   14.4927  -18.5002   18.8956 C   0  0  0  0  0  0  0  0  0  0  0  0
   15.4412  -18.0221   18.2272 O   0  0  0  0  0  0  0  0  0  0  0  0
   11.5224  -17.1229   20.7546 C   0  0  0  0  0  0  0  0  0  0  0  0
   12.1892  -16.1447   21.2265 O   0  0  0  0  0  0  0  0  0  0  0  0
   14.1991  -19.8399   18.6931 O   0  0  0  0  0  0  0  0  0  0  0  0
    7.0301  -13.2480   21.7563 C   0  0  0  0  0  0  0  0  0  0  0  0
    7.9197  -14.2808   20.6273 S   0  0  0  0  0  0  0  0  0  0  0  0
    7.6436  -16.0329   20.7308 C   0  0  0  0  0  0  0  0  0  0  0  0
    8.0768  -16.6697   22.0126 C   0  0  0  0  0  0  0  0  0  0  0  0
    9.5462  -16.5468   22.2392 C   0  0  2  0  0  0  0  0  0  0  0  0
   10.2248  -17.3771   21.2617 N   0  0  0  0  0  0  0  0  0  0  0  0
    9.7997  -17.1075   23.6360 C   0  0  0  0  0  0  0  0  0  0  0  0
   10.1048  -18.3067   23.7622 O   0  0  0  0  0  0  0  0  0  0  0  0
    9.6932  -16.2798   24.7668 N   0  0  0  0  0  0  0  0  0  0  0  0
   10.0220  -16.7293   26.1383 C   0  0  1  0  0  0  0  0  0  0  0  0
    9.4607  -15.6409   27.0807 C   0  0  0  0  0  0  0  0  0  0  0  0
    8.1211  -15.2261   26.6498 C   0  0  0  0  0  0  0  0  0  0  0  0
    7.0329  -15.9931   26.3053 C   0  0  0  0  0  0  0  0  0  0  0  0
    6.0052  -15.1827   26.0009 N   0  0  0  0  0  0  0  0  0  0  0  0
    6.3940  -13.9117   26.1376 C   0  0  0  0  0  0  0  0  0  0  0  0
    5.6505  -12.7554   25.9340 C   0  0  0  0  0  0  0  0  0  0  0  0
    6.2841  -11.5534   26.1534 C   0  0  0  0  0  0  0  0  0  0  0  0
    7.6056  -11.5387   26.5588 C   0  0  0  0  0  0  0  0  0  0  0  0
    8.3277  -12.6963   26.7560 C   0  0  0  0  0  0  0  0  0  0  0  0
    7.7030  -13.9030   26.5396 C   0  0  0  0  0  0  0  0  0  0  0  0
    9.1907  -17.9196   26.3732 C   0  0  0  0  0  0  0  0  0  0  0  0
    9.3785  -18.8084   27.3858 O   0  0  0  0  0  0  0  0  0  0  0  0
    8.2111  -18.1676   25.5895 O   0  0  0  0  0  0  0  0  0  0  0  0
  2  1  1  6
  2  6  1  0
  2  3  1  0
  3  4  1  0
  4  8  1  0
  5  4  2  0
  6  7  2  0
  9 10  1  0
 11 10  1  0
 11 12  1  0
 13 14  1  0
 13 12  1  6
 14  6  1  0
 15 13  1  0
 16 15  2  0
 17 15  1  0
 18 17  1  0
 18 19  1  1
 19 20  1  0
 20 21  2  0
 21 22  1  0
 23 24  2  0
 23 22  1  0
 25 24  1  0
 26 25  2  0
 27 26  1  0
 27 28  2  0
 28 20  1  0
 28 23  1  0
 29 18  1  0
 29 30  1  0
 31 29  2  0
M  END
$$$$
