DMW.pdb
     RDKit          3D

 31 32  0  0  1  0  0  0  0  0999 V2000
    9.1104  -17.2205   17.3561 N   0  0  0  0  0  0  0  0  0  0  0  0
    8.8696  -16.1194   18.2341 C   0  0  1  0  0  0  0  0  0  0  0  0
    7.8362  -15.1856   17.6121 C   0  0  0  0  0  0  0  0  0  0  0  0
    8.3544  -14.4660   16.4281 C   0  0  0  0  0  0  0  0  0  0  0  0
    9.5107  -14.6356   15.9708 O   0  0  0  0  0  0  0  0  0  0  0  0
    8.3868  -16.4865   19.5842 C   0  0  0  0  0  0  0  0  0  0  0  0
    7.1836  -16.9021   19.6462 O   0  0  0  0  0  0  0  0  0  0  0  0
    7.5492  -13.5514   15.7670 O   0  0  0  0  0  0  0  0  0  0  0  0
   10.9902  -21.5318   22.5206 C   0  0  0  0  0  0  0  0  0  0  0  0
   11.3270  -20.3174   21.2779 S   0  0  0  0  0  0  0  0  0  0  0  0
   10.7425  -18.6651   21.5697 C   0  0  0  0  0  0  0  0  0  0  0  0
    9.2735  -18.5463   21.8230 C   0  0  0  0  0  0  0  0  0  0  0  0
    8.8402  -17.1295   21.9972 C   0  0  2  0  0  0  0  0  0  0  0  0
    9.1485  -16.4096   20.7757 N   0  0  0  0  0  0  0  0  0  0  0  0
    9.6900  -16.5720   23.1360 C   0  0  0  0  0  0  0  0  0  0  0  0
   10.8530  -16.2000   22.8993 O   0  0  0  0  0  0  0  0  0  0  0  0
    9.1653  -16.4763   24.4363 N   0  0  0  0  0  0  0  0  0  0  0  0
    9.9114  -15.8933   25.5741 C   0  0  1  0  0  0  0  0  0  0  0  0
    8.8726  -15.7049   26.7024 C   0  0  0  0  0  0  0  0  0  0  0  0
    7.7017  -14.9717   26.2087 C   0  0  0  0  0  0  0  0  0  0  0  0
    6.4923  -15.4483   25.7601 C   0  0  0  0  0  0  0  0  0  0  0  0
    5.7072  -14.4087   25.4312 N   0  0  0  0  0  0  0  0  0  0  0  0
    6.3712  -13.2707   25.6530 C   0  0  0  0  0  0  0  0  0  0  0  0
    5.9351  -11.9654   25.4590 C   0  0  0  0  0  0  0  0  0  0  0  0
    6.8144  -10.9550   25.7752 C   0  0  0  0  0  0  0  0  0  0  0  0
    8.0699  -11.2659   26.2630 C   0  0  0  0  0  0  0  0  0  0  0  0
    8.4854  -12.5671   26.4493 C   0  0  0  0  0  0  0  0  0  0  0  0
    7.6134  -13.5845   26.1363 C   0  0  0  0  0  0  0  0  0  0  0  0
   10.8118  -16.9577   26.0423 C   0  0  0  0  0  0  0  0  0  0  0  0
   11.8001  -16.7881   26.9616 O   0  0  0  0  0  0  0  0  0  0  0  0
   10.6845  -18.1408   25.5738 O   0  0  0  0  0  0  0  0  0  0  0  0
  2  1  1  6
  2  6  1  0
  2  3  1  0
  3  4  1  0
  4  8  1  0
  5  4  2  0
  6  7  2  0
  9 10  1  0
 11 10  1  0
 11 12  1  0
 13 14  1  0
 13 12  1  6
 14  6  1  0
 15 13  1  0
 16 15  2  0
 17 15  1  0
 18 17  1  0
 18 19  1  1
 19 20  1  0
 20 21  2  0
 21 22  1  0
 23 24  2  0
 23 22  1  0
 25 24  1  0
 26 25  2  0
 27 26  1  0
 27 28  2  0
 28 20  1  0
 28 23  1  0
 29 18  1  0
 29 30  1  0
 31 29  2  0
M  END
$$$$
