DMW.pdb
     RDKit          3D

 31 32  0  0  1  0  0  0  0  0999 V2000
    9.9243  -19.1332   19.4116 N   0  0  0  0  0  0  0  0  0  0  0  0
   11.0765  -18.2944   19.5111 C   0  0  1  0  0  0  0  0  0  0  0  0
   11.5338  -17.8854   18.1145 C   0  0  0  0  0  0  0  0  0  0  0  0
   11.2225  -18.9051   17.0890 C   0  0  0  0  0  0  0  0  0  0  0  0
   10.6940  -20.0114   17.3562 O   0  0  0  0  0  0  0  0  0  0  0  0
   10.8864  -17.0570   20.3007 C   0  0  0  0  0  0  0  0  0  0  0  0
   11.8900  -16.2730   20.3487 O   0  0  0  0  0  0  0  0  0  0  0  0
   11.5166  -18.6588   15.7568 O   0  0  0  0  0  0  0  0  0  0  0  0
    6.7277  -11.6757   20.3249 C   0  0  0  0  0  0  0  0  0  0  0  0
    6.7340  -13.3991   19.9221 S   0  0  0  0  0  0  0  0  0  0  0  0
    8.2145  -14.3159   20.2750 C   0  0  0  0  0  0  0  0  0  0  0  0
    8.2904  -14.8945   21.6517 C   0  0  0  0  0  0  0  0  0  0  0  0
    9.5896  -15.5816   21.9079 C   0  0  2  0  0  0  0  0  0  0  0  0
    9.7004  -16.6963   20.9857 N   0  0  0  0  0  0  0  0  0  0  0  0
    9.5023  -16.1176   23.3344 C   0  0  0  0  0  0  0  0  0  0  0  0
    8.8783  -17.1719   23.5492 O   0  0  0  0  0  0  0  0  0  0  0  0
   10.1212  -15.4312   24.3931 N   0  0  0  0  0  0  0  0  0  0  0  0
   10.0949  -15.9043   25.7956 C   0  0  1  0  0  0  0  0  0  0  0  0
    8.7074  -16.5557   25.9909 C   0  0  0  0  0  0  0  0  0  0  0  0
    7.6449  -15.5502   25.8791 C   0  0  0  0  0  0  0  0  0  0  0  0
    6.3619  -15.6781   25.4008 C   0  0  0  0  0  0  0  0  0  0  0  0
    5.7329  -14.4961   25.5144 N   0  0  0  0  0  0  0  0  0  0  0  0
    6.5697  -13.6043   26.0525 C   0  0  0  0  0  0  0  0  0  0  0  0
    6.3307  -12.2686   26.3528 C   0  0  0  0  0  0  0  0  0  0  0  0
    7.3641  -11.5562   26.9174 C   0  0  0  0  0  0  0  0  0  0  0  0
    8.5742  -12.1788   27.1601 C   0  0  0  0  0  0  0  0  0  0  0  0
    8.7932  -13.5054   26.8557 C   0  0  0  0  0  0  0  0  0  0  0  0
    7.7661  -14.2263   26.2912 C   0  0  0  0  0  0  0  0  0  0  0  0
   11.0611  -17.0114   25.8566 C   0  0  0  0  0  0  0  0  0  0  0  0
   11.3984  -17.6839   26.9899 O   0  0  0  0  0  0  0  0  0  0  0  0
   11.6446  -17.3970   24.7860 O   0  0  0  0  0  0  0  0  0  0  0  0
  2  1  1  6
  2  6  1  0
  2  3  1  0
  3  4  1  0
  4  8  1  0
  5  4  2  0
  6  7  2  0
  9 10  1  0
 11 10  1  0
 11 12  1  0
 13 14  1  0
 13 12  1  6
 14  6  1  0
 15 13  1  0
 16 15  2  0
 17 15  1  0
 18 17  1  0
 18 19  1  6
 19 20  1  0
 20 21  2  0
 21 22  1  0
 23 24  2  0
 23 22  1  0
 25 24  1  0
 26 25  2  0
 27 26  1  0
 27 28  2  0
 28 20  1  0
 28 23  1  0
 29 18  1  0
 29 30  1  0
 31 29  2  0
M  END
$$$$
