DMW.pdb
     RDKit          3D

 31 32  0  0  1  0  0  0  0  0999 V2000
    8.6127  -17.3378   17.6163 N   0  0  0  0  0  0  0  0  0  0  0  0
    8.7620  -16.0438   18.2031 C   0  0  1  0  0  0  0  0  0  0  0  0
    7.9326  -15.0293   17.4223 C   0  0  0  0  0  0  0  0  0  0  0  0
    8.2830  -14.9880   15.9857 C   0  0  0  0  0  0  0  0  0  0  0  0
    8.9028  -15.9095   15.4014 O   0  0  0  0  0  0  0  0  0  0  0  0
    8.3632  -15.9492   19.6253 C   0  0  0  0  0  0  0  0  0  0  0  0
    8.4940  -14.7998   20.1601 O   0  0  0  0  0  0  0  0  0  0  0  0
    7.9241  -13.8914   15.2172 O   0  0  0  0  0  0  0  0  0  0  0  0
    4.6070  -20.4832   23.0336 C   0  0  0  0  0  0  0  0  0  0  0  0
    5.6153  -19.6442   24.2219 S   0  0  0  0  0  0  0  0  0  0  0  0
    6.4942  -18.2003   23.6745 C   0  0  0  0  0  0  0  0  0  0  0  0
    6.8397  -18.1804   22.2198 C   0  0  0  0  0  0  0  0  0  0  0  0
    7.5238  -16.9177   21.8160 C   0  0  2  0  0  0  0  0  0  0  0  0
    7.8611  -17.0172   20.4082 N   0  0  0  0  0  0  0  0  0  0  0  0
    8.8093  -16.8606   22.6369 C   0  0  0  0  0  0  0  0  0  0  0  0
    9.7512  -17.6179   22.3429 O   0  0  0  0  0  0  0  0  0  0  0  0
    8.9304  -15.9617   23.7104 N   0  0  0  0  0  0  0  0  0  0  0  0
   10.1704  -15.8030   24.5033 C   0  0  1  0  0  0  0  0  0  0  0  0
    9.9233  -14.5893   25.4271 C   0  0  0  0  0  0  0  0  0  0  0  0
    8.5190  -14.5391   25.8488 C   0  0  0  0  0  0  0  0  0  0  0  0
    7.6487  -15.5668   26.1272 C   0  0  0  0  0  0  0  0  0  0  0  0
    6.4669  -15.0495   26.5029 N   0  0  0  0  0  0  0  0  0  0  0  0
    6.5441  -13.7158   26.4768 C   0  0  0  0  0  0  0  0  0  0  0  0
    5.5604  -12.7882   26.7978 C   0  0  0  0  0  0  0  0  0  0  0  0
    5.8947  -11.4568   26.6983 C   0  0  0  0  0  0  0  0  0  0  0  0
    7.1664  -11.0975   26.2924 C   0  0  0  0  0  0  0  0  0  0  0  0
    8.1299  -12.0320   25.9781 C   0  0  0  0  0  0  0  0  0  0  0  0
    7.8054  -13.3656   26.0747 C   0  0  0  0  0  0  0  0  0  0  0  0
   10.2208  -16.9718   25.3946 C   0  0  0  0  0  0  0  0  0  0  0  0
   11.3096  -17.3481   26.1182 O   0  0  0  0  0  0  0  0  0  0  0  0
    9.1843  -17.7096   25.5240 O   0  0  0  0  0  0  0  0  0  0  0  0
  2  1  1  6
  2  6  1  0
  2  3  1  0
  3  4  1  0
  4  8  1  0
  5  4  2  0
  6  7  2  0
  9 10  1  0
 11 10  1  0
 11 12  1  0
 13 14  1  0
 13 12  1  1
 14  6  1  0
 15 13  1  0
 16 15  2  0
 17 15  1  0
 18 17  1  0
 18 19  1  1
 19 20  1  0
 20 21  2  0
 21 22  1  0
 23 24  2  0
 23 22  1  0
 25 24  1  0
 26 25  2  0
 27 26  1  0
 27 28  2  0
 28 20  1  0
 28 23  1  0
 29 18  1  0
 29 30  1  0
 31 29  2  0
M  END
$$$$
