DMW.pdb
     RDKit          3D

 31 32  0  0  1  0  0  0  0  0999 V2000
   11.5592  -16.8224   17.7272 N   0  0  0  0  0  0  0  0  0  0  0  0
   11.7290  -17.4842   18.9819 C   0  0  1  0  0  0  0  0  0  0  0  0
   13.1751  -17.9481   19.1241 C   0  0  0  0  0  0  0  0  0  0  0  0
   13.3939  -19.3107   18.5916 C   0  0  0  0  0  0  0  0  0  0  0  0
   12.4951  -19.9836   18.0312 O   0  0  0  0  0  0  0  0  0  0  0  0
   11.4010  -16.6677   20.1721 C   0  0  0  0  0  0  0  0  0  0  0  0
   12.2416  -15.7554   20.4643 O   0  0  0  0  0  0  0  0  0  0  0  0
   14.6421  -19.9041   18.7008 O   0  0  0  0  0  0  0  0  0  0  0  0
    6.7514  -12.6364   18.9182 C   0  0  0  0  0  0  0  0  0  0  0  0
    6.8462  -13.8927   20.1613 S   0  0  0  0  0  0  0  0  0  0  0  0
    8.4635  -14.3589   20.7308 C   0  0  0  0  0  0  0  0  0  0  0  0
    8.4855  -15.4336   21.7703 C   0  0  0  0  0  0  0  0  0  0  0  0
    9.8663  -15.9232   22.0515 C   0  0  2  0  0  0  0  0  0  0  0  0
   10.2512  -16.8268   20.9834 N   0  0  0  0  0  0  0  0  0  0  0  0
    9.7722  -16.7041   23.3596 C   0  0  0  0  0  0  0  0  0  0  0  0
    9.5693  -17.9307   23.3207 O   0  0  0  0  0  0  0  0  0  0  0  0
    9.9159  -16.0475   24.5938 N   0  0  0  0  0  0  0  0  0  0  0  0
    9.9267  -16.7535   25.8949 C   0  0  1  0  0  0  0  0  0  0  0  0
    9.4186  -15.7267   26.9318 C   0  0  0  0  0  0  0  0  0  0  0  0
    8.1261  -15.1705   26.5166 C   0  0  0  0  0  0  0  0  0  0  0  0
    6.9912  -15.8152   26.0836 C   0  0  0  0  0  0  0  0  0  0  0  0
    6.0369  -14.9022   25.8363 N   0  0  0  0  0  0  0  0  0  0  0  0
    6.5186  -13.6833   26.0961 C   0  0  0  0  0  0  0  0  0  0  0  0
    5.8716  -12.4583   25.9862 C   0  0  0  0  0  0  0  0  0  0  0  0
    6.5899  -11.3347   26.3264 C   0  0  0  0  0  0  0  0  0  0  0  0
    7.8981  -11.4608   26.7552 C   0  0  0  0  0  0  0  0  0  0  0  0
    8.5238  -12.6847   26.8584 C   0  0  0  0  0  0  0  0  0  0  0  0
    7.8139  -13.8141   26.5208 C   0  0  0  0  0  0  0  0  0  0  0  0
    8.8700  -17.7720   25.7997 C   0  0  0  0  0  0  0  0  0  0  0  0
    7.9870  -17.8787   24.7704 O   0  0  0  0  0  0  0  0  0  0  0  0
    8.7434  -18.6366   26.7334 O   0  0  0  0  0  0  0  0  0  0  0  0
  2  1  1  6
  2  6  1  0
  2  3  1  0
  3  4  1  0
  4  8  1  0
  5  4  2  0
  6  7  2  0
  9 10  1  0
 11 10  1  0
 11 12  1  0
 13 14  1  0
 13 12  1  6
 14  6  1  0
 15 13  1  0
 16 15  2  0
 17 15  1  0
 18 17  1  0
 18 19  1  1
 19 20  1  0
 20 21  2  0
 21 22  1  0
 23 24  2  0
 23 22  1  0
 25 24  1  0
 26 25  2  0
 27 26  1  0
 27 28  2  0
 28 20  1  0
 28 23  1  0
 29 18  1  0
 29 30  1  0
 31 29  2  0
M  END
$$$$
