DMW.pdb
     RDKit          3D

 31 32  0  0  1  0  0  0  0  0999 V2000
   12.3488  -17.6075   18.3273 N   0  0  0  0  0  0  0  0  0  0  0  0
   11.9681  -18.2394   19.5508 C   0  0  1  0  0  0  0  0  0  0  0  0
   13.1940  -18.8689   20.2046 C   0  0  0  0  0  0  0  0  0  0  0  0
   13.7245  -20.0179   19.4387 C   0  0  0  0  0  0  0  0  0  0  0  0
   13.0838  -20.5907   18.5242 O   0  0  0  0  0  0  0  0  0  0  0  0
   11.3365  -17.3470   20.5486 C   0  0  0  0  0  0  0  0  0  0  0  0
   12.0939  -16.4500   21.0445 O   0  0  0  0  0  0  0  0  0  0  0  0
   14.9890  -20.5122   19.7194 O   0  0  0  0  0  0  0  0  0  0  0  0
    7.2331  -12.4904   20.7909 C   0  0  0  0  0  0  0  0  0  0  0  0
    7.8631  -13.9009   21.6546 S   0  0  0  0  0  0  0  0  0  0  0  0
    7.2996  -15.5014   21.1273 C   0  0  0  0  0  0  0  0  0  0  0  0
    7.9072  -16.6594   21.8524 C   0  0  0  0  0  0  0  0  0  0  0  0
    9.3902  -16.5435   21.9655 C   0  0  2  0  0  0  0  0  0  0  0  0
    9.9884  -17.4204   20.9763 N   0  0  0  0  0  0  0  0  0  0  0  0
    9.7414  -17.0494   23.3621 C   0  0  0  0  0  0  0  0  0  0  0  0
   10.0320  -18.2487   23.5177 O   0  0  0  0  0  0  0  0  0  0  0  0
    9.7400  -16.1716   24.4597 N   0  0  0  0  0  0  0  0  0  0  0  0
   10.1285  -16.5796   25.8286 C   0  0  1  0  0  0  0  0  0  0  0  0
    9.5797  -15.4791   26.7642 C   0  0  0  0  0  0  0  0  0  0  0  0
    8.2221  -15.0920   26.3650 C   0  0  0  0  0  0  0  0  0  0  0  0
    7.1566  -15.8801   25.9981 C   0  0  0  0  0  0  0  0  0  0  0  0
    6.0988  -15.0929   25.7394 N   0  0  0  0  0  0  0  0  0  0  0  0
    6.4461  -13.8165   25.9275 C   0  0  0  0  0  0  0  0  0  0  0  0
    5.6618  -12.6785   25.7819 C   0  0  0  0  0  0  0  0  0  0  0  0
    6.2570  -11.4662   26.0472 C   0  0  0  0  0  0  0  0  0  0  0  0
    7.5817  -11.4239   26.4399 C   0  0  0  0  0  0  0  0  0  0  0  0
    8.3446  -12.5636   26.5794 C   0  0  0  0  0  0  0  0  0  0  0  0
    7.7585  -13.7805   26.3167 C   0  0  0  0  0  0  0  0  0  0  0  0
    9.3313  -17.7799   26.1236 C   0  0  0  0  0  0  0  0  0  0  0  0
    9.5772  -18.6410   27.1476 O   0  0  0  0  0  0  0  0  0  0  0  0
    8.3266  -18.0650   25.3856 O   0  0  0  0  0  0  0  0  0  0  0  0
  2  1  1  6
  2  6  1  0
  2  3  1  0
  3  4  1  0
  4  8  1  0
  5  4  2  0
  6  7  2  0
  9 10  1  0
 11 10  1  0
 11 12  1  0
 13 14  1  0
 13 12  1  1
 14  6  1  0
 15 13  1  0
 16 15  2  0
 17 15  1  0
 18 17  1  0
 18 19  1  1
 19 20  1  0
 20 21  2  0
 21 22  1  0
 23 24  2  0
 23 22  1  0
 25 24  1  0
 26 25  2  0
 27 26  1  0
 27 28  2  0
 28 20  1  0
 28 23  1  0
 29 18  1  0
 29 30  1  0
 31 29  2  0
M  END
$$$$
