DLA.pdb
     RDKit          3D

 22 21  0  0  1  0  0  0  0  0999 V2000
   17.9813  -11.9090  -16.3963 N   0  0  0  0  0  0  0  0  0  0  0  0
   18.5725  -10.7165  -16.9472 C   0  0  1  0  0  0  0  0  0  0  0  0
   17.6633  -10.2050  -18.0540 C   0  0  0  0  0  0  0  0  0  0  0  0
   18.0529  -10.9012  -19.3010 C   0  0  0  0  0  0  0  0  0  0  0  0
   19.1995  -11.3791  -19.4501 O   0  0  0  0  0  0  0  0  0  0  0  0
   18.7512   -9.7136  -15.8836 C   0  0  0  0  0  0  0  0  0  0  0  0
   17.8667   -9.6018  -14.9979 O   0  0  0  0  0  0  0  0  0  0  0  0
   17.1238  -11.0215  -20.3180 O   0  0  0  0  0  0  0  0  0  0  0  0
   23.0133   -9.5645  -12.8972 C   0  0  0  0  0  0  0  0  0  0  0  0
   21.5851   -9.3152  -13.3102 C   0  0  1  0  0  0  0  0  0  0  0  0
   20.8066   -9.0440  -12.0159 C   0  0  0  0  0  0  0  0  0  0  0  0
   21.4180   -8.1108  -14.1665 C   0  0  0  0  0  0  0  0  0  0  0  0
   20.0219   -7.8897  -14.6868 C   0  0  2  0  0  0  0  0  0  0  0  0
   19.8639   -8.8546  -15.7865 N   0  0  0  0  0  0  0  0  0  0  0  0
   19.8899   -6.5235  -15.2521 C   0  0  0  0  0  0  0  0  0  0  0  0
   20.6917   -6.1359  -16.1456 O   0  0  0  0  0  0  0  0  0  0  0  0
   17.3844   -3.6842  -15.0933 C   0  0  0  0  0  0  0  0  0  0  0  0
   18.7308   -4.3016  -15.4663 C   0  0  2  0  0  0  0  0  0  0  0  0
   18.8794   -5.6034  -14.8280 N   0  0  0  0  0  0  0  0  0  0  0  0
   19.8325   -3.4177  -15.0469 C   0  0  0  0  0  0  0  0  0  0  0  0
   20.5288   -3.6993  -14.0150 O   0  0  0  0  0  0  0  0  0  0  0  0
   20.1471   -2.2683  -15.7458 O   0  0  0  0  0  0  0  0  0  0  0  0
  2  1  1  1
  3  2  1  0
  3  4  1  0
  4  5  2  0
  6  2  1  0
  6  7  2  0
  8  4  1  0
 10  9  1  1
 10 12  1  0
 10 11  1  0
 13 12  1  6
 13 14  1  0
 14  6  1  0
 15 13  1  0
 16 15  2  0
 18 19  1  0
 18 17  1  1
 19 15  1  0
 20 18  1  0
 21 20  2  0
 22 20  1  0
M  END
$$$$
