DLA.pdb
     RDKit          3D

 22 21  0  0  1  0  0  0  0  0999 V2000
   21.3732  -13.6931  -17.8831 N   0  0  0  0  0  0  0  0  0  0  0  0
   21.3337  -12.3478  -18.3967 C   0  0  1  0  0  0  0  0  0  0  0  0
   20.0808  -12.2020  -19.2466 C   0  0  0  0  0  0  0  0  0  0  0  0
   20.2715  -13.0312  -20.4580 C   0  0  0  0  0  0  0  0  0  0  0  0
   21.4038  -13.1955  -20.9642 O   0  0  0  0  0  0  0  0  0  0  0  0
   21.3470  -11.3888  -17.2791 C   0  0  0  0  0  0  0  0  0  0  0  0
   20.5961  -11.5937  -16.2924 O   0  0  0  0  0  0  0  0  0  0  0  0
   19.1694  -13.6336  -21.0363 O   0  0  0  0  0  0  0  0  0  0  0  0
   25.7321   -9.7771  -14.7871 C   0  0  0  0  0  0  0  0  0  0  0  0
   24.2995  -10.1124  -15.1152 C   0  0  1  0  0  0  0  0  0  0  0  0
   23.5942  -10.3374  -13.7710 C   0  0  0  0  0  0  0  0  0  0  0  0
   23.5735   -9.0074  -15.7960 C   0  0  0  0  0  0  0  0  0  0  0  0
   22.1279   -9.2934  -16.1071 C   0  0  2  0  0  0  0  0  0  0  0  0
   22.1567  -10.2364  -17.2364 N   0  0  0  0  0  0  0  0  0  0  0  0
   21.4406   -8.0575  -16.5584 C   0  0  0  0  0  0  0  0  0  0  0  0
   21.9287   -7.3798  -17.5039 O   0  0  0  0  0  0  0  0  0  0  0  0
   18.0882   -6.4256  -16.2276 C   0  0  0  0  0  0  0  0  0  0  0  0
   19.6021   -6.3471  -16.4148 C   0  0  2  0  0  0  0  0  0  0  0  0
   20.2276   -7.5843  -15.9650 N   0  0  0  0  0  0  0  0  0  0  0  0
   20.1530   -5.2111  -15.6554 C   0  0  0  0  0  0  0  0  0  0  0  0
   20.8498   -5.4138  -14.6055 O   0  0  0  0  0  0  0  0  0  0  0  0
   19.9382   -3.9037  -16.0471 O   0  0  0  0  0  0  0  0  0  0  0  0
  2  1  1  1
  3  2  1  0
  3  4  1  0
  4  5  2  0
  6  2  1  0
  6  7  2  0
  8  4  1  0
 10  9  1  1
 10 12  1  0
 10 11  1  0
 13 12  1  6
 13 14  1  0
 14  6  1  0
 15 13  1  0
 16 15  2  0
 18 19  1  0
 18 17  1  1
 19 15  1  0
 20 18  1  0
 21 20  2  0
 22 20  1  0
M  END
$$$$
