DLA.pdb
     RDKit          3D

 22 21  0  0  1  0  0  0  0  0999 V2000
   18.1007  -10.3087  -19.3115 N   0  0  0  0  0  0  0  0  0  0  0  0
   19.2103   -9.3902  -19.2915 C   0  0  1  0  0  0  0  0  0  0  0  0
   18.7227   -8.0472  -19.8131 C   0  0  0  0  0  0  0  0  0  0  0  0
   18.7534   -8.1117  -21.2918 C   0  0  0  0  0  0  0  0  0  0  0  0
   17.7226   -8.3622  -21.9551 O   0  0  0  0  0  0  0  0  0  0  0  0
   19.7405   -9.2814  -17.9219 C   0  0  0  0  0  0  0  0  0  0  0  0
   18.9340   -9.2285  -16.9596 O   0  0  0  0  0  0  0  0  0  0  0  0
   19.9509   -7.8891  -21.9462 O   0  0  0  0  0  0  0  0  0  0  0  0
   22.9440  -10.4749  -13.7854 C   0  0  0  0  0  0  0  0  0  0  0  0
   23.6571   -9.7863  -14.9211 C   0  0  1  0  0  0  0  0  0  0  0  0
   24.9692  -10.5542  -15.1306 C   0  0  0  0  0  0  0  0  0  0  0  0
   22.9177   -9.8497  -16.2099 C   0  0  0  0  0  0  0  0  0  0  0  0
   21.6022   -9.1164  -16.2246 C   0  0  2  0  0  0  0  0  0  0  0  0
   21.1132   -9.2313  -17.6078 N   0  0  0  0  0  0  0  0  0  0  0  0
   21.8082   -7.6765  -15.9285 C   0  0  0  0  0  0  0  0  0  0  0  0
   22.5973   -6.9978  -16.6413 O   0  0  0  0  0  0  0  0  0  0  0  0
   19.9858   -4.8947  -14.4075 C   0  0  0  0  0  0  0  0  0  0  0  0
   21.3349   -5.5761  -14.6283 C   0  0  2  0  0  0  0  0  0  0  0  0
   21.1446   -7.0033  -14.8542 N   0  0  0  0  0  0  0  0  0  0  0  0
   22.2075   -5.3737  -13.4585 C   0  0  0  0  0  0  0  0  0  0  0  0
   22.3164   -6.2829  -12.5695 O   0  0  0  0  0  0  0  0  0  0  0  0
   22.9294   -4.2087  -13.2845 O   0  0  0  0  0  0  0  0  0  0  0  0
  2  1  1  1
  3  2  1  0
  3  4  1  0
  4  5  2  0
  6  2  1  0
  6  7  2  0
  8  4  1  0
 10  9  1  1
 10 12  1  0
 10 11  1  0
 13 12  1  6
 13 14  1  0
 14  6  1  0
 15 13  1  0
 16 15  2  0
 18 19  1  0
 18 17  1  1
 19 15  1  0
 20 18  1  0
 21 20  2  0
 22 20  1  0
M  END
$$$$
