DLA.pdb
     RDKit          3D

 22 21  0  0  1  0  0  0  0  0999 V2000
   18.8680  -12.8091  -17.3897 N   0  0  0  0  0  0  0  0  0  0  0  0
   19.2393  -11.4802  -17.8038 C   0  0  1  0  0  0  0  0  0  0  0  0
   17.9661  -10.7064  -18.1094 C   0  0  0  0  0  0  0  0  0  0  0  0
   17.3754  -11.2956  -19.3323 C   0  0  0  0  0  0  0  0  0  0  0  0
   16.3149  -10.8498  -19.8243 O   0  0  0  0  0  0  0  0  0  0  0  0
   20.0282  -10.8315  -16.7429 C   0  0  0  0  0  0  0  0  0  0  0  0
   19.6610  -10.9581  -15.5477 O   0  0  0  0  0  0  0  0  0  0  0  0
   18.0155  -12.3614  -19.9375 O   0  0  0  0  0  0  0  0  0  0  0  0
   24.2212   -9.8453  -13.7553 C   0  0  0  0  0  0  0  0  0  0  0  0
   24.4289   -9.4881  -15.2050 C   0  0  1  0  0  0  0  0  0  0  0  0
   25.7576  -10.1350  -15.6189 C   0  0  0  0  0  0  0  0  0  0  0  0
   23.3862  -10.0450  -16.1074 C   0  0  0  0  0  0  0  0  0  0  0  0
   21.9977   -9.5066  -15.8827 C   0  0  2  0  0  0  0  0  0  0  0  0
   21.1870  -10.0646  -16.9767 N   0  0  0  0  0  0  0  0  0  0  0  0
   21.9880   -8.0279  -16.0122 C   0  0  0  0  0  0  0  0  0  0  0  0
   22.4083   -7.4899  -17.0731 O   0  0  0  0  0  0  0  0  0  0  0  0
   20.2625   -5.0831  -14.6690 C   0  0  0  0  0  0  0  0  0  0  0  0
   21.5797   -5.7128  -15.1178 C   0  0  2  0  0  0  0  0  0  0  0  0
   21.5169   -7.1619  -14.9751 N   0  0  0  0  0  0  0  0  0  0  0  0
   22.6978   -5.1860  -14.3158 C   0  0  0  0  0  0  0  0  0  0  0  0
   23.0152   -5.7382  -13.2098 O   0  0  0  0  0  0  0  0  0  0  0  0
   23.4327   -4.0905  -14.7265 O   0  0  0  0  0  0  0  0  0  0  0  0
  2  1  1  1
  3  2  1  0
  3  4  1  0
  4  5  2  0
  6  2  1  0
  6  7  2  0
  8  4  1  0
 10  9  1  1
 10 12  1  0
 10 11  1  0
 13 12  1  6
 13 14  1  0
 14  6  1  0
 15 13  1  0
 16 15  2  0
 18 19  1  0
 18 17  1  1
 19 15  1  0
 20 18  1  0
 21 20  2  0
 22 20  1  0
M  END
$$$$
