DLA.pdb
     RDKit          3D

 22 21  0  0  1  0  0  0  0  0999 V2000
   28.6934  -26.0349  -17.4935 N   0  0  0  0  0  0  0  0  0  0  0  0
   27.5676  -26.6135  -16.8057 C   0  0  1  0  0  0  0  0  0  0  0  0
   26.3240  -25.8247  -17.1859 C   0  0  0  0  0  0  0  0  0  0  0  0
   26.3857  -24.5319  -16.4671 C   0  0  0  0  0  0  0  0  0  0  0  0
   27.3594  -24.2363  -15.7392 O   0  0  0  0  0  0  0  0  0  0  0  0
   27.4412  -28.0353  -17.1680 C   0  0  0  0  0  0  0  0  0  0  0  0
   27.9181  -28.4292  -18.2620 O   0  0  0  0  0  0  0  0  0  0  0  0
   25.3406  -23.6376  -16.6085 O   0  0  0  0  0  0  0  0  0  0  0  0
   28.2911  -33.0165  -17.4400 C   0  0  0  0  0  0  0  0  0  0  0  0
   27.7788  -32.6083  -16.0823 C   0  0  1  0  0  0  0  0  0  0  0  0
   28.7928  -33.1452  -15.0633 C   0  0  0  0  0  0  0  0  0  0  0  0
   27.7222  -31.1348  -15.8891 C   0  0  0  0  0  0  0  0  0  0  0  0
   26.7183  -30.4185  -16.7537 C   0  0  2  0  0  0  0  0  0  0  0  0
   26.8121  -29.0035  -16.3605 N   0  0  0  0  0  0  0  0  0  0  0  0
   25.3436  -30.8892  -16.4502 C   0  0  0  0  0  0  0  0  0  0  0  0
   24.8675  -30.7262  -15.2934 O   0  0  0  0  0  0  0  0  0  0  0  0
   22.2663  -31.7005  -18.3788 C   0  0  0  0  0  0  0  0  0  0  0  0
   23.1235  -31.8600  -17.1246 C   0  0  2  0  0  0  0  0  0  0  0  0
   24.5122  -31.5319  -17.4214 N   0  0  0  0  0  0  0  0  0  0  0  0
   23.0399  -33.2419  -16.6205 C   0  0  0  0  0  0  0  0  0  0  0  0
   22.0064  -33.6350  -15.9830 O   0  0  0  0  0  0  0  0  0  0  0  0
   24.0628  -34.1495  -16.8173 O   0  0  0  0  0  0  0  0  0  0  0  0
  2  1  1  6
  3  2  1  0
  3  4  1  0
  4  5  2  0
  6  2  1  0
  6  7  2  0
  8  4  1  0
 10  9  1  6
 10 12  1  0
 10 11  1  0
 13 12  1  1
 13 14  1  0
 14  6  1  0
 15 13  1  0
 16 15  2  0
 18 19  1  0
 18 17  1  6
 19 15  1  0
 20 18  1  0
 21 20  2  0
 22 20  1  0
M  END
$$$$
