DLA.pdb
     RDKit          3D

 22 21  0  0  1  0  0  0  0  0999 V2000
   36.5624  -36.0063   -3.3645 N   0  0  0  0  0  0  0  0  0  0  0  0
   35.4556  -36.8982   -3.1311 C   0  0  1  0  0  0  0  0  0  0  0  0
   35.8216  -37.8144   -1.9736 C   0  0  0  0  0  0  0  0  0  0  0  0
   35.2747  -39.1548   -2.2830 C   0  0  0  0  0  0  0  0  0  0  0  0
   34.6744  -39.3822   -3.3569 O   0  0  0  0  0  0  0  0  0  0  0  0
   34.2405  -36.1174   -2.8430 C   0  0  0  0  0  0  0  0  0  0  0  0
   34.3027  -35.1817   -2.0064 O   0  0  0  0  0  0  0  0  0  0  0  0
   35.4349  -40.1718   -1.3599 O   0  0  0  0  0  0  0  0  0  0  0  0
   30.9425  -34.3545   -6.7877 C   0  0  0  0  0  0  0  0  0  0  0  0
   31.6914  -34.4308   -5.4816 C   0  0  1  0  0  0  0  0  0  0  0  0
   31.5678  -33.0442   -4.8360 C   0  0  0  0  0  0  0  0  0  0  0  0
   31.1056  -35.4012   -4.5189 C   0  0  0  0  0  0  0  0  0  0  0  0
   31.8197  -35.4939   -3.1960 C   0  0  2  0  0  0  0  0  0  0  0  0
   32.9901  -36.3490   -3.4497 N   0  0  0  0  0  0  0  0  0  0  0  0
   30.9637  -36.1735   -2.1915 C   0  0  0  0  0  0  0  0  0  0  0  0
   30.6470  -37.3836   -2.3554 O   0  0  0  0  0  0  0  0  0  0  0  0
   29.5362  -35.4278    1.2389 C   0  0  0  0  0  0  0  0  0  0  0  0
   29.6143  -36.2122   -0.0694 C   0  0  2  0  0  0  0  0  0  0  0  0
   30.4683  -35.5144   -1.0221 N   0  0  0  0  0  0  0  0  0  0  0  0
   28.2686  -36.3819   -0.6449 C   0  0  0  0  0  0  0  0  0  0  0  0
   27.9617  -35.8152   -1.7466 O   0  0  0  0  0  0  0  0  0  0  0  0
   27.3041  -37.1499   -0.0216 O   0  0  0  0  0  0  0  0  0  0  0  0
  2  1  1  1
  3  2  1  0
  3  4  1  0
  4  5  2  0
  6  2  1  0
  6  7  2  0
  8  4  1  0
 10  9  1  6
 10 12  1  0
 10 11  1  0
 13 12  1  6
 13 14  1  0
 14  6  1  0
 15 13  1  0
 16 15  2  0
 18 19  1  0
 18 17  1  1
 19 15  1  0
 20 18  1  0
 21 20  2  0
 22 20  1  0
M  END
$$$$
