DLA.pdb
     RDKit          3D

 22 21  0  0  1  0  0  0  0  0999 V2000
   18.1870  -10.1295  -16.8636 N   0  0  0  0  0  0  0  0  0  0  0  0
   17.3627   -9.2554  -16.0688 C   0  0  1  0  0  0  0  0  0  0  0  0
   16.4286  -10.1163  -15.2324 C   0  0  0  0  0  0  0  0  0  0  0  0
   15.4884  -10.7793  -16.1641 C   0  0  0  0  0  0  0  0  0  0  0  0
   15.2353  -10.2950  -17.2896 O   0  0  0  0  0  0  0  0  0  0  0  0
   18.2147   -8.4000  -15.2254 C   0  0  0  0  0  0  0  0  0  0  0  0
   17.6889   -7.7616  -14.2793 O   0  0  0  0  0  0  0  0  0  0  0  0
   14.8808  -11.9587  -15.7743 O   0  0  0  0  0  0  0  0  0  0  0  0
   23.0979  -10.2354  -14.0059 C   0  0  0  0  0  0  0  0  0  0  0  0
   21.7888   -9.5062  -13.8422 C   0  0  1  0  0  0  0  0  0  0  0  0
   21.6108   -9.2799  -12.3348 C   0  0  0  0  0  0  0  0  0  0  0  0
   21.7763   -8.1618  -14.4778 C   0  0  0  0  0  0  0  0  0  0  0  0
   20.4385   -7.4698  -14.4749 C   0  0  2  0  0  0  0  0  0  0  0  0
   19.6031   -8.2435  -15.4072 N   0  0  0  0  0  0  0  0  0  0  0  0
   20.5670   -6.0910  -15.0096 C   0  0  0  0  0  0  0  0  0  0  0  0
   20.9674   -5.9135  -16.1927 O   0  0  0  0  0  0  0  0  0  0  0  0
   19.4340   -2.6227  -14.1817 C   0  0  0  0  0  0  0  0  0  0  0  0
   20.4562   -3.5891  -14.7770 C   0  0  2  0  0  0  0  0  0  0  0  0
   20.2539   -4.9278  -14.2374 N   0  0  0  0  0  0  0  0  0  0  0  0
   21.8250   -3.1363  -14.4734 C   0  0  0  0  0  0  0  0  0  0  0  0
   22.4661   -3.6343  -13.4886 O   0  0  0  0  0  0  0  0  0  0  0  0
   22.4551   -2.1699  -15.2335 O   0  0  0  0  0  0  0  0  0  0  0  0
  2  1  1  1
  3  2  1  0
  3  4  1  0
  4  5  2  0
  6  2  1  0
  6  7  2  0
  8  4  1  0
 10  9  1  1
 10 12  1  0
 10 11  1  0
 13 12  1  6
 13 14  1  0
 14  6  1  0
 15 13  1  0
 16 15  2  0
 18 19  1  0
 18 17  1  1
 19 15  1  0
 20 18  1  0
 21 20  2  0
 22 20  1  0
M  END
$$$$
