DLA.pdb
     RDKit          3D

 22 21  0  0  1  0  0  0  0  0999 V2000
   16.9874  -11.0750  -18.0373 N   0  0  0  0  0  0  0  0  0  0  0  0
   17.9628  -10.0651  -18.3596 C   0  0  1  0  0  0  0  0  0  0  0  0
   17.2639   -8.9646  -19.1429 C   0  0  0  0  0  0  0  0  0  0  0  0
   17.0979   -9.4498  -20.5316 C   0  0  0  0  0  0  0  0  0  0  0  0
   16.3377   -8.8698  -21.3385 O   0  0  0  0  0  0  0  0  0  0  0  0
   18.5711   -9.5490  -17.1216 C   0  0  0  0  0  0  0  0  0  0  0  0
   17.8314   -9.3083  -16.1346 O   0  0  0  0  0  0  0  0  0  0  0  0
   17.8015  -10.5688  -20.9376 O   0  0  0  0  0  0  0  0  0  0  0  0
   21.8710   -9.6544  -12.9931 C   0  0  0  0  0  0  0  0  0  0  0  0
   22.5802   -9.4638  -14.3096 C   0  0  1  0  0  0  0  0  0  0  0  0
   23.7438  -10.4642  -14.3174 C   0  0  0  0  0  0  0  0  0  0  0  0
   21.7348   -9.7866  -15.4897 C   0  0  0  0  0  0  0  0  0  0  0  0
   20.5337   -8.8966  -15.6737 C   0  0  2  0  0  0  0  0  0  0  0  0
   19.9489   -9.3010  -16.9621 N   0  0  0  0  0  0  0  0  0  0  0  0
   20.9529   -7.4769  -15.7852 C   0  0  0  0  0  0  0  0  0  0  0  0
   21.7147   -7.1215  -16.7258 O   0  0  0  0  0  0  0  0  0  0  0  0
   19.7667   -4.1464  -14.7455 C   0  0  0  0  0  0  0  0  0  0  0  0
   20.9433   -5.0805  -15.0215 C   0  0  2  0  0  0  0  0  0  0  0  0
   20.5292   -6.4688  -14.8623 N   0  0  0  0  0  0  0  0  0  0  0  0
   22.0552   -4.7884  -14.1000 C   0  0  0  0  0  0  0  0  0  0  0  0
   22.2339   -5.5024  -13.0574 O   0  0  0  0  0  0  0  0  0  0  0  0
   22.9322   -3.7456  -14.3283 O   0  0  0  0  0  0  0  0  0  0  0  0
  2  1  1  1
  3  2  1  0
  3  4  1  0
  4  5  2  0
  6  2  1  0
  6  7  2  0
  8  4  1  0
 10  9  1  1
 10 12  1  0
 10 11  1  0
 13 12  1  6
 13 14  1  0
 14  6  1  0
 15 13  1  0
 16 15  2  0
 18 19  1  0
 18 17  1  1
 19 15  1  0
 20 18  1  0
 21 20  2  0
 22 20  1  0
M  END
$$$$
