DLA.pdb
     RDKit          3D

 22 21  0  0  1  0  0  0  0  0999 V2000
   25.2380  -19.2750  -16.9444 N   0  0  0  0  0  0  0  0  0  0  0  0
   24.0893  -18.8818  -16.1691 C   0  0  1  0  0  0  0  0  0  0  0  0
   22.9992  -18.4350  -17.1310 C   0  0  0  0  0  0  0  0  0  0  0  0
   23.1075  -16.9649  -17.2672 C   0  0  0  0  0  0  0  0  0  0  0  0
   24.1850  -16.3674  -17.0493 O   0  0  0  0  0  0  0  0  0  0  0  0
   23.6463  -20.0088  -15.3309 C   0  0  0  0  0  0  0  0  0  0  0  0
   23.6258  -21.1638  -15.8257 O   0  0  0  0  0  0  0  0  0  0  0  0
   21.9892  -16.2439  -17.6436 O   0  0  0  0  0  0  0  0  0  0  0  0
   25.4942  -20.7939  -10.3736 C   0  0  0  0  0  0  0  0  0  0  0  0
   24.9148  -21.0449  -11.7424 C   0  0  1  0  0  0  0  0  0  0  0  0
   25.1241  -22.5380  -12.0282 C   0  0  0  0  0  0  0  0  0  0  0  0
   23.4501  -20.7990  -11.8196 C   0  0  0  0  0  0  0  0  0  0  0  0
   22.8358  -21.0397  -13.1736 C   0  0  2  0  0  0  0  0  0  0  0  0
   23.2360  -19.8819  -13.9889 N   0  0  0  0  0  0  0  0  0  0  0  0
   21.3545  -21.0434  -13.0773 C   0  0  0  0  0  0  0  0  0  0  0  0
   20.7633  -20.0965  -12.4896 O   0  0  0  0  0  0  0  0  0  0  0  0
   18.4617  -22.9818  -14.5496 C   0  0  0  0  0  0  0  0  0  0  0  0
   19.0918  -22.0503  -13.5159 C   0  0  2  0  0  0  0  0  0  0  0  0
   20.5445  -22.0865  -13.6279 N   0  0  0  0  0  0  0  0  0  0  0  0
   18.6915  -22.4506  -12.1556 C   0  0  0  0  0  0  0  0  0  0  0  0
   19.5000  -23.0967  -11.4088 O   0  0  0  0  0  0  0  0  0  0  0  0
   17.4440  -22.1450  -11.6466 O   0  0  0  0  0  0  0  0  0  0  0  0
  2  1  1  6
  3  2  1  0
  3  4  1  0
  4  5  2  0
  6  2  1  0
  6  7  2  0
  8  4  1  0
 10  9  1  1
 10 12  1  0
 10 11  1  0
 13 12  1  1
 13 14  1  0
 14  6  1  0
 15 13  1  0
 16 15  2  0
 18 19  1  0
 18 17  1  6
 19 15  1  0
 20 18  1  0
 21 20  2  0
 22 20  1  0
M  END
$$$$
