DLA.pdb
     RDKit          3D

 22 21  0  0  1  0  0  0  0  0999 V2000
   18.5131  -11.4600  -17.8460 N   0  0  0  0  0  0  0  0  0  0  0  0
   19.0523  -10.1449  -18.0809 C   0  0  1  0  0  0  0  0  0  0  0  0
   17.9441   -9.2737  -18.6518 C   0  0  0  0  0  0  0  0  0  0  0  0
   17.7567   -9.6699  -20.0658 C   0  0  0  0  0  0  0  0  0  0  0  0
   16.7003  -10.2153  -20.4557 O   0  0  0  0  0  0  0  0  0  0  0  0
   19.5835   -9.5938  -16.8227 C   0  0  0  0  0  0  0  0  0  0  0  0
   18.8715   -9.6430  -15.7883 O   0  0  0  0  0  0  0  0  0  0  0  0
   18.7758   -9.4285  -20.9687 O   0  0  0  0  0  0  0  0  0  0  0  0
   24.2317  -10.9596  -14.8562 C   0  0  0  0  0  0  0  0  0  0  0  0
   22.8196  -10.4373  -14.9320 C   0  0  1  0  0  0  0  0  0  0  0  0
   22.2284  -10.5970  -13.5249 C   0  0  0  0  0  0  0  0  0  0  0  0
   22.7406   -8.9898  -15.2641 C   0  0  0  0  0  0  0  0  0  0  0  0
   21.3436   -8.4491  -15.4208 C   0  0  2  0  0  0  0  0  0  0  0  0
   20.8567   -9.0042  -16.6937 N   0  0  0  0  0  0  0  0  0  0  0  0
   21.3713   -6.9702  -15.5456 C   0  0  0  0  0  0  0  0  0  0  0  0
   22.0349   -6.4329  -16.4743 O   0  0  0  0  0  0  0  0  0  0  0  0
   19.4814   -4.0190  -14.1672 C   0  0  0  0  0  0  0  0  0  0  0  0
   20.7084   -4.6560  -14.8167 C   0  0  2  0  0  0  0  0  0  0  0  0
   20.6700   -6.1033  -14.6489 N   0  0  0  0  0  0  0  0  0  0  0  0
   21.9417   -4.1218  -14.2132 C   0  0  0  0  0  0  0  0  0  0  0  0
   22.5218   -4.7508  -13.2662 O   0  0  0  0  0  0  0  0  0  0  0  0
   22.5069   -2.9372  -14.6447 O   0  0  0  0  0  0  0  0  0  0  0  0
  2  1  1  1
  3  2  1  0
  3  4  1  0
  4  5  2  0
  6  2  1  0
  6  7  2  0
  8  4  1  0
 10  9  1  1
 10 12  1  0
 10 11  1  0
 13 12  1  6
 13 14  1  0
 14  6  1  0
 15 13  1  0
 16 15  2  0
 18 19  1  0
 18 17  1  1
 19 15  1  0
 20 18  1  0
 21 20  2  0
 22 20  1  0
M  END
$$$$
