DLA.pdb
     RDKit          3D

 22 21  0  0  1  0  0  0  0  0999 V2000
   21.8606  -13.1677  -19.6607 N   0  0  0  0  0  0  0  0  0  0  0  0
   22.3826  -11.8363  -19.8341 C   0  0  1  0  0  0  0  0  0  0  0  0
   21.5663  -11.1446  -20.9150 C   0  0  0  0  0  0  0  0  0  0  0  0
   22.0011  -11.6984  -22.2173 C   0  0  0  0  0  0  0  0  0  0  0  0
   23.2121  -11.8674  -22.4824 O   0  0  0  0  0  0  0  0  0  0  0  0
   22.3198  -11.1078  -18.5557 C   0  0  0  0  0  0  0  0  0  0  0  0
   21.3274  -11.2815  -17.8045 O   0  0  0  0  0  0  0  0  0  0  0  0
   21.0420  -12.0333  -23.1554 O   0  0  0  0  0  0  0  0  0  0  0  0
   26.7891  -10.2467  -15.5912 C   0  0  0  0  0  0  0  0  0  0  0  0
   25.3388  -10.4890  -15.9234 C   0  0  1  0  0  0  0  0  0  0  0  0
   24.6671  -10.9247  -14.6142 C   0  0  0  0  0  0  0  0  0  0  0  0
   24.6241   -9.2679  -16.3814 C   0  0  0  0  0  0  0  0  0  0  0  0
   23.2034   -9.4928  -16.8279 C   0  0  2  0  0  0  0  0  0  0  0  0
   23.3114  -10.2132  -18.1066 N   0  0  0  0  0  0  0  0  0  0  0  0
   22.5301   -8.1956  -17.0873 C   0  0  0  0  0  0  0  0  0  0  0  0
   22.9945   -7.4132  -17.9612 O   0  0  0  0  0  0  0  0  0  0  0  0
   19.1990   -6.8011  -17.0002 C   0  0  0  0  0  0  0  0  0  0  0  0
   20.6774   -6.5335  -16.7251 C   0  0  2  0  0  0  0  0  0  0  0  0
   21.3568   -7.7767  -16.3833 N   0  0  0  0  0  0  0  0  0  0  0  0
   20.8257   -5.5702  -15.6202 C   0  0  0  0  0  0  0  0  0  0  0  0
   21.2021   -5.9646  -14.4662 O   0  0  0  0  0  0  0  0  0  0  0  0
   20.5663   -4.2240  -15.7912 O   0  0  0  0  0  0  0  0  0  0  0  0
  2  1  1  1
  3  2  1  0
  3  4  1  0
  4  5  2  0
  6  2  1  0
  6  7  2  0
  8  4  1  0
 10  9  1  1
 10 12  1  0
 10 11  1  0
 13 12  1  6
 13 14  1  0
 14  6  1  0
 15 13  1  0
 16 15  2  0
 18 19  1  0
 18 17  1  1
 19 15  1  0
 20 18  1  0
 21 20  2  0
 22 20  1  0
M  END
$$$$
