DLA.pdb
     RDKit          3D

 22 21  0  0  1  0  0  0  0  0999 V2000
   15.1505  -21.1249    1.1203 N   0  0  0  0  0  0  0  0  0  0  0  0
   14.9711  -20.0219    2.0294 C   0  0  1  0  0  0  0  0  0  0  0  0
   13.8013  -20.3482    2.9449 C   0  0  0  0  0  0  0  0  0  0  0  0
   12.5671  -20.2549    2.1328 C   0  0  0  0  0  0  0  0  0  0  0  0
   12.6130  -20.0976    0.8924 O   0  0  0  0  0  0  0  0  0  0  0  0
   16.2118  -19.7991    2.7910 C   0  0  0  0  0  0  0  0  0  0  0  0
   17.0191  -20.7519    2.9314 O   0  0  0  0  0  0  0  0  0  0  0  0
   11.3413  -20.3443    2.7663 O   0  0  0  0  0  0  0  0  0  0  0  0
   19.8667  -16.2013    1.7449 C   0  0  0  0  0  0  0  0  0  0  0  0
   19.2252  -17.4392    2.3183 C   0  0  1  0  0  0  0  0  0  0  0  0
   20.3753  -18.3897    2.6774 C   0  0  0  0  0  0  0  0  0  0  0  0
   18.4734  -17.1879    3.5765 C   0  0  0  0  0  0  0  0  0  0  0  0
   17.7993  -18.3986    4.1667 C   0  0  2  0  0  0  0  0  0  0  0  0
   16.5646  -18.5709    3.3847 N   0  0  0  0  0  0  0  0  0  0  0  0
   17.4170  -18.1425    5.5780 C   0  0  0  0  0  0  0  0  0  0  0  0
   16.5658  -17.2501    5.8436 O   0  0  0  0  0  0  0  0  0  0  0  0
   18.0401  -19.6684    8.9889 C   0  0  0  0  0  0  0  0  0  0  0  0
   17.6390  -18.5297    8.0532 C   0  0  2  0  0  0  0  0  0  0  0  0
   17.9749  -18.8701    6.6765 N   0  0  0  0  0  0  0  0  0  0  0  0
   18.3293  -17.2857    8.4365 C   0  0  0  0  0  0  0  0  0  0  0  0
   19.1988  -16.7649    7.6609 O   0  0  0  0  0  0  0  0  0  0  0  0
   18.0637  -16.6471    9.6325 O   0  0  0  0  0  0  0  0  0  0  0  0
  2  1  1  6
  3  2  1  0
  3  4  1  0
  4  5  2  0
  6  2  1  0
  6  7  2  0
  8  4  1  0
 10  9  1  1
 10 12  1  0
 10 11  1  0
 13 12  1  6
 13 14  1  0
 14  6  1  0
 15 13  1  0
 16 15  2  0
 18 19  1  0
 18 17  1  1
 19 15  1  0
 20 18  1  0
 21 20  2  0
 22 20  1  0
M  END
$$$$
