DLA.pdb
     RDKit          3D

 22 21  0  0  1  0  0  0  0  0999 V2000
   20.9314  -20.8316  -14.9640 N   0  0  0  0  0  0  0  0  0  0  0  0
   21.3047  -20.8321  -13.5726 C   0  0  1  0  0  0  0  0  0  0  0  0
   21.2471  -22.2654  -13.0673 C   0  0  0  0  0  0  0  0  0  0  0  0
   19.8322  -22.5641  -12.7504 C   0  0  0  0  0  0  0  0  0  0  0  0
   19.3137  -22.1968  -11.6726 O   0  0  0  0  0  0  0  0  0  0  0  0
   22.6511  -20.2553  -13.4193 C   0  0  0  0  0  0  0  0  0  0  0  0
   22.7998  -19.0142  -13.5490 O   0  0  0  0  0  0  0  0  0  0  0  0
   19.0742  -23.2645  -13.6706 O   0  0  0  0  0  0  0  0  0  0  0  0
   25.9216  -21.5544   -9.3252 C   0  0  0  0  0  0  0  0  0  0  0  0
   25.1948  -20.8545  -10.4452 C   0  0  1  0  0  0  0  0  0  0  0  0
   25.4016  -19.3513  -10.2158 C   0  0  0  0  0  0  0  0  0  0  0  0
   25.7483  -21.1587  -11.7916 C   0  0  0  0  0  0  0  0  0  0  0  0
   25.1232  -20.3879  -12.9247 C   0  0  2  0  0  0  0  0  0  0  0  0
   23.8059  -21.0100  -13.1324 N   0  0  0  0  0  0  0  0  0  0  0  0
   25.9145  -20.5621  -14.1685 C   0  0  0  0  0  0  0  0  0  0  0  0
   25.8544  -21.6520  -14.8009 O   0  0  0  0  0  0  0  0  0  0  0  0
   28.3146  -18.4915  -16.2738 C   0  0  0  0  0  0  0  0  0  0  0  0
   27.5431  -19.7582  -15.9084 C   0  0  2  0  0  0  0  0  0  0  0  0
   26.7598  -19.5369  -14.6994 N   0  0  0  0  0  0  0  0  0  0  0  0
   28.4739  -20.8801  -15.6950 C   0  0  0  0  0  0  0  0  0  0  0  0
   29.0142  -21.4687  -16.6903 O   0  0  0  0  0  0  0  0  0  0  0  0
   28.7911  -21.3290  -14.4275 O   0  0  0  0  0  0  0  0  0  0  0  0
  2  1  1  6
  3  2  1  0
  3  4  1  0
  4  5  2  0
  6  2  1  0
  6  7  2  0
  8  4  1  0
 10  9  1  1
 10 12  1  0
 10 11  1  0
 13 12  1  1
 13 14  1  0
 14  6  1  0
 15 13  1  0
 16 15  2  0
 18 19  1  0
 18 17  1  1
 19 15  1  0
 20 18  1  0
 21 20  2  0
 22 20  1  0
M  END
$$$$
