DLA.pdb
     RDKit          3D

 22 21  0  0  1  0  0  0  0  0999 V2000
   16.9814   -9.5455  -14.0858 N   0  0  0  0  0  0  0  0  0  0  0  0
   17.6600   -8.7068  -13.1311 C   0  0  1  0  0  0  0  0  0  0  0  0
   18.7013   -7.8868  -13.8770 C   0  0  0  0  0  0  0  0  0  0  0  0
   19.7428   -8.8253  -14.3527 C   0  0  0  0  0  0  0  0  0  0  0  0
   20.2882   -8.6826  -15.4696 O   0  0  0  0  0  0  0  0  0  0  0  0
   16.6827   -7.8472  -12.4420 C   0  0  0  0  0  0  0  0  0  0  0  0
   15.7061   -7.3948  -13.0909 O   0  0  0  0  0  0  0  0  0  0  0  0
   20.1149   -9.8796  -13.5391 O   0  0  0  0  0  0  0  0  0  0  0  0
   13.2530   -6.7973   -8.5343 C   0  0  0  0  0  0  0  0  0  0  0  0
   14.6827   -6.5802   -8.1084 C   0  0  1  0  0  0  0  0  0  0  0  0
   14.8235   -7.2407   -6.7304 C   0  0  0  0  0  0  0  0  0  0  0  0
   15.6729   -7.2416   -8.9994 C   0  0  0  0  0  0  0  0  0  0  0  0
   15.7188   -6.7064  -10.4065 C   0  0  2  0  0  0  0  0  0  0  0  0
   16.7661   -7.4891  -11.0818 N   0  0  0  0  0  0  0  0  0  0  0  0
   16.1382   -5.2824  -10.4060 C   0  0  0  0  0  0  0  0  0  0  0  0
   17.2173   -4.9482   -9.8444 O   0  0  0  0  0  0  0  0  0  0  0  0
   15.1544   -2.1596  -12.2818 C   0  0  0  0  0  0  0  0  0  0  0  0
   15.8997   -2.8987  -11.1721 C   0  0  2  0  0  0  0  0  0  0  0  0
   15.3665   -4.2468  -11.0220 N   0  0  0  0  0  0  0  0  0  0  0  0
   15.7700   -2.1719   -9.8971 C   0  0  0  0  0  0  0  0  0  0  0  0
   14.8759   -2.5081   -9.0506 O   0  0  0  0  0  0  0  0  0  0  0  0
   16.6001   -1.1151   -9.5763 O   0  0  0  0  0  0  0  0  0  0  0  0
  2  1  1  6
  3  2  1  0
  3  4  1  0
  4  5  2  0
  6  2  1  0
  6  7  2  0
  8  4  1  0
 10  9  1  6
 10 12  1  0
 10 11  1  0
 13 12  1  1
 13 14  1  0
 14  6  1  0
 15 13  1  0
 16 15  2  0
 18 19  1  0
 18 17  1  6
 19 15  1  0
 20 18  1  0
 21 20  2  0
 22 20  1  0
M  END
$$$$
