DLA.pdb
     RDKit          3D

 22 21  0  0  1  0  0  0  0  0999 V2000
   21.4059  -21.9332  -13.5082 N   0  0  0  0  0  0  0  0  0  0  0  0
   21.6138  -20.5270  -13.7418 C   0  0  1  0  0  0  0  0  0  0  0  0
   20.6723  -19.7517  -12.8331 C   0  0  0  0  0  0  0  0  0  0  0  0
   19.2917  -20.1598  -13.1783 C   0  0  0  0  0  0  0  0  0  0  0  0
   18.2986  -19.6144  -12.6476 O   0  0  0  0  0  0  0  0  0  0  0  0
   23.0227  -20.1837  -13.4848 C   0  0  0  0  0  0  0  0  0  0  0  0
   23.3938  -18.9913  -13.6253 O   0  0  0  0  0  0  0  0  0  0  0  0
   19.1045  -21.1660  -14.1079 O   0  0  0  0  0  0  0  0  0  0  0  0
   25.1836  -21.5825   -9.0589 C   0  0  0  0  0  0  0  0  0  0  0  0
   24.8741  -20.8895  -10.3614 C   0  0  1  0  0  0  0  0  0  0  0  0
   25.1830  -19.4028  -10.1388 C   0  0  0  0  0  0  0  0  0  0  0  0
   25.7334  -21.3376  -11.4894 C   0  0  0  0  0  0  0  0  0  0  0  0
   25.3982  -20.7274  -12.8250 C   0  0  2  0  0  0  0  0  0  0  0  0
   24.0024  -21.1142  -13.0852 N   0  0  0  0  0  0  0  0  0  0  0  0
   26.2448  -21.3181  -13.8917 C   0  0  0  0  0  0  0  0  0  0  0  0
   27.5011  -21.2376  -13.8099 O   0  0  0  0  0  0  0  0  0  0  0  0
   26.1158  -23.7638  -16.6641 C   0  0  0  0  0  0  0  0  0  0  0  0
   26.5492  -22.3944  -16.1445 C   0  0  2  0  0  0  0  0  0  0  0  0
   25.6994  -21.9883  -15.0322 N   0  0  0  0  0  0  0  0  0  0  0  0
   26.4679  -21.3904  -17.2197 C   0  0  0  0  0  0  0  0  0  0  0  0
   25.5148  -20.5419  -17.2398 O   0  0  0  0  0  0  0  0  0  0  0  0
   27.4077  -21.3320  -18.2308 O   0  0  0  0  0  0  0  0  0  0  0  0
  2  1  1  1
  3  2  1  0
  3  4  1  0
  4  5  2  0
  6  2  1  0
  6  7  2  0
  8  4  1  0
 10  9  1  1
 10 12  1  0
 10 11  1  0
 13 12  1  1
 13 14  1  0
 14  6  1  0
 15 13  1  0
 16 15  2  0
 18 19  1  0
 18 17  1  6
 19 15  1  0
 20 18  1  0
 21 20  2  0
 22 20  1  0
M  END
$$$$
