WWR.pdb
     RDKit          3D

 40 43  0  0  1  0  0  0  0  0999 V2000
   25.7507  -18.2741   -8.4474 N   0  0  0  0  0  0  0  0  0  0  0  0
   26.4218  -19.5409   -8.6748 C   0  0  1  0  0  0  0  0  0  0  0  0
   26.2009  -20.5926   -7.6862 C   0  0  0  0  0  0  0  0  0  0  0  0
   26.6954  -20.4213   -6.3230 C   0  0  0  0  0  0  0  0  0  0  0  0
   25.7939  -20.1234   -5.2769 C   0  0  0  0  0  0  0  0  0  0  0  0
   26.4740  -20.0194   -4.1341 N   0  0  0  0  0  0  0  0  0  0  0  0
   27.7717  -20.2358   -4.3906 C   0  0  0  0  0  0  0  0  0  0  0  0
   28.8834  -20.2396   -3.5716 C   0  0  0  0  0  0  0  0  0  0  0  0
   30.1262  -20.4919   -4.1055 C   0  0  0  0  0  0  0  0  0  0  0  0
   30.2957  -20.7438   -5.4456 C   0  0  0  0  0  0  0  0  0  0  0  0
   29.1911  -20.7421   -6.2718 C   0  0  0  0  0  0  0  0  0  0  0  0
   27.9441  -20.4914   -5.7540 C   0  0  0  0  0  0  0  0  0  0  0  0
   25.8739  -19.9810  -10.0195 C   0  0  0  0  0  0  0  0  0  0  0  0
   24.6249  -19.9129  -10.2224 O   0  0  0  0  0  0  0  0  0  0  0  0
   26.7789  -20.4521  -10.9853 N   0  0  0  0  0  0  0  0  0  0  0  0
   26.5917  -20.0312  -12.3820 C   0  0  1  0  0  0  0  0  0  0  0  0
   27.8713  -20.2360  -13.1155 C   0  0  0  0  0  0  0  0  0  0  0  0
   27.7529  -19.8306  -14.5171 C   0  0  0  0  0  0  0  0  0  0  0  0
   27.7889  -18.5367  -15.0437 C   0  0  0  0  0  0  0  0  0  0  0  0
   27.6569  -18.6038  -16.3731 N   0  0  0  0  0  0  0  0  0  0  0  0
   27.5332  -19.9064  -16.7600 C   0  0  0  0  0  0  0  0  0  0  0  0
   27.3798  -20.5102  -17.9893 C   0  0  0  0  0  0  0  0  0  0  0  0
   27.2834  -21.8955  -18.0682 C   0  0  0  0  0  0  0  0  0  0  0  0
   27.3459  -22.6190  -16.8900 C   0  0  0  0  0  0  0  0  0  0  0  0
   27.4994  -22.0394  -15.6490 C   0  0  0  0  0  0  0  0  0  0  0  0
   27.5926  -20.6490  -15.6114 C   0  0  0  0  0  0  0  0  0  0  0  0
   25.5109  -20.9343  -12.9292 C   0  0  0  0  0  0  0  0  0  0  0  0
   25.5271  -22.1586  -12.7015 O   0  0  0  0  0  0  0  0  0  0  0  0
   19.6679  -24.0750  -12.7664 N   0  0  0  0  0  0  0  0  0  0  0  0
   19.5451  -23.1849  -11.6710 C   0  0  0  0  0  0  0  0  0  0  0  0
   19.4168  -23.6142  -10.4970 N   0  0  0  0  0  0  0  0  0  0  0  0
   19.5622  -21.7742  -11.8868 N   0  0  0  0  0  0  0  0  0  0  0  0
   19.7105  -21.1406  -13.1624 C   0  0  0  0  0  0  0  0  0  0  0  0
   20.9247  -21.6424  -13.9199 C   0  0  0  0  0  0  0  0  0  0  0  0
   22.1068  -20.7980  -13.5150 C   0  0  0  0  0  0  0  0  0  0  0  0
   23.3727  -21.2376  -14.2356 C   0  0  2  0  0  0  0  0  0  0  0  0
   24.4538  -20.3941  -13.7151 N   0  0  0  0  0  0  0  0  0  0  0  0
   23.2247  -21.0232  -15.6800 C   0  0  0  0  0  0  0  0  0  0  0  0
   22.8783  -22.0576  -16.5099 O   0  0  0  0  0  0  0  0  0  0  0  0
   23.4247  -19.8820  -16.1485 O   0  0  0  0  0  0  0  0  0  0  0  0
  2  3  1  0
  2  1  1  1
  4  5  2  0
  4  3  1  0
  6  5  1  0
  7 12  2  0
  7  6  1  0
  8  7  1  0
  9 10  1  0
  9  8  2  0
 10 11  2  0
 11 12  1  0
 12  4  1  0
 13  2  1  0
 14 13  2  0
 15 13  1  0
 16 15  1  0
 16 17  1  6
 17 18  1  0
 18 26  1  0
 18 19  2  0
 19 20  1  0
 21 22  2  0
 21 20  1  0
 23 22  1  0
 24 23  2  0
 25 24  1  0
 25 26  2  0
 26 21  1  0
 27 28  2  0
 27 16  1  0
 30 32  1  0
 30 29  1  0
 31 30  2  0
 33 32  1  0
 34 35  1  0
 34 33  1  0
 36 35  1  1
 36 38  1  0
 36 37  1  0
 37 27  1  0
 38 39  1  0
 40 38  2  0
M  END
$$$$
