WWR.pdb
     RDKit          3D

 40 43  0  0  1  0  0  0  0  0999 V2000
   25.7172  -18.6106   -8.2163 N   0  0  0  0  0  0  0  0  0  0  0  0
   26.4786  -19.7672   -8.6517 C   0  0  1  0  0  0  0  0  0  0  0  0
   26.2608  -21.0140   -7.9236 C   0  0  0  0  0  0  0  0  0  0  0  0
   26.7554  -21.1509   -6.5565 C   0  0  0  0  0  0  0  0  0  0  0  0
   26.2802  -22.1973   -5.7350 C   0  0  0  0  0  0  0  0  0  0  0  0
   26.8760  -22.1189   -4.5441 N   0  0  0  0  0  0  0  0  0  0  0  0
   27.7135  -21.0725   -4.5558 C   0  0  0  0  0  0  0  0  0  0  0  0
   28.5548  -20.5563   -3.5901 C   0  0  0  0  0  0  0  0  0  0  0  0
   29.3183  -19.4464   -3.8697 C   0  0  0  0  0  0  0  0  0  0  0  0
   29.2682  -18.8293   -5.0964 C   0  0  0  0  0  0  0  0  0  0  0  0
   28.4308  -19.3376   -6.0676 C   0  0  0  0  0  0  0  0  0  0  0  0
   27.6620  -20.4444   -5.8035 C   0  0  0  0  0  0  0  0  0  0  0  0
   26.0455  -19.9370  -10.0959 C   0  0  0  0  0  0  0  0  0  0  0  0
   24.8397  -19.6993  -10.4044 O   0  0  0  0  0  0  0  0  0  0  0  0
   27.0039  -20.3575  -11.0332 N   0  0  0  0  0  0  0  0  0  0  0  0
   26.7913  -20.0200  -12.4488 C   0  0  1  0  0  0  0  0  0  0  0  0
   28.1122  -20.0002  -13.1361 C   0  0  0  0  0  0  0  0  0  0  0  0
   27.9724  -19.6443  -14.5491 C   0  0  0  0  0  0  0  0  0  0  0  0
   27.5158  -18.4399  -15.0912 C   0  0  0  0  0  0  0  0  0  0  0  0
   27.5541  -18.5209  -16.4258 N   0  0  0  0  0  0  0  0  0  0  0  0
   28.0240  -19.7456  -16.8012 C   0  0  0  0  0  0  0  0  0  0  0  0
   28.2573  -20.3257  -18.0294 C   0  0  0  0  0  0  0  0  0  0  0  0
   28.7565  -21.6223  -18.0942 C   0  0  0  0  0  0  0  0  0  0  0  0
   29.0004  -22.2846  -16.9037 C   0  0  0  0  0  0  0  0  0  0  0  0
   28.7762  -21.7268  -15.6634 C   0  0  0  0  0  0  0  0  0  0  0  0
   28.2760  -20.4258  -15.6400 C   0  0  0  0  0  0  0  0  0  0  0  0
   25.9200  -21.1264  -12.9962 C   0  0  0  0  0  0  0  0  0  0  0  0
   26.1469  -22.3172  -12.7106 O   0  0  0  0  0  0  0  0  0  0  0  0
   17.8070  -22.7333  -16.2121 N   0  0  0  0  0  0  0  0  0  0  0  0
   17.9784  -22.8798  -14.8134 C   0  0  0  0  0  0  0  0  0  0  0  0
   17.1187  -23.4703  -14.1125 N   0  0  0  0  0  0  0  0  0  0  0  0
   19.1390  -22.3510  -14.1730 N   0  0  0  0  0  0  0  0  0  0  0  0
   20.1444  -21.5610  -14.8179 C   0  0  0  0  0  0  0  0  0  0  0  0
   21.4970  -22.2467  -14.8339 C   0  0  0  0  0  0  0  0  0  0  0  0
   22.5242  -21.2599  -14.3385 C   0  0  0  0  0  0  0  0  0  0  0  0
   23.9207  -21.8638  -14.3488 C   0  0  2  0  0  0  0  0  0  0  0  0
   24.8217  -20.8201  -13.8486 N   0  0  0  0  0  0  0  0  0  0  0  0
   24.2954  -22.2309  -15.7195 C   0  0  0  0  0  0  0  0  0  0  0  0
   24.3061  -23.5432  -16.1153 O   0  0  0  0  0  0  0  0  0  0  0  0
   24.6122  -21.3293  -16.5250 O   0  0  0  0  0  0  0  0  0  0  0  0
  2  3  1  0
  2  1  1  1
  4  5  2  0
  4  3  1  0
  6  5  1  0
  7 12  2  0
  7  6  1  0
  8  7  1  0
  9 10  1  0
  9  8  2  0
 10 11  2  0
 11 12  1  0
 12  4  1  0
 13  2  1  0
 14 13  2  0
 15 13  1  0
 16 15  1  0
 16 17  1  6
 17 18  1  0
 18 26  1  0
 18 19  2  0
 19 20  1  0
 21 22  2  0
 21 20  1  0
 23 22  1  0
 24 23  2  0
 25 24  1  0
 25 26  2  0
 26 21  1  0
 27 28  2  0
 27 16  1  0
 30 32  1  0
 30 29  1  0
 31 30  2  0
 33 32  1  0
 34 35  1  0
 34 33  1  0
 36 35  1  6
 36 38  1  0
 36 37  1  0
 37 27  1  0
 38 39  1  0
 40 38  2  0
M  END
$$$$
