WWR.pdb
     RDKit          3D

 40 43  0  0  1  0  0  0  0  0999 V2000
   28.5696  -21.3361  -14.2417 N   0  0  0  0  0  0  0  0  0  0  0  0
   27.8050  -20.1620  -13.8626 C   0  0  1  0  0  0  0  0  0  0  0  0
   26.8459  -19.6542  -14.8396 C   0  0  0  0  0  0  0  0  0  0  0  0
   27.2616  -18.6389  -15.8033 C   0  0  0  0  0  0  0  0  0  0  0  0
   27.8626  -19.0258  -17.0218 C   0  0  0  0  0  0  0  0  0  0  0  0
   28.1477  -17.9329  -17.7315 N   0  0  0  0  0  0  0  0  0  0  0  0
   27.7600  -16.8580  -17.0308 C   0  0  0  0  0  0  0  0  0  0  0  0
   27.8297  -15.5065  -17.3052 C   0  0  0  0  0  0  0  0  0  0  0  0
   27.3522  -14.5966  -16.3902 C   0  0  0  0  0  0  0  0  0  0  0  0
   26.8009  -14.9980  -15.1972 C   0  0  0  0  0  0  0  0  0  0  0  0
   26.7269  -16.3459  -14.9140 C   0  0  0  0  0  0  0  0  0  0  0  0
   27.1998  -17.2663  -15.8170 C   0  0  0  0  0  0  0  0  0  0  0  0
   27.0705  -20.6204  -12.6167 C   0  0  0  0  0  0  0  0  0  0  0  0
   26.5415  -21.7718  -12.6080 O   0  0  0  0  0  0  0  0  0  0  0  0
   27.0037  -19.7422  -11.5222 N   0  0  0  0  0  0  0  0  0  0  0  0
   26.2023  -20.1404  -10.3551 C   0  0  1  0  0  0  0  0  0  0  0  0
   26.6427  -19.3383   -9.1802 C   0  0  0  0  0  0  0  0  0  0  0  0
   27.0893  -20.1997   -8.0841 C   0  0  0  0  0  0  0  0  0  0  0  0
   27.0894  -21.5962   -8.0336 C   0  0  0  0  0  0  0  0  0  0  0  0
   27.5898  -21.9893   -6.8570 N   0  0  0  0  0  0  0  0  0  0  0  0
   27.9285  -20.8981   -6.1111 C   0  0  0  0  0  0  0  0  0  0  0  0
   28.4769  -20.7528   -4.8551 C   0  0  0  0  0  0  0  0  0  0  0  0
   28.7173  -19.4783   -4.3526 C   0  0  0  0  0  0  0  0  0  0  0  0
   28.3894  -18.3940   -5.1479 C   0  0  0  0  0  0  0  0  0  0  0  0
   27.8409  -18.5127   -6.4068 C   0  0  0  0  0  0  0  0  0  0  0  0
   27.6153  -19.8061   -6.8753 C   0  0  0  0  0  0  0  0  0  0  0  0
   24.7736  -19.8123  -10.7215 C   0  0  0  0  0  0  0  0  0  0  0  0
   24.4356  -18.6433  -10.9861 O   0  0  0  0  0  0  0  0  0  0  0  0
   25.4468  -23.8512  -14.8710 N   0  0  0  0  0  0  0  0  0  0  0  0
   24.4786  -24.8074  -14.4767 C   0  0  0  0  0  0  0  0  0  0  0  0
   24.7764  -26.0227  -14.3606 N   0  0  0  0  0  0  0  0  0  0  0  0
   23.1373  -24.4017  -14.2062 N   0  0  0  0  0  0  0  0  0  0  0  0
   22.7036  -23.0446  -14.0609 C   0  0  0  0  0  0  0  0  0  0  0  0
   22.9045  -22.5208  -12.6520 C   0  0  0  0  0  0  0  0  0  0  0  0
   22.2401  -21.1700  -12.5592 C   0  0  0  0  0  0  0  0  0  0  0  0
   22.4075  -20.5659  -11.1728 C   0  0  2  0  0  0  0  0  0  0  0  0
   23.7908  -20.8411  -10.7707 N   0  0  0  0  0  0  0  0  0  0  0  0
   21.4786  -21.2064  -10.2341 C   0  0  0  0  0  0  0  0  0  0  0  0
   20.1399  -20.9133  -10.2633 O   0  0  0  0  0  0  0  0  0  0  0  0
   21.9249  -22.0222   -9.3991 O   0  0  0  0  0  0  0  0  0  0  0  0
  2  3  1  0
  2  1  1  6
  4  5  2  0
  4  3  1  0
  6  5  1  0
  7 12  2  0
  7  6  1  0
  8  7  1  0
  9 10  1  0
  9  8  2  0
 10 11  2  0
 11 12  1  0
 12  4  1  0
 13  2  1  0
 14 13  2  0
 15 13  1  0
 16 15  1  0
 16 17  1  1
 17 18  1  0
 18 26  1  0
 18 19  2  0
 19 20  1  0
 21 22  2  0
 21 20  1  0
 23 22  1  0
 24 23  2  0
 25 24  1  0
 25 26  2  0
 26 21  1  0
 27 28  2  0
 27 16  1  0
 30 32  1  0
 30 29  1  0
 31 30  2  0
 33 32  1  0
 34 35  1  0
 34 33  1  0
 36 35  1  6
 36 38  1  0
 36 37  1  0
 37 27  1  0
 38 39  1  0
 40 38  2  0
M  END
$$$$
