WWR.pdb
     RDKit          3D

 40 43  0  0  1  0  0  0  0  0999 V2000
   28.8289  -21.4943  -13.6813 N   0  0  0  0  0  0  0  0  0  0  0  0
   27.8169  -20.5068  -13.3535 C   0  0  1  0  0  0  0  0  0  0  0  0
   26.7878  -20.2565  -14.3587 C   0  0  0  0  0  0  0  0  0  0  0  0
   26.9675  -19.1785  -15.3271 C   0  0  0  0  0  0  0  0  0  0  0  0
   27.1283  -19.4800  -16.6979 C   0  0  0  0  0  0  0  0  0  0  0  0
   27.2693  -18.3419  -17.3791 N   0  0  0  0  0  0  0  0  0  0  0  0
   27.2073  -17.3189  -16.5153 C   0  0  0  0  0  0  0  0  0  0  0  0
   27.3001  -15.9534  -16.6979 C   0  0  0  0  0  0  0  0  0  0  0  0
   27.2056  -15.1099  -15.6149 C   0  0  0  0  0  0  0  0  0  0  0  0
   27.0189  -15.5920  -14.3418 C   0  0  0  0  0  0  0  0  0  0  0  0
   26.9251  -16.9547  -14.1493 C   0  0  0  0  0  0  0  0  0  0  0  0
   27.0180  -17.8095  -15.2201 C   0  0  0  0  0  0  0  0  0  0  0  0
   27.1786  -21.0753  -12.0999 C   0  0  0  0  0  0  0  0  0  0  0  0
   27.1155  -22.3334  -11.9629 O   0  0  0  0  0  0  0  0  0  0  0  0
   26.6778  -20.1777  -11.1421 N   0  0  0  0  0  0  0  0  0  0  0  0
   26.1874  -20.7199   -9.8660 C   0  0  1  0  0  0  0  0  0  0  0  0
   26.5514  -19.7728   -8.7761 C   0  0  0  0  0  0  0  0  0  0  0  0
   27.7841  -20.1841   -8.1023 C   0  0  0  0  0  0  0  0  0  0  0  0
   28.9547  -20.6825   -8.6805 C   0  0  0  0  0  0  0  0  0  0  0  0
   29.8480  -20.9254   -7.7150 N   0  0  0  0  0  0  0  0  0  0  0  0
   29.3147  -20.6048   -6.5006 C   0  0  0  0  0  0  0  0  0  0  0  0
   29.8073  -20.6598   -5.2148 C   0  0  0  0  0  0  0  0  0  0  0  0
   29.0073  -20.2499   -4.1533 C   0  0  0  0  0  0  0  0  0  0  0  0
   27.7307  -19.7981   -4.4389 C   0  0  0  0  0  0  0  0  0  0  0  0
   27.2150  -19.7328   -5.7155 C   0  0  0  0  0  0  0  0  0  0  0  0
   28.0473  -20.1521   -6.7522 C   0  0  0  0  0  0  0  0  0  0  0  0
   24.6868  -20.8070  -10.0200 C   0  0  0  0  0  0  0  0  0  0  0  0
   24.1089  -20.2394  -10.9659 O   0  0  0  0  0  0  0  0  0  0  0  0
   18.7167  -25.1654   -8.1603 N   0  0  0  0  0  0  0  0  0  0  0  0
   18.2657  -24.5622   -6.9603 C   0  0  0  0  0  0  0  0  0  0  0  0
   17.1757  -24.8999   -6.4340 N   0  0  0  0  0  0  0  0  0  0  0  0
   19.0480  -23.5504   -6.3271 N   0  0  0  0  0  0  0  0  0  0  0  0
   19.7005  -22.4718   -7.0066 C   0  0  0  0  0  0  0  0  0  0  0  0
   20.6337  -22.9566   -8.0993 C   0  0  0  0  0  0  0  0  0  0  0  0
   21.9701  -22.2867   -7.9003 C   0  0  0  0  0  0  0  0  0  0  0  0
   22.4489  -21.6176   -9.1802 C   0  0  2  0  0  0  0  0  0  0  0  0
   23.9104  -21.5442   -9.0816 N   0  0  0  0  0  0  0  0  0  0  0  0
   21.8872  -20.2650   -9.2764 C   0  0  0  0  0  0  0  0  0  0  0  0
   20.9085  -19.9763  -10.1915 O   0  0  0  0  0  0  0  0  0  0  0  0
   22.3176  -19.3728   -8.5144 O   0  0  0  0  0  0  0  0  0  0  0  0
  2  3  1  0
  2  1  1  6
  4  5  2  0
  4  3  1  0
  6  5  1  0
  7 12  2  0
  7  6  1  0
  8  7  1  0
  9 10  1  0
  9  8  2  0
 10 11  2  0
 11 12  1  0
 12  4  1  0
 13  2  1  0
 14 13  2  0
 15 13  1  0
 16 15  1  0
 16 17  1  1
 17 18  1  0
 18 26  1  0
 18 19  2  0
 19 20  1  0
 21 22  2  0
 21 20  1  0
 23 22  1  0
 24 23  2  0
 25 24  1  0
 25 26  2  0
 26 21  1  0
 27 28  2  0
 27 16  1  0
 30 32  1  0
 30 29  1  0
 31 30  2  0
 33 32  1  0
 34 35  1  0
 34 33  1  0
 36 35  1  1
 36 38  1  0
 36 37  1  0
 37 27  1  0
 38 39  1  0
 40 38  2  0
M  END
$$$$
