WWR.pdb
     RDKit          3D

 40 43  0  0  1  0  0  0  0  0999 V2000
   27.4130  -21.5271  -14.8613 N   0  0  0  0  0  0  0  0  0  0  0  0
   27.5366  -20.3981  -13.9574 C   0  0  1  0  0  0  0  0  0  0  0  0
   26.7528  -19.2079  -14.2756 C   0  0  0  0  0  0  0  0  0  0  0  0
   26.9880  -18.4993  -15.5305 C   0  0  0  0  0  0  0  0  0  0  0  0
   25.8948  -18.0923  -16.3274 C   0  0  0  0  0  0  0  0  0  0  0  0
   26.3567  -17.4660  -17.4108 N   0  0  0  0  0  0  0  0  0  0  0  0
   27.6957  -17.4482  -17.3529 C   0  0  0  0  0  0  0  0  0  0  0  0
   28.6471  -16.9349  -18.2121 C   0  0  0  0  0  0  0  0  0  0  0  0
   29.9831  -17.0603  -17.9078 C   0  0  0  0  0  0  0  0  0  0  0  0
   30.4036  -17.6883  -16.7601 C   0  0  0  0  0  0  0  0  0  0  0  0
   29.4606  -18.2043  -15.8957 C   0  0  0  0  0  0  0  0  0  0  0  0
   28.1234  -18.0875  -16.1858 C   0  0  0  0  0  0  0  0  0  0  0  0
   27.0776  -20.9718  -12.6299 C   0  0  0  0  0  0  0  0  0  0  0  0
   26.2389  -21.9216  -12.6319 O   0  0  0  0  0  0  0  0  0  0  0  0
   27.6012  -20.4192  -11.4491 N   0  0  0  0  0  0  0  0  0  0  0  0
   26.9489  -20.7512  -10.1735 C   0  0  1  0  0  0  0  0  0  0  0  0
   27.8280  -20.3009   -9.0590 C   0  0  0  0  0  0  0  0  0  0  0  0
   27.1606  -20.4414   -7.7638 C   0  0  0  0  0  0  0  0  0  0  0  0
   25.8895  -20.9608   -7.5035 C   0  0  0  0  0  0  0  0  0  0  0  0
   25.6643  -20.9208   -6.1856 N   0  0  0  0  0  0  0  0  0  0  0  0
   26.7473  -20.3896   -5.5476 C   0  0  0  0  0  0  0  0  0  0  0  0
   27.0256  -20.1378   -4.2216 C   0  0  0  0  0  0  0  0  0  0  0  0
   28.2498  -19.5792   -3.8696 C   0  0  0  0  0  0  0  0  0  0  0  0
   29.1494  -19.2953   -4.8824 C   0  0  0  0  0  0  0  0  0  0  0  0
   28.8954  -19.5381   -6.2151 C   0  0  0  0  0  0  0  0  0  0  0  0
   27.6579  -20.0987   -6.5276 C   0  0  0  0  0  0  0  0  0  0  0  0
   25.6505  -19.9784  -10.1764 C   0  0  0  0  0  0  0  0  0  0  0  0
   25.6461  -18.7386  -10.0586 O   0  0  0  0  0  0  0  0  0  0  0  0
   24.3893  -22.4443  -16.0942 N   0  0  0  0  0  0  0  0  0  0  0  0
   23.9762  -23.5180  -15.2674 C   0  0  0  0  0  0  0  0  0  0  0  0
   24.4440  -24.6740  -15.4227 N   0  0  0  0  0  0  0  0  0  0  0  0
   23.0112  -23.3019  -14.2384 N   0  0  0  0  0  0  0  0  0  0  0  0
   22.5231  -22.0199  -13.8270 C   0  0  0  0  0  0  0  0  0  0  0  0
   22.7313  -21.7698  -12.3458 C   0  0  0  0  0  0  0  0  0  0  0  0
   22.9192  -20.2867  -12.1468 C   0  0  0  0  0  0  0  0  0  0  0  0
   23.1785  -19.9536  -10.6850 C   0  0  2  0  0  0  0  0  0  0  0  0
   24.4091  -20.6612  -10.3161 N   0  0  0  0  0  0  0  0  0  0  0  0
   22.0627  -20.4304   -9.8592 C   0  0  0  0  0  0  0  0  0  0  0  0
   20.8681  -19.7586   -9.8402 O   0  0  0  0  0  0  0  0  0  0  0  0
   22.2165  -21.4582   -9.1649 O   0  0  0  0  0  0  0  0  0  0  0  0
  2  3  1  0
  2  1  1  6
  4  5  2  0
  4  3  1  0
  6  5  1  0
  7 12  2  0
  7  6  1  0
  8  7  1  0
  9 10  1  0
  9  8  2  0
 10 11  2  0
 11 12  1  0
 12  4  1  0
 13  2  1  0
 14 13  2  0
 15 13  1  0
 16 15  1  0
 16 17  1  1
 17 18  1  0
 18 26  1  0
 18 19  2  0
 19 20  1  0
 21 22  2  0
 21 20  1  0
 23 22  1  0
 24 23  2  0
 25 24  1  0
 25 26  2  0
 26 21  1  0
 27 28  2  0
 27 16  1  0
 30 32  1  0
 30 29  1  0
 31 30  2  0
 33 32  1  0
 34 35  1  0
 34 33  1  0
 36 35  1  6
 36 38  1  0
 36 37  1  0
 37 27  1  0
 38 39  1  0
 40 38  2  0
M  END
$$$$
