WWR.pdb
     RDKit          3D

 40 43  0  0  1  0  0  0  0  0999 V2000
   23.7105  -19.9398   -9.8459 N   0  0  0  0  0  0  0  0  0  0  0  0
   25.1584  -19.9303   -9.9487 C   0  0  1  0  0  0  0  0  0  0  0  0
   25.8790  -20.9748   -9.2262 C   0  0  0  0  0  0  0  0  0  0  0  0
   26.2951  -20.7458   -7.8453 C   0  0  0  0  0  0  0  0  0  0  0  0
   25.3280  -20.6830   -6.8175 C   0  0  0  0  0  0  0  0  0  0  0  0
   25.9447  -20.4725   -5.6535 N   0  0  0  0  0  0  0  0  0  0  0  0
   27.2638  -20.3962   -5.8790 C   0  0  0  0  0  0  0  0  0  0  0  0
   28.3320  -20.1874   -5.0293 C   0  0  0  0  0  0  0  0  0  0  0  0
   29.6112  -20.1489   -5.5346 C   0  0  0  0  0  0  0  0  0  0  0  0
   29.8602  -20.3145   -6.8758 C   0  0  0  0  0  0  0  0  0  0  0  0
   28.7995  -20.5235   -7.7325 C   0  0  0  0  0  0  0  0  0  0  0  0
   27.5169  -20.5640   -7.2434 C   0  0  0  0  0  0  0  0  0  0  0  0
   25.3958  -20.0840  -11.4394 C   0  0  0  0  0  0  0  0  0  0  0  0
   24.5720  -20.7623  -12.1227 O   0  0  0  0  0  0  0  0  0  0  0  0
   26.5273  -19.4684  -12.0002 N   0  0  0  0  0  0  0  0  0  0  0  0
   26.5020  -19.1321  -13.4317 C   0  0  1  0  0  0  0  0  0  0  0  0
   27.4953  -18.0516  -13.6836 C   0  0  0  0  0  0  0  0  0  0  0  0
   27.4114  -17.5609  -15.0601 C   0  0  0  0  0  0  0  0  0  0  0  0
   26.5002  -16.6445  -15.5920 C   0  0  0  0  0  0  0  0  0  0  0  0
   26.7752  -16.4593  -16.8879 N   0  0  0  0  0  0  0  0  0  0  0  0
   27.8468  -17.2240  -17.2469 C   0  0  0  0  0  0  0  0  0  0  0  0
   28.5222  -17.3947  -18.4359 C   0  0  0  0  0  0  0  0  0  0  0  0
   29.6078  -18.2625  -18.4921 C   0  0  0  0  0  0  0  0  0  0  0  0
   29.9677  -18.9282  -17.3333 C   0  0  0  0  0  0  0  0  0  0  0  0
   29.3093  -18.7745  -16.1322 C   0  0  0  0  0  0  0  0  0  0  0  0
   28.2270  -17.8960  -16.1163 C   0  0  0  0  0  0  0  0  0  0  0  0
   26.9000  -20.4021  -14.1469 C   0  0  0  0  0  0  0  0  0  0  0  0
   27.5349  -21.2951  -13.5549 O   0  0  0  0  0  0  0  0  0  0  0  0
   25.9378  -27.3274  -17.7448 N   0  0  0  0  0  0  0  0  0  0  0  0
   26.4783  -27.5129  -16.4484 C   0  0  0  0  0  0  0  0  0  0  0  0
   27.1536  -28.5346  -16.1669 N   0  0  0  0  0  0  0  0  0  0  0  0
   26.2592  -26.5349  -15.4324 N   0  0  0  0  0  0  0  0  0  0  0  0
   25.5301  -25.3153  -15.6106 C   0  0  0  0  0  0  0  0  0  0  0  0
   26.3479  -24.2499  -16.3148 C   0  0  0  0  0  0  0  0  0  0  0  0
   26.1690  -22.9544  -15.5637 C   0  0  0  0  0  0  0  0  0  0  0  0
   26.9218  -21.8166  -16.2372 C   0  0  2  0  0  0  0  0  0  0  0  0
   26.5513  -20.5958  -15.5136 N   0  0  0  0  0  0  0  0  0  0  0  0
   26.5096  -21.7081  -17.6417 C   0  0  0  0  0  0  0  0  0  0  0  0
   27.3861  -22.0014  -18.6538 O   0  0  0  0  0  0  0  0  0  0  0  0
   25.3457  -21.3375  -17.9064 O   0  0  0  0  0  0  0  0  0  0  0  0
  2  3  1  0
  2  1  1  6
  4  5  2  0
  4  3  1  0
  6  5  1  0
  7 12  2  0
  7  6  1  0
  8  7  1  0
  9 10  1  0
  9  8  2  0
 10 11  2  0
 11 12  1  0
 12  4  1  0
 13  2  1  0
 14 13  2  0
 15 13  1  0
 16 15  1  0
 16 17  1  1
 17 18  1  0
 18 26  1  0
 18 19  2  0
 19 20  1  0
 21 22  2  0
 21 20  1  0
 23 22  1  0
 24 23  2  0
 25 24  1  0
 25 26  2  0
 26 21  1  0
 27 28  2  0
 27 16  1  0
 30 32  1  0
 30 29  1  0
 31 30  2  0
 33 32  1  0
 34 35  1  0
 34 33  1  0
 36 35  1  1
 36 38  1  0
 36 37  1  0
 37 27  1  0
 38 39  1  0
 40 38  2  0
M  END
$$$$
