WWR.pdb
     RDKit          3D

 40 43  0  0  1  0  0  0  0  0999 V2000
   27.5540  -20.7499  -11.0743 N   0  0  0  0  0  0  0  0  0  0  0  0
   26.4730  -20.8623  -10.1122 C   0  0  1  0  0  0  0  0  0  0  0  0
   26.6190  -20.1181   -8.8643 C   0  0  0  0  0  0  0  0  0  0  0  0
   27.8790  -20.1766   -8.1287 C   0  0  0  0  0  0  0  0  0  0  0  0
   29.0617  -20.5844   -8.7849 C   0  0  0  0  0  0  0  0  0  0  0  0
   30.0732  -20.5532   -7.9159 N   0  0  0  0  0  0  0  0  0  0  0  0
   29.6019  -20.1449   -6.7294 C   0  0  0  0  0  0  0  0  0  0  0  0
   30.2216  -19.9486   -5.5112 C   0  0  0  0  0  0  0  0  0  0  0  0
   29.4862  -19.5203   -4.4301 C   0  0  0  0  0  0  0  0  0  0  0  0
   28.1370  -19.2788   -4.5282 C   0  0  0  0  0  0  0  0  0  0  0  0
   27.5089  -19.4721   -5.7410 C   0  0  0  0  0  0  0  0  0  0  0  0
   28.2293  -19.8998   -6.8291 C   0  0  0  0  0  0  0  0  0  0  0  0
   25.2751  -20.3384  -10.8819 C   0  0  0  0  0  0  0  0  0  0  0  0
   24.7429  -19.2481  -10.5162 O   0  0  0  0  0  0  0  0  0  0  0  0
   24.8017  -21.0910  -11.9697 N   0  0  0  0  0  0  0  0  0  0  0  0
   23.6654  -20.5649  -12.7411 C   0  0  1  0  0  0  0  0  0  0  0  0
   24.1053  -20.3483  -14.1472 C   0  0  0  0  0  0  0  0  0  0  0  0
   23.0295  -19.7793  -14.9605 C   0  0  0  0  0  0  0  0  0  0  0  0
   22.3577  -18.5685  -14.7719 C   0  0  0  0  0  0  0  0  0  0  0  0
   21.4519  -18.4170  -15.7445 N   0  0  0  0  0  0  0  0  0  0  0  0
   21.4928  -19.4909  -16.5854 C   0  0  0  0  0  0  0  0  0  0  0  0
   20.7872  -19.8204  -17.7224 C   0  0  0  0  0  0  0  0  0  0  0  0
   21.0637  -21.0132  -18.3822 C   0  0  0  0  0  0  0  0  0  0  0  0
   22.0505  -21.8309  -17.8595 C   0  0  0  0  0  0  0  0  0  0  0  0
   22.7704  -21.5240  -16.7250 C   0  0  0  0  0  0  0  0  0  0  0  0
   22.4644  -20.3200  -16.0924 C   0  0  0  0  0  0  0  0  0  0  0  0
   22.6049  -21.6390  -12.6718 C   0  0  0  0  0  0  0  0  0  0  0  0
   22.9152  -22.8446  -12.7062 O   0  0  0  0  0  0  0  0  0  0  0  0
   18.9719  -24.1880   -8.8785 N   0  0  0  0  0  0  0  0  0  0  0  0
   17.5772  -24.2288   -8.6329 C   0  0  0  0  0  0  0  0  0  0  0  0
   17.0890  -25.0270   -7.7940 N   0  0  0  0  0  0  0  0  0  0  0  0
   16.6972  -23.3584   -9.3433 N   0  0  0  0  0  0  0  0  0  0  0  0
   17.1129  -22.3469  -10.2680 C   0  0  0  0  0  0  0  0  0  0  0  0
   18.0754  -22.8783  -11.3126 C   0  0  0  0  0  0  0  0  0  0  0  0
   19.2170  -21.9002  -11.4331 C   0  0  0  0  0  0  0  0  0  0  0  0
   20.1723  -22.3003  -12.5476 C   0  0  2  0  0  0  0  0  0  0  0  0
   21.2303  -21.2847  -12.5642 N   0  0  0  0  0  0  0  0  0  0  0  0
   19.4649  -22.3043  -13.8336 C   0  0  0  0  0  0  0  0  0  0  0  0
   18.8969  -21.1574  -14.3243 O   0  0  0  0  0  0  0  0  0  0  0  0
   19.3804  -23.3722  -14.4773 O   0  0  0  0  0  0  0  0  0  0  0  0
  2  3  1  0
  2  1  1  6
  4  5  2  0
  4  3  1  0
  6  5  1  0
  7 12  2  0
  7  6  1  0
  8  7  1  0
  9 10  1  0
  9  8  2  0
 10 11  2  0
 11 12  1  0
 12  4  1  0
 13  2  1  0
 14 13  2  0
 15 13  1  0
 16 15  1  0
 16 17  1  6
 17 18  1  0
 18 26  1  0
 18 19  2  0
 19 20  1  0
 21 22  2  0
 21 20  1  0
 23 22  1  0
 24 23  2  0
 25 24  1  0
 25 26  2  0
 26 21  1  0
 27 28  2  0
 27 16  1  0
 30 32  1  0
 30 29  1  0
 31 30  2  0
 33 32  1  0
 34 35  1  0
 34 33  1  0
 36 35  1  1
 36 38  1  0
 36 37  1  0
 37 27  1  0
 38 39  1  0
 40 38  2  0
M  END
$$$$
