WWR.pdb
     RDKit          3D

 40 43  0  0  1  0  0  0  0  0999 V2000
   24.8367  -19.2513  -10.0456 N   0  0  0  0  0  0  0  0  0  0  0  0
   26.1033  -19.9251  -10.2662 C   0  0  1  0  0  0  0  0  0  0  0  0
   26.3599  -21.1255   -9.4754 C   0  0  0  0  0  0  0  0  0  0  0  0
   26.5713  -21.0129   -8.0349 C   0  0  0  0  0  0  0  0  0  0  0  0
   25.4824  -21.1620   -7.1474 C   0  0  0  0  0  0  0  0  0  0  0  0
   25.9207  -21.0235   -5.8952 N   0  0  0  0  0  0  0  0  0  0  0  0
   27.2405  -20.7922   -5.9300 C   0  0  0  0  0  0  0  0  0  0  0  0
   28.1636  -20.5755   -4.9262 C   0  0  0  0  0  0  0  0  0  0  0  0
   29.4834  -20.3541   -5.2459 C   0  0  0  0  0  0  0  0  0  0  0  0
   29.9153  -20.3426   -6.5502 C   0  0  0  0  0  0  0  0  0  0  0  0
   29.0007  -20.5581   -7.5601 C   0  0  0  0  0  0  0  0  0  0  0  0
   27.6798  -20.7799   -7.2570 C   0  0  0  0  0  0  0  0  0  0  0  0
   26.0458  -20.2865  -11.7387 C   0  0  0  0  0  0  0  0  0  0  0  0
   24.9386  -20.6506  -12.2358 O   0  0  0  0  0  0  0  0  0  0  0  0
   27.2299  -20.2062  -12.4906 N   0  0  0  0  0  0  0  0  0  0  0  0
   27.1302  -20.2511  -13.9572 C   0  0  1  0  0  0  0  0  0  0  0  0
   28.0629  -19.2402  -14.5280 C   0  0  0  0  0  0  0  0  0  0  0  0
   27.3996  -17.9488  -14.7151 C   0  0  0  0  0  0  0  0  0  0  0  0
   26.3296  -17.4188  -13.9890 C   0  0  0  0  0  0  0  0  0  0  0  0
   26.0326  -16.2076  -14.4728 N   0  0  0  0  0  0  0  0  0  0  0  0
   26.8718  -15.9037  -15.5049 C   0  0  0  0  0  0  0  0  0  0  0  0
   26.9908  -14.8027  -16.3251 C   0  0  0  0  0  0  0  0  0  0  0  0
   27.9718  -14.7820  -17.3110 C   0  0  0  0  0  0  0  0  0  0  0  0
   28.7984  -15.8859  -17.4280 C   0  0  0  0  0  0  0  0  0  0  0  0
   28.7002  -16.9984  -16.6202 C   0  0  0  0  0  0  0  0  0  0  0  0
   27.7051  -16.9810  -15.6440 C   0  0  0  0  0  0  0  0  0  0  0  0
   27.5548  -21.6489  -14.3433 C   0  0  0  0  0  0  0  0  0  0  0  0
   28.7479  -21.9971  -14.2659 O   0  0  0  0  0  0  0  0  0  0  0  0
   22.3015  -27.3978  -17.3826 N   0  0  0  0  0  0  0  0  0  0  0  0
   23.0167  -27.6213  -16.1802 C   0  0  0  0  0  0  0  0  0  0  0  0
   23.1695  -28.7815  -15.7220 N   0  0  0  0  0  0  0  0  0  0  0  0
   23.5767  -26.5220  -15.4628 N   0  0  0  0  0  0  0  0  0  0  0  0
   23.3937  -25.1425  -15.8010 C   0  0  0  0  0  0  0  0  0  0  0  0
   24.7046  -24.4419  -16.1022 C   0  0  0  0  0  0  0  0  0  0  0  0
   25.6807  -24.7913  -15.0070 C   0  0  0  0  0  0  0  0  0  0  0  0
   26.9586  -23.9738  -15.1241 C   0  0  2  0  0  0  0  0  0  0  0  0
   26.5909  -22.5911  -14.8014 N   0  0  0  0  0  0  0  0  0  0  0  0
   27.4727  -24.0455  -16.4969 C   0  0  0  0  0  0  0  0  0  0  0  0
   28.3286  -25.0478  -16.8731 O   0  0  0  0  0  0  0  0  0  0  0  0
   27.1242  -23.1744  -17.3225 O   0  0  0  0  0  0  0  0  0  0  0  0
  2  3  1  0
  2  1  1  1
  4  5  2  0
  4  3  1  0
  6  5  1  0
  7 12  2  0
  7  6  1  0
  8  7  1  0
  9 10  1  0
  9  8  2  0
 10 11  2  0
 11 12  1  0
 12  4  1  0
 13  2  1  0
 14 13  2  0
 15 13  1  0
 16 15  1  0
 16 17  1  6
 17 18  1  0
 18 26  1  0
 18 19  2  0
 19 20  1  0
 21 22  2  0
 21 20  1  0
 23 22  1  0
 24 23  2  0
 25 24  1  0
 25 26  2  0
 26 21  1  0
 27 28  2  0
 27 16  1  0
 30 32  1  0
 30 29  1  0
 31 30  2  0
 33 32  1  0
 34 35  1  0
 34 33  1  0
 36 35  1  6
 36 38  1  0
 36 37  1  0
 37 27  1  0
 38 39  1  0
 40 38  2  0
M  END
$$$$
