WWR.pdb
     RDKit          3D

 40 43  0  0  1  0  0  0  0  0999 V2000
   26.1124  -22.5075  -11.8516 N   0  0  0  0  0  0  0  0  0  0  0  0
   25.8011  -21.3658  -11.0110 C   0  0  1  0  0  0  0  0  0  0  0  0
   26.8507  -20.3652  -10.8402 C   0  0  0  0  0  0  0  0  0  0  0  0
   28.0051  -20.6623   -9.9967 C   0  0  0  0  0  0  0  0  0  0  0  0
   29.1873  -21.1774  -10.5735 C   0  0  0  0  0  0  0  0  0  0  0  0
   30.0942  -21.3620   -9.6129 N   0  0  0  0  0  0  0  0  0  0  0  0
   29.5557  -20.9912   -8.4428 C   0  0  0  0  0  0  0  0  0  0  0  0
   30.0606  -20.9865   -7.1577 C   0  0  0  0  0  0  0  0  0  0  0  0
   29.2758  -20.5498   -6.1153 C   0  0  0  0  0  0  0  0  0  0  0  0
   27.9890  -20.1125   -6.3180 C   0  0  0  0  0  0  0  0  0  0  0  0
   27.4756  -20.1135   -7.5983 C   0  0  0  0  0  0  0  0  0  0  0  0
   28.2464  -20.5469   -8.6490 C   0  0  0  0  0  0  0  0  0  0  0  0
   24.6091  -20.7409  -11.7116 C   0  0  0  0  0  0  0  0  0  0  0  0
   24.0825  -19.7021  -11.2125 O   0  0  0  0  0  0  0  0  0  0  0  0
   24.1349  -21.3468  -12.8871 N   0  0  0  0  0  0  0  0  0  0  0  0
   22.9321  -20.7894  -13.5239 C   0  0  1  0  0  0  0  0  0  0  0  0
   23.2485  -20.4764  -14.9449 C   0  0  0  0  0  0  0  0  0  0  0  0
   24.0739  -19.2725  -15.0544 C   0  0  0  0  0  0  0  0  0  0  0  0
   25.4443  -19.1905  -15.3157 C   0  0  0  0  0  0  0  0  0  0  0  0
   25.8058  -17.9030  -15.3444 N   0  0  0  0  0  0  0  0  0  0  0  0
   24.7186  -17.1123  -15.1105 C   0  0  0  0  0  0  0  0  0  0  0  0
   24.5488  -15.7466  -15.0395 C   0  0  0  0  0  0  0  0  0  0  0  0
   23.2859  -15.2227  -14.7836 C   0  0  0  0  0  0  0  0  0  0  0  0
   22.2382  -16.1098  -14.6079 C   0  0  0  0  0  0  0  0  0  0  0  0
   22.3818  -17.4790  -14.6747 C   0  0  0  0  0  0  0  0  0  0  0  0
   23.6624  -17.9652  -14.9332 C   0  0  0  0  0  0  0  0  0  0  0  0
   21.8916  -21.8815  -13.4355 C   0  0  0  0  0  0  0  0  0  0  0  0
   22.1258  -23.0225  -13.8762 O   0  0  0  0  0  0  0  0  0  0  0  0
   17.1807  -25.6739   -8.7562 N   0  0  0  0  0  0  0  0  0  0  0  0
   17.7962  -24.5907   -8.0816 C   0  0  0  0  0  0  0  0  0  0  0  0
   18.4435  -24.7710   -7.0197 N   0  0  0  0  0  0  0  0  0  0  0  0
   17.6864  -23.2658   -8.6006 N   0  0  0  0  0  0  0  0  0  0  0  0
   17.0664  -22.9203   -9.8445 C   0  0  0  0  0  0  0  0  0  0  0  0
   17.8621  -23.4038  -11.0415 C   0  0  0  0  0  0  0  0  0  0  0  0
   18.9068  -22.3628  -11.3563 C   0  0  0  0  0  0  0  0  0  0  0  0
   19.6256  -22.6777  -12.6599 C   0  0  2  0  0  0  0  0  0  0  0  0
   20.6241  -21.6191  -12.8428 N   0  0  0  0  0  0  0  0  0  0  0  0
   18.6699  -22.6593  -13.7736 C   0  0  0  0  0  0  0  0  0  0  0  0
   18.1476  -21.4768  -14.2292 O   0  0  0  0  0  0  0  0  0  0  0  0
   18.3309  -23.7404  -14.3012 O   0  0  0  0  0  0  0  0  0  0  0  0
  2  3  1  0
  2  1  1  6
  4  5  2  0
  4  3  1  0
  6  5  1  0
  7 12  2  0
  7  6  1  0
  8  7  1  0
  9 10  1  0
  9  8  2  0
 10 11  2  0
 11 12  1  0
 12  4  1  0
 13  2  1  0
 14 13  2  0
 15 13  1  0
 16 15  1  0
 16 17  1  6
 17 18  1  0
 18 26  1  0
 18 19  2  0
 19 20  1  0
 21 22  2  0
 21 20  1  0
 23 22  1  0
 24 23  2  0
 25 24  1  0
 25 26  2  0
 26 21  1  0
 27 28  2  0
 27 16  1  0
 30 32  1  0
 30 29  1  0
 31 30  2  0
 33 32  1  0
 34 35  1  0
 34 33  1  0
 36 35  1  1
 36 38  1  0
 36 37  1  0
 37 27  1  0
 38 39  1  0
 40 38  2  0
M  END
$$$$
