WWR.pdb
     RDKit          3D

 40 43  0  0  1  0  0  0  0  0999 V2000
   21.9294  -20.4528  -11.1857 N   0  0  0  0  0  0  0  0  0  0  0  0
   22.7630  -21.0321  -12.2232 C   0  0  1  0  0  0  0  0  0  0  0  0
   22.3736  -20.7714  -13.6061 C   0  0  0  0  0  0  0  0  0  0  0  0
   21.0395  -21.1466  -14.0665 C   0  0  0  0  0  0  0  0  0  0  0  0
   20.0473  -20.1559  -14.2387 C   0  0  0  0  0  0  0  0  0  0  0  0
   18.9247  -20.7356  -14.6667 N   0  0  0  0  0  0  0  0  0  0  0  0
   19.1431  -22.0532  -14.7796 C   0  0  0  0  0  0  0  0  0  0  0  0
   18.3220  -23.0918  -15.1719 C   0  0  0  0  0  0  0  0  0  0  0  0
   18.8086  -24.3786  -15.1932 C   0  0  0  0  0  0  0  0  0  0  0  0
   20.1032  -24.6642  -14.8318 C   0  0  0  0  0  0  0  0  0  0  0  0
   20.9311  -23.6334  -14.4384 C   0  0  0  0  0  0  0  0  0  0  0  0
   20.4599  -22.3437  -14.4113 C   0  0  0  0  0  0  0  0  0  0  0  0
   24.1232  -20.4173  -11.9512 C   0  0  0  0  0  0  0  0  0  0  0  0
   24.2440  -19.1568  -11.9956 O   0  0  0  0  0  0  0  0  0  0  0  0
   25.1971  -21.2768  -11.6652 N   0  0  0  0  0  0  0  0  0  0  0  0
   26.5648  -20.7821  -11.8832 C   0  0  1  0  0  0  0  0  0  0  0  0
   27.4402  -21.3132  -10.8020 C   0  0  0  0  0  0  0  0  0  0  0  0
   27.2124  -20.6104   -9.5384 C   0  0  0  0  0  0  0  0  0  0  0  0
   26.0486  -19.9654   -9.1111 C   0  0  0  0  0  0  0  0  0  0  0  0
   26.2543  -19.4599   -7.8899 N   0  0  0  0  0  0  0  0  0  0  0  0
   27.5239  -19.7453   -7.4793 C   0  0  0  0  0  0  0  0  0  0  0  0
   28.2229  -19.4646   -6.3253 C   0  0  0  0  0  0  0  0  0  0  0  0
   29.5362  -19.9031   -6.1925 C   0  0  0  0  0  0  0  0  0  0  0  0
   30.0932  -20.6129   -7.2420 C   0  0  0  0  0  0  0  0  0  0  0  0
   29.4154  -20.9070   -8.4056 C   0  0  0  0  0  0  0  0  0  0  0  0
   28.1016  -20.4508   -8.5006 C   0  0  0  0  0  0  0  0  0  0  0  0
   26.9793  -21.3346  -13.2271 C   0  0  0  0  0  0  0  0  0  0  0  0
   26.6996  -22.5046  -13.5493 O   0  0  0  0  0  0  0  0  0  0  0  0
   21.0728  -20.0653  -16.8438 N   0  0  0  0  0  0  0  0  0  0  0  0
   22.3588  -20.4050  -17.3315 C   0  0  0  0  0  0  0  0  0  0  0  0
   22.6009  -21.5545  -17.7779 N   0  0  0  0  0  0  0  0  0  0  0  0
   23.4094  -19.4390  -17.3200 N   0  0  0  0  0  0  0  0  0  0  0  0
   24.7622  -19.6928  -17.7153 C   0  0  0  0  0  0  0  0  0  0  0  0
   25.4877  -20.6034  -16.7436 C   0  0  0  0  0  0  0  0  0  0  0  0
   26.6792  -19.8526  -16.2042 C   0  0  0  0  0  0  0  0  0  0  0  0
   27.6969  -20.8006  -15.5873 C   0  0  2  0  0  0  0  0  0  0  0  0
   27.6975  -20.5200  -14.1477 N   0  0  0  0  0  0  0  0  0  0  0  0
   29.0278  -20.5370  -16.1471 C   0  0  0  0  0  0  0  0  0  0  0  0
   29.5923  -19.2913  -16.0553 O   0  0  0  0  0  0  0  0  0  0  0  0
   29.6419  -21.4644  -16.7169 O   0  0  0  0  0  0  0  0  0  0  0  0
  2  3  1  0
  2  1  1  1
  4  5  2  0
  4  3  1  0
  6  5  1  0
  7 12  2  0
  7  6  1  0
  8  7  1  0
  9 10  1  0
  9  8  2  0
 10 11  2  0
 11 12  1  0
 12  4  1  0
 13  2  1  0
 14 13  2  0
 15 13  1  0
 16 15  1  0
 16 17  1  1
 17 18  1  0
 18 26  1  0
 18 19  2  0
 19 20  1  0
 21 22  2  0
 21 20  1  0
 23 22  1  0
 24 23  2  0
 25 24  1  0
 25 26  2  0
 26 21  1  0
 27 28  2  0
 27 16  1  0
 30 32  1  0
 30 29  1  0
 31 30  2  0
 33 32  1  0
 34 35  1  0
 34 33  1  0
 36 35  1  6
 36 38  1  0
 36 37  1  0
 37 27  1  0
 38 39  1  0
 40 38  2  0
M  END
$$$$
