WWR.pdb
     RDKit          3D

 40 43  0  0  1  0  0  0  0  0999 V2000
   28.0139  -20.3992  -10.0069 N   0  0  0  0  0  0  0  0  0  0  0  0
   26.7596  -20.8984   -9.4736 C   0  0  1  0  0  0  0  0  0  0  0  0
   26.2807  -20.2926   -8.2343 C   0  0  0  0  0  0  0  0  0  0  0  0
   27.2402  -19.8327   -7.2343 C   0  0  0  0  0  0  0  0  0  0  0  0
   27.9260  -18.6120   -7.4224 C   0  0  0  0  0  0  0  0  0  0  0  0
   28.7367  -18.4050   -6.3835 N   0  0  0  0  0  0  0  0  0  0  0  0
   28.6083  -19.4327   -5.5327 C   0  0  0  0  0  0  0  0  0  0  0  0
   29.2164  -19.7082   -4.3240 C   0  0  0  0  0  0  0  0  0  0  0  0
   28.8986  -20.8619   -3.6450 C   0  0  0  0  0  0  0  0  0  0  0  0
   27.9826  -21.7587   -4.1399 C   0  0  0  0  0  0  0  0  0  0  0  0
   27.3699  -21.4923   -5.3466 C   0  0  0  0  0  0  0  0  0  0  0  0
   27.6770  -20.3453   -6.0365 C   0  0  0  0  0  0  0  0  0  0  0  0
   25.7758  -20.6155  -10.5936 C   0  0  0  0  0  0  0  0  0  0  0  0
   25.2319  -19.4727  -10.6551 O   0  0  0  0  0  0  0  0  0  0  0  0
   25.5049  -21.6398  -11.5162 N   0  0  0  0  0  0  0  0  0  0  0  0
   24.7421  -21.3043  -12.7281 C   0  0  1  0  0  0  0  0  0  0  0  0
   25.5767  -21.6253  -13.9189 C   0  0  0  0  0  0  0  0  0  0  0  0
   26.5980  -20.6015  -14.1455 C   0  0  0  0  0  0  0  0  0  0  0  0
   27.9868  -20.7438  -14.0824 C   0  0  0  0  0  0  0  0  0  0  0  0
   28.5583  -19.5685  -14.3674 N   0  0  0  0  0  0  0  0  0  0  0  0
   27.5953  -18.6359  -14.6218 C   0  0  0  0  0  0  0  0  0  0  0  0
   27.6472  -17.3014  -14.9621 C   0  0  0  0  0  0  0  0  0  0  0  0
   26.4653  -16.5972  -15.1667 C   0  0  0  0  0  0  0  0  0  0  0  0
   25.2695  -17.2776  -15.0165 C   0  0  0  0  0  0  0  0  0  0  0  0
   25.1908  -18.6113  -14.6776 C   0  0  0  0  0  0  0  0  0  0  0  0
   26.3967  -19.2825  -14.4813 C   0  0  0  0  0  0  0  0  0  0  0  0
   23.5142  -22.1837  -12.6826 C   0  0  0  0  0  0  0  0  0  0  0  0
   23.6140  -23.4227  -12.7599 O   0  0  0  0  0  0  0  0  0  0  0  0
   17.5620  -23.4614   -7.7387 N   0  0  0  0  0  0  0  0  0  0  0  0
   17.4708  -24.5485   -8.6427 C   0  0  0  0  0  0  0  0  0  0  0  0
   16.6047  -25.4466   -8.4924 N   0  0  0  0  0  0  0  0  0  0  0  0
   18.3715  -24.6429   -9.7456 N   0  0  0  0  0  0  0  0  0  0  0  0
   19.4004  -23.6940  -10.0487 C   0  0  0  0  0  0  0  0  0  0  0  0
   18.9508  -22.6563  -11.0591 C   0  0  0  0  0  0  0  0  0  0  0  0
   20.1375  -21.7870  -11.3919 C   0  0  0  0  0  0  0  0  0  0  0  0
   21.0125  -22.4305  -12.4574 C   0  0  2  0  0  0  0  0  0  0  0  0
   22.2208  -21.6042  -12.5486 N   0  0  0  0  0  0  0  0  0  0  0  0
   20.3103  -22.4308  -13.7463 C   0  0  0  0  0  0  0  0  0  0  0  0
   19.5060  -23.4808  -14.1057 O   0  0  0  0  0  0  0  0  0  0  0  0
   20.4592  -21.4603  -14.5195 O   0  0  0  0  0  0  0  0  0  0  0  0
  2  3  1  0
  2  1  1  6
  4  5  2  0
  4  3  1  0
  6  5  1  0
  7 12  2  0
  7  6  1  0
  8  7  1  0
  9 10  1  0
  9  8  2  0
 10 11  2  0
 11 12  1  0
 12  4  1  0
 13  2  1  0
 14 13  2  0
 15 13  1  0
 16 15  1  0
 16 17  1  6
 17 18  1  0
 18 26  1  0
 18 19  2  0
 19 20  1  0
 21 22  2  0
 21 20  1  0
 23 22  1  0
 24 23  2  0
 25 24  1  0
 25 26  2  0
 26 21  1  0
 27 28  2  0
 27 16  1  0
 30 32  1  0
 30 29  1  0
 31 30  2  0
 33 32  1  0
 34 35  1  0
 34 33  1  0
 36 35  1  1
 36 38  1  0
 36 37  1  0
 37 27  1  0
 38 39  1  0
 40 38  2  0
M  END
$$$$
