WWR.pdb
     RDKit          3D

 40 43  0  0  1  0  0  0  0  0999 V2000
   29.1206  -20.5581  -15.7150 N   0  0  0  0  0  0  0  0  0  0  0  0
   28.0058  -19.9117  -15.0469 C   0  0  1  0  0  0  0  0  0  0  0  0
   27.1082  -19.1156  -15.8792 C   0  0  0  0  0  0  0  0  0  0  0  0
   27.5726  -17.8505  -16.4414 C   0  0  0  0  0  0  0  0  0  0  0  0
   28.0505  -17.8012  -17.7699 C   0  0  0  0  0  0  0  0  0  0  0  0
   28.4096  -16.5487  -18.0558 N   0  0  0  0  0  0  0  0  0  0  0  0
   28.1869  -15.7857  -16.9766 C   0  0  0  0  0  0  0  0  0  0  0  0
   28.3877  -14.4395  -16.7440 C   0  0  0  0  0  0  0  0  0  0  0  0
   28.0709  -13.9020  -15.5177 C   0  0  0  0  0  0  0  0  0  0  0  0
   27.5539  -14.6743  -14.5056 C   0  0  0  0  0  0  0  0  0  0  0  0
   27.3497  -16.0202  -14.7284 C   0  0  0  0  0  0  0  0  0  0  0  0
   27.6615  -16.5716  -15.9469 C   0  0  0  0  0  0  0  0  0  0  0  0
   27.2445  -21.0787  -14.4463 C   0  0  0  0  0  0  0  0  0  0  0  0
   27.1357  -22.1478  -15.1178 O   0  0  0  0  0  0  0  0  0  0  0  0
   26.6859  -20.9214  -13.1669 N   0  0  0  0  0  0  0  0  0  0  0  0
   25.8730  -22.0182  -12.6201 C   0  0  1  0  0  0  0  0  0  0  0  0
   26.3900  -22.3640  -11.2671 C   0  0  0  0  0  0  0  0  0  0  0  0
   26.2969  -21.2239  -10.3537 C   0  0  0  0  0  0  0  0  0  0  0  0
   25.2496  -20.3074  -10.2267 C   0  0  0  0  0  0  0  0  0  0  0  0
   25.5557  -19.4267   -9.2675 N   0  0  0  0  0  0  0  0  0  0  0  0
   26.7798  -19.7222   -8.7422 C   0  0  0  0  0  0  0  0  0  0  0  0
   27.5396  -19.1438   -7.7486 C   0  0  0  0  0  0  0  0  0  0  0  0
   28.7781  -19.6878   -7.4247 C   0  0  0  0  0  0  0  0  0  0  0  0
   29.2009  -20.8035   -8.1261 C   0  0  0  0  0  0  0  0  0  0  0  0
   28.4599  -21.4008   -9.1231 C   0  0  0  0  0  0  0  0  0  0  0  0
   27.2244  -20.8267   -9.4183 C   0  0  0  0  0  0  0  0  0  0  0  0
   24.4686  -21.4680  -12.5316 C   0  0  0  0  0  0  0  0  0  0  0  0
   24.2701  -20.2614  -12.2958 O   0  0  0  0  0  0  0  0  0  0  0  0
   18.4262  -24.7129   -8.9358 N   0  0  0  0  0  0  0  0  0  0  0  0
   18.7918  -25.3549  -10.1447 C   0  0  0  0  0  0  0  0  0  0  0  0
   18.7348  -26.6051  -10.2586 N   0  0  0  0  0  0  0  0  0  0  0  0
   19.2376  -24.5847  -11.2604 N   0  0  0  0  0  0  0  0  0  0  0  0
   19.0389  -23.1751  -11.4168 C   0  0  0  0  0  0  0  0  0  0  0  0
   19.6127  -22.6510  -12.7190 C   0  0  0  0  0  0  0  0  0  0  0  0
   21.0684  -23.0410  -12.7758 C   0  0  0  0  0  0  0  0  0  0  0  0
   21.9723  -21.8246  -12.6401 C   0  0  2  0  0  0  0  0  0  0  0  0
   23.3482  -22.3262  -12.7192 N   0  0  0  0  0  0  0  0  0  0  0  0
   21.7503  -21.1808  -11.3399 C   0  0  0  0  0  0  0  0  0  0  0  0
   21.0312  -20.0176  -11.2478 O   0  0  0  0  0  0  0  0  0  0  0  0
   22.2320  -21.7046  -10.3125 O   0  0  0  0  0  0  0  0  0  0  0  0
  2  3  1  0
  2  1  1  6
  4  5  2  0
  4  3  1  0
  6  5  1  0
  7 12  2  0
  7  6  1  0
  8  7  1  0
  9 10  1  0
  9  8  2  0
 10 11  2  0
 11 12  1  0
 12  4  1  0
 13  2  1  0
 14 13  2  0
 15 13  1  0
 16 15  1  0
 16 17  1  1
 17 18  1  0
 18 26  1  0
 18 19  2  0
 19 20  1  0
 21 22  2  0
 21 20  1  0
 23 22  1  0
 24 23  2  0
 25 24  1  0
 25 26  2  0
 26 21  1  0
 27 28  2  0
 27 16  1  0
 30 32  1  0
 30 29  1  0
 31 30  2  0
 33 32  1  0
 34 35  1  0
 34 33  1  0
 36 35  1  1
 36 38  1  0
 36 37  1  0
 37 27  1  0
 38 39  1  0
 40 38  2  0
M  END
$$$$
