WWR.pdb
     RDKit          3D

 40 43  0  0  1  0  0  0  0  0999 V2000
   28.0743  -21.2457  -14.5590 N   0  0  0  0  0  0  0  0  0  0  0  0
   26.7243  -20.7126  -14.5508 C   0  0  1  0  0  0  0  0  0  0  0  0
   25.8685  -21.0631  -15.6808 C   0  0  0  0  0  0  0  0  0  0  0  0
   25.2289  -20.0071  -16.4605 C   0  0  0  0  0  0  0  0  0  0  0  0
   25.6501  -19.7533  -17.7849 C   0  0  0  0  0  0  0  0  0  0  0  0
   24.9212  -18.7561  -18.2886 N   0  0  0  0  0  0  0  0  0  0  0  0
   24.0490  -18.3529  -17.3541 C   0  0  0  0  0  0  0  0  0  0  0  0
   23.0843  -17.3650  -17.3609 C   0  0  0  0  0  0  0  0  0  0  0  0
   22.3132  -17.1534  -16.2411 C   0  0  0  0  0  0  0  0  0  0  0  0
   22.4765  -17.9056  -15.1028 C   0  0  0  0  0  0  0  0  0  0  0  0
   23.4377  -18.8947  -15.0863 C   0  0  0  0  0  0  0  0  0  0  0  0
   24.2156  -19.1176  -16.1959 C   0  0  0  0  0  0  0  0  0  0  0  0
   26.1399  -21.2826  -13.2718 C   0  0  0  0  0  0  0  0  0  0  0  0
   26.1762  -22.5359  -13.0887 O   0  0  0  0  0  0  0  0  0  0  0  0
   25.5764  -20.3921  -12.3427 N   0  0  0  0  0  0  0  0  0  0  0  0
   25.0237  -20.9413  -11.0954 C   0  0  1  0  0  0  0  0  0  0  0  0
   25.5012  -20.1087   -9.9569 C   0  0  0  0  0  0  0  0  0  0  0  0
   26.8936  -20.4118   -9.6222 C   0  0  0  0  0  0  0  0  0  0  0  0
   27.8364  -21.0903  -10.3992 C   0  0  0  0  0  0  0  0  0  0  0  0
   28.9938  -21.1444   -9.7307 N   0  0  0  0  0  0  0  0  0  0  0  0
   28.8602  -20.5213   -8.5241 C   0  0  0  0  0  0  0  0  0  0  0  0
   29.7328  -20.2976   -7.4812 C   0  0  0  0  0  0  0  0  0  0  0  0
   29.2956  -19.6103   -6.3537 C   0  0  0  0  0  0  0  0  0  0  0  0
   27.9823  -19.1746   -6.3273 C   0  0  0  0  0  0  0  0  0  0  0  0
   27.0905  -19.3849   -7.3570 C   0  0  0  0  0  0  0  0  0  0  0  0
   27.5663  -20.0771   -8.4696 C   0  0  0  0  0  0  0  0  0  0  0  0
   23.5237  -20.8358  -11.2432 C   0  0  0  0  0  0  0  0  0  0  0  0
   22.9942  -19.7777  -11.6318 O   0  0  0  0  0  0  0  0  0  0  0  0
   18.2629  -23.6203   -6.7525 N   0  0  0  0  0  0  0  0  0  0  0  0
   17.7215  -24.2027   -7.9251 C   0  0  0  0  0  0  0  0  0  0  0  0
   16.4830  -24.2019   -8.1378 N   0  0  0  0  0  0  0  0  0  0  0  0
   18.5820  -24.8076   -8.8896 N   0  0  0  0  0  0  0  0  0  0  0  0
   20.0127  -24.7502   -8.8637 C   0  0  0  0  0  0  0  0  0  0  0  0
   20.5418  -23.3630   -9.1728 C   0  0  0  0  0  0  0  0  0  0  0  0
   20.7050  -23.2503  -10.6678 C   0  0  0  0  0  0  0  0  0  0  0  0
   21.2326  -21.8794  -11.0644 C   0  0  2  0  0  0  0  0  0  0  0  0
   22.6923  -21.9509  -10.9400 N   0  0  0  0  0  0  0  0  0  0  0  0
   20.7040  -20.8584  -10.1521 C   0  0  0  0  0  0  0  0  0  0  0  0
   19.4196  -20.3983  -10.2841 O   0  0  0  0  0  0  0  0  0  0  0  0
   21.4438  -20.4061   -9.2521 O   0  0  0  0  0  0  0  0  0  0  0  0
  2  3  1  0
  2  1  1  6
  4  5  2  0
  4  3  1  0
  6  5  1  0
  7 12  2  0
  7  6  1  0
  8  7  1  0
  9 10  1  0
  9  8  2  0
 10 11  2  0
 11 12  1  0
 12  4  1  0
 13  2  1  0
 14 13  2  0
 15 13  1  0
 16 15  1  0
 16 17  1  1
 17 18  1  0
 18 26  1  0
 18 19  2  0
 19 20  1  0
 21 22  2  0
 21 20  1  0
 23 22  1  0
 24 23  2  0
 25 24  1  0
 25 26  2  0
 26 21  1  0
 27 28  2  0
 27 16  1  0
 30 32  1  0
 30 29  1  0
 31 30  2  0
 33 32  1  0
 34 35  1  0
 34 33  1  0
 36 35  1  1
 36 38  1  0
 36 37  1  0
 37 27  1  0
 38 39  1  0
 40 38  2  0
M  END
$$$$
