WWR.pdb
     RDKit          3D

 40 43  0  0  1  0  0  0  0  0999 V2000
   25.9011  -15.2434  -18.5285 N   0  0  0  0  0  0  0  0  0  0  0  0
   24.9954  -15.7319  -17.5048 C   0  0  1  0  0  0  0  0  0  0  0  0
   23.6500  -16.1023  -17.9348 C   0  0  0  0  0  0  0  0  0  0  0  0
   22.5795  -16.2168  -16.9483 C   0  0  0  0  0  0  0  0  0  0  0  0
   22.0764  -15.0587  -16.3146 C   0  0  0  0  0  0  0  0  0  0  0  0
   21.1101  -15.4133  -15.4661 N   0  0  0  0  0  0  0  0  0  0  0  0
   20.9640  -16.7446  -15.5205 C   0  0  0  0  0  0  0  0  0  0  0  0
   20.1181  -17.6057  -14.8499 C   0  0  0  0  0  0  0  0  0  0  0  0
   20.1814  -18.9578  -15.0967 C   0  0  0  0  0  0  0  0  0  0  0  0
   21.0719  -19.4828  -16.0020 C   0  0  0  0  0  0  0  0  0  0  0  0
   21.9210  -18.6307  -16.6768 C   0  0  0  0  0  0  0  0  0  0  0  0
   21.8703  -17.2787  -16.4410 C   0  0  0  0  0  0  0  0  0  0  0  0
   25.7148  -16.9552  -16.9680 C   0  0  0  0  0  0  0  0  0  0  0  0
   26.4330  -17.6375  -17.7581 O   0  0  0  0  0  0  0  0  0  0  0  0
   25.5490  -17.2835  -15.6121 N   0  0  0  0  0  0  0  0  0  0  0  0
   26.3720  -18.3647  -15.0496 C   0  0  1  0  0  0  0  0  0  0  0  0
   26.6727  -18.0422  -13.6273 C   0  0  0  0  0  0  0  0  0  0  0  0
   27.4155  -19.1252  -12.9808 C   0  0  0  0  0  0  0  0  0  0  0  0
   28.6380  -19.6803  -13.3688 C   0  0  0  0  0  0  0  0  0  0  0  0
   28.9755  -20.6401  -12.5004 N   0  0  0  0  0  0  0  0  0  0  0  0
   28.0162  -20.7493  -11.5362 C   0  0  0  0  0  0  0  0  0  0  0  0
   27.8842  -21.5615  -10.4308 C   0  0  0  0  0  0  0  0  0  0  0  0
   26.7674  -21.4327   -9.6118 C   0  0  0  0  0  0  0  0  0  0  0  0
   25.8216  -20.4800   -9.9483 C   0  0  0  0  0  0  0  0  0  0  0  0
   25.9305  -19.6555  -11.0475 C   0  0  0  0  0  0  0  0  0  0  0  0
   27.0639  -19.8147  -11.8433 C   0  0  0  0  0  0  0  0  0  0  0  0
   25.5185  -19.6078  -15.1474 C   0  0  0  0  0  0  0  0  0  0  0  0
   24.2824  -19.5449  -15.0097 O   0  0  0  0  0  0  0  0  0  0  0  0
   24.4356  -27.9497  -18.1609 N   0  0  0  0  0  0  0  0  0  0  0  0
   25.4821  -27.5506  -17.2933 C   0  0  0  0  0  0  0  0  0  0  0  0
   26.0666  -28.3833  -16.5555 N   0  0  0  0  0  0  0  0  0  0  0  0
   25.8898  -26.1840  -17.2411 N   0  0  0  0  0  0  0  0  0  0  0  0
   25.1167  -25.1176  -16.6789 C   0  0  0  0  0  0  0  0  0  0  0  0
   25.7131  -24.5885  -15.3888 C   0  0  0  0  0  0  0  0  0  0  0  0
   26.3205  -23.2385  -15.6769 C   0  0  0  0  0  0  0  0  0  0  0  0
   25.3402  -22.1152  -15.3734 C   0  0  2  0  0  0  0  0  0  0  0  0
   26.1196  -20.8731  -15.4011 N   0  0  0  0  0  0  0  0  0  0  0  0
   24.7573  -22.3084  -14.0403 C   0  0  0  0  0  0  0  0  0  0  0  0
   23.4840  -22.7949  -13.8961 O   0  0  0  0  0  0  0  0  0  0  0  0
   25.4364  -22.0174  -13.0323 O   0  0  0  0  0  0  0  0  0  0  0  0
  2  3  1  0
  2  1  1  6
  4  5  2  0
  4  3  1  0
  6  5  1  0
  7 12  2  0
  7  6  1  0
  8  7  1  0
  9 10  1  0
  9  8  2  0
 10 11  2  0
 11 12  1  0
 12  4  1  0
 13  2  1  0
 14 13  2  0
 15 13  1  0
 16 15  1  0
 16 17  1  1
 17 18  1  0
 18 26  1  0
 18 19  2  0
 19 20  1  0
 21 22  2  0
 21 20  1  0
 23 22  1  0
 24 23  2  0
 25 24  1  0
 25 26  2  0
 26 21  1  0
 27 28  2  0
 27 16  1  0
 30 32  1  0
 30 29  1  0
 31 30  2  0
 33 32  1  0
 34 35  1  0
 34 33  1  0
 36 35  1  1
 36 38  1  0
 36 37  1  0
 37 27  1  0
 38 39  1  0
 40 38  2  0
M  END
$$$$
