RKE.pdb
     RDKit          3D

 30 29  0  0  1  0  0  0  0  0999 V2000
   22.0121  -21.1834   -9.6306 N   0  0  0  0  0  0  0  0  0  0  0  0
   22.7382  -21.2172   -8.3927 C   0  0  0  0  0  0  0  0  0  0  0  0
   22.1949  -21.7469   -7.3685 N   0  0  0  0  0  0  0  0  0  0  0  0
   24.0350  -20.6771   -8.2909 N   0  0  0  0  0  0  0  0  0  0  0  0
   24.6721  -20.0832   -9.4820 C   0  0  0  0  0  0  0  0  0  0  0  0
   25.7019  -21.0574   -9.9429 C   0  0  0  0  0  0  0  0  0  0  0  0
   26.5249  -20.5944  -11.0738 C   0  0  0  0  0  0  0  0  0  0  0  0
   26.1365  -21.1507  -12.3866 C   0  0  2  0  0  0  0  0  0  0  0  0
   27.1359  -22.0257  -12.9121 N   0  0  0  0  0  0  0  0  0  0  0  0
   25.8460  -20.0446  -13.3776 C   0  0  0  0  0  0  0  0  0  0  0  0
   24.9213  -19.2098  -13.1197 O   0  0  0  0  0  0  0  0  0  0  0  0
   22.6339  -21.8136   -6.4383 N   0  0  0  0  0  0  0  0  0  0  0  0
   26.6261  -20.0038  -14.5423 C   0  0  1  0  0  0  0  0  0  0  0  0
   26.3451  -19.0046  -15.5717 C   0  0  0  0  0  0  0  0  0  0  0  0
   27.4953  -18.9193  -16.5137 C   0  0  0  0  0  0  0  0  0  0  0  0
   27.3451  -17.8756  -17.5549 C   0  0  0  0  0  0  0  0  0  0  0  0
   28.5103  -17.8965  -18.5357 C   0  0  0  0  0  0  0  0  0  0  0  0
   28.4424  -16.8019  -19.5644 N   0  0  0  0  0  0  0  0  0  0  0  0
   29.6671  -16.8857  -20.3844 C   0  0  0  0  0  0  0  0  0  0  0  0
   25.0919  -19.2961  -16.2626 O   0  0  0  0  0  0  0  0  0  0  0  0
   24.8391  -20.4257  -16.7070 N   0  0  0  0  0  0  0  0  0  0  0  0
   24.0694  -18.3121  -16.4785 C   0  0  1  0  0  0  0  0  0  0  0  0
   22.8002  -18.6401  -17.1152 C   0  0  0  0  0  0  0  0  0  0  0  0
   21.8032  -17.6527  -16.5464 C   0  0  0  0  0  0  0  0  0  0  0  0
   20.4122  -17.8082  -17.0491 C   0  0  0  0  0  0  0  0  0  0  0  0
   19.4461  -16.8243  -16.5699 O   0  0  0  0  0  0  0  0  0  0  0  0
   19.7708  -15.6293  -16.4271 C   0  0  0  0  0  0  0  0  0  0  0  0
   22.9070  -18.4853  -18.5857 O   0  0  0  0  0  0  0  0  0  0  0  0
   22.1001  -19.1144  -19.3144 O   0  0  0  0  0  0  0  0  0  0  0  0
   18.1557  -17.2024  -16.2668 O   0  0  0  0  0  0  0  0  0  0  0  0
  2  1  1  0
  2  4  1  0
  3  2  2  0
  5  4  1  0
  6  5  1  0
  7  6  1  0
  8  7  1  0
  8  9  1  6
 10  8  1  0
 10 11  2  0
 12 10  1  0
 13 12  1  0
 13 14  1  6
 15 14  1  0
 16 15  1  0
 17 16  1  0
 18 17  1  0
 19 13  1  0
 20 19  2  0
 21 19  1  0
 22 23  1  6
 22 21  1  0
 23 24  1  0
 24 25  1  0
 25 26  2  0
 25 29  1  0
 27 22  1  0
 28 27  2  0
 30 27  1  0
M  END
$$$$
