RKE.pdb
     RDKit          3D

 30 29  0  0  1  0  0  0  0  0999 V2000
   25.9401  -22.6700  -11.1686 N   0  0  0  0  0  0  0  0  0  0  0  0
   26.0250  -21.3624  -10.5824 C   0  0  0  0  0  0  0  0  0  0  0  0
   26.0699  -21.2528   -9.3133 N   0  0  0  0  0  0  0  0  0  0  0  0
   26.0592  -20.2035  -11.3821 N   0  0  0  0  0  0  0  0  0  0  0  0
   25.8666  -20.3193  -12.8405 C   0  0  0  0  0  0  0  0  0  0  0  0
   27.1620  -20.7961  -13.4032 C   0  0  0  0  0  0  0  0  0  0  0  0
   27.1856  -20.9245  -14.8707 C   0  0  0  0  0  0  0  0  0  0  0  0
   27.7494  -19.7583  -15.5820 C   0  0  2  0  0  0  0  0  0  0  0  0
   28.6752  -19.0344  -14.7698 N   0  0  0  0  0  0  0  0  0  0  0  0
   26.6508  -18.8345  -16.0610 C   0  0  0  0  0  0  0  0  0  0  0  0
   26.1322  -18.0121  -15.2406 O   0  0  0  0  0  0  0  0  0  0  0  0
   26.1677  -20.3625   -8.8030 N   0  0  0  0  0  0  0  0  0  0  0  0
   26.2618  -18.9406  -17.4042 C   0  0  1  0  0  0  0  0  0  0  0  0
   25.2515  -18.0321  -17.9433 C   0  0  0  0  0  0  0  0  0  0  0  0
   25.7484  -17.4248  -19.2089 C   0  0  0  0  0  0  0  0  0  0  0  0
   26.5445  -16.1903  -19.0128 C   0  0  0  0  0  0  0  0  0  0  0  0
   27.0260  -15.6220  -20.3413 C   0  0  0  0  0  0  0  0  0  0  0  0
   27.8077  -14.3459  -20.1948 N   0  0  0  0  0  0  0  0  0  0  0  0
   28.1879  -13.8992  -21.5495 C   0  0  0  0  0  0  0  0  0  0  0  0
   23.9730  -18.7136  -18.1279 O   0  0  0  0  0  0  0  0  0  0  0  0
   23.9111  -19.9178  -18.4166 N   0  0  0  0  0  0  0  0  0  0  0  0
   22.7063  -18.0524  -17.9918 C   0  0  1  0  0  0  0  0  0  0  0  0
   21.5099  -18.7541  -17.5442 C   0  0  0  0  0  0  0  0  0  0  0  0
   21.8198  -19.2083  -16.1335 C   0  0  0  0  0  0  0  0  0  0  0  0
   20.9574  -18.6101  -15.0798 C   0  0  0  0  0  0  0  0  0  0  0  0
   21.0025  -19.2589  -13.7729 O   0  0  0  0  0  0  0  0  0  0  0  0
   20.2329  -18.9046  -12.8586 C   0  0  0  0  0  0  0  0  0  0  0  0
   20.3432  -17.8395  -17.5534 O   0  0  0  0  0  0  0  0  0  0  0  0
   19.2056  -18.3221  -17.7788 O   0  0  0  0  0  0  0  0  0  0  0  0
   21.8995  -20.2766  -13.5287 O   0  0  0  0  0  0  0  0  0  0  0  0
  2  1  1  0
  2  4  1  0
  3  2  2  0
  5  4  1  0
  6  5  1  0
  7  6  1  0
  8  7  1  0
  8  9  1  1
 10  8  1  0
 10 11  2  0
 12 10  1  0
 13 12  1  0
 13 14  1  1
 15 14  1  0
 16 15  1  0
 17 16  1  0
 18 17  1  0
 19 13  1  0
 20 19  2  0
 21 19  1  0
 22 23  1  6
 22 21  1  0
 23 24  1  0
 24 25  1  0
 25 26  2  0
 25 29  1  0
 27 22  1  0
 28 27  2  0
 30 27  1  0
M  END
$$$$
