RKE.pdb
     RDKit          3D

 30 29  0  0  1  0  0  0  0  0999 V2000
   17.7748  -17.7854  -15.9265 N   0  0  0  0  0  0  0  0  0  0  0  0
   18.5054  -18.2577  -17.0684 C   0  0  0  0  0  0  0  0  0  0  0  0
   19.1029  -17.4151  -17.8151 N   0  0  0  0  0  0  0  0  0  0  0  0
   18.5729  -19.6305  -17.3765 N   0  0  0  0  0  0  0  0  0  0  0  0
   17.7251  -20.5852  -16.6367 C   0  0  0  0  0  0  0  0  0  0  0  0
   18.5791  -21.1670  -15.5623 C   0  0  0  0  0  0  0  0  0  0  0  0
   18.1720  -22.5093  -15.1116 C   0  0  0  0  0  0  0  0  0  0  0  0
   19.2202  -23.5439  -15.2328 C   0  0  2  0  0  0  0  0  0  0  0  0
   19.4798  -23.8833  -16.5959 N   0  0  0  0  0  0  0  0  0  0  0  0
   18.8462  -24.7860  -14.4537 C   0  0  0  0  0  0  0  0  0  0  0  0
   17.7260  -25.3449  -14.6805 O   0  0  0  0  0  0  0  0  0  0  0  0
   19.6369  -17.6558  -18.6633 N   0  0  0  0  0  0  0  0  0  0  0  0
   19.7717  -25.2567  -13.5110 C   0  0  2  0  0  0  0  0  0  0  0  0
   19.4471  -26.4231  -12.6919 C   0  0  0  0  0  0  0  0  0  0  0  0
   20.6884  -26.9557  -12.0649 C   0  0  0  0  0  0  0  0  0  0  0  0
   20.4960  -28.2326  -11.3379 C   0  0  0  0  0  0  0  0  0  0  0  0
   21.8226  -28.8002  -10.8500 C   0  0  0  0  0  0  0  0  0  0  0  0
   21.6712  -30.0650  -10.0510 N   0  0  0  0  0  0  0  0  0  0  0  0
   23.0270  -30.5564   -9.7351 C   0  0  0  0  0  0  0  0  0  0  0  0
   18.4256  -26.1031  -11.6984 O   0  0  0  0  0  0  0  0  0  0  0  0
   18.3667  -24.9883  -11.1588 N   0  0  0  0  0  0  0  0  0  0  0  0
   17.4243  -27.0402  -11.2748 C   0  0  1  0  0  0  0  0  0  0  0  0
   16.3553  -26.6698  -10.3561 C   0  0  0  0  0  0  0  0  0  0  0  0
   15.5375  -25.6321  -11.0955 C   0  0  0  0  0  0  0  0  0  0  0  0
   15.4412  -24.3119  -10.4173 C   0  0  0  0  0  0  0  0  0  0  0  0
   14.6750  -23.2872  -11.1202 O   0  0  0  0  0  0  0  0  0  0  0  0
   14.0934  -23.5487  -12.1912 C   0  0  0  0  0  0  0  0  0  0  0  0
   15.5244  -27.8533  -10.0296 O   0  0  0  0  0  0  0  0  0  0  0  0
   14.5238  -27.6961   -9.2865 O   0  0  0  0  0  0  0  0  0  0  0  0
   14.5825  -22.0105  -10.6090 O   0  0  0  0  0  0  0  0  0  0  0  0
  2  1  1  0
  2  4  1  0
  3  2  2  0
  5  4  1  0
  6  5  1  0
  7  6  1  0
  8  7  1  0
  8  9  1  6
 10  8  1  0
 10 11  2  0
 12 10  1  0
 13 12  1  0
 13 14  1  6
 15 14  1  0
 16 15  1  0
 17 16  1  0
 18 17  1  0
 19 13  1  0
 20 19  2  0
 21 19  1  0
 22 23  1  1
 22 21  1  0
 23 24  1  0
 24 25  1  0
 25 26  2  0
 25 29  1  0
 27 22  1  0
 28 27  2  0
 30 27  1  0
M  END
$$$$
