RKE.pdb
     RDKit          3D

 30 29  0  0  1  0  0  0  0  0999 V2000
   16.1907  -15.0340  -15.4705 N   0  0  0  0  0  0  0  0  0  0  0  0
   17.3855  -15.6692  -15.9498 C   0  0  0  0  0  0  0  0  0  0  0  0
   17.3564  -16.9109  -16.2362 N   0  0  0  0  0  0  0  0  0  0  0  0
   18.5843  -14.9469  -16.1081 N   0  0  0  0  0  0  0  0  0  0  0  0
   18.6380  -13.5281  -15.7064 C   0  0  0  0  0  0  0  0  0  0  0  0
   19.1776  -12.7762  -16.8750 C   0  0  0  0  0  0  0  0  0  0  0  0
   18.5774  -11.4467  -17.0820 C   0  0  0  0  0  0  0  0  0  0  0  0
   18.7436  -10.5127  -15.9490 C   0  0  2  0  0  0  0  0  0  0  0  0
   18.6755  -11.1839  -14.6898 N   0  0  0  0  0  0  0  0  0  0  0  0
   17.7098   -9.4090  -16.0023 C   0  0  0  0  0  0  0  0  0  0  0  0
   17.5705   -8.7429  -17.0771 O   0  0  0  0  0  0  0  0  0  0  0  0
   18.1664  -17.4580  -16.5637 N   0  0  0  0  0  0  0  0  0  0  0  0
   16.9527   -9.1809  -14.8440 C   0  0  1  0  0  0  0  0  0  0  0  0
   15.9945   -8.0776  -14.8065 C   0  0  0  0  0  0  0  0  0  0  0  0
   14.8830   -8.4113  -13.8733 C   0  0  0  0  0  0  0  0  0  0  0  0
   13.7975   -9.2095  -14.4903 C   0  0  0  0  0  0  0  0  0  0  0  0
   12.7037   -9.5347  -13.4814 C   0  0  0  0  0  0  0  0  0  0  0  0
   11.5741  -10.3369  -14.0657 N   0  0  0  0  0  0  0  0  0  0  0  0
   10.6270  -10.6329  -12.9726 C   0  0  0  0  0  0  0  0  0  0  0  0
   16.6492   -6.8213  -14.4514 O   0  0  0  0  0  0  0  0  0  0  0  0
   17.4470   -6.7458  -13.5053 N   0  0  0  0  0  0  0  0  0  0  0  0
   16.4235   -5.5932  -15.1593 C   0  0  1  0  0  0  0  0  0  0  0  0
   17.0547   -4.3416  -14.7606 C   0  0  0  0  0  0  0  0  0  0  0  0
   17.8665   -3.9054  -15.9619 C   0  0  0  0  0  0  0  0  0  0  0  0
   18.6057   -2.6268  -15.7868 C   0  0  0  0  0  0  0  0  0  0  0  0
   19.4176   -2.1978  -16.9216 O   0  0  0  0  0  0  0  0  0  0  0  0
   19.5602   -2.9336  -17.9177 C   0  0  0  0  0  0  0  0  0  0  0  0
   16.0244   -3.3278  -14.4312 O   0  0  0  0  0  0  0  0  0  0  0  0
   14.8815   -3.4486  -14.9383 O   0  0  0  0  0  0  0  0  0  0  0  0
   20.0413   -0.9687  -16.9095 O   0  0  0  0  0  0  0  0  0  0  0  0
  2  1  1  0
  2  4  1  0
  3  2  2  0
  5  4  1  0
  6  5  1  0
  7  6  1  0
  8  7  1  0
  8  9  1  1
 10  8  1  0
 10 11  2  0
 12 10  1  0
 13 12  1  0
 13 14  1  6
 15 14  1  0
 16 15  1  0
 17 16  1  0
 18 17  1  0
 19 13  1  0
 20 19  2  0
 21 19  1  0
 22 23  1  1
 22 21  1  0
 23 24  1  0
 24 25  1  0
 25 26  2  0
 25 29  1  0
 27 22  1  0
 28 27  2  0
 30 27  1  0
M  END
$$$$
