RKE.pdb
     RDKit          3D

 30 29  0  0  1  0  0  0  0  0999 V2000
   19.6633  -24.7833   -7.8988 N   0  0  0  0  0  0  0  0  0  0  0  0
   18.3164  -24.9571   -8.3640 C   0  0  0  0  0  0  0  0  0  0  0  0
   18.1190  -25.4165   -9.5364 N   0  0  0  0  0  0  0  0  0  0  0  0
   17.2142  -24.6299   -7.5505 N   0  0  0  0  0  0  0  0  0  0  0  0
   17.4415  -24.1668   -6.1680 C   0  0  0  0  0  0  0  0  0  0  0  0
   16.5551  -24.9873   -5.2944 C   0  0  0  0  0  0  0  0  0  0  0  0
   15.1163  -24.8603   -5.5845 C   0  0  0  0  0  0  0  0  0  0  0  0
   14.3133  -24.2923   -4.4817 C   0  0  2  0  0  0  0  0  0  0  0  0
   14.3117  -22.8639   -4.5036 N   0  0  0  0  0  0  0  0  0  0  0  0
   14.8101  -24.7874   -3.1408 C   0  0  0  0  0  0  0  0  0  0  0  0
   15.3643  -23.9649   -2.3440 O   0  0  0  0  0  0  0  0  0  0  0  0
   17.1930  -25.5330   -9.9741 N   0  0  0  0  0  0  0  0  0  0  0  0
   14.6276  -26.1471   -2.8497 C   0  0  2  0  0  0  0  0  0  0  0  0
   14.9588  -26.6577   -1.5207 C   0  0  0  0  0  0  0  0  0  0  0  0
   14.3422  -28.0000   -1.3320 C   0  0  0  0  0  0  0  0  0  0  0  0
   14.5631  -28.5807    0.0133 C   0  0  0  0  0  0  0  0  0  0  0  0
   13.9481  -29.9695    0.1276 C   0  0  0  0  0  0  0  0  0  0  0  0
   14.1635  -30.6073    1.4722 N   0  0  0  0  0  0  0  0  0  0  0  0
   13.5445  -31.9469    1.4331 C   0  0  0  0  0  0  0  0  0  0  0  0
   16.4038  -26.6843   -1.3102 O   0  0  0  0  0  0  0  0  0  0  0  0
   17.1923  -26.9516   -2.2290 N   0  0  0  0  0  0  0  0  0  0  0  0
   17.0156  -26.4074   -0.0416 C   0  0  2  0  0  0  0  0  0  0  0  0
   18.4554  -26.5051    0.1623 C   0  0  0  0  0  0  0  0  0  0  0  0
   18.6903  -26.0199    1.5771 C   0  0  0  0  0  0  0  0  0  0  0  0
   19.9938  -26.4236    2.1687 C   0  0  0  0  0  0  0  0  0  0  0  0
   20.0536  -26.4466    3.6271 O   0  0  0  0  0  0  0  0  0  0  0  0
   19.0706  -26.0999    4.3108 C   0  0  0  0  0  0  0  0  0  0  0  0
   18.9023  -27.9105    0.0116 O   0  0  0  0  0  0  0  0  0  0  0  0
   19.9857  -28.1340   -0.5834 O   0  0  0  0  0  0  0  0  0  0  0  0
   21.2013  -26.8533    4.2729 O   0  0  0  0  0  0  0  0  0  0  0  0
  2  1  1  0
  2  4  1  0
  3  2  2  0
  5  4  1  0
  6  5  1  0
  7  6  1  0
  8  7  1  0
  8  9  1  1
 10  8  1  0
 10 11  2  0
 12 10  1  0
 13 12  1  0
 13 14  1  6
 15 14  1  0
 16 15  1  0
 17 16  1  0
 18 17  1  0
 19 13  1  0
 20 19  2  0
 21 19  1  0
 22 23  1  1
 22 21  1  0
 23 24  1  0
 24 25  1  0
 25 26  2  0
 25 29  1  0
 27 22  1  0
 28 27  2  0
 30 27  1  0
M  END
$$$$
