RKE.pdb
     RDKit          3D

 30 29  0  0  1  0  0  0  0  0999 V2000
   28.9816  -21.0191  -17.1177 N   0  0  0  0  0  0  0  0  0  0  0  0
   28.1332  -20.0811  -17.7966 C   0  0  0  0  0  0  0  0  0  0  0  0
   28.0566  -20.1207  -19.0683 N   0  0  0  0  0  0  0  0  0  0  0  0
   27.3873  -19.1216  -17.0846 N   0  0  0  0  0  0  0  0  0  0  0  0
   27.3796  -19.1535  -15.6094 C   0  0  0  0  0  0  0  0  0  0  0  0
   26.4148  -20.2185  -15.2129 C   0  0  0  0  0  0  0  0  0  0  0  0
   26.2222  -20.3646  -13.7596 C   0  0  0  0  0  0  0  0  0  0  0  0
   25.3520  -21.4915  -13.3638 C   0  0  2  0  0  0  0  0  0  0  0  0
   25.2035  -22.4461  -14.4161 N   0  0  0  0  0  0  0  0  0  0  0  0
   23.9927  -20.9952  -12.9213 C   0  0  0  0  0  0  0  0  0  0  0  0
   23.9231  -20.1184  -12.0022 O   0  0  0  0  0  0  0  0  0  0  0  0
   27.5088  -19.4652  -19.6452 N   0  0  0  0  0  0  0  0  0  0  0  0
   22.8699  -21.5400  -13.5611 C   0  0  2  0  0  0  0  0  0  0  0  0
   21.5310  -21.0763  -13.2015 C   0  0  0  0  0  0  0  0  0  0  0  0
   20.9619  -20.2743  -14.3198 C   0  0  0  0  0  0  0  0  0  0  0  0
   21.5224  -18.9067  -14.4265 C   0  0  0  0  0  0  0  0  0  0  0  0
   20.8398  -18.1103  -15.5309 C   0  0  0  0  0  0  0  0  0  0  0  0
   21.3653  -16.7079  -15.6657 N   0  0  0  0  0  0  0  0  0  0  0  0
   20.6419  -16.0674  -16.7819 C   0  0  0  0  0  0  0  0  0  0  0  0
   20.6661  -22.1941  -12.8336 O   0  0  0  0  0  0  0  0  0  0  0  0
   20.5579  -23.1993  -13.5514 N   0  0  0  0  0  0  0  0  0  0  0  0
   19.8846  -22.2163  -11.6298 C   0  0  1  0  0  0  0  0  0  0  0  0
   19.0414  -23.3505  -11.2741 C   0  0  0  0  0  0  0  0  0  0  0  0
   19.2498  -23.5500   -9.7877 C   0  0  0  0  0  0  0  0  0  0  0  0
   18.4469  -24.6473   -9.1851 C   0  0  0  0  0  0  0  0  0  0  0  0
   18.6278  -24.8584   -7.7520 O   0  0  0  0  0  0  0  0  0  0  0  0
   19.4135  -24.1459   -7.0970 C   0  0  0  0  0  0  0  0  0  0  0  0
   17.6200  -23.0464  -11.5654 O   0  0  0  0  0  0  0  0  0  0  0  0
   17.2435  -21.8486  -11.5262 O   0  0  0  0  0  0  0  0  0  0  0  0
   17.9307  -25.8518   -7.0986 O   0  0  0  0  0  0  0  0  0  0  0  0
  2  1  1  0
  2  4  1  0
  3  2  2  0
  5  4  1  0
  6  5  1  0
  7  6  1  0
  8  7  1  0
  8  9  1  6
 10  8  1  0
 10 11  2  0
 12 10  1  0
 13 12  1  0
 13 14  1  1
 15 14  1  0
 16 15  1  0
 17 16  1  0
 18 17  1  0
 19 13  1  0
 20 19  2  0
 21 19  1  0
 22 23  1  6
 22 21  1  0
 23 24  1  0
 24 25  1  0
 25 26  2  0
 25 29  1  0
 27 22  1  0
 28 27  2  0
 30 27  1  0
M  END
$$$$
