RKE.pdb
     RDKit          3D

 30 29  0  0  1  0  0  0  0  0999 V2000
   22.3467  -21.3465  -19.1654 N   0  0  0  0  0  0  0  0  0  0  0  0
   20.9420  -21.3849  -19.4587 C   0  0  0  0  0  0  0  0  0  0  0  0
   20.5417  -22.0026  -20.4993 N   0  0  0  0  0  0  0  0  0  0  0  0
   20.0025  -20.7541  -18.6200 N   0  0  0  0  0  0  0  0  0  0  0  0
   20.4508  -20.1461  -17.3524 C   0  0  0  0  0  0  0  0  0  0  0  0
   21.0642  -21.2420  -16.5494 C   0  0  0  0  0  0  0  0  0  0  0  0
   20.4573  -21.4469  -15.2227 C   0  0  0  0  0  0  0  0  0  0  0  0
   21.1018  -22.4964  -14.4060 C   0  0  2  0  0  0  0  0  0  0  0  0
   21.9812  -23.3117  -15.1822 N   0  0  0  0  0  0  0  0  0  0  0  0
   20.0656  -23.3612  -13.7217 C   0  0  0  0  0  0  0  0  0  0  0  0
   19.4794  -24.2709  -14.3905 O   0  0  0  0  0  0  0  0  0  0  0  0
   19.5602  -22.0577  -20.8094 N   0  0  0  0  0  0  0  0  0  0  0  0
   19.8075  -23.1050  -12.3672 C   0  0  1  0  0  0  0  0  0  0  0  0
   18.7916  -23.8828  -11.6602 C   0  0  0  0  0  0  0  0  0  0  0  0
   19.1833  -24.0369  -10.2318 C   0  0  0  0  0  0  0  0  0  0  0  0
   18.2604  -24.8859   -9.4422 C   0  0  0  0  0  0  0  0  0  0  0  0
   18.7611  -25.0751   -8.0162 C   0  0  0  0  0  0  0  0  0  0  0  0
   17.8878  -25.9816   -7.1938 N   0  0  0  0  0  0  0  0  0  0  0  0
   18.3945  -25.9497   -5.8076 C   0  0  0  0  0  0  0  0  0  0  0  0
   17.4696  -23.2790  -11.8034 O   0  0  0  0  0  0  0  0  0  0  0  0
   17.2843  -22.0653  -11.6303 N   0  0  0  0  0  0  0  0  0  0  0  0
   16.2981  -24.0321  -12.1507 C   0  0  1  0  0  0  0  0  0  0  0  0
   15.0088  -23.3949  -12.3870 C   0  0  0  0  0  0  0  0  0  0  0  0
   14.2448  -24.3589  -13.2697 C   0  0  0  0  0  0  0  0  0  0  0  0
   12.8585  -23.9367  -13.6041 C   0  0  0  0  0  0  0  0  0  0  0  0
   12.0795  -24.8774  -14.4036 O   0  0  0  0  0  0  0  0  0  0  0  0
   12.5315  -26.0057  -14.6800 C   0  0  0  0  0  0  0  0  0  0  0  0
   14.2959  -23.1849  -11.1043 O   0  0  0  0  0  0  0  0  0  0  0  0
   13.5524  -22.1788  -10.9900 O   0  0  0  0  0  0  0  0  0  0  0  0
   10.8282  -24.5317  -14.8668 O   0  0  0  0  0  0  0  0  0  0  0  0
  2  1  1  0
  2  4  1  0
  3  2  2  0
  5  4  1  0
  6  5  1  0
  7  6  1  0
  8  7  1  0
  8  9  1  6
 10  8  1  0
 10 11  2  0
 12 10  1  0
 13 12  1  0
 13 14  1  1
 15 14  1  0
 16 15  1  0
 17 16  1  0
 18 17  1  0
 19 13  1  0
 20 19  2  0
 21 19  1  0
 22 23  1  1
 22 21  1  0
 23 24  1  0
 24 25  1  0
 25 26  2  0
 25 29  1  0
 27 22  1  0
 28 27  2  0
 30 27  1  0
M  END
$$$$
