RKE.pdb
     RDKit          3D

 30 29  0  0  1  0  0  0  0  0999 V2000
   22.4238   -9.4675  -12.9023 N   0  0  0  0  0  0  0  0  0  0  0  0
   21.5960   -8.8504  -13.8996 C   0  0  0  0  0  0  0  0  0  0  0  0
   21.7202   -9.2071  -15.1170 N   0  0  0  0  0  0  0  0  0  0  0  0
   20.6531   -7.8617  -13.5574 N   0  0  0  0  0  0  0  0  0  0  0  0
   20.5222   -7.4362  -12.1505 C   0  0  0  0  0  0  0  0  0  0  0  0
   19.1646   -7.8596  -11.7035 C   0  0  0  0  0  0  0  0  0  0  0  0
   19.0444   -9.2897  -11.3705 C   0  0  0  0  0  0  0  0  0  0  0  0
   17.6743   -9.7312  -11.0363 C   0  0  2  0  0  0  0  0  0  0  0  0
   17.0817  -10.4817  -12.0977 N   0  0  0  0  0  0  0  0  0  0  0  0
   16.7960   -8.5497  -10.6865 C   0  0  0  0  0  0  0  0  0  0  0  0
   16.3443   -7.8158  -11.6224 O   0  0  0  0  0  0  0  0  0  0  0  0
   21.2049   -8.7914  -15.9071 N   0  0  0  0  0  0  0  0  0  0  0  0
   16.5265   -8.3288   -9.3281 C   0  0  1  0  0  0  0  0  0  0  0  0
   15.5978   -7.2714   -8.9329 C   0  0  0  0  0  0  0  0  0  0  0  0
   15.2305   -7.4377   -7.4993 C   0  0  0  0  0  0  0  0  0  0  0  0
   13.8903   -6.9069   -7.1554 C   0  0  0  0  0  0  0  0  0  0  0  0
   12.8007   -7.9405   -7.4093 C   0  0  0  0  0  0  0  0  0  0  0  0
   11.4136   -7.4177   -7.1573 N   0  0  0  0  0  0  0  0  0  0  0  0
   10.4637   -8.4959   -7.4955 C   0  0  0  0  0  0  0  0  0  0  0  0
   16.1557   -5.9495   -9.2055 O   0  0  0  0  0  0  0  0  0  0  0  0
   17.3683   -5.7167   -9.0916 N   0  0  0  0  0  0  0  0  0  0  0  0
   15.3558   -4.8322   -9.6204 C   0  0  1  0  0  0  0  0  0  0  0  0
   15.9448   -3.5493   -9.9826 C   0  0  0  0  0  0  0  0  0  0  0  0
   16.7243   -3.8144  -11.2533 C   0  0  0  0  0  0  0  0  0  0  0  0
   17.2831   -2.6021  -11.9090 C   0  0  0  0  0  0  0  0  0  0  0  0
   18.1414   -2.8397  -13.0656 O   0  0  0  0  0  0  0  0  0  0  0  0
   18.7120   -1.8926  -13.6412 C   0  0  0  0  0  0  0  0  0  0  0  0
   14.8816   -2.5445  -10.2228 O   0  0  0  0  0  0  0  0  0  0  0  0
   15.2099   -1.3354  -10.3146 O   0  0  0  0  0  0  0  0  0  0  0  0
   18.3351   -4.1189  -13.5409 O   0  0  0  0  0  0  0  0  0  0  0  0
  2  1  1  0
  2  4  1  0
  3  2  2  0
  5  4  1  0
  6  5  1  0
  7  6  1  0
  8  7  1  0
  8  9  1  6
 10  8  1  0
 10 11  2  0
 12 10  1  0
 13 12  1  0
 13 14  1  6
 15 14  1  0
 16 15  1  0
 17 16  1  0
 18 17  1  0
 19 13  1  0
 20 19  2  0
 21 19  1  0
 22 23  1  1
 22 21  1  0
 23 24  1  0
 24 25  1  0
 25 26  2  0
 25 29  1  0
 27 22  1  0
 28 27  2  0
 30 27  1  0
M  END
$$$$
