RKE.pdb
     RDKit          3D

 30 29  0  0  1  0  0  0  0  0999 V2000
   25.1357  -24.1214  -14.5502 N   0  0  0  0  0  0  0  0  0  0  0  0
   25.6574  -24.6080  -15.7959 C   0  0  0  0  0  0  0  0  0  0  0  0
   25.3804  -25.7968  -16.1629 N   0  0  0  0  0  0  0  0  0  0  0  0
   26.4668  -23.7978  -16.6158 N   0  0  0  0  0  0  0  0  0  0  0  0
   26.7243  -22.3974  -16.2286 C   0  0  0  0  0  0  0  0  0  0  0  0
   26.5024  -21.5717  -17.4497 C   0  0  0  0  0  0  0  0  0  0  0  0
   25.1364  -21.6377  -17.9975 C   0  0  0  0  0  0  0  0  0  0  0  0
   24.3006  -20.4528  -17.7124 C   0  0  2  0  0  0  0  0  0  0  0  0
   25.0735  -19.3645  -17.2037 N   0  0  0  0  0  0  0  0  0  0  0  0
   23.1905  -20.7952  -16.7428 C   0  0  0  0  0  0  0  0  0  0  0  0
   22.4240  -21.7772  -17.0012 O   0  0  0  0  0  0  0  0  0  0  0  0
   25.7855  -26.2678  -16.9855 N   0  0  0  0  0  0  0  0  0  0  0  0
   23.0691  -19.9966  -15.5964 C   0  0  1  0  0  0  0  0  0  0  0  0
   22.0225  -20.2834  -14.6170 C   0  0  0  0  0  0  0  0  0  0  0  0
   22.5006  -19.9233  -13.2534 C   0  0  0  0  0  0  0  0  0  0  0  0
   21.5637  -20.2979  -12.1681 C   0  0  0  0  0  0  0  0  0  0  0  0
   22.0079  -19.7266  -10.8279 C   0  0  0  0  0  0  0  0  0  0  0  0
   21.1307  -20.1470   -9.6812 N   0  0  0  0  0  0  0  0  0  0  0  0
   21.5533  -19.3791   -8.4933 C   0  0  0  0  0  0  0  0  0  0  0  0
   20.7776  -19.6006  -14.9590 O   0  0  0  0  0  0  0  0  0  0  0  0
   20.7669  -18.5684  -15.6459 N   0  0  0  0  0  0  0  0  0  0  0  0
   19.4877  -20.0639  -14.5328 C   0  0  1  0  0  0  0  0  0  0  0  0
   18.2792  -19.8136  -15.3081 C   0  0  0  0  0  0  0  0  0  0  0  0
   18.5414  -20.4337  -16.6642 C   0  0  0  0  0  0  0  0  0  0  0  0
   18.4922  -19.4831  -17.8069 C   0  0  0  0  0  0  0  0  0  0  0  0
   18.5903  -20.0772  -19.1368 O   0  0  0  0  0  0  0  0  0  0  0  0
   17.6362  -20.7166  -19.6211 C   0  0  0  0  0  0  0  0  0  0  0  0
   17.1099  -20.4532  -14.6591 O   0  0  0  0  0  0  0  0  0  0  0  0
   17.2913  -21.5113  -14.0067 O   0  0  0  0  0  0  0  0  0  0  0  0
   19.7430  -19.9400  -19.8800 O   0  0  0  0  0  0  0  0  0  0  0  0
  2  1  1  0
  2  4  1  0
  3  2  2  0
  5  4  1  0
  6  5  1  0
  7  6  1  0
  8  7  1  0
  8  9  1  1
 10  8  1  0
 10 11  2  0
 12 10  1  0
 13 12  1  0
 13 14  1  6
 15 14  1  0
 16 15  1  0
 17 16  1  0
 18 17  1  0
 19 13  1  0
 20 19  2  0
 21 19  1  0
 22 23  1  1
 22 21  1  0
 23 24  1  0
 24 25  1  0
 25 26  2  0
 25 29  1  0
 27 22  1  0
 28 27  2  0
 30 27  1  0
M  END
$$$$
