RKE.pdb
     RDKit          3D

 30 29  0  0  1  0  0  0  0  0999 V2000
   25.1781  -25.4325  -14.4386 N   0  0  0  0  0  0  0  0  0  0  0  0
   24.3929  -25.6797  -15.6146 C   0  0  0  0  0  0  0  0  0  0  0  0
   24.9070  -26.3382  -16.5772 N   0  0  0  0  0  0  0  0  0  0  0  0
   23.0699  -25.2088  -15.7226 N   0  0  0  0  0  0  0  0  0  0  0  0
   22.4168  -24.5968  -14.5494 C   0  0  0  0  0  0  0  0  0  0  0  0
   21.9190  -25.7209  -13.7063 C   0  0  0  0  0  0  0  0  0  0  0  0
   21.2246  -25.3061  -12.4750 C   0  0  0  0  0  0  0  0  0  0  0  0
   20.8479  -26.4171  -11.5763 C   0  0  2  0  0  0  0  0  0  0  0  0
   21.0647  -27.6917  -12.1837 N   0  0  0  0  0  0  0  0  0  0  0  0
   19.4047  -26.2926  -11.1386 C   0  0  0  0  0  0  0  0  0  0  0  0
   18.5185  -26.9952  -11.7213 O   0  0  0  0  0  0  0  0  0  0  0  0
   24.4232  -26.5660  -17.4585 N   0  0  0  0  0  0  0  0  0  0  0  0
   19.1234  -25.3947  -10.0987 C   0  0  1  0  0  0  0  0  0  0  0  0
   17.7530  -25.2531   -9.6102 C   0  0  0  0  0  0  0  0  0  0  0  0
   17.7670  -25.0254   -8.1386 C   0  0  0  0  0  0  0  0  0  0  0  0
   17.8447  -26.2695   -7.3372 C   0  0  0  0  0  0  0  0  0  0  0  0
   17.7563  -25.9766   -5.8452 C   0  0  0  0  0  0  0  0  0  0  0  0
   17.9553  -27.1947   -4.9864 N   0  0  0  0  0  0  0  0  0  0  0  0
   17.8972  -26.7595   -3.5769 C   0  0  0  0  0  0  0  0  0  0  0  0
   17.0456  -24.1918  -10.3218 O   0  0  0  0  0  0  0  0  0  0  0  0
   17.5485  -23.0710  -10.4894 N   0  0  0  0  0  0  0  0  0  0  0  0
   15.7318  -24.3606  -10.8748 C   0  0  1  0  0  0  0  0  0  0  0  0
   15.0675  -23.3060  -11.6301 C   0  0  0  0  0  0  0  0  0  0  0  0
   13.8455  -23.9616  -12.2378 C   0  0  0  0  0  0  0  0  0  0  0  0
   13.0153  -23.0693  -13.0900 C   0  0  0  0  0  0  0  0  0  0  0  0
   11.8067  -23.6652  -13.6513 O   0  0  0  0  0  0  0  0  0  0  0  0
   11.4783  -24.8326  -13.3625 C   0  0  0  0  0  0  0  0  0  0  0  0
   14.6712  -22.1985  -10.7280 O   0  0  0  0  0  0  0  0  0  0  0  0
   14.2727  -22.4818   -9.5709 O   0  0  0  0  0  0  0  0  0  0  0  0
   11.0071  -22.9444  -14.5120 O   0  0  0  0  0  0  0  0  0  0  0  0
  2  1  1  0
  2  4  1  0
  3  2  2  0
  5  4  1  0
  6  5  1  0
  7  6  1  0
  8  7  1  0
  8  9  1  6
 10  8  1  0
 10 11  2  0
 12 10  1  0
 13 12  1  0
 13 14  1  6
 15 14  1  0
 16 15  1  0
 17 16  1  0
 18 17  1  0
 19 13  1  0
 20 19  2  0
 21 19  1  0
 22 23  1  1
 22 21  1  0
 23 24  1  0
 24 25  1  0
 25 26  2  0
 25 29  1  0
 27 22  1  0
 28 27  2  0
 30 27  1  0
M  END
$$$$
