RKE.pdb
     RDKit          3D

 30 29  0  0  1  0  0  0  0  0999 V2000
   28.4716  -24.4594  -17.7558 N   0  0  0  0  0  0  0  0  0  0  0  0
   29.3576  -23.5544  -17.0799 C   0  0  0  0  0  0  0  0  0  0  0  0
   30.4284  -24.0078  -16.5580 N   0  0  0  0  0  0  0  0  0  0  0  0
   29.0650  -22.1800  -16.9839 N   0  0  0  0  0  0  0  0  0  0  0  0
   27.7999  -21.7467  -16.3599 C   0  0  0  0  0  0  0  0  0  0  0  0
   26.7018  -22.2457  -17.2359 C   0  0  0  0  0  0  0  0  0  0  0  0
   25.6615  -21.2499  -17.5466 C   0  0  0  0  0  0  0  0  0  0  0  0
   25.3483  -20.3208  -16.4410 C   0  0  2  0  0  0  0  0  0  0  0  0
   25.9256  -20.7474  -15.2059 N   0  0  0  0  0  0  0  0  0  0  0  0
   23.8527  -20.1548  -16.2817 C   0  0  0  0  0  0  0  0  0  0  0  0
   23.1387  -19.9549  -17.3155 O   0  0  0  0  0  0  0  0  0  0  0  0
   31.1138  -23.4416  -16.0362 N   0  0  0  0  0  0  0  0  0  0  0  0
   23.3321  -20.2323  -14.9818 C   0  0  1  0  0  0  0  0  0  0  0  0
   21.8860  -20.1870  -14.7731 C   0  0  0  0  0  0  0  0  0  0  0  0
   21.5423  -20.8759  -13.4984 C   0  0  0  0  0  0  0  0  0  0  0  0
   20.1099  -21.2353  -13.3752 C   0  0  0  0  0  0  0  0  0  0  0  0
   19.8518  -22.0732  -12.1297 C   0  0  0  0  0  0  0  0  0  0  0  0
   18.4307  -22.5517  -12.0179 N   0  0  0  0  0  0  0  0  0  0  0  0
   18.3185  -23.3230  -10.7641 C   0  0  0  0  0  0  0  0  0  0  0  0
   21.3907  -18.8134  -14.8041 O   0  0  0  0  0  0  0  0  0  0  0  0
   22.1612  -17.8421  -14.8208 N   0  0  0  0  0  0  0  0  0  0  0  0
   19.9936  -18.4848  -14.8173 C   0  0  1  0  0  0  0  0  0  0  0  0
   19.4293  -17.5370  -15.7699 C   0  0  0  0  0  0  0  0  0  0  0  0
   19.9444  -17.9791  -17.1232 C   0  0  0  0  0  0  0  0  0  0  0  0
   20.2821  -16.8715  -18.0565 C   0  0  0  0  0  0  0  0  0  0  0  0
   20.0758  -17.1464  -19.4753 O   0  0  0  0  0  0  0  0  0  0  0  0
   19.5832  -18.2285  -19.8498 C   0  0  0  0  0  0  0  0  0  0  0  0
   17.9483  -17.5901  -15.7326 O   0  0  0  0  0  0  0  0  0  0  0  0
   17.3210  -16.5635  -15.3711 O   0  0  0  0  0  0  0  0  0  0  0  0
   20.4235  -16.2109  -20.4260 O   0  0  0  0  0  0  0  0  0  0  0  0
  2  1  1  0
  2  4  1  0
  3  2  2  0
  5  4  1  0
  6  5  1  0
  7  6  1  0
  8  7  1  0
  8  9  1  1
 10  8  1  0
 10 11  2  0
 12 10  1  0
 13 12  1  0
 13 14  1  6
 15 14  1  0
 16 15  1  0
 17 16  1  0
 18 17  1  0
 19 13  1  0
 20 19  2  0
 21 19  1  0
 22 23  1  1
 22 21  1  0
 23 24  1  0
 24 25  1  0
 25 26  2  0
 25 29  1  0
 27 22  1  0
 28 27  2  0
 30 27  1  0
M  END
$$$$
