RKE.pdb
     RDKit          3D

 30 29  0  0  1  0  0  0  0  0999 V2000
   23.8213  -25.8405  -13.9452 N   0  0  0  0  0  0  0  0  0  0  0  0
   22.7514  -25.0585  -14.4973 C   0  0  0  0  0  0  0  0  0  0  0  0
   21.5712  -25.2112  -14.0408 N   0  0  0  0  0  0  0  0  0  0  0  0
   22.9827  -24.1295  -15.5304 N   0  0  0  0  0  0  0  0  0  0  0  0
   24.3682  -23.7986  -15.9154 C   0  0  0  0  0  0  0  0  0  0  0  0
   24.8453  -22.7734  -14.9442 C   0  0  0  0  0  0  0  0  0  0  0  0
   26.2004  -22.2589  -15.2081 C   0  0  0  0  0  0  0  0  0  0  0  0
   26.6940  -21.2847  -14.2127 C   0  0  2  0  0  0  0  0  0  0  0  0
   26.7544  -21.8465  -12.9007 N   0  0  0  0  0  0  0  0  0  0  0  0
   25.8338  -20.0398  -14.2021 C   0  0  0  0  0  0  0  0  0  0  0  0
   24.8820  -19.9524  -13.3625 O   0  0  0  0  0  0  0  0  0  0  0  0
   20.7475  -24.6733  -14.3485 N   0  0  0  0  0  0  0  0  0  0  0  0
   26.1410  -19.0380  -15.1342 C   0  0  2  0  0  0  0  0  0  0  0  0
   25.3941  -17.7815  -15.1251 C   0  0  0  0  0  0  0  0  0  0  0  0
   26.2700  -16.6749  -15.6003 C   0  0  0  0  0  0  0  0  0  0  0  0
   25.6073  -15.3497  -15.6234 C   0  0  0  0  0  0  0  0  0  0  0  0
   26.5159  -14.2837  -16.2219 C   0  0  0  0  0  0  0  0  0  0  0  0
   25.9442  -12.8958  -16.1334 N   0  0  0  0  0  0  0  0  0  0  0  0
   26.9738  -11.9586  -16.6243 C   0  0  0  0  0  0  0  0  0  0  0  0
   24.1702  -17.8889  -15.9147 O   0  0  0  0  0  0  0  0  0  0  0  0
   24.1616  -18.4168  -17.0366 N   0  0  0  0  0  0  0  0  0  0  0  0
   22.8998  -17.3987  -15.4607 C   0  0  1  0  0  0  0  0  0  0  0  0
   21.6837  -17.5506  -16.2494 C   0  0  0  0  0  0  0  0  0  0  0  0
   20.5471  -17.3936  -15.2616 C   0  0  0  0  0  0  0  0  0  0  0  0
   19.1867  -17.5386  -15.8448 C   0  0  0  0  0  0  0  0  0  0  0  0
   18.0727  -17.3777  -14.9152 O   0  0  0  0  0  0  0  0  0  0  0  0
   18.2732  -17.0377  -13.7328 C   0  0  0  0  0  0  0  0  0  0  0  0
   21.6145  -16.5024  -17.2954 O   0  0  0  0  0  0  0  0  0  0  0  0
   20.9163  -16.7205  -18.3167 O   0  0  0  0  0  0  0  0  0  0  0  0
   16.7776  -17.5999  -15.3316 O   0  0  0  0  0  0  0  0  0  0  0  0
  2  1  1  0
  2  4  1  0
  3  2  2  0
  5  4  1  0
  6  5  1  0
  7  6  1  0
  8  7  1  0
  8  9  1  1
 10  8  1  0
 10 11  2  0
 12 10  1  0
 13 12  1  0
 13 14  1  6
 15 14  1  0
 16 15  1  0
 17 16  1  0
 18 17  1  0
 19 13  1  0
 20 19  2  0
 21 19  1  0
 22 23  1  6
 22 21  1  0
 23 24  1  0
 24 25  1  0
 25 26  2  0
 25 29  1  0
 27 22  1  0
 28 27  2  0
 30 27  1  0
M  END
$$$$
