RKE.pdb
     RDKit          3D

 30 29  0  0  1  0  0  0  0  0999 V2000
   28.3098  -22.9431  -18.3476 N   0  0  0  0  0  0  0  0  0  0  0  0
   27.4533  -23.5882  -17.3931 C   0  0  0  0  0  0  0  0  0  0  0  0
   27.4234  -24.8616  -17.3469 N   0  0  0  0  0  0  0  0  0  0  0  0
   26.6487  -22.8413  -16.5108 N   0  0  0  0  0  0  0  0  0  0  0  0
   26.2240  -21.4795  -16.8885 C   0  0  0  0  0  0  0  0  0  0  0  0
   27.2737  -20.5512  -16.3803 C   0  0  0  0  0  0  0  0  0  0  0  0
   26.8807  -19.7661  -15.1971 C   0  0  0  0  0  0  0  0  0  0  0  0
   26.9969  -20.4876  -13.9128 C   0  0  2  0  0  0  0  0  0  0  0  0
   27.9388  -21.5591  -13.9861 N   0  0  0  0  0  0  0  0  0  0  0  0
   25.6507  -21.0135  -13.4645 C   0  0  0  0  0  0  0  0  0  0  0  0
   25.1328  -21.9965  -14.0840 O   0  0  0  0  0  0  0  0  0  0  0  0
   26.8008  -25.4136  -16.7383 N   0  0  0  0  0  0  0  0  0  0  0  0
   25.0421  -20.3756  -12.3738 C   0  0  1  0  0  0  0  0  0  0  0  0
   23.7373  -20.8325  -11.8989 C   0  0  0  0  0  0  0  0  0  0  0  0
   23.6538  -20.6606  -10.4220 C   0  0  0  0  0  0  0  0  0  0  0  0
   22.4126  -21.2038   -9.8216 C   0  0  0  0  0  0  0  0  0  0  0  0
   22.3711  -20.9644   -8.3179 C   0  0  0  0  0  0  0  0  0  0  0  0
   21.1715  -21.5777   -7.6502 N   0  0  0  0  0  0  0  0  0  0  0  0
   21.1870  -21.1576   -6.2351 C   0  0  0  0  0  0  0  0  0  0  0  0
   22.6520  -20.1440  -12.5926 O   0  0  0  0  0  0  0  0  0  0  0  0
   22.6650  -18.9168  -12.7688 N   0  0  0  0  0  0  0  0  0  0  0  0
   21.5020  -20.8241  -13.1171 C   0  0  1  0  0  0  0  0  0  0  0  0
   20.4287  -20.1159  -13.8031 C   0  0  0  0  0  0  0  0  0  0  0  0
   20.3093  -20.7879  -15.1546 C   0  0  0  0  0  0  0  0  0  0  0  0
   20.3877  -19.8675  -16.3201 C   0  0  0  0  0  0  0  0  0  0  0  0
   20.1598  -20.4731  -17.6287 O   0  0  0  0  0  0  0  0  0  0  0  0
   19.8611  -21.6791  -17.7296 C   0  0  0  0  0  0  0  0  0  0  0  0
   19.1617  -20.2419  -13.0439 O   0  0  0  0  0  0  0  0  0  0  0  0
   18.9716  -21.2808  -12.3638 O   0  0  0  0  0  0  0  0  0  0  0  0
   20.2716  -19.7185  -18.7767 O   0  0  0  0  0  0  0  0  0  0  0  0
  2  1  1  0
  2  4  1  0
  3  2  2  0
  5  4  1  0
  6  5  1  0
  7  6  1  0
  8  7  1  0
  8  9  1  6
 10  8  1  0
 10 11  2  0
 12 10  1  0
 13 12  1  0
 13 14  1  6
 15 14  1  0
 16 15  1  0
 17 16  1  0
 18 17  1  0
 19 13  1  0
 20 19  2  0
 21 19  1  0
 22 23  1  1
 22 21  1  0
 23 24  1  0
 24 25  1  0
 25 26  2  0
 25 29  1  0
 27 22  1  0
 28 27  2  0
 30 27  1  0
M  END
$$$$
