WSP.pdb
     RDKit          3D

 28 30  0  0  1  0  0  0  0  0999 V2000
   23.1739  -17.5714  -17.0113 N   0  0  0  0  0  0  0  0  0  0  0  0
   24.2528  -18.3661  -16.4688 C   0  0  1  0  0  0  0  0  0  0  0  0
   25.4904  -17.4876  -16.2604 C   0  0  0  0  0  0  0  0  0  0  0  0
   26.6782  -18.3525  -16.0483 C   0  0  0  0  0  0  0  0  0  0  0  0
   27.3648  -19.1340  -16.9839 C   0  0  0  0  0  0  0  0  0  0  0  0
   28.3548  -19.7232  -16.2993 N   0  0  0  0  0  0  0  0  0  0  0  0
   28.3224  -19.3531  -14.9957 C   0  0  0  0  0  0  0  0  0  0  0  0
   29.1090  -19.6734  -13.8953 C   0  0  0  0  0  0  0  0  0  0  0  0
   28.8285  -19.1253  -12.6515 C   0  0  0  0  0  0  0  0  0  0  0  0
   27.7849  -18.2638  -12.4642 C   0  0  0  0  0  0  0  0  0  0  0  0
   27.0104  -17.9527  -13.5631 C   0  0  0  0  0  0  0  0  0  0  0  0
   27.2756  -18.4887  -14.8063 C   0  0  0  0  0  0  0  0  0  0  0  0
   23.8009  -18.9252  -15.1707 C   0  0  0  0  0  0  0  0  0  0  0  0
   23.1841  -18.1861  -14.3290 O   0  0  0  0  0  0  0  0  0  0  0  0
   22.4685  -22.4351  -12.4123 O   0  0  0  0  0  0  0  0  0  0  0  0
   22.9241  -22.0176  -13.6523 C   0  0  0  0  0  0  0  0  0  0  0  0
   23.6998  -20.7139  -13.4245 C   0  0  2  0  0  0  0  0  0  0  0  0
   24.0154  -20.2685  -14.7912 N   0  0  0  0  0  0  0  0  0  0  0  0
   24.9887  -20.9415  -12.7354 C   0  0  0  0  0  0  0  0  0  0  0  0
   25.9235  -21.4656  -13.4579 O   0  0  0  0  0  0  0  0  0  0  0  0
   25.2598  -20.6316  -11.3771 N   0  0  0  0  0  0  0  0  0  0  0  0
   24.3455  -19.9122  -10.5135 C   0  0  0  0  0  0  0  0  0  0  0  0
   24.7131  -20.4715   -9.1565 C   0  0  0  0  0  0  0  0  0  0  0  0
   26.2414  -20.3562   -9.2438 C   0  0  0  0  0  0  0  0  0  0  0  0
   26.4431  -20.9776  -10.6382 C   0  0  1  0  0  0  0  0  0  0  0  0
   26.5194  -22.4568  -10.3626 C   0  0  0  0  0  0  0  0  0  0  0  0
   25.5237  -23.2210  -10.4864 O   0  0  0  0  0  0  0  0  0  0  0  0
   27.7170  -22.9856   -9.9630 O   0  0  0  0  0  0  0  0  0  0  0  0
  2  1  1  1
  2  3  1  0
  3  4  1  0
  4  5  2  0
  5  6  1  0
  7  6  1  0
  8  7  2  0
  9  8  1  0
 10 11  1  0
 10  9  2  0
 11 12  2  0
 12  4  1  0
 12  7  1  0
 13  2  1  0
 13 18  1  0
 14 13  2  0
 15 16  1  0
 17 16  1  6
 17 18  1  0
 19 17  1  0
 20 19  2  0
 21 19  1  0
 21 22  1  0
 23 22  1  0
 24 23  1  0
 24 25  1  0
 25 21  1  0
 25 26  1  1
 27 26  2  0
 28 26  1  0
M  END
$$$$
