WSP.pdb
     RDKit          3D

 28 30  0  0  1  0  0  0  0  0999 V2000
   24.1949  -20.2902   -9.5621 N   0  0  0  0  0  0  0  0  0  0  0  0
   25.5259  -20.4310  -10.1086 C   0  0  1  0  0  0  0  0  0  0  0  0
   26.3308  -21.4245   -9.2648 C   0  0  0  0  0  0  0  0  0  0  0  0
   26.3984  -20.9390   -7.8635 C   0  0  0  0  0  0  0  0  0  0  0  0
   25.3706  -20.8642   -6.9172 C   0  0  0  0  0  0  0  0  0  0  0  0
   25.9375  -20.3578   -5.8136 N   0  0  0  0  0  0  0  0  0  0  0  0
   27.2550  -20.1146   -6.0198 C   0  0  0  0  0  0  0  0  0  0  0  0
   28.2663  -19.6039   -5.2146 C   0  0  0  0  0  0  0  0  0  0  0  0
   29.5546  -19.4664   -5.7120 C   0  0  0  0  0  0  0  0  0  0  0  0
   29.8729  -19.8222   -6.9921 C   0  0  0  0  0  0  0  0  0  0  0  0
   28.8615  -20.3280   -7.7829 C   0  0  0  0  0  0  0  0  0  0  0  0
   27.5757  -20.4711   -7.3039 C   0  0  0  0  0  0  0  0  0  0  0  0
   25.3984  -20.9310  -11.4999 C   0  0  0  0  0  0  0  0  0  0  0  0
   24.8005  -22.0363  -11.7366 O   0  0  0  0  0  0  0  0  0  0  0  0
   24.8636  -18.6247  -14.2179 O   0  0  0  0  0  0  0  0  0  0  0  0
   24.5933  -19.9430  -14.5476 C   0  0  0  0  0  0  0  0  0  0  0  0
   25.7382  -20.7879  -13.9743 C   0  0  2  0  0  0  0  0  0  0  0  0
   25.9128  -20.2406  -12.6194 N   0  0  0  0  0  0  0  0  0  0  0  0
   27.0111  -20.5703  -14.6958 C   0  0  0  0  0  0  0  0  0  0  0  0
   27.5330  -19.3950  -14.5659 O   0  0  0  0  0  0  0  0  0  0  0  0
   27.6775  -21.5356  -15.4950 N   0  0  0  0  0  0  0  0  0  0  0  0
   27.1495  -22.8546  -15.7788 C   0  0  0  0  0  0  0  0  0  0  0  0
   27.7709  -23.1417  -17.1282 C   0  0  0  0  0  0  0  0  0  0  0  0
   29.2198  -22.7325  -16.8287 C   0  0  0  0  0  0  0  0  0  0  0  0
   28.9447  -21.3758  -16.1543 C   0  0  1  0  0  0  0  0  0  0  0  0
   28.8579  -20.4133  -17.3099 C   0  0  0  0  0  0  0  0  0  0  0  0
   27.7567  -20.0247  -17.7864 O   0  0  0  0  0  0  0  0  0  0  0  0
   30.0213  -19.9462  -17.8596 O   0  0  0  0  0  0  0  0  0  0  0  0
  2  1  1  1
  2  3  1  0
  3  4  1  0
  4  5  2  0
  5  6  1  0
  7  6  1  0
  8  7  2  0
  9  8  1  0
 10 11  1  0
 10  9  2  0
 11 12  2  0
 12  4  1  0
 12  7  1  0
 13  2  1  0
 13 18  1  0
 14 13  2  0
 15 16  1  0
 17 16  1  6
 17 18  1  0
 19 17  1  0
 20 19  2  0
 21 19  1  0
 21 22  1  0
 23 22  1  0
 24 23  1  0
 24 25  1  0
 25 21  1  0
 25 26  1  6
 27 26  2  0
 28 26  1  0
M  END
$$$$
