WSP.pdb
     RDKit          3D

 28 30  0  0  1  0  0  0  0  0999 V2000
   24.8520  -20.6817   -9.4238 N   0  0  0  0  0  0  0  0  0  0  0  0
   26.1245  -20.4061  -10.0523 C   0  0  1  0  0  0  0  0  0  0  0  0
   27.2628  -20.9289   -9.1704 C   0  0  0  0  0  0  0  0  0  0  0  0
   27.2199  -20.2443   -7.8538 C   0  0  0  0  0  0  0  0  0  0  0  0
   26.1519  -19.5618   -7.2613 C   0  0  0  0  0  0  0  0  0  0  0  0
   26.6168  -19.1254   -6.0827 N   0  0  0  0  0  0  0  0  0  0  0  0
   27.9089  -19.4969   -5.9098 C   0  0  0  0  0  0  0  0  0  0  0  0
   28.8269  -19.3007   -4.8846 C   0  0  0  0  0  0  0  0  0  0  0  0
   30.1127  -19.8124   -4.9894 C   0  0  0  0  0  0  0  0  0  0  0  0
   30.5187  -20.5174   -6.0869 C   0  0  0  0  0  0  0  0  0  0  0  0
   29.5997  -20.7063   -7.0987 C   0  0  0  0  0  0  0  0  0  0  0  0
   28.3177  -20.2043   -7.0103 C   0  0  0  0  0  0  0  0  0  0  0  0
   26.1430  -21.0929  -11.3675 C   0  0  0  0  0  0  0  0  0  0  0  0
   26.3934  -22.3448  -11.4389 O   0  0  0  0  0  0  0  0  0  0  0  0
   24.1301  -19.6294  -14.1596 O   0  0  0  0  0  0  0  0  0  0  0  0
   24.4228  -20.9704  -14.3482 C   0  0  0  0  0  0  0  0  0  0  0  0
   25.8581  -21.1858  -13.8513 C   0  0  2  0  0  0  0  0  0  0  0  0
   25.8929  -20.4298  -12.5891 N   0  0  0  0  0  0  0  0  0  0  0  0
   26.8605  -20.5730  -14.7502 C   0  0  0  0  0  0  0  0  0  0  0  0
   26.8960  -19.2810  -14.7489 O   0  0  0  0  0  0  0  0  0  0  0  0
   27.7584  -21.2861  -15.5866 N   0  0  0  0  0  0  0  0  0  0  0  0
   27.9110  -22.7268  -15.5671 C   0  0  0  0  0  0  0  0  0  0  0  0
   28.3344  -23.0022  -16.9934 C   0  0  0  0  0  0  0  0  0  0  0  0
   29.4173  -21.9249  -17.1455 C   0  0  0  0  0  0  0  0  0  0  0  0
   28.6352  -20.7259  -16.5782 C   0  0  1  0  0  0  0  0  0  0  0  0
   27.8738  -20.2009  -17.7674 C   0  0  0  0  0  0  0  0  0  0  0  0
   26.6499  -20.4452  -17.9496 O   0  0  0  0  0  0  0  0  0  0  0  0
   28.5405  -19.4303  -18.6813 O   0  0  0  0  0  0  0  0  0  0  0  0
  2  1  1  1
  2  3  1  0
  3  4  1  0
  4  5  2  0
  5  6  1  0
  7  6  1  0
  8  7  2  0
  9  8  1  0
 10 11  1  0
 10  9  2  0
 11 12  2  0
 12  4  1  0
 12  7  1  0
 13  2  1  0
 13 18  1  0
 14 13  2  0
 15 16  1  0
 17 16  1  6
 17 18  1  0
 19 17  1  0
 20 19  2  0
 21 19  1  0
 21 22  1  0
 23 22  1  0
 24 23  1  0
 24 25  1  0
 25 21  1  0
 25 26  1  6
 27 26  2  0
 28 26  1  0
M  END
$$$$
