WSP.pdb
     RDKit          3D

 28 30  0  0  1  0  0  0  0  0999 V2000
   29.1698  -20.2515  -10.5260 N   0  0  0  0  0  0  0  0  0  0  0  0
   27.9775  -21.0619  -10.4178 C   0  0  1  0  0  0  0  0  0  0  0  0
   27.4649  -21.0406   -8.9743 C   0  0  0  0  0  0  0  0  0  0  0  0
   28.6044  -21.2399   -8.0440 C   0  0  0  0  0  0  0  0  0  0  0  0
   29.7442  -22.0320   -8.2199 C   0  0  0  0  0  0  0  0  0  0  0  0
   30.4637  -21.8762   -7.1002 N   0  0  0  0  0  0  0  0  0  0  0  0
   29.8377  -21.0349   -6.2413 C   0  0  0  0  0  0  0  0  0  0  0  0
   30.1564  -20.5554   -4.9762 C   0  0  0  0  0  0  0  0  0  0  0  0
   29.2992  -19.6812   -4.3228 C   0  0  0  0  0  0  0  0  0  0  0  0
   28.1277  -19.2651   -4.8894 C   0  0  0  0  0  0  0  0  0  0  0  0
   27.8209  -19.7472   -6.1453 C   0  0  0  0  0  0  0  0  0  0  0  0
   28.6620  -20.6167   -6.8084 C   0  0  0  0  0  0  0  0  0  0  0  0
   26.9542  -20.4938  -11.3298 C   0  0  0  0  0  0  0  0  0  0  0  0
   26.5468  -19.2916  -11.1746 O   0  0  0  0  0  0  0  0  0  0  0  0
   26.7531  -21.6904  -14.8223 O   0  0  0  0  0  0  0  0  0  0  0  0
   26.1095  -20.4810  -14.6161 C   0  0  0  0  0  0  0  0  0  0  0  0
   25.3794  -20.5901  -13.2714 C   0  0  2  0  0  0  0  0  0  0  0  0
   26.3808  -21.2205  -12.3964 N   0  0  0  0  0  0  0  0  0  0  0  0
   24.2214  -21.5083  -13.3350 C   0  0  0  0  0  0  0  0  0  0  0  0
   24.5090  -22.7677  -13.3785 O   0  0  0  0  0  0  0  0  0  0  0  0
   22.8587  -21.1119  -13.3498 N   0  0  0  0  0  0  0  0  0  0  0  0
   22.4176  -19.7318  -13.3439 C   0  0  0  0  0  0  0  0  0  0  0  0
   21.0964  -19.8369  -14.0739 C   0  0  0  0  0  0  0  0  0  0  0  0
   20.4955  -21.0391  -13.3323 C   0  0  0  0  0  0  0  0  0  0  0  0
   21.7134  -21.9797  -13.3868 C   0  0  1  0  0  0  0  0  0  0  0  0
   21.5743  -22.6676  -14.7198 C   0  0  0  0  0  0  0  0  0  0  0  0
   22.2530  -22.3329  -15.7288 O   0  0  0  0  0  0  0  0  0  0  0  0
   20.6757  -23.6938  -14.8344 O   0  0  0  0  0  0  0  0  0  0  0  0
  2  1  1  1
  2  3  1  0
  3  4  1  0
  4  5  2  0
  5  6  1  0
  7  6  1  0
  8  7  2  0
  9  8  1  0
 10 11  1  0
 10  9  2  0
 11 12  2  0
 12  4  1  0
 12  7  1  0
 13  2  1  0
 13 18  1  0
 14 13  2  0
 15 16  1  0
 17 16  1  6
 17 18  1  0
 19 17  1  0
 20 19  2  0
 21 19  1  0
 21 22  1  0
 23 22  1  0
 24 23  1  0
 24 25  1  0
 25 21  1  0
 25 26  1  6
 27 26  2  0
 28 26  1  0
M  END
$$$$
