WSP.pdb
     RDKit          3D

 28 30  0  0  1  0  0  0  0  0999 V2000
   14.7158   -9.6213  -16.2529 N   0  0  0  0  0  0  0  0  0  0  0  0
   15.2938   -8.3679  -16.6829 C   0  0  1  0  0  0  0  0  0  0  0  0
   14.6323   -7.2072  -15.9331 C   0  0  0  0  0  0  0  0  0  0  0  0
   13.3053   -6.9243  -16.5354 C   0  0  0  0  0  0  0  0  0  0  0  0
   12.7373   -7.4747  -17.6894 C   0  0  0  0  0  0  0  0  0  0  0  0
   11.5353   -6.8944  -17.8076 N   0  0  0  0  0  0  0  0  0  0  0  0
   11.3248   -6.0174  -16.7957 C   0  0  0  0  0  0  0  0  0  0  0  0
   10.2650   -5.1806  -16.4661 C   0  0  0  0  0  0  0  0  0  0  0  0
   10.3348   -4.3740  -15.3389 C   0  0  0  0  0  0  0  0  0  0  0  0
   11.4308   -4.3716  -14.5232 C   0  0  0  0  0  0  0  0  0  0  0  0
   12.4772   -5.2059  -14.8596 C   0  0  0  0  0  0  0  0  0  0  0  0
   12.4237   -6.0139  -15.9765 C   0  0  0  0  0  0  0  0  0  0  0  0
   16.7462   -8.4068  -16.3816 C   0  0  0  0  0  0  0  0  0  0  0  0
   17.1664   -8.9343  -15.2952 O   0  0  0  0  0  0  0  0  0  0  0  0
   21.2081   -7.9337  -18.0605 O   0  0  0  0  0  0  0  0  0  0  0  0
   19.8492   -7.7608  -18.2679 C   0  0  0  0  0  0  0  0  0  0  0  0
   19.1580   -8.0216  -16.9234 C   0  0  2  0  0  0  0  0  0  0  0  0
   17.7295   -7.8804  -17.2479 N   0  0  0  0  0  0  0  0  0  0  0  0
   19.4777   -6.9846  -15.9182 C   0  0  0  0  0  0  0  0  0  0  0  0
   18.8216   -5.8767  -16.0305 O   0  0  0  0  0  0  0  0  0  0  0  0
   20.4258   -7.1207  -14.8708 N   0  0  0  0  0  0  0  0  0  0  0  0
   21.0290   -8.3800  -14.4842 C   0  0  0  0  0  0  0  0  0  0  0  0
   22.3649   -7.9186  -13.9440 C   0  0  0  0  0  0  0  0  0  0  0  0
   21.8881   -6.7680  -13.0467 C   0  0  0  0  0  0  0  0  0  0  0  0
   20.9490   -6.0667  -14.0454 C   0  0  1  0  0  0  0  0  0  0  0  0
   21.8655   -5.1531  -14.8167 C   0  0  0  0  0  0  0  0  0  0  0  0
   22.2425   -5.4078  -15.9931 O   0  0  0  0  0  0  0  0  0  0  0  0
   22.3024   -4.0049  -14.2131 O   0  0  0  0  0  0  0  0  0  0  0  0
  2  1  1  1
  2  3  1  0
  3  4  1  0
  4  5  2  0
  5  6  1  0
  7  6  1  0
  8  7  2  0
  9  8  1  0
 10 11  1  0
 10  9  2  0
 11 12  2  0
 12  4  1  0
 12  7  1  0
 13  2  1  0
 13 18  1  0
 14 13  2  0
 15 16  1  0
 17 16  1  6
 17 18  1  0
 19 17  1  0
 20 19  2  0
 21 19  1  0
 21 22  1  0
 23 22  1  0
 24 23  1  0
 24 25  1  0
 25 21  1  0
 25 26  1  6
 27 26  2  0
 28 26  1  0
M  END
$$$$
