WSP.pdb
     RDKit          3D

 28 30  0  0  1  0  0  0  0  0999 V2000
   24.7164  -21.0586   -9.1973 N   0  0  0  0  0  0  0  0  0  0  0  0
   26.0324  -20.4980   -9.4072 C   0  0  1  0  0  0  0  0  0  0  0  0
   27.0206  -21.1050   -8.4063 C   0  0  0  0  0  0  0  0  0  0  0  0
   26.6182  -20.7295   -7.0275 C   0  0  0  0  0  0  0  0  0  0  0  0
   25.3679  -20.8712   -6.4160 C   0  0  0  0  0  0  0  0  0  0  0  0
   25.5189  -20.3834   -5.1770 N   0  0  0  0  0  0  0  0  0  0  0  0
   26.7881  -19.9481   -4.9847 C   0  0  0  0  0  0  0  0  0  0  0  0
   27.4431  -19.3717   -3.9027 C   0  0  0  0  0  0  0  0  0  0  0  0
   28.7824  -19.0212   -4.0014 C   0  0  0  0  0  0  0  0  0  0  0  0
   29.4966  -19.2262   -5.1478 C   0  0  0  0  0  0  0  0  0  0  0  0
   28.8367  -19.7989   -6.2158 C   0  0  0  0  0  0  0  0  0  0  0  0
   27.5059  -20.1531   -6.1343 C   0  0  0  0  0  0  0  0  0  0  0  0
   26.4504  -20.8196  -10.7941 C   0  0  0  0  0  0  0  0  0  0  0  0
   27.0138  -21.9372  -11.0560 O   0  0  0  0  0  0  0  0  0  0  0  0
   24.7508  -21.0307  -14.1510 O   0  0  0  0  0  0  0  0  0  0  0  0
   25.9304  -21.5113  -13.6059 C   0  0  0  0  0  0  0  0  0  0  0  0
   26.7709  -20.2881  -13.2177 C   0  0  2  0  0  0  0  0  0  0  0  0
   26.2594  -19.9400  -11.8824 N   0  0  0  0  0  0  0  0  0  0  0  0
   26.5107  -19.1272  -14.0966 C   0  0  0  0  0  0  0  0  0  0  0  0
   25.3302  -18.6092  -14.0029 O   0  0  0  0  0  0  0  0  0  0  0  0
   27.4413  -18.5610  -15.0065 N   0  0  0  0  0  0  0  0  0  0  0  0
   28.7805  -19.0722  -15.2168 C   0  0  0  0  0  0  0  0  0  0  0  0
   29.0325  -18.6694  -16.6533 C   0  0  0  0  0  0  0  0  0  0  0  0
   28.5620  -17.2096  -16.5901 C   0  0  0  0  0  0  0  0  0  0  0  0
   27.2225  -17.4272  -15.8624 C   0  0  1  0  0  0  0  0  0  0  0  0
   26.2582  -17.7432  -16.9759 C   0  0  0  0  0  0  0  0  0  0  0  0
   25.9030  -18.9219  -17.2500 O   0  0  0  0  0  0  0  0  0  0  0  0
   25.7516  -16.7081  -17.7145 O   0  0  0  0  0  0  0  0  0  0  0  0
  2  1  1  1
  2  3  1  0
  3  4  1  0
  4  5  2  0
  5  6  1  0
  7  6  1  0
  8  7  2  0
  9  8  1  0
 10 11  1  0
 10  9  2  0
 11 12  2  0
 12  4  1  0
 12  7  1  0
 13  2  1  0
 13 18  1  0
 14 13  2  0
 15 16  1  0
 17 16  1  6
 17 18  1  0
 19 17  1  0
 20 19  2  0
 21 19  1  0
 21 22  1  0
 23 22  1  0
 24 23  1  0
 24 25  1  0
 25 21  1  0
 25 26  1  6
 27 26  2  0
 28 26  1  0
M  END
$$$$
