WSP.pdb
     RDKit          3D

 28 30  0  0  1  0  0  0  0  0999 V2000
   28.8411  -21.8311  -10.4690 N   0  0  0  0  0  0  0  0  0  0  0  0
   27.6258  -21.2126   -9.9890 C   0  0  1  0  0  0  0  0  0  0  0  0
   27.9685  -19.9774   -9.1501 C   0  0  0  0  0  0  0  0  0  0  0  0
   28.7741  -20.3893   -7.9732 C   0  0  0  0  0  0  0  0  0  0  0  0
   29.9044  -21.2130   -7.9366 C   0  0  0  0  0  0  0  0  0  0  0  0
   30.2569  -21.2785   -6.6454 N   0  0  0  0  0  0  0  0  0  0  0  0
   29.4124  -20.5446   -5.8801 C   0  0  0  0  0  0  0  0  0  0  0  0
   29.3430  -20.2890   -4.5156 C   0  0  0  0  0  0  0  0  0  0  0  0
   28.3400  -19.4762   -4.0062 C   0  0  0  0  0  0  0  0  0  0  0  0
   27.3974  -18.9055   -4.8139 C   0  0  0  0  0  0  0  0  0  0  0  0
   27.4755  -19.1658   -6.1667 C   0  0  0  0  0  0  0  0  0  0  0  0
   28.4661  -19.9714   -6.6892 C   0  0  0  0  0  0  0  0  0  0  0  0
   26.8166  -20.8184  -11.1686 C   0  0  0  0  0  0  0  0  0  0  0  0
   27.2262  -19.8956  -11.9534 O   0  0  0  0  0  0  0  0  0  0  0  0
   25.1676  -23.3611  -12.8983 O   0  0  0  0  0  0  0  0  0  0  0  0
   25.1680  -22.2114  -13.6715 C   0  0  0  0  0  0  0  0  0  0  0  0
   24.8713  -21.0403  -12.7260 C   0  0  2  0  0  0  0  0  0  0  0  0
   25.5795  -21.4178  -11.4924 N   0  0  0  0  0  0  0  0  0  0  0  0
   23.4347  -20.9432  -12.3875 C   0  0  0  0  0  0  0  0  0  0  0  0
   23.0318  -21.7179  -11.4345 O   0  0  0  0  0  0  0  0  0  0  0  0
   22.4986  -20.0827  -13.0181 N   0  0  0  0  0  0  0  0  0  0  0  0
   22.8110  -19.2432  -14.1569 C   0  0  0  0  0  0  0  0  0  0  0  0
   21.4642  -19.1528  -14.8404 C   0  0  0  0  0  0  0  0  0  0  0  0
   20.5867  -18.8301  -13.6229 C   0  0  0  0  0  0  0  0  0  0  0  0
   21.1175  -19.9082  -12.6601 C   0  0  1  0  0  0  0  0  0  0  0  0
   20.2936  -21.1240  -12.9958 C   0  0  0  0  0  0  0  0  0  0  0  0
   20.7076  -22.0304  -13.7689 O   0  0  0  0  0  0  0  0  0  0  0  0
   19.0495  -21.2441  -12.4377 O   0  0  0  0  0  0  0  0  0  0  0  0
  2  1  1  6
  2  3  1  0
  3  4  1  0
  4  5  2  0
  5  6  1  0
  7  6  1  0
  8  7  2  0
  9  8  1  0
 10 11  1  0
 10  9  2  0
 11 12  2  0
 12  4  1  0
 12  7  1  0
 13  2  1  0
 13 18  1  0
 14 13  2  0
 15 16  1  0
 17 16  1  6
 17 18  1  0
 19 17  1  0
 20 19  2  0
 21 19  1  0
 21 22  1  0
 23 22  1  0
 24 23  1  0
 24 25  1  0
 25 21  1  0
 25 26  1  6
 27 26  2  0
 28 26  1  0
M  END
$$$$
