WSP.pdb
     RDKit          3D

 28 30  0  0  1  0  0  0  0  0999 V2000
   23.9869  -20.9171   -8.9012 N   0  0  0  0  0  0  0  0  0  0  0  0
   25.2008  -20.4506   -9.5329 C   0  0  1  0  0  0  0  0  0  0  0  0
   26.4126  -21.1477   -8.9065 C   0  0  0  0  0  0  0  0  0  0  0  0
   26.4550  -20.8500   -7.4527 C   0  0  0  0  0  0  0  0  0  0  0  0
   25.4662  -21.0740   -6.4886 C   0  0  0  0  0  0  0  0  0  0  0  0
   25.9861  -20.6332   -5.3348 N   0  0  0  0  0  0  0  0  0  0  0  0
   27.2378  -20.1497   -5.5267 C   0  0  0  0  0  0  0  0  0  0  0  0
   28.1835  -19.5911   -4.6750 C   0  0  0  0  0  0  0  0  0  0  0  0
   29.4123  -19.1766   -5.1694 C   0  0  0  0  0  0  0  0  0  0  0  0
   29.7340  -19.3000   -6.4915 C   0  0  0  0  0  0  0  0  0  0  0  0
   28.7880  -19.8558   -7.3282 C   0  0  0  0  0  0  0  0  0  0  0  0
   27.5619  -20.2728   -6.8529 C   0  0  0  0  0  0  0  0  0  0  0  0
   25.1178  -20.7752  -10.9785 C   0  0  0  0  0  0  0  0  0  0  0  0
   24.9250  -21.9804  -11.3597 O   0  0  0  0  0  0  0  0  0  0  0  0
   23.9986  -19.2972  -15.3054 O   0  0  0  0  0  0  0  0  0  0  0  0
   24.1264  -19.0850  -13.9423 C   0  0  0  0  0  0  0  0  0  0  0  0
   25.0581  -20.1802  -13.4077 C   0  0  2  0  0  0  0  0  0  0  0  0
   25.2421  -19.8045  -11.9967 N   0  0  0  0  0  0  0  0  0  0  0  0
   26.3931  -20.1401  -14.0435 C   0  0  0  0  0  0  0  0  0  0  0  0
   27.0338  -19.0236  -13.9274 O   0  0  0  0  0  0  0  0  0  0  0  0
   26.9992  -21.2120  -14.7492 N   0  0  0  0  0  0  0  0  0  0  0  0
   26.4053  -22.5260  -14.8904 C   0  0  0  0  0  0  0  0  0  0  0  0
   26.9880  -22.9774  -16.2118 C   0  0  0  0  0  0  0  0  0  0  0  0
   28.4596  -22.6103  -15.9748 C   0  0  0  0  0  0  0  0  0  0  0  0
   28.2603  -21.1808  -15.4382 C   0  0  1  0  0  0  0  0  0  0  0  0
   28.1974  -20.3368  -16.6845 C   0  0  0  0  0  0  0  0  0  0  0  0
   29.2305  -19.9820  -17.3151 O   0  0  0  0  0  0  0  0  0  0  0  0
   26.9701  -19.9431  -17.1453 O   0  0  0  0  0  0  0  0  0  0  0  0
  2  1  1  1
  2  3  1  0
  3  4  1  0
  4  5  2  0
  5  6  1  0
  7  6  1  0
  8  7  2  0
  9  8  1  0
 10 11  1  0
 10  9  2  0
 11 12  2  0
 12  4  1  0
 12  7  1  0
 13  2  1  0
 13 18  1  0
 14 13  2  0
 15 16  1  0
 17 16  1  6
 17 18  1  0
 19 17  1  0
 20 19  2  0
 21 19  1  0
 21 22  1  0
 23 22  1  0
 24 23  1  0
 24 25  1  0
 25 21  1  0
 25 26  1  6
 27 26  2  0
 28 26  1  0
M  END
$$$$
