WSP.pdb
     RDKit          3D

 28 30  0  0  1  0  0  0  0  0999 V2000
   22.9398  -15.6674  -16.1838 N   0  0  0  0  0  0  0  0  0  0  0  0
   24.0211  -16.4856  -15.6822 C   0  0  1  0  0  0  0  0  0  0  0  0
   25.0571  -15.6025  -14.9796 C   0  0  0  0  0  0  0  0  0  0  0  0
   26.1449  -15.2663  -15.9322 C   0  0  0  0  0  0  0  0  0  0  0  0
   26.3051  -14.1057  -16.6970 C   0  0  0  0  0  0  0  0  0  0  0  0
   27.4362  -14.2891  -17.3917 N   0  0  0  0  0  0  0  0  0  0  0  0
   27.9862  -15.4939  -17.1029 C   0  0  0  0  0  0  0  0  0  0  0  0
   29.1313  -16.1477  -17.5426 C   0  0  0  0  0  0  0  0  0  0  0  0
   29.4473  -17.4086  -17.0564 C   0  0  0  0  0  0  0  0  0  0  0  0
   28.6573  -18.0452  -16.1416 C   0  0  0  0  0  0  0  0  0  0  0  0
   27.5229  -17.3874  -15.7119 C   0  0  0  0  0  0  0  0  0  0  0  0
   27.1944  -16.1339  -16.1851 C   0  0  0  0  0  0  0  0  0  0  0  0
   23.4487  -17.4613  -14.7220 C   0  0  0  0  0  0  0  0  0  0  0  0
   22.7763  -17.0557  -13.7127 O   0  0  0  0  0  0  0  0  0  0  0  0
   21.2860  -20.6921  -14.4727 O   0  0  0  0  0  0  0  0  0  0  0  0
   22.6433  -20.9609  -14.4014 C   0  0  0  0  0  0  0  0  0  0  0  0
   23.3007  -19.7510  -13.7249 C   0  0  2  0  0  0  0  0  0  0  0  0
   23.6038  -18.8587  -14.8553 N   0  0  0  0  0  0  0  0  0  0  0  0
   24.5906  -20.0967  -13.0889 C   0  0  0  0  0  0  0  0  0  0  0  0
   25.6085  -20.1507  -13.8836 O   0  0  0  0  0  0  0  0  0  0  0  0
   24.7799  -20.3633  -11.7078 N   0  0  0  0  0  0  0  0  0  0  0  0
   23.7213  -20.3058  -10.7202 C   0  0  0  0  0  0  0  0  0  0  0  0
   24.2089  -21.3110   -9.6999 C   0  0  0  0  0  0  0  0  0  0  0  0
   25.6673  -20.8494   -9.5708 C   0  0  0  0  0  0  0  0  0  0  0  0
   26.0108  -20.7394  -11.0678 C   0  0  1  0  0  0  0  0  0  0  0  0
   26.4326  -22.1366  -11.4413 C   0  0  0  0  0  0  0  0  0  0  0  0
   25.6403  -22.9658  -11.9661 O   0  0  0  0  0  0  0  0  0  0  0  0
   27.7257  -22.5150  -11.1995 O   0  0  0  0  0  0  0  0  0  0  0  0
  2  1  1  1
  2  3  1  0
  3  4  1  0
  4  5  2  0
  5  6  1  0
  7  6  1  0
  8  7  2  0
  9  8  1  0
 10 11  1  0
 10  9  2  0
 11 12  2  0
 12  4  1  0
 12  7  1  0
 13  2  1  0
 13 18  1  0
 14 13  2  0
 15 16  1  0
 17 16  1  6
 17 18  1  0
 19 17  1  0
 20 19  2  0
 21 19  1  0
 21 22  1  0
 23 22  1  0
 24 23  1  0
 24 25  1  0
 25 21  1  0
 25 26  1  6
 27 26  2  0
 28 26  1  0
M  END
$$$$
