WSP.pdb
     RDKit          3D

 28 30  0  0  1  0  0  0  0  0999 V2000
   22.3936  -18.9254  -13.9721 N   0  0  0  0  0  0  0  0  0  0  0  0
   23.5470  -19.5813  -13.3979 C   0  0  1  0  0  0  0  0  0  0  0  0
   23.2233  -21.0531  -13.1227 C   0  0  0  0  0  0  0  0  0  0  0  0
   22.8708  -21.2204  -11.6903 C   0  0  0  0  0  0  0  0  0  0  0  0
   21.6146  -21.4661  -11.1254 C   0  0  0  0  0  0  0  0  0  0  0  0
   21.8241  -21.5316   -9.8034 N   0  0  0  0  0  0  0  0  0  0  0  0
   23.1350  -21.3412   -9.5158 C   0  0  0  0  0  0  0  0  0  0  0  0
   23.8547  -21.3146   -8.3270 C   0  0  0  0  0  0  0  0  0  0  0  0
   25.2246  -21.0924   -8.3433 C   0  0  0  0  0  0  0  0  0  0  0  0
   25.9071  -20.8944   -9.5101 C   0  0  0  0  0  0  0  0  0  0  0  0
   25.1830  -20.9226  -10.6844 C   0  0  0  0  0  0  0  0  0  0  0  0
   23.8210  -21.1422  -10.6857 C   0  0  0  0  0  0  0  0  0  0  0  0
   24.6627  -19.4788  -14.3707 C   0  0  0  0  0  0  0  0  0  0  0  0
   24.4571  -19.0090  -15.5421 O   0  0  0  0  0  0  0  0  0  0  0  0
   28.4119  -21.1458  -14.0480 O   0  0  0  0  0  0  0  0  0  0  0  0
   28.3364  -19.7624  -14.0440 C   0  0  0  0  0  0  0  0  0  0  0  0
   27.1096  -19.3823  -14.8830 C   0  0  2  0  0  0  0  0  0  0  0  0
   25.9842  -19.8805  -14.0760 N   0  0  0  0  0  0  0  0  0  0  0  0
   27.0682  -20.1029  -16.1742 C   0  0  0  0  0  0  0  0  0  0  0  0
   26.6146  -21.3121  -16.1247 O   0  0  0  0  0  0  0  0  0  0  0  0
   27.4791  -19.5718  -17.4246 N   0  0  0  0  0  0  0  0  0  0  0  0
   27.9355  -18.2099  -17.6144 C   0  0  0  0  0  0  0  0  0  0  0  0
   28.8762  -18.3704  -18.7886 C   0  0  0  0  0  0  0  0  0  0  0  0
   27.9874  -19.2210  -19.7069 C   0  0  0  0  0  0  0  0  0  0  0  0
   27.5277  -20.2715  -18.6792 C   0  0  1  0  0  0  0  0  0  0  0  0
   28.6271  -21.3012  -18.7046 C   0  0  0  0  0  0  0  0  0  0  0  0
   29.4467  -21.4404  -17.7560 O   0  0  0  0  0  0  0  0  0  0  0  0
   28.7359  -22.1135  -19.8009 O   0  0  0  0  0  0  0  0  0  0  0  0
  2  1  1  6
  2  3  1  0
  3  4  1  0
  4  5  2  0
  5  6  1  0
  7  6  1  0
  8  7  2  0
  9  8  1  0
 10 11  1  0
 10  9  2  0
 11 12  2  0
 12  4  1  0
 12  7  1  0
 13  2  1  0
 13 18  1  0
 14 13  2  0
 15 16  1  0
 17 16  1  1
 17 18  1  0
 19 17  1  0
 20 19  2  0
 21 19  1  0
 21 22  1  0
 23 22  1  0
 24 23  1  0
 24 25  1  0
 25 21  1  0
 25 26  1  1
 27 26  2  0
 28 26  1  0
M  END
$$$$
