WSP.pdb
     RDKit          3D

 28 30  0  0  1  0  0  0  0  0999 V2000
   21.9025  -19.5721  -16.3629 N   0  0  0  0  0  0  0  0  0  0  0  0
   23.0366  -18.9515  -15.7156 C   0  0  1  0  0  0  0  0  0  0  0  0
   22.5797  -17.7048  -14.9516 C   0  0  0  0  0  0  0  0  0  0  0  0
   23.0601  -16.4907  -15.6581 C   0  0  0  0  0  0  0  0  0  0  0  0
   22.3428  -15.6285  -16.4945 C   0  0  0  0  0  0  0  0  0  0  0  0
   23.2212  -14.6934  -16.8813 N   0  0  0  0  0  0  0  0  0  0  0  0
   24.4397  -14.9248  -16.3345 C   0  0  0  0  0  0  0  0  0  0  0  0
   25.6609  -14.2661  -16.4170 C   0  0  0  0  0  0  0  0  0  0  0  0
   26.7643  -14.7489  -15.7274 C   0  0  0  0  0  0  0  0  0  0  0  0
   26.6932  -15.8724  -14.9533 C   0  0  0  0  0  0  0  0  0  0  0  0
   25.4763  -16.5186  -14.8784 C   0  0  0  0  0  0  0  0  0  0  0  0
   24.3699  -16.0519  -15.5575 C   0  0  0  0  0  0  0  0  0  0  0  0
   23.6228  -19.9384  -14.7753 C   0  0  0  0  0  0  0  0  0  0  0  0
   22.8698  -20.6009  -13.9821 O   0  0  0  0  0  0  0  0  0  0  0  0
   27.7757  -20.6292  -14.1289 O   0  0  0  0  0  0  0  0  0  0  0  0
   26.8407  -21.6335  -14.3201 C   0  0  0  0  0  0  0  0  0  0  0  0
   25.5289  -21.1443  -13.6929 C   0  0  2  0  0  0  0  0  0  0  0  0
   25.0079  -20.2030  -14.6971 N   0  0  0  0  0  0  0  0  0  0  0  0
   25.7548  -20.3716  -12.4520 C   0  0  0  0  0  0  0  0  0  0  0  0
   26.2522  -19.1895  -12.6128 O   0  0  0  0  0  0  0  0  0  0  0  0
   25.4697  -20.8262  -11.1380 N   0  0  0  0  0  0  0  0  0  0  0  0
   24.9207  -22.1324  -10.8353 C   0  0  0  0  0  0  0  0  0  0  0  0
   25.4824  -22.3799   -9.4523 C   0  0  0  0  0  0  0  0  0  0  0  0
   25.1548  -21.0278   -8.8034 C   0  0  0  0  0  0  0  0  0  0  0  0
   25.6818  -20.1015   -9.9150 C   0  0  1  0  0  0  0  0  0  0  0  0
   27.1469  -19.9576   -9.5955 C   0  0  0  0  0  0  0  0  0  0  0  0
   27.5679  -19.2149   -8.6671 O   0  0  0  0  0  0  0  0  0  0  0  0
   28.0508  -20.6618  -10.3443 O   0  0  0  0  0  0  0  0  0  0  0  0
  2  1  1  1
  2  3  1  0
  3  4  1  0
  4  5  2  0
  5  6  1  0
  7  6  1  0
  8  7  2  0
  9  8  1  0
 10 11  1  0
 10  9  2  0
 11 12  2  0
 12  4  1  0
 12  7  1  0
 13  2  1  0
 13 18  1  0
 14 13  2  0
 15 16  1  0
 17 16  1  6
 17 18  1  0
 19 17  1  0
 20 19  2  0
 21 19  1  0
 21 22  1  0
 23 22  1  0
 24 23  1  0
 24 25  1  0
 25 21  1  0
 25 26  1  1
 27 26  2  0
 28 26  1  0
M  END
$$$$
