WSP.pdb
     RDKit          3D

 28 30  0  0  1  0  0  0  0  0999 V2000
   26.4846  -22.6619  -12.8830 N   0  0  0  0  0  0  0  0  0  0  0  0
   25.6780  -21.7564  -12.0958 C   0  0  1  0  0  0  0  0  0  0  0  0
   26.4161  -20.4259  -11.9170 C   0  0  0  0  0  0  0  0  0  0  0  0
   27.6152  -20.6382  -11.0678 C   0  0  0  0  0  0  0  0  0  0  0  0
   28.9387  -20.8525  -11.4676 C   0  0  0  0  0  0  0  0  0  0  0  0
   29.6372  -20.9885  -10.3322 N   0  0  0  0  0  0  0  0  0  0  0  0
   28.8255  -20.8711   -9.2530 C   0  0  0  0  0  0  0  0  0  0  0  0
   29.0491  -20.9312   -7.8825 C   0  0  0  0  0  0  0  0  0  0  0  0
   27.9954  -20.7695   -6.9938 C   0  0  0  0  0  0  0  0  0  0  0  0
   26.7181  -20.5486   -7.4256 C   0  0  0  0  0  0  0  0  0  0  0  0
   26.5072  -20.4910   -8.7880 C   0  0  0  0  0  0  0  0  0  0  0  0
   27.5435  -20.6496   -9.6848 C   0  0  0  0  0  0  0  0  0  0  0  0
   24.4004  -21.5367  -12.8178 C   0  0  0  0  0  0  0  0  0  0  0  0
   24.3711  -21.5473  -14.0962 O   0  0  0  0  0  0  0  0  0  0  0  0
   20.9039  -20.3291  -11.0445 O   0  0  0  0  0  0  0  0  0  0  0  0
   20.8446  -21.4690  -11.8298 C   0  0  0  0  0  0  0  0  0  0  0  0
   21.9109  -21.3122  -12.9215 C   0  0  2  0  0  0  0  0  0  0  0  0
   23.1710  -21.3089  -12.1612 N   0  0  0  0  0  0  0  0  0  0  0  0
   21.8189  -20.0071  -13.6117 C   0  0  0  0  0  0  0  0  0  0  0  0
   22.1469  -18.9765  -12.9039 O   0  0  0  0  0  0  0  0  0  0  0  0
   21.4089  -19.8166  -14.9571 N   0  0  0  0  0  0  0  0  0  0  0  0
   21.0485  -20.8963  -15.8535 C   0  0  0  0  0  0  0  0  0  0  0  0
   20.0619  -20.2071  -16.7705 C   0  0  0  0  0  0  0  0  0  0  0  0
   20.8559  -18.9299  -17.0779 C   0  0  0  0  0  0  0  0  0  0  0  0
   21.2691  -18.5603  -15.6413 C   0  0  1  0  0  0  0  0  0  0  0  0
   20.0965  -17.7681  -15.1247 C   0  0  0  0  0  0  0  0  0  0  0  0
   19.1989  -18.2803  -14.4016 O   0  0  0  0  0  0  0  0  0  0  0  0
   20.0070  -16.4430  -15.4558 O   0  0  0  0  0  0  0  0  0  0  0  0
  2  1  1  6
  2  3  1  0
  3  4  1  0
  4  5  2  0
  5  6  1  0
  7  6  1  0
  8  7  2  0
  9  8  1  0
 10 11  1  0
 10  9  2  0
 11 12  2  0
 12  4  1  0
 12  7  1  0
 13  2  1  0
 13 18  1  0
 14 13  2  0
 15 16  1  0
 17 16  1  1
 17 18  1  0
 19 17  1  0
 20 19  2  0
 21 19  1  0
 21 22  1  0
 23 22  1  0
 24 23  1  0
 24 25  1  0
 25 21  1  0
 25 26  1  1
 27 26  2  0
 28 26  1  0
M  END
$$$$
