WSP.pdb
     RDKit          3D

 28 30  0  0  1  0  0  0  0  0999 V2000
   20.3278  -22.3990  -14.9333 N   0  0  0  0  0  0  0  0  0  0  0  0
   21.0663  -21.2336  -15.3652 C   0  0  1  0  0  0  0  0  0  0  0  0
   20.5624  -19.9941  -14.6191 C   0  0  0  0  0  0  0  0  0  0  0  0
   19.2491  -19.5839  -15.1766 C   0  0  0  0  0  0  0  0  0  0  0  0
   17.9683  -19.8893  -14.7036 C   0  0  0  0  0  0  0  0  0  0  0  0
   17.1218  -19.2891  -15.5515 N   0  0  0  0  0  0  0  0  0  0  0  0
   17.8018  -18.6302  -16.5214 C   0  0  0  0  0  0  0  0  0  0  0  0
   17.4035  -17.8681  -17.6135 C   0  0  0  0  0  0  0  0  0  0  0  0
   18.3510  -17.3019  -18.4546 C   0  0  0  0  0  0  0  0  0  0  0  0
   19.6906  -17.4694  -18.2446 C   0  0  0  0  0  0  0  0  0  0  0  0
   20.0752  -18.2277  -17.1578 C   0  0  0  0  0  0  0  0  0  0  0  0
   19.1461  -18.7974  -16.3119 C   0  0  0  0  0  0  0  0  0  0  0  0
   22.5005  -21.4627  -15.0611 C   0  0  0  0  0  0  0  0  0  0  0  0
   22.8842  -21.6419  -13.8545 O   0  0  0  0  0  0  0  0  0  0  0  0
   25.8122  -21.2631  -17.8109 O   0  0  0  0  0  0  0  0  0  0  0  0
   25.5516  -22.2849  -16.9122 C   0  0  0  0  0  0  0  0  0  0  0  0
   24.9199  -21.6367  -15.6736 C   0  0  2  0  0  0  0  0  0  0  0  0
   23.5049  -21.4970  -16.0533 N   0  0  0  0  0  0  0  0  0  0  0  0
   25.4384  -20.2733  -15.4283 C   0  0  0  0  0  0  0  0  0  0  0  0
   24.8487  -19.3257  -16.0803 O   0  0  0  0  0  0  0  0  0  0  0  0
   26.5055  -19.9458  -14.5517 N   0  0  0  0  0  0  0  0  0  0  0  0
   27.2215  -20.9177  -13.7504 C   0  0  0  0  0  0  0  0  0  0  0  0
   28.5807  -20.2638  -13.6307 C   0  0  0  0  0  0  0  0  0  0  0  0
   28.1421  -18.8429  -13.2497 C   0  0  0  0  0  0  0  0  0  0  0  0
   27.0563  -18.6381  -14.3222 C   0  0  1  0  0  0  0  0  0  0  0  0
   27.8242  -18.1357  -15.5169 C   0  0  0  0  0  0  0  0  0  0  0  0
   28.0740  -18.8634  -16.5164 O   0  0  0  0  0  0  0  0  0  0  0  0
   28.2651  -16.8399  -15.5120 O   0  0  0  0  0  0  0  0  0  0  0  0
  2  1  1  1
  2  3  1  0
  3  4  1  0
  4  5  2  0
  5  6  1  0
  7  6  1  0
  8  7  2  0
  9  8  1  0
 10 11  1  0
 10  9  2  0
 11 12  2  0
 12  4  1  0
 12  7  1  0
 13  2  1  0
 13 18  1  0
 14 13  2  0
 15 16  1  0
 17 16  1  6
 17 18  1  0
 19 17  1  0
 20 19  2  0
 21 19  1  0
 21 22  1  0
 23 22  1  0
 24 23  1  0
 24 25  1  0
 25 21  1  0
 25 26  1  6
 27 26  2  0
 28 26  1  0
M  END
$$$$
