WSP.pdb
     RDKit          3D

 28 30  0  0  1  0  0  0  0  0999 V2000
   25.2819  -21.0184   -8.5489 N   0  0  0  0  0  0  0  0  0  0  0  0
   26.4401  -20.3815   -9.1348 C   0  0  1  0  0  0  0  0  0  0  0  0
   27.6807  -20.6797   -8.2870 C   0  0  0  0  0  0  0  0  0  0  0  0
   27.7228  -19.7488   -7.1314 C   0  0  0  0  0  0  0  0  0  0  0  0
   27.2596  -18.4307   -7.0574 C   0  0  0  0  0  0  0  0  0  0  0  0
   27.5309  -18.0263   -5.8089 N   0  0  0  0  0  0  0  0  0  0  0  0
   28.1345  -19.0152   -5.1053 C   0  0  0  0  0  0  0  0  0  0  0  0
   28.6066  -19.1039   -3.8009 C   0  0  0  0  0  0  0  0  0  0  0  0
   29.1933  -20.2770   -3.3474 C   0  0  0  0  0  0  0  0  0  0  0  0
   29.3270  -21.3722   -4.1531 C   0  0  0  0  0  0  0  0  0  0  0  0
   28.8551  -21.2734   -5.4460 C   0  0  0  0  0  0  0  0  0  0  0  0
   28.2694  -20.1147   -5.9125 C   0  0  0  0  0  0  0  0  0  0  0  0
   26.6168  -20.9249  -10.5042 C   0  0  0  0  0  0  0  0  0  0  0  0
   27.4991  -21.8213  -10.7344 O   0  0  0  0  0  0  0  0  0  0  0  0
   24.1054  -21.2333  -13.7181 O   0  0  0  0  0  0  0  0  0  0  0  0
   25.3019  -21.8755  -13.4429 C   0  0  0  0  0  0  0  0  0  0  0  0
   26.2893  -20.7960  -12.9811 C   0  0  2  0  0  0  0  0  0  0  0  0
   25.8460  -20.5011  -11.6091 N   0  0  0  0  0  0  0  0  0  0  0  0
   26.1548  -19.5441  -13.7575 C   0  0  0  0  0  0  0  0  0  0  0  0
   25.0769  -18.8649  -13.5398 O   0  0  0  0  0  0  0  0  0  0  0  0
   27.1008  -19.0535  -14.6950 N   0  0  0  0  0  0  0  0  0  0  0  0
   28.3307  -19.7387  -15.0372 C   0  0  0  0  0  0  0  0  0  0  0  0
   28.5489  -19.2695  -16.4591 C   0  0  0  0  0  0  0  0  0  0  0  0
   28.3107  -17.7654  -16.2657 C   0  0  0  0  0  0  0  0  0  0  0  0
   27.0028  -17.8383  -15.4563 C   0  0  1  0  0  0  0  0  0  0  0  0
   25.9326  -17.9237  -16.5132 C   0  0  0  0  0  0  0  0  0  0  0  0
   25.3428  -19.0026  -16.7941 O   0  0  0  0  0  0  0  0  0  0  0  0
   25.5918  -16.7844  -17.1910 O   0  0  0  0  0  0  0  0  0  0  0  0
  2  1  1  1
  2  3  1  0
  3  4  1  0
  4  5  2  0
  5  6  1  0
  7  6  1  0
  8  7  2  0
  9  8  1  0
 10 11  1  0
 10  9  2  0
 11 12  2  0
 12  4  1  0
 12  7  1  0
 13  2  1  0
 13 18  1  0
 14 13  2  0
 15 16  1  0
 17 16  1  6
 17 18  1  0
 19 17  1  0
 20 19  2  0
 21 19  1  0
 21 22  1  0
 23 22  1  0
 24 23  1  0
 24 25  1  0
 25 21  1  0
 25 26  1  6
 27 26  2  0
 28 26  1  0
M  END
$$$$
