PYD.pdb
     RDKit          3D

 28 29  0  0  1  0  0  0  0  0999 V2000
   26.9074  -20.8718  -15.5795 N   0  0  0  0  0  0  0  0  0  0  0  0
   27.4270  -20.0696  -16.6513 C   0  0  0  0  0  0  0  0  0  0  0  0
   28.3554  -19.0598  -16.0342 C   0  0  0  0  0  0  0  0  0  0  0  0
   28.0305  -19.1140  -14.5795 C   0  0  0  0  0  0  0  0  0  0  0  0
   26.8796  -20.0335  -14.4255 C   0  0  1  0  0  0  0  0  0  0  0  0
   25.5681  -19.3586  -14.2676 C   0  0  0  0  0  0  0  0  0  0  0  0
   25.4590  -18.4636  -13.3890 O   0  0  0  0  0  0  0  0  0  0  0  0
   26.5183  -14.3598  -18.1113 O   0  0  0  0  0  0  0  0  0  0  0  0
   25.6537  -15.3409  -17.6666 C   0  0  0  0  0  0  0  0  0  0  0  0
   25.8934  -16.6710  -17.9325 C   0  0  0  0  0  0  0  0  0  0  0  0
   25.0119  -17.6337  -17.4759 C   0  0  0  0  0  0  0  0  0  0  0  0
   23.8796  -17.3209  -16.7513 C   0  0  0  0  0  0  0  0  0  0  0  0
   22.9671  -18.3608  -16.3061 C   0  0  0  0  0  0  0  0  0  0  0  0
   23.1560  -18.9195  -14.9379 C   0  0  2  0  0  0  0  0  0  0  0  0
   24.4391  -19.6519  -15.0340 N   0  0  0  0  0  0  0  0  0  0  0  0
   22.1625  -19.9353  -14.5471 C   0  0  0  0  0  0  0  0  0  0  0  0
   22.5346  -21.1251  -14.2763 O   0  0  0  0  0  0  0  0  0  0  0  0
   23.6671  -15.9862  -16.5016 C   0  0  0  0  0  0  0  0  0  0  0  0
   24.5363  -14.9977  -16.9484 C   0  0  0  0  0  0  0  0  0  0  0  0
   20.7619  -19.7245  -14.4283 N   0  0  0  0  0  0  0  0  0  0  0  0
   19.8703  -20.6540  -13.7924 C   0  0  1  0  0  0  0  0  0  0  0  0
   20.3331  -20.9937  -12.3830 C   0  0  0  0  0  0  0  0  0  0  0  0
   19.4607  -22.0128  -11.7595 C   0  0  0  0  0  0  0  0  0  0  0  0
   18.5096  -22.5261  -12.4169 O   0  0  0  0  0  0  0  0  0  0  0  0
   18.4495  -20.2625  -13.8112 C   0  0  0  0  0  0  0  0  0  0  0  0
   17.4550  -21.1354  -14.2563 O   0  0  0  0  0  0  0  0  0  0  0  0
   19.6215  -22.4591  -10.4552 O   0  0  0  0  0  0  0  0  0  0  0  0
   18.0311  -19.1373  -13.4366 O   0  0  0  0  0  0  0  0  0  0  0  0
  1  5  1  0
  2  1  1  0
  3  2  1  0
  3  4  1  0
  4  5  1  0
  5  6  1  6
  6  7  2  0
  9  8  1  0
  9 10  2  0
 11 10  1  0
 12 11  2  0
 13 12  1  0
 14 13  1  6
 14 15  1  0
 14 16  1  0
 15  6  1  0
 16 17  2  0
 16 20  1  0
 18 19  2  0
 18 12  1  0
 19  9  1  0
 20 21  1  0
 21 25  1  0
 21 22  1  1
 23 22  1  0
 24 23  2  0
 25 28  2  0
 25 26  1  0
 27 23  1  0
M  END
$$$$
