PYD.pdb
     RDKit          3D

 28 29  0  0  1  0  0  0  0  0999 V2000
   17.7733  -12.0853  -17.3921 N   0  0  0  0  0  0  0  0  0  0  0  0
   18.5727  -13.2083  -17.7946 C   0  0  0  0  0  0  0  0  0  0  0  0
   18.5860  -14.1741  -16.6416 C   0  0  0  0  0  0  0  0  0  0  0  0
   18.0786  -13.3698  -15.4925 C   0  0  0  0  0  0  0  0  0  0  0  0
   17.9104  -11.9799  -15.9760 C   0  0  1  0  0  0  0  0  0  0  0  0
   19.0092  -11.0582  -15.5970 C   0  0  0  0  0  0  0  0  0  0  0  0
   19.3405  -10.9906  -14.3843 O   0  0  0  0  0  0  0  0  0  0  0  0
   20.9904   -9.9280  -22.6105 O   0  0  0  0  0  0  0  0  0  0  0  0
   21.2201   -9.9160  -21.2485 C   0  0  0  0  0  0  0  0  0  0  0  0
   21.5882   -8.7569  -20.6016 C   0  0  0  0  0  0  0  0  0  0  0  0
   21.8125   -8.7719  -19.2372 C   0  0  0  0  0  0  0  0  0  0  0  0
   21.6829   -9.9154  -18.4752 C   0  0  0  0  0  0  0  0  0  0  0  0
   21.9468   -9.8942  -17.0462 C   0  0  0  0  0  0  0  0  0  0  0  0
   20.8663   -9.4105  -16.1416 C   0  0  2  0  0  0  0  0  0  0  0  0
   19.7051  -10.2553  -16.5021 N   0  0  0  0  0  0  0  0  0  0  0  0
   20.4275   -8.0267  -16.3946 C   0  0  0  0  0  0  0  0  0  0  0  0
   19.6947   -7.7610  -17.4044 O   0  0  0  0  0  0  0  0  0  0  0  0
   21.3146  -11.0558  -19.1480 C   0  0  0  0  0  0  0  0  0  0  0  0
   21.0830  -11.0694  -20.5186 C   0  0  0  0  0  0  0  0  0  0  0  0
   20.7436   -6.8957  -15.5939 N   0  0  0  0  0  0  0  0  0  0  0  0
   20.3011   -5.5624  -15.8933 C   0  0  1  0  0  0  0  0  0  0  0  0
   18.9865   -5.2426  -15.1964 C   0  0  0  0  0  0  0  0  0  0  0  0
   18.5585   -3.8520  -15.4634 C   0  0  0  0  0  0  0  0  0  0  0  0
   19.2650   -3.0962  -16.1915 O   0  0  0  0  0  0  0  0  0  0  0  0
   21.3040   -4.5084  -15.6575 C   0  0  0  0  0  0  0  0  0  0  0  0
   21.1341   -3.2125  -16.1485 O   0  0  0  0  0  0  0  0  0  0  0  0
   17.3925   -3.3013  -14.9503 O   0  0  0  0  0  0  0  0  0  0  0  0
   22.3671   -4.6894  -15.0105 O   0  0  0  0  0  0  0  0  0  0  0  0
  1  5  1  0
  2  1  1  0
  3  2  1  0
  3  4  1  0
  4  5  1  0
  5  6  1  6
  6  7  2  0
  9  8  1  0
  9 10  2  0
 11 10  1  0
 12 11  2  0
 13 12  1  0
 14 13  1  6
 14 15  1  0
 14 16  1  0
 15  6  1  0
 16 17  2  0
 16 20  1  0
 18 19  2  0
 18 12  1  0
 19  9  1  0
 20 21  1  0
 21 25  1  0
 21 22  1  1
 23 22  1  0
 24 23  2  0
 25 28  2  0
 25 26  1  0
 27 23  1  0
M  END
$$$$
