PYD.pdb
     RDKit          3D

 28 29  0  0  1  0  0  0  0  0999 V2000
   25.6469  -10.8379  -17.3551 N   0  0  0  0  0  0  0  0  0  0  0  0
   26.9727  -10.3138  -17.1828 C   0  0  0  0  0  0  0  0  0  0  0  0
   27.5496  -10.9711  -15.9591 C   0  0  0  0  0  0  0  0  0  0  0  0
   26.3656  -11.5778  -15.2845 C   0  0  0  0  0  0  0  0  0  0  0  0
   25.1685  -11.1608  -16.0504 C   0  0  1  0  0  0  0  0  0  0  0  0
   24.4122  -10.0357  -15.4480 C   0  0  0  0  0  0  0  0  0  0  0  0
   23.9355  -10.1874  -14.2927 O   0  0  0  0  0  0  0  0  0  0  0  0
   21.6755   -1.4623  -15.2884 O   0  0  0  0  0  0  0  0  0  0  0  0
   22.2843   -2.6967  -15.4049 C   0  0  0  0  0  0  0  0  0  0  0  0
   22.3960   -3.5375  -14.3196 C   0  0  0  0  0  0  0  0  0  0  0  0
   23.0101   -4.7682  -14.4630 C   0  0  0  0  0  0  0  0  0  0  0  0
   23.5277   -5.2049  -15.6656 C   0  0  0  0  0  0  0  0  0  0  0  0
   24.1837   -6.4976  -15.7708 C   0  0  0  0  0  0  0  0  0  0  0  0
   23.3694   -7.7188  -15.5156 C   0  0  2  0  0  0  0  0  0  0  0  0
   24.1925   -8.8116  -16.0815 N   0  0  0  0  0  0  0  0  0  0  0  0
   22.0966   -7.7739  -16.2563 C   0  0  0  0  0  0  0  0  0  0  0  0
   22.0435   -8.3400  -17.3983 O   0  0  0  0  0  0  0  0  0  0  0  0
   23.4014   -4.3447  -16.7301 C   0  0  0  0  0  0  0  0  0  0  0  0
   22.7890   -3.1022  -16.6144 C   0  0  0  0  0  0  0  0  0  0  0  0
   20.8551   -7.2415  -15.8146 N   0  0  0  0  0  0  0  0  0  0  0  0
   19.6366   -7.3378  -16.5692 C   0  0  1  0  0  0  0  0  0  0  0  0
   19.3366   -8.7775  -16.9606 C   0  0  0  0  0  0  0  0  0  0  0  0
   18.0697   -8.8782  -17.7176 C   0  0  0  0  0  0  0  0  0  0  0  0
   17.8404   -8.0944  -18.6838 O   0  0  0  0  0  0  0  0  0  0  0  0
   18.4666   -6.6970  -15.9424 C   0  0  0  0  0  0  0  0  0  0  0  0
   17.2447   -6.5906  -16.6094 O   0  0  0  0  0  0  0  0  0  0  0  0
   17.0806   -9.8079  -17.4285 O   0  0  0  0  0  0  0  0  0  0  0  0
   18.4769   -6.2068  -14.7843 O   0  0  0  0  0  0  0  0  0  0  0  0
  1  5  1  0
  2  1  1  0
  3  2  1  0
  3  4  1  0
  4  5  1  0
  5  6  1  1
  6  7  2  0
  9  8  1  0
  9 10  2  0
 11 10  1  0
 12 11  2  0
 13 12  1  0
 14 13  1  6
 14 15  1  0
 14 16  1  0
 15  6  1  0
 16 17  2  0
 16 20  1  0
 18 19  2  0
 18 12  1  0
 19  9  1  0
 20 21  1  0
 21 25  1  0
 21 22  1  1
 23 22  1  0
 24 23  2  0
 25 28  2  0
 25 26  1  0
 27 23  1  0
M  END
$$$$
