PYD.pdb
     RDKit          3D

 28 29  0  0  1  0  0  0  0  0999 V2000
   27.1337  -22.3176  -17.0044 N   0  0  0  0  0  0  0  0  0  0  0  0
   27.7648  -21.5303  -18.0263 C   0  0  0  0  0  0  0  0  0  0  0  0
   29.0658  -21.0337  -17.4578 C   0  0  0  0  0  0  0  0  0  0  0  0
   28.9334  -21.2749  -15.9918 C   0  0  0  0  0  0  0  0  0  0  0  0
   27.5587  -21.7732  -15.7561 C   0  0  1  0  0  0  0  0  0  0  0  0
   26.6104  -20.7502  -15.2511 C   0  0  0  0  0  0  0  0  0  0  0  0
   26.9238  -20.1043  -14.2169 O   0  0  0  0  0  0  0  0  0  0  0  0
   28.7122  -15.0815  -17.6892 O   0  0  0  0  0  0  0  0  0  0  0  0
   27.6488  -15.9156  -17.4041 C   0  0  0  0  0  0  0  0  0  0  0  0
   27.3547  -16.9913  -18.2127 C   0  0  0  0  0  0  0  0  0  0  0  0
   26.2843  -17.8110  -17.9051 C   0  0  0  0  0  0  0  0  0  0  0  0
   25.4789  -17.6000  -16.8043 C   0  0  0  0  0  0  0  0  0  0  0  0
   24.3508  -18.4731  -16.5261 C   0  0  0  0  0  0  0  0  0  0  0  0
   24.4562  -19.4066  -15.3698 C   0  0  2  0  0  0  0  0  0  0  0  0
   25.3852  -20.4543  -15.8506 N   0  0  0  0  0  0  0  0  0  0  0  0
   23.2094  -20.1203  -15.0415 C   0  0  0  0  0  0  0  0  0  0  0  0
   22.8600  -21.1445  -15.7171 O   0  0  0  0  0  0  0  0  0  0  0  0
   25.7968  -16.5196  -16.0165 C   0  0  0  0  0  0  0  0  0  0  0  0
   26.8667  -15.6793  -16.3021 C   0  0  0  0  0  0  0  0  0  0  0  0
   22.3071  -19.7786  -13.9979 N   0  0  0  0  0  0  0  0  0  0  0  0
   21.1112  -20.5197  -13.7081 C   0  0  1  0  0  0  0  0  0  0  0  0
   21.1070  -21.0313  -12.2748 C   0  0  0  0  0  0  0  0  0  0  0  0
   19.9066  -21.8501  -11.9976 C   0  0  0  0  0  0  0  0  0  0  0  0
   19.7704  -22.9854  -12.5389 O   0  0  0  0  0  0  0  0  0  0  0  0
   19.8546  -19.8210  -14.0323 C   0  0  0  0  0  0  0  0  0  0  0  0
   18.6870  -20.5202  -14.3438 O   0  0  0  0  0  0  0  0  0  0  0  0
   18.8835  -21.4417  -11.1534 O   0  0  0  0  0  0  0  0  0  0  0  0
   19.7382  -18.5690  -14.0535 O   0  0  0  0  0  0  0  0  0  0  0  0
  1  5  1  0
  2  1  1  0
  3  2  1  0
  3  4  1  0
  4  5  1  0
  5  6  1  6
  6  7  2  0
  9  8  1  0
  9 10  2  0
 11 10  1  0
 12 11  2  0
 13 12  1  0
 14 13  1  6
 14 15  1  0
 14 16  1  0
 15  6  1  0
 16 17  2  0
 16 20  1  0
 18 19  2  0
 18 12  1  0
 19  9  1  0
 20 21  1  0
 21 25  1  0
 21 22  1  1
 23 22  1  0
 24 23  2  0
 25 28  2  0
 25 26  1  0
 27 23  1  0
M  END
$$$$
