PYD.pdb
     RDKit          3D

 28 29  0  0  1  0  0  0  0  0999 V2000
   27.2765  -21.1832  -17.0628 N   0  0  0  0  0  0  0  0  0  0  0  0
   28.5417  -20.9375  -16.4295 C   0  0  0  0  0  0  0  0  0  0  0  0
   29.2385  -22.2651  -16.3100 C   0  0  0  0  0  0  0  0  0  0  0  0
   28.1586  -23.2625  -16.5627 C   0  0  0  0  0  0  0  0  0  0  0  0
   26.8917  -22.5066  -16.6944 C   0  0  1  0  0  0  0  0  0  0  0  0
   26.0404  -22.5136  -15.4795 C   0  0  0  0  0  0  0  0  0  0  0  0
   25.7386  -23.6238  -14.9682 O   0  0  0  0  0  0  0  0  0  0  0  0
   23.7545  -20.4696   -7.2969 O   0  0  0  0  0  0  0  0  0  0  0  0
   24.1577  -20.4824   -8.6180 C   0  0  0  0  0  0  0  0  0  0  0  0
   25.3697  -21.0246   -8.9843 C   0  0  0  0  0  0  0  0  0  0  0  0
   25.7498  -21.0248  -10.3139 C   0  0  0  0  0  0  0  0  0  0  0  0
   24.9575  -20.4971  -11.3134 C   0  0  0  0  0  0  0  0  0  0  0  0
   25.4016  -20.4986  -12.6972 C   0  0  0  0  0  0  0  0  0  0  0  0
   24.6774  -21.3704  -13.6642 C   0  0  2  0  0  0  0  0  0  0  0  0
   25.5487  -21.3630  -14.8612 N   0  0  0  0  0  0  0  0  0  0  0  0
   23.3853  -20.8334  -14.1266 C   0  0  0  0  0  0  0  0  0  0  0  0
   23.3521  -19.8148  -14.8940 O   0  0  0  0  0  0  0  0  0  0  0  0
   23.7544  -19.9635  -10.9176 C   0  0  0  0  0  0  0  0  0  0  0  0
   23.3474  -19.9500   -9.5885 C   0  0  0  0  0  0  0  0  0  0  0  0
   22.1042  -21.3540  -13.7982 N   0  0  0  0  0  0  0  0  0  0  0  0
   20.8702  -20.7285  -14.1844 C   0  0  1  0  0  0  0  0  0  0  0  0
   19.8465  -21.7553  -14.6466 C   0  0  0  0  0  0  0  0  0  0  0  0
   20.2359  -22.3618  -15.9385 C   0  0  0  0  0  0  0  0  0  0  0  0
   20.8074  -21.6626  -16.8244 O   0  0  0  0  0  0  0  0  0  0  0  0
   20.2976  -19.8139  -13.1805 C   0  0  0  0  0  0  0  0  0  0  0  0
   20.8188  -19.7254  -11.8883 O   0  0  0  0  0  0  0  0  0  0  0  0
   20.0079  -23.6938  -16.2549 O   0  0  0  0  0  0  0  0  0  0  0  0
   19.3171  -19.0588  -13.4039 O   0  0  0  0  0  0  0  0  0  0  0  0
  1  5  1  0
  2  1  1  0
  3  2  1  0
  3  4  1  0
  4  5  1  0
  5  6  1  1
  6  7  2  0
  9  8  1  0
  9 10  2  0
 11 10  1  0
 12 11  2  0
 13 12  1  0
 14 13  1  1
 14 15  1  0
 14 16  1  0
 15  6  1  0
 16 17  2  0
 16 20  1  0
 18 19  2  0
 18 12  1  0
 19  9  1  0
 20 21  1  0
 21 25  1  0
 21 22  1  1
 23 22  1  0
 24 23  2  0
 25 28  2  0
 25 26  1  0
 27 23  1  0
M  END
$$$$
