PYD.pdb
     RDKit          3D

 28 29  0  0  1  0  0  0  0  0999 V2000
   25.6466  -19.2456  -18.2923 N   0  0  0  0  0  0  0  0  0  0  0  0
   26.0625  -18.7365  -19.5690 C   0  0  0  0  0  0  0  0  0  0  0  0
   27.1917  -17.7764  -19.3127 C   0  0  0  0  0  0  0  0  0  0  0  0
   27.1170  -17.5164  -17.8458 C   0  0  0  0  0  0  0  0  0  0  0  0
   25.9126  -18.2157  -17.3416 C   0  0  1  0  0  0  0  0  0  0  0  0
   24.7329  -17.3403  -17.1347 C   0  0  0  0  0  0  0  0  0  0  0  0
   24.8621  -16.3287  -16.3965 O   0  0  0  0  0  0  0  0  0  0  0  0
   25.5545  -17.1201  -23.0025 O   0  0  0  0  0  0  0  0  0  0  0  0
   24.7012  -16.8393  -21.9532 C   0  0  0  0  0  0  0  0  0  0  0  0
   24.9484  -15.7863  -21.1004 C   0  0  0  0  0  0  0  0  0  0  0  0
   24.0783  -15.5265  -20.0575 C   0  0  0  0  0  0  0  0  0  0  0  0
   22.9502  -16.2867  -19.8239 C   0  0  0  0  0  0  0  0  0  0  0  0
   22.0708  -15.9933  -18.7046 C   0  0  0  0  0  0  0  0  0  0  0  0
   22.2808  -16.7423  -17.4340 C   0  0  2  0  0  0  0  0  0  0  0  0
   23.4806  -17.5653  -17.7083 N   0  0  0  0  0  0  0  0  0  0  0  0
   21.2178  -17.7097  -17.1088 C   0  0  0  0  0  0  0  0  0  0  0  0
   21.3930  -18.9536  -17.3313 O   0  0  0  0  0  0  0  0  0  0  0  0
   22.7298  -17.3300  -20.6910 C   0  0  0  0  0  0  0  0  0  0  0  0
   23.5876  -17.6137  -21.7474 C   0  0  0  0  0  0  0  0  0  0  0  0
   19.9535  -17.3946  -16.5410 N   0  0  0  0  0  0  0  0  0  0  0  0
   18.9573  -18.3800  -16.2252 C   0  0  1  0  0  0  0  0  0  0  0  0
   19.5253  -19.4829  -15.3436 C   0  0  0  0  0  0  0  0  0  0  0  0
   18.5161  -20.5297  -15.0714 C   0  0  0  0  0  0  0  0  0  0  0  0
   17.8465  -21.0317  -16.0201 O   0  0  0  0  0  0  0  0  0  0  0  0
   17.7045  -17.8392  -15.6681 C   0  0  0  0  0  0  0  0  0  0  0  0
   16.5806  -18.6447  -15.4753 O   0  0  0  0  0  0  0  0  0  0  0  0
   18.2451  -21.0151  -13.7997 O   0  0  0  0  0  0  0  0  0  0  0  0
   17.5530  -16.6372  -15.3307 O   0  0  0  0  0  0  0  0  0  0  0  0
  1  5  1  0
  2  1  1  0
  3  2  1  0
  3  4  1  0
  4  5  1  0
  5  6  1  6
  6  7  2  0
  9  8  1  0
  9 10  2  0
 11 10  1  0
 12 11  2  0
 13 12  1  0
 14 13  1  6
 14 15  1  0
 14 16  1  0
 15  6  1  0
 16 17  2  0
 16 20  1  0
 18 19  2  0
 18 12  1  0
 19  9  1  0
 20 21  1  0
 21 25  1  0
 21 22  1  1
 23 22  1  0
 24 23  2  0
 25 28  2  0
 25 26  1  0
 27 23  1  0
M  END
$$$$
