PYD.pdb
     RDKit          3D

 28 29  0  0  1  0  0  0  0  0999 V2000
   27.6129  -11.9333  -15.2859 N   0  0  0  0  0  0  0  0  0  0  0  0
   27.4776  -13.2938  -14.8466 C   0  0  0  0  0  0  0  0  0  0  0  0
   27.6677  -14.1672  -16.0563 C   0  0  0  0  0  0  0  0  0  0  0  0
   27.5431  -13.2235  -17.2048 C   0  0  0  0  0  0  0  0  0  0  0  0
   27.1761  -11.9029  -16.6437 C   0  0  1  0  0  0  0  0  0  0  0  0
   25.7351  -11.5667  -16.7503 C   0  0  0  0  0  0  0  0  0  0  0  0
   25.1721  -11.6998  -17.8684 O   0  0  0  0  0  0  0  0  0  0  0  0
   21.6823  -16.8672  -16.2286 O   0  0  0  0  0  0  0  0  0  0  0  0
   21.9655  -15.5583  -15.8903 C   0  0  0  0  0  0  0  0  0  0  0  0
   22.7547  -15.2623  -14.8008 C   0  0  0  0  0  0  0  0  0  0  0  0
   23.0230  -13.9434  -14.4835 C   0  0  0  0  0  0  0  0  0  0  0  0
   22.5285  -12.8863  -15.2204 C   0  0  0  0  0  0  0  0  0  0  0  0
   22.8173  -11.5130  -14.8425 C   0  0  0  0  0  0  0  0  0  0  0  0
   23.5527  -10.6585  -15.8165 C   0  0  2  0  0  0  0  0  0  0  0  0
   24.9568  -11.1094  -15.6858 N   0  0  0  0  0  0  0  0  0  0  0  0
   23.5772   -9.2243  -15.4788 C   0  0  0  0  0  0  0  0  0  0  0  0
   24.6511   -8.6845  -15.0512 O   0  0  0  0  0  0  0  0  0  0  0  0
   21.7447  -13.2126  -16.3012 C   0  0  0  0  0  0  0  0  0  0  0  0
   21.4589  -14.5293  -16.6429 C   0  0  0  0  0  0  0  0  0  0  0  0
   22.4800   -8.3271  -15.5858 N   0  0  0  0  0  0  0  0  0  0  0  0
   22.5534   -6.9373  -15.2301 C   0  0  1  0  0  0  0  0  0  0  0  0
   23.7362   -6.2531  -15.8999 C   0  0  0  0  0  0  0  0  0  0  0  0
   23.7841   -4.8120  -15.5693 C   0  0  0  0  0  0  0  0  0  0  0  0
   23.4285   -4.4085  -14.4242 O   0  0  0  0  0  0  0  0  0  0  0  0
   21.3071   -6.1779  -15.4355 C   0  0  0  0  0  0  0  0  0  0  0  0
   20.1852   -6.7582  -16.0305 O   0  0  0  0  0  0  0  0  0  0  0  0
   24.2081   -3.8384  -16.4629 O   0  0  0  0  0  0  0  0  0  0  0  0
   21.1596   -4.9753  -15.0988 O   0  0  0  0  0  0  0  0  0  0  0  0
  1  5  1  0
  2  1  1  0
  3  2  1  0
  3  4  1  0
  4  5  1  0
  5  6  1  1
  6  7  2  0
  9  8  1  0
  9 10  2  0
 11 10  1  0
 12 11  2  0
 13 12  1  0
 14 13  1  1
 14 15  1  0
 14 16  1  0
 15  6  1  0
 16 17  2  0
 16 20  1  0
 18 19  2  0
 18 12  1  0
 19  9  1  0
 20 21  1  0
 21 25  1  0
 21 22  1  6
 23 22  1  0
 24 23  2  0
 25 28  2  0
 25 26  1  0
 27 23  1  0
M  END
$$$$
