PYD.pdb
     RDKit          3D

 28 29  0  0  1  0  0  0  0  0999 V2000
   27.8946  -20.7679  -17.5244 N   0  0  0  0  0  0  0  0  0  0  0  0
   29.1433  -20.4808  -16.8761 C   0  0  0  0  0  0  0  0  0  0  0  0
   29.9631  -21.7411  -16.9237 C   0  0  0  0  0  0  0  0  0  0  0  0
   28.9762  -22.7989  -17.2866 C   0  0  0  0  0  0  0  0  0  0  0  0
   27.6420  -22.1564  -17.3158 C   0  0  1  0  0  0  0  0  0  0  0  0
   26.8188  -22.3896  -16.1039 C   0  0  0  0  0  0  0  0  0  0  0  0
   26.6048  -23.5777  -15.7470 O   0  0  0  0  0  0  0  0  0  0  0  0
   23.8036  -20.5823   -7.9386 O   0  0  0  0  0  0  0  0  0  0  0  0
   24.3660  -20.6093   -9.1999 C   0  0  0  0  0  0  0  0  0  0  0  0
   23.6533  -20.1946  -10.3032 C   0  0  0  0  0  0  0  0  0  0  0  0
   24.2396  -20.2318  -11.5550 C   0  0  0  0  0  0  0  0  0  0  0  0
   25.5315  -20.6733  -11.7578 C   0  0  0  0  0  0  0  0  0  0  0  0
   26.1051  -20.7157  -13.0925 C   0  0  0  0  0  0  0  0  0  0  0  0
   25.4638  -21.6034  -14.1025 C   0  0  2  0  0  0  0  0  0  0  0  0
   26.2621  -21.3720  -15.3277 N   0  0  0  0  0  0  0  0  0  0  0  0
   24.0862  -21.2259  -14.4650 C   0  0  0  0  0  0  0  0  0  0  0  0
   23.8642  -20.1400  -15.0968 O   0  0  0  0  0  0  0  0  0  0  0  0
   26.2175  -21.0805  -10.6387 C   0  0  0  0  0  0  0  0  0  0  0  0
   25.6529  -21.0538   -9.3688 C   0  0  0  0  0  0  0  0  0  0  0  0
   22.9156  -21.9788  -14.1770 N   0  0  0  0  0  0  0  0  0  0  0  0
   21.5858  -21.5226  -14.4713 C   0  0  1  0  0  0  0  0  0  0  0  0
   20.9380  -22.3624  -15.5627 C   0  0  0  0  0  0  0  0  0  0  0  0
   19.5784  -21.8754  -15.8829 C   0  0  0  0  0  0  0  0  0  0  0  0
   19.4219  -20.8708  -16.6356 O   0  0  0  0  0  0  0  0  0  0  0  0
   20.7017  -21.3908  -13.2994 C   0  0  0  0  0  0  0  0  0  0  0  0
   19.8131  -20.3219  -13.1686 O   0  0  0  0  0  0  0  0  0  0  0  0
   18.4219  -22.4680  -15.3955 O   0  0  0  0  0  0  0  0  0  0  0  0
   20.6789  -22.2118  -12.3471 O   0  0  0  0  0  0  0  0  0  0  0  0
  1  5  1  0
  2  1  1  0
  3  2  1  0
  3  4  1  0
  4  5  1  0
  5  6  1  1
  6  7  2  0
  9  8  1  0
  9 10  2  0
 11 10  1  0
 12 11  2  0
 13 12  1  0
 14 13  1  1
 14 15  1  0
 14 16  1  0
 15  6  1  0
 16 17  2  0
 16 20  1  0
 18 19  2  0
 18 12  1  0
 19  9  1  0
 20 21  1  0
 21 25  1  0
 21 22  1  6
 23 22  1  0
 24 23  2  0
 25 28  2  0
 25 26  1  0
 27 23  1  0
M  END
$$$$
