PYD.pdb
     RDKit          3D

 28 29  0  0  1  0  0  0  0  0999 V2000
   26.5713  -19.5656  -16.6937 N   0  0  0  0  0  0  0  0  0  0  0  0
   27.6058  -18.5949  -16.4709 C   0  0  0  0  0  0  0  0  0  0  0  0
   28.9007  -19.2253  -16.9047 C   0  0  0  0  0  0  0  0  0  0  0  0
   28.5744  -20.6763  -17.0184 C   0  0  0  0  0  0  0  0  0  0  0  0
   27.1815  -20.8465  -16.5445 C   0  0  1  0  0  0  0  0  0  0  0  0
   27.0605  -21.3548  -15.1560 C   0  0  0  0  0  0  0  0  0  0  0  0
   27.2211  -22.5871  -14.9552 O   0  0  0  0  0  0  0  0  0  0  0  0
   26.7259  -20.5862   -6.2043 O   0  0  0  0  0  0  0  0  0  0  0  0
   26.8069  -20.4394   -7.5754 C   0  0  0  0  0  0  0  0  0  0  0  0
   28.0034  -20.6064   -8.2370 C   0  0  0  0  0  0  0  0  0  0  0  0
   28.0574  -20.4537   -9.6103 C   0  0  0  0  0  0  0  0  0  0  0  0
   26.9478  -20.1353  -10.3670 C   0  0  0  0  0  0  0  0  0  0  0  0
   27.0498  -19.9640  -11.8066 C   0  0  0  0  0  0  0  0  0  0  0  0
   26.5651  -21.0697  -12.6795 C   0  0  2  0  0  0  0  0  0  0  0  0
   26.7785  -20.5517  -14.0499 N   0  0  0  0  0  0  0  0  0  0  0  0
   25.1179  -21.3332  -12.5898 C   0  0  0  0  0  0  0  0  0  0  0  0
   24.6076  -21.7435  -11.4949 O   0  0  0  0  0  0  0  0  0  0  0  0
   25.7686  -19.9750   -9.6793 C   0  0  0  0  0  0  0  0  0  0  0  0
   25.6856  -20.1225   -8.2996 C   0  0  0  0  0  0  0  0  0  0  0  0
   24.1771  -21.1687  -13.6423 N   0  0  0  0  0  0  0  0  0  0  0  0
   22.7552  -21.1477  -13.4400 C   0  0  1  0  0  0  0  0  0  0  0  0
   22.3579  -20.1232  -12.3871 C   0  0  0  0  0  0  0  0  0  0  0  0
   20.8976  -20.1307  -12.1509 C   0  0  0  0  0  0  0  0  0  0  0  0
   20.2123  -19.0886  -12.3626 O   0  0  0  0  0  0  0  0  0  0  0  0
   21.9561  -20.9924  -14.6687 C   0  0  0  0  0  0  0  0  0  0  0  0
   20.6094  -21.3574  -14.7177 O   0  0  0  0  0  0  0  0  0  0  0  0
   20.2045  -21.2439  -11.6963 O   0  0  0  0  0  0  0  0  0  0  0  0
   22.4140  -20.5296  -15.7446 O   0  0  0  0  0  0  0  0  0  0  0  0
  1  5  1  0
  2  1  1  0
  3  2  1  0
  3  4  1  0
  4  5  1  0
  5  6  1  1
  6  7  2  0
  9  8  1  0
  9 10  2  0
 11 10  1  0
 12 11  2  0
 13 12  1  0
 14 13  1  1
 14 15  1  0
 14 16  1  0
 15  6  1  0
 16 17  2  0
 16 20  1  0
 18 19  2  0
 18 12  1  0
 19  9  1  0
 20 21  1  0
 21 25  1  0
 21 22  1  1
 23 22  1  0
 24 23  2  0
 25 28  2  0
 25 26  1  0
 27 23  1  0
M  END
$$$$
