PYD.pdb
     RDKit          3D

 28 29  0  0  1  0  0  0  0  0999 V2000
   28.3775  -27.0976  -18.2795 N   0  0  0  0  0  0  0  0  0  0  0  0
   29.4716  -26.6996  -17.4389 C   0  0  0  0  0  0  0  0  0  0  0  0
   29.1504  -27.1707  -16.0470 C   0  0  0  0  0  0  0  0  0  0  0  0
   27.6975  -27.5032  -16.1059 C   0  0  0  0  0  0  0  0  0  0  0  0
   27.2164  -27.1108  -17.4506 C   0  0  1  0  0  0  0  0  0  0  0  0
   26.4954  -25.8150  -17.4935 C   0  0  0  0  0  0  0  0  0  0  0  0
   27.1390  -24.7841  -17.8222 O   0  0  0  0  0  0  0  0  0  0  0  0
   21.6900  -19.4129  -20.4358 O   0  0  0  0  0  0  0  0  0  0  0  0
   22.3677  -20.5374  -20.0066 C   0  0  0  0  0  0  0  0  0  0  0  0
   23.6405  -20.4436  -19.4882 C   0  0  0  0  0  0  0  0  0  0  0  0
   24.2972  -21.5848  -19.0656 C   0  0  0  0  0  0  0  0  0  0  0  0
   23.7281  -22.8401  -19.1392 C   0  0  0  0  0  0  0  0  0  0  0  0
   24.4591  -24.0180  -18.7028 C   0  0  0  0  0  0  0  0  0  0  0  0
   24.4159  -24.3729  -17.2565 C   0  0  2  0  0  0  0  0  0  0  0  0
   25.1413  -25.6619  -17.1916 N   0  0  0  0  0  0  0  0  0  0  0  0
   23.0684  -24.6642  -16.7358 C   0  0  0  0  0  0  0  0  0  0  0  0
   22.4748  -25.7452  -17.0624 O   0  0  0  0  0  0  0  0  0  0  0  0
   22.4580  -22.9022  -19.6606 C   0  0  0  0  0  0  0  0  0  0  0  0
   21.7748  -21.7715  -20.0929 C   0  0  0  0  0  0  0  0  0  0  0  0
   22.3185  -23.8323  -15.8609 N   0  0  0  0  0  0  0  0  0  0  0  0
   20.9784  -24.1292  -15.4376 C   0  0  1  0  0  0  0  0  0  0  0  0
   20.7384  -23.6899  -14.0005 C   0  0  0  0  0  0  0  0  0  0  0  0
   19.4313  -24.1695  -13.5006 C   0  0  0  0  0  0  0  0  0  0  0  0
   18.6249  -24.7523  -14.2820 O   0  0  0  0  0  0  0  0  0  0  0  0
   19.9200  -23.6322  -16.3348 C   0  0  0  0  0  0  0  0  0  0  0  0
   18.9657  -24.4887  -16.8871 O   0  0  0  0  0  0  0  0  0  0  0  0
   19.0156  -24.0174  -12.1852 O   0  0  0  0  0  0  0  0  0  0  0  0
   19.7962  -22.4253  -16.6658 O   0  0  0  0  0  0  0  0  0  0  0  0
  1  5  1  0
  2  1  1  0
  3  2  1  0
  3  4  1  0
  4  5  1  0
  5  6  1  1
  6  7  2  0
  9  8  1  0
  9 10  2  0
 11 10  1  0
 12 11  2  0
 13 12  1  0
 14 13  1  6
 14 15  1  0
 14 16  1  0
 15  6  1  0
 16 17  2  0
 16 20  1  0
 18 19  2  0
 18 12  1  0
 19  9  1  0
 20 21  1  0
 21 25  1  0
 21 22  1  1
 23 22  1  0
 24 23  2  0
 25 28  2  0
 25 26  1  0
 27 23  1  0
M  END
$$$$
