PYD.pdb
     RDKit          3D

 28 29  0  0  1  0  0  0  0  0999 V2000
   19.2059   -9.7400  -18.3471 N   0  0  0  0  0  0  0  0  0  0  0  0
   20.1189  -10.6959  -18.9081 C   0  0  0  0  0  0  0  0  0  0  0  0
   19.6839  -12.0534  -18.4278 C   0  0  0  0  0  0  0  0  0  0  0  0
   18.7434  -11.7550  -17.3092 C   0  0  0  0  0  0  0  0  0  0  0  0
   18.7601  -10.2877  -17.1076 C   0  0  1  0  0  0  0  0  0  0  0  0
   19.5977   -9.8310  -15.9716 C   0  0  0  0  0  0  0  0  0  0  0  0
   19.3922  -10.3366  -14.8371 O   0  0  0  0  0  0  0  0  0  0  0  0
   24.7417  -13.6154  -17.0743 O   0  0  0  0  0  0  0  0  0  0  0  0
   24.2836  -12.3690  -16.6941 C   0  0  0  0  0  0  0  0  0  0  0  0
   24.3138  -11.9745  -15.3747 C   0  0  0  0  0  0  0  0  0  0  0  0
   23.8491  -10.7212  -15.0205 C   0  0  0  0  0  0  0  0  0  0  0  0
   23.3457   -9.8269  -15.9435 C   0  0  0  0  0  0  0  0  0  0  0  0
   22.8483   -8.5260  -15.5283 C   0  0  0  0  0  0  0  0  0  0  0  0
   21.4750   -8.4515  -14.9555 C   0  0  2  0  0  0  0  0  0  0  0  0
   20.6055   -8.8714  -16.0778 N   0  0  0  0  0  0  0  0  0  0  0  0
   21.0266   -7.0907  -14.6109 C   0  0  0  0  0  0  0  0  0  0  0  0
   21.5572   -6.4698  -13.6308 O   0  0  0  0  0  0  0  0  0  0  0  0
   23.3283  -10.2485  -17.2515 C   0  0  0  0  0  0  0  0  0  0  0  0
   23.7889  -11.5024  -17.6356 C   0  0  0  0  0  0  0  0  0  0  0  0
   20.0178   -6.3525  -15.2872 N   0  0  0  0  0  0  0  0  0  0  0  0
   19.6212   -5.0235  -14.9134 C   0  0  1  0  0  0  0  0  0  0  0  0
   20.3367   -3.9730  -15.7505 C   0  0  0  0  0  0  0  0  0  0  0  0
   21.3100   -3.2085  -14.9402 C   0  0  0  0  0  0  0  0  0  0  0  0
   21.4807   -3.4875  -13.7182 O   0  0  0  0  0  0  0  0  0  0  0  0
   18.1656   -4.7932  -14.8927 C   0  0  0  0  0  0  0  0  0  0  0  0
   17.5343   -4.1927  -13.8018 O   0  0  0  0  0  0  0  0  0  0  0  0
   22.0756   -2.1687  -15.4490 O   0  0  0  0  0  0  0  0  0  0  0  0
   17.3956   -5.1124  -15.8344 O   0  0  0  0  0  0  0  0  0  0  0  0
  1  5  1  0
  2  1  1  0
  3  2  1  0
  3  4  1  0
  4  5  1  0
  5  6  1  1
  6  7  2  0
  9  8  1  0
  9 10  2  0
 11 10  1  0
 12 11  2  0
 13 12  1  0
 14 13  1  6
 14 15  1  0
 14 16  1  0
 15  6  1  0
 16 17  2  0
 16 20  1  0
 18 19  2  0
 18 12  1  0
 19  9  1  0
 20 21  1  0
 21 25  1  0
 21 22  1  6
 23 22  1  0
 24 23  2  0
 25 28  2  0
 25 26  1  0
 27 23  1  0
M  END
$$$$
