PYD.pdb
     RDKit          3D

 28 29  0  0  1  0  0  0  0  0999 V2000
   27.1927  -19.4544  -17.7931 N   0  0  0  0  0  0  0  0  0  0  0  0
   27.5392  -18.1561  -17.2867 C   0  0  0  0  0  0  0  0  0  0  0  0
   28.9910  -18.2094  -16.8971 C   0  0  0  0  0  0  0  0  0  0  0  0
   29.3030  -19.6677  -16.8697 C   0  0  0  0  0  0  0  0  0  0  0  0
   28.0327  -20.3882  -17.1166 C   0  0  1  0  0  0  0  0  0  0  0  0
   27.3836  -20.9288  -15.8971 C   0  0  0  0  0  0  0  0  0  0  0  0
   27.5696  -22.1400  -15.6086 O   0  0  0  0  0  0  0  0  0  0  0  0
   24.3838  -20.6564   -7.5283 O   0  0  0  0  0  0  0  0  0  0  0  0
   24.8960  -20.4858   -8.7997 C   0  0  0  0  0  0  0  0  0  0  0  0
   26.1267  -21.0003   -9.1433 C   0  0  0  0  0  0  0  0  0  0  0  0
   26.6168  -20.8155  -10.4231 C   0  0  0  0  0  0  0  0  0  0  0  0
   25.9188  -20.1262  -11.3940 C   0  0  0  0  0  0  0  0  0  0  0  0
   26.4773  -19.9364  -12.7222 C   0  0  0  0  0  0  0  0  0  0  0  0
   25.8979  -20.7260  -13.8449 C   0  0  2  0  0  0  0  0  0  0  0  0
   26.5746  -20.1784  -15.0424 N   0  0  0  0  0  0  0  0  0  0  0  0
   24.4608  -20.4981  -14.0782 C   0  0  0  0  0  0  0  0  0  0  0  0
   24.0597  -19.3962  -14.5806 O   0  0  0  0  0  0  0  0  0  0  0  0
   24.6944  -19.6247  -11.0219 C   0  0  0  0  0  0  0  0  0  0  0  0
   24.1776  -19.7956   -9.7428 C   0  0  0  0  0  0  0  0  0  0  0  0
   23.4169  -21.4199  -13.7941 N   0  0  0  0  0  0  0  0  0  0  0  0
   22.0233  -21.1205  -13.9717 C   0  0  1  0  0  0  0  0  0  0  0  0
   21.2765  -22.2933  -14.5904 C   0  0  0  0  0  0  0  0  0  0  0  0
   21.4280  -22.3137  -16.0618 C   0  0  0  0  0  0  0  0  0  0  0  0
   21.6743  -23.3996  -16.6623 O   0  0  0  0  0  0  0  0  0  0  0  0
   21.3371  -20.6232  -12.7658 C   0  0  0  0  0  0  0  0  0  0  0  0
   20.1142  -19.9540  -12.8423 O   0  0  0  0  0  0  0  0  0  0  0  0
   21.3141  -21.1811  -16.8558 O   0  0  0  0  0  0  0  0  0  0  0  0
   21.7890  -20.7593  -11.6002 O   0  0  0  0  0  0  0  0  0  0  0  0
  1  5  1  0
  2  1  1  0
  3  2  1  0
  3  4  1  0
  4  5  1  0
  5  6  1  1
  6  7  2  0
  9  8  1  0
  9 10  2  0
 11 10  1  0
 12 11  2  0
 13 12  1  0
 14 13  1  1
 14 15  1  0
 14 16  1  0
 15  6  1  0
 16 17  2  0
 16 20  1  0
 18 19  2  0
 18 12  1  0
 19  9  1  0
 20 21  1  0
 21 25  1  0
 21 22  1  1
 23 22  1  0
 24 23  2  0
 25 28  2  0
 25 26  1  0
 27 23  1  0
M  END
$$$$
