PYD.pdb
     RDKit          3D

 28 29  0  0  1  0  0  0  0  0999 V2000
   27.1601  -18.8309  -14.5618 N   0  0  0  0  0  0  0  0  0  0  0  0
   28.1450  -18.3500  -13.6340 C   0  0  0  0  0  0  0  0  0  0  0  0
   29.3038  -19.3075  -13.6875 C   0  0  0  0  0  0  0  0  0  0  0  0
   28.7527  -20.5003  -14.3935 C   0  0  0  0  0  0  0  0  0  0  0  0
   27.3090  -20.2490  -14.6086 C   0  0  1  0  0  0  0  0  0  0  0  0
   26.4140  -20.9281  -13.6398 C   0  0  0  0  0  0  0  0  0  0  0  0
   26.4354  -22.1857  -13.5873 O   0  0  0  0  0  0  0  0  0  0  0  0
   29.7767  -21.1519   -8.0371 O   0  0  0  0  0  0  0  0  0  0  0  0
   28.5596  -20.9429   -8.6561 C   0  0  0  0  0  0  0  0  0  0  0  0
   27.6125  -20.1140   -8.0964 C   0  0  0  0  0  0  0  0  0  0  0  0
   26.4018  -19.9219   -8.7364 C   0  0  0  0  0  0  0  0  0  0  0  0
   26.0889  -20.5327   -9.9339 C   0  0  0  0  0  0  0  0  0  0  0  0
   24.7972  -20.3205  -10.5652 C   0  0  0  0  0  0  0  0  0  0  0  0
   24.5606  -20.9372  -11.9006 C   0  0  2  0  0  0  0  0  0  0  0  0
   25.5438  -20.2605  -12.7767 N   0  0  0  0  0  0  0  0  0  0  0  0
   23.2458  -20.6335  -12.4929 C   0  0  0  0  0  0  0  0  0  0  0  0
   23.0323  -19.4968  -13.0313 O   0  0  0  0  0  0  0  0  0  0  0  0
   27.0533  -21.3536  -10.4678 C   0  0  0  0  0  0  0  0  0  0  0  0
   28.2785  -21.5648   -9.8462 C   0  0  0  0  0  0  0  0  0  0  0  0
   22.1313  -21.5143  -12.5365 N   0  0  0  0  0  0  0  0  0  0  0  0
   20.8633  -21.1624  -13.1126 C   0  0  1  0  0  0  0  0  0  0  0  0
   20.4677  -22.1285  -14.2199 C   0  0  0  0  0  0  0  0  0  0  0  0
   19.1754  -21.7485  -14.8314 C   0  0  0  0  0  0  0  0  0  0  0  0
   18.7917  -20.5432  -14.8135 O   0  0  0  0  0  0  0  0  0  0  0  0
   19.7695  -20.9820  -12.1414 C   0  0  0  0  0  0  0  0  0  0  0  0
   19.0180  -19.8062  -12.0945 O   0  0  0  0  0  0  0  0  0  0  0  0
   18.3256  -22.6582  -15.4451 O   0  0  0  0  0  0  0  0  0  0  0  0
   19.4350  -21.8527  -11.2980 O   0  0  0  0  0  0  0  0  0  0  0  0
  1  5  1  0
  2  1  1  0
  3  2  1  0
  3  4  1  0
  4  5  1  0
  5  6  1  1
  6  7  2  0
  9  8  1  0
  9 10  2  0
 11 10  1  0
 12 11  2  0
 13 12  1  0
 14 13  1  1
 14 15  1  0
 14 16  1  0
 15  6  1  0
 16 17  2  0
 16 20  1  0
 18 19  2  0
 18 12  1  0
 19  9  1  0
 20 21  1  0
 21 25  1  0
 21 22  1  6
 23 22  1  0
 24 23  2  0
 25 28  2  0
 25 26  1  0
 27 23  1  0
M  END
$$$$
