PYD.pdb
     RDKit          3D

 28 29  0  0  1  0  0  0  0  0999 V2000
   16.0022   -4.2602  -18.6866 N   0  0  0  0  0  0  0  0  0  0  0  0
   14.9556   -5.1910  -19.0032 C   0  0  0  0  0  0  0  0  0  0  0  0
   13.6571   -4.5444  -18.6053 C   0  0  0  0  0  0  0  0  0  0  0  0
   14.0736   -3.4047  -17.7378 C   0  0  0  0  0  0  0  0  0  0  0  0
   15.5420   -3.5008  -17.5699 C   0  0  1  0  0  0  0  0  0  0  0  0
   15.9777   -4.0963  -16.2829 C   0  0  0  0  0  0  0  0  0  0  0  0
   15.5937   -3.5540  -15.2137 O   0  0  0  0  0  0  0  0  0  0  0  0
   16.8494  -10.4765  -10.3667 O   0  0  0  0  0  0  0  0  0  0  0  0
   16.7244   -9.6569  -11.4714 C   0  0  0  0  0  0  0  0  0  0  0  0
   17.3504   -9.9665  -12.6587 C   0  0  0  0  0  0  0  0  0  0  0  0
   17.2092   -9.1290  -13.7499 C   0  0  0  0  0  0  0  0  0  0  0  0
   16.4556   -7.9734  -13.7073 C   0  0  0  0  0  0  0  0  0  0  0  0
   16.3480   -7.1089  -14.8706 C   0  0  0  0  0  0  0  0  0  0  0  0
   17.1659   -5.8639  -14.8959 C   0  0  2  0  0  0  0  0  0  0  0  0
   16.7908   -5.2259  -16.1782 N   0  0  0  0  0  0  0  0  0  0  0  0
   18.6197   -6.0863  -14.9886 C   0  0  0  0  0  0  0  0  0  0  0  0
   19.1204   -6.6276  -16.0297 O   0  0  0  0  0  0  0  0  0  0  0  0
   15.8431   -7.6909  -12.5098 C   0  0  0  0  0  0  0  0  0  0  0  0
   15.9680   -8.5147  -11.3972 C   0  0  0  0  0  0  0  0  0  0  0  0
   19.5773   -5.7430  -13.9961 N   0  0  0  0  0  0  0  0  0  0  0  0
   20.9795   -6.0326  -14.1119 C   0  0  1  0  0  0  0  0  0  0  0  0
   21.8300   -4.8862  -13.5843 C   0  0  0  0  0  0  0  0  0  0  0  0
   21.6253   -3.6535  -14.3761 C   0  0  0  0  0  0  0  0  0  0  0  0
   21.1180   -3.7160  -15.5333 O   0  0  0  0  0  0  0  0  0  0  0  0
   21.3965   -7.3216  -13.5317 C   0  0  0  0  0  0  0  0  0  0  0  0
   20.5251   -8.0949  -12.7623 O   0  0  0  0  0  0  0  0  0  0  0  0
   21.9646   -2.3881  -13.9181 O   0  0  0  0  0  0  0  0  0  0  0  0
   22.5437   -7.8149  -13.6806 O   0  0  0  0  0  0  0  0  0  0  0  0
  1  5  1  0
  2  1  1  0
  3  2  1  0
  3  4  1  0
  4  5  1  0
  5  6  1  1
  6  7  2  0
  9  8  1  0
  9 10  2  0
 11 10  1  0
 12 11  2  0
 13 12  1  0
 14 13  1  6
 14 15  1  0
 14 16  1  0
 15  6  1  0
 16 17  2  0
 16 20  1  0
 18 19  2  0
 18 12  1  0
 19  9  1  0
 20 21  1  0
 21 25  1  0
 21 22  1  1
 23 22  1  0
 24 23  2  0
 25 28  2  0
 25 26  1  0
 27 23  1  0
M  END
$$$$
