PYD.pdb
     RDKit          3D

 28 29  0  0  1  0  0  0  0  0999 V2000
   24.9057  -22.6585  -14.9774 N   0  0  0  0  0  0  0  0  0  0  0  0
   25.0570  -21.9956  -16.2422 C   0  0  0  0  0  0  0  0  0  0  0  0
   25.8804  -20.7612  -15.9958 C   0  0  0  0  0  0  0  0  0  0  0  0
   25.8497  -20.5981  -14.5134 C   0  0  0  0  0  0  0  0  0  0  0  0
   24.9394  -21.6381  -13.9810 C   0  0  1  0  0  0  0  0  0  0  0  0
   23.5785  -21.1527  -13.6448 C   0  0  0  0  0  0  0  0  0  0  0  0
   23.4716  -20.1412  -12.9030 O   0  0  0  0  0  0  0  0  0  0  0  0
   23.0640  -16.4883  -17.7541 O   0  0  0  0  0  0  0  0  0  0  0  0
   22.4422  -17.5502  -17.1267 C   0  0  0  0  0  0  0  0  0  0  0  0
   21.4891  -17.3402  -16.1546 C   0  0  0  0  0  0  0  0  0  0  0  0
   20.8816  -18.4207  -15.5418 C   0  0  0  0  0  0  0  0  0  0  0  0
   21.1897  -19.7272  -15.8629 C   0  0  0  0  0  0  0  0  0  0  0  0
   20.5428  -20.8360  -15.1815 C   0  0  0  0  0  0  0  0  0  0  0  0
   21.0445  -21.2168  -13.8314 C   0  0  2  0  0  0  0  0  0  0  0  0
   22.4004  -21.7472  -14.0997 N   0  0  0  0  0  0  0  0  0  0  0  0
   20.3157  -22.3295  -13.1970 C   0  0  0  0  0  0  0  0  0  0  0  0
   20.2740  -23.4730  -13.7612 O   0  0  0  0  0  0  0  0  0  0  0  0
   22.1438  -19.9053  -16.8360 C   0  0  0  0  0  0  0  0  0  0  0  0
   22.7704  -18.8376  -17.4683 C   0  0  0  0  0  0  0  0  0  0  0  0
   19.6203  -22.2681  -11.9590 N   0  0  0  0  0  0  0  0  0  0  0  0
   18.9607  -23.3959  -11.3621 C   0  0  1  0  0  0  0  0  0  0  0  0
   19.2110  -23.4574   -9.8623 C   0  0  0  0  0  0  0  0  0  0  0  0
   18.5891  -24.6570   -9.2601 C   0  0  0  0  0  0  0  0  0  0  0  0
   18.0171  -25.5146   -9.9933 O   0  0  0  0  0  0  0  0  0  0  0  0
   17.5243  -23.5097  -11.6718 C   0  0  0  0  0  0  0  0  0  0  0  0
   16.6365  -22.4606  -11.4260 O   0  0  0  0  0  0  0  0  0  0  0  0
   18.5913  -24.9136   -7.8961 O   0  0  0  0  0  0  0  0  0  0  0  0
   16.9975  -24.5372  -12.1701 O   0  0  0  0  0  0  0  0  0  0  0  0
  1  5  1  0
  2  1  1  0
  3  2  1  0
  3  4  1  0
  4  5  1  0
  5  6  1  6
  6  7  2  0
  9  8  1  0
  9 10  2  0
 11 10  1  0
 12 11  2  0
 13 12  1  0
 14 13  1  6
 14 15  1  0
 14 16  1  0
 15  6  1  0
 16 17  2  0
 16 20  1  0
 18 19  2  0
 18 12  1  0
 19  9  1  0
 20 21  1  0
 21 25  1  0
 21 22  1  1
 23 22  1  0
 24 23  2  0
 25 28  2  0
 25 26  1  0
 27 23  1  0
M  END
$$$$
