QWN.pdb
     RDKit          3D

 32 33  0  0  1  0  0  0  0  0999 V2000
    8.3383  -12.9529   18.1310 N   0  0  0  0  0  0  0  0  0  0  0  0
    8.4546  -14.2287   17.5196 C   0  0  0  0  0  0  0  0  0  0  0  0
    8.0979  -14.4013   16.3419 O   0  0  0  0  0  0  0  0  0  0  0  0
    9.0058  -15.3471   18.3010 C   0  0  0  0  0  0  0  0  0  0  0  0
    9.2954  -15.0026   19.7202 C   0  0  0  0  0  0  0  0  0  0  0  0
    9.8793  -16.1566   20.5093 C   0  0  2  0  0  0  0  0  0  0  0  0
    8.9010  -17.2550   20.5751 N   0  0  0  0  0  0  0  0  0  0  0  0
   10.0882  -15.6590   21.8941 C   0  0  0  0  0  0  0  0  0  0  0  0
   10.8723  -14.7277   22.0881 O   0  0  0  0  0  0  0  0  0  0  0  0
    9.3803  -16.2692   22.9548 N   0  0  0  0  0  0  0  0  0  0  0  0
    9.5693  -15.8668   24.3532 C   0  0  1  0  0  0  0  0  0  0  0  0
    8.2685  -15.8403   25.0665 C   0  0  0  0  0  0  0  0  0  0  0  0
    7.4452  -14.6872   24.7147 C   0  0  0  0  0  0  0  0  0  0  0  0
    6.7285  -14.5339   23.5520 C   0  0  0  0  0  0  0  0  0  0  0  0
    6.1415  -13.3441   23.5926 N   0  0  0  0  0  0  0  0  0  0  0  0
    6.4510  -12.7058   24.7519 C   0  0  0  0  0  0  0  0  0  0  0  0
    6.0852  -11.4565   25.2480 C   0  0  0  0  0  0  0  0  0  0  0  0
    6.5740  -11.0894   26.4774 C   0  0  0  0  0  0  0  0  0  0  0  0
    7.3997  -11.8968   27.2277 C   0  0  0  0  0  0  0  0  0  0  0  0
    7.7413  -13.1250   26.7072 C   0  0  0  0  0  0  0  0  0  0  0  0
    7.2663  -13.5260   25.4717 C   0  0  0  0  0  0  0  0  0  0  0  0
   10.6293  -16.7235   24.8925 C   0  0  0  0  0  0  0  0  0  0  0  0
   10.8084  -16.8024   26.1669 O   0  0  0  0  0  0  0  0  0  0  0  0
   12.5235  -20.6990   27.0973 N   0  0  0  0  0  0  0  0  0  0  0  0
   11.8727  -20.8091   25.8167 C   0  0  0  0  0  0  0  0  0  0  0  0
   11.8142  -21.8960   25.2200 O   0  0  0  0  0  0  0  0  0  0  0  0
   11.2954  -19.5898   25.2693 C   0  0  0  0  0  0  0  0  0  0  0  0
   12.3169  -18.6132   24.7966 C   0  0  2  0  0  0  0  0  0  0  0  0
   11.5312  -17.5269   24.1552 N   0  0  0  0  0  0  0  0  0  0  0  0
   13.2211  -19.2051   23.8003 C   0  0  0  0  0  0  0  0  0  0  0  0
   13.2039  -18.8263   22.4839 O   0  0  0  0  0  0  0  0  0  0  0  0
   14.0646  -20.1017   24.1139 O   0  0  0  0  0  0  0  0  0  0  0  0
  1  2  1  0
  2  3  2  0
  4  2  1  0
  4  5  1  0
  6  5  1  0
  6  7  1  1
  8  6  1  0
  8  9  2  0
 10  8  1  0
 11 10  1  0
 11 12  1  1
 13 12  1  0
 13 14  2  0
 15 14  1  0
 16 21  2  0
 16 15  1  0
 17 16  1  0
 18 17  2  0
 19 18  1  0
 19 20  2  0
 20 21  1  0
 21 13  1  0
 22 11  1  0
 23 22  2  0
 25 26  2  0
 25 24  1  0
 27 25  1  0
 28 27  1  6
 28 29  1  0
 29 22  1  0
 30 28  1  0
 31 30  1  0
 32 30  2  0
M  END
$$$$
