QWN.pdb
     RDKit          3D

 32 33  0  0  1  0  0  0  0  0999 V2000
    8.6760  -12.3925   18.5951 N   0  0  0  0  0  0  0  0  0  0  0  0
    7.8576  -13.4825   18.1988 C   0  0  0  0  0  0  0  0  0  0  0  0
    7.1816  -13.4211   17.1579 O   0  0  0  0  0  0  0  0  0  0  0  0
    7.8210  -14.6899   19.0389 C   0  0  0  0  0  0  0  0  0  0  0  0
    8.6189  -14.5747   20.2907 C   0  0  0  0  0  0  0  0  0  0  0  0
    9.0590  -15.9140   20.8456 C   0  0  2  0  0  0  0  0  0  0  0  0
    7.9319  -16.8603   20.8042 N   0  0  0  0  0  0  0  0  0  0  0  0
    9.4019  -15.6877   22.2739 C   0  0  0  0  0  0  0  0  0  0  0  0
   10.2117  -14.8054   22.5669 O   0  0  0  0  0  0  0  0  0  0  0  0
    8.7889  -16.4930   23.2609 N   0  0  0  0  0  0  0  0  0  0  0  0
    9.1467  -16.3960   24.6807 C   0  0  1  0  0  0  0  0  0  0  0  0
    7.9315  -16.4693   25.5288 C   0  0  0  0  0  0  0  0  0  0  0  0
    7.0642  -15.3034   25.3898 C   0  0  0  0  0  0  0  0  0  0  0  0
    5.8252  -15.2875   24.7952 C   0  0  0  0  0  0  0  0  0  0  0  0
    5.3723  -14.0405   24.8371 N   0  0  0  0  0  0  0  0  0  0  0  0
    6.2794  -13.2305   25.4440 C   0  0  0  0  0  0  0  0  0  0  0  0
    6.2637  -11.8651   25.7201 C   0  0  0  0  0  0  0  0  0  0  0  0
    7.3558  -11.3297   26.3571 C   0  0  0  0  0  0  0  0  0  0  0  0
    8.4498  -12.0795   26.7280 C   0  0  0  0  0  0  0  0  0  0  0  0
    8.4320  -13.4259   26.4397 C   0  0  0  0  0  0  0  0  0  0  0  0
    7.3476  -13.9974   25.7991 C   0  0  0  0  0  0  0  0  0  0  0  0
   10.2041  -17.3847   24.9112 C   0  0  0  0  0  0  0  0  0  0  0  0
   10.8003  -17.9359   23.9097 O   0  0  0  0  0  0  0  0  0  0  0  0
   14.0829  -20.2372   26.3955 N   0  0  0  0  0  0  0  0  0  0  0  0
   14.1952  -18.9416   25.7755 C   0  0  0  0  0  0  0  0  0  0  0  0
   15.2784  -18.5420   25.3198 O   0  0  0  0  0  0  0  0  0  0  0  0
   12.9824  -18.1383   25.7146 C   0  0  0  0  0  0  0  0  0  0  0  0
   11.7845  -18.8347   26.2629 C   0  0  2  0  0  0  0  0  0  0  0  0
   10.6887  -17.8360   26.1616 N   0  0  0  0  0  0  0  0  0  0  0  0
   11.9656  -19.2085   27.6729 C   0  0  0  0  0  0  0  0  0  0  0  0
   12.7442  -20.2701   28.0517 O   0  0  0  0  0  0  0  0  0  0  0  0
   11.4047  -18.5625   28.6119 O   0  0  0  0  0  0  0  0  0  0  0  0
  1  2  1  0
  2  3  2  0
  4  2  1  0
  4  5  1  0
  6  5  1  0
  6  7  1  1
  8  6  1  0
  8  9  2  0
 10  8  1  0
 11 10  1  0
 11 12  1  1
 13 12  1  0
 13 14  2  0
 15 14  1  0
 16 21  2  0
 16 15  1  0
 17 16  1  0
 18 17  2  0
 19 18  1  0
 19 20  2  0
 20 21  1  0
 21 13  1  0
 22 11  1  0
 23 22  2  0
 25 26  2  0
 25 24  1  0
 27 25  1  0
 28 27  1  1
 28 29  1  0
 29 22  1  0
 30 28  1  0
 31 30  1  0
 32 30  2  0
M  END
$$$$
