QWN.pdb
     RDKit          3D

 32 33  0  0  1  0  0  0  0  0999 V2000
    9.0663  -12.4933   18.3262 N   0  0  0  0  0  0  0  0  0  0  0  0
    8.2608  -13.6530   18.1804 C   0  0  0  0  0  0  0  0  0  0  0  0
    7.2133  -13.6165   17.5130 O   0  0  0  0  0  0  0  0  0  0  0  0
    8.6845  -14.9027   18.8313 C   0  0  0  0  0  0  0  0  0  0  0  0
    9.9042  -14.7578   19.6728 C   0  0  0  0  0  0  0  0  0  0  0  0
   10.2963  -16.0366   20.3843 C   0  0  2  0  0  0  0  0  0  0  0  0
    9.3421  -17.1045   20.0424 N   0  0  0  0  0  0  0  0  0  0  0  0
   10.1651  -15.7677   21.8400 C   0  0  0  0  0  0  0  0  0  0  0  0
   10.8012  -14.8380   22.3410 O   0  0  0  0  0  0  0  0  0  0  0  0
    9.3123  -16.5881   22.6136 N   0  0  0  0  0  0  0  0  0  0  0  0
    9.1321  -16.3865   24.0559 C   0  0  1  0  0  0  0  0  0  0  0  0
    7.6922  -16.2454   24.3847 C   0  0  0  0  0  0  0  0  0  0  0  0
    7.2134  -14.8700   24.2846 C   0  0  0  0  0  0  0  0  0  0  0  0
    6.6978  -14.2766   23.1572 C   0  0  0  0  0  0  0  0  0  0  0  0
    6.4085  -13.0169   23.4593 N   0  0  0  0  0  0  0  0  0  0  0  0
    6.7192  -12.7610   24.7575 C   0  0  0  0  0  0  0  0  0  0  0  0
    6.6028  -11.6060   25.5277 C   0  0  0  0  0  0  0  0  0  0  0  0
    7.0139  -11.6669   26.8363 C   0  0  0  0  0  0  0  0  0  0  0  0
    7.5291  -12.8090   27.4081 C   0  0  0  0  0  0  0  0  0  0  0  0
    7.6301  -13.9323   26.6181 C   0  0  0  0  0  0  0  0  0  0  0  0
    7.2250  -13.9054   25.2960 C   0  0  0  0  0  0  0  0  0  0  0  0
    9.8860  -17.4527   24.7218 C   0  0  0  0  0  0  0  0  0  0  0  0
   10.3721  -18.4266   24.0307 O   0  0  0  0  0  0  0  0  0  0  0  0
   12.6701  -20.6248   27.4066 N   0  0  0  0  0  0  0  0  0  0  0  0
   13.1574  -19.7178   26.3989 C   0  0  0  0  0  0  0  0  0  0  0  0
   14.2961  -19.8438   25.9213 O   0  0  0  0  0  0  0  0  0  0  0  0
   12.2507  -18.6592   25.9780 C   0  0  0  0  0  0  0  0  0  0  0  0
   10.9279  -18.7077   26.6627 C   0  0  2  0  0  0  0  0  0  0  0  0
   10.1719  -17.5568   26.1037 N   0  0  0  0  0  0  0  0  0  0  0  0
   11.0571  -18.5373   28.1169 C   0  0  0  0  0  0  0  0  0  0  0  0
   10.5075  -17.4706   28.7777 O   0  0  0  0  0  0  0  0  0  0  0  0
   11.6891  -19.3745   28.8335 O   0  0  0  0  0  0  0  0  0  0  0  0
  1  2  1  0
  2  3  2  0
  4  2  1  0
  4  5  1  0
  6  5  1  0
  6  7  1  6
  8  6  1  0
  8  9  2  0
 10  8  1  0
 11 10  1  0
 11 12  1  6
 13 12  1  0
 13 14  2  0
 15 14  1  0
 16 21  2  0
 16 15  1  0
 17 16  1  0
 18 17  2  0
 19 18  1  0
 19 20  2  0
 20 21  1  0
 21 13  1  0
 22 11  1  0
 23 22  2  0
 25 26  2  0
 25 24  1  0
 27 25  1  0
 28 27  1  6
 28 29  1  0
 29 22  1  0
 30 28  1  0
 31 30  1  0
 32 30  2  0
M  END
$$$$
