QWN.pdb
     RDKit          3D

 32 33  0  0  1  0  0  0  0  0999 V2000
    8.0898  -12.2708   16.6374 N   0  0  0  0  0  0  0  0  0  0  0  0
    7.6158  -13.5417   16.2190 C   0  0  0  0  0  0  0  0  0  0  0  0
    6.8482  -13.6426   15.2469 O   0  0  0  0  0  0  0  0  0  0  0  0
    8.0475  -14.7416   16.9530 C   0  0  0  0  0  0  0  0  0  0  0  0
    8.9642  -14.4524   18.0900 C   0  0  0  0  0  0  0  0  0  0  0  0
    9.3807  -15.6927   18.8539 C   0  0  2  0  0  0  0  0  0  0  0  0
    8.3637  -16.7433   18.6821 N   0  0  0  0  0  0  0  0  0  0  0  0
    9.3990  -15.3174   20.2918 C   0  0  0  0  0  0  0  0  0  0  0  0
   10.2274  -14.4958   20.6899 O   0  0  0  0  0  0  0  0  0  0  0  0
    8.4633  -15.9150   21.1671 N   0  0  0  0  0  0  0  0  0  0  0  0
    8.4132  -15.5893   22.5970 C   0  0  1  0  0  0  0  0  0  0  0  0
    7.0076  -15.4300   23.0445 C   0  0  0  0  0  0  0  0  0  0  0  0
    6.8918  -15.0809   24.4573 C   0  0  0  0  0  0  0  0  0  0  0  0
    6.5548  -15.9414   25.4746 C   0  0  0  0  0  0  0  0  0  0  0  0
    6.5232  -15.2419   26.6023 N   0  0  0  0  0  0  0  0  0  0  0  0
    6.8306  -13.9408   26.3578 C   0  0  0  0  0  0  0  0  0  0  0  0
    6.9255  -12.8368   27.2021 C   0  0  0  0  0  0  0  0  0  0  0  0
    7.2614  -11.6299   26.6401 C   0  0  0  0  0  0  0  0  0  0  0  0
    7.5043  -11.4713   25.2938 C   0  0  0  0  0  0  0  0  0  0  0  0
    7.4015  -12.5834   24.4883 C   0  0  0  0  0  0  0  0  0  0  0  0
    7.0654  -13.8143   25.0220 C   0  0  0  0  0  0  0  0  0  0  0  0
    9.2409  -16.5880   23.2798 C   0  0  0  0  0  0  0  0  0  0  0  0
    9.2979  -17.7947   22.8291 O   0  0  0  0  0  0  0  0  0  0  0  0
   13.6483  -19.1212   24.5251 N   0  0  0  0  0  0  0  0  0  0  0  0
   13.2433  -17.9942   25.3261 C   0  0  0  0  0  0  0  0  0  0  0  0
   13.7128  -17.8140   26.4609 O   0  0  0  0  0  0  0  0  0  0  0  0
   12.2652  -17.0907   24.7371 C   0  0  0  0  0  0  0  0  0  0  0  0
   10.8551  -17.4823   25.0182 C   0  0  2  0  0  0  0  0  0  0  0  0
   10.0365  -16.3888   24.4328 N   0  0  0  0  0  0  0  0  0  0  0  0
   10.5865  -17.5644   26.4610 C   0  0  0  0  0  0  0  0  0  0  0  0
   10.9391  -18.6577   27.2073 O   0  0  0  0  0  0  0  0  0  0  0  0
   10.0102  -16.6214   27.0873 O   0  0  0  0  0  0  0  0  0  0  0  0
  1  2  1  0
  2  3  2  0
  4  2  1  0
  4  5  1  0
  6  5  1  0
  6  7  1  1
  8  6  1  0
  8  9  2  0
 10  8  1  0
 11 10  1  0
 11 12  1  1
 13 12  1  0
 13 14  2  0
 15 14  1  0
 16 21  2  0
 16 15  1  0
 17 16  1  0
 18 17  2  0
 19 18  1  0
 19 20  2  0
 20 21  1  0
 21 13  1  0
 22 11  1  0
 23 22  2  0
 25 26  2  0
 25 24  1  0
 27 25  1  0
 28 27  1  1
 28 29  1  0
 29 22  1  0
 30 28  1  0
 31 30  1  0
 32 30  2  0
M  END
$$$$
