QWN.pdb
     RDKit          3D

 32 33  0  0  1  0  0  0  0  0999 V2000
   14.9827  -13.6291   17.2366 N   0  0  0  0  0  0  0  0  0  0  0  0
   14.6804  -14.8302   16.5432 C   0  0  0  0  0  0  0  0  0  0  0  0
   15.1831  -15.0630   15.4309 O   0  0  0  0  0  0  0  0  0  0  0  0
   13.7618  -15.7993   17.1614 C   0  0  0  0  0  0  0  0  0  0  0  0
   13.2871  -15.3979   18.5143 C   0  0  0  0  0  0  0  0  0  0  0  0
   13.1037  -16.5699   19.4567 C   0  0  2  0  0  0  0  0  0  0  0  0
   12.4588  -17.6831   18.7407 N   0  0  0  0  0  0  0  0  0  0  0  0
   12.1666  -16.1167   20.5175 C   0  0  0  0  0  0  0  0  0  0  0  0
   12.4825  -15.1647   21.2343 O   0  0  0  0  0  0  0  0  0  0  0  0
   10.9348  -16.7919   20.6769 N   0  0  0  0  0  0  0  0  0  0  0  0
   10.0186  -16.4940   21.7837 C   0  0  1  0  0  0  0  0  0  0  0  0
    8.6165  -16.4515   21.3002 C   0  0  0  0  0  0  0  0  0  0  0  0
    8.3870  -15.4156   20.2976 C   0  0  0  0  0  0  0  0  0  0  0  0
    8.2976  -15.6137   18.9406 C   0  0  0  0  0  0  0  0  0  0  0  0
    8.1190  -14.4288   18.3696 N   0  0  0  0  0  0  0  0  0  0  0  0
    8.0879  -13.4514   19.3136 C   0  0  0  0  0  0  0  0  0  0  0  0
    7.9276  -12.0712   19.2133 C   0  0  0  0  0  0  0  0  0  0  0  0
    7.9434  -11.3403   20.3754 C   0  0  0  0  0  0  0  0  0  0  0  0
    8.1092  -11.9108   21.6179 C   0  0  0  0  0  0  0  0  0  0  0  0
    8.2648  -13.2775   21.6804 C   0  0  0  0  0  0  0  0  0  0  0  0
    8.2536  -14.0437   20.5290 C   0  0  0  0  0  0  0  0  0  0  0  0
   10.3449  -17.4362   22.8581 C   0  0  0  0  0  0  0  0  0  0  0  0
    9.6158  -17.4796   23.9206 O   0  0  0  0  0  0  0  0  0  0  0  0
   12.4513  -21.0377   25.9020 N   0  0  0  0  0  0  0  0  0  0  0  0
   13.0384  -21.2063   24.5971 C   0  0  0  0  0  0  0  0  0  0  0  0
   13.8574  -22.1125   24.3763 O   0  0  0  0  0  0  0  0  0  0  0  0
   12.6223  -20.2663   23.5661 C   0  0  0  0  0  0  0  0  0  0  0  0
   11.6761  -19.2271   24.0616 C   0  0  2  0  0  0  0  0  0  0  0  0
   11.4142  -18.3626   22.8814 N   0  0  0  0  0  0  0  0  0  0  0  0
   12.2685  -18.4125   25.1321 C   0  0  0  0  0  0  0  0  0  0  0  0
   13.2397  -17.4784   24.8852 O   0  0  0  0  0  0  0  0  0  0  0  0
   11.9074  -18.5376   26.3435 O   0  0  0  0  0  0  0  0  0  0  0  0
  1  2  1  0
  2  3  2  0
  4  2  1  0
  4  5  1  0
  6  5  1  0
  6  7  1  6
  8  6  1  0
  8  9  2  0
 10  8  1  0
 11 10  1  0
 11 12  1  6
 13 12  1  0
 13 14  2  0
 15 14  1  0
 16 21  2  0
 16 15  1  0
 17 16  1  0
 18 17  2  0
 19 18  1  0
 19 20  2  0
 20 21  1  0
 21 13  1  0
 22 11  1  0
 23 22  2  0
 25 26  2  0
 25 24  1  0
 27 25  1  0
 28 27  1  6
 28 29  1  0
 29 22  1  0
 30 28  1  0
 31 30  1  0
 32 30  2  0
M  END
$$$$
