QWN.pdb
     RDKit          3D

 32 33  0  0  1  0  0  0  0  0999 V2000
    8.5102  -12.4750   18.6284 N   0  0  0  0  0  0  0  0  0  0  0  0
    7.8648  -13.6518   18.1660 C   0  0  0  0  0  0  0  0  0  0  0  0
    7.3991  -13.7080   17.0154 O   0  0  0  0  0  0  0  0  0  0  0  0
    7.7555  -14.8078   19.0698 C   0  0  0  0  0  0  0  0  0  0  0  0
    8.2971  -14.5569   20.4337 C   0  0  0  0  0  0  0  0  0  0  0  0
    8.7000  -15.8237   21.1604 C   0  0  2  0  0  0  0  0  0  0  0  0
    7.4987  -16.6118   21.4823 N   0  0  0  0  0  0  0  0  0  0  0  0
    9.3137  -15.3972   22.4450 C   0  0  0  0  0  0  0  0  0  0  0  0
   10.1528  -14.4940   22.4417 O   0  0  0  0  0  0  0  0  0  0  0  0
    8.9179  -16.0410   23.6398 N   0  0  0  0  0  0  0  0  0  0  0  0
    9.6456  -15.8619   24.9014 C   0  0  1  0  0  0  0  0  0  0  0  0
    8.7387  -16.0664   26.0577 C   0  0  0  0  0  0  0  0  0  0  0  0
    7.5019  -15.2972   25.9593 C   0  0  0  0  0  0  0  0  0  0  0  0
    6.2693  -15.7951   25.6107 C   0  0  0  0  0  0  0  0  0  0  0  0
    5.4115  -14.7821   25.6022 N   0  0  0  0  0  0  0  0  0  0  0  0
    6.0444  -13.6266   25.9360 C   0  0  0  0  0  0  0  0  0  0  0  0
    5.5806  -12.3189   26.0608 C   0  0  0  0  0  0  0  0  0  0  0  0
    6.4867  -11.3514   26.4189 C   0  0  0  0  0  0  0  0  0  0  0  0
    7.8164  -11.6202   26.6558 C   0  0  0  0  0  0  0  0  0  0  0  0
    8.2407  -12.9235   26.5234 C   0  0  0  0  0  0  0  0  0  0  0  0
    7.3543  -13.9225   26.1643 C   0  0  0  0  0  0  0  0  0  0  0  0
   10.8435  -16.7020   24.8129 C   0  0  0  0  0  0  0  0  0  0  0  0
   11.5480  -16.9331   25.8678 O   0  0  0  0  0  0  0  0  0  0  0  0
   13.6084  -21.0330   21.7556 N   0  0  0  0  0  0  0  0  0  0  0  0
   13.8156  -19.6777   22.1982 C   0  0  0  0  0  0  0  0  0  0  0  0
   14.9585  -19.2398   22.4047 O   0  0  0  0  0  0  0  0  0  0  0  0
   12.6246  -18.8619   22.3871 C   0  0  0  0  0  0  0  0  0  0  0  0
   12.6059  -18.1366   23.6887 C   0  0  2  0  0  0  0  0  0  0  0  0
   11.3553  -17.3344   23.6551 N   0  0  0  0  0  0  0  0  0  0  0  0
   13.7549  -17.2303   23.8275 C   0  0  0  0  0  0  0  0  0  0  0  0
   13.8527  -16.0629   23.1174 O   0  0  0  0  0  0  0  0  0  0  0  0
   14.7172  -17.4886   24.6154 O   0  0  0  0  0  0  0  0  0  0  0  0
  1  2  1  0
  2  3  2  0
  4  2  1  0
  4  5  1  0
  6  5  1  0
  6  7  1  1
  8  6  1  0
  8  9  2  0
 10  8  1  0
 11 10  1  0
 11 12  1  1
 13 12  1  0
 13 14  2  0
 15 14  1  0
 16 21  2  0
 16 15  1  0
 17 16  1  0
 18 17  2  0
 19 18  1  0
 19 20  2  0
 20 21  1  0
 21 13  1  0
 22 11  1  0
 23 22  2  0
 25 26  2  0
 25 24  1  0
 27 25  1  0
 28 27  1  6
 28 29  1  0
 29 22  1  0
 30 28  1  0
 31 30  1  0
 32 30  2  0
M  END
$$$$
