QWN.pdb
     RDKit          3D

 32 33  0  0  1  0  0  0  0  0999 V2000
    8.8279  -12.9798   17.9954 N   0  0  0  0  0  0  0  0  0  0  0  0
    7.6352  -13.6553   18.3644 C   0  0  0  0  0  0  0  0  0  0  0  0
    6.6346  -13.6212   17.6283 O   0  0  0  0  0  0  0  0  0  0  0  0
    7.5997  -14.3994   19.6333 C   0  0  0  0  0  0  0  0  0  0  0  0
    8.8500  -14.2821   20.4332 C   0  0  0  0  0  0  0  0  0  0  0  0
    9.2782  -15.5884   21.0701 C   0  0  2  0  0  0  0  0  0  0  0  0
    8.1172  -16.4869   21.1825 N   0  0  0  0  0  0  0  0  0  0  0  0
    9.7257  -15.2599   22.4486 C   0  0  0  0  0  0  0  0  0  0  0  0
   10.4916  -14.3097   22.6234 O   0  0  0  0  0  0  0  0  0  0  0  0
    9.2602  -16.0485   23.5256 N   0  0  0  0  0  0  0  0  0  0  0  0
    9.7050  -15.8256   24.9061 C   0  0  1  0  0  0  0  0  0  0  0  0
    8.6337  -16.1962   25.8633 C   0  0  0  0  0  0  0  0  0  0  0  0
    7.4787  -15.3053   25.8042 C   0  0  0  0  0  0  0  0  0  0  0  0
    6.2216  -15.6443   25.3643 C   0  0  0  0  0  0  0  0  0  0  0  0
    5.4623  -14.5577   25.4326 N   0  0  0  0  0  0  0  0  0  0  0  0
    6.1843  -13.5081   25.9063 C   0  0  0  0  0  0  0  0  0  0  0  0
    5.8385  -12.1810   26.1511 C   0  0  0  0  0  0  0  0  0  0  0  0
    6.8137  -11.3464   26.6385 C   0  0  0  0  0  0  0  0  0  0  0  0
    8.1014  -11.7647   26.8907 C   0  0  0  0  0  0  0  0  0  0  0  0
    8.4087  -13.0828   26.6374 C   0  0  0  0  0  0  0  0  0  0  0  0
    7.4501  -13.9505   26.1464 C   0  0  0  0  0  0  0  0  0  0  0  0
   11.0028  -16.4942   25.0375 C   0  0  0  0  0  0  0  0  0  0  0  0
   11.4486  -16.8126   26.2047 O   0  0  0  0  0  0  0  0  0  0  0  0
   13.7253  -20.5961   24.0262 N   0  0  0  0  0  0  0  0  0  0  0  0
   12.2858  -20.5364   24.0225 C   0  0  0  0  0  0  0  0  0  0  0  0
   11.6026  -21.5722   23.9910 O   0  0  0  0  0  0  0  0  0  0  0  0
   11.6860  -19.2102   24.0574 C   0  0  0  0  0  0  0  0  0  0  0  0
   12.6889  -18.1080   24.0472 C   0  0  2  0  0  0  0  0  0  0  0  0
   11.8796  -16.8628   23.9898 N   0  0  0  0  0  0  0  0  0  0  0  0
   13.5596  -18.1704   22.8646 C   0  0  0  0  0  0  0  0  0  0  0  0
   14.8885  -18.4906   22.9537 O   0  0  0  0  0  0  0  0  0  0  0  0
   13.1193  -17.9276   21.6980 O   0  0  0  0  0  0  0  0  0  0  0  0
  1  2  1  0
  2  3  2  0
  4  2  1  0
  4  5  1  0
  6  5  1  0
  6  7  1  1
  8  6  1  0
  8  9  2  0
 10  8  1  0
 11 10  1  0
 11 12  1  1
 13 12  1  0
 13 14  2  0
 15 14  1  0
 16 21  2  0
 16 15  1  0
 17 16  1  0
 18 17  2  0
 19 18  1  0
 19 20  2  0
 20 21  1  0
 21 13  1  0
 22 11  1  0
 23 22  2  0
 25 26  2  0
 25 24  1  0
 27 25  1  0
 28 27  1  6
 28 29  1  0
 29 22  1  0
 30 28  1  0
 31 30  1  0
 32 30  2  0
M  END
$$$$
