QWN.pdb
     RDKit          3D

 32 33  0  0  1  0  0  0  0  0999 V2000
    7.8613  -12.5931   19.0486 N   0  0  0  0  0  0  0  0  0  0  0  0
    8.2356  -13.7234   18.2757 C   0  0  0  0  0  0  0  0  0  0  0  0
    7.5689  -14.0603   17.2827 O   0  0  0  0  0  0  0  0  0  0  0  0
    9.4275  -14.4925   18.6667 C   0  0  0  0  0  0  0  0  0  0  0  0
    9.7267  -14.4364   20.1242 C   0  0  0  0  0  0  0  0  0  0  0  0
   10.0936  -15.7835   20.7124 C   0  0  2  0  0  0  0  0  0  0  0  0
    9.0546  -16.7700   20.3735 N   0  0  0  0  0  0  0  0  0  0  0  0
   10.0876  -15.6157   22.1891 C   0  0  0  0  0  0  0  0  0  0  0  0
   10.8171  -14.7644   22.7020 O   0  0  0  0  0  0  0  0  0  0  0  0
    9.2435  -16.4397   22.9682 N   0  0  0  0  0  0  0  0  0  0  0  0
    9.1466  -16.3019   24.4259 C   0  0  1  0  0  0  0  0  0  0  0  0
    7.7279  -16.1802   24.8430 C   0  0  0  0  0  0  0  0  0  0  0  0
    7.1999  -14.8276   24.6919 C   0  0  0  0  0  0  0  0  0  0  0  0
    6.6617  -14.2966   23.5441 C   0  0  0  0  0  0  0  0  0  0  0  0
    6.3279  -13.0374   23.7988 N   0  0  0  0  0  0  0  0  0  0  0  0
    6.6311  -12.7211   25.0853 C   0  0  0  0  0  0  0  0  0  0  0  0
    6.4745  -11.5424   25.8112 C   0  0  0  0  0  0  0  0  0  0  0  0
    6.8894  -11.5385   27.1201 C   0  0  0  0  0  0  0  0  0  0  0  0
    7.4461  -12.6386   27.7336 C   0  0  0  0  0  0  0  0  0  0  0  0
    7.5862  -13.7870   26.9867 C   0  0  0  0  0  0  0  0  0  0  0  0
    7.1785  -13.8253   25.6657 C   0  0  0  0  0  0  0  0  0  0  0  0
    9.9386  -17.3935   25.0000 C   0  0  0  0  0  0  0  0  0  0  0  0
    9.7019  -18.6127   24.6535 O   0  0  0  0  0  0  0  0  0  0  0  0
   13.2539  -20.5442   25.9963 N   0  0  0  0  0  0  0  0  0  0  0  0
   13.9190  -19.2858   26.2199 C   0  0  0  0  0  0  0  0  0  0  0  0
   15.1494  -19.1812   26.0944 O   0  0  0  0  0  0  0  0  0  0  0  0
   13.0774  -18.1589   26.5963 C   0  0  0  0  0  0  0  0  0  0  0  0
   11.6209  -18.4717   26.5605 C   0  0  2  0  0  0  0  0  0  0  0  0
   10.9944  -17.2780   25.9349 N   0  0  0  0  0  0  0  0  0  0  0  0
   11.0664  -18.6543   27.9095 C   0  0  0  0  0  0  0  0  0  0  0  0
   11.1316  -19.8535   28.5685 O   0  0  0  0  0  0  0  0  0  0  0  0
   10.4961  -17.7044   28.5309 O   0  0  0  0  0  0  0  0  0  0  0  0
  1  2  1  0
  2  3  2  0
  4  2  1  0
  4  5  1  0
  6  5  1  0
  6  7  1  1
  8  6  1  0
  8  9  2  0
 10  8  1  0
 11 10  1  0
 11 12  1  1
 13 12  1  0
 13 14  2  0
 15 14  1  0
 16 21  2  0
 16 15  1  0
 17 16  1  0
 18 17  2  0
 19 18  1  0
 19 20  2  0
 20 21  1  0
 21 13  1  0
 22 11  1  0
 23 22  2  0
 25 26  2  0
 25 24  1  0
 27 25  1  0
 28 27  1  1
 28 29  1  0
 29 22  1  0
 30 28  1  0
 31 30  1  0
 32 30  2  0
M  END
$$$$
