QWN.pdb
     RDKit          3D

 32 33  0  0  1  0  0  0  0  0999 V2000
    8.2298  -12.8476   17.1999 N   0  0  0  0  0  0  0  0  0  0  0  0
    7.7276  -14.1020   17.6348 C   0  0  0  0  0  0  0  0  0  0  0  0
    7.4955  -15.0089   16.8176 O   0  0  0  0  0  0  0  0  0  0  0  0
    7.4857  -14.3150   19.0705 C   0  0  0  0  0  0  0  0  0  0  0  0
    8.7077  -14.1847   19.9110 C   0  0  0  0  0  0  0  0  0  0  0  0
    9.2427  -15.5151   20.4001 C   0  0  2  0  0  0  0  0  0  0  0  0
    8.1706  -16.5234   20.3601 N   0  0  0  0  0  0  0  0  0  0  0  0
    9.6220  -15.3205   21.8238 C   0  0  0  0  0  0  0  0  0  0  0  0
   10.3207  -14.3536   22.1348 O   0  0  0  0  0  0  0  0  0  0  0  0
    9.1705  -16.2526   22.7861 N   0  0  0  0  0  0  0  0  0  0  0  0
    9.4666  -16.1047   24.2157 C   0  0  1  0  0  0  0  0  0  0  0  0
    8.2950  -16.5057   25.0330 C   0  0  0  0  0  0  0  0  0  0  0  0
    7.3325  -15.4249   25.2244 C   0  0  0  0  0  0  0  0  0  0  0  0
    6.0069  -15.4534   24.8628 C   0  0  0  0  0  0  0  0  0  0  0  0
    5.4781  -14.2755   25.1708 N   0  0  0  0  0  0  0  0  0  0  0  0
    6.4194  -13.4680   25.7268 C   0  0  0  0  0  0  0  0  0  0  0  0
    6.3536  -12.1611   26.2049 C   0  0  0  0  0  0  0  0  0  0  0  0
    7.5022  -11.6098   26.7166 C   0  0  0  0  0  0  0  0  0  0  0  0
    8.6989  -12.2889   26.7746 C   0  0  0  0  0  0  0  0  0  0  0  0
    8.7281  -13.5788   26.2933 C   0  0  0  0  0  0  0  0  0  0  0  0
    7.5891  -14.1645   25.7713 C   0  0  0  0  0  0  0  0  0  0  0  0
   10.7362  -16.7983   24.4510 C   0  0  0  0  0  0  0  0  0  0  0  0
   11.0691  -17.8013   23.7123 O   0  0  0  0  0  0  0  0  0  0  0  0
   11.9948  -19.2714   28.5151 N   0  0  0  0  0  0  0  0  0  0  0  0
   10.7639  -18.5380   28.3640 C   0  0  0  0  0  0  0  0  0  0  0  0
    9.7966  -18.7504   29.1122 O   0  0  0  0  0  0  0  0  0  0  0  0
   10.7194  -17.5471   27.2983 C   0  0  0  0  0  0  0  0  0  0  0  0
   12.0053  -17.4202   26.5558 C   0  0  2  0  0  0  0  0  0  0  0  0
   11.7038  -16.4903   25.4364 N   0  0  0  0  0  0  0  0  0  0  0  0
   12.4491  -18.7085   26.0045 C   0  0  0  0  0  0  0  0  0  0  0  0
   13.7337  -19.1609   26.1520 O   0  0  0  0  0  0  0  0  0  0  0  0
   11.6590  -19.4666   25.3606 O   0  0  0  0  0  0  0  0  0  0  0  0
  1  2  1  0
  2  3  2  0
  4  2  1  0
  4  5  1  0
  6  5  1  0
  6  7  1  1
  8  6  1  0
  8  9  2  0
 10  8  1  0
 11 10  1  0
 11 12  1  1
 13 12  1  0
 13 14  2  0
 15 14  1  0
 16 21  2  0
 16 15  1  0
 17 16  1  0
 18 17  2  0
 19 18  1  0
 19 20  2  0
 20 21  1  0
 21 13  1  0
 22 11  1  0
 23 22  2  0
 25 26  2  0
 25 24  1  0
 27 25  1  0
 28 27  1  6
 28 29  1  0
 29 22  1  0
 30 28  1  0
 31 30  1  0
 32 30  2  0
M  END
$$$$
