QWN.pdb
     RDKit          3D

 32 33  0  0  1  0  0  0  0  0999 V2000
    9.3466  -12.5285   19.3322 N   0  0  0  0  0  0  0  0  0  0  0  0
    8.2506  -13.4305   19.3261 C   0  0  0  0  0  0  0  0  0  0  0  0
    7.1410  -13.0756   18.8937 O   0  0  0  0  0  0  0  0  0  0  0  0
    8.4468  -14.7956   19.8391 C   0  0  0  0  0  0  0  0  0  0  0  0
    9.8319  -15.0652   20.3139 C   0  0  0  0  0  0  0  0  0  0  0  0
    9.9986  -16.4422   20.9234 C   0  0  2  0  0  0  0  0  0  0  0  0
    8.8448  -17.2837   20.5653 N   0  0  0  0  0  0  0  0  0  0  0  0
    9.9779  -16.2571   22.3978 C   0  0  0  0  0  0  0  0  0  0  0  0
   10.7988  -15.5014   22.9221 O   0  0  0  0  0  0  0  0  0  0  0  0
    9.0148  -16.9552   23.1618 N   0  0  0  0  0  0  0  0  0  0  0  0
    8.9371  -16.8314   24.6220 C   0  0  1  0  0  0  0  0  0  0  0  0
    7.5345  -16.6064   25.0503 C   0  0  0  0  0  0  0  0  0  0  0  0
    7.0428  -15.2710   24.7245 C   0  0  0  0  0  0  0  0  0  0  0  0
    6.3407  -14.9245   23.5950 C   0  0  0  0  0  0  0  0  0  0  0  0
    6.1048  -13.6194   23.6497 N   0  0  0  0  0  0  0  0  0  0  0  0
    6.6327  -13.0930   24.7861 C   0  0  0  0  0  0  0  0  0  0  0  0
    6.6476  -11.7923   25.2847 C   0  0  0  0  0  0  0  0  0  0  0  0
    7.2767  -11.5759   26.4858 C   0  0  0  0  0  0  0  0  0  0  0  0
    7.8846  -12.5804   27.2056 C   0  0  0  0  0  0  0  0  0  0  0  0
    7.8511  -13.8541   26.6834 C   0  0  0  0  0  0  0  0  0  0  0  0
    7.2255  -14.1069   25.4761 C   0  0  0  0  0  0  0  0  0  0  0  0
    9.6454  -17.9893   25.1754 C   0  0  0  0  0  0  0  0  0  0  0  0
    9.7907  -19.0556   24.4653 O   0  0  0  0  0  0  0  0  0  0  0  0
   12.4869  -21.1686   25.5189 N   0  0  0  0  0  0  0  0  0  0  0  0
   13.0047  -19.8680   25.1780 C   0  0  0  0  0  0  0  0  0  0  0  0
   13.9033  -19.7389   24.3316 O   0  0  0  0  0  0  0  0  0  0  0  0
   12.4220  -18.7292   25.8732 C   0  0  0  0  0  0  0  0  0  0  0  0
   11.2835  -19.0985   26.7609 C   0  0  2  0  0  0  0  0  0  0  0  0
   10.2298  -18.0947   26.4597 N   0  0  0  0  0  0  0  0  0  0  0  0
   11.6445  -19.0048   28.1827 C   0  0  0  0  0  0  0  0  0  0  0  0
   12.0425  -17.8268   28.7578 O   0  0  0  0  0  0  0  0  0  0  0  0
   11.6059  -20.0169   28.9492 O   0  0  0  0  0  0  0  0  0  0  0  0
  1  2  1  0
  2  3  2  0
  4  2  1  0
  4  5  1  0
  6  5  1  0
  6  7  1  1
  8  6  1  0
  8  9  2  0
 10  8  1  0
 11 10  1  0
 11 12  1  6
 13 12  1  0
 13 14  2  0
 15 14  1  0
 16 21  2  0
 16 15  1  0
 17 16  1  0
 18 17  2  0
 19 18  1  0
 19 20  2  0
 20 21  1  0
 21 13  1  0
 22 11  1  0
 23 22  2  0
 25 26  2  0
 25 24  1  0
 27 25  1  0
 28 27  1  6
 28 29  1  0
 29 22  1  0
 30 28  1  0
 31 30  1  0
 32 30  2  0
M  END
$$$$
