QWN.pdb
     RDKit          3D

 32 33  0  0  1  0  0  0  0  0999 V2000
    8.6196  -12.4575   18.5218 N   0  0  0  0  0  0  0  0  0  0  0  0
    8.0504  -13.5562   17.8261 C   0  0  0  0  0  0  0  0  0  0  0  0
    7.8797  -13.5070   16.5962 O   0  0  0  0  0  0  0  0  0  0  0  0
    7.6651  -14.7579   18.5828 C   0  0  0  0  0  0  0  0  0  0  0  0
    7.8208  -14.6148   20.0566 C   0  0  0  0  0  0  0  0  0  0  0  0
    8.2442  -15.8983   20.7413 C   0  0  2  0  0  0  0  0  0  0  0  0
    7.1203  -16.4320   21.5286 N   0  0  0  0  0  0  0  0  0  0  0  0
    9.3248  -15.5326   21.6938 C   0  0  0  0  0  0  0  0  0  0  0  0
   10.3869  -15.0840   21.2572 O   0  0  0  0  0  0  0  0  0  0  0  0
    9.1052  -15.7100   23.0791 N   0  0  0  0  0  0  0  0  0  0  0  0
   10.1955  -15.6353   24.0584 C   0  0  1  0  0  0  0  0  0  0  0  0
    9.9199  -14.5789   25.0631 C   0  0  0  0  0  0  0  0  0  0  0  0
    8.5008  -14.4431   25.3776 C   0  0  0  0  0  0  0  0  0  0  0  0
    7.5605  -15.4429   25.3054 C   0  0  0  0  0  0  0  0  0  0  0  0
    6.3866  -14.9189   25.6359 N   0  0  0  0  0  0  0  0  0  0  0  0
    6.5254  -13.5982   25.9249 C   0  0  0  0  0  0  0  0  0  0  0  0
    5.5998  -12.6329   26.3151 C   0  0  0  0  0  0  0  0  0  0  0  0
    6.0605  -11.3583   26.5350 C   0  0  0  0  0  0  0  0  0  0  0  0
    7.3828  -11.0029   26.3869 C   0  0  0  0  0  0  0  0  0  0  0  0
    8.2705  -11.9819   26.0001 C   0  0  0  0  0  0  0  0  0  0  0  0
    7.8399  -13.2760   25.7705 C   0  0  0  0  0  0  0  0  0  0  0  0
   10.4133  -17.0016   24.5425 C   0  0  0  0  0  0  0  0  0  0  0  0
    9.9872  -17.3475   25.7092 O   0  0  0  0  0  0  0  0  0  0  0  0
    9.7705  -20.0469   24.3352 N   0  0  0  0  0  0  0  0  0  0  0  0
   10.8420  -20.7302   23.6565 C   0  0  0  0  0  0  0  0  0  0  0  0
   10.6328  -21.7750   23.0199 O   0  0  0  0  0  0  0  0  0  0  0  0
   12.1663  -20.1338   23.7582 C   0  0  0  0  0  0  0  0  0  0  0  0
   12.1719  -18.8265   24.4733 C   0  0  2  0  0  0  0  0  0  0  0  0
   11.0629  -18.0541   23.8552 N   0  0  0  0  0  0  0  0  0  0  0  0
   13.4335  -18.0988   24.2749 C   0  0  0  0  0  0  0  0  0  0  0  0
   13.7595  -17.5174   23.0780 O   0  0  0  0  0  0  0  0  0  0  0  0
   14.2866  -17.9751   25.2079 O   0  0  0  0  0  0  0  0  0  0  0  0
  1  2  1  0
  2  3  2  0
  4  2  1  0
  4  5  1  0
  6  5  1  0
  6  7  1  1
  8  6  1  0
  8  9  2  0
 10  8  1  0
 11 10  1  0
 11 12  1  1
 13 12  1  0
 13 14  2  0
 15 14  1  0
 16 21  2  0
 16 15  1  0
 17 16  1  0
 18 17  2  0
 19 18  1  0
 19 20  2  0
 20 21  1  0
 21 13  1  0
 22 11  1  0
 23 22  2  0
 25 26  2  0
 25 24  1  0
 27 25  1  0
 28 27  1  6
 28 29  1  0
 29 22  1  0
 30 28  1  0
 31 30  1  0
 32 30  2  0
M  END
$$$$
