QWN.pdb
     RDKit          3D

 32 33  0  0  1  0  0  0  0  0999 V2000
   12.6922  -19.2584   17.5989 N   0  0  0  0  0  0  0  0  0  0  0  0
   11.4556  -19.8266   17.1950 C   0  0  0  0  0  0  0  0  0  0  0  0
   11.4116  -20.6548   16.2697 O   0  0  0  0  0  0  0  0  0  0  0  0
   10.2233  -19.4214   17.8894 C   0  0  0  0  0  0  0  0  0  0  0  0
   10.4325  -18.3623   18.9148 C   0  0  0  0  0  0  0  0  0  0  0  0
    9.6180  -18.5786   20.1738 C   0  0  2  0  0  0  0  0  0  0  0  0
    8.1885  -18.6565   19.8299 N   0  0  0  0  0  0  0  0  0  0  0  0
    9.8112  -17.3689   21.0152 C   0  0  0  0  0  0  0  0  0  0  0  0
   10.8371  -16.6986   20.8808 O   0  0  0  0  0  0  0  0  0  0  0  0
    8.8105  -17.0186   21.9504 N   0  0  0  0  0  0  0  0  0  0  0  0
    8.9694  -15.8940   22.8797 C   0  0  1  0  0  0  0  0  0  0  0  0
    7.6826  -15.1753   23.0501 C   0  0  0  0  0  0  0  0  0  0  0  0
    7.8263  -13.8993   23.7445 C   0  0  0  0  0  0  0  0  0  0  0  0
    8.5031  -12.7988   23.2756 C   0  0  0  0  0  0  0  0  0  0  0  0
    8.4342  -11.8547   24.2060 N   0  0  0  0  0  0  0  0  0  0  0  0
    7.7294  -12.3017   25.2788 C   0  0  0  0  0  0  0  0  0  0  0  0
    7.3917  -11.6918   26.4849 C   0  0  0  0  0  0  0  0  0  0  0  0
    6.6570  -12.4220   27.3861 C   0  0  0  0  0  0  0  0  0  0  0  0
    6.2473  -13.7149   27.1469 C   0  0  0  0  0  0  0  0  0  0  0  0
    6.5986  -14.2869   25.9446 C   0  0  0  0  0  0  0  0  0  0  0  0
    7.3380  -13.5793   25.0144 C   0  0  0  0  0  0  0  0  0  0  0  0
    9.6168  -16.4342   24.0786 C   0  0  0  0  0  0  0  0  0  0  0  0
    9.1856  -17.5289   24.6061 O   0  0  0  0  0  0  0  0  0  0  0  0
   12.9362  -17.6024   23.9476 N   0  0  0  0  0  0  0  0  0  0  0  0
   13.5949  -16.6855   24.8426 C   0  0  0  0  0  0  0  0  0  0  0  0
   14.7992  -16.4158   24.7099 O   0  0  0  0  0  0  0  0  0  0  0  0
   12.7790  -16.1010   25.8973 C   0  0  0  0  0  0  0  0  0  0  0  0
   11.3735  -16.5960   25.8995 C   0  0  2  0  0  0  0  0  0  0  0  0
   10.7211  -15.8829   24.7706 N   0  0  0  0  0  0  0  0  0  0  0  0
   10.6758  -16.2588   27.1486 C   0  0  0  0  0  0  0  0  0  0  0  0
   10.9022  -16.9380   28.3165 O   0  0  0  0  0  0  0  0  0  0  0  0
    9.8242  -15.3178   27.2043 O   0  0  0  0  0  0  0  0  0  0  0  0
  1  2  1  0
  2  3  2  0
  4  2  1  0
  4  5  1  0
  6  5  1  0
  6  7  1  6
  8  6  1  0
  8  9  2  0
 10  8  1  0
 11 10  1  0
 11 12  1  1
 13 12  1  0
 13 14  2  0
 15 14  1  0
 16 21  2  0
 16 15  1  0
 17 16  1  0
 18 17  2  0
 19 18  1  0
 19 20  2  0
 20 21  1  0
 21 13  1  0
 22 11  1  0
 23 22  2  0
 25 26  2  0
 25 24  1  0
 27 25  1  0
 28 27  1  1
 28 29  1  0
 29 22  1  0
 30 28  1  0
 31 30  1  0
 32 30  2  0
M  END
$$$$
