GHL.pdb
     RDKit          3D

 23 23  0  0  1  0  0  0  0  0999 V2000
    7.6927  -12.6423   18.9251 N   0  0  0  0  0  0  0  0  0  0  0  0
    8.6442  -13.5517   19.5040 C   0  0  0  0  0  0  0  0  0  0  0  0
    8.1033  -14.2366   20.7079 C   0  0  0  0  0  0  0  0  0  0  0  0
    7.0272  -13.8175   21.2046 O   0  0  0  0  0  0  0  0  0  0  0  0
    8.7302  -15.3319   21.3255 N   0  0  0  0  0  0  0  0  0  0  0  0
    8.0626  -16.0525   22.4007 C   0  0  1  0  0  0  0  0  0  0  0  0
    8.2390  -17.5271   22.2512 C   0  0  0  0  0  0  0  0  0  0  0  0
    7.5570  -18.2927   23.2939 C   0  0  0  0  0  0  0  0  0  0  0  0
    6.5608  -17.6989   24.0856 C   0  0  0  0  0  0  0  0  0  0  0  0
    6.0817  -18.5818   24.9653 N   0  0  0  0  0  0  0  0  0  0  0  0
    6.7597  -19.7275   24.7433 C   0  0  0  0  0  0  0  0  0  0  0  0
    7.6374  -19.5400   23.7423 N   0  0  0  0  0  0  0  0  0  0  0  0
    8.6139  -15.4886   23.6569 C   0  0  0  0  0  0  0  0  0  0  0  0
    9.8346  -15.2907   23.8079 O   0  0  0  0  0  0  0  0  0  0  0  0
    7.7628  -11.6759   25.6939 C   0  0  0  0  0  0  0  0  0  0  0  0
    6.6790  -12.7527   25.8392 C   0  0  2  0  0  0  0  0  0  0  0  0
    5.4640  -12.1032   26.4089 C   0  0  0  0  0  0  0  0  0  0  0  0
    7.2574  -13.8300   26.6865 C   0  0  0  0  0  0  0  0  0  0  0  0
    8.3363  -14.6380   26.0179 C   0  0  2  0  0  0  0  0  0  0  0  0
    7.7847  -15.1430   24.7570 N   0  0  0  0  0  0  0  0  0  0  0  0
    8.8330  -15.7295   26.8655 C   0  0  0  0  0  0  0  0  0  0  0  0
    9.6834  -15.3870   27.9325 O   0  0  0  0  0  0  0  0  0  0  0  0
    8.5636  -16.9307   26.7174 O   0  0  0  0  0  0  0  0  0  0  0  0
  2  3  1  0
  2  1  1  0
  3  4  2  0
  5  6  1  0
  5  3  1  0
  6  7  1  6
  8  7  1  0
  8  9  2  0
 10  9  1  0
 11 10  1  0
 12 11  2  0
 12  8  1  0
 13  6  1  0
 13 20  1  0
 14 13  2  0
 16 15  1  1
 16 17  1  0
 18 16  1  0
 19 20  1  0
 19 18  1  1
 21 19  1  0
 22 21  1  0
 23 21  2  0
M  END
$$$$
