GHL.pdb
     RDKit          3D

 23 23  0  0  1  0  0  0  0  0999 V2000
   12.2939  -17.5492   19.4299 N   0  0  0  0  0  0  0  0  0  0  0  0
   11.1284  -17.7328   20.2516 C   0  0  0  0  0  0  0  0  0  0  0  0
   10.4766  -16.4413   20.5955 C   0  0  0  0  0  0  0  0  0  0  0  0
   11.1680  -15.3919   20.5618 O   0  0  0  0  0  0  0  0  0  0  0  0
    9.1240  -16.3263   20.9580 N   0  0  0  0  0  0  0  0  0  0  0  0
    8.5869  -15.0480   21.4035 C   0  0  1  0  0  0  0  0  0  0  0  0
    7.3152  -14.7215   20.6935 C   0  0  0  0  0  0  0  0  0  0  0  0
    7.4995  -14.5139   19.2578 C   0  0  0  0  0  0  0  0  0  0  0  0
    7.9618  -13.2835   18.7635 C   0  0  0  0  0  0  0  0  0  0  0  0
    8.0522  -13.3246   17.4319 N   0  0  0  0  0  0  0  0  0  0  0  0
    7.6540  -14.5635   17.0740 C   0  0  0  0  0  0  0  0  0  0  0  0
    7.3269  -15.2626   18.1748 N   0  0  0  0  0  0  0  0  0  0  0  0
    8.4598  -15.1640   22.8766 C   0  0  0  0  0  0  0  0  0  0  0  0
    8.6929  -16.2321   23.4740 O   0  0  0  0  0  0  0  0  0  0  0  0
    5.6201  -12.0628   27.2902 C   0  0  0  0  0  0  0  0  0  0  0  0
    6.8310  -12.9789   27.0667 C   0  0  2  0  0  0  0  0  0  0  0  0
    7.9718  -12.4269   27.8519 C   0  0  0  0  0  0  0  0  0  0  0  0
    7.0613  -13.0324   25.5980 C   0  0  0  0  0  0  0  0  0  0  0  0
    7.8990  -14.1953   25.1398 C   0  0  2  0  0  0  0  0  0  0  0  0
    8.0659  -14.0675   23.6889 N   0  0  0  0  0  0  0  0  0  0  0  0
    7.3139  -15.4920   25.5040 C   0  0  0  0  0  0  0  0  0  0  0  0
    7.9637  -16.2395   26.5030 O   0  0  0  0  0  0  0  0  0  0  0  0
    6.2920  -15.9829   25.0019 O   0  0  0  0  0  0  0  0  0  0  0  0
  2  3  1  0
  2  1  1  0
  3  4  2  0
  5  6  1  0
  5  3  1  0
  6  7  1  6
  8  7  1  0
  8  9  2  0
 10  9  1  0
 11 10  1  0
 12 11  2  0
 12  8  1  0
 13  6  1  0
 13 20  1  0
 14 13  2  0
 16 15  1  6
 16 17  1  0
 18 16  1  0
 19 20  1  0
 19 18  1  6
 21 19  1  0
 22 21  1  0
 23 21  2  0
M  END
$$$$
