GHL.pdb
     RDKit          3D

 23 23  0  0  1  0  0  0  0  0999 V2000
   13.4807  -13.9764   20.0300 N   0  0  0  0  0  0  0  0  0  0  0  0
   12.5449  -14.9988   20.4125 C   0  0  0  0  0  0  0  0  0  0  0  0
   11.3646  -14.4399   21.1237 C   0  0  0  0  0  0  0  0  0  0  0  0
   11.4438  -13.2785   21.5981 O   0  0  0  0  0  0  0  0  0  0  0  0
   10.1589  -15.1402   21.2967 N   0  0  0  0  0  0  0  0  0  0  0  0
    8.9785  -14.4589   21.8100 C   0  0  1  0  0  0  0  0  0  0  0  0
    7.7684  -14.7978   21.0046 C   0  0  0  0  0  0  0  0  0  0  0  0
    7.9320  -14.5122   19.5798 C   0  0  0  0  0  0  0  0  0  0  0  0
    8.4311  -13.2726   19.1485 C   0  0  0  0  0  0  0  0  0  0  0  0
    8.4936  -13.2377   17.8151 N   0  0  0  0  0  0  0  0  0  0  0  0
    8.0412  -14.4376   17.3940 C   0  0  0  0  0  0  0  0  0  0  0  0
    7.7095  -15.1883   18.4588 N   0  0  0  0  0  0  0  0  0  0  0  0
    8.8939  -14.8380   23.2414 C   0  0  0  0  0  0  0  0  0  0  0  0
    9.6507  -15.6927   23.7404 O   0  0  0  0  0  0  0  0  0  0  0  0
    5.9806  -11.8045   27.1014 C   0  0  0  0  0  0  0  0  0  0  0  0
    7.1699  -12.7506   26.8876 C   0  0  2  0  0  0  0  0  0  0  0  0
    8.2502  -11.9793   26.2090 C   0  0  0  0  0  0  0  0  0  0  0  0
    6.6585  -13.9112   26.1100 C   0  0  0  0  0  0  0  0  0  0  0  0
    7.7290  -14.7605   25.4802 C   0  0  2  0  0  0  0  0  0  0  0  0
    7.9481  -14.2505   24.1233 N   0  0  0  0  0  0  0  0  0  0  0  0
    7.3862  -16.1884   25.4716 C   0  0  0  0  0  0  0  0  0  0  0  0
    7.7427  -16.9481   26.6007 O   0  0  0  0  0  0  0  0  0  0  0  0
    6.8071  -16.7803   24.5489 O   0  0  0  0  0  0  0  0  0  0  0  0
  2  3  1  0
  2  1  1  0
  3  4  2  0
  5  6  1  0
  5  3  1  0
  6  7  1  6
  8  7  1  0
  8  9  2  0
 10  9  1  0
 11 10  1  0
 12 11  2  0
 12  8  1  0
 13  6  1  0
 13 20  1  0
 14 13  2  0
 16 15  1  6
 16 17  1  0
 18 16  1  0
 19 20  1  0
 19 18  1  6
 21 19  1  0
 22 21  1  0
 23 21  2  0
M  END
$$$$
