GHL.pdb
     RDKit          3D

 23 23  0  0  1  0  0  0  0  0999 V2000
    7.9591  -12.7739   18.2115 N   0  0  0  0  0  0  0  0  0  0  0  0
    8.9586  -13.2172   19.1451 C   0  0  0  0  0  0  0  0  0  0  0  0
    8.3743  -14.0208   20.2515 C   0  0  0  0  0  0  0  0  0  0  0  0
    7.1412  -13.9255   20.4766 O   0  0  0  0  0  0  0  0  0  0  0  0
    9.1264  -14.8855   21.0644 N   0  0  0  0  0  0  0  0  0  0  0  0
    8.4642  -15.7455   22.0353 C   0  0  1  0  0  0  0  0  0  0  0  0
    8.7676  -17.1837   21.7758 C   0  0  0  0  0  0  0  0  0  0  0  0
    8.1627  -17.6815   20.5411 C   0  0  0  0  0  0  0  0  0  0  0  0
    6.7845  -17.9411   20.4703 C   0  0  0  0  0  0  0  0  0  0  0  0
    6.4593  -18.3850   19.2537 N   0  0  0  0  0  0  0  0  0  0  0  0
    7.6115  -18.4109   18.5513 C   0  0  0  0  0  0  0  0  0  0  0  0
    8.6204  -17.9882   19.3329 N   0  0  0  0  0  0  0  0  0  0  0  0
    8.9010  -15.2520   23.3639 C   0  0  0  0  0  0  0  0  0  0  0  0
   10.1039  -15.0762   23.6364 O   0  0  0  0  0  0  0  0  0  0  0  0
    7.9463  -11.6936   26.0648 C   0  0  0  0  0  0  0  0  0  0  0  0
    6.8028  -12.6964   25.8591 C   0  0  2  0  0  0  0  0  0  0  0  0
    5.5733  -12.1186   26.4731 C   0  0  0  0  0  0  0  0  0  0  0  0
    7.2478  -13.9817   26.4616 C   0  0  0  0  0  0  0  0  0  0  0  0
    8.4117  -14.6291   25.7614 C   0  0  2  0  0  0  0  0  0  0  0  0
    7.9761  -14.9523   24.3994 N   0  0  0  0  0  0  0  0  0  0  0  0
    8.9059  -15.8184   26.4669 C   0  0  0  0  0  0  0  0  0  0  0  0
    9.8293  -15.6177   27.5090 O   0  0  0  0  0  0  0  0  0  0  0  0
    8.5751  -16.9873   26.2187 O   0  0  0  0  0  0  0  0  0  0  0  0
  2  3  1  0
  2  1  1  0
  3  4  2  0
  5  6  1  0
  5  3  1  0
  6  7  1  6
  8  7  1  0
  8  9  2  0
 10  9  1  0
 11 10  1  0
 12 11  2  0
 12  8  1  0
 13  6  1  0
 13 20  1  0
 14 13  2  0
 16 15  1  1
 16 17  1  0
 18 16  1  0
 19 20  1  0
 19 18  1  1
 21 19  1  0
 22 21  1  0
 23 21  2  0
M  END
$$$$
