GHL.pdb
     RDKit          3D

 23 23  0  0  1  0  0  0  0  0999 V2000
   10.8016  -17.4011   18.9581 N   0  0  0  0  0  0  0  0  0  0  0  0
   10.6772  -17.6681   20.3654 C   0  0  0  0  0  0  0  0  0  0  0  0
   10.1619  -16.4919   21.1152 C   0  0  0  0  0  0  0  0  0  0  0  0
   10.9769  -15.6051   21.4752 O   0  0  0  0  0  0  0  0  0  0  0  0
    8.8080  -16.3143   21.4461 N   0  0  0  0  0  0  0  0  0  0  0  0
    8.3568  -15.0740   22.0616 C   0  0  1  0  0  0  0  0  0  0  0  0
    7.2025  -14.4916   21.3158 C   0  0  0  0  0  0  0  0  0  0  0  0
    7.5202  -14.1822   19.9224 C   0  0  0  0  0  0  0  0  0  0  0  0
    8.0079  -12.9159   19.5610 C   0  0  0  0  0  0  0  0  0  0  0  0
    8.2263  -12.8626   18.2448 N   0  0  0  0  0  0  0  0  0  0  0  0
    7.8842  -14.0772   17.7656 C   0  0  0  0  0  0  0  0  0  0  0  0
    7.4644  -14.8547   18.7787 N   0  0  0  0  0  0  0  0  0  0  0  0
    8.0692  -15.4158   23.4759 C   0  0  0  0  0  0  0  0  0  0  0  0
    7.5878  -16.5181   23.8005 O   0  0  0  0  0  0  0  0  0  0  0  0
    8.3717  -12.1354   27.0540 C   0  0  0  0  0  0  0  0  0  0  0  0
    7.1529  -12.5401   26.2138 C   0  0  2  0  0  0  0  0  0  0  0  0
    6.0049  -11.6872   26.6348 C   0  0  0  0  0  0  0  0  0  0  0  0
    6.9501  -13.9980   26.4293 C   0  0  0  0  0  0  0  0  0  0  0  0
    8.0790  -14.8640   25.9398 C   0  0  2  0  0  0  0  0  0  0  0  0
    8.3249  -14.5090   24.5388 N   0  0  0  0  0  0  0  0  0  0  0  0
    7.7995  -16.2975   26.0926 C   0  0  0  0  0  0  0  0  0  0  0  0
    8.5531  -17.0077   27.0448 O   0  0  0  0  0  0  0  0  0  0  0  0
    6.9520  -16.9344   25.4496 O   0  0  0  0  0  0  0  0  0  0  0  0
  2  3  1  0
  2  1  1  0
  3  4  2  0
  5  6  1  0
  5  3  1  0
  6  7  1  6
  8  7  1  0
  8  9  2  0
 10  9  1  0
 11 10  1  0
 12 11  2  0
 12  8  1  0
 13  6  1  0
 13 20  1  0
 14 13  2  0
 16 15  1  1
 16 17  1  0
 18 16  1  0
 19 20  1  0
 19 18  1  6
 21 19  1  0
 22 21  1  0
 23 21  2  0
M  END
$$$$
