GHL.pdb
     RDKit          3D

 23 23  0  0  1  0  0  0  0  0999 V2000
    5.3889  -18.0985   20.9941 N   0  0  0  0  0  0  0  0  0  0  0  0
    6.2685  -18.2524   22.1209 C   0  0  0  0  0  0  0  0  0  0  0  0
    7.3141  -17.1959   22.1636 C   0  0  0  0  0  0  0  0  0  0  0  0
    8.5190  -17.5462   22.2395 O   0  0  0  0  0  0  0  0  0  0  0  0
    7.0303  -15.8204   22.1235 N   0  0  0  0  0  0  0  0  0  0  0  0
    8.1118  -14.8464   22.0729 C   0  0  1  0  0  0  0  0  0  0  0  0
    7.7684  -13.7070   21.1719 C   0  0  0  0  0  0  0  0  0  0  0  0
    7.8871  -14.0441   19.7539 C   0  0  0  0  0  0  0  0  0  0  0  0
    8.7598  -15.0582   19.3273 C   0  0  0  0  0  0  0  0  0  0  0  0
    8.7022  -15.1898   17.9998 N   0  0  0  0  0  0  0  0  0  0  0  0
    7.8054  -14.2736   17.5777 C   0  0  0  0  0  0  0  0  0  0  0  0
    7.3269  -13.5968   18.6361 N   0  0  0  0  0  0  0  0  0  0  0  0
    8.3661  -14.4638   23.4830 C   0  0  0  0  0  0  0  0  0  0  0  0
    8.4057  -13.2718   23.8434 O   0  0  0  0  0  0  0  0  0  0  0  0
    8.5611  -12.3172   26.8575 C   0  0  0  0  0  0  0  0  0  0  0  0
    7.3717  -12.9868   26.1558 C   0  0  2  0  0  0  0  0  0  0  0  0
    6.1222  -12.3785   26.6954 C   0  0  0  0  0  0  0  0  0  0  0  0
    7.5005  -14.4490   26.3979 C   0  0  0  0  0  0  0  0  0  0  0  0
    8.7865  -15.0525   25.9021 C   0  0  2  0  0  0  0  0  0  0  0  0
    8.5788  -15.4311   24.5011 N   0  0  0  0  0  0  0  0  0  0  0  0
    9.2232  -16.1972   26.7117 C   0  0  0  0  0  0  0  0  0  0  0  0
    9.1415  -17.4743   26.1273 O   0  0  0  0  0  0  0  0  0  0  0  0
    9.6590  -16.1301   27.8705 O   0  0  0  0  0  0  0  0  0  0  0  0
  2  3  1  0
  2  1  1  0
  3  4  2  0
  5  6  1  0
  5  3  1  0
  6  7  1  6
  8  7  1  0
  8  9  2  0
 10  9  1  0
 11 10  1  0
 12 11  2  0
 12  8  1  0
 13  6  1  0
 13 20  1  0
 14 13  2  0
 16 15  1  1
 16 17  1  0
 18 16  1  0
 19 20  1  0
 19 18  1  1
 21 19  1  0
 22 21  1  0
 23 21  2  0
M  END
$$$$
