GHL.pdb
     RDKit          3D

 23 23  0  0  1  0  0  0  0  0999 V2000
    6.2358  -19.0258   20.8629 N   0  0  0  0  0  0  0  0  0  0  0  0
    6.0513  -17.8581   21.6812 C   0  0  0  0  0  0  0  0  0  0  0  0
    7.2743  -17.0142   21.7367 C   0  0  0  0  0  0  0  0  0  0  0  0
    8.3839  -17.5474   21.4818 O   0  0  0  0  0  0  0  0  0  0  0  0
    7.2604  -15.6469   22.0598 N   0  0  0  0  0  0  0  0  0  0  0  0
    8.4965  -14.8769   22.0575 C   0  0  1  0  0  0  0  0  0  0  0  0
    8.3250  -13.5854   21.3291 C   0  0  0  0  0  0  0  0  0  0  0  0
    8.1445  -13.7615   19.8887 C   0  0  0  0  0  0  0  0  0  0  0  0
    9.1747  -13.4379   18.9910 C   0  0  0  0  0  0  0  0  0  0  0  0
    8.7871  -13.6786   17.7360 N   0  0  0  0  0  0  0  0  0  0  0  0
    7.5256  -14.1503   17.8245 C   0  0  0  0  0  0  0  0  0  0  0  0
    7.1551  -14.1943   19.1161 N   0  0  0  0  0  0  0  0  0  0  0  0
    8.8774  -14.7358   23.4839 C   0  0  0  0  0  0  0  0  0  0  0  0
   10.0014  -14.3212   23.8258 O   0  0  0  0  0  0  0  0  0  0  0  0
    8.2792  -12.1384   26.8238 C   0  0  0  0  0  0  0  0  0  0  0  0
    7.0529  -12.9266   26.3440 C   0  0  2  0  0  0  0  0  0  0  0  0
    5.8450  -12.3163   26.9693 C   0  0  0  0  0  0  0  0  0  0  0  0
    7.2872  -14.3485   26.7132 C   0  0  0  0  0  0  0  0  0  0  0  0
    8.3953  -15.0177   25.9463 C   0  0  2  0  0  0  0  0  0  0  0  0
    7.9856  -15.0642   24.5395 N   0  0  0  0  0  0  0  0  0  0  0  0
    8.7114  -16.3561   26.4612 C   0  0  0  0  0  0  0  0  0  0  0  0
    9.2694  -16.4406   27.7499 O   0  0  0  0  0  0  0  0  0  0  0  0
    8.5265  -17.4200   25.8519 O   0  0  0  0  0  0  0  0  0  0  0  0
  2  3  1  0
  2  1  1  0
  3  4  2  0
  5  6  1  0
  5  3  1  0
  6  7  1  1
  8  7  1  0
  8  9  2  0
 10  9  1  0
 11 10  1  0
 12 11  2  0
 12  8  1  0
 13  6  1  0
 13 20  1  0
 14 13  2  0
 16 15  1  1
 16 17  1  0
 18 16  1  0
 19 20  1  0
 19 18  1  1
 21 19  1  0
 22 21  1  0
 23 21  2  0
M  END
$$$$
