GHL.pdb
     RDKit          3D

 23 23  0  0  1  0  0  0  0  0999 V2000
    7.9767  -12.3817   18.7381 N   0  0  0  0  0  0  0  0  0  0  0  0
    8.9921  -13.2006   19.3428 C   0  0  0  0  0  0  0  0  0  0  0  0
    8.4486  -14.0518   20.4342 C   0  0  0  0  0  0  0  0  0  0  0  0
    7.2414  -13.9157   20.7574 O   0  0  0  0  0  0  0  0  0  0  0  0
    9.2119  -15.0051   21.1289 N   0  0  0  0  0  0  0  0  0  0  0  0
    8.5853  -15.8726   22.1167 C   0  0  1  0  0  0  0  0  0  0  0  0
    8.9563  -17.3007   21.8917 C   0  0  0  0  0  0  0  0  0  0  0  0
    8.2364  -17.9087   20.7736 C   0  0  0  0  0  0  0  0  0  0  0  0
    7.3907  -17.1378   19.9597 C   0  0  0  0  0  0  0  0  0  0  0  0
    6.8435  -17.8993   19.0090 N   0  0  0  0  0  0  0  0  0  0  0  0
    7.3299  -19.1425   19.2080 C   0  0  0  0  0  0  0  0  0  0  0  0
    8.1604  -19.1331   20.2651 N   0  0  0  0  0  0  0  0  0  0  0  0
    8.9921  -15.3291   23.4353 C   0  0  0  0  0  0  0  0  0  0  0  0
   10.1816  -15.0703   23.7006 O   0  0  0  0  0  0  0  0  0  0  0  0
    8.1304  -11.7617   25.9647 C   0  0  0  0  0  0  0  0  0  0  0  0
    6.9327  -12.7088   25.8108 C   0  0  2  0  0  0  0  0  0  0  0  0
    5.7411  -12.0376   26.4042 C   0  0  0  0  0  0  0  0  0  0  0  0
    7.3118  -13.9880   26.4688 C   0  0  0  0  0  0  0  0  0  0  0  0
    8.4690  -14.7019   25.8245 C   0  0  2  0  0  0  0  0  0  0  0  0
    8.0521  -15.0731   24.4689 N   0  0  0  0  0  0  0  0  0  0  0  0
    8.9103  -15.8726   26.5934 C   0  0  0  0  0  0  0  0  0  0  0  0
    9.6929  -15.6393   27.7389 O   0  0  0  0  0  0  0  0  0  0  0  0
    8.6489  -17.0523   26.3151 O   0  0  0  0  0  0  0  0  0  0  0  0
  2  3  1  0
  2  1  1  0
  3  4  2  0
  5  6  1  0
  5  3  1  0
  6  7  1  6
  8  7  1  0
  8  9  2  0
 10  9  1  0
 11 10  1  0
 12 11  2  0
 12  8  1  0
 13  6  1  0
 13 20  1  0
 14 13  2  0
 16 15  1  1
 16 17  1  0
 18 16  1  0
 19 20  1  0
 19 18  1  1
 21 19  1  0
 22 21  1  0
 23 21  2  0
M  END
$$$$
