GHL.pdb
     RDKit          3D

 23 23  0  0  1  0  0  0  0  0999 V2000
    6.7598  -20.1660   24.3245 N   0  0  0  0  0  0  0  0  0  0  0  0
    6.0359  -18.9694   23.9908 C   0  0  0  0  0  0  0  0  0  0  0  0
    6.8739  -17.9998   23.2366 C   0  0  0  0  0  0  0  0  0  0  0  0
    8.0925  -18.2608   23.0712 O   0  0  0  0  0  0  0  0  0  0  0  0
    6.3784  -16.8017   22.6952 N   0  0  0  0  0  0  0  0  0  0  0  0
    7.2686  -15.8862   21.9951 C   0  0  1  0  0  0  0  0  0  0  0  0
    6.5079  -15.0030   21.0628 C   0  0  0  0  0  0  0  0  0  0  0  0
    7.3746  -14.2149   20.1876 C   0  0  0  0  0  0  0  0  0  0  0  0
    7.6981  -12.8858   20.5048 C   0  0  0  0  0  0  0  0  0  0  0  0
    8.4968  -12.3680   19.5683 N   0  0  0  0  0  0  0  0  0  0  0  0
    8.6849  -13.3496   18.6612 C   0  0  0  0  0  0  0  0  0  0  0  0
    8.0087  -14.4467   19.0441 N   0  0  0  0  0  0  0  0  0  0  0  0
    8.0126  -15.1674   23.0579 C   0  0  0  0  0  0  0  0  0  0  0  0
    8.7383  -14.1872   22.8036 O   0  0  0  0  0  0  0  0  0  0  0  0
    5.7425  -12.5058   27.4146 C   0  0  0  0  0  0  0  0  0  0  0  0
    7.1566  -12.9433   27.0094 C   0  0  2  0  0  0  0  0  0  0  0  0
    7.9218  -11.7207   26.6322 C   0  0  0  0  0  0  0  0  0  0  0  0
    6.9992  -13.9356   25.9123 C   0  0  0  0  0  0  0  0  0  0  0  0
    8.2727  -14.6292   25.5110 C   0  0  2  0  0  0  0  0  0  0  0  0
    7.9412  -15.5539   24.4228 N   0  0  0  0  0  0  0  0  0  0  0  0
    8.9160  -15.3244   26.6332 C   0  0  0  0  0  0  0  0  0  0  0  0
    8.7374  -16.7170   26.7221 O   0  0  0  0  0  0  0  0  0  0  0  0
    9.6051  -14.7833   27.5105 O   0  0  0  0  0  0  0  0  0  0  0  0
  2  3  1  0
  2  1  1  0
  3  4  2  0
  5  6  1  0
  5  3  1  0
  6  7  1  1
  8  7  1  0
  8  9  2  0
 10  9  1  0
 11 10  1  0
 12 11  2  0
 12  8  1  0
 13  6  1  0
 13 20  1  0
 14 13  2  0
 16 15  1  6
 16 17  1  0
 18 16  1  0
 19 20  1  0
 19 18  1  1
 21 19  1  0
 22 21  1  0
 23 21  2  0
M  END
$$$$
