GHL.pdb
     RDKit          3D

 23 23  0  0  1  0  0  0  0  0999 V2000
    8.0659  -19.3515   20.3817 N   0  0  0  0  0  0  0  0  0  0  0  0
    7.6179  -18.4212   21.3823 C   0  0  0  0  0  0  0  0  0  0  0  0
    8.4048  -17.1596   21.3663 C   0  0  0  0  0  0  0  0  0  0  0  0
    9.5919  -17.1974   20.9543 O   0  0  0  0  0  0  0  0  0  0  0  0
    7.8941  -15.9204   21.7881 N   0  0  0  0  0  0  0  0  0  0  0  0
    8.6950  -14.7110   21.6580 C   0  0  1  0  0  0  0  0  0  0  0  0
    7.9328  -13.6328   20.9620 C   0  0  0  0  0  0  0  0  0  0  0  0
    7.7530  -13.8909   19.5339 C   0  0  0  0  0  0  0  0  0  0  0  0
    8.4858  -13.1713   18.5762 C   0  0  0  0  0  0  0  0  0  0  0  0
    8.1589  -13.5735   17.3456 N   0  0  0  0  0  0  0  0  0  0  0  0
    7.2291  -14.5382   17.5086 C   0  0  0  0  0  0  0  0  0  0  0  0
    6.9967  -14.7170   18.8207 N   0  0  0  0  0  0  0  0  0  0  0  0
    9.1261  -14.3718   23.0360 C   0  0  0  0  0  0  0  0  0  0  0  0
    9.9260  -13.4444   23.2644 O   0  0  0  0  0  0  0  0  0  0  0  0
    8.2296  -12.9610   27.5491 C   0  0  0  0  0  0  0  0  0  0  0  0
    7.2337  -12.4852   26.4828 C   0  0  2  0  0  0  0  0  0  0  0  0
    5.8637  -12.5816   27.0626 C   0  0  0  0  0  0  0  0  0  0  0  0
    7.4563  -13.3335   25.2812 C   0  0  0  0  0  0  0  0  0  0  0  0
    8.4652  -14.4333   25.4721 C   0  0  2  0  0  0  0  0  0  0  0  0
    8.6537  -15.0827   24.1713 N   0  0  0  0  0  0  0  0  0  0  0  0
    8.0624  -15.3976   26.5037 C   0  0  0  0  0  0  0  0  0  0  0  0
    7.2385  -16.4665   26.1065 O   0  0  0  0  0  0  0  0  0  0  0  0
    8.3896  -15.3467   27.6985 O   0  0  0  0  0  0  0  0  0  0  0  0
  2  3  1  0
  2  1  1  0
  3  4  2  0
  5  6  1  0
  5  3  1  0
  6  7  1  1
  8  7  1  0
  8  9  2  0
 10  9  1  0
 11 10  1  0
 12 11  2  0
 12  8  1  0
 13  6  1  0
 13 20  1  0
 14 13  2  0
 16 15  1  1
 16 17  1  0
 18 16  1  0
 19 20  1  0
 19 18  1  6
 21 19  1  0
 22 21  1  0
 23 21  2  0
M  END
$$$$
