GHL.pdb
     RDKit          3D

 23 23  0  0  1  0  0  0  0  0999 V2000
    8.8705  -14.9653   13.9290 N   0  0  0  0  0  0  0  0  0  0  0  0
   10.0487  -15.5130   14.5448 C   0  0  0  0  0  0  0  0  0  0  0  0
    9.7512  -16.1501   15.8550 C   0  0  0  0  0  0  0  0  0  0  0  0
    8.6110  -15.9846   16.3581 O   0  0  0  0  0  0  0  0  0  0  0  0
   10.6771  -16.9311   16.5669 N   0  0  0  0  0  0  0  0  0  0  0  0
   10.2950  -17.5668   17.8202 C   0  0  1  0  0  0  0  0  0  0  0  0
   11.0670  -18.8246   18.0433 C   0  0  0  0  0  0  0  0  0  0  0  0
   10.6515  -19.9140   17.1607 C   0  0  0  0  0  0  0  0  0  0  0  0
    9.3100  -20.0485   16.7683 C   0  0  0  0  0  0  0  0  0  0  0  0
    9.1662  -21.1074   15.9676 N   0  0  0  0  0  0  0  0  0  0  0  0
   10.3975  -21.6470   15.8464 C   0  0  0  0  0  0  0  0  0  0  0  0
   11.2744  -20.9238   16.5643 N   0  0  0  0  0  0  0  0  0  0  0  0
   10.4871  -16.5308   18.8640 C   0  0  0  0  0  0  0  0  0  0  0  0
   11.5874  -15.9743   19.0426 O   0  0  0  0  0  0  0  0  0  0  0  0
    8.7335  -12.6306   19.2560 C   0  0  0  0  0  0  0  0  0  0  0  0
    7.7655  -13.7567   19.6435 C   0  0  2  0  0  0  0  0  0  0  0  0
    6.4043  -13.1631   19.7753 C   0  0  0  0  0  0  0  0  0  0  0  0
    8.2965  -14.3659   20.8925 C   0  0  0  0  0  0  0  0  0  0  0  0
    9.6159  -15.0709   20.7308 C   0  0  2  0  0  0  0  0  0  0  0  0
    9.4312  -16.1146   19.7180 N   0  0  0  0  0  0  0  0  0  0  0  0
   10.1187  -15.6268   21.9936 C   0  0  0  0  0  0  0  0  0  0  0  0
   10.0632  -17.0231   22.1556 O   0  0  0  0  0  0  0  0  0  0  0  0
   10.5891  -14.9648   22.9305 O   0  0  0  0  0  0  0  0  0  0  0  0
  2  3  1  0
  2  1  1  0
  3  4  2  0
  5  6  1  0
  5  3  1  0
  6  7  1  1
  8  7  1  0
  8  9  2  0
 10  9  1  0
 11 10  1  0
 12 11  2  0
 12  8  1  0
 13  6  1  0
 13 20  1  0
 14 13  2  0
 16 15  1  1
 16 17  1  0
 18 16  1  0
 19 20  1  0
 19 18  1  1
 21 19  1  0
 22 21  1  0
 23 21  2  0
M  END
$$$$
