SLS.pdb
     RDKit          3D

 21 20  0  0  1  0  0  0  0  0999 V2000
    9.3291  -20.4613   18.4208 O   0  0  0  0  0  0  0  0  0  0  0  0
    8.2593  -19.6062   18.5937 C   0  0  0  0  0  0  0  0  0  0  0  0
    8.5996  -18.2832   17.9545 C   0  0  2  0  0  0  0  0  0  0  0  0
    9.2825  -18.4183   16.7067 N   0  0  0  0  0  0  0  0  0  0  0  0
    9.3476  -17.3948   18.8853 C   0  0  0  0  0  0  0  0  0  0  0  0
   10.6016  -17.2974   18.8519 O   0  0  0  0  0  0  0  0  0  0  0  0
    6.3931  -13.0390   20.7537 C   0  0  0  0  0  0  0  0  0  0  0  0
    7.5382  -13.8572   20.2491 C   0  0  1  0  0  0  0  0  0  0  0  0
    8.5072  -12.8759   19.5891 C   0  0  0  0  0  0  0  0  0  0  0  0
    8.1842  -14.7882   21.1649 C   0  0  0  0  0  0  0  0  0  0  0  0
    9.2764  -15.6905   20.7744 C   0  0  2  0  0  0  0  0  0  0  0  0
    8.6276  -16.6499   19.8215 N   0  0  0  0  0  0  0  0  0  0  0  0
    9.9154  -16.4806   21.8367 C   0  0  0  0  0  0  0  0  0  0  0  0
    9.3453  -17.4351   22.4191 O   0  0  0  0  0  0  0  0  0  0  0  0
   14.0247  -15.9303   22.9098 O   0  0  0  0  0  0  0  0  0  0  0  0
   13.3916  -17.1527   23.0055 C   0  0  0  0  0  0  0  0  0  0  0  0
   11.9152  -17.0220   23.2969 C   0  0  2  0  0  0  0  0  0  0  0  0
   11.2469  -16.2253   22.2969 N   0  0  0  0  0  0  0  0  0  0  0  0
   11.6323  -16.5794   24.6687 C   0  0  0  0  0  0  0  0  0  0  0  0
   10.7703  -15.5128   24.8764 O   0  0  0  0  0  0  0  0  0  0  0  0
   12.1371  -17.1234   25.6825 O   0  0  0  0  0  0  0  0  0  0  0  0
  1  2  1  0
  3  5  1  0
  3  4  1  6
  3  2  1  0
  5  6  2  0
  8  7  1  1
  8 10  1  0
  9  8  1  0
 11 10  1  1
 11 13  1  0
 12 11  1  0
 12  5  1  0
 13 18  1  0
 13 14  2  0
 15 16  1  0
 17 16  1  6
 18 17  1  0
 19 20  1  0
 19 17  1  0
 21 19  2  0
M  END
$$$$
