SLS.pdb
     RDKit          3D

 21 20  0  0  1  0  0  0  0  0999 V2000
    8.4280  -17.8617   21.2002 O   0  0  0  0  0  0  0  0  0  0  0  0
    7.4410  -16.9336   20.9358 C   0  0  0  0  0  0  0  0  0  0  0  0
    8.0409  -15.5548   21.0521 C   0  0  2  0  0  0  0  0  0  0  0  0
    9.0059  -15.2716   20.0371 N   0  0  0  0  0  0  0  0  0  0  0  0
    8.5975  -15.3060   22.4099 C   0  0  0  0  0  0  0  0  0  0  0  0
    9.8352  -15.3166   22.6361 O   0  0  0  0  0  0  0  0  0  0  0  0
    5.6804  -12.0663   26.2788 C   0  0  0  0  0  0  0  0  0  0  0  0
    6.9078  -12.6241   25.6325 C   0  0  1  0  0  0  0  0  0  0  0  0
    8.0971  -12.0131   26.3740 C   0  0  0  0  0  0  0  0  0  0  0  0
    7.0075  -14.0672   25.4588 C   0  0  0  0  0  0  0  0  0  0  0  0
    8.1665  -14.7375   24.8531 C   0  0  2  0  0  0  0  0  0  0  0  0
    7.7117  -15.0538   23.4594 N   0  0  0  0  0  0  0  0  0  0  0  0
    8.6222  -15.9921   25.4690 C   0  0  0  0  0  0  0  0  0  0  0  0
    7.9071  -17.0211   25.5392 O   0  0  0  0  0  0  0  0  0  0  0  0
   12.2979  -18.9129   26.4337 O   0  0  0  0  0  0  0  0  0  0  0  0
   11.7556  -17.7552   25.9142 C   0  0  0  0  0  0  0  0  0  0  0  0
   10.4348  -17.3941   26.5522 C   0  0  2  0  0  0  0  0  0  0  0  0
    9.9251  -16.1444   26.0426 N   0  0  0  0  0  0  0  0  0  0  0  0
   10.4665  -17.4469   28.0198 C   0  0  0  0  0  0  0  0  0  0  0  0
   10.8838  -18.6094   28.6509 O   0  0  0  0  0  0  0  0  0  0  0  0
   10.1306  -16.4798   28.7481 O   0  0  0  0  0  0  0  0  0  0  0  0
  1  2  1  0
  3  5  1  0
  3  4  1  6
  3  2  1  0
  5  6  2  0
  8  7  1  1
  8 10  1  0
  9  8  1  0
 11 10  1  1
 11 13  1  0
 12 11  1  0
 12  5  1  0
 13 18  1  0
 13 14  2  0
 15 16  1  0
 17 16  1  6
 18 17  1  0
 19 20  1  0
 19 17  1  0
 21 19  2  0
M  END
$$$$
