SLS.pdb
     RDKit          3D

 21 20  0  0  1  0  0  0  0  0999 V2000
    7.9197  -15.6361   19.4207 O   0  0  0  0  0  0  0  0  0  0  0  0
    6.8902  -14.7284   19.5678 C   0  0  0  0  0  0  0  0  0  0  0  0
    7.4700  -13.4278   20.0645 C   0  0  2  0  0  0  0  0  0  0  0  0
    8.3559  -12.8108   19.1284 N   0  0  0  0  0  0  0  0  0  0  0  0
    8.1154  -13.5823   21.3967 C   0  0  0  0  0  0  0  0  0  0  0  0
    9.3600  -13.7170   21.5238 O   0  0  0  0  0  0  0  0  0  0  0  0
    8.0446  -11.8047   26.6724 C   0  0  0  0  0  0  0  0  0  0  0  0
    7.0021  -12.7587   26.1841 C   0  0  1  0  0  0  0  0  0  0  0  0
    5.6975  -12.3558   26.8720 C   0  0  0  0  0  0  0  0  0  0  0  0
    6.8654  -12.9638   24.7481 C   0  0  0  0  0  0  0  0  0  0  0  0
    7.8580  -13.6714   23.9273 C   0  0  2  0  0  0  0  0  0  0  0  0
    7.3074  -13.5767   22.5355 N   0  0  0  0  0  0  0  0  0  0  0  0
    8.0895  -15.0934   24.2195 C   0  0  0  0  0  0  0  0  0  0  0  0
    7.3674  -16.0136   23.7647 O   0  0  0  0  0  0  0  0  0  0  0  0
   11.4495  -17.8729   23.3728 O   0  0  0  0  0  0  0  0  0  0  0  0
   10.7485  -16.7064   23.6003 C   0  0  0  0  0  0  0  0  0  0  0  0
    9.8778  -16.7817   24.8325 C   0  0  2  0  0  0  0  0  0  0  0  0
    9.1626  -15.5480   25.0512 N   0  0  0  0  0  0  0  0  0  0  0  0
   10.5994  -17.2474   26.0243 C   0  0  0  0  0  0  0  0  0  0  0  0
   11.2063  -18.4945   26.0092 O   0  0  0  0  0  0  0  0  0  0  0  0
   10.6990  -16.5663   27.0753 O   0  0  0  0  0  0  0  0  0  0  0  0
  1  2  1  0
  3  5  1  0
  3  4  1  6
  3  2  1  0
  5  6  2  0
  8  7  1  6
  8 10  1  0
  9  8  1  0
 11 10  1  1
 11 13  1  0
 12 11  1  0
 12  5  1  0
 13 18  1  0
 13 14  2  0
 15 16  1  0
 17 16  1  6
 18 17  1  0
 19 20  1  0
 19 17  1  0
 21 19  2  0
M  END
$$$$
