SLS.pdb
     RDKit          3D

 21 20  0  0  1  0  0  0  0  0999 V2000
    7.4471  -20.4571   17.5372 O   0  0  0  0  0  0  0  0  0  0  0  0
    8.2189  -19.6435   18.3422 C   0  0  0  0  0  0  0  0  0  0  0  0
    8.0640  -18.2202   17.8680 C   0  0  2  0  0  0  0  0  0  0  0  0
    8.2097  -18.0775   16.4537 N   0  0  0  0  0  0  0  0  0  0  0  0
    8.9681  -17.2915   18.5996 C   0  0  0  0  0  0  0  0  0  0  0  0
   10.1667  -17.1193   18.2578 O   0  0  0  0  0  0  0  0  0  0  0  0
    6.5007  -12.9601   21.0116 C   0  0  0  0  0  0  0  0  0  0  0  0
    7.5700  -13.7506   20.3282 C   0  0  1  0  0  0  0  0  0  0  0  0
    8.4613  -12.7353   19.6125 C   0  0  0  0  0  0  0  0  0  0  0  0
    8.3130  -14.7330   21.1062 C   0  0  0  0  0  0  0  0  0  0  0  0
    9.2946  -15.6598   20.5255 C   0  0  2  0  0  0  0  0  0  0  0  0
    8.4623  -16.5937   19.6983 N   0  0  0  0  0  0  0  0  0  0  0  0
   10.0893  -16.4753   21.4552 C   0  0  0  0  0  0  0  0  0  0  0  0
    9.5926  -17.3761   22.1743 O   0  0  0  0  0  0  0  0  0  0  0  0
   14.3558  -15.9325   22.0775 O   0  0  0  0  0  0  0  0  0  0  0  0
   13.7541  -17.1717   21.9978 C   0  0  0  0  0  0  0  0  0  0  0  0
   12.3161  -17.1512   22.4598 C   0  0  2  0  0  0  0  0  0  0  0  0
   11.5019  -16.3085   21.6181 N   0  0  0  0  0  0  0  0  0  0  0  0
   12.1711  -16.8480   23.8898 C   0  0  0  0  0  0  0  0  0  0  0  0
   12.8692  -17.6031   24.8206 O   0  0  0  0  0  0  0  0  0  0  0  0
   11.4366  -15.9258   24.3241 O   0  0  0  0  0  0  0  0  0  0  0  0
  1  2  1  0
  3  5  1  0
  3  4  1  6
  3  2  1  0
  5  6  2  0
  8  7  1  1
  8 10  1  0
  9  8  1  0
 11 10  1  1
 11 13  1  0
 12 11  1  0
 12  5  1  0
 13 18  1  0
 13 14  2  0
 15 16  1  0
 17 16  1  6
 18 17  1  0
 19 20  1  0
 19 17  1  0
 21 19  2  0
M  END
$$$$
