SLS.pdb
     RDKit          3D

 21 20  0  0  1  0  0  0  0  0999 V2000
    7.5842  -16.9918   20.8526 O   0  0  0  0  0  0  0  0  0  0  0  0
    6.6753  -15.9533   20.8224 C   0  0  0  0  0  0  0  0  0  0  0  0
    7.4137  -14.6667   21.0945 C   0  0  2  0  0  0  0  0  0  0  0  0
    8.3011  -14.2913   20.0394 N   0  0  0  0  0  0  0  0  0  0  0  0
    8.1177  -14.6990   22.4054 C   0  0  0  0  0  0  0  0  0  0  0  0
    9.3648  -14.8431   22.4899 O   0  0  0  0  0  0  0  0  0  0  0  0
    5.7657  -11.8740   26.7933 C   0  0  0  0  0  0  0  0  0  0  0  0
    6.8466  -12.4208   25.9169 C   0  0  1  0  0  0  0  0  0  0  0  0
    8.1448  -11.7536   26.3717 C   0  0  0  0  0  0  0  0  0  0  0  0
    6.9550  -13.8659   25.7663 C   0  0  0  0  0  0  0  0  0  0  0  0
    7.9764  -14.5254   24.9408 C   0  0  2  0  0  0  0  0  0  0  0  0
    7.3632  -14.5647   23.5727 N   0  0  0  0  0  0  0  0  0  0  0  0
    8.3542  -15.8999   25.2998 C   0  0  0  0  0  0  0  0  0  0  0  0
    7.5502  -16.8631   25.2674 O   0  0  0  0  0  0  0  0  0  0  0  0
   12.1535  -17.5442   24.8513 O   0  0  0  0  0  0  0  0  0  0  0  0
   10.9517  -18.2071   24.9931 C   0  0  0  0  0  0  0  0  0  0  0  0
   10.0741  -17.5987   26.0617 C   0  0  2  0  0  0  0  0  0  0  0  0
    9.6766  -16.2551   25.7181 N   0  0  0  0  0  0  0  0  0  0  0  0
   10.6471  -17.7021   27.4103 C   0  0  0  0  0  0  0  0  0  0  0  0
   11.0375  -18.9431   27.8913 O   0  0  0  0  0  0  0  0  0  0  0  0
   10.8060  -16.7108   28.1657 O   0  0  0  0  0  0  0  0  0  0  0  0
  1  2  1  0
  3  5  1  0
  3  4  1  6
  3  2  1  0
  5  6  2  0
  8  7  1  1
  8 10  1  0
  9  8  1  0
 11 10  1  1
 11 13  1  0
 12 11  1  0
 12  5  1  0
 13 18  1  0
 13 14  2  0
 15 16  1  0
 17 16  1  6
 18 17  1  0
 19 20  1  0
 19 17  1  0
 21 19  2  0
M  END
$$$$
