SLS.pdb
     RDKit          3D

 21 20  0  0  1  0  0  0  0  0999 V2000
    8.6284  -18.0177   21.3168 O   0  0  0  0  0  0  0  0  0  0  0  0
    7.7207  -17.0958   20.8352 C   0  0  0  0  0  0  0  0  0  0  0  0
    8.3567  -15.7294   20.8885 C   0  0  2  0  0  0  0  0  0  0  0  0
    9.3689  -15.5389   19.8982 N   0  0  0  0  0  0  0  0  0  0  0  0
    8.8667  -15.4088   22.2495 C   0  0  0  0  0  0  0  0  0  0  0  0
   10.0788  -15.5468   22.5578 O   0  0  0  0  0  0  0  0  0  0  0  0
    8.1976  -12.2376   26.8696 C   0  0  0  0  0  0  0  0  0  0  0  0
    7.1819  -13.2590   26.4689 C   0  0  1  0  0  0  0  0  0  0  0  0
    5.8179  -12.6709   26.8310 C   0  0  0  0  0  0  0  0  0  0  0  0
    7.2416  -13.8068   25.1202 C   0  0  0  0  0  0  0  0  0  0  0  0
    8.3706  -14.5975   24.6104 C   0  0  2  0  0  0  0  0  0  0  0  0
    7.9653  -14.9410   23.2079 N   0  0  0  0  0  0  0  0  0  0  0  0
    8.6856  -15.8547   25.3042 C   0  0  0  0  0  0  0  0  0  0  0  0
    7.8673  -16.7996   25.4172 O   0  0  0  0  0  0  0  0  0  0  0  0
   12.5921  -17.2813   25.7929 O   0  0  0  0  0  0  0  0  0  0  0  0
   11.4420  -18.0431   25.8286 C   0  0  0  0  0  0  0  0  0  0  0  0
   10.3084  -17.3518   26.5490 C   0  0  2  0  0  0  0  0  0  0  0  0
    9.9576  -16.1062   25.9113 N   0  0  0  0  0  0  0  0  0  0  0  0
   10.5381  -17.2141   27.9933 C   0  0  0  0  0  0  0  0  0  0  0  0
   10.8660  -18.3353   28.7411 O   0  0  0  0  0  0  0  0  0  0  0  0
   10.4525  -16.1170   28.5997 O   0  0  0  0  0  0  0  0  0  0  0  0
  1  2  1  0
  3  5  1  0
  3  4  1  6
  3  2  1  0
  5  6  2  0
  8  7  1  6
  8 10  1  0
  9  8  1  0
 11 10  1  1
 11 13  1  0
 12 11  1  0
 12  5  1  0
 13 18  1  0
 13 14  2  0
 15 16  1  0
 17 16  1  6
 18 17  1  0
 19 20  1  0
 19 17  1  0
 21 19  2  0
M  END
$$$$
