SLS.pdb
     RDKit          3D

 21 20  0  0  1  0  0  0  0  0999 V2000
    7.3176  -18.1267   21.0110 O   0  0  0  0  0  0  0  0  0  0  0  0
    8.2483  -17.8902   22.0027 C   0  0  0  0  0  0  0  0  0  0  0  0
    8.8424  -16.5219   21.7810 C   0  0  2  0  0  0  0  0  0  0  0  0
   10.0027  -16.5386   20.9472 N   0  0  0  0  0  0  0  0  0  0  0  0
    9.1117  -15.8206   23.0659 C   0  0  0  0  0  0  0  0  0  0  0  0
   10.2506  -15.8213   23.6008 O   0  0  0  0  0  0  0  0  0  0  0  0
    7.6001  -11.4637   26.3767 C   0  0  0  0  0  0  0  0  0  0  0  0
    6.7479  -12.6787   26.1953 C   0  0  1  0  0  0  0  0  0  0  0  0
    5.2982  -12.1951   26.2406 C   0  0  0  0  0  0  0  0  0  0  0  0
    7.0321  -13.5664   25.0755 C   0  0  0  0  0  0  0  0  0  0  0  0
    8.2147  -14.4359   25.0039 C   0  0  2  0  0  0  0  0  0  0  0  0
    8.0624  -15.1432   23.6903 N   0  0  0  0  0  0  0  0  0  0  0  0
    8.3667  -15.4604   26.0471 C   0  0  0  0  0  0  0  0  0  0  0  0
    8.7898  -15.2068   27.2012 O   0  0  0  0  0  0  0  0  0  0  0  0
    7.4276  -19.6745   25.4509 O   0  0  0  0  0  0  0  0  0  0  0  0
    7.1666  -18.9789   26.6137 C   0  0  0  0  0  0  0  0  0  0  0  0
    8.1465  -17.8540   26.8513 C   0  0  2  0  0  0  0  0  0  0  0  0
    8.0435  -16.8385   25.8318 N   0  0  0  0  0  0  0  0  0  0  0  0
    9.5236  -18.3199   27.0622 C   0  0  0  0  0  0  0  0  0  0  0  0
    9.7845  -19.2434   28.0637 O   0  0  0  0  0  0  0  0  0  0  0  0
   10.4955  -17.9210   26.3732 O   0  0  0  0  0  0  0  0  0  0  0  0
  1  2  1  0
  3  5  1  0
  3  4  1  1
  3  2  1  0
  5  6  2  0
  8  7  1  6
  8 10  1  0
  9  8  1  0
 11 10  1  1
 11 13  1  0
 12 11  1  0
 12  5  1  0
 13 18  1  0
 13 14  2  0
 15 16  1  0
 17 16  1  6
 18 17  1  0
 19 20  1  0
 19 17  1  0
 21 19  2  0
M  END
$$$$
