SLS.pdb
     RDKit          3D

 21 20  0  0  1  0  0  0  0  0999 V2000
    7.7244  -17.6238   21.4008 O   0  0  0  0  0  0  0  0  0  0  0  0
    6.6481  -16.8286   21.0620 C   0  0  0  0  0  0  0  0  0  0  0  0
    7.1121  -15.3943   21.0162 C   0  0  2  0  0  0  0  0  0  0  0  0
    7.8209  -15.0683   19.8191 N   0  0  0  0  0  0  0  0  0  0  0  0
    7.8988  -15.0281   22.2255 C   0  0  0  0  0  0  0  0  0  0  0  0
    9.1569  -15.0053   22.2217 O   0  0  0  0  0  0  0  0  0  0  0  0
    6.0530  -11.7005   26.9699 C   0  0  0  0  0  0  0  0  0  0  0  0
    7.1434  -12.2730   26.1222 C   0  0  1  0  0  0  0  0  0  0  0  0
    8.3753  -12.3757   27.0218 C   0  0  0  0  0  0  0  0  0  0  0  0
    6.8705  -13.4878   25.3655 C   0  0  0  0  0  0  0  0  0  0  0  0
    7.9019  -14.2512   24.6492 C   0  0  2  0  0  0  0  0  0  0  0  0
    7.2115  -14.7010   23.3961 N   0  0  0  0  0  0  0  0  0  0  0  0
    8.4444  -15.4455   25.3128 C   0  0  0  0  0  0  0  0  0  0  0  0
    7.7688  -16.4834   25.5170 O   0  0  0  0  0  0  0  0  0  0  0  0
   12.3108  -18.1917   25.8197 O   0  0  0  0  0  0  0  0  0  0  0  0
   11.7006  -17.0118   25.4462 C   0  0  0  0  0  0  0  0  0  0  0  0
   10.4240  -16.7497   26.2100 C   0  0  2  0  0  0  0  0  0  0  0  0
    9.7943  -15.5237   25.7833 N   0  0  0  0  0  0  0  0  0  0  0  0
   10.5928  -16.8330   27.6668 C   0  0  0  0  0  0  0  0  0  0  0  0
   11.0519  -18.0130   28.2331 O   0  0  0  0  0  0  0  0  0  0  0  0
   10.3399  -15.8773   28.4422 O   0  0  0  0  0  0  0  0  0  0  0  0
  1  2  1  0
  3  5  1  0
  3  4  1  6
  3  2  1  0
  5  6  2  0
  8  7  1  1
  8 10  1  0
  9  8  1  0
 11 10  1  1
 11 13  1  0
 12 11  1  0
 12  5  1  0
 13 18  1  0
 13 14  2  0
 15 16  1  0
 17 16  1  6
 18 17  1  0
 19 20  1  0
 19 17  1  0
 21 19  2  0
M  END
$$$$
