SLS.pdb
     RDKit          3D

 21 20  0  0  1  0  0  0  0  0999 V2000
    7.4098  -17.5159   20.9827 O   0  0  0  0  0  0  0  0  0  0  0  0
    6.6257  -16.4401   20.6176 C   0  0  0  0  0  0  0  0  0  0  0  0
    7.4850  -15.2007   20.6255 C   0  0  2  0  0  0  0  0  0  0  0  0
    8.4280  -15.1608   19.5527 N   0  0  0  0  0  0  0  0  0  0  0  0
    8.1543  -14.9995   21.9395 C   0  0  0  0  0  0  0  0  0  0  0  0
    9.3651  -15.2886   22.1232 O   0  0  0  0  0  0  0  0  0  0  0  0
    8.2710  -12.0472   26.7452 C   0  0  0  0  0  0  0  0  0  0  0  0
    7.1129  -12.9286   26.4024 C   0  0  1  0  0  0  0  0  0  0  0  0
    5.8645  -12.2171   26.9247 C   0  0  0  0  0  0  0  0  0  0  0  0
    6.9830  -13.4040   25.0314 C   0  0  0  0  0  0  0  0  0  0  0  0
    7.9723  -14.2662   24.3700 C   0  0  2  0  0  0  0  0  0  0  0  0
    7.4082  -14.4731   22.9959 N   0  0  0  0  0  0  0  0  0  0  0  0
    8.2157  -15.5920   24.9565 C   0  0  0  0  0  0  0  0  0  0  0  0
    7.3271  -16.4730   25.0532 O   0  0  0  0  0  0  0  0  0  0  0  0
   11.8402  -17.5936   24.7757 O   0  0  0  0  0  0  0  0  0  0  0  0
   10.5843  -18.1216   24.9949 C   0  0  0  0  0  0  0  0  0  0  0  0
    9.7751  -17.3092   25.9783 C   0  0  2  0  0  0  0  0  0  0  0  0
    9.4923  -15.9896   25.4684 N   0  0  0  0  0  0  0  0  0  0  0  0
   10.3518  -17.2927   27.3292 C   0  0  0  0  0  0  0  0  0  0  0  0
   10.6420  -18.4929   27.9609 O   0  0  0  0  0  0  0  0  0  0  0  0
   10.6010  -16.2323   27.9554 O   0  0  0  0  0  0  0  0  0  0  0  0
  1  2  1  0
  3  5  1  0
  3  4  1  6
  3  2  1  0
  5  6  2  0
  8  7  1  6
  8 10  1  0
  9  8  1  0
 11 10  1  1
 11 13  1  0
 12 11  1  0
 12  5  1  0
 13 18  1  0
 13 14  2  0
 15 16  1  0
 17 16  1  6
 18 17  1  0
 19 20  1  0
 19 17  1  0
 21 19  2  0
M  END
$$$$
