SLS.pdb
     RDKit          3D

 21 20  0  0  1  0  0  0  0  0999 V2000
    6.4955  -17.8297   20.7023 O   0  0  0  0  0  0  0  0  0  0  0  0
    7.7782  -17.4459   21.0383 C   0  0  0  0  0  0  0  0  0  0  0  0
    7.8621  -15.9424   20.9545 C   0  0  2  0  0  0  0  0  0  0  0  0
    8.5021  -15.4782   19.7643 N   0  0  0  0  0  0  0  0  0  0  0  0
    8.4904  -15.3545   22.1690 C   0  0  0  0  0  0  0  0  0  0  0  0
    9.7345  -15.1922   22.2649 O   0  0  0  0  0  0  0  0  0  0  0  0
    8.2914  -11.9269   26.5475 C   0  0  0  0  0  0  0  0  0  0  0  0
    7.1876  -12.9109   26.3270 C   0  0  1  0  0  0  0  0  0  0  0  0
    5.8910  -12.1887   26.6940 C   0  0  0  0  0  0  0  0  0  0  0  0
    7.1246  -13.6106   25.0506 C   0  0  0  0  0  0  0  0  0  0  0  0
    8.2002  -14.4707   24.5382 C   0  0  2  0  0  0  0  0  0  0  0  0
    7.6664  -14.9741   23.2302 N   0  0  0  0  0  0  0  0  0  0  0  0
    8.5761  -15.6399   25.3461 C   0  0  0  0  0  0  0  0  0  0  0  0
    7.7880  -16.5848   25.5936 O   0  0  0  0  0  0  0  0  0  0  0  0
   11.5308  -17.7376   24.7459 O   0  0  0  0  0  0  0  0  0  0  0  0
   11.5754  -17.5429   26.1113 C   0  0  0  0  0  0  0  0  0  0  0  0
   10.2912  -16.9662   26.6591 C   0  0  2  0  0  0  0  0  0  0  0  0
    9.8782  -15.7980   25.9201 N   0  0  0  0  0  0  0  0  0  0  0  0
   10.3280  -16.7453   28.1109 C   0  0  0  0  0  0  0  0  0  0  0  0
   10.6070  -17.8099   28.9551 O   0  0  0  0  0  0  0  0  0  0  0  0
   10.1171  -15.6253   28.6396 O   0  0  0  0  0  0  0  0  0  0  0  0
  1  2  1  0
  3  5  1  0
  3  4  1  6
  3  2  1  0
  5  6  2  0
  8  7  1  6
  8 10  1  0
  9  8  1  0
 11 10  1  1
 11 13  1  0
 12 11  1  0
 12  5  1  0
 13 18  1  0
 13 14  2  0
 15 16  1  0
 17 16  1  6
 18 17  1  0
 19 20  1  0
 19 17  1  0
 21 19  2  0
M  END
$$$$
