SLS.pdb
     RDKit          3D

 21 20  0  0  1  0  0  0  0  0999 V2000
    7.3513  -17.3861   20.8944 O   0  0  0  0  0  0  0  0  0  0  0  0
    6.5993  -16.2887   20.5259 C   0  0  0  0  0  0  0  0  0  0  0  0
    7.4813  -15.0667   20.5827 C   0  0  2  0  0  0  0  0  0  0  0  0
    8.4574  -15.0262   19.5400 N   0  0  0  0  0  0  0  0  0  0  0  0
    8.1136  -14.9020   21.9200 C   0  0  0  0  0  0  0  0  0  0  0  0
    9.3232  -15.1810   22.1254 O   0  0  0  0  0  0  0  0  0  0  0  0
    8.1707  -12.0486   26.7866 C   0  0  0  0  0  0  0  0  0  0  0  0
    6.9803  -12.8460   26.3594 C   0  0  1  0  0  0  0  0  0  0  0  0
    5.7519  -12.0610   26.8200 C   0  0  0  0  0  0  0  0  0  0  0  0
    6.9025  -13.2915   24.9744 C   0  0  0  0  0  0  0  0  0  0  0  0
    7.8723  -14.2064   24.3564 C   0  0  2  0  0  0  0  0  0  0  0  0
    7.3330  -14.4223   22.9738 N   0  0  0  0  0  0  0  0  0  0  0  0
    8.0491  -15.5271   24.9774 C   0  0  0  0  0  0  0  0  0  0  0  0
    7.1131  -16.3521   25.1133 O   0  0  0  0  0  0  0  0  0  0  0  0
   11.5242  -17.6055   24.8073 O   0  0  0  0  0  0  0  0  0  0  0  0
   10.3314  -18.1820   25.1932 C   0  0  0  0  0  0  0  0  0  0  0  0
    9.5096  -17.2791   26.0828 C   0  0  2  0  0  0  0  0  0  0  0  0
    9.3093  -15.9833   25.4811 N   0  0  0  0  0  0  0  0  0  0  0  0
   10.0185  -17.2021   27.4587 C   0  0  0  0  0  0  0  0  0  0  0  0
   10.2131  -18.3709   28.1796 O   0  0  0  0  0  0  0  0  0  0  0  0
   10.2922  -16.1164   28.0287 O   0  0  0  0  0  0  0  0  0  0  0  0
  1  2  1  0
  3  5  1  0
  3  4  1  6
  3  2  1  0
  5  6  2  0
  8  7  1  6
  8 10  1  0
  9  8  1  0
 11 10  1  1
 11 13  1  0
 12 11  1  0
 12  5  1  0
 13 18  1  0
 13 14  2  0
 15 16  1  0
 17 16  1  6
 18 17  1  0
 19 20  1  0
 19 17  1  0
 21 19  2  0
M  END
$$$$
