SLS.pdb
     RDKit          3D

 21 20  0  0  1  0  0  0  0  0999 V2000
    7.8620  -17.4143   21.2197 O   0  0  0  0  0  0  0  0  0  0  0  0
    6.8337  -16.4956   21.1553 C   0  0  0  0  0  0  0  0  0  0  0  0
    7.4201  -15.1140   21.3032 C   0  0  2  0  0  0  0  0  0  0  0  0
    8.1993  -14.7079   20.1764 N   0  0  0  0  0  0  0  0  0  0  0  0
    8.1885  -14.9714   22.5698 C   0  0  0  0  0  0  0  0  0  0  0  0
    9.4466  -14.9802   22.5919 O   0  0  0  0  0  0  0  0  0  0  0  0
    5.6997  -12.0242   26.6399 C   0  0  0  0  0  0  0  0  0  0  0  0
    6.7713  -12.5820   25.7592 C   0  0  1  0  0  0  0  0  0  0  0  0
    7.9526  -11.6165   25.8586 C   0  0  0  0  0  0  0  0  0  0  0  0
    7.1458  -13.9807   25.9206 C   0  0  0  0  0  0  0  0  0  0  0  0
    8.1578  -14.6544   25.0950 C   0  0  2  0  0  0  0  0  0  0  0  0
    7.4836  -14.8238   23.7661 N   0  0  0  0  0  0  0  0  0  0  0  0
    8.6177  -15.9799   25.5339 C   0  0  0  0  0  0  0  0  0  0  0  0
    7.8558  -16.9723   25.6328 O   0  0  0  0  0  0  0  0  0  0  0  0
   12.7524  -17.1062   25.6959 O   0  0  0  0  0  0  0  0  0  0  0  0
   11.6825  -17.9530   25.4904 C   0  0  0  0  0  0  0  0  0  0  0  0
   10.4611  -17.5502   26.2827 C   0  0  2  0  0  0  0  0  0  0  0  0
    9.9789  -16.2494   25.8867 N   0  0  0  0  0  0  0  0  0  0  0  0
   10.6438  -17.6785   27.7346 C   0  0  0  0  0  0  0  0  0  0  0  0
   11.0782  -18.8853   28.2625 O   0  0  0  0  0  0  0  0  0  0  0  0
   10.4245  -16.7387   28.5390 O   0  0  0  0  0  0  0  0  0  0  0  0
  1  2  1  0
  3  5  1  0
  3  4  1  6
  3  2  1  0
  5  6  2  0
  8  7  1  1
  8 10  1  0
  9  8  1  0
 11 10  1  1
 11 13  1  0
 12 11  1  0
 12  5  1  0
 13 18  1  0
 13 14  2  0
 15 16  1  0
 17 16  1  6
 18 17  1  0
 19 20  1  0
 19 17  1  0
 21 19  2  0
M  END
$$$$
