SLS.pdb
     RDKit          3D

 21 20  0  0  1  0  0  0  0  0999 V2000
    9.6370  -18.9000   19.4098 O   0  0  0  0  0  0  0  0  0  0  0  0
   10.5160  -18.7928   18.3509 C   0  0  0  0  0  0  0  0  0  0  0  0
   10.4732  -17.3749   17.8388 C   0  0  2  0  0  0  0  0  0  0  0  0
   11.3449  -17.1490   16.7293 N   0  0  0  0  0  0  0  0  0  0  0  0
   10.7154  -16.3865   18.9249 C   0  0  0  0  0  0  0  0  0  0  0  0
   11.8737  -16.0039   19.2331 O   0  0  0  0  0  0  0  0  0  0  0  0
    6.6310  -12.6602   19.7586 C   0  0  0  0  0  0  0  0  0  0  0  0
    7.9757  -13.3006   19.6286 C   0  0  1  0  0  0  0  0  0  0  0  0
    8.9537  -12.1765   19.2860 C   0  0  0  0  0  0  0  0  0  0  0  0
    8.4387  -14.1696   20.7025 C   0  0  0  0  0  0  0  0  0  0  0  0
    9.7449  -14.8430   20.7008 C   0  0  2  0  0  0  0  0  0  0  0  0
    9.6174  -15.8730   19.6182 N   0  0  0  0  0  0  0  0  0  0  0  0
   10.1511  -15.5372   21.9313 C   0  0  0  0  0  0  0  0  0  0  0  0
   10.2856  -14.9550   23.0349 O   0  0  0  0  0  0  0  0  0  0  0  0
   10.5466  -19.8067   22.1136 O   0  0  0  0  0  0  0  0  0  0  0  0
   10.1332  -19.0404   23.1842 C   0  0  0  0  0  0  0  0  0  0  0  0
   10.7459  -17.6597   23.1826 C   0  0  2  0  0  0  0  0  0  0  0  0
   10.4283  -16.9413   21.9725 N   0  0  0  0  0  0  0  0  0  0  0  0
   12.1824  -17.6629   23.4896 C   0  0  0  0  0  0  0  0  0  0  0  0
   12.6351  -18.3194   24.6244 O   0  0  0  0  0  0  0  0  0  0  0  0
   13.0390  -17.0935   22.7681 O   0  0  0  0  0  0  0  0  0  0  0  0
  1  2  1  0
  3  5  1  0
  3  4  1  6
  3  2  1  0
  5  6  2  0
  8  7  1  1
  8 10  1  0
  9  8  1  0
 11 10  1  1
 11 13  1  0
 12 11  1  0
 12  5  1  0
 13 18  1  0
 13 14  2  0
 15 16  1  0
 17 16  1  6
 18 17  1  0
 19 20  1  0
 19 17  1  0
 21 19  2  0
M  END
$$$$
