RGP.pdb
     RDKit          3D

 23 23  0  0  1  0  0  0  0  0999 V2000
    9.5007  -20.9501   19.6187 N   0  0  0  0  0  0  0  0  0  0  0  0
    9.3525  -20.2805   18.3682 C   0  0  0  0  0  0  0  0  0  0  0  0
    9.0327  -20.9641   17.3361 N   0  0  0  0  0  0  0  0  0  0  0  0
    9.5542  -18.8778   18.2555 N   0  0  0  0  0  0  0  0  0  0  0  0
    8.4068  -17.9611   18.3944 C   0  0  0  0  0  0  0  0  0  0  0  0
    7.3918  -18.6608   19.2460 C   0  0  0  0  0  0  0  0  0  0  0  0
    6.8614  -17.8883   20.4017 C   0  0  0  0  0  0  0  0  0  0  0  0
    7.7497  -17.8483   21.6202 C   0  0  2  0  0  0  0  0  0  0  0  0
    7.6625  -19.1726   22.2538 N   0  0  0  0  0  0  0  0  0  0  0  0
    7.1571  -16.8816   22.5843 C   0  0  0  0  0  0  0  0  0  0  0  0
    6.4345  -17.3008   23.5187 O   0  0  0  0  0  0  0  0  0  0  0  0
    8.9153  -20.6231   16.3777 N   0  0  0  0  0  0  0  0  0  0  0  0
    7.3994  -15.4730   22.4632 C   0  0  0  0  0  0  0  0  0  0  0  0
    6.8688  -14.6292   23.4948 C   0  0  0  0  0  0  0  0  0  0  0  0
    7.8360  -14.3205   24.5547 O   0  0  0  0  0  0  0  0  0  0  0  0
    8.8432  -15.0199   24.6806 N   0  0  0  0  0  0  0  0  0  0  0  0
    7.5873  -13.2177   25.4158 C   0  0  0  0  0  0  0  0  0  0  0  0
    6.7194  -12.0761   24.9957 C   0  0  0  0  0  0  0  0  0  0  0  0
    6.3999  -11.3060   26.2286 C   0  0  0  0  0  0  0  0  0  0  0  0
    6.7873  -12.2349   27.3507 C   0  0  2  0  0  0  0  0  0  0  0  0
    8.0461  -12.8826   26.7222 C   0  0  0  0  0  0  0  0  0  0  0  0
    8.5337  -13.9495   27.5792 O   0  0  0  0  0  0  0  0  0  0  0  0
    8.0834  -15.0845   27.6649 O   0  0  0  0  0  0  0  0  0  0  0  0
  2  1  1  0
  3  2  2  0
  4  2  1  0
  5  4  1  0
  6  5  1  0
  7  6  1  0
  8  7  1  0
  8 10  1  0
  8  9  1  1
 10 12  1  0
 10 11  2  0
 12 13  1  0
 13 14  1  0
 14 15  2  0
 16 14  1  0
 16 20  1  0
 17 16  1  0
 18 17  1  0
 18 19  1  0
 19 20  1  0
 20 21  1  6
 21 22  2  0
 21 23  1  0
M  END
$$$$
