RGP.pdb
     RDKit          3D

 23 23  0  0  1  0  0  0  0  0999 V2000
    9.6024  -12.8171   17.6269 N   0  0  0  0  0  0  0  0  0  0  0  0
    8.5161  -13.6248   17.1780 C   0  0  0  0  0  0  0  0  0  0  0  0
    8.5688  -14.1345   16.0064 N   0  0  0  0  0  0  0  0  0  0  0  0
    7.3872  -13.8676   18.0071 N   0  0  0  0  0  0  0  0  0  0  0  0
    7.3411  -13.2936   19.3652 C   0  0  0  0  0  0  0  0  0  0  0  0
    7.9236  -14.3182   20.2904 C   0  0  0  0  0  0  0  0  0  0  0  0
    7.0449  -15.4700   20.6297 C   0  0  0  0  0  0  0  0  0  0  0  0
    7.6157  -16.4541   21.6202 C   0  0  2  0  0  0  0  0  0  0  0  0
    6.7394  -17.6349   21.5996 N   0  0  0  0  0  0  0  0  0  0  0  0
    7.4873  -15.8594   22.9785 C   0  0  0  0  0  0  0  0  0  0  0  0
    6.9957  -14.7140   23.1107 O   0  0  0  0  0  0  0  0  0  0  0  0
    7.8571  -14.7102   15.5474 N   0  0  0  0  0  0  0  0  0  0  0  0
    7.9171  -16.5766   24.1441 C   0  0  0  0  0  0  0  0  0  0  0  0
    7.9270  -15.8575   25.3853 C   0  0  0  0  0  0  0  0  0  0  0  0
    9.1198  -16.1133   26.2013 O   0  0  0  0  0  0  0  0  0  0  0  0
    9.7107  -17.1897   26.0930 N   0  0  0  0  0  0  0  0  0  0  0  0
    9.5674  -15.1097   27.1023 C   0  0  0  0  0  0  0  0  0  0  0  0
    9.1071  -13.6927   26.9879 C   0  0  0  0  0  0  0  0  0  0  0  0
    9.4779  -13.0187   28.2622 C   0  0  0  0  0  0  0  0  0  0  0  0
    9.8026  -14.1562   29.1964 C   0  0  2  0  0  0  0  0  0  0  0  0
   10.4817  -15.1227   28.1947 C   0  0  0  0  0  0  0  0  0  0  0  0
   10.7646  -16.3907   28.8450 O   0  0  0  0  0  0  0  0  0  0  0  0
   11.8683  -16.8455   29.1156 O   0  0  0  0  0  0  0  0  0  0  0  0
  2  1  1  0
  3  2  2  0
  4  2  1  0
  5  4  1  0
  6  5  1  0
  7  6  1  0
  8  7  1  0
  8 10  1  0
  8  9  1  1
 10 12  1  0
 10 11  2  0
 12 13  1  0
 13 14  1  0
 14 15  2  0
 16 14  1  0
 16 20  1  0
 17 16  1  0
 18 17  1  0
 18 19  1  0
 19 20  1  0
 20 21  1  1
 21 22  2  0
 21 23  1  0
M  END
$$$$
