RGP.pdb
     RDKit          3D

 23 23  0  0  1  0  0  0  0  0999 V2000
    8.5481  -15.1428   16.7629 N   0  0  0  0  0  0  0  0  0  0  0  0
    7.8413  -14.1077   17.4434 C   0  0  0  0  0  0  0  0  0  0  0  0
    7.9250  -12.9104   17.0026 N   0  0  0  0  0  0  0  0  0  0  0  0
    7.0538  -14.3869   18.5935 N   0  0  0  0  0  0  0  0  0  0  0  0
    7.4519  -15.4765   19.5048 C   0  0  0  0  0  0  0  0  0  0  0  0
    8.8791  -15.2252   19.8858 C   0  0  0  0  0  0  0  0  0  0  0  0
    9.1466  -15.0366   21.3372 C   0  0  0  0  0  0  0  0  0  0  0  0
    8.1374  -15.6574   22.2708 C   0  0  2  0  0  0  0  0  0  0  0  0
    6.8168  -15.4792   21.6487 N   0  0  0  0  0  0  0  0  0  0  0  0
    8.1229  -14.8551   23.5243 C   0  0  0  0  0  0  0  0  0  0  0  0
    8.7085  -13.7475   23.5592 O   0  0  0  0  0  0  0  0  0  0  0  0
    7.4241  -12.0860   17.3463 N   0  0  0  0  0  0  0  0  0  0  0  0
    7.4474  -15.3282   24.6980 C   0  0  0  0  0  0  0  0  0  0  0  0
    8.1452  -16.2807   25.5125 C   0  0  0  0  0  0  0  0  0  0  0  0
    9.5217  -15.8828   25.8307 O   0  0  0  0  0  0  0  0  0  0  0  0
   10.4546  -16.3357   25.1643 N   0  0  0  0  0  0  0  0  0  0  0  0
    9.7480  -14.9808   26.9052 C   0  0  0  0  0  0  0  0  0  0  0  0
    9.0661  -13.6528   26.9700 C   0  0  0  0  0  0  0  0  0  0  0  0
    9.2514  -13.1444   28.3566 C   0  0  0  0  0  0  0  0  0  0  0  0
    9.7096  -14.3536   29.1312 C   0  0  2  0  0  0  0  0  0  0  0  0
   10.5921  -15.0282   28.0519 C   0  0  0  0  0  0  0  0  0  0  0  0
   11.0460  -16.3251   28.5238 O   0  0  0  0  0  0  0  0  0  0  0  0
   12.2016  -16.6599   28.7488 O   0  0  0  0  0  0  0  0  0  0  0  0
  2  1  1  0
  3  2  2  0
  4  2  1  0
  5  4  1  0
  6  5  1  0
  7  6  1  0
  8  7  1  0
  8 10  1  0
  8  9  1  6
 10 12  1  0
 10 11  2  0
 12 13  1  0
 13 14  1  0
 14 15  2  0
 16 14  1  0
 16 20  1  0
 17 16  1  0
 18 17  1  0
 18 19  1  0
 19 20  1  0
 20 21  1  1
 21 22  2  0
 21 23  1  0
M  END
$$$$
