RGP.pdb
     RDKit          3D

 23 23  0  0  1  0  0  0  0  0999 V2000
    9.9129  -15.1921   15.2424 N   0  0  0  0  0  0  0  0  0  0  0  0
    8.7375  -14.3865   15.2995 C   0  0  0  0  0  0  0  0  0  0  0  0
    8.1528  -14.0693   14.2075 N   0  0  0  0  0  0  0  0  0  0  0  0
    8.2133  -13.9357   16.5417 N   0  0  0  0  0  0  0  0  0  0  0  0
    8.2130  -14.8411   17.7063 C   0  0  0  0  0  0  0  0  0  0  0  0
    6.8580  -14.7373   18.3376 C   0  0  0  0  0  0  0  0  0  0  0  0
    6.6433  -15.5487   19.5661 C   0  0  0  0  0  0  0  0  0  0  0  0
    7.8549  -15.7294   20.4464 C   0  0  2  0  0  0  0  0  0  0  0  0
    8.1916  -17.1606   20.4180 N   0  0  0  0  0  0  0  0  0  0  0  0
    7.4514  -15.4205   21.8453 C   0  0  0  0  0  0  0  0  0  0  0  0
    6.5068  -16.0532   22.3730 O   0  0  0  0  0  0  0  0  0  0  0  0
    7.3139  -13.4926   14.0973 N   0  0  0  0  0  0  0  0  0  0  0  0
    8.1271  -14.4079   22.6040 C   0  0  0  0  0  0  0  0  0  0  0  0
    7.3683  -13.7409   23.6223 C   0  0  0  0  0  0  0  0  0  0  0  0
    8.0310  -13.7257   24.9318 O   0  0  0  0  0  0  0  0  0  0  0  0
    8.9659  -14.4993   25.1486 N   0  0  0  0  0  0  0  0  0  0  0  0
    7.5769  -12.8156   25.9242 C   0  0  0  0  0  0  0  0  0  0  0  0
    6.5912  -11.7383   25.6069 C   0  0  0  0  0  0  0  0  0  0  0  0
    6.0877  -11.2226   26.9092 C   0  0  0  0  0  0  0  0  0  0  0  0
    6.5226  -12.2645   27.9078 C   0  0  2  0  0  0  0  0  0  0  0  0
    7.8972  -12.6407   27.3013 C   0  0  0  0  0  0  0  0  0  0  0  0
    8.4678  -13.7626   28.0269 O   0  0  0  0  0  0  0  0  0  0  0  0
    9.4161  -13.7295   28.8001 O   0  0  0  0  0  0  0  0  0  0  0  0
  2  1  1  0
  3  2  2  0
  4  2  1  0
  5  4  1  0
  6  5  1  0
  7  6  1  0
  8  7  1  0
  8 10  1  0
  8  9  1  1
 10 12  1  0
 10 11  2  0
 12 13  1  0
 13 14  1  0
 14 15  2  0
 16 14  1  0
 16 20  1  0
 17 16  1  0
 18 17  1  0
 18 19  1  0
 19 20  1  0
 20 21  1  6
 21 22  2  0
 21 23  1  0
M  END
$$$$
