RGP.pdb
     RDKit          3D

 23 23  0  0  1  0  0  0  0  0999 V2000
   10.3803  -13.4232   18.9483 N   0  0  0  0  0  0  0  0  0  0  0  0
    9.1500  -12.8202   19.3443 C   0  0  0  0  0  0  0  0  0  0  0  0
    8.9166  -11.6108   19.0007 N   0  0  0  0  0  0  0  0  0  0  0  0
    8.1902  -13.5383   20.1085 N   0  0  0  0  0  0  0  0  0  0  0  0
    7.2891  -14.4943   19.4376 C   0  0  0  0  0  0  0  0  0  0  0  0
    8.1183  -15.6852   19.0645 C   0  0  0  0  0  0  0  0  0  0  0  0
    7.8887  -16.9198   19.8624 C   0  0  0  0  0  0  0  0  0  0  0  0
    8.5774  -16.9650   21.2038 C   0  0  2  0  0  0  0  0  0  0  0  0
    8.5638  -18.3688   21.6417 N   0  0  0  0  0  0  0  0  0  0  0  0
    7.7345  -16.2142   22.1738 C   0  0  0  0  0  0  0  0  0  0  0  0
    6.8275  -16.8111   22.8001 O   0  0  0  0  0  0  0  0  0  0  0  0
    8.1514  -11.0110   19.3218 N   0  0  0  0  0  0  0  0  0  0  0  0
    7.9426  -14.8141   22.4066 C   0  0  0  0  0  0  0  0  0  0  0  0
    7.1769  -14.2069   23.4566 C   0  0  0  0  0  0  0  0  0  0  0  0
    7.8931  -14.1308   24.7355 O   0  0  0  0  0  0  0  0  0  0  0  0
    8.8073  -14.9244   24.9681 N   0  0  0  0  0  0  0  0  0  0  0  0
    7.5139  -13.1396   25.6806 C   0  0  0  0  0  0  0  0  0  0  0  0
    6.6819  -11.9617   25.2892 C   0  0  0  0  0  0  0  0  0  0  0  0
    6.1925  -11.3455   26.5526 C   0  0  0  0  0  0  0  0  0  0  0  0
    6.4547  -12.3987   27.5986 C   0  0  2  0  0  0  0  0  0  0  0  0
    7.7964  -12.9591   27.0652 C   0  0  0  0  0  0  0  0  0  0  0  0
    8.1945  -14.1172   27.8468 O   0  0  0  0  0  0  0  0  0  0  0  0
    7.7143  -15.2416   27.7877 O   0  0  0  0  0  0  0  0  0  0  0  0
  2  1  1  0
  3  2  2  0
  4  2  1  0
  5  4  1  0
  6  5  1  0
  7  6  1  0
  8  7  1  0
  8 10  1  0
  8  9  1  1
 10 12  1  0
 10 11  2  0
 12 13  1  0
 13 14  1  0
 14 15  2  0
 16 14  1  0
 16 20  1  0
 17 16  1  0
 18 17  1  0
 18 19  1  0
 19 20  1  0
 20 21  1  6
 21 22  2  0
 21 23  1  0
M  END
$$$$
