RGP.pdb
     RDKit          3D

 23 23  0  0  1  0  0  0  0  0999 V2000
   14.1024  -16.1251   17.7208 N   0  0  0  0  0  0  0  0  0  0  0  0
   14.0879  -14.8173   18.2895 C   0  0  0  0  0  0  0  0  0  0  0  0
   15.1705  -14.1369   18.3005 N   0  0  0  0  0  0  0  0  0  0  0  0
   12.8983  -14.2664   18.8392 N   0  0  0  0  0  0  0  0  0  0  0  0
   11.6782  -15.0921   18.9157 C   0  0  0  0  0  0  0  0  0  0  0  0
   10.6639  -14.2992   19.6824 C   0  0  0  0  0  0  0  0  0  0  0  0
    9.3467  -14.9560   19.9001 C   0  0  0  0  0  0  0  0  0  0  0  0
    8.1402  -14.0670   19.7283 C   0  0  2  0  0  0  0  0  0  0  0  0
    8.6037  -12.8476   19.0495 N   0  0  0  0  0  0  0  0  0  0  0  0
    7.6873  -13.6474   21.0826 C   0  0  0  0  0  0  0  0  0  0  0  0
    8.1343  -12.5905   21.5869 O   0  0  0  0  0  0  0  0  0  0  0  0
   15.3048  -13.1899   18.6662 N   0  0  0  0  0  0  0  0  0  0  0  0
    6.7441  -14.4337   21.8240 C   0  0  0  0  0  0  0  0  0  0  0  0
    6.3631  -13.9458   23.1181 C   0  0  0  0  0  0  0  0  0  0  0  0
    7.4390  -14.0229   24.1135 O   0  0  0  0  0  0  0  0  0  0  0  0
    8.3406  -14.8514   23.9708 N   0  0  0  0  0  0  0  0  0  0  0  0
    7.4158  -13.1370   25.2244 C   0  0  0  0  0  0  0  0  0  0  0  0
    6.6595  -11.8490   25.1833 C   0  0  0  0  0  0  0  0  0  0  0  0
    6.5617  -11.3658   26.5878 C   0  0  0  0  0  0  0  0  0  0  0  0
    6.9396  -12.5679   27.4150 C   0  0  2  0  0  0  0  0  0  0  0  0
    8.0396  -13.1681   26.5048 C   0  0  0  0  0  0  0  0  0  0  0  0
    8.4730  -14.4504   27.0323 O   0  0  0  0  0  0  0  0  0  0  0  0
    9.5539  -14.7033   27.5481 O   0  0  0  0  0  0  0  0  0  0  0  0
  2  1  1  0
  3  2  2  0
  4  2  1  0
  5  4  1  0
  6  5  1  0
  7  6  1  0
  8  7  1  0
  8 10  1  0
  8  9  1  6
 10 12  1  0
 10 11  2  0
 12 13  1  0
 13 14  1  0
 14 15  2  0
 16 14  1  0
 16 20  1  0
 17 16  1  0
 18 17  1  0
 18 19  1  0
 19 20  1  0
 20 21  1  6
 21 22  2  0
 21 23  1  0
M  END
$$$$
