RGP.pdb
     RDKit          3D

 23 23  0  0  1  0  0  0  0  0999 V2000
    9.2180  -13.9007   18.0693 N   0  0  0  0  0  0  0  0  0  0  0  0
    8.5374  -12.8663   18.7770 C   0  0  0  0  0  0  0  0  0  0  0  0
    9.1528  -11.7701   19.0104 N   0  0  0  0  0  0  0  0  0  0  0  0
    7.1982  -13.0367   19.2222 N   0  0  0  0  0  0  0  0  0  0  0  0
    6.9222  -13.8752   20.4041 C   0  0  0  0  0  0  0  0  0  0  0  0
    6.9116  -15.2982   19.9349 C   0  0  0  0  0  0  0  0  0  0  0  0
    6.6445  -16.3291   20.9740 C   0  0  0  0  0  0  0  0  0  0  0  0
    7.8337  -16.7347   21.8088 C   0  0  2  0  0  0  0  0  0  0  0  0
    8.0493  -18.1701   21.5725 N   0  0  0  0  0  0  0  0  0  0  0  0
    7.4527  -16.5975   23.2410 C   0  0  0  0  0  0  0  0  0  0  0  0
    6.7381  -17.4748   23.7801 O   0  0  0  0  0  0  0  0  0  0  0  0
    8.7815  -10.9366   19.4752 N   0  0  0  0  0  0  0  0  0  0  0  0
    7.8910  -15.4749   24.0190 C   0  0  0  0  0  0  0  0  0  0  0  0
    7.6560  -15.5301   25.4330 C   0  0  0  0  0  0  0  0  0  0  0  0
    8.8000  -16.0406   26.1978 O   0  0  0  0  0  0  0  0  0  0  0  0
    9.1639  -17.2078   26.0404 N   0  0  0  0  0  0  0  0  0  0  0  0
    9.4644  -15.1735   27.1067 C   0  0  0  0  0  0  0  0  0  0  0  0
    9.2695  -13.6927   27.0611 C   0  0  0  0  0  0  0  0  0  0  0  0
    9.8137  -13.1505   28.3360 C   0  0  0  0  0  0  0  0  0  0  0  0
    9.9627  -14.3653   29.2158 C   0  0  2  0  0  0  0  0  0  0  0  0
   10.4072  -15.3983   28.1508 C   0  0  0  0  0  0  0  0  0  0  0  0
   10.4787  -16.7221   28.7452 O   0  0  0  0  0  0  0  0  0  0  0  0
    9.5903  -17.5637   28.7693 O   0  0  0  0  0  0  0  0  0  0  0  0
  2  1  1  0
  3  2  2  0
  4  2  1  0
  5  4  1  0
  6  5  1  0
  7  6  1  0
  8  7  1  0
  8 10  1  0
  8  9  1  1
 10 12  1  0
 10 11  2  0
 12 13  1  0
 13 14  1  0
 14 15  2  0
 16 14  1  0
 16 20  1  0
 17 16  1  0
 18 17  1  0
 18 19  1  0
 19 20  1  0
 20 21  1  1
 21 22  2  0
 21 23  1  0
M  END
$$$$
