RGP.pdb
     RDKit          3D

 23 23  0  0  1  0  0  0  0  0999 V2000
    7.8043  -12.7695   16.7623 N   0  0  0  0  0  0  0  0  0  0  0  0
    7.9632  -14.1548   16.4628 C   0  0  0  0  0  0  0  0  0  0  0  0
    7.5694  -14.5898   15.3267 N   0  0  0  0  0  0  0  0  0  0  0  0
    8.5471  -15.0489   17.4011 N   0  0  0  0  0  0  0  0  0  0  0  0
    8.9307  -14.5571   18.7380 C   0  0  0  0  0  0  0  0  0  0  0  0
    7.6951  -13.9825   19.3611 C   0  0  0  0  0  0  0  0  0  0  0  0
    7.3145  -14.5328   20.6900 C   0  0  0  0  0  0  0  0  0  0  0  0
    8.3881  -15.3193   21.4002 C   0  0  2  0  0  0  0  0  0  0  0  0
    7.9425  -16.7205   21.4253 N   0  0  0  0  0  0  0  0  0  0  0  0
    8.4240  -14.8645   22.8169 C   0  0  0  0  0  0  0  0  0  0  0  0
    8.8289  -13.7097   23.0880 O   0  0  0  0  0  0  0  0  0  0  0  0
    7.6876  -15.5341   14.9487 N   0  0  0  0  0  0  0  0  0  0  0  0
    8.0012  -15.7272   23.8820 C   0  0  0  0  0  0  0  0  0  0  0  0
    8.1252  -15.2217   25.2187 C   0  0  0  0  0  0  0  0  0  0  0  0
    9.2936  -15.7444   25.9369 O   0  0  0  0  0  0  0  0  0  0  0  0
    9.7803  -16.8257   25.5999 N   0  0  0  0  0  0  0  0  0  0  0  0
    9.8388  -14.9886   27.0097 C   0  0  0  0  0  0  0  0  0  0  0  0
    9.6171  -13.5151   27.1218 C   0  0  0  0  0  0  0  0  0  0  0  0
   10.0114  -13.1275   28.5038 C   0  0  0  0  0  0  0  0  0  0  0  0
   10.0935  -14.4391   29.2420 C   0  0  2  0  0  0  0  0  0  0  0  0
   10.6708  -15.3304   28.1145 C   0  0  0  0  0  0  0  0  0  0  0  0
   10.7085  -16.7160   28.5495 O   0  0  0  0  0  0  0  0  0  0  0  0
    9.7777  -17.5109   28.5462 O   0  0  0  0  0  0  0  0  0  0  0  0
  2  1  1  0
  3  2  2  0
  4  2  1  0
  5  4  1  0
  6  5  1  0
  7  6  1  0
  8  7  1  0
  8 10  1  0
  8  9  1  1
 10 12  1  0
 10 11  2  0
 12 13  1  0
 13 14  1  0
 14 15  2  0
 16 14  1  0
 16 20  1  0
 17 16  1  0
 18 17  1  0
 18 19  1  0
 19 20  1  0
 20 21  1  1
 21 22  2  0
 21 23  1  0
M  END
$$$$
