RGP.pdb
     RDKit          3D

 23 23  0  0  1  0  0  0  0  0999 V2000
   13.5212  -13.9389   21.2479 N   0  0  0  0  0  0  0  0  0  0  0  0
   13.3708  -14.8847   20.1911 C   0  0  0  0  0  0  0  0  0  0  0  0
   14.3339  -15.0461   19.3655 N   0  0  0  0  0  0  0  0  0  0  0  0
   12.1766  -15.6418   20.0447 N   0  0  0  0  0  0  0  0  0  0  0  0
   10.8881  -15.0638   20.4714 C   0  0  0  0  0  0  0  0  0  0  0  0
   10.5729  -13.9523   19.5173 C   0  0  0  0  0  0  0  0  0  0  0  0
    9.3860  -13.1193   19.8506 C   0  0  0  0  0  0  0  0  0  0  0  0
    8.1697  -13.8781   20.3200 C   0  0  2  0  0  0  0  0  0  0  0  0
    6.9996  -13.2179   19.7220 N   0  0  0  0  0  0  0  0  0  0  0  0
    8.0536  -13.6868   21.7914 C   0  0  0  0  0  0  0  0  0  0  0  0
    8.0946  -12.5300   22.2721 O   0  0  0  0  0  0  0  0  0  0  0  0
   14.3637  -15.6817   18.5633 N   0  0  0  0  0  0  0  0  0  0  0  0
    7.8942  -14.8071   22.6730 C   0  0  0  0  0  0  0  0  0  0  0  0
    7.8701  -14.5308   24.0804 C   0  0  0  0  0  0  0  0  0  0  0  0
    9.0896  -14.9505   24.7810 O   0  0  0  0  0  0  0  0  0  0  0  0
    9.8530  -15.7552   24.2431 N   0  0  0  0  0  0  0  0  0  0  0  0
    9.3630  -14.4175   26.0697 C   0  0  0  0  0  0  0  0  0  0  0  0
    8.8264  -13.0905   26.4984 C   0  0  0  0  0  0  0  0  0  0  0  0
    9.0022  -13.0150   27.9745 C   0  0  0  0  0  0  0  0  0  0  0  0
    9.2912  -14.4374   28.3814 C   0  0  2  0  0  0  0  0  0  0  0  0
   10.1439  -14.8816   27.1671 C   0  0  0  0  0  0  0  0  0  0  0  0
   10.4329  -16.3024   27.2589 O   0  0  0  0  0  0  0  0  0  0  0  0
    9.6589  -17.2238   27.0347 O   0  0  0  0  0  0  0  0  0  0  0  0
  2  1  1  0
  3  2  2  0
  4  2  1  0
  5  4  1  0
  6  5  1  0
  7  6  1  0
  8  7  1  0
  8 10  1  0
  8  9  1  6
 10 12  1  0
 10 11  2  0
 12 13  1  0
 13 14  1  0
 14 15  2  0
 16 14  1  0
 16 20  1  0
 17 16  1  0
 18 17  1  0
 18 19  1  0
 19 20  1  0
 20 21  1  6
 21 22  2  0
 21 23  1  0
M  END
$$$$
