RGP.pdb
     RDKit          3D

 23 23  0  0  1  0  0  0  0  0999 V2000
    8.1678  -18.2907   16.0330 N   0  0  0  0  0  0  0  0  0  0  0  0
    7.3660  -19.2978   16.6469 C   0  0  0  0  0  0  0  0  0  0  0  0
    7.5118  -20.5132   16.2773 N   0  0  0  0  0  0  0  0  0  0  0  0
    6.4166  -18.9715   17.6533 N   0  0  0  0  0  0  0  0  0  0  0  0
    6.7039  -17.8792   18.6023 C   0  0  0  0  0  0  0  0  0  0  0  0
    6.6841  -18.4793   19.9751 C   0  0  0  0  0  0  0  0  0  0  0  0
    6.9907  -17.5542   21.0994 C   0  0  0  0  0  0  0  0  0  0  0  0
    8.1663  -17.9440   21.9604 C   0  0  2  0  0  0  0  0  0  0  0  0
    8.0689  -19.3945   22.1818 N   0  0  0  0  0  0  0  0  0  0  0  0
    7.9880  -17.3030   23.2918 C   0  0  0  0  0  0  0  0  0  0  0  0
    7.3268  -17.8903   24.1799 O   0  0  0  0  0  0  0  0  0  0  0  0
    8.0508  -20.8586   15.4781 N   0  0  0  0  0  0  0  0  0  0  0  0
    8.5621  -16.0200   23.5783 C   0  0  0  0  0  0  0  0  0  0  0  0
    8.4479  -15.5408   24.9255 C   0  0  0  0  0  0  0  0  0  0  0  0
    9.6136  -15.8551   25.7601 O   0  0  0  0  0  0  0  0  0  0  0  0
   10.2605  -16.8809   25.5390 N   0  0  0  0  0  0  0  0  0  0  0  0
    9.9708  -14.9656   26.8093 C   0  0  0  0  0  0  0  0  0  0  0  0
    9.6005  -13.5185   26.7694 C   0  0  0  0  0  0  0  0  0  0  0  0
    9.8109  -12.9854   28.1430 C   0  0  0  0  0  0  0  0  0  0  0  0
    9.9395  -14.2199   28.9985 C   0  0  2  0  0  0  0  0  0  0  0  0
   10.7122  -15.1326   28.0143 C   0  0  0  0  0  0  0  0  0  0  0  0
   10.8351  -16.4687   28.5714 O   0  0  0  0  0  0  0  0  0  0  0  0
    9.9575  -17.3194   28.6362 O   0  0  0  0  0  0  0  0  0  0  0  0
  2  1  1  0
  3  2  2  0
  4  2  1  0
  5  4  1  0
  6  5  1  0
  7  6  1  0
  8  7  1  0
  8 10  1  0
  8  9  1  1
 10 12  1  0
 10 11  2  0
 12 13  1  0
 13 14  1  0
 14 15  2  0
 16 14  1  0
 16 20  1  0
 17 16  1  0
 18 17  1  0
 18 19  1  0
 19 20  1  0
 20 21  1  6
 21 22  2  0
 21 23  1  0
M  END
$$$$
