RGP.pdb
     RDKit          3D

 23 23  0  0  1  0  0  0  0  0999 V2000
   13.1872  -20.5501   23.0251 N   0  0  0  0  0  0  0  0  0  0  0  0
   12.0061  -19.9778   22.4671 C   0  0  0  0  0  0  0  0  0  0  0  0
   11.7518  -18.7450   22.6921 N   0  0  0  0  0  0  0  0  0  0  0  0
   11.1169  -20.7520   21.6729 N   0  0  0  0  0  0  0  0  0  0  0  0
    9.8783  -20.1402   21.1553 C   0  0  0  0  0  0  0  0  0  0  0  0
    9.0237  -19.8170   22.3429 C   0  0  0  0  0  0  0  0  0  0  0  0
    7.7003  -19.2031   22.0505 C   0  0  0  0  0  0  0  0  0  0  0  0
    6.7941  -19.0129   23.2413 C   0  0  2  0  0  0  0  0  0  0  0  0
    5.5904  -19.8205   22.9930 N   0  0  0  0  0  0  0  0  0  0  0  0
    6.3513  -17.5920   23.2542 C   0  0  0  0  0  0  0  0  0  0  0  0
    5.9621  -17.0728   24.3266 O   0  0  0  0  0  0  0  0  0  0  0  0
   10.9562  -18.2019   22.3448 N   0  0  0  0  0  0  0  0  0  0  0  0
    6.3624  -16.8025   22.0567 C   0  0  0  0  0  0  0  0  0  0  0  0
    7.0932  -15.5687   22.0959 C   0  0  0  0  0  0  0  0  0  0  0  0
    8.1217  -15.4634   21.0541 O   0  0  0  0  0  0  0  0  0  0  0  0
    8.9309  -16.3812   20.9041 N   0  0  0  0  0  0  0  0  0  0  0  0
    8.1614  -14.3000   20.2391 C   0  0  0  0  0  0  0  0  0  0  0  0
    7.0533  -13.2976   20.2503 C   0  0  0  0  0  0  0  0  0  0  0  0
    7.5739  -12.0775   19.5751 C   0  0  0  0  0  0  0  0  0  0  0  0
    9.0652  -12.2921   19.5313 C   0  0  2  0  0  0  0  0  0  0  0  0
    9.0956  -13.8195   19.2768 C   0  0  0  0  0  0  0  0  0  0  0  0
   10.4637  -14.3043   19.3386 O   0  0  0  0  0  0  0  0  0  0  0  0
   11.2399  -14.4300   18.4005 O   0  0  0  0  0  0  0  0  0  0  0  0
  2  1  1  0
  3  2  2  0
  4  2  1  0
  5  4  1  0
  6  5  1  0
  7  6  1  0
  8  7  1  0
  8 10  1  0
  8  9  1  6
 10 12  1  0
 10 11  2  0
 12 13  1  0
 13 14  1  0
 14 15  2  0
 16 14  1  0
 16 20  1  0
 17 16  1  0
 18 17  1  0
 18 19  1  0
 19 20  1  0
 20 21  1  1
 21 22  2  0
 21 23  1  0
M  END
$$$$
