RGP.pdb
     RDKit          3D

 23 23  0  0  1  0  0  0  0  0999 V2000
    9.1998  -11.5972   19.5729 N   0  0  0  0  0  0  0  0  0  0  0  0
    9.0673  -12.9648   19.1904 C   0  0  0  0  0  0  0  0  0  0  0  0
    9.1586  -13.2710   17.9523 N   0  0  0  0  0  0  0  0  0  0  0  0
    8.8369  -13.9809   20.1574 N   0  0  0  0  0  0  0  0  0  0  0  0
    8.1603  -15.2296   19.7582 C   0  0  0  0  0  0  0  0  0  0  0  0
    6.6948  -15.0245   19.9932 C   0  0  0  0  0  0  0  0  0  0  0  0
    6.1802  -15.4397   21.3261 C   0  0  0  0  0  0  0  0  0  0  0  0
    6.8806  -16.6182   21.9555 C   0  0  2  0  0  0  0  0  0  0  0  0
    6.0401  -17.7978   21.7012 N   0  0  0  0  0  0  0  0  0  0  0  0
    6.8815  -16.4131   23.4297 C   0  0  0  0  0  0  0  0  0  0  0  0
    5.8022  -16.1877   24.0258 O   0  0  0  0  0  0  0  0  0  0  0  0
    9.0392  -14.1969   17.5315 N   0  0  0  0  0  0  0  0  0  0  0  0
    8.1004  -16.4695   24.1839 C   0  0  0  0  0  0  0  0  0  0  0  0
    8.0131  -16.1813   25.5864 C   0  0  0  0  0  0  0  0  0  0  0  0
    9.2801  -16.3688   26.3032 O   0  0  0  0  0  0  0  0  0  0  0  0
    9.9108  -17.4179   26.1581 N   0  0  0  0  0  0  0  0  0  0  0  0
    9.7522  -15.3318   27.1525 C   0  0  0  0  0  0  0  0  0  0  0  0
    9.2542  -13.9286   27.0266 C   0  0  0  0  0  0  0  0  0  0  0  0
    9.6770  -13.2127   28.2612 C   0  0  0  0  0  0  0  0  0  0  0  0
   10.0768  -14.3174   29.2056 C   0  0  2  0  0  0  0  0  0  0  0  0
   10.7235  -15.2959   28.1940 C   0  0  0  0  0  0  0  0  0  0  0  0
   11.0695  -16.5395   28.8607 O   0  0  0  0  0  0  0  0  0  0  0  0
   10.2947  -17.4074   29.2409 O   0  0  0  0  0  0  0  0  0  0  0  0
  2  1  1  0
  3  2  2  0
  4  2  1  0
  5  4  1  0
  6  5  1  0
  7  6  1  0
  8  7  1  0
  8 10  1  0
  8  9  1  1
 10 12  1  0
 10 11  2  0
 12 13  1  0
 13 14  1  0
 14 15  2  0
 16 14  1  0
 16 20  1  0
 17 16  1  0
 18 17  1  0
 18 19  1  0
 19 20  1  0
 20 21  1  1
 21 22  2  0
 21 23  1  0
M  END
$$$$
