RGP.pdb
     RDKit          3D

 23 23  0  0  1  0  0  0  0  0999 V2000
    7.7330  -12.5374   18.8329 N   0  0  0  0  0  0  0  0  0  0  0  0
    8.5964  -13.6129   18.4698 C   0  0  0  0  0  0  0  0  0  0  0  0
    8.7007  -13.9311   17.2357 N   0  0  0  0  0  0  0  0  0  0  0  0
    9.3344  -14.3285   19.4516 N   0  0  0  0  0  0  0  0  0  0  0  0
    8.6185  -15.0827   20.4980 C   0  0  0  0  0  0  0  0  0  0  0  0
    7.1551  -14.8437   20.2821 C   0  0  0  0  0  0  0  0  0  0  0  0
    6.2337  -15.5083   21.2427 C   0  0  0  0  0  0  0  0  0  0  0  0
    6.7747  -16.7471   21.9121 C   0  0  2  0  0  0  0  0  0  0  0  0
    5.8030  -17.8229   21.6649 N   0  0  0  0  0  0  0  0  0  0  0  0
    6.7725  -16.5087   23.3813 C   0  0  0  0  0  0  0  0  0  0  0  0
    5.7015  -16.2104   23.9601 O   0  0  0  0  0  0  0  0  0  0  0  0
    9.3458  -14.6103   16.8222 N   0  0  0  0  0  0  0  0  0  0  0  0
    7.9788  -16.6151   24.1501 C   0  0  0  0  0  0  0  0  0  0  0  0
    7.8755  -16.3794   25.5613 C   0  0  0  0  0  0  0  0  0  0  0  0
    9.1507  -16.5209   26.2740 O   0  0  0  0  0  0  0  0  0  0  0  0
    9.7909  -17.5694   26.1717 N   0  0  0  0  0  0  0  0  0  0  0  0
    9.6197  -15.4410   27.0698 C   0  0  0  0  0  0  0  0  0  0  0  0
    9.0418  -14.0686   26.9467 C   0  0  0  0  0  0  0  0  0  0  0  0
    9.5025  -13.3025   28.1367 C   0  0  0  0  0  0  0  0  0  0  0  0
   10.0180  -14.3622   29.0766 C   0  0  2  0  0  0  0  0  0  0  0  0
   10.6509  -15.3304   28.0465 C   0  0  0  0  0  0  0  0  0  0  0  0
   11.1027  -16.5382   28.7155 O   0  0  0  0  0  0  0  0  0  0  0  0
   10.4001  -17.4376   29.1579 O   0  0  0  0  0  0  0  0  0  0  0  0
  2  1  1  0
  3  2  2  0
  4  2  1  0
  5  4  1  0
  6  5  1  0
  7  6  1  0
  8  7  1  0
  8 10  1  0
  8  9  1  1
 10 12  1  0
 10 11  2  0
 12 13  1  0
 13 14  1  0
 14 15  2  0
 16 14  1  0
 16 20  1  0
 17 16  1  0
 18 17  1  0
 18 19  1  0
 19 20  1  0
 20 21  1  1
 21 22  2  0
 21 23  1  0
M  END
$$$$
