RGP.pdb
     RDKit          3D

 23 23  0  0  1  0  0  0  0  0999 V2000
    8.4626  -12.4141   18.2720 N   0  0  0  0  0  0  0  0  0  0  0  0
    8.3544  -13.1897   19.4639 C   0  0  0  0  0  0  0  0  0  0  0  0
    8.4712  -12.6037   20.5944 N   0  0  0  0  0  0  0  0  0  0  0  0
    8.1215  -14.5911   19.4121 N   0  0  0  0  0  0  0  0  0  0  0  0
    6.8569  -15.1415   19.9355 C   0  0  0  0  0  0  0  0  0  0  0  0
    6.8711  -16.6122   19.6490 C   0  0  0  0  0  0  0  0  0  0  0  0
    7.8841  -17.4140   20.3869 C   0  0  0  0  0  0  0  0  0  0  0  0
    7.3748  -18.1435   21.6050 C   0  0  2  0  0  0  0  0  0  0  0  0
    6.2311  -18.9571   21.1662 N   0  0  0  0  0  0  0  0  0  0  0  0
    6.8313  -17.1293   22.5490 C   0  0  0  0  0  0  0  0  0  0  0  0
    5.5938  -16.9402   22.6120 O   0  0  0  0  0  0  0  0  0  0  0  0
    8.2810  -12.9976   21.5203 N   0  0  0  0  0  0  0  0  0  0  0  0
    7.7015  -16.3614   23.3919 C   0  0  0  0  0  0  0  0  0  0  0  0
    7.0821  -15.4544   24.3146 C   0  0  0  0  0  0  0  0  0  0  0  0
    8.0405  -14.7353   25.1623 O   0  0  0  0  0  0  0  0  0  0  0  0
    9.1953  -15.1545   25.2644 N   0  0  0  0  0  0  0  0  0  0  0  0
    7.6128  -13.5673   25.8495 C   0  0  0  0  0  0  0  0  0  0  0  0
    6.4874  -12.7267   25.3401 C   0  0  0  0  0  0  0  0  0  0  0  0
    6.0896  -11.8241   26.4547 C   0  0  0  0  0  0  0  0  0  0  0  0
    6.7483  -12.4291   27.6680 C   0  0  2  0  0  0  0  0  0  0  0  0
    8.0736  -12.9089   27.0258 C   0  0  0  0  0  0  0  0  0  0  0  0
    8.8423  -13.6750   27.9915 O   0  0  0  0  0  0  0  0  0  0  0  0
    8.5796  -14.7923   28.4169 O   0  0  0  0  0  0  0  0  0  0  0  0
  2  1  1  0
  3  2  2  0
  4  2  1  0
  5  4  1  0
  6  5  1  0
  7  6  1  0
  8  7  1  0
  8 10  1  0
  8  9  1  6
 10 12  1  0
 10 11  2  0
 12 13  1  0
 13 14  1  0
 14 15  2  0
 16 14  1  0
 16 20  1  0
 17 16  1  0
 18 17  1  0
 18 19  1  0
 19 20  1  0
 20 21  1  1
 21 22  2  0
 21 23  1  0
M  END
$$$$
