HWK.pdb
     RDKit          3D

 34 36  0  0  1  0  0  0  0  0999 V2000
   26.3349  -15.5658  -18.4446 N   0  0  0  0  0  0  0  0  0  0  0  0
   25.2701  -15.9684  -17.5639 C   0  0  1  0  0  0  0  0  0  0  0  0
   23.9501  -16.0307  -18.3280 C   0  0  0  0  0  0  0  0  0  0  0  0
   23.3450  -14.6798  -18.3198 C   0  0  0  0  0  0  0  0  0  0  0  0
   22.4166  -14.1889  -17.4354 C   0  0  0  0  0  0  0  0  0  0  0  0
   22.1578  -12.9039  -17.8199 N   0  0  0  0  0  0  0  0  0  0  0  0
   22.8971  -12.5999  -18.9060 C   0  0  0  0  0  0  0  0  0  0  0  0
   23.6208  -13.7111  -19.1950 N   0  0  0  0  0  0  0  0  0  0  0  0
   25.5415  -17.3015  -17.0030 C   0  0  0  0  0  0  0  0  0  0  0  0
   25.6388  -18.3498  -17.6839 O   0  0  0  0  0  0  0  0  0  0  0  0
   25.7034  -17.3860  -15.5902 N   0  0  0  0  0  0  0  0  0  0  0  0
   26.0227  -18.6095  -14.9247 C   0  0  1  0  0  0  0  0  0  0  0  0
   26.6943  -18.2997  -13.6093 C   0  0  0  0  0  0  0  0  0  0  0  0
   27.0161  -19.4430  -12.7724 C   0  0  0  0  0  0  0  0  0  0  0  0
   27.9146  -20.4710  -13.0846 C   0  0  0  0  0  0  0  0  0  0  0  0
   27.9328  -21.3706  -12.0908 N   0  0  0  0  0  0  0  0  0  0  0  0
   27.0762  -20.9665  -11.1360 C   0  0  0  0  0  0  0  0  0  0  0  0
   26.7305  -21.5089   -9.9276 C   0  0  0  0  0  0  0  0  0  0  0  0
   25.8128  -20.8892   -9.0946 C   0  0  0  0  0  0  0  0  0  0  0  0
   25.2331  -19.6994   -9.4880 C   0  0  0  0  0  0  0  0  0  0  0  0
   25.5864  -19.1680  -10.6973 C   0  0  0  0  0  0  0  0  0  0  0  0
   26.5068  -19.7894  -11.5352 C   0  0  0  0  0  0  0  0  0  0  0  0
   24.8364  -19.4453  -14.7862 C   0  0  0  0  0  0  0  0  0  0  0  0
   23.7307  -18.9416  -14.4915 O   0  0  0  0  0  0  0  0  0  0  0  0
   24.8847  -20.8638  -14.9806 N   0  0  0  0  0  0  0  0  0  0  0  0
   23.7191  -21.6585  -14.6492 C   0  0  1  0  0  0  0  0  0  0  0  0
   24.1067  -23.1204  -14.7092 C   0  0  0  0  0  0  0  0  0  0  0  0
   22.8907  -23.9491  -14.4814 C   0  0  0  0  0  0  0  0  0  0  0  0
   23.1990  -25.4325  -14.4031 C   0  0  0  0  0  0  0  0  0  0  0  0
   21.8490  -26.1314  -14.2086 C   0  0  0  0  0  0  0  0  0  0  0  0
   22.1265  -27.5568  -14.2810 N   0  0  0  0  0  0  0  0  0  0  0  0
   23.2878  -21.3398  -13.2654 C   0  0  0  0  0  0  0  0  0  0  0  0
   24.1689  -21.0976  -12.3998 O   0  0  0  0  0  0  0  0  0  0  0  0
   21.9657  -21.2885  -12.8511 O   0  0  0  0  0  0  0  0  0  0  0  0
  2  1  1  6
  2  3  1  0
  3  4  1  0
  4  5  2  0
  4  8  1  0
  5  6  1  0
  6  7  1  0
  8  7  2  0
  9 10  2  0
  9  2  1  0
 11  9  1  0
 12 13  1  1
 12 11  1  0
 13 14  1  0
 14 15  2  0
 14 22  1  0
 15 16  1  0
 16 17  1  0
 17 18  2  0
 19 18  1  0
 20 19  2  0
 21 22  2  0
 21 20  1  0
 22 17  1  0
 23 12  1  0
 24 23  2  0
 25 23  1  0
 26 25  1  0
 26 27  1  1
 27 28  1  0
 29 28  1  0
 29 30  1  0
 30 31  1  0
 32 26  1  0
 32 34  1  0
 33 32  2  0
M  END
$$$$
