HWK.pdb
     RDKit          3D

 34 36  0  0  1  0  0  0  0  0999 V2000
   24.1704  -24.7153  -17.8144 N   0  0  0  0  0  0  0  0  0  0  0  0
   24.2673  -25.9087  -17.0159 C   0  0  1  0  0  0  0  0  0  0  0  0
   22.8994  -26.5759  -16.8980 C   0  0  0  0  0  0  0  0  0  0  0  0
   22.0137  -25.6837  -16.1165 C   0  0  0  0  0  0  0  0  0  0  0  0
   21.6786  -25.7973  -14.7899 C   0  0  0  0  0  0  0  0  0  0  0  0
   20.8431  -24.7531  -14.5112 N   0  0  0  0  0  0  0  0  0  0  0  0
   20.6609  -24.0116  -15.6229 C   0  0  0  0  0  0  0  0  0  0  0  0
   21.3929  -24.6057  -16.5991 N   0  0  0  0  0  0  0  0  0  0  0  0
   25.1965  -26.8681  -17.6335 C   0  0  0  0  0  0  0  0  0  0  0  0
   25.3983  -26.9645  -18.8672 O   0  0  0  0  0  0  0  0  0  0  0  0
   25.9066  -27.7355  -16.7545 N   0  0  0  0  0  0  0  0  0  0  0  0
   26.9197  -28.6332  -17.2125 C   0  0  1  0  0  0  0  0  0  0  0  0
   28.1090  -28.5552  -16.2870 C   0  0  0  0  0  0  0  0  0  0  0  0
   29.2957  -27.9130  -16.8257 C   0  0  0  0  0  0  0  0  0  0  0  0
   29.4406  -26.5504  -17.1157 C   0  0  0  0  0  0  0  0  0  0  0  0
   30.6591  -26.3259  -17.6275 N   0  0  0  0  0  0  0  0  0  0  0  0
   31.3193  -27.4963  -17.6824 C   0  0  0  0  0  0  0  0  0  0  0  0
   32.5807  -27.8164  -18.1073 C   0  0  0  0  0  0  0  0  0  0  0  0
   33.0509  -29.1188  -18.0547 C   0  0  0  0  0  0  0  0  0  0  0  0
   32.2332  -30.1173  -17.5638 C   0  0  0  0  0  0  0  0  0  0  0  0
   30.9755  -29.7848  -17.1428 C   0  0  0  0  0  0  0  0  0  0  0  0
   30.5015  -28.4779  -17.1958 C   0  0  0  0  0  0  0  0  0  0  0  0
   26.3857  -29.9820  -17.3566 C   0  0  0  0  0  0  0  0  0  0  0  0
   25.5163  -30.4127  -16.5681 O   0  0  0  0  0  0  0  0  0  0  0  0
   26.8279  -30.8625  -18.3965 N   0  0  0  0  0  0  0  0  0  0  0  0
   26.2372  -32.1819  -18.4985 C   0  0  1  0  0  0  0  0  0  0  0  0
   26.5006  -32.7153  -19.8903 C   0  0  0  0  0  0  0  0  0  0  0  0
   25.7460  -33.9866  -20.0679 C   0  0  0  0  0  0  0  0  0  0  0  0
   25.9162  -34.5802  -21.4536 C   0  0  0  0  0  0  0  0  0  0  0  0
   25.0089  -35.8146  -21.4951 C   0  0  0  0  0  0  0  0  0  0  0  0
   24.5073  -35.8925  -22.8575 N   0  0  0  0  0  0  0  0  0  0  0  0
   26.8858  -33.0848  -17.5152 C   0  0  0  0  0  0  0  0  0  0  0  0
   26.2441  -34.0848  -17.1000 O   0  0  0  0  0  0  0  0  0  0  0  0
   28.1657  -32.9041  -17.0139 O   0  0  0  0  0  0  0  0  0  0  0  0
  2  1  1  6
  2  3  1  0
  3  4  1  0
  4  5  2  0
  4  8  1  0
  5  6  1  0
  6  7  1  0
  8  7  2  0
  9 10  2  0
  9  2  1  0
 11  9  1  0
 12 13  1  1
 12 11  1  0
 13 14  1  0
 14 15  2  0
 14 22  1  0
 15 16  1  0
 16 17  1  0
 17 18  2  0
 19 18  1  0
 20 19  2  0
 21 22  2  0
 21 20  1  0
 22 17  1  0
 23 12  1  0
 24 23  2  0
 25 23  1  0
 26 25  1  0
 26 27  1  6
 27 28  1  0
 29 28  1  0
 29 30  1  0
 30 31  1  0
 32 26  1  0
 32 34  1  0
 33 32  2  0
M  END
$$$$
