HWK.pdb
     RDKit          3D

 34 36  0  0  1  0  0  0  0  0999 V2000
   28.3911  -22.7656  -17.6483 N   0  0  0  0  0  0  0  0  0  0  0  0
   27.9244  -21.5238  -17.0900 C   0  0  1  0  0  0  0  0  0  0  0  0
   27.2527  -20.6803  -18.1705 C   0  0  0  0  0  0  0  0  0  0  0  0
   28.3096  -19.9964  -18.9493 C   0  0  0  0  0  0  0  0  0  0  0  0
   28.7981  -18.7281  -18.7550 C   0  0  0  0  0  0  0  0  0  0  0  0
   29.7573  -18.5329  -19.7077 N   0  0  0  0  0  0  0  0  0  0  0  0
   29.8664  -19.6388  -20.4719 C   0  0  0  0  0  0  0  0  0  0  0  0
   28.9634  -20.5269  -19.9845 N   0  0  0  0  0  0  0  0  0  0  0  0
   26.9417  -21.7751  -16.0239 C   0  0  0  0  0  0  0  0  0  0  0  0
   25.9615  -22.5491  -16.1326 O   0  0  0  0  0  0  0  0  0  0  0  0
   27.1353  -21.0851  -14.7928 N   0  0  0  0  0  0  0  0  0  0  0  0
   26.3678  -21.3714  -13.6219 C   0  0  1  0  0  0  0  0  0  0  0  0
   27.1459  -20.9465  -12.4007 C   0  0  0  0  0  0  0  0  0  0  0  0
   26.4811  -21.1359  -11.1228 C   0  0  0  0  0  0  0  0  0  0  0  0
   25.7935  -22.2839  -10.7091 C   0  0  0  0  0  0  0  0  0  0  0  0
   25.2834  -22.0868   -9.4851 N   0  0  0  0  0  0  0  0  0  0  0  0
   25.6140  -20.8473   -9.0814 C   0  0  0  0  0  0  0  0  0  0  0  0
   25.3548  -20.1619   -7.9251 C   0  0  0  0  0  0  0  0  0  0  0  0
   25.8210  -18.8715   -7.7313 C   0  0  0  0  0  0  0  0  0  0  0  0
   26.5631  -18.2610   -8.7228 C   0  0  0  0  0  0  0  0  0  0  0  0
   26.8150  -18.9559   -9.8731 C   0  0  0  0  0  0  0  0  0  0  0  0
   26.3469  -20.2511  -10.0697 C   0  0  0  0  0  0  0  0  0  0  0  0
   25.0476  -20.7592  -13.7091 C   0  0  0  0  0  0  0  0  0  0  0  0
   24.9155  -19.5775  -14.0952 O   0  0  0  0  0  0  0  0  0  0  0  0
   23.8576  -21.4768  -13.3611 N   0  0  0  0  0  0  0  0  0  0  0  0
   22.5809  -20.7943  -13.4269 C   0  0  1  0  0  0  0  0  0  0  0  0
   21.6210  -21.6552  -14.2197 C   0  0  0  0  0  0  0  0  0  0  0  0
   22.1605  -21.8332  -15.5960 C   0  0  0  0  0  0  0  0  0  0  0  0
   21.2093  -22.5886  -16.5049 C   0  0  0  0  0  0  0  0  0  0  0  0
   21.9111  -22.6783  -17.8644 C   0  0  0  0  0  0  0  0  0  0  0  0
   21.0177  -23.4396  -18.7224 N   0  0  0  0  0  0  0  0  0  0  0  0
   22.0441  -20.6289  -12.0531 C   0  0  0  0  0  0  0  0  0  0  0  0
   22.5781  -21.2762  -11.1150 O   0  0  0  0  0  0  0  0  0  0  0  0
   20.9819  -19.8011  -11.7236 O   0  0  0  0  0  0  0  0  0  0  0  0
  2  1  1  6
  2  3  1  0
  3  4  1  0
  4  5  2  0
  4  8  1  0
  5  6  1  0
  6  7  1  0
  8  7  2  0
  9 10  2  0
  9  2  1  0
 11  9  1  0
 12 13  1  1
 12 11  1  0
 13 14  1  0
 14 15  2  0
 14 22  1  0
 15 16  1  0
 16 17  1  0
 17 18  2  0
 19 18  1  0
 20 19  2  0
 21 22  2  0
 21 20  1  0
 22 17  1  0
 23 12  1  0
 24 23  2  0
 25 23  1  0
 26 25  1  0
 26 27  1  6
 27 28  1  0
 29 28  1  0
 29 30  1  0
 30 31  1  0
 32 26  1  0
 32 34  1  0
 33 32  2  0
M  END
$$$$
