HWK.pdb
     RDKit          3D

 34 36  0  0  1  0  0  0  0  0999 V2000
   22.2258  -20.9897   -9.0053 N   0  0  0  0  0  0  0  0  0  0  0  0
   22.9915  -21.1079  -10.2182 C   0  0  1  0  0  0  0  0  0  0  0  0
   22.2145  -20.5158  -11.3911 C   0  0  0  0  0  0  0  0  0  0  0  0
   21.0624  -21.3999  -11.6782 C   0  0  0  0  0  0  0  0  0  0  0  0
   19.9087  -21.5284  -10.9451 C   0  0  0  0  0  0  0  0  0  0  0  0
   19.1404  -22.4543  -11.5921 N   0  0  0  0  0  0  0  0  0  0  0  0
   19.7889  -22.8905  -12.6912 C   0  0  0  0  0  0  0  0  0  0  0  0
   20.9715  -22.2256  -12.7224 N   0  0  0  0  0  0  0  0  0  0  0  0
   24.2658  -20.3823  -10.0960 C   0  0  0  0  0  0  0  0  0  0  0  0
   24.5363  -19.5766   -9.1743 O   0  0  0  0  0  0  0  0  0  0  0  0
   25.2458  -20.6263  -11.1007 N   0  0  0  0  0  0  0  0  0  0  0  0
   26.6441  -20.4413  -10.8719 C   0  0  1  0  0  0  0  0  0  0  0  0
   27.0331  -21.1284   -9.5858 C   0  0  0  0  0  0  0  0  0  0  0  0
   27.3135  -20.2579   -8.4569 C   0  0  0  0  0  0  0  0  0  0  0  0
   26.9382  -18.9141   -8.3341 C   0  0  0  0  0  0  0  0  0  0  0  0
   27.3951  -18.4231   -7.1733 N   0  0  0  0  0  0  0  0  0  0  0  0
   28.0575  -19.4007   -6.5297 C   0  0  0  0  0  0  0  0  0  0  0  0
   28.6994  -19.4289   -5.3209 C   0  0  0  0  0  0  0  0  0  0  0  0
   29.3120  -20.5815   -4.8559 C   0  0  0  0  0  0  0  0  0  0  0  0
   29.2763  -21.7277   -5.6250 C   0  0  0  0  0  0  0  0  0  0  0  0
   28.6324  -21.6867   -6.8306 C   0  0  0  0  0  0  0  0  0  0  0  0
   28.0176  -20.5301   -7.2992 C   0  0  0  0  0  0  0  0  0  0  0  0
   27.4180  -20.8880  -12.0238 C   0  0  0  0  0  0  0  0  0  0  0  0
   27.6322  -22.1045  -12.2169 O   0  0  0  0  0  0  0  0  0  0  0  0
   27.9597  -19.9634  -12.9746 N   0  0  0  0  0  0  0  0  0  0  0  0
   28.3497  -20.4488  -14.2831 C   0  0  1  0  0  0  0  0  0  0  0  0
   29.1912  -21.6932  -14.0981 C   0  0  0  0  0  0  0  0  0  0  0  0
   29.6486  -22.1664  -15.4338 C   0  0  0  0  0  0  0  0  0  0  0  0
   30.5795  -23.3609  -15.3449 C   0  0  0  0  0  0  0  0  0  0  0  0
   31.0729  -23.6149  -16.7735 C   0  0  0  0  0  0  0  0  0  0  0  0
   32.1482  -24.5864  -16.6548 N   0  0  0  0  0  0  0  0  0  0  0  0
   27.1332  -20.8104  -15.0526 C   0  0  0  0  0  0  0  0  0  0  0  0
   26.5858  -21.9214  -14.8281 O   0  0  0  0  0  0  0  0  0  0  0  0
   26.5476  -20.0015  -16.0143 O   0  0  0  0  0  0  0  0  0  0  0  0
  2  1  1  1
  2  3  1  0
  3  4  1  0
  4  5  2  0
  4  8  1  0
  5  6  1  0
  6  7  1  0
  8  7  2  0
  9 10  2  0
  9  2  1  0
 11  9  1  0
 12 13  1  1
 12 11  1  0
 13 14  1  0
 14 15  2  0
 14 22  1  0
 15 16  1  0
 16 17  1  0
 17 18  2  0
 19 18  1  0
 20 19  2  0
 21 22  2  0
 21 20  1  0
 22 17  1  0
 23 12  1  0
 24 23  2  0
 25 23  1  0
 26 25  1  0
 26 27  1  1
 27 28  1  0
 29 28  1  0
 29 30  1  0
 30 31  1  0
 32 26  1  0
 32 34  1  0
 33 32  2  0
M  END
$$$$
