HWK.pdb
     RDKit          3D

 34 36  0  0  1  0  0  0  0  0999 V2000
   21.9622  -20.0099  -16.5260 N   0  0  0  0  0  0  0  0  0  0  0  0
   22.2655  -20.5559  -15.2293 C   0  0  1  0  0  0  0  0  0  0  0  0
   23.2193  -19.6305  -14.4784 C   0  0  0  0  0  0  0  0  0  0  0  0
   24.4850  -19.5501  -15.2417 C   0  0  0  0  0  0  0  0  0  0  0  0
   24.7465  -20.0851  -16.4788 C   0  0  0  0  0  0  0  0  0  0  0  0
   26.0383  -19.7561  -16.7774 N   0  0  0  0  0  0  0  0  0  0  0  0
   26.5676  -19.0406  -15.7642 C   0  0  0  0  0  0  0  0  0  0  0  0
   25.5905  -18.9269  -14.8293 N   0  0  0  0  0  0  0  0  0  0  0  0
   21.0380  -20.6994  -14.4306 C   0  0  0  0  0  0  0  0  0  0  0  0
   20.2518  -19.7595  -14.1655 O   0  0  0  0  0  0  0  0  0  0  0  0
   20.7390  -22.0014  -13.9359 N   0  0  0  0  0  0  0  0  0  0  0  0
   19.4588  -22.3463  -13.4031 C   0  0  1  0  0  0  0  0  0  0  0  0
   18.5412  -22.7465  -14.5324 C   0  0  0  0  0  0  0  0  0  0  0  0
   18.1423  -21.6826  -15.4379 C   0  0  0  0  0  0  0  0  0  0  0  0
   17.2285  -20.6581  -15.1604 C   0  0  0  0  0  0  0  0  0  0  0  0
   17.0849  -19.8777  -16.2409 N   0  0  0  0  0  0  0  0  0  0  0  0
   17.8750  -20.3559  -17.2185 C   0  0  0  0  0  0  0  0  0  0  0  0
   18.1052  -19.9308  -18.4993 C   0  0  0  0  0  0  0  0  0  0  0  0
   18.9915  -20.5953  -19.3318 C   0  0  0  0  0  0  0  0  0  0  0  0
   19.6586  -21.7097  -18.8631 C   0  0  0  0  0  0  0  0  0  0  0  0
   19.4199  -22.1244  -17.5822 C   0  0  0  0  0  0  0  0  0  0  0  0
   18.5297  -21.4590  -16.7456 C   0  0  0  0  0  0  0  0  0  0  0  0
   19.5884  -23.3691  -12.3724 C   0  0  0  0  0  0  0  0  0  0  0  0
   20.3335  -24.3583  -12.5440 O   0  0  0  0  0  0  0  0  0  0  0  0
   18.8768  -23.2862  -11.1319 N   0  0  0  0  0  0  0  0  0  0  0  0
   19.0804  -24.3177  -10.1346 C   0  0  1  0  0  0  0  0  0  0  0  0
   18.4863  -23.8399   -8.8270 C   0  0  0  0  0  0  0  0  0  0  0  0
   18.6622  -24.9056   -7.8021 C   0  0  0  0  0  0  0  0  0  0  0  0
   18.0094  -24.5579   -6.4775 C   0  0  0  0  0  0  0  0  0  0  0  0
   18.1758  -25.7965   -5.5904 C   0  0  0  0  0  0  0  0  0  0  0  0
   17.6938  -25.4094   -4.2745 N   0  0  0  0  0  0  0  0  0  0  0  0
   18.3692  -25.5506  -10.5549 C   0  0  0  0  0  0  0  0  0  0  0  0
   18.8047  -26.6630  -10.1583 O   0  0  0  0  0  0  0  0  0  0  0  0
   17.2437  -25.5662  -11.3643 O   0  0  0  0  0  0  0  0  0  0  0  0
  2  1  1  6
  2  3  1  0
  3  4  1  0
  4  5  2  0
  4  8  1  0
  5  6  1  0
  6  7  1  0
  8  7  2  0
  9 10  2  0
  9  2  1  0
 11  9  1  0
 12 13  1  6
 12 11  1  0
 13 14  1  0
 14 15  2  0
 14 22  1  0
 15 16  1  0
 16 17  1  0
 17 18  2  0
 19 18  1  0
 20 19  2  0
 21 22  2  0
 21 20  1  0
 22 17  1  0
 23 12  1  0
 24 23  2  0
 25 23  1  0
 26 25  1  0
 26 27  1  1
 27 28  1  0
 29 28  1  0
 29 30  1  0
 30 31  1  0
 32 26  1  0
 32 34  1  0
 33 32  2  0
M  END
$$$$
