HWK.pdb
     RDKit          3D

 34 36  0  0  1  0  0  0  0  0999 V2000
   26.0754  -23.2937  -16.2355 N   0  0  0  0  0  0  0  0  0  0  0  0
   24.7561  -22.8870  -16.6423 C   0  0  1  0  0  0  0  0  0  0  0  0
   24.0619  -24.0231  -17.3890 C   0  0  0  0  0  0  0  0  0  0  0  0
   24.7775  -24.2449  -18.6657 C   0  0  0  0  0  0  0  0  0  0  0  0
   25.4398  -25.3802  -19.0624 C   0  0  0  0  0  0  0  0  0  0  0  0
   25.9402  -25.1213  -20.3069 N   0  0  0  0  0  0  0  0  0  0  0  0
   25.6038  -23.8689  -20.6772 C   0  0  0  0  0  0  0  0  0  0  0  0
   24.8872  -23.3490  -19.6485 N   0  0  0  0  0  0  0  0  0  0  0  0
   23.9391  -22.5396  -15.4688 C   0  0  0  0  0  0  0  0  0  0  0  0
   23.9391  -23.1805  -14.3912 O   0  0  0  0  0  0  0  0  0  0  0  0
   23.1001  -21.3941  -15.5834 N   0  0  0  0  0  0  0  0  0  0  0  0
   22.3834  -20.8517  -14.4726 C   0  0  1  0  0  0  0  0  0  0  0  0
   22.0718  -19.4000  -14.7424 C   0  0  0  0  0  0  0  0  0  0  0  0
   21.4455  -18.6689  -13.6542 C   0  0  0  0  0  0  0  0  0  0  0  0
   21.6073  -18.9210  -12.2861 C   0  0  0  0  0  0  0  0  0  0  0  0
   20.8529  -18.0681  -11.5785 N   0  0  0  0  0  0  0  0  0  0  0  0
   20.2015  -17.2638  -12.4373 C   0  0  0  0  0  0  0  0  0  0  0  0
   19.3255  -16.2308  -12.2386 C   0  0  0  0  0  0  0  0  0  0  0  0
   18.7833  -15.5295  -13.3036 C   0  0  0  0  0  0  0  0  0  0  0  0
   19.1318  -15.8767  -14.5938 C   0  0  0  0  0  0  0  0  0  0  0  0
   20.0074  -16.9104  -14.7791 C   0  0  0  0  0  0  0  0  0  0  0  0
   20.5519  -17.6161  -13.7110 C   0  0  0  0  0  0  0  0  0  0  0  0
   21.2010  -21.6532  -14.1815 C   0  0  0  0  0  0  0  0  0  0  0  0
   20.5040  -22.1232  -15.1070 O   0  0  0  0  0  0  0  0  0  0  0  0
   20.7911  -21.9350  -12.8381 N   0  0  0  0  0  0  0  0  0  0  0  0
   19.6422  -22.7905  -12.6187 C   0  0  1  0  0  0  0  0  0  0  0  0
   19.6776  -23.2774  -11.1860 C   0  0  0  0  0  0  0  0  0  0  0  0
   18.5742  -24.2567  -10.9845 C   0  0  0  0  0  0  0  0  0  0  0  0
   18.6710  -24.9831   -9.6562 C   0  0  0  0  0  0  0  0  0  0  0  0
   17.4391  -25.8920   -9.5848 C   0  0  0  0  0  0  0  0  0  0  0  0
   17.6339  -26.7328   -8.4147 N   0  0  0  0  0  0  0  0  0  0  0  0
   18.4008  -22.0024  -12.8201 C   0  0  0  0  0  0  0  0  0  0  0  0
   17.4573  -22.5198  -13.4731 O   0  0  0  0  0  0  0  0  0  0  0  0
   18.2023  -20.7193  -12.3340 O   0  0  0  0  0  0  0  0  0  0  0  0
  2  1  1  1
  2  3  1  0
  3  4  1  0
  4  5  2  0
  4  8  1  0
  5  6  1  0
  6  7  1  0
  8  7  2  0
  9 10  2  0
  9  2  1  0
 11  9  1  0
 12 13  1  6
 12 11  1  0
 13 14  1  0
 14 15  2  0
 14 22  1  0
 15 16  1  0
 16 17  1  0
 17 18  2  0
 19 18  1  0
 20 19  2  0
 21 22  2  0
 21 20  1  0
 22 17  1  0
 23 12  1  0
 24 23  2  0
 25 23  1  0
 26 25  1  0
 26 27  1  1
 27 28  1  0
 29 28  1  0
 29 30  1  0
 30 31  1  0
 32 26  1  0
 32 34  1  0
 33 32  2  0
M  END
$$$$
