HWK.pdb
     RDKit          3D

 34 36  0  0  1  0  0  0  0  0999 V2000
   27.8294  -21.7957  -15.3552 N   0  0  0  0  0  0  0  0  0  0  0  0
   27.8493  -20.7533  -14.3630 C   0  0  1  0  0  0  0  0  0  0  0  0
   27.3025  -19.4554  -14.9517 C   0  0  0  0  0  0  0  0  0  0  0  0
   28.2818  -18.9438  -15.9367 C   0  0  0  0  0  0  0  0  0  0  0  0
   29.6269  -18.7442  -15.7468 C   0  0  0  0  0  0  0  0  0  0  0  0
   30.1174  -18.2647  -16.9281 N   0  0  0  0  0  0  0  0  0  0  0  0
   29.1162  -18.1672  -17.8264 C   0  0  0  0  0  0  0  0  0  0  0  0
   27.9945  -18.5916  -17.1913 N   0  0  0  0  0  0  0  0  0  0  0  0
   27.0145  -21.1240  -13.2092 C   0  0  0  0  0  0  0  0  0  0  0  0
   25.9001  -21.6918  -13.2950 O   0  0  0  0  0  0  0  0  0  0  0  0
   27.5247  -20.8101  -11.9167 N   0  0  0  0  0  0  0  0  0  0  0  0
   26.7533  -20.9735  -10.7251 C   0  0  1  0  0  0  0  0  0  0  0  0
   27.6210  -20.6784   -9.5262 C   0  0  0  0  0  0  0  0  0  0  0  0
   26.9449  -20.6512   -8.2405 C   0  0  0  0  0  0  0  0  0  0  0  0
   25.6069  -20.9890   -8.0011 C   0  0  0  0  0  0  0  0  0  0  0  0
   25.3237  -20.8149   -6.7024 N   0  0  0  0  0  0  0  0  0  0  0  0
   26.4322  -20.3744   -6.0811 C   0  0  0  0  0  0  0  0  0  0  0  0
   26.6827  -20.0548   -4.7737 C   0  0  0  0  0  0  0  0  0  0  0  0
   27.9345  -19.6254   -4.3631 C   0  0  0  0  0  0  0  0  0  0  0  0
   28.9531  -19.5165   -5.2889 C   0  0  0  0  0  0  0  0  0  0  0  0
   28.6902  -19.8384   -6.5916 C   0  0  0  0  0  0  0  0  0  0  0  0
   27.4338  -20.2688   -7.0057 C   0  0  0  0  0  0  0  0  0  0  0  0
   25.5442  -20.1607  -10.7788 C   0  0  0  0  0  0  0  0  0  0  0  0
   25.6113  -18.9278  -10.9749 O   0  0  0  0  0  0  0  0  0  0  0  0
   24.2413  -20.7326  -10.6121 N   0  0  0  0  0  0  0  0  0  0  0  0
   23.0800  -19.9635  -11.0118 C   0  0  1  0  0  0  0  0  0  0  0  0
   22.9346  -20.0670  -12.5149 C   0  0  0  0  0  0  0  0  0  0  0  0
   21.7093  -19.3299  -12.9304 C   0  0  0  0  0  0  0  0  0  0  0  0
   21.4492  -19.4199  -14.4223 C   0  0  0  0  0  0  0  0  0  0  0  0
   20.4901  -18.2705  -14.7506 C   0  0  0  0  0  0  0  0  0  0  0  0
   20.2505  -18.3506  -16.1824 N   0  0  0  0  0  0  0  0  0  0  0  0
   21.8691  -20.5424  -10.3784 C   0  0  0  0  0  0  0  0  0  0  0  0
   21.8138  -21.7885  -10.2100 O   0  0  0  0  0  0  0  0  0  0  0  0
   20.7789  -19.7993   -9.9524 O   0  0  0  0  0  0  0  0  0  0  0  0
  2  1  1  6
  2  3  1  0
  3  4  1  0
  4  5  2  0
  4  8  1  0
  5  6  1  0
  6  7  1  0
  8  7  2  0
  9 10  2  0
  9  2  1  0
 11  9  1  0
 12 13  1  1
 12 11  1  0
 13 14  1  0
 14 15  2  0
 14 22  1  0
 15 16  1  0
 16 17  1  0
 17 18  2  0
 19 18  1  0
 20 19  2  0
 21 22  2  0
 21 20  1  0
 22 17  1  0
 23 12  1  0
 24 23  2  0
 25 23  1  0
 26 25  1  0
 26 27  1  6
 27 28  1  0
 29 28  1  0
 29 30  1  0
 30 31  1  0
 32 26  1  0
 32 34  1  0
 33 32  2  0
M  END
$$$$
