HWK.pdb
     RDKit          3D

 34 36  0  0  1  0  0  0  0  0999 V2000
   27.1853  -21.3427  -18.0193 N   0  0  0  0  0  0  0  0  0  0  0  0
   25.7676  -21.1991  -17.8169 C   0  0  1  0  0  0  0  0  0  0  0  0
   25.0089  -22.2160  -18.6656 C   0  0  0  0  0  0  0  0  0  0  0  0
   25.1129  -21.8062  -20.0842 C   0  0  0  0  0  0  0  0  0  0  0  0
   25.5581  -22.5639  -21.1391 C   0  0  0  0  0  0  0  0  0  0  0  0
   25.4744  -21.7704  -22.2479 N   0  0  0  0  0  0  0  0  0  0  0  0
   24.9940  -20.5590  -21.9009 C   0  0  0  0  0  0  0  0  0  0  0  0
   24.7789  -20.6059  -20.5617 N   0  0  0  0  0  0  0  0  0  0  0  0
   25.4228  -21.4283  -16.4048 C   0  0  0  0  0  0  0  0  0  0  0  0
   25.8488  -22.3871  -15.7185 O   0  0  0  0  0  0  0  0  0  0  0  0
   24.5467  -20.4857  -15.7938 N   0  0  0  0  0  0  0  0  0  0  0  0
   24.2318  -20.5196  -14.4003 C   0  0  1  0  0  0  0  0  0  0  0  0
   24.8093  -19.2972  -13.7298 C   0  0  0  0  0  0  0  0  0  0  0  0
   26.2541  -19.2753  -13.5783 C   0  0  0  0  0  0  0  0  0  0  0  0
   27.1622  -18.5906  -14.3956 C   0  0  0  0  0  0  0  0  0  0  0  0
   28.4131  -18.8249  -13.9741 N   0  0  0  0  0  0  0  0  0  0  0  0
   28.3559  -19.6405  -12.9062 C   0  0  0  0  0  0  0  0  0  0  0  0
   29.3322  -20.1703  -12.1060 C   0  0  0  0  0  0  0  0  0  0  0  0
   29.0200  -20.9928  -11.0354 C   0  0  0  0  0  0  0  0  0  0  0  0
   27.6978  -21.2862  -10.7668 C   0  0  0  0  0  0  0  0  0  0  0  0
   26.7321  -20.7512  -11.5735 C   0  0  0  0  0  0  0  0  0  0  0  0
   27.0438  -19.9261  -12.6493 C   0  0  0  0  0  0  0  0  0  0  0  0
   22.7951  -20.6652  -14.2004 C   0  0  0  0  0  0  0  0  0  0  0  0
   21.9850  -19.9888  -14.8705 O   0  0  0  0  0  0  0  0  0  0  0  0
   22.2549  -21.5799  -13.2392 N   0  0  0  0  0  0  0  0  0  0  0  0
   20.8214  -21.6141  -13.0302 C   0  0  1  0  0  0  0  0  0  0  0  0
   20.4878  -22.8469  -12.2178 C   0  0  0  0  0  0  0  0  0  0  0  0
   20.5228  -24.0359  -13.1134 C   0  0  0  0  0  0  0  0  0  0  0  0
   20.0469  -25.3016  -12.4257 C   0  0  0  0  0  0  0  0  0  0  0  0
   19.9616  -26.3681  -13.5230 C   0  0  0  0  0  0  0  0  0  0  0  0
   19.4154  -27.5535  -12.8822 N   0  0  0  0  0  0  0  0  0  0  0  0
   20.4114  -20.4141  -12.2590 C   0  0  0  0  0  0  0  0  0  0  0  0
   19.2188  -20.0208  -12.3445 O   0  0  0  0  0  0  0  0  0  0  0  0
   21.2589  -19.6847  -11.4394 O   0  0  0  0  0  0  0  0  0  0  0  0
  2  1  1  1
  2  3  1  0
  3  4  1  0
  4  5  2  0
  4  8  1  0
  5  6  1  0
  6  7  1  0
  8  7  2  0
  9 10  2  0
  9  2  1  0
 11  9  1  0
 12 13  1  1
 12 11  1  0
 13 14  1  0
 14 15  2  0
 14 22  1  0
 15 16  1  0
 16 17  1  0
 17 18  2  0
 19 18  1  0
 20 19  2  0
 21 22  2  0
 21 20  1  0
 22 17  1  0
 23 12  1  0
 24 23  2  0
 25 23  1  0
 26 25  1  0
 26 27  1  1
 27 28  1  0
 29 28  1  0
 29 30  1  0
 30 31  1  0
 32 26  1  0
 32 34  1  0
 33 32  2  0
M  END
$$$$
