HWK.pdb
     RDKit          3D

 34 36  0  0  1  0  0  0  0  0999 V2000
   27.6486  -17.0791  -19.8125 N   0  0  0  0  0  0  0  0  0  0  0  0
   27.7113  -16.4805  -18.5051 C   0  0  1  0  0  0  0  0  0  0  0  0
   28.3443  -15.0941  -18.5907 C   0  0  0  0  0  0  0  0  0  0  0  0
   29.7480  -15.2514  -19.0337 C   0  0  0  0  0  0  0  0  0  0  0  0
   30.4205  -16.4253  -19.2677 C   0  0  0  0  0  0  0  0  0  0  0  0
   31.6826  -16.0770  -19.6575 N   0  0  0  0  0  0  0  0  0  0  0  0
   31.7972  -14.7333  -19.6677 C   0  0  0  0  0  0  0  0  0  0  0  0
   30.5913  -14.2469  -19.2794 N   0  0  0  0  0  0  0  0  0  0  0  0
   26.3607  -16.3365  -17.9389 C   0  0  0  0  0  0  0  0  0  0  0  0
   26.1048  -15.7588  -16.8560 O   0  0  0  0  0  0  0  0  0  0  0  0
   25.2849  -16.8958  -18.6867 N   0  0  0  0  0  0  0  0  0  0  0  0
   23.9407  -16.9162  -18.2024 C   0  0  1  0  0  0  0  0  0  0  0  0
   22.9933  -16.6847  -19.3541 C   0  0  0  0  0  0  0  0  0  0  0  0
   21.5768  -16.7623  -19.0404 C   0  0  0  0  0  0  0  0  0  0  0  0
   20.8416  -15.8322  -18.2947 C   0  0  0  0  0  0  0  0  0  0  0  0
   19.5718  -16.2473  -18.1829 N   0  0  0  0  0  0  0  0  0  0  0  0
   19.4490  -17.4192  -18.8314 C   0  0  0  0  0  0  0  0  0  0  0  0
   18.3779  -18.2489  -19.0271 C   0  0  0  0  0  0  0  0  0  0  0  0
   18.4974  -19.4216  -19.7556 C   0  0  0  0  0  0  0  0  0  0  0  0
   19.7206  -19.7636  -20.2971 C   0  0  0  0  0  0  0  0  0  0  0  0
   20.7828  -18.9267  -20.0943 C   0  0  0  0  0  0  0  0  0  0  0  0
   20.6648  -17.7495  -19.3624 C   0  0  0  0  0  0  0  0  0  0  0  0
   23.6747  -18.1502  -17.4731 C   0  0  0  0  0  0  0  0  0  0  0  0
   24.0307  -19.2555  -17.9363 O   0  0  0  0  0  0  0  0  0  0  0  0
   23.0026  -18.1502  -16.2080 N   0  0  0  0  0  0  0  0  0  0  0  0
   22.7170  -19.4166  -15.5641 C   0  0  1  0  0  0  0  0  0  0  0  0
   23.4041  -19.4309  -14.2156 C   0  0  0  0  0  0  0  0  0  0  0  0
   23.0612  -20.6996  -13.5156 C   0  0  0  0  0  0  0  0  0  0  0  0
   24.2839  -21.5337  -13.1823 C   0  0  0  0  0  0  0  0  0  0  0  0
   23.7527  -22.8114  -12.5235 C   0  0  0  0  0  0  0  0  0  0  0  0
   24.9257  -23.6043  -12.1930 N   0  0  0  0  0  0  0  0  0  0  0  0
   21.2532  -19.5368  -15.3506 C   0  0  0  0  0  0  0  0  0  0  0  0
   20.5795  -18.4865  -15.1856 O   0  0  0  0  0  0  0  0  0  0  0  0
   20.5641  -20.7395  -15.3193 O   0  0  0  0  0  0  0  0  0  0  0  0
  2  1  1  6
  2  3  1  0
  3  4  1  0
  4  5  2  0
  4  8  1  0
  5  6  1  0
  6  7  1  0
  8  7  2  0
  9 10  2  0
  9  2  1  0
 11  9  1  0
 12 13  1  6
 12 11  1  0
 13 14  1  0
 14 15  2  0
 14 22  1  0
 15 16  1  0
 16 17  1  0
 17 18  2  0
 19 18  1  0
 20 19  2  0
 21 22  2  0
 21 20  1  0
 22 17  1  0
 23 12  1  0
 24 23  2  0
 25 23  1  0
 26 25  1  0
 26 27  1  1
 27 28  1  0
 29 28  1  0
 29 30  1  0
 30 31  1  0
 32 26  1  0
 32 34  1  0
 33 32  2  0
M  END
$$$$
