HWK.pdb
     RDKit          3D

 34 36  0  0  1  0  0  0  0  0999 V2000
   28.0537  -21.1198  -17.1960 N   0  0  0  0  0  0  0  0  0  0  0  0
   27.9037  -20.1922  -16.1058 C   0  0  1  0  0  0  0  0  0  0  0  0
   27.3592  -18.8613  -16.6180 C   0  0  0  0  0  0  0  0  0  0  0  0
   28.3935  -18.2345  -17.4716 C   0  0  0  0  0  0  0  0  0  0  0  0
   29.3424  -17.3175  -17.0922 C   0  0  0  0  0  0  0  0  0  0  0  0
   30.0711  -17.0295  -18.2111 N   0  0  0  0  0  0  0  0  0  0  0  0
   29.5965  -17.7401  -19.2544 C   0  0  0  0  0  0  0  0  0  0  0  0
   28.5623  -18.4754  -18.7731 N   0  0  0  0  0  0  0  0  0  0  0  0
   26.9629  -20.7207  -15.1052 C   0  0  0  0  0  0  0  0  0  0  0  0
   25.8643  -21.2582  -15.3807 O   0  0  0  0  0  0  0  0  0  0  0  0
   27.3447  -20.6066  -13.7376 N   0  0  0  0  0  0  0  0  0  0  0  0
   26.4918  -21.0113  -12.6648 C   0  0  1  0  0  0  0  0  0  0  0  0
   27.2485  -20.9117  -11.3629 C   0  0  0  0  0  0  0  0  0  0  0  0
   26.4463  -20.9687  -10.1529 C   0  0  0  0  0  0  0  0  0  0  0  0
   25.2101  -21.6110  -10.0083 C   0  0  0  0  0  0  0  0  0  0  0  0
   24.7502  -21.4277   -8.7624 N   0  0  0  0  0  0  0  0  0  0  0  0
   25.6443  -20.6866   -8.0841 C   0  0  0  0  0  0  0  0  0  0  0  0
   25.6634  -20.2299   -6.7937 C   0  0  0  0  0  0  0  0  0  0  0  0
   26.7219  -19.4779   -6.3100 C   0  0  0  0  0  0  0  0  0  0  0  0
   27.7816  -19.1810   -7.1440 C   0  0  0  0  0  0  0  0  0  0  0  0
   27.7507  -19.6426   -8.4307 C   0  0  0  0  0  0  0  0  0  0  0  0
   26.6883  -20.3970   -8.9181 C   0  0  0  0  0  0  0  0  0  0  0  0
   25.2526  -20.2434  -12.6744 C   0  0  0  0  0  0  0  0  0  0  0  0
   25.2751  -18.9937  -12.6467 O   0  0  0  0  0  0  0  0  0  0  0  0
   23.9698  -20.8797  -12.7164 N   0  0  0  0  0  0  0  0  0  0  0  0
   22.7824  -20.0593  -12.8464 C   0  0  1  0  0  0  0  0  0  0  0  0
   22.3043  -20.1373  -14.2804 C   0  0  0  0  0  0  0  0  0  0  0  0
   21.0849  -19.2952  -14.4262 C   0  0  0  0  0  0  0  0  0  0  0  0
   20.4792  -19.3769  -15.8147 C   0  0  0  0  0  0  0  0  0  0  0  0
   21.0983  -18.2228  -16.6106 C   0  0  0  0  0  0  0  0  0  0  0  0
   20.1057  -17.1605  -16.6058 N   0  0  0  0  0  0  0  0  0  0  0  0
   21.7180  -20.5970  -11.9628 C   0  0  0  0  0  0  0  0  0  0  0  0
   21.5972  -21.8452  -11.8551 O   0  0  0  0  0  0  0  0  0  0  0  0
   20.8347  -19.8128  -11.2370 O   0  0  0  0  0  0  0  0  0  0  0  0
  2  1  1  6
  2  3  1  0
  3  4  1  0
  4  5  2  0
  4  8  1  0
  5  6  1  0
  6  7  1  0
  8  7  2  0
  9 10  2  0
  9  2  1  0
 11  9  1  0
 12 13  1  1
 12 11  1  0
 13 14  1  0
 14 15  2  0
 14 22  1  0
 15 16  1  0
 16 17  1  0
 17 18  2  0
 19 18  1  0
 20 19  2  0
 21 22  2  0
 21 20  1  0
 22 17  1  0
 23 12  1  0
 24 23  2  0
 25 23  1  0
 26 25  1  0
 26 27  1  6
 27 28  1  0
 29 28  1  0
 29 30  1  0
 30 31  1  0
 32 26  1  0
 32 34  1  0
 33 32  2  0
M  END
$$$$
