HWK.pdb
     RDKit          3D

 34 36  0  0  1  0  0  0  0  0999 V2000
   26.2675  -25.1690  -15.8020 N   0  0  0  0  0  0  0  0  0  0  0  0
   25.3711  -24.1417  -16.2632 C   0  0  1  0  0  0  0  0  0  0  0  0
   24.4180  -24.7071  -17.3129 C   0  0  0  0  0  0  0  0  0  0  0  0
   25.1589  -24.8434  -18.5871 C   0  0  0  0  0  0  0  0  0  0  0  0
   25.4288  -26.0015  -19.2734 C   0  0  0  0  0  0  0  0  0  0  0  0
   26.1321  -25.6368  -20.3862 N   0  0  0  0  0  0  0  0  0  0  0  0
   26.2973  -24.2984  -20.3974 C   0  0  0  0  0  0  0  0  0  0  0  0
   25.6884  -23.8319  -19.2778 N   0  0  0  0  0  0  0  0  0  0  0  0
   24.5688  -23.6182  -15.1462 C   0  0  0  0  0  0  0  0  0  0  0  0
   24.1299  -24.3161  -14.2017 O   0  0  0  0  0  0  0  0  0  0  0  0
   24.2841  -22.2225  -15.1553 N   0  0  0  0  0  0  0  0  0  0  0  0
   23.6298  -21.5641  -14.0689 C   0  0  1  0  0  0  0  0  0  0  0  0
   24.4392  -20.3588  -13.6574 C   0  0  0  0  0  0  0  0  0  0  0  0
   25.4974  -20.6004  -12.6915 C   0  0  0  0  0  0  0  0  0  0  0  0
   26.8455  -20.8435  -12.9835 C   0  0  0  0  0  0  0  0  0  0  0  0
   27.5223  -21.0527  -11.8454 N   0  0  0  0  0  0  0  0  0  0  0  0
   26.6629  -20.9542  -10.8156 C   0  0  0  0  0  0  0  0  0  0  0  0
   26.8382  -21.0708   -9.4629 C   0  0  0  0  0  0  0  0  0  0  0  0
   25.7803  -20.9131   -8.5820 C   0  0  0  0  0  0  0  0  0  0  0  0
   24.5215  -20.6322   -9.0751 C   0  0  0  0  0  0  0  0  0  0  0  0
   24.3593  -20.5186  -10.4280 C   0  0  0  0  0  0  0  0  0  0  0  0
   25.4201  -20.6775  -11.3138 C   0  0  0  0  0  0  0  0  0  0  0  0
   22.2505  -21.2441  -14.4160 C   0  0  0  0  0  0  0  0  0  0  0  0
   21.9805  -20.6604  -15.4881 O   0  0  0  0  0  0  0  0  0  0  0  0
   21.1568  -21.5815  -13.5545 N   0  0  0  0  0  0  0  0  0  0  0  0
   19.8106  -21.2255  -13.9557 C   0  0  1  0  0  0  0  0  0  0  0  0
   18.8466  -22.1864  -13.2936 C   0  0  0  0  0  0  0  0  0  0  0  0
   19.0801  -23.5523  -13.8385 C   0  0  0  0  0  0  0  0  0  0  0  0
   18.1237  -24.5822  -13.2674 C   0  0  0  0  0  0  0  0  0  0  0  0
   18.4907  -25.9113  -13.9365 C   0  0  0  0  0  0  0  0  0  0  0  0
   17.8494  -25.8887  -15.2412 N   0  0  0  0  0  0  0  0  0  0  0  0
   19.5077  -19.8513  -13.4841 C   0  0  0  0  0  0  0  0  0  0  0  0
   20.2572  -19.3327  -12.6160 O   0  0  0  0  0  0  0  0  0  0  0  0
   18.4438  -19.0864  -13.9370 O   0  0  0  0  0  0  0  0  0  0  0  0
  2  1  1  1
  2  3  1  0
  3  4  1  0
  4  5  2  0
  4  8  1  0
  5  6  1  0
  6  7  1  0
  8  7  2  0
  9 10  2  0
  9  2  1  0
 11  9  1  0
 12 13  1  6
 12 11  1  0
 13 14  1  0
 14 15  2  0
 14 22  1  0
 15 16  1  0
 16 17  1  0
 17 18  2  0
 19 18  1  0
 20 19  2  0
 21 22  2  0
 21 20  1  0
 22 17  1  0
 23 12  1  0
 24 23  2  0
 25 23  1  0
 26 25  1  0
 26 27  1  1
 27 28  1  0
 29 28  1  0
 29 30  1  0
 30 31  1  0
 32 26  1  0
 32 34  1  0
 33 32  2  0
M  END
$$$$
