HWK.pdb
     RDKit          3D

 34 36  0  0  1  0  0  0  0  0999 V2000
   28.6252  -21.5323  -15.1507 N   0  0  0  0  0  0  0  0  0  0  0  0
   27.7775  -20.5238  -14.5713 C   0  0  1  0  0  0  0  0  0  0  0  0
   27.0667  -19.7384  -15.6703 C   0  0  0  0  0  0  0  0  0  0  0  0
   28.0907  -19.0299  -16.4708 C   0  0  0  0  0  0  0  0  0  0  0  0
   28.5811  -19.3900  -17.7016 C   0  0  0  0  0  0  0  0  0  0  0  0
   29.5014  -18.4404  -18.0443 N   0  0  0  0  0  0  0  0  0  0  0  0
   29.5850  -17.5182  -17.0638 C   0  0  0  0  0  0  0  0  0  0  0  0
   28.7057  -17.9037  -16.1047 N   0  0  0  0  0  0  0  0  0  0  0  0
   26.7555  -21.1414  -13.7113 C   0  0  0  0  0  0  0  0  0  0  0  0
   26.1329  -22.1922  -13.9943 O   0  0  0  0  0  0  0  0  0  0  0  0
   26.4698  -20.4881  -12.4781 N   0  0  0  0  0  0  0  0  0  0  0  0
   25.4718  -20.9604  -11.5710 C   0  0  1  0  0  0  0  0  0  0  0  0
   25.7669  -20.4332  -10.1881 C   0  0  0  0  0  0  0  0  0  0  0  0
   27.0212  -20.8646   -9.5950 C   0  0  0  0  0  0  0  0  0  0  0  0
   27.9811  -21.6887  -10.1959 C   0  0  0  0  0  0  0  0  0  0  0  0
   28.9921  -21.8998   -9.3412 N   0  0  0  0  0  0  0  0  0  0  0  0
   28.7277  -21.2408   -8.1990 C   0  0  0  0  0  0  0  0  0  0  0  0
   29.4278  -21.1204   -7.0288 C   0  0  0  0  0  0  0  0  0  0  0  0
   28.9460  -20.3610   -5.9746 C   0  0  0  0  0  0  0  0  0  0  0  0
   27.7348  -19.7106   -6.1034 C   0  0  0  0  0  0  0  0  0  0  0  0
   27.0450  -19.8390   -7.2770 C   0  0  0  0  0  0  0  0  0  0  0  0
   27.5268  -20.6017   -8.3360 C   0  0  0  0  0  0  0  0  0  0  0  0
   24.1378  -20.6175  -12.0487 C   0  0  0  0  0  0  0  0  0  0  0  0
   23.9321  -19.5421  -12.6522 O   0  0  0  0  0  0  0  0  0  0  0  0
   23.0175  -21.4881  -11.8509 N   0  0  0  0  0  0  0  0  0  0  0  0
   21.7343  -21.1214  -12.4155 C   0  0  1  0  0  0  0  0  0  0  0  0
   21.2857  -22.2327  -13.3401 C   0  0  0  0  0  0  0  0  0  0  0  0
   19.9705  -21.8630  -13.9321 C   0  0  0  0  0  0  0  0  0  0  0  0
   19.4681  -22.8892  -14.9302 C   0  0  0  0  0  0  0  0  0  0  0  0
   18.1480  -22.3328  -15.4748 C   0  0  0  0  0  0  0  0  0  0  0  0
   17.6838  -23.3013  -16.4548 N   0  0  0  0  0  0  0  0  0  0  0  0
   20.7402  -20.9856  -11.3219 C   0  0  0  0  0  0  0  0  0  0  0  0
   19.8886  -20.0614  -11.3924 O   0  0  0  0  0  0  0  0  0  0  0  0
   20.6807  -21.8149  -10.2125 O   0  0  0  0  0  0  0  0  0  0  0  0
  2  1  1  6
  2  3  1  0
  3  4  1  0
  4  5  2  0
  4  8  1  0
  5  6  1  0
  6  7  1  0
  8  7  2  0
  9 10  2  0
  9  2  1  0
 11  9  1  0
 12 13  1  1
 12 11  1  0
 13 14  1  0
 14 15  2  0
 14 22  1  0
 15 16  1  0
 16 17  1  0
 17 18  2  0
 19 18  1  0
 20 19  2  0
 21 22  2  0
 21 20  1  0
 22 17  1  0
 23 12  1  0
 24 23  2  0
 25 23  1  0
 26 25  1  0
 26 27  1  6
 27 28  1  0
 29 28  1  0
 29 30  1  0
 30 31  1  0
 32 26  1  0
 32 34  1  0
 33 32  2  0
M  END
$$$$
