MRD.pdb
     RDKit          3D

 28 27  0  0  1  0  0  0  0  0999 V2000
    5.3953  -12.6585   26.5143 C   0  0  0  0  0  0  0  0  0  0  0  0
    7.1644  -12.3593   26.8265 S   0  0  0  0  0  0  0  0  0  0  0  0
    8.1680  -13.7039   26.1554 C   0  0  0  0  0  0  0  0  0  0  0  0
    7.9675  -14.9196   27.0325 C   0  0  0  0  0  0  0  0  0  0  0  0
    7.2334  -16.0111   26.2768 C   0  0  2  0  0  0  0  0  0  0  0  0
    6.7716  -17.0394   27.1623 N   0  0  0  0  0  0  0  0  0  0  0  0
    8.0713  -16.4823   25.1616 C   0  0  0  0  0  0  0  0  0  0  0  0
    8.9987  -17.2717   25.3961 O   0  0  0  0  0  0  0  0  0  0  0  0
    8.8972  -13.5914   17.6654 N   0  0  0  0  0  0  0  0  0  0  0  0
    8.3096  -12.8577   18.7402 C   0  0  0  0  0  0  0  0  0  0  0  0
    8.8960  -11.7934   19.1609 N   0  0  0  0  0  0  0  0  0  0  0  0
    7.1099  -13.2400   19.3653 N   0  0  0  0  0  0  0  0  0  0  0  0
    6.8132  -14.5513   19.8938 C   0  0  0  0  0  0  0  0  0  0  0  0
    7.3138  -14.7966   21.2795 C   0  0  0  0  0  0  0  0  0  0  0  0
    8.0100  -16.1243   21.3505 C   0  0  0  0  0  0  0  0  0  0  0  0
    8.5566  -16.5227   22.6653 C   0  0  2  0  0  0  0  0  0  0  0  0
    7.8651  -16.0726   23.8331 N   0  0  0  0  0  0  0  0  0  0  0  0
   10.0173  -16.1523   22.7118 C   0  0  0  0  0  0  0  0  0  0  0  0
   10.3997  -15.0525   23.1823 O   0  0  0  0  0  0  0  0  0  0  0  0
    8.5012  -11.2294   19.9300 N   0  0  0  0  0  0  0  0  0  0  0  0
   11.0370  -17.0338   22.2235 C   0  0  1  0  0  0  0  0  0  0  0  0
   12.4466  -16.6916   22.2939 C   0  0  0  0  0  0  0  0  0  0  0  0
   12.8970  -17.0047   23.7111 C   0  0  0  0  0  0  0  0  0  0  0  0
   14.2104  -16.3967   23.9341 O   0  0  0  0  0  0  0  0  0  0  0  0
   14.8159  -15.7579   23.0449 C   0  0  0  0  0  0  0  0  0  0  0  0
   13.1872  -17.4941   21.3061 O   0  0  0  0  0  0  0  0  0  0  0  0
   14.4573  -17.1627   20.8728 O   0  0  0  0  0  0  0  0  0  0  0  0
   14.8101  -16.5327   25.1805 O   0  0  0  0  0  0  0  0  0  0  0  0
  2  1  1  0
  3  2  1  0
  4  3  1  0
  4  5  1  0
  5  6  1  1
  7  8  2  0
  7  5  1  0
  9 10  1  0
 10 11  2  0
 12 10  1  0
 12 13  1  0
 13 14  1  0
 15 14  1  0
 16 15  1  6
 16 17  1  0
 17  7  1  0
 18 20  1  0
 18 16  1  0
 19 18  2  0
 21 20  1  0
 21 25  1  0
 21 22  1  6
 23 22  1  0
 24 23  2  0
 25 26  1  0
 27 23  1  0
 28 25  2  0
M  END
$$$$
