MRD.pdb
     RDKit          3D

 28 27  0  0  1  0  0  0  0  0999 V2000
    6.5301  -11.1413   26.2786 C   0  0  0  0  0  0  0  0  0  0  0  0
    6.1874  -12.3897   27.5596 S   0  0  0  0  0  0  0  0  0  0  0  0
    7.1969  -13.8657   27.2995 C   0  0  0  0  0  0  0  0  0  0  0  0
    6.4328  -14.8002   26.3883 C   0  0  0  0  0  0  0  0  0  0  0  0
    7.3653  -15.8187   25.7604 C   0  0  2  0  0  0  0  0  0  0  0  0
    8.6929  -15.7072   26.2894 N   0  0  0  0  0  0  0  0  0  0  0  0
    7.2719  -15.7286   24.2937 C   0  0  0  0  0  0  0  0  0  0  0  0
    6.2282  -16.0946   23.7327 O   0  0  0  0  0  0  0  0  0  0  0  0
    9.0033  -15.2219   17.1382 N   0  0  0  0  0  0  0  0  0  0  0  0
    8.2094  -14.0777   16.8228 C   0  0  0  0  0  0  0  0  0  0  0  0
    7.9404  -13.8276   15.5905 N   0  0  0  0  0  0  0  0  0  0  0  0
    7.6986  -13.2047   17.7991 N   0  0  0  0  0  0  0  0  0  0  0  0
    8.2671  -12.9746   19.1072 C   0  0  0  0  0  0  0  0  0  0  0  0
    8.7080  -14.2081   19.8247 C   0  0  0  0  0  0  0  0  0  0  0  0
    8.3626  -14.1102   21.2820 C   0  0  0  0  0  0  0  0  0  0  0  0
    8.4608  -15.3530   22.0770 C   0  0  2  0  0  0  0  0  0  0  0  0
    8.3222  -15.2433   23.4959 N   0  0  0  0  0  0  0  0  0  0  0  0
    9.7347  -16.0661   21.7005 C   0  0  0  0  0  0  0  0  0  0  0  0
   10.8559  -15.6521   22.0860 O   0  0  0  0  0  0  0  0  0  0  0  0
    7.3827  -13.0029   15.3177 N   0  0  0  0  0  0  0  0  0  0  0  0
    9.7285  -17.2469   20.8875 C   0  0  2  0  0  0  0  0  0  0  0  0
   10.9531  -17.9431   20.5347 C   0  0  0  0  0  0  0  0  0  0  0  0
   10.5707  -19.3936   20.2911 C   0  0  0  0  0  0  0  0  0  0  0  0
   10.5586  -20.1003   21.5737 O   0  0  0  0  0  0  0  0  0  0  0  0
   10.8945  -19.5523   22.6470 C   0  0  0  0  0  0  0  0  0  0  0  0
   11.5252  -17.3289   19.3248 O   0  0  0  0  0  0  0  0  0  0  0  0
   12.8822  -17.3148   19.0622 O   0  0  0  0  0  0  0  0  0  0  0  0
   10.1588  -21.4311   21.6030 O   0  0  0  0  0  0  0  0  0  0  0  0
  2  1  1  0
  3  2  1  0
  4  3  1  0
  4  5  1  0
  5  6  1  6
  7  8  2  0
  7  5  1  0
  9 10  1  0
 10 11  2  0
 12 10  1  0
 12 13  1  0
 13 14  1  0
 15 14  1  0
 16 15  1  6
 16 17  1  0
 17  7  1  0
 18 20  1  0
 18 16  1  0
 19 18  2  0
 21 20  1  0
 21 25  1  0
 21 22  1  1
 23 22  1  0
 24 23  2  0
 25 26  1  0
 27 23  1  0
 28 25  2  0
M  END
$$$$
