MRD.pdb
     RDKit          3D

 28 27  0  0  1  0  0  0  0  0999 V2000
    6.9384  -12.4012   26.0778 C   0  0  0  0  0  0  0  0  0  0  0  0
    7.7813  -13.4086   27.3394 S   0  0  0  0  0  0  0  0  0  0  0  0
    7.7216  -15.1609   26.9023 C   0  0  0  0  0  0  0  0  0  0  0  0
    6.6869  -15.3361   25.8132 C   0  0  0  0  0  0  0  0  0  0  0  0
    6.4998  -16.8047   25.4823 C   0  0  2  0  0  0  0  0  0  0  0  0
    5.8246  -17.4967   26.5406 N   0  0  0  0  0  0  0  0  0  0  0  0
    7.7937  -17.3858   25.0870 C   0  0  0  0  0  0  0  0  0  0  0  0
    8.0182  -18.5805   25.3329 O   0  0  0  0  0  0  0  0  0  0  0  0
    7.5996  -11.7621   18.9646 N   0  0  0  0  0  0  0  0  0  0  0  0
    7.5581  -13.0898   18.4407 C   0  0  0  0  0  0  0  0  0  0  0  0
    8.1938  -13.3498   17.3536 N   0  0  0  0  0  0  0  0  0  0  0  0
    6.8551  -14.1379   19.0599 N   0  0  0  0  0  0  0  0  0  0  0  0
    6.8432  -14.4269   20.4753 C   0  0  0  0  0  0  0  0  0  0  0  0
    8.0326  -15.1823   20.9708 C   0  0  0  0  0  0  0  0  0  0  0  0
    7.8701  -15.5056   22.4273 C   0  0  0  0  0  0  0  0  0  0  0  0
    8.9062  -16.3635   23.0410 C   0  0  2  0  0  0  0  0  0  0  0  0
    8.7933  -16.6396   24.4395 N   0  0  0  0  0  0  0  0  0  0  0  0
   10.2623  -15.8017   22.6972 C   0  0  0  0  0  0  0  0  0  0  0  0
   10.4511  -14.5647   22.5897 O   0  0  0  0  0  0  0  0  0  0  0  0
    8.2833  -14.3155   17.0001 N   0  0  0  0  0  0  0  0  0  0  0  0
   11.3981  -16.6484   22.4773 C   0  0  1  0  0  0  0  0  0  0  0  0
   12.6171  -16.5160   23.2554 C   0  0  0  0  0  0  0  0  0  0  0  0
   13.0076  -17.9192   23.6889 C   0  0  0  0  0  0  0  0  0  0  0  0
   12.8838  -18.0150   25.1449 O   0  0  0  0  0  0  0  0  0  0  0  0
   12.5244  -17.0494   25.8546 C   0  0  0  0  0  0  0  0  0  0  0  0
   13.6606  -15.9041   22.4158 O   0  0  0  0  0  0  0  0  0  0  0  0
   14.8893  -15.5133   22.9142 O   0  0  0  0  0  0  0  0  0  0  0  0
   13.1761  -19.2239   25.7653 O   0  0  0  0  0  0  0  0  0  0  0  0
  2  1  1  0
  3  2  1  0
  4  3  1  0
  4  5  1  0
  5  6  1  1
  7  8  2  0
  7  5  1  0
  9 10  1  0
 10 11  2  0
 12 10  1  0
 12 13  1  0
 13 14  1  0
 15 14  1  0
 16 15  1  1
 16 17  1  0
 17  7  1  0
 18 20  1  0
 18 16  1  0
 19 18  2  0
 21 20  1  0
 21 25  1  0
 21 22  1  6
 23 22  1  0
 24 23  2  0
 25 26  1  0
 27 23  1  0
 28 25  2  0
M  END
$$$$
