MRD.pdb
     RDKit          3D

 28 27  0  0  1  0  0  0  0  0999 V2000
    7.3722  -11.4581   27.7202 C   0  0  0  0  0  0  0  0  0  0  0  0
    6.1809  -12.6347   27.0038 S   0  0  0  0  0  0  0  0  0  0  0  0
    6.9783  -14.2183   26.6547 C   0  0  0  0  0  0  0  0  0  0  0  0
    5.9365  -15.1483   26.0740 C   0  0  0  0  0  0  0  0  0  0  0  0
    6.5344  -16.5134   25.7904 C   0  0  2  0  0  0  0  0  0  0  0  0
    7.1814  -17.0514   26.9509 N   0  0  0  0  0  0  0  0  0  0  0  0
    7.3801  -16.4366   24.5876 C   0  0  0  0  0  0  0  0  0  0  0  0
    8.2637  -17.2899   24.4166 O   0  0  0  0  0  0  0  0  0  0  0  0
   10.1317  -14.4380   17.9724 N   0  0  0  0  0  0  0  0  0  0  0  0
    8.9711  -13.8701   17.3647 C   0  0  0  0  0  0  0  0  0  0  0  0
    8.6379  -14.2515   16.1828 N   0  0  0  0  0  0  0  0  0  0  0  0
    8.1641  -12.9097   17.9992 N   0  0  0  0  0  0  0  0  0  0  0  0
    7.7132  -12.9582   19.3709 C   0  0  0  0  0  0  0  0  0  0  0  0
    8.2559  -14.0980   20.1691 C   0  0  0  0  0  0  0  0  0  0  0  0
    7.5740  -14.1654   21.5044 C   0  0  0  0  0  0  0  0  0  0  0  0
    7.9444  -15.2917   22.3877 C   0  0  2  0  0  0  0  0  0  0  0  0
    7.2293  -15.4303   23.6182 N   0  0  0  0  0  0  0  0  0  0  0  0
    9.4341  -15.2547   22.6165 C   0  0  0  0  0  0  0  0  0  0  0  0
    9.9696  -14.3483   23.3012 O   0  0  0  0  0  0  0  0  0  0  0  0
    7.8032  -13.8709   15.7095 N   0  0  0  0  0  0  0  0  0  0  0  0
   10.3087  -16.2483   22.0660 C   0  0  2  0  0  0  0  0  0  0  0  0
   11.7361  -16.2487   22.3336 C   0  0  0  0  0  0  0  0  0  0  0  0
   12.0580  -17.5954   22.9597 C   0  0  0  0  0  0  0  0  0  0  0  0
   13.4998  -17.6695   23.2048 O   0  0  0  0  0  0  0  0  0  0  0  0
   14.2736  -16.7172   22.9605 C   0  0  0  0  0  0  0  0  0  0  0  0
   12.4638  -16.0580   21.0678 O   0  0  0  0  0  0  0  0  0  0  0  0
   11.9892  -16.5195   19.8544 O   0  0  0  0  0  0  0  0  0  0  0  0
   14.0322  -18.8414   23.7291 O   0  0  0  0  0  0  0  0  0  0  0  0
  2  1  1  0
  3  2  1  0
  4  3  1  0
  4  5  1  0
  5  6  1  1
  7  8  2  0
  7  5  1  0
  9 10  1  0
 10 11  2  0
 12 10  1  0
 12 13  1  0
 13 14  1  0
 15 14  1  0
 16 15  1  1
 16 17  1  0
 17  7  1  0
 18 20  1  0
 18 16  1  0
 19 18  2  0
 21 20  1  0
 21 25  1  0
 21 22  1  6
 23 22  1  0
 24 23  2  0
 25 26  1  0
 27 23  1  0
 28 25  2  0
M  END
$$$$
