MRD.pdb
     RDKit          3D

 28 27  0  0  1  0  0  0  0  0999 V2000
    7.3852  -11.6823   26.8467 C   0  0  0  0  0  0  0  0  0  0  0  0
    5.7796  -12.4837   26.5362 S   0  0  0  0  0  0  0  0  0  0  0  0
    5.8573  -14.2449   26.9332 C   0  0  0  0  0  0  0  0  0  0  0  0
    7.0293  -14.8413   26.1861 C   0  0  0  0  0  0  0  0  0  0  0  0
    6.5683  -15.9578   25.2683 C   0  0  2  0  0  0  0  0  0  0  0  0
    6.2705  -17.1505   26.0055 N   0  0  0  0  0  0  0  0  0  0  0  0
    7.5432  -16.1288   24.1782 C   0  0  0  0  0  0  0  0  0  0  0  0
    8.2224  -17.1656   24.1342 O   0  0  0  0  0  0  0  0  0  0  0  0
    7.9411  -15.4842   17.9038 N   0  0  0  0  0  0  0  0  0  0  0  0
    8.0906  -14.1618   17.3862 C   0  0  0  0  0  0  0  0  0  0  0  0
    8.6065  -14.0052   16.2189 N   0  0  0  0  0  0  0  0  0  0  0  0
    7.6956  -13.0118   18.0918 N   0  0  0  0  0  0  0  0  0  0  0  0
    7.1184  -12.9898   19.4160 C   0  0  0  0  0  0  0  0  0  0  0  0
    7.2835  -14.2548   20.1928 C   0  0  0  0  0  0  0  0  0  0  0  0
    8.5284  -14.1899   21.0286 C   0  0  0  0  0  0  0  0  0  0  0  0
    8.6712  -15.2045   22.0945 C   0  0  2  0  0  0  0  0  0  0  0  0
    7.7399  -15.1606   23.1787 N   0  0  0  0  0  0  0  0  0  0  0  0
   10.0953  -15.1861   22.5893 C   0  0  0  0  0  0  0  0  0  0  0  0
   10.4188  -14.5645   23.6315 O   0  0  0  0  0  0  0  0  0  0  0  0
    8.6589  -13.0754   15.7736 N   0  0  0  0  0  0  0  0  0  0  0  0
   11.1453  -15.8744   21.8973 C   0  0  1  0  0  0  0  0  0  0  0  0
   12.4096  -16.1900   22.5382 C   0  0  0  0  0  0  0  0  0  0  0  0
   12.0765  -17.0250   23.7633 C   0  0  0  0  0  0  0  0  0  0  0  0
   13.3244  -17.5010   24.3638 O   0  0  0  0  0  0  0  0  0  0  0  0
   14.3844  -16.8373   24.3278 C   0  0  0  0  0  0  0  0  0  0  0  0
   13.2555  -16.9380   21.5930 O   0  0  0  0  0  0  0  0  0  0  0  0
   12.8532  -17.2405   20.3057 O   0  0  0  0  0  0  0  0  0  0  0  0
   13.3350  -18.7372   24.9990 O   0  0  0  0  0  0  0  0  0  0  0  0
  2  1  1  0
  3  2  1  0
  4  3  1  0
  4  5  1  0
  5  6  1  1
  7  8  2  0
  7  5  1  0
  9 10  1  0
 10 11  2  0
 12 10  1  0
 12 13  1  0
 13 14  1  0
 15 14  1  0
 16 15  1  6
 16 17  1  0
 17  7  1  0
 18 20  1  0
 18 16  1  0
 19 18  2  0
 21 20  1  0
 21 25  1  0
 21 22  1  6
 23 22  1  0
 24 23  2  0
 25 26  1  0
 27 23  1  0
 28 25  2  0
M  END
$$$$
