MRD.pdb
     RDKit          3D

 28 27  0  0  1  0  0  0  0  0999 V2000
    9.7779  -13.0009   28.1009 C   0  0  0  0  0  0  0  0  0  0  0  0
    9.0719  -14.2630   29.2079 S   0  0  0  0  0  0  0  0  0  0  0  0
    9.8912  -15.8554   28.9661 C   0  0  0  0  0  0  0  0  0  0  0  0
    9.8378  -16.1895   27.4919 C   0  0  0  0  0  0  0  0  0  0  0  0
    8.5435  -16.9031   27.1502 C   0  0  2  0  0  0  0  0  0  0  0  0
    8.3500  -18.0581   27.9767 N   0  0  0  0  0  0  0  0  0  0  0  0
    8.4950  -17.1612   25.7014 C   0  0  0  0  0  0  0  0  0  0  0  0
    8.9425  -18.2323   25.2647 O   0  0  0  0  0  0  0  0  0  0  0  0
    8.5960  -12.0131   20.2801 N   0  0  0  0  0  0  0  0  0  0  0  0
    8.1950  -12.9219   19.2543 C   0  0  0  0  0  0  0  0  0  0  0  0
    8.9550  -13.0773   18.2288 N   0  0  0  0  0  0  0  0  0  0  0  0
    7.0031  -13.6653   19.3101 N   0  0  0  0  0  0  0  0  0  0  0  0
    6.4876  -14.3492   20.4735 C   0  0  0  0  0  0  0  0  0  0  0  0
    7.4325  -15.3227   21.0982 C   0  0  0  0  0  0  0  0  0  0  0  0
    7.3619  -15.2249   22.5942 C   0  0  0  0  0  0  0  0  0  0  0  0
    8.1377  -16.2190   23.3662 C   0  0  2  0  0  0  0  0  0  0  0  0
    7.9608  -16.2393   24.7849 N   0  0  0  0  0  0  0  0  0  0  0  0
    9.5928  -16.0894   22.9934 C   0  0  0  0  0  0  0  0  0  0  0  0
   10.3286  -15.2176   23.5186 O   0  0  0  0  0  0  0  0  0  0  0  0
    8.6584  -13.6460   17.4201 N   0  0  0  0  0  0  0  0  0  0  0  0
   10.2052  -16.9514   22.0253 C   0  0  1  0  0  0  0  0  0  0  0  0
   11.6390  -16.9516   21.7948 C   0  0  0  0  0  0  0  0  0  0  0  0
   12.2891  -17.3234   23.1171 C   0  0  0  0  0  0  0  0  0  0  0  0
   13.4254  -16.4302   23.3521 O   0  0  0  0  0  0  0  0  0  0  0  0
   13.7451  -15.5232   22.5518 C   0  0  0  0  0  0  0  0  0  0  0  0
   11.9582  -17.9338   20.7452 O   0  0  0  0  0  0  0  0  0  0  0  0
   13.0842  -17.8396   19.9490 O   0  0  0  0  0  0  0  0  0  0  0  0
   14.1799  -16.5935   24.5080 O   0  0  0  0  0  0  0  0  0  0  0  0
  2  1  1  0
  3  2  1  0
  4  3  1  0
  4  5  1  0
  5  6  1  1
  7  8  2  0
  7  5  1  0
  9 10  1  0
 10 11  2  0
 12 10  1  0
 12 13  1  0
 13 14  1  0
 15 14  1  0
 16 15  1  1
 16 17  1  0
 17  7  1  0
 18 20  1  0
 18 16  1  0
 19 18  2  0
 21 20  1  0
 21 25  1  0
 21 22  1  6
 23 22  1  0
 24 23  2  0
 25 26  1  0
 27 23  1  0
 28 25  2  0
M  END
$$$$
