MRD.pdb
     RDKit          3D

 28 27  0  0  1  0  0  0  0  0999 V2000
    9.0731  -14.9887   29.6813 C   0  0  0  0  0  0  0  0  0  0  0  0
    9.1142  -13.7348   28.3611 S   0  0  0  0  0  0  0  0  0  0  0  0
    7.5070  -13.6144   27.5440 C   0  0  0  0  0  0  0  0  0  0  0  0
    7.4680  -14.6423   26.4352 C   0  0  0  0  0  0  0  0  0  0  0  0
    8.8162  -14.7399   25.7468 C   0  0  2  0  0  0  0  0  0  0  0  0
    9.4444  -13.4556   25.6439 N   0  0  0  0  0  0  0  0  0  0  0  0
    8.6633  -15.4602   24.4717 C   0  0  0  0  0  0  0  0  0  0  0  0
    8.0756  -16.5523   24.4631 O   0  0  0  0  0  0  0  0  0  0  0  0
    9.6131  -12.9048   18.0444 N   0  0  0  0  0  0  0  0  0  0  0  0
    8.2946  -13.3530   17.7290 C   0  0  0  0  0  0  0  0  0  0  0  0
    8.0428  -13.7525   16.5330 N   0  0  0  0  0  0  0  0  0  0  0  0
    7.2490  -13.3843   18.6681 N   0  0  0  0  0  0  0  0  0  0  0  0
    7.2945  -12.8307   20.0017 C   0  0  0  0  0  0  0  0  0  0  0  0
    7.4287  -13.8396   21.0948 C   0  0  0  0  0  0  0  0  0  0  0  0
    8.6141  -14.7240   20.8398 C   0  0  0  0  0  0  0  0  0  0  0  0
    9.0719  -15.5686   21.9637 C   0  0  2  0  0  0  0  0  0  0  0  0
    9.1590  -14.9608   23.2551 N   0  0  0  0  0  0  0  0  0  0  0  0
   10.3718  -16.2255   21.5743 C   0  0  0  0  0  0  0  0  0  0  0  0
   10.4399  -17.0185   20.6028 O   0  0  0  0  0  0  0  0  0  0  0  0
    7.1001  -14.0717   16.2592 N   0  0  0  0  0  0  0  0  0  0  0  0
   11.5886  -15.9781   22.2907 C   0  0  1  0  0  0  0  0  0  0  0  0
   12.8393  -16.6191   21.9250 C   0  0  0  0  0  0  0  0  0  0  0  0
   13.8573  -15.5061   21.7396 C   0  0  0  0  0  0  0  0  0  0  0  0
   13.5779  -14.8161   20.4786 O   0  0  0  0  0  0  0  0  0  0  0  0
   12.9817  -15.3681   19.5273 C   0  0  0  0  0  0  0  0  0  0  0  0
   13.2415  -17.5401   23.0012 O   0  0  0  0  0  0  0  0  0  0  0  0
   12.5082  -17.7015   24.1618 O   0  0  0  0  0  0  0  0  0  0  0  0
   13.9894  -13.4969   20.3298 O   0  0  0  0  0  0  0  0  0  0  0  0
  2  1  1  0
  3  2  1  0
  4  3  1  0
  4  5  1  0
  5  6  1  6
  7  8  2  0
  7  5  1  0
  9 10  1  0
 10 11  2  0
 12 10  1  0
 12 13  1  0
 13 14  1  0
 15 14  1  0
 16 15  1  6
 16 17  1  0
 17  7  1  0
 18 20  1  0
 18 16  1  0
 19 18  2  0
 21 20  1  0
 21 25  1  0
 21 22  1  6
 23 22  1  0
 24 23  2  0
 25 26  1  0
 27 23  1  0
 28 25  2  0
M  END
$$$$
