MRD.pdb
     RDKit          3D

 28 27  0  0  1  0  0  0  0  0999 V2000
    7.0142  -11.9451   26.5192 C   0  0  0  0  0  0  0  0  0  0  0  0
    6.1682  -13.3633   27.2870 S   0  0  0  0  0  0  0  0  0  0  0  0
    7.3407  -14.6923   27.6398 C   0  0  0  0  0  0  0  0  0  0  0  0
    7.9185  -15.1671   26.3252 C   0  0  0  0  0  0  0  0  0  0  0  0
    6.9739  -16.1394   25.6441 C   0  0  2  0  0  0  0  0  0  0  0  0
    6.8229  -17.3428   26.4081 N   0  0  0  0  0  0  0  0  0  0  0  0
    7.3999  -16.3391   24.2489 C   0  0  0  0  0  0  0  0  0  0  0  0
    7.8776  -17.4340   23.9154 O   0  0  0  0  0  0  0  0  0  0  0  0
    9.6955  -14.6844   17.2982 N   0  0  0  0  0  0  0  0  0  0  0  0
    8.4835  -14.0363   16.9109 C   0  0  0  0  0  0  0  0  0  0  0  0
    8.1025  -14.1108   15.6850 N   0  0  0  0  0  0  0  0  0  0  0  0
    7.6759  -13.3179   17.8096 N   0  0  0  0  0  0  0  0  0  0  0  0
    8.0893  -12.8117   19.0980 C   0  0  0  0  0  0  0  0  0  0  0  0
    8.6532  -13.8395   20.0235 C   0  0  0  0  0  0  0  0  0  0  0  0
    7.7087  -14.0819   21.1645 C   0  0  0  0  0  0  0  0  0  0  0  0
    7.9897  -15.2486   22.0282 C   0  0  2  0  0  0  0  0  0  0  0  0
    7.2890  -15.3352   23.2716 N   0  0  0  0  0  0  0  0  0  0  0  0
    9.4806  -15.3529   22.2266 C   0  0  0  0  0  0  0  0  0  0  0  0
   10.1014  -14.5481   22.9642 O   0  0  0  0  0  0  0  0  0  0  0  0
    7.2542  -13.6242   15.3543 N   0  0  0  0  0  0  0  0  0  0  0  0
   10.2594  -16.3718   21.5858 C   0  0  2  0  0  0  0  0  0  0  0  0
   11.6850  -16.5128   21.8239 C   0  0  0  0  0  0  0  0  0  0  0  0
   12.0016  -17.9928   21.6866 C   0  0  0  0  0  0  0  0  0  0  0  0
   11.9098  -18.6196   23.0069 O   0  0  0  0  0  0  0  0  0  0  0  0
   11.9492  -17.9598   24.0692 C   0  0  0  0  0  0  0  0  0  0  0  0
   12.4209  -15.7125   20.8308 O   0  0  0  0  0  0  0  0  0  0  0  0
   13.6818  -15.1987   21.0690 O   0  0  0  0  0  0  0  0  0  0  0  0
   11.7734  -20.0005   23.0864 O   0  0  0  0  0  0  0  0  0  0  0  0
  2  1  1  0
  3  2  1  0
  4  3  1  0
  4  5  1  0
  5  6  1  1
  7  8  2  0
  7  5  1  0
  9 10  1  0
 10 11  2  0
 12 10  1  0
 12 13  1  0
 13 14  1  0
 15 14  1  0
 16 15  1  1
 16 17  1  0
 17  7  1  0
 18 20  1  0
 18 16  1  0
 19 18  2  0
 21 20  1  0
 21 25  1  0
 21 22  1  1
 23 22  1  0
 24 23  2  0
 25 26  1  0
 27 23  1  0
 28 25  2  0
M  END
$$$$
