MRD.pdb
     RDKit          3D

 28 27  0  0  1  0  0  0  0  0999 V2000
    8.3689  -12.5085   27.3064 C   0  0  0  0  0  0  0  0  0  0  0  0
    9.7004  -13.5404   27.9986 S   0  0  0  0  0  0  0  0  0  0  0  0
    9.2695  -15.2924   27.8966 C   0  0  0  0  0  0  0  0  0  0  0  0
    9.2589  -15.6870   26.4366 C   0  0  0  0  0  0  0  0  0  0  0  0
    8.6301  -17.0556   26.2555 C   0  0  2  0  0  0  0  0  0  0  0  0
    8.9050  -17.9089   27.3740 N   0  0  0  0  0  0  0  0  0  0  0  0
    9.0203  -17.6037   24.9458 C   0  0  0  0  0  0  0  0  0  0  0  0
    9.6696  -18.6596   24.9036 O   0  0  0  0  0  0  0  0  0  0  0  0
    9.0254  -13.0865   19.3964 N   0  0  0  0  0  0  0  0  0  0  0  0
    8.3509  -12.4521   20.4834 C   0  0  0  0  0  0  0  0  0  0  0  0
    8.6313  -11.2281   20.7602 N   0  0  0  0  0  0  0  0  0  0  0  0
    7.3844  -13.1012   21.2713 N   0  0  0  0  0  0  0  0  0  0  0  0
    7.1944  -14.5300   21.3683 C   0  0  0  0  0  0  0  0  0  0  0  0
    8.4283  -15.3426   21.1498 C   0  0  0  0  0  0  0  0  0  0  0  0
    8.1226  -16.8025   21.3166 C   0  0  0  0  0  0  0  0  0  0  0  0
    8.8189  -17.5102   22.4122 C   0  0  2  0  0  0  0  0  0  0  0  0
    8.6876  -16.9772   23.7326 N   0  0  0  0  0  0  0  0  0  0  0  0
   10.2666  -17.6850   22.0292 C   0  0  0  0  0  0  0  0  0  0  0  0
   10.5968  -18.2321   20.9480 O   0  0  0  0  0  0  0  0  0  0  0  0
    8.2148  -10.7514   21.5757 N   0  0  0  0  0  0  0  0  0  0  0  0
   11.3325  -17.2371   22.8767 C   0  0  1  0  0  0  0  0  0  0  0  0
   12.7273  -17.3875   22.5014 C   0  0  0  0  0  0  0  0  0  0  0  0
   12.8298  -16.9707   21.0436 C   0  0  0  0  0  0  0  0  0  0  0  0
   13.4423  -15.6423   20.9745 O   0  0  0  0  0  0  0  0  0  0  0  0
   13.7289  -14.9795   21.9961 C   0  0  0  0  0  0  0  0  0  0  0  0
   13.5540  -16.5275   23.3646 O   0  0  0  0  0  0  0  0  0  0  0  0
   14.9356  -16.5294   23.3206 O   0  0  0  0  0  0  0  0  0  0  0  0
   13.7172  -15.0940   19.7272 O   0  0  0  0  0  0  0  0  0  0  0  0
  2  1  1  0
  3  2  1  0
  4  3  1  0
  4  5  1  0
  5  6  1  1
  7  8  2  0
  7  5  1  0
  9 10  1  0
 10 11  2  0
 12 10  1  0
 12 13  1  0
 13 14  1  0
 15 14  1  0
 16 15  1  6
 16 17  1  0
 17  7  1  0
 18 20  1  0
 18 16  1  0
 19 18  2  0
 21 20  1  0
 21 25  1  0
 21 22  1  6
 23 22  1  0
 24 23  2  0
 25 26  1  0
 27 23  1  0
 28 25  2  0
M  END
$$$$
