MRD.pdb
     RDKit          3D

 28 27  0  0  1  0  0  0  0  0999 V2000
    6.1886  -10.9976   26.8851 C   0  0  0  0  0  0  0  0  0  0  0  0
    6.5254  -12.4067   25.7816 S   0  0  0  0  0  0  0  0  0  0  0  0
    6.1816  -13.9705   26.6192 C   0  0  0  0  0  0  0  0  0  0  0  0
    6.4434  -15.0929   25.6398 C   0  0  0  0  0  0  0  0  0  0  0  0
    7.9337  -15.2918   25.4377 C   0  0  2  0  0  0  0  0  0  0  0  0
    8.5870  -14.0563   25.1193 N   0  0  0  0  0  0  0  0  0  0  0  0
    8.1552  -16.3787   24.4695 C   0  0  0  0  0  0  0  0  0  0  0  0
    7.2048  -17.1126   24.1593 O   0  0  0  0  0  0  0  0  0  0  0  0
    9.3578  -12.7491   19.1201 N   0  0  0  0  0  0  0  0  0  0  0  0
    8.0596  -13.1578   18.6882 C   0  0  0  0  0  0  0  0  0  0  0  0
    7.3422  -12.3347   18.0090 N   0  0  0  0  0  0  0  0  0  0  0  0
    7.5219  -14.4265   18.9662 N   0  0  0  0  0  0  0  0  0  0  0  0
    8.0852  -15.4034   19.8693 C   0  0  0  0  0  0  0  0  0  0  0  0
    7.9927  -15.0457   21.3165 C   0  0  0  0  0  0  0  0  0  0  0  0
    9.3569  -15.0626   21.9418 C   0  0  0  0  0  0  0  0  0  0  0  0
    9.8048  -16.3412   22.5340 C   0  0  2  0  0  0  0  0  0  0  0  0
    9.4064  -16.6233   23.8780 N   0  0  0  0  0  0  0  0  0  0  0  0
   11.2990  -16.4523   22.3665 C   0  0  0  0  0  0  0  0  0  0  0  0
   11.8056  -17.1206   21.4316 O   0  0  0  0  0  0  0  0  0  0  0  0
    6.4394  -12.6197   17.5978 N   0  0  0  0  0  0  0  0  0  0  0  0
   12.2107  -15.8032   23.2623 C   0  0  2  0  0  0  0  0  0  0  0  0
   13.3074  -16.5168   23.8926 C   0  0  0  0  0  0  0  0  0  0  0  0
   12.7124  -17.7787   24.4949 C   0  0  0  0  0  0  0  0  0  0  0  0
   13.3985  -18.0690   25.7556 O   0  0  0  0  0  0  0  0  0  0  0  0
   14.3283  -17.3565   26.1951 C   0  0  0  0  0  0  0  0  0  0  0  0
   14.3230  -16.8354   22.8751 O   0  0  0  0  0  0  0  0  0  0  0  0
   14.0344  -17.5484   21.7266 O   0  0  0  0  0  0  0  0  0  0  0  0
   13.0039  -19.1779   26.4947 O   0  0  0  0  0  0  0  0  0  0  0  0
  2  1  1  0
  3  2  1  0
  4  3  1  0
  4  5  1  0
  5  6  1  6
  7  8  2  0
  7  5  1  0
  9 10  1  0
 10 11  2  0
 12 10  1  0
 12 13  1  0
 13 14  1  0
 15 14  1  0
 16 15  1  1
 16 17  1  0
 17  7  1  0
 18 20  1  0
 18 16  1  0
 19 18  2  0
 21 20  1  0
 21 25  1  0
 21 22  1  1
 23 22  1  0
 24 23  2  0
 25 26  1  0
 27 23  1  0
 28 25  2  0
M  END
$$$$
