MRD.pdb
     RDKit          3D

 28 27  0  0  1  0  0  0  0  0999 V2000
    6.3154  -10.8695   20.5360 C   0  0  0  0  0  0  0  0  0  0  0  0
    7.2686  -12.4101   20.7221 S   0  0  0  0  0  0  0  0  0  0  0  0
    7.0302  -13.4859   19.2899 C   0  0  0  0  0  0  0  0  0  0  0  0
    7.7661  -14.7813   19.5505 C   0  0  0  0  0  0  0  0  0  0  0  0
    7.7659  -15.6569   18.3117 C   0  0  2  0  0  0  0  0  0  0  0  0
    6.4339  -15.8853   17.8338 N   0  0  0  0  0  0  0  0  0  0  0  0
    8.5488  -16.8759   18.5742 C   0  0  0  0  0  0  0  0  0  0  0  0
    8.0784  -17.9762   18.2482 O   0  0  0  0  0  0  0  0  0  0  0  0
   15.7480  -17.6400   16.1861 N   0  0  0  0  0  0  0  0  0  0  0  0
   15.3895  -18.8328   15.4877 C   0  0  0  0  0  0  0  0  0  0  0  0
   16.3225  -19.5911   15.0318 N   0  0  0  0  0  0  0  0  0  0  0  0
   14.0570  -19.2264   15.2742 N   0  0  0  0  0  0  0  0  0  0  0  0
   12.8828  -18.4856   15.6738 C   0  0  0  0  0  0  0  0  0  0  0  0
   12.5196  -18.6173   17.1166 C   0  0  0  0  0  0  0  0  0  0  0  0
   11.3965  -17.6809   17.4548 C   0  0  0  0  0  0  0  0  0  0  0  0
   10.9538  -17.6504   18.8652 C   0  0  2  0  0  0  0  0  0  0  0  0
    9.8148  -16.8468   19.1838 N   0  0  0  0  0  0  0  0  0  0  0  0
   12.1358  -17.3011   19.7336 C   0  0  0  0  0  0  0  0  0  0  0  0
   12.6735  -16.1673   19.6832 O   0  0  0  0  0  0  0  0  0  0  0  0
   16.1079  -20.4332   14.4746 N   0  0  0  0  0  0  0  0  0  0  0  0
   12.7012  -18.2421   20.6555 C   0  0  2  0  0  0  0  0  0  0  0  0
   13.6278  -17.8353   21.6971 C   0  0  0  0  0  0  0  0  0  0  0  0
   13.3680  -18.7453   22.8861 C   0  0  0  0  0  0  0  0  0  0  0  0
   12.1062  -18.3506   23.5157 O   0  0  0  0  0  0  0  0  0  0  0  0
   11.8508  -17.1658   23.8262 C   0  0  0  0  0  0  0  0  0  0  0  0
   15.0061  -17.9822   21.2003 O   0  0  0  0  0  0  0  0  0  0  0  0
   16.1082  -17.5396   21.9075 O   0  0  0  0  0  0  0  0  0  0  0  0
   11.1534  -19.3274   23.7799 O   0  0  0  0  0  0  0  0  0  0  0  0
  2  1  1  0
  3  2  1  0
  4  3  1  0
  4  5  1  0
  5  6  1  1
  7  8  2  0
  7  5  1  0
  9 10  1  0
 10 11  2  0
 12 10  1  0
 12 13  1  0
 13 14  1  0
 15 14  1  0
 16 15  1  6
 16 17  1  0
 17  7  1  0
 18 20  1  0
 18 16  1  0
 19 18  2  0
 21 20  1  0
 21 25  1  0
 21 22  1  1
 23 22  1  0
 24 23  2  0
 25 26  1  0
 27 23  1  0
 28 25  2  0
M  END
$$$$
