MRD.pdb
     RDKit          3D

 28 27  0  0  1  0  0  0  0  0999 V2000
    5.3189  -11.8295   27.2477 C   0  0  0  0  0  0  0  0  0  0  0  0
    7.1256  -12.0580   27.2262 S   0  0  0  0  0  0  0  0  0  0  0  0
    7.5491  -13.7614   26.7967 C   0  0  0  0  0  0  0  0  0  0  0  0
    6.2763  -14.5782   26.8142 C   0  0  0  0  0  0  0  0  0  0  0  0
    6.5577  -16.0182   26.4289 C   0  0  2  0  0  0  0  0  0  0  0  0
    7.5913  -16.5846   27.2447 N   0  0  0  0  0  0  0  0  0  0  0  0
    6.7975  -16.0985   24.9784 C   0  0  0  0  0  0  0  0  0  0  0  0
    5.8454  -16.3450   24.2228 O   0  0  0  0  0  0  0  0  0  0  0  0
    9.0716  -12.4227   17.9070 N   0  0  0  0  0  0  0  0  0  0  0  0
    8.4275  -13.6646   17.6213 C   0  0  0  0  0  0  0  0  0  0  0  0
    8.6401  -14.2290   16.4857 N   0  0  0  0  0  0  0  0  0  0  0  0
    7.5681  -14.3101   18.5275 N   0  0  0  0  0  0  0  0  0  0  0  0
    7.3913  -13.9620   19.9184 C   0  0  0  0  0  0  0  0  0  0  0  0
    8.3906  -14.5684   20.8481 C   0  0  0  0  0  0  0  0  0  0  0  0
    7.7521  -14.8610   22.1745 C   0  0  0  0  0  0  0  0  0  0  0  0
    8.4051  -15.8837   23.0193 C   0  0  2  0  0  0  0  0  0  0  0  0
    8.0680  -15.9077   24.4087 N   0  0  0  0  0  0  0  0  0  0  0  0
    9.8963  -15.7968   22.8148 C   0  0  0  0  0  0  0  0  0  0  0  0
   10.6454  -15.2660   23.6717 O   0  0  0  0  0  0  0  0  0  0  0  0
    8.2553  -15.1617   16.2675 N   0  0  0  0  0  0  0  0  0  0  0  0
   10.5296  -16.3138   21.6371 C   0  0  1  0  0  0  0  0  0  0  0  0
   11.9619  -16.5449   21.5736 C   0  0  0  0  0  0  0  0  0  0  0  0
   12.3022  -17.4693   22.7307 C   0  0  0  0  0  0  0  0  0  0  0  0
   13.7209  -17.8233   22.6506 O   0  0  0  0  0  0  0  0  0  0  0  0
   14.6298  -17.0487   23.0237 C   0  0  0  0  0  0  0  0  0  0  0  0
   12.2934  -17.1622   20.2785 O   0  0  0  0  0  0  0  0  0  0  0  0
   13.5454  -17.0641   19.7008 O   0  0  0  0  0  0  0  0  0  0  0  0
   14.0747  -19.0671   22.1410 O   0  0  0  0  0  0  0  0  0  0  0  0
  2  1  1  0
  3  2  1  0
  4  3  1  0
  4  5  1  0
  5  6  1  1
  7  8  2  0
  7  5  1  0
  9 10  1  0
 10 11  2  0
 12 10  1  0
 12 13  1  0
 13 14  1  0
 15 14  1  0
 16 15  1  1
 16 17  1  0
 17  7  1  0
 18 20  1  0
 18 16  1  0
 19 18  2  0
 21 20  1  0
 21 25  1  0
 21 22  1  6
 23 22  1  0
 24 23  2  0
 25 26  1  0
 27 23  1  0
 28 25  2  0
M  END
$$$$
