MRD.pdb
     RDKit          3D

 28 27  0  0  1  0  0  0  0  0999 V2000
    9.1940  -12.7273   28.2433 C   0  0  0  0  0  0  0  0  0  0  0  0
    9.6251  -14.3292   28.9949 S   0  0  0  0  0  0  0  0  0  0  0  0
    8.5440  -15.6376   28.3743 C   0  0  0  0  0  0  0  0  0  0  0  0
    8.8160  -15.8069   26.8962 C   0  0  0  0  0  0  0  0  0  0  0  0
    7.8479  -16.8010   26.2832 C   0  0  2  0  0  0  0  0  0  0  0  0
    7.8823  -18.0570   26.9731 N   0  0  0  0  0  0  0  0  0  0  0  0
    8.0844  -16.8830   24.8322 C   0  0  0  0  0  0  0  0  0  0  0  0
    8.5808  -17.9168   24.3599 O   0  0  0  0  0  0  0  0  0  0  0  0
    8.6290  -15.3037   17.8998 N   0  0  0  0  0  0  0  0  0  0  0  0
    8.1438  -14.0296   17.4754 C   0  0  0  0  0  0  0  0  0  0  0  0
    8.0966  -13.7695   16.2170 N   0  0  0  0  0  0  0  0  0  0  0  0
    7.7074  -13.0372   18.3703 N   0  0  0  0  0  0  0  0  0  0  0  0
    7.3888  -13.2382   19.7650 C   0  0  0  0  0  0  0  0  0  0  0  0
    8.0649  -14.4090   20.3999 C   0  0  0  0  0  0  0  0  0  0  0  0
    7.6413  -14.5359   21.8341 C   0  0  0  0  0  0  0  0  0  0  0  0
    8.1896  -15.6795   22.5941 C   0  0  2  0  0  0  0  0  0  0  0  0
    7.7710  -15.8325   23.9528 N   0  0  0  0  0  0  0  0  0  0  0  0
    9.6927  -15.6581   22.4789 C   0  0  0  0  0  0  0  0  0  0  0  0
   10.4085  -15.1001   23.3469 O   0  0  0  0  0  0  0  0  0  0  0  0
    7.7315  -12.8698   15.8665 N   0  0  0  0  0  0  0  0  0  0  0  0
   10.3755  -16.2712   21.3776 C   0  0  1  0  0  0  0  0  0  0  0  0
   11.8188  -16.4319   21.3619 C   0  0  0  0  0  0  0  0  0  0  0  0
   12.1757  -17.2512   22.5910 C   0  0  0  0  0  0  0  0  0  0  0  0
   13.3509  -16.6557   23.2303 O   0  0  0  0  0  0  0  0  0  0  0  0
   13.9121  -15.6302   22.7847 C   0  0  0  0  0  0  0  0  0  0  0  0
   12.2132  -17.1234   20.1232 O   0  0  0  0  0  0  0  0  0  0  0  0
   13.4783  -17.0167   19.5763 O   0  0  0  0  0  0  0  0  0  0  0  0
   13.8650  -17.2503   24.3766 O   0  0  0  0  0  0  0  0  0  0  0  0
  2  1  1  0
  3  2  1  0
  4  3  1  0
  4  5  1  0
  5  6  1  1
  7  8  2  0
  7  5  1  0
  9 10  1  0
 10 11  2  0
 12 10  1  0
 12 13  1  0
 13 14  1  0
 15 14  1  0
 16 15  1  1
 16 17  1  0
 17  7  1  0
 18 20  1  0
 18 16  1  0
 19 18  2  0
 21 20  1  0
 21 25  1  0
 21 22  1  6
 23 22  1  0
 24 23  2  0
 25 26  1  0
 27 23  1  0
 28 25  2  0
M  END
$$$$
