EYC.pdb
     RDKit          3D

 28 28  0  0  1  0  0  0  0  0999 V2000
   20.7420  -12.9848  -16.8085 N   0  0  0  0  0  0  0  0  0  0  0  0
   20.3532  -11.7631  -17.4371 C   0  0  1  0  0  0  0  0  0  0  0  0
   18.9253  -11.6938  -17.8506 C   0  0  0  0  0  0  0  0  0  0  0  0
   18.5555  -12.7874  -18.8262 C   0  0  0  0  0  0  0  0  0  0  0  0
   17.0945  -12.6391  -19.1360 C   0  0  0  0  0  0  0  0  0  0  0  0
   16.1845  -13.1521  -18.4525 O   0  0  0  0  0  0  0  0  0  0  0  0
   20.6274  -10.6085  -16.5058 C   0  0  0  0  0  0  0  0  0  0  0  0
   20.4659  -10.7757  -15.2692 O   0  0  0  0  0  0  0  0  0  0  0  0
   16.7477  -11.8734  -20.2640 O   0  0  0  0  0  0  0  0  0  0  0  0
   27.1415  -11.2202  -15.7235 O   0  0  0  0  0  0  0  0  0  0  0  0
   26.0529  -10.3526  -15.8393 C   0  0  0  0  0  0  0  0  0  0  0  0
   25.4397   -9.8438  -14.7133 C   0  0  0  0  0  0  0  0  0  0  0  0
   24.3721   -8.9910  -14.8347 C   0  0  0  0  0  0  0  0  0  0  0  0
   23.8728   -8.6102  -16.0492 C   0  0  0  0  0  0  0  0  0  0  0  0
   22.7469   -7.7062  -16.2680 C   0  0  0  0  0  0  0  0  0  0  0  0
   21.3872   -8.2540  -16.0971 C   0  0  2  0  0  0  0  0  0  0  0  0
   21.0555   -9.3563  -16.9737 N   0  0  0  0  0  0  0  0  0  0  0  0
   20.4396   -7.1324  -16.4841 C   0  0  0  0  0  0  0  0  0  0  0  0
   20.0044   -7.0139  -17.6568 O   0  0  0  0  0  0  0  0  0  0  0  0
   24.4919   -9.1258  -17.1851 C   0  0  0  0  0  0  0  0  0  0  0  0
   25.5605   -9.9789  -17.0702 C   0  0  0  0  0  0  0  0  0  0  0  0
   20.0046   -6.1669  -15.5369 N   0  0  0  0  0  0  0  0  0  0  0  0
   19.0588   -5.1194  -15.8821 C   0  0  1  0  0  0  0  0  0  0  0  0
   17.6686   -5.6103  -16.1161 C   0  0  0  0  0  0  0  0  0  0  0  0
   16.5995   -4.1609  -16.3580 S   0  0  0  0  0  0  0  0  0  0  0  0
   19.0102   -4.1681  -14.7169 C   0  0  0  0  0  0  0  0  0  0  0  0
   19.0664   -4.6011  -13.5202 O   0  0  0  0  0  0  0  0  0  0  0  0
   18.9052   -2.7975  -14.8559 O   0  0  0  0  0  0  0  0  0  0  0  0
  2  1  1  1
  2  3  1  0
  2  7  1  0
  3  4  1  0
  5  6  2  0
  5  4  1  0
  7  8  2  0
  9  5  1  0
 11 12  2  0
 11 10  1  0
 13 12  1  0
 14 13  2  0
 15 14  1  0
 16 15  1  6
 17  7  1  0
 17 16  1  0
 18 22  1  0
 18 16  1  0
 19 18  2  0
 20 14  1  0
 20 21  2  0
 21 11  1  0
 23 22  1  0
 23 24  1  1
 24 25  1  0
 26 23  1  0
 26 28  1  0
 27 26  2  0
M  END
$$$$
