EYC.pdb
     RDKit          3D

 28 28  0  0  1  0  0  0  0  0999 V2000
   22.6009  -12.4607  -18.8153 N   0  0  0  0  0  0  0  0  0  0  0  0
   21.4860  -11.6973  -18.3540 C   0  0  1  0  0  0  0  0  0  0  0  0
   20.6055  -12.3946  -17.3777 C   0  0  0  0  0  0  0  0  0  0  0  0
   19.9684  -13.6347  -17.9615 C   0  0  0  0  0  0  0  0  0  0  0  0
   19.1343  -14.2624  -16.8832 C   0  0  0  0  0  0  0  0  0  0  0  0
   19.0744  -15.4927  -16.6796 O   0  0  0  0  0  0  0  0  0  0  0  0
   21.9787  -10.4236  -17.7133 C   0  0  0  0  0  0  0  0  0  0  0  0
   23.1301  -10.4062  -17.2061 O   0  0  0  0  0  0  0  0  0  0  0  0
   18.3840  -13.4005  -16.0627 O   0  0  0  0  0  0  0  0  0  0  0  0
   22.5249   -1.7362  -15.7481 O   0  0  0  0  0  0  0  0  0  0  0  0
   22.3635   -3.0128  -16.2917 C   0  0  0  0  0  0  0  0  0  0  0  0
   23.3813   -3.9407  -16.2150 C   0  0  0  0  0  0  0  0  0  0  0  0
   23.2151   -5.1930  -16.7498 C   0  0  0  0  0  0  0  0  0  0  0  0
   22.0594   -5.5769  -17.3714 C   0  0  0  0  0  0  0  0  0  0  0  0
   21.7978   -6.8869  -17.9615 C   0  0  0  0  0  0  0  0  0  0  0  0
   21.6395   -8.0311  -17.0429 C   0  0  2  0  0  0  0  0  0  0  0  0
   21.1954   -9.2598  -17.6647 N   0  0  0  0  0  0  0  0  0  0  0  0
   20.5282   -7.6397  -16.0851 C   0  0  0  0  0  0  0  0  0  0  0  0
   19.3254   -7.6156  -16.4475 O   0  0  0  0  0  0  0  0  0  0  0  0
   21.0333   -4.6387  -17.4493 C   0  0  0  0  0  0  0  0  0  0  0  0
   21.1934   -3.3845  -16.9160 C   0  0  0  0  0  0  0  0  0  0  0  0
   20.8003   -7.2824  -14.7372 N   0  0  0  0  0  0  0  0  0  0  0  0
   19.7432   -6.9356  -13.8027 C   0  0  1  0  0  0  0  0  0  0  0  0
   20.0166   -7.3525  -12.3956 C   0  0  0  0  0  0  0  0  0  0  0  0
   20.0681   -9.1685  -12.3529 S   0  0  0  0  0  0  0  0  0  0  0  0
   19.6212   -5.4355  -13.8123 C   0  0  0  0  0  0  0  0  0  0  0  0
   20.4783   -4.7165  -14.4215 O   0  0  0  0  0  0  0  0  0  0  0  0
   18.6013   -4.7500  -13.1809 O   0  0  0  0  0  0  0  0  0  0  0  0
  2  1  1  1
  2  3  1  0
  2  7  1  0
  3  4  1  0
  5  6  2  0
  5  4  1  0
  7  8  2  0
  9  5  1  0
 11 12  2  0
 11 10  1  0
 13 12  1  0
 14 13  2  0
 15 14  1  0
 16 15  1  6
 17  7  1  0
 17 16  1  0
 18 22  1  0
 18 16  1  0
 19 18  2  0
 20 14  1  0
 20 21  2  0
 21 11  1  0
 23 22  1  0
 23 24  1  1
 24 25  1  0
 26 23  1  0
 26 28  1  0
 27 26  2  0
M  END
$$$$
