EYC.pdb
     RDKit          3D

 28 28  0  0  1  0  0  0  0  0999 V2000
   28.1222  -21.7010  -17.1280 N   0  0  0  0  0  0  0  0  0  0  0  0
   27.9540  -20.6219  -16.2083 C   0  0  1  0  0  0  0  0  0  0  0  0
   27.3943  -19.3744  -16.7959 C   0  0  0  0  0  0  0  0  0  0  0  0
   28.3256  -18.7474  -17.8079 C   0  0  0  0  0  0  0  0  0  0  0  0
   27.7883  -19.0666  -19.1724 C   0  0  0  0  0  0  0  0  0  0  0  0
   28.4108  -19.7329  -20.0251 O   0  0  0  0  0  0  0  0  0  0  0  0
   27.0483  -21.0563  -15.0828 C   0  0  0  0  0  0  0  0  0  0  0  0
   26.1163  -21.8641  -15.3322 O   0  0  0  0  0  0  0  0  0  0  0  0
   26.5075  -18.5807  -19.4924 O   0  0  0  0  0  0  0  0  0  0  0  0
   23.4212  -21.2318   -6.8428 O   0  0  0  0  0  0  0  0  0  0  0  0
   24.2350  -21.0626   -7.9655 C   0  0  0  0  0  0  0  0  0  0  0  0
   23.8993  -21.6478   -9.1687 C   0  0  0  0  0  0  0  0  0  0  0  0
   24.7025  -21.4759  -10.2674 C   0  0  0  0  0  0  0  0  0  0  0  0
   25.8497  -20.7332  -10.2275 C   0  0  0  0  0  0  0  0  0  0  0  0
   26.7566  -20.4958  -11.3473 C   0  0  0  0  0  0  0  0  0  0  0  0
   26.3273  -20.9528  -12.6833 C   0  0  2  0  0  0  0  0  0  0  0  0
   27.2115  -20.5890  -13.7693 N   0  0  0  0  0  0  0  0  0  0  0  0
   25.0226  -20.2295  -12.9666 C   0  0  0  0  0  0  0  0  0  0  0  0
   24.9582  -18.9750  -12.9939 O   0  0  0  0  0  0  0  0  0  0  0  0
   26.1880  -20.1441   -9.0118 C   0  0  0  0  0  0  0  0  0  0  0  0
   25.3885  -20.3120   -7.9093 C   0  0  0  0  0  0  0  0  0  0  0  0
   23.8170  -20.9400  -13.2120 N   0  0  0  0  0  0  0  0  0  0  0  0
   22.5452  -20.2616  -13.3938 C   0  0  1  0  0  0  0  0  0  0  0  0
   21.9692  -20.4093  -14.7631 C   0  0  0  0  0  0  0  0  0  0  0  0
   23.2785  -20.0227  -15.9626 S   0  0  0  0  0  0  0  0  0  0  0  0
   21.5726  -20.8818  -12.4270 C   0  0  0  0  0  0  0  0  0  0  0  0
   21.8757  -21.9416  -11.7885 O   0  0  0  0  0  0  0  0  0  0  0  0
   20.3188  -20.3622  -12.1688 O   0  0  0  0  0  0  0  0  0  0  0  0
  2  1  1  6
  2  3  1  0
  2  7  1  0
  3  4  1  0
  5  6  2  0
  5  4  1  0
  7  8  2  0
  9  5  1  0
 11 12  2  0
 11 10  1  0
 13 12  1  0
 14 13  2  0
 15 14  1  0
 16 15  1  1
 17  7  1  0
 17 16  1  0
 18 22  1  0
 18 16  1  0
 19 18  2  0
 20 14  1  0
 20 21  2  0
 21 11  1  0
 23 22  1  0
 23 24  1  6
 24 25  1  0
 26 23  1  0
 26 28  1  0
 27 26  2  0
M  END
$$$$
