EYC.pdb
     RDKit          3D

 28 28  0  0  1  0  0  0  0  0999 V2000
   28.1021  -23.2009  -17.2384 N   0  0  0  0  0  0  0  0  0  0  0  0
   27.4414  -21.9646  -16.9672 C   0  0  1  0  0  0  0  0  0  0  0  0
   26.6434  -21.4155  -18.0970 C   0  0  0  0  0  0  0  0  0  0  0  0
   27.5113  -20.9756  -19.2536 C   0  0  0  0  0  0  0  0  0  0  0  0
   28.1866  -19.6978  -18.8491 C   0  0  0  0  0  0  0  0  0  0  0  0
   27.5741  -18.6830  -18.4570 O   0  0  0  0  0  0  0  0  0  0  0  0
   26.5216  -22.1345  -15.7837 C   0  0  0  0  0  0  0  0  0  0  0  0
   25.8907  -23.2158  -15.6566 O   0  0  0  0  0  0  0  0  0  0  0  0
   29.5910  -19.6586  -18.9203 O   0  0  0  0  0  0  0  0  0  0  0  0
   22.9234  -20.8644   -7.7116 O   0  0  0  0  0  0  0  0  0  0  0  0
   23.6378  -20.7451   -8.9060 C   0  0  0  0  0  0  0  0  0  0  0  0
   23.0727  -20.1258  -10.0015 C   0  0  0  0  0  0  0  0  0  0  0  0
   23.7809  -20.0110  -11.1707 C   0  0  0  0  0  0  0  0  0  0  0  0
   25.0531  -20.4927  -11.3073 C   0  0  0  0  0  0  0  0  0  0  0  0
   25.8771  -20.4087  -12.5101 C   0  0  0  0  0  0  0  0  0  0  0  0
   25.5305  -21.2936  -13.6392 C   0  0  2  0  0  0  0  0  0  0  0  0
   26.3472  -21.1272  -14.8219 N   0  0  0  0  0  0  0  0  0  0  0  0
   24.1270  -20.8947  -14.0594 C   0  0  0  0  0  0  0  0  0  0  0  0
   23.8867  -19.7711  -14.5678 O   0  0  0  0  0  0  0  0  0  0  0  0
   25.6218  -21.1188  -10.2010 C   0  0  0  0  0  0  0  0  0  0  0  0
   24.9187  -21.2365   -9.0285 C   0  0  0  0  0  0  0  0  0  0  0  0
   23.0236  -21.7745  -13.8948 N   0  0  0  0  0  0  0  0  0  0  0  0
   21.6957  -21.4463  -14.3845 C   0  0  1  0  0  0  0  0  0  0  0  0
   21.1381  -22.4464  -15.3423 C   0  0  0  0  0  0  0  0  0  0  0  0
   22.4508  -22.8799  -16.5218 S   0  0  0  0  0  0  0  0  0  0  0  0
   20.7818  -21.4095  -13.1892 C   0  0  0  0  0  0  0  0  0  0  0  0
   21.1371  -21.9294  -12.0819 O   0  0  0  0  0  0  0  0  0  0  0  0
   19.5295  -20.8262  -13.2052 O   0  0  0  0  0  0  0  0  0  0  0  0
  2  1  1  6
  2  3  1  0
  2  7  1  0
  3  4  1  0
  5  6  2  0
  5  4  1  0
  7  8  2  0
  9  5  1  0
 11 12  2  0
 11 10  1  0
 13 12  1  0
 14 13  2  0
 15 14  1  0
 16 15  1  1
 17  7  1  0
 17 16  1  0
 18 22  1  0
 18 16  1  0
 19 18  2  0
 20 14  1  0
 20 21  2  0
 21 11  1  0
 23 22  1  0
 23 24  1  6
 24 25  1  0
 26 23  1  0
 26 28  1  0
 27 26  2  0
M  END
$$$$
