EYC.pdb
     RDKit          3D

 28 28  0  0  1  0  0  0  0  0999 V2000
   17.0721  -10.5631  -18.7638 N   0  0  0  0  0  0  0  0  0  0  0  0
   16.5178   -9.7107  -17.7615 C   0  0  1  0  0  0  0  0  0  0  0  0
   16.2002  -10.3797  -16.4706 C   0  0  0  0  0  0  0  0  0  0  0  0
   17.3087  -11.2988  -16.0113 C   0  0  0  0  0  0  0  0  0  0  0  0
   16.9181  -11.8380  -14.6662 C   0  0  0  0  0  0  0  0  0  0  0  0
   17.6390  -12.5980  -13.9870 O   0  0  0  0  0  0  0  0  0  0  0  0
   17.4734   -8.5782  -17.4790 C   0  0  0  0  0  0  0  0  0  0  0  0
   18.6390   -8.6371  -17.9493 O   0  0  0  0  0  0  0  0  0  0  0  0
   15.6649  -11.4540  -14.1553 O   0  0  0  0  0  0  0  0  0  0  0  0
   14.3506   -2.6161  -20.5484 O   0  0  0  0  0  0  0  0  0  0  0  0
   15.0409   -3.2258  -19.4981 C   0  0  0  0  0  0  0  0  0  0  0  0
   14.5818   -4.4050  -18.9491 C   0  0  0  0  0  0  0  0  0  0  0  0
   15.2658   -4.9988  -17.9189 C   0  0  0  0  0  0  0  0  0  0  0  0
   16.4108   -4.4653  -17.3958 C   0  0  0  0  0  0  0  0  0  0  0  0
   17.2010   -5.0324  -16.3065 C   0  0  0  0  0  0  0  0  0  0  0  0
   17.9337   -6.2853  -16.5740 C   0  0  2  0  0  0  0  0  0  0  0  0
   17.1048   -7.4635  -16.7098 N   0  0  0  0  0  0  0  0  0  0  0  0
   18.7881   -6.5336  -15.3436 C   0  0  0  0  0  0  0  0  0  0  0  0
   18.4245   -7.3259  -14.4389 O   0  0  0  0  0  0  0  0  0  0  0  0
   16.8724   -3.2741  -17.9501 C   0  0  0  0  0  0  0  0  0  0  0  0
   16.1928   -2.6754  -18.9810 C   0  0  0  0  0  0  0  0  0  0  0  0
   20.0361   -5.8795  -15.1610 N   0  0  0  0  0  0  0  0  0  0  0  0
   20.8835   -6.1420  -14.0105 C   0  0  1  0  0  0  0  0  0  0  0  0
   21.5920   -7.4548  -14.0658 C   0  0  0  0  0  0  0  0  0  0  0  0
   22.6011   -7.6068  -12.5621 S   0  0  0  0  0  0  0  0  0  0  0  0
   21.9339   -5.0644  -13.9817 C   0  0  0  0  0  0  0  0  0  0  0  0
   22.2829   -4.4668  -15.0512 O   0  0  0  0  0  0  0  0  0  0  0  0
   22.5759   -4.6567  -12.8283 O   0  0  0  0  0  0  0  0  0  0  0  0
  2  1  1  6
  2  3  1  0
  2  7  1  0
  3  4  1  0
  5  6  2  0
  5  4  1  0
  7  8  2  0
  9  5  1  0
 11 12  2  0
 11 10  1  0
 13 12  1  0
 14 13  2  0
 15 14  1  0
 16 15  1  1
 17  7  1  0
 17 16  1  0
 18 22  1  0
 18 16  1  0
 19 18  2  0
 20 14  1  0
 20 21  2  0
 21 11  1  0
 23 22  1  0
 23 24  1  6
 24 25  1  0
 26 23  1  0
 26 28  1  0
 27 26  2  0
M  END
$$$$
