EYC.pdb
     RDKit          3D

 28 28  0  0  1  0  0  0  0  0999 V2000
   28.8792  -23.5581  -17.6531 N   0  0  0  0  0  0  0  0  0  0  0  0
   28.3811  -22.2653  -17.3076 C   0  0  1  0  0  0  0  0  0  0  0  0
   27.6883  -21.5421  -18.4084 C   0  0  0  0  0  0  0  0  0  0  0  0
   27.0946  -22.4838  -19.4308 C   0  0  0  0  0  0  0  0  0  0  0  0
   25.7004  -22.0108  -19.7222 C   0  0  0  0  0  0  0  0  0  0  0  0
   25.1727  -21.0233  -19.1698 O   0  0  0  0  0  0  0  0  0  0  0  0
   27.4204  -22.3886  -16.1511 C   0  0  0  0  0  0  0  0  0  0  0  0
   26.9687  -23.5255  -15.8570 O   0  0  0  0  0  0  0  0  0  0  0  0
   24.9597  -22.7318  -20.6765 O   0  0  0  0  0  0  0  0  0  0  0  0
   23.6992  -20.5688   -8.2797 O   0  0  0  0  0  0  0  0  0  0  0  0
   24.3876  -20.5019   -9.4934 C   0  0  0  0  0  0  0  0  0  0  0  0
   25.6328  -21.0806   -9.6253 C   0  0  0  0  0  0  0  0  0  0  0  0
   26.3023  -21.0123  -10.8207 C   0  0  0  0  0  0  0  0  0  0  0  0
   25.7821  -20.3823  -11.9170 C   0  0  0  0  0  0  0  0  0  0  0  0
   26.4229  -20.2676  -13.2243 C   0  0  0  0  0  0  0  0  0  0  0  0
   26.2545  -21.3891  -14.1687 C   0  0  2  0  0  0  0  0  0  0  0  0
   27.0151  -21.2779  -15.3946 N   0  0  0  0  0  0  0  0  0  0  0  0
   24.7974  -21.3542  -14.5941 C   0  0  0  0  0  0  0  0  0  0  0  0
   24.3844  -20.5449  -15.4619 O   0  0  0  0  0  0  0  0  0  0  0  0
   24.5255  -19.7973  -11.7819 C   0  0  0  0  0  0  0  0  0  0  0  0
   23.8507  -19.8626  -10.5889 C   0  0  0  0  0  0  0  0  0  0  0  0
   23.8366  -22.2348  -14.0282 N   0  0  0  0  0  0  0  0  0  0  0  0
   22.4558  -22.2625  -14.4791 C   0  0  1  0  0  0  0  0  0  0  0  0
   21.6965  -23.4684  -14.0341 C   0  0  0  0  0  0  0  0  0  0  0  0
   19.9926  -23.3107  -14.6459 S   0  0  0  0  0  0  0  0  0  0  0  0
   21.7746  -21.0579  -13.8875 C   0  0  0  0  0  0  0  0  0  0  0  0
   21.8426  -20.8199  -12.6379 O   0  0  0  0  0  0  0  0  0  0  0  0
   21.0488  -20.1497  -14.6338 O   0  0  0  0  0  0  0  0  0  0  0  0
  2  1  1  6
  2  3  1  0
  2  7  1  0
  3  4  1  0
  5  6  2  0
  5  4  1  0
  7  8  2  0
  9  5  1  0
 11 12  2  0
 11 10  1  0
 13 12  1  0
 14 13  2  0
 15 14  1  0
 16 15  1  1
 17  7  1  0
 17 16  1  0
 18 22  1  0
 18 16  1  0
 19 18  2  0
 20 14  1  0
 20 21  2  0
 21 11  1  0
 23 22  1  0
 23 24  1  1
 24 25  1  0
 26 23  1  0
 26 28  1  0
 27 26  2  0
M  END
$$$$
