EYC.pdb
     RDKit          3D

 28 28  0  0  1  0  0  0  0  0999 V2000
   28.2533  -21.5922  -16.1681 N   0  0  0  0  0  0  0  0  0  0  0  0
   27.6168  -20.5071  -15.4928 C   0  0  1  0  0  0  0  0  0  0  0  0
   26.9142  -19.5391  -16.3783 C   0  0  0  0  0  0  0  0  0  0  0  0
   26.8876  -19.9930  -17.8198 C   0  0  0  0  0  0  0  0  0  0  0  0
   25.9702  -19.0686  -18.5658 C   0  0  0  0  0  0  0  0  0  0  0  0
   24.7643  -19.3108  -18.7795 O   0  0  0  0  0  0  0  0  0  0  0  0
   26.6153  -21.0482  -14.5030 C   0  0  0  0  0  0  0  0  0  0  0  0
   26.2394  -22.2439  -14.6133 O   0  0  0  0  0  0  0  0  0  0  0  0
   26.5163  -17.8634  -19.0437 O   0  0  0  0  0  0  0  0  0  0  0  0
   29.8562  -21.0754   -7.7685 O   0  0  0  0  0  0  0  0  0  0  0  0
   28.7661  -20.8331   -8.6077 C   0  0  0  0  0  0  0  0  0  0  0  0
   28.9306  -20.7961   -9.9768 C   0  0  0  0  0  0  0  0  0  0  0  0
   27.8552  -20.5591  -10.7948 C   0  0  0  0  0  0  0  0  0  0  0  0
   26.5948  -20.3526  -10.3069 C   0  0  0  0  0  0  0  0  0  0  0  0
   25.3977  -20.0994  -11.1041 C   0  0  0  0  0  0  0  0  0  0  0  0
   25.2766  -20.8007  -12.3971 C   0  0  2  0  0  0  0  0  0  0  0  0
   26.0903  -20.2620  -13.4655 N   0  0  0  0  0  0  0  0  0  0  0  0
   23.8396  -20.5969  -12.8432 C   0  0  0  0  0  0  0  0  0  0  0  0
   23.4184  -19.4722  -13.2122 O   0  0  0  0  0  0  0  0  0  0  0  0
   26.4305  -20.3889   -8.9245 C   0  0  0  0  0  0  0  0  0  0  0  0
   27.5022  -20.6258   -8.1010 C   0  0  0  0  0  0  0  0  0  0  0  0
   22.9080  -21.6694  -12.8618 N   0  0  0  0  0  0  0  0  0  0  0  0
   21.5361  -21.4919  -13.3061 C   0  0  1  0  0  0  0  0  0  0  0  0
   20.7959  -22.7713  -13.5153 C   0  0  0  0  0  0  0  0  0  0  0  0
   19.0995  -22.3574  -14.0185 S   0  0  0  0  0  0  0  0  0  0  0  0
   20.8184  -20.7279  -12.2263 C   0  0  0  0  0  0  0  0  0  0  0  0
   21.0399  -20.9756  -10.9965 O   0  0  0  0  0  0  0  0  0  0  0  0
   19.8958  -19.7319  -12.4821 O   0  0  0  0  0  0  0  0  0  0  0  0
  2  1  1  6
  2  3  1  0
  2  7  1  0
  3  4  1  0
  5  6  2  0
  5  4  1  0
  7  8  2  0
  9  5  1  0
 11 12  2  0
 11 10  1  0
 13 12  1  0
 14 13  2  0
 15 14  1  0
 16 15  1  1
 17  7  1  0
 17 16  1  0
 18 22  1  0
 18 16  1  0
 19 18  2  0
 20 14  1  0
 20 21  2  0
 21 11  1  0
 23 22  1  0
 23 24  1  1
 24 25  1  0
 26 23  1  0
 26 28  1  0
 27 26  2  0
M  END
$$$$
