EYC.pdb
     RDKit          3D

 28 28  0  0  1  0  0  0  0  0999 V2000
   13.9025  -10.8242  -12.1923 N   0  0  0  0  0  0  0  0  0  0  0  0
   15.3190  -10.7139  -12.3337 C   0  0  1  0  0  0  0  0  0  0  0  0
   15.8467  -11.0623  -13.6809 C   0  0  0  0  0  0  0  0  0  0  0  0
   15.6089  -12.5126  -14.0342 C   0  0  0  0  0  0  0  0  0  0  0  0
   16.2118  -12.7508  -15.3879 C   0  0  0  0  0  0  0  0  0  0  0  0
   15.5571  -12.7405  -16.4508 O   0  0  0  0  0  0  0  0  0  0  0  0
   15.7486   -9.3039  -12.0131 C   0  0  0  0  0  0  0  0  0  0  0  0
   14.9551   -8.3583  -12.2570 O   0  0  0  0  0  0  0  0  0  0  0  0
   17.5957  -12.9966  -15.4446 O   0  0  0  0  0  0  0  0  0  0  0  0
   12.5079   -6.2054   -7.2187 O   0  0  0  0  0  0  0  0  0  0  0  0
   13.7280   -6.4996   -7.8320 C   0  0  0  0  0  0  0  0  0  0  0  0
   14.1162   -7.8088   -8.0271 C   0  0  0  0  0  0  0  0  0  0  0  0
   15.3151   -8.0902   -8.6316 C   0  0  0  0  0  0  0  0  0  0  0  0
   16.1666   -7.1108   -9.0618 C   0  0  0  0  0  0  0  0  0  0  0  0
   17.4547   -7.3216   -9.7168 C   0  0  0  0  0  0  0  0  0  0  0  0
   17.4434   -7.6691  -11.1511 C   0  0  2  0  0  0  0  0  0  0  0  0
   17.0024   -9.0137  -11.4529 N   0  0  0  0  0  0  0  0  0  0  0  0
   18.8925   -7.6099  -11.6007 C   0  0  0  0  0  0  0  0  0  0  0  0
   19.7626   -8.3780  -11.1196 O   0  0  0  0  0  0  0  0  0  0  0  0
   15.7739   -5.7896   -8.8629 C   0  0  0  0  0  0  0  0  0  0  0  0
   14.5758   -5.5017   -8.2592 C   0  0  0  0  0  0  0  0  0  0  0  0
   19.3281   -6.6821  -12.5846 N   0  0  0  0  0  0  0  0  0  0  0  0
   20.7096   -6.6224  -13.0305 C   0  0  1  0  0  0  0  0  0  0  0  0
   20.8879   -6.8828  -14.4896 C   0  0  0  0  0  0  0  0  0  0  0  0
   20.1572   -8.5052  -14.8591 S   0  0  0  0  0  0  0  0  0  0  0  0
   21.2004   -5.2258  -12.7592 C   0  0  0  0  0  0  0  0  0  0  0  0
   20.3876   -4.3037  -12.4246 O   0  0  0  0  0  0  0  0  0  0  0  0
   22.5278   -4.8535  -12.8496 O   0  0  0  0  0  0  0  0  0  0  0  0
  2  1  1  6
  2  3  1  0
  2  7  1  0
  3  4  1  0
  5  6  2  0
  5  4  1  0
  7  8  2  0
  9  5  1  0
 11 12  2  0
 11 10  1  0
 13 12  1  0
 14 13  2  0
 15 14  1  0
 16 15  1  1
 17  7  1  0
 17 16  1  0
 18 22  1  0
 18 16  1  0
 19 18  2  0
 20 14  1  0
 20 21  2  0
 21 11  1  0
 23 22  1  0
 23 24  1  6
 24 25  1  0
 26 23  1  0
 26 28  1  0
 27 26  2  0
M  END
$$$$
