EYC.pdb
     RDKit          3D

 28 28  0  0  1  0  0  0  0  0999 V2000
   16.6346  -10.9679  -19.0351 N   0  0  0  0  0  0  0  0  0  0  0  0
   17.2079  -10.7613  -17.7439 C   0  0  1  0  0  0  0  0  0  0  0  0
   17.9478  -11.9273  -17.1891 C   0  0  0  0  0  0  0  0  0  0  0  0
   17.0278  -13.0661  -16.8130 C   0  0  0  0  0  0  0  0  0  0  0  0
   16.5849  -12.8381  -15.3972 C   0  0  0  0  0  0  0  0  0  0  0  0
   16.8662  -11.8159  -14.7380 O   0  0  0  0  0  0  0  0  0  0  0  0
   18.1544   -9.5878  -17.7953 C   0  0  0  0  0  0  0  0  0  0  0  0
   18.8816   -9.4397  -18.8114 O   0  0  0  0  0  0  0  0  0  0  0  0
   15.8075  -13.8433  -14.7937 O   0  0  0  0  0  0  0  0  0  0  0  0
   16.3964   -4.2971  -21.6868 O   0  0  0  0  0  0  0  0  0  0  0  0
   16.8890   -4.7750  -20.4702 C   0  0  0  0  0  0  0  0  0  0  0  0
   16.1211   -5.6063  -19.6815 C   0  0  0  0  0  0  0  0  0  0  0  0
   16.6121   -6.0730  -18.4886 C   0  0  0  0  0  0  0  0  0  0  0  0
   17.8583   -5.7462  -18.0309 C   0  0  0  0  0  0  0  0  0  0  0  0
   18.4586   -6.2010  -16.7797 C   0  0  0  0  0  0  0  0  0  0  0  0
   19.1339   -7.5133  -16.7830 C   0  0  2  0  0  0  0  0  0  0  0  0
   18.2498   -8.6581  -16.7481 N   0  0  0  0  0  0  0  0  0  0  0  0
   19.9227   -7.5738  -15.4869 C   0  0  0  0  0  0  0  0  0  0  0  0
   19.3525   -7.7070  -14.3752 O   0  0  0  0  0  0  0  0  0  0  0  0
   18.6318   -4.9057  -18.8275 C   0  0  0  0  0  0  0  0  0  0  0  0
   18.1465   -4.4359  -20.0219 C   0  0  0  0  0  0  0  0  0  0  0  0
   21.3404   -7.4812  -15.4746 N   0  0  0  0  0  0  0  0  0  0  0  0
   22.1111   -7.6088  -14.2496 C   0  0  1  0  0  0  0  0  0  0  0  0
   23.2917   -8.5148  -14.3673 C   0  0  0  0  0  0  0  0  0  0  0  0
   24.1442   -8.5300  -12.7625 S   0  0  0  0  0  0  0  0  0  0  0  0
   22.6284   -6.2370  -13.9096 C   0  0  0  0  0  0  0  0  0  0  0  0
   23.0186   -5.4427  -14.8260 O   0  0  0  0  0  0  0  0  0  0  0  0
   22.7145   -5.7535  -12.6182 O   0  0  0  0  0  0  0  0  0  0  0  0
  2  1  1  6
  2  3  1  0
  2  7  1  0
  3  4  1  0
  5  6  2  0
  5  4  1  0
  7  8  2  0
  9  5  1  0
 11 12  2  0
 11 10  1  0
 13 12  1  0
 14 13  2  0
 15 14  1  0
 16 15  1  1
 17  7  1  0
 17 16  1  0
 18 22  1  0
 18 16  1  0
 19 18  2  0
 20 14  1  0
 20 21  2  0
 21 11  1  0
 23 22  1  0
 23 24  1  6
 24 25  1  0
 26 23  1  0
 26 28  1  0
 27 26  2  0
M  END
$$$$
