EYC.pdb
     RDKit          3D

 28 28  0  0  1  0  0  0  0  0999 V2000
   25.6576  -21.7275  -16.8562 N   0  0  0  0  0  0  0  0  0  0  0  0
   26.3026  -22.0438  -15.6222 C   0  0  1  0  0  0  0  0  0  0  0  0
   27.7892  -21.9825  -15.6544 C   0  0  0  0  0  0  0  0  0  0  0  0
   28.3357  -22.0154  -17.0633 C   0  0  0  0  0  0  0  0  0  0  0  0
   28.7228  -23.4342  -17.3629 C   0  0  0  0  0  0  0  0  0  0  0  0
   28.1369  -24.1515  -18.2000 O   0  0  0  0  0  0  0  0  0  0  0  0
   25.8187  -21.1041  -14.5460 C   0  0  0  0  0  0  0  0  0  0  0  0
   25.7998  -19.8686  -14.7837 O   0  0  0  0  0  0  0  0  0  0  0  0
   29.8116  -23.9707  -16.6518 O   0  0  0  0  0  0  0  0  0  0  0  0
   19.7109  -19.1555  -15.8879 O   0  0  0  0  0  0  0  0  0  0  0  0
   20.6355  -19.5534  -14.9194 C   0  0  0  0  0  0  0  0  0  0  0  0
   21.3166  -18.6141  -14.1733 C   0  0  0  0  0  0  0  0  0  0  0  0
   22.2220  -19.0123  -13.2228 C   0  0  0  0  0  0  0  0  0  0  0  0
   22.4896  -20.3294  -12.9718 C   0  0  0  0  0  0  0  0  0  0  0  0
   23.4313  -20.8388  -11.9786 C   0  0  0  0  0  0  0  0  0  0  0  0
   24.8718  -20.6874  -12.2617 C   0  0  2  0  0  0  0  0  0  0  0  0
   25.3899  -21.5629  -13.2906 N   0  0  0  0  0  0  0  0  0  0  0  0
   25.5874  -21.0967  -10.9866 C   0  0  0  0  0  0  0  0  0  0  0  0
   25.7629  -22.3048  -10.6893 O   0  0  0  0  0  0  0  0  0  0  0  0
   21.8023  -21.2765  -13.7268 C   0  0  0  0  0  0  0  0  0  0  0  0
   20.8951  -20.8845  -14.6788 C   0  0  0  0  0  0  0  0  0  0  0  0
   26.0890  -20.1311  -10.0731 N   0  0  0  0  0  0  0  0  0  0  0  0
   26.4232  -20.4687   -8.7000 C   0  0  1  0  0  0  0  0  0  0  0  0
   27.0972  -19.3671   -7.9513 C   0  0  0  0  0  0  0  0  0  0  0  0
   27.4041  -19.9510   -6.2580 S   0  0  0  0  0  0  0  0  0  0  0  0
   25.1291  -20.7681   -7.9923 C   0  0  0  0  0  0  0  0  0  0  0  0
   24.0452  -20.2029   -8.3507 O   0  0  0  0  0  0  0  0  0  0  0  0
   25.0254  -21.6515   -6.9351 O   0  0  0  0  0  0  0  0  0  0  0  0
  2  1  1  6
  2  3  1  0
  2  7  1  0
  3  4  1  0
  5  6  2  0
  5  4  1  0
  7  8  2  0
  9  5  1  0
 11 12  2  0
 11 10  1  0
 13 12  1  0
 14 13  2  0
 15 14  1  0
 16 15  1  1
 17  7  1  0
 17 16  1  0
 18 22  1  0
 18 16  1  0
 19 18  2  0
 20 14  1  0
 20 21  2  0
 21 11  1  0
 23 22  1  0
 23 24  1  1
 24 25  1  0
 26 23  1  0
 26 28  1  0
 27 26  2  0
M  END
$$$$
