EYC.pdb
     RDKit          3D

 28 28  0  0  1  0  0  0  0  0999 V2000
   24.1176   -8.0900  -19.7660 N   0  0  0  0  0  0  0  0  0  0  0  0
   22.7694   -7.7137  -19.4847 C   0  0  1  0  0  0  0  0  0  0  0  0
   21.7317   -8.6208  -20.0463 C   0  0  0  0  0  0  0  0  0  0  0  0
   21.5846   -8.4691  -21.5429 C   0  0  0  0  0  0  0  0  0  0  0  0
   20.4673   -9.3714  -21.9791 C   0  0  0  0  0  0  0  0  0  0  0  0
   20.6374  -10.4177  -22.6385 O   0  0  0  0  0  0  0  0  0  0  0  0
   22.5683   -7.6405  -17.9914 C   0  0  0  0  0  0  0  0  0  0  0  0
   23.2388   -8.4061  -17.2514 O   0  0  0  0  0  0  0  0  0  0  0  0
   19.1596   -9.0032  -21.6141 O   0  0  0  0  0  0  0  0  0  0  0  0
   26.4172   -2.6513  -17.4310 O   0  0  0  0  0  0  0  0  0  0  0  0
   25.2640   -3.2786  -16.9537 C   0  0  0  0  0  0  0  0  0  0  0  0
   24.0272   -2.9624  -17.4763 C   0  0  0  0  0  0  0  0  0  0  0  0
   22.8991   -3.5836  -17.0037 C   0  0  0  0  0  0  0  0  0  0  0  0
   22.9416   -4.5261  -16.0141 C   0  0  0  0  0  0  0  0  0  0  0  0
   21.7939   -5.2374  -15.4578 C   0  0  0  0  0  0  0  0  0  0  0  0
   21.5153   -6.5928  -15.9712 C   0  0  2  0  0  0  0  0  0  0  0  0
   21.6591   -6.7479  -17.4026 N   0  0  0  0  0  0  0  0  0  0  0  0
   20.0464   -6.8482  -15.6839 C   0  0  0  0  0  0  0  0  0  0  0  0
   19.1421   -6.4038  -16.4346 O   0  0  0  0  0  0  0  0  0  0  0  0
   24.1908   -4.8433  -15.4865 C   0  0  0  0  0  0  0  0  0  0  0  0
   25.3228   -4.2256  -15.9553 C   0  0  0  0  0  0  0  0  0  0  0  0
   19.6301   -7.6001  -14.5526 N   0  0  0  0  0  0  0  0  0  0  0  0
   18.2295   -7.8761  -14.2827 C   0  0  1  0  0  0  0  0  0  0  0  0
   18.0067   -8.9784  -13.3010 C   0  0  0  0  0  0  0  0  0  0  0  0
   19.0213   -8.6312  -11.8339 S   0  0  0  0  0  0  0  0  0  0  0  0
   17.6387   -6.6231  -13.6944 C   0  0  0  0  0  0  0  0  0  0  0  0
   16.3782   -6.4994  -13.5583 O   0  0  0  0  0  0  0  0  0  0  0  0
   18.3973   -5.5488  -13.2713 O   0  0  0  0  0  0  0  0  0  0  0  0
  2  1  1  1
  2  3  1  0
  2  7  1  0
  3  4  1  0
  5  6  2  0
  5  4  1  0
  7  8  2  0
  9  5  1  0
 11 12  2  0
 11 10  1  0
 13 12  1  0
 14 13  2  0
 15 14  1  0
 16 15  1  6
 17  7  1  0
 17 16  1  0
 18 22  1  0
 18 16  1  0
 19 18  2  0
 20 14  1  0
 20 21  2  0
 21 11  1  0
 23 22  1  0
 23 24  1  1
 24 25  1  0
 26 23  1  0
 26 28  1  0
 27 26  2  0
M  END
$$$$
