EYC.pdb
     RDKit          3D

 28 28  0  0  1  0  0  0  0  0999 V2000
   20.5334  -11.7363  -17.7897 N   0  0  0  0  0  0  0  0  0  0  0  0
   20.7957  -10.3421  -17.9508 C   0  0  1  0  0  0  0  0  0  0  0  0
   20.2161   -9.7294  -19.1769 C   0  0  0  0  0  0  0  0  0  0  0  0
   20.8203  -10.2937  -20.4423 C   0  0  0  0  0  0  0  0  0  0  0  0
   20.3089   -9.4729  -21.5901 C   0  0  0  0  0  0  0  0  0  0  0  0
   19.4621   -9.8805  -22.4119 O   0  0  0  0  0  0  0  0  0  0  0  0
   20.2659   -9.5889  -16.7560 C   0  0  0  0  0  0  0  0  0  0  0  0
   19.0630   -9.7487  -16.4233 O   0  0  0  0  0  0  0  0  0  0  0  0
   20.8223   -8.1710  -21.7327 O   0  0  0  0  0  0  0  0  0  0  0  0
   19.6430   -5.4720   -8.9817 O   0  0  0  0  0  0  0  0  0  0  0  0
   20.1195   -6.0179  -10.1759 C   0  0  0  0  0  0  0  0  0  0  0  0
   20.7535   -5.2211  -11.1065 C   0  0  0  0  0  0  0  0  0  0  0  0
   21.2203   -5.7645  -12.2764 C   0  0  0  0  0  0  0  0  0  0  0  0
   21.0847   -7.0922  -12.5732 C   0  0  0  0  0  0  0  0  0  0  0  0
   21.5550   -7.7514  -13.7885 C   0  0  0  0  0  0  0  0  0  0  0  0
   20.5776   -7.9608  -14.8744 C   0  0  2  0  0  0  0  0  0  0  0  0
   21.0702   -8.7171  -16.0053 N   0  0  0  0  0  0  0  0  0  0  0  0
   20.2652   -6.5785  -15.4196 C   0  0  0  0  0  0  0  0  0  0  0  0
   21.1018   -5.9358  -16.1021 O   0  0  0  0  0  0  0  0  0  0  0  0
   20.4432   -7.8950  -11.6334 C   0  0  0  0  0  0  0  0  0  0  0  0
   19.9744   -7.3575  -10.4611 C   0  0  0  0  0  0  0  0  0  0  0  0
   19.0132   -5.9508  -15.1807 N   0  0  0  0  0  0  0  0  0  0  0  0
   18.7112   -4.6187  -15.6758 C   0  0  1  0  0  0  0  0  0  0  0  0
   17.3042   -4.4506  -16.1454 C   0  0  0  0  0  0  0  0  0  0  0  0
   17.1222   -2.7510  -16.7622 S   0  0  0  0  0  0  0  0  0  0  0  0
   18.9207   -3.6648  -14.5307 C   0  0  0  0  0  0  0  0  0  0  0  0
   19.0478   -2.4146  -14.7398 O   0  0  0  0  0  0  0  0  0  0  0  0
   18.9875   -4.0632  -13.2095 O   0  0  0  0  0  0  0  0  0  0  0  0
  2  1  1  1
  2  3  1  0
  2  7  1  0
  3  4  1  0
  5  6  2  0
  5  4  1  0
  7  8  2  0
  9  5  1  0
 11 12  2  0
 11 10  1  0
 13 12  1  0
 14 13  2  0
 15 14  1  0
 16 15  1  1
 17  7  1  0
 17 16  1  0
 18 22  1  0
 18 16  1  0
 19 18  2  0
 20 14  1  0
 20 21  2  0
 21 11  1  0
 23 22  1  0
 23 24  1  1
 24 25  1  0
 26 23  1  0
 26 28  1  0
 27 26  2  0
M  END
$$$$
