EYC.pdb
     RDKit          3D

 28 28  0  0  1  0  0  0  0  0999 V2000
   24.3439  -19.0600  -16.2937 N   0  0  0  0  0  0  0  0  0  0  0  0
   23.9534  -18.8052  -14.9442 C   0  0  1  0  0  0  0  0  0  0  0  0
   22.5208  -18.4468  -14.7597 C   0  0  0  0  0  0  0  0  0  0  0  0
   21.7201  -18.6048  -16.0319 C   0  0  0  0  0  0  0  0  0  0  0  0
   20.8328  -17.4009  -16.1576 C   0  0  0  0  0  0  0  0  0  0  0  0
   21.1289  -16.3867  -16.8228 O   0  0  0  0  0  0  0  0  0  0  0  0
   24.2447  -20.0197  -14.0981 C   0  0  0  0  0  0  0  0  0  0  0  0
   23.3608  -20.9086  -13.9891 O   0  0  0  0  0  0  0  0  0  0  0  0
   19.5993  -17.4341  -15.4821 O   0  0  0  0  0  0  0  0  0  0  0  0
   25.7970  -24.9522  -18.1283 O   0  0  0  0  0  0  0  0  0  0  0  0
   26.0531  -24.2844  -16.9284 C   0  0  0  0  0  0  0  0  0  0  0  0
   25.5246  -24.7485  -15.7417 C   0  0  0  0  0  0  0  0  0  0  0  0
   25.7817  -24.0884  -14.5670 C   0  0  0  0  0  0  0  0  0  0  0  0
   26.5568  -22.9634  -14.5130 C   0  0  0  0  0  0  0  0  0  0  0  0
   26.8836  -22.2046  -13.3088 C   0  0  0  0  0  0  0  0  0  0  0  0
   25.8123  -21.3911  -12.7017 C   0  0  2  0  0  0  0  0  0  0  0  0
   25.4673  -20.1893  -13.4299 N   0  0  0  0  0  0  0  0  0  0  0  0
   26.3634  -20.9113  -11.3707 C   0  0  0  0  0  0  0  0  0  0  0  0
   27.5304  -20.4574  -11.2668 O   0  0  0  0  0  0  0  0  0  0  0  0
   27.0885  -22.4953  -15.7119 C   0  0  0  0  0  0  0  0  0  0  0  0
   26.8353  -23.1513  -16.8902 C   0  0  0  0  0  0  0  0  0  0  0  0
   25.5836  -20.9559  -10.1838 N   0  0  0  0  0  0  0  0  0  0  0  0
   26.1249  -20.5750   -8.8905 C   0  0  1  0  0  0  0  0  0  0  0  0
   26.5936  -19.1593   -8.8222 C   0  0  0  0  0  0  0  0  0  0  0  0
   26.9766  -18.7825   -7.0862 S   0  0  0  0  0  0  0  0  0  0  0  0
   25.0157  -20.7309   -7.8852 C   0  0  0  0  0  0  0  0  0  0  0  0
   23.8067  -20.8617   -8.2648 O   0  0  0  0  0  0  0  0  0  0  0  0
   25.2216  -20.7440   -6.5192 O   0  0  0  0  0  0  0  0  0  0  0  0
  2  1  1  6
  2  3  1  0
  2  7  1  0
  3  4  1  0
  5  6  2  0
  5  4  1  0
  7  8  2  0
  9  5  1  0
 11 12  2  0
 11 10  1  0
 13 12  1  0
 14 13  2  0
 15 14  1  0
 16 15  1  6
 17  7  1  0
 17 16  1  0
 18 22  1  0
 18 16  1  0
 19 18  2  0
 20 14  1  0
 20 21  2  0
 21 11  1  0
 23 22  1  0
 23 24  1  6
 24 25  1  0
 26 23  1  0
 26 28  1  0
 27 26  2  0
M  END
$$$$
