WFA.pdb
     RDKit          3D

 31 33  0  0  1  0  0  0  0  0999 V2000
    8.3925  -19.3214   21.6918 N   0  0  0  0  0  0  0  0  0  0  0  0
    8.8241  -18.6893   22.9175 C   0  0  1  0  0  0  0  0  0  0  0  0
   10.2872  -18.9086   23.2294 C   0  0  0  0  0  0  0  0  0  0  0  0
   10.6389  -20.3278   23.3985 C   0  0  0  0  0  0  0  0  0  0  0  0
    9.9190  -21.2364   24.1475 C   0  0  0  0  0  0  0  0  0  0  0  0
   10.5944  -22.3934   24.0633 N   0  0  0  0  0  0  0  0  0  0  0  0
   11.7008  -22.2466   23.2965 C   0  0  0  0  0  0  0  0  0  0  0  0
   12.6847  -23.1366   22.9226 C   0  0  0  0  0  0  0  0  0  0  0  0
   13.7016  -22.6907   22.1147 C   0  0  0  0  0  0  0  0  0  0  0  0
   13.7710  -21.3929   21.6681 C   0  0  0  0  0  0  0  0  0  0  0  0
   12.7935  -20.5073   22.0396 C   0  0  0  0  0  0  0  0  0  0  0  0
   11.7663  -20.9202   22.8450 C   0  0  0  0  0  0  0  0  0  0  0  0
    8.4685  -17.2678   22.8533 C   0  0  0  0  0  0  0  0  0  0  0  0
    8.8790  -16.5260   21.9145 O   0  0  0  0  0  0  0  0  0  0  0  0
    7.6440  -16.6055   23.8202 N   0  0  0  0  0  0  0  0  0  0  0  0
    7.8310  -15.2173   24.2045 C   0  0  1  0  0  0  0  0  0  0  0  0
    6.6852  -14.9593   25.1721 C   0  0  0  0  0  0  0  0  0  0  0  0
    6.5386  -13.5812   25.6097 C   0  0  0  0  0  0  0  0  0  0  0  0
    7.0090  -13.2082   26.8484 C   0  0  0  0  0  0  0  0  0  0  0  0
    6.8907  -11.8920   27.3077 C   0  0  0  0  0  0  0  0  0  0  0  0
    6.2935  -10.9401   26.5146 C   0  0  0  0  0  0  0  0  0  0  0  0
    5.8222  -11.3120   25.2747 C   0  0  0  0  0  0  0  0  0  0  0  0
    5.9459  -12.6067   24.8389 C   0  0  0  0  0  0  0  0  0  0  0  0
    9.0992  -14.9563   24.9001 C   0  0  0  0  0  0  0  0  0  0  0  0
    9.9861  -14.2829   24.3145 O   0  0  0  0  0  0  0  0  0  0  0  0
   10.5096  -14.2428   27.9861 C   0  0  0  0  0  0  0  0  0  0  0  0
   10.7049  -15.1438   26.7607 C   0  0  2  0  0  0  0  0  0  0  0  0
    9.4113  -15.4133   26.2146 N   0  0  0  0  0  0  0  0  0  0  0  0
   11.4718  -16.3238   27.1756 C   0  0  0  0  0  0  0  0  0  0  0  0
   10.7847  -17.4610   27.5427 O   0  0  0  0  0  0  0  0  0  0  0  0
   12.7123  -16.3315   27.2067 O   0  0  0  0  0  0  0  0  0  0  0  0
  2  1  1  6
  2  3  1  0
  2 13  1  0
  3  4  1  0
  4  5  2  0
  6  5  1  0
  7  6  1  0
  8  7  2  0
  9  8  1  0
 10 11  1  0
 10  9  2  0
 11 12  2  0
 12  7  1  0
 12  4  1  0
 13 14  2  0
 15 13  1  0
 15 16  1  0
 16 17  1  1
 18 17  1  0
 19 18  2  0
 20 19  1  0
 21 22  1  0
 21 20  2  0
 22 23  2  0
 23 18  1  0
 24 16  1  0
 24 25  2  0
 27 26  1  1
 27 28  1  0
 28 24  1  0
 29 27  1  0
 29 30  1  0
 31 29  2  0
M  END
$$$$
