WFA.pdb
     RDKit          3D

 31 33  0  0  1  0  0  0  0  0999 V2000
    8.1873  -18.1120   22.6986 N   0  0  0  0  0  0  0  0  0  0  0  0
    9.3715  -17.3691   22.3325 C   0  0  1  0  0  0  0  0  0  0  0  0
    9.2399  -16.6272   21.0217 C   0  0  0  0  0  0  0  0  0  0  0  0
    8.1186  -15.6737   21.0038 C   0  0  0  0  0  0  0  0  0  0  0  0
    6.8084  -15.9891   21.3014 C   0  0  0  0  0  0  0  0  0  0  0  0
    6.1137  -14.8527   21.1341 N   0  0  0  0  0  0  0  0  0  0  0  0
    6.9312  -13.8452   20.7465 C   0  0  0  0  0  0  0  0  0  0  0  0
    6.6847  -12.5190   20.4625 C   0  0  0  0  0  0  0  0  0  0  0  0
    7.7380  -11.7192   20.0936 C   0  0  0  0  0  0  0  0  0  0  0  0
    9.0242  -12.1940   19.9987 C   0  0  0  0  0  0  0  0  0  0  0  0
    9.2702  -13.5123   20.2805 C   0  0  0  0  0  0  0  0  0  0  0  0
    8.2415  -14.3364   20.6505 C   0  0  0  0  0  0  0  0  0  0  0  0
    9.7239  -16.4842   23.4479 C   0  0  0  0  0  0  0  0  0  0  0  0
   10.7549  -15.7525   23.4102 O   0  0  0  0  0  0  0  0  0  0  0  0
    8.9531  -16.3678   24.6502 N   0  0  0  0  0  0  0  0  0  0  0  0
    9.5161  -15.9250   25.9138 C   0  0  1  0  0  0  0  0  0  0  0  0
    8.2951  -15.5040   26.7185 C   0  0  0  0  0  0  0  0  0  0  0  0
    7.7296  -14.2134   26.3622 C   0  0  0  0  0  0  0  0  0  0  0  0
    6.4333  -14.1428   25.9048 C   0  0  0  0  0  0  0  0  0  0  0  0
    5.8492  -12.9210   25.5534 C   0  0  0  0  0  0  0  0  0  0  0  0
    6.5747  -11.7577   25.6625 C   0  0  0  0  0  0  0  0  0  0  0  0
    7.8722  -11.8269   26.1202 C   0  0  0  0  0  0  0  0  0  0  0  0
    8.4304  -13.0327   26.4607 C   0  0  0  0  0  0  0  0  0  0  0  0
   10.2239  -16.9794   26.6539 C   0  0  0  0  0  0  0  0  0  0  0  0
   10.6697  -16.7215   27.8018 O   0  0  0  0  0  0  0  0  0  0  0  0
   10.8659  -20.6354   26.4627 C   0  0  0  0  0  0  0  0  0  0  0  0
   11.1947  -19.2237   26.9631 C   0  0  2  0  0  0  0  0  0  0  0  0
   10.4491  -18.3003   26.1657 N   0  0  0  0  0  0  0  0  0  0  0  0
   12.6515  -19.0520   26.9293 C   0  0  0  0  0  0  0  0  0  0  0  0
   13.4311  -19.8790   27.7092 O   0  0  0  0  0  0  0  0  0  0  0  0
   13.2018  -18.1910   26.2252 O   0  0  0  0  0  0  0  0  0  0  0  0
  2  1  1  1
  2  3  1  0
  2 13  1  0
  3  4  1  0
  4  5  2  0
  6  5  1  0
  7  6  1  0
  8  7  2  0
  9  8  1  0
 10 11  1  0
 10  9  2  0
 11 12  2  0
 12  7  1  0
 12  4  1  0
 13 14  2  0
 15 13  1  0
 15 16  1  0
 16 17  1  1
 18 17  1  0
 19 18  2  0
 20 19  1  0
 21 22  1  0
 21 20  2  0
 22 23  2  0
 23 18  1  0
 24 16  1  0
 24 25  2  0
 27 26  1  6
 27 28  1  0
 28 24  1  0
 29 27  1  0
 29 30  1  0
 31 29  2  0
M  END
$$$$
