WFA.pdb
     RDKit          3D

 31 33  0  0  1  0  0  0  0  0999 V2000
   10.8772  -17.5615   20.5235 N   0  0  0  0  0  0  0  0  0  0  0  0
    9.9616  -16.7730   21.3161 C   0  0  1  0  0  0  0  0  0  0  0  0
    8.5299  -17.2535   21.2443 C   0  0  0  0  0  0  0  0  0  0  0  0
    7.5881  -16.2103   20.8066 C   0  0  0  0  0  0  0  0  0  0  0  0
    6.2376  -16.4026   20.5972 C   0  0  0  0  0  0  0  0  0  0  0  0
    5.7624  -15.2189   20.1786 N   0  0  0  0  0  0  0  0  0  0  0  0
    6.7546  -14.2995   20.1183 C   0  0  0  0  0  0  0  0  0  0  0  0
    6.7544  -12.9692   19.7572 C   0  0  0  0  0  0  0  0  0  0  0  0
    7.9386  -12.2757   19.8028 C   0  0  0  0  0  0  0  0  0  0  0  0
    9.1188  -12.8605   20.1949 C   0  0  0  0  0  0  0  0  0  0  0  0
    9.1202  -14.1830   20.5539 C   0  0  0  0  0  0  0  0  0  0  0  0
    7.9561  -14.9027   20.5185 C   0  0  0  0  0  0  0  0  0  0  0  0
   10.4699  -16.7198   22.6909 C   0  0  0  0  0  0  0  0  0  0  0  0
   11.5172  -17.3413   23.0325 O   0  0  0  0  0  0  0  0  0  0  0  0
    9.8457  -15.9774   23.7458 N   0  0  0  0  0  0  0  0  0  0  0  0
   10.4207  -15.8490   25.0734 C   0  0  1  0  0  0  0  0  0  0  0  0
    9.3322  -15.1386   25.8646 C   0  0  0  0  0  0  0  0  0  0  0  0
    9.6968  -14.7542   27.2180 C   0  0  0  0  0  0  0  0  0  0  0  0
    9.1224  -15.4042   28.2867 C   0  0  0  0  0  0  0  0  0  0  0  0
    9.4468  -15.0677   29.6054 C   0  0  0  0  0  0  0  0  0  0  0  0
   10.3578  -14.0676   29.8534 C   0  0  0  0  0  0  0  0  0  0  0  0
   10.9335  -13.4163   28.7848 C   0  0  0  0  0  0  0  0  0  0  0  0
   10.6048  -13.7581   27.4977 C   0  0  0  0  0  0  0  0  0  0  0  0
   10.7102  -17.1343   25.7251 C   0  0  0  0  0  0  0  0  0  0  0  0
   11.4027  -17.1406   26.7755 O   0  0  0  0  0  0  0  0  0  0  0  0
   10.1558  -20.7882   25.1529 C   0  0  0  0  0  0  0  0  0  0  0  0
   10.5744  -19.5800   25.9994 C   0  0  2  0  0  0  0  0  0  0  0  0
   10.2579  -18.4020   25.2534 N   0  0  0  0  0  0  0  0  0  0  0  0
   11.9884  -19.7379   26.3577 C   0  0  0  0  0  0  0  0  0  0  0  0
   12.3008  -20.2882   27.5822 O   0  0  0  0  0  0  0  0  0  0  0  0
   12.9076  -19.3938   25.5983 O   0  0  0  0  0  0  0  0  0  0  0  0
  2  1  1  6
  2  3  1  0
  2 13  1  0
  3  4  1  0
  4  5  2  0
  6  5  1  0
  7  6  1  0
  8  7  2  0
  9  8  1  0
 10 11  1  0
 10  9  2  0
 11 12  2  0
 12  7  1  0
 12  4  1  0
 13 14  2  0
 15 13  1  0
 15 16  1  0
 16 17  1  1
 18 17  1  0
 19 18  2  0
 20 19  1  0
 21 22  1  0
 21 20  2  0
 22 23  2  0
 23 18  1  0
 24 16  1  0
 24 25  2  0
 27 26  1  6
 27 28  1  0
 28 24  1  0
 29 27  1  0
 29 30  1  0
 31 29  2  0
M  END
$$$$
