WFA.pdb
     RDKit          3D

 31 33  0  0  1  0  0  0  0  0999 V2000
    8.0980  -17.9213   26.3313 N   0  0  0  0  0  0  0  0  0  0  0  0
    7.8168  -16.8022   25.4614 C   0  0  1  0  0  0  0  0  0  0  0  0
    8.7992  -15.6620   25.6047 C   0  0  0  0  0  0  0  0  0  0  0  0
    8.4530  -14.7296   26.6898 C   0  0  0  0  0  0  0  0  0  0  0  0
    9.1445  -14.6083   27.8780 C   0  0  0  0  0  0  0  0  0  0  0  0
    8.4847  -13.6809   28.5897 N   0  0  0  0  0  0  0  0  0  0  0  0
    7.4152  -13.2196   27.8991 C   0  0  0  0  0  0  0  0  0  0  0  0
    6.4587  -12.2763   28.2081 C   0  0  0  0  0  0  0  0  0  0  0  0
    5.4778  -12.0083   27.2854 C   0  0  0  0  0  0  0  0  0  0  0  0
    5.4179  -12.6458   26.0694 C   0  0  0  0  0  0  0  0  0  0  0  0
    6.3681  -13.5839   25.7614 C   0  0  0  0  0  0  0  0  0  0  0  0
    7.3591  -13.8747   26.6601 C   0  0  0  0  0  0  0  0  0  0  0  0
    7.7278  -17.2996   24.0844 C   0  0  0  0  0  0  0  0  0  0  0  0
    8.0559  -18.4846   23.7876 O   0  0  0  0  0  0  0  0  0  0  0  0
    7.2714  -16.5119   22.9778 N   0  0  0  0  0  0  0  0  0  0  0  0
    7.3459  -16.9624   21.5990 C   0  0  1  0  0  0  0  0  0  0  0  0
    6.5702  -15.8990   20.8355 C   0  0  0  0  0  0  0  0  0  0  0  0
    7.2226  -14.6041   20.7357 C   0  0  0  0  0  0  0  0  0  0  0  0
    7.3357  -13.8124   21.8560 C   0  0  0  0  0  0  0  0  0  0  0  0
    7.9585  -12.5607   21.8048 C   0  0  0  0  0  0  0  0  0  0  0  0
    8.4730  -12.0989   20.6158 C   0  0  0  0  0  0  0  0  0  0  0  0
    8.3604  -12.8902   19.4938 C   0  0  0  0  0  0  0  0  0  0  0  0
    7.7470  -14.1152   19.5605 C   0  0  0  0  0  0  0  0  0  0  0  0
    8.7134  -17.0197   21.0631 C   0  0  0  0  0  0  0  0  0  0  0  0
    8.8975  -17.5087   19.9185 O   0  0  0  0  0  0  0  0  0  0  0  0
   11.7454  -15.4444   20.7608 C   0  0  0  0  0  0  0  0  0  0  0  0
   11.1650  -16.7979   21.1882 C   0  0  2  0  0  0  0  0  0  0  0  0
    9.8731  -16.5537   21.7500 N   0  0  0  0  0  0  0  0  0  0  0  0
   12.1283  -17.4489   22.0832 C   0  0  0  0  0  0  0  0  0  0  0  0
   11.7488  -17.7105   23.3823 O   0  0  0  0  0  0  0  0  0  0  0  0
   13.2677  -17.7699   21.7108 O   0  0  0  0  0  0  0  0  0  0  0  0
  2  1  1  1
  2  3  1  0
  2 13  1  0
  3  4  1  0
  4  5  2  0
  6  5  1  0
  7  6  1  0
  8  7  2  0
  9  8  1  0
 10 11  1  0
 10  9  2  0
 11 12  2  0
 12  7  1  0
 12  4  1  0
 13 14  2  0
 15 13  1  0
 15 16  1  0
 16 17  1  6
 18 17  1  0
 19 18  2  0
 20 19  1  0
 21 22  1  0
 21 20  2  0
 22 23  2  0
 23 18  1  0
 24 16  1  0
 24 25  2  0
 27 26  1  1
 27 28  1  0
 28 24  1  0
 29 27  1  0
 29 30  1  0
 31 29  2  0
M  END
$$$$
