WFA.pdb
     RDKit          3D

 31 33  0  0  1  0  0  0  0  0999 V2000
   11.4623  -17.0955   21.2336 N   0  0  0  0  0  0  0  0  0  0  0  0
   10.1791  -16.4434   21.3614 C   0  0  1  0  0  0  0  0  0  0  0  0
    9.0309  -17.2505   20.7991 C   0  0  0  0  0  0  0  0  0  0  0  0
    8.1599  -16.4744   19.9015 C   0  0  0  0  0  0  0  0  0  0  0  0
    7.2864  -17.0194   18.9824 C   0  0  0  0  0  0  0  0  0  0  0  0
    6.7188  -15.9759   18.3570 N   0  0  0  0  0  0  0  0  0  0  0  0
    7.1985  -14.8074   18.8448 C   0  0  0  0  0  0  0  0  0  0  0  0
    6.9188  -13.4953   18.5284 C   0  0  0  0  0  0  0  0  0  0  0  0
    7.5721  -12.5005   19.2132 C   0  0  0  0  0  0  0  0  0  0  0  0
    8.4912  -12.7677   20.1994 C   0  0  0  0  0  0  0  0  0  0  0  0
    8.7701  -14.0718   20.5146 C   0  0  0  0  0  0  0  0  0  0  0  0
    8.1364  -15.0870   19.8497 C   0  0  0  0  0  0  0  0  0  0  0  0
    9.9810  -16.0877   22.7705 C   0  0  0  0  0  0  0  0  0  0  0  0
   10.7365  -16.5401   23.6785 O   0  0  0  0  0  0  0  0  0  0  0  0
    8.9430  -15.2168   23.2368 N   0  0  0  0  0  0  0  0  0  0  0  0
    8.8055  -14.8198   24.6271 C   0  0  1  0  0  0  0  0  0  0  0  0
    7.6996  -13.7751   24.5905 C   0  0  0  0  0  0  0  0  0  0  0  0
    7.3743  -13.1680   25.8703 C   0  0  0  0  0  0  0  0  0  0  0  0
    6.0832  -13.2309   26.3432 C   0  0  0  0  0  0  0  0  0  0  0  0
    5.7275  -12.6622   27.5710 C   0  0  0  0  0  0  0  0  0  0  0  0
    6.6786  -12.0233   28.3319 C   0  0  0  0  0  0  0  0  0  0  0  0
    7.9711  -11.9596   27.8598 C   0  0  0  0  0  0  0  0  0  0  0  0
    8.3039  -12.5223   26.6539 C   0  0  0  0  0  0  0  0  0  0  0  0
    8.3900  -15.9103   25.5208 C   0  0  0  0  0  0  0  0  0  0  0  0
    8.3572  -15.7005   26.7609 O   0  0  0  0  0  0  0  0  0  0  0  0
    6.9610  -19.3540   25.2719 C   0  0  0  0  0  0  0  0  0  0  0  0
    7.5396  -18.1633   26.0459 C   0  0  2  0  0  0  0  0  0  0  0  0
    8.0110  -17.2145   25.0857 N   0  0  0  0  0  0  0  0  0  0  0  0
    8.5513  -18.6703   26.9798 C   0  0  0  0  0  0  0  0  0  0  0  0
    9.8825  -18.5200   26.6550 O   0  0  0  0  0  0  0  0  0  0  0  0
    8.2494  -19.2272   28.0468 O   0  0  0  0  0  0  0  0  0  0  0  0
  2  1  1  1
  2  3  1  0
  2 13  1  0
  3  4  1  0
  4  5  2  0
  6  5  1  0
  7  6  1  0
  8  7  2  0
  9  8  1  0
 10 11  1  0
 10  9  2  0
 11 12  2  0
 12  7  1  0
 12  4  1  0
 13 14  2  0
 15 13  1  0
 15 16  1  0
 16 17  1  6
 18 17  1  0
 19 18  2  0
 20 19  1  0
 21 22  1  0
 21 20  2  0
 22 23  2  0
 23 18  1  0
 24 16  1  0
 24 25  2  0
 27 26  1  6
 27 28  1  0
 28 24  1  0
 29 27  1  0
 29 30  1  0
 31 29  2  0
M  END
$$$$
