WFA.pdb
     RDKit          3D

 31 33  0  0  1  0  0  0  0  0999 V2000
    8.3470  -17.2507   22.9976 N   0  0  0  0  0  0  0  0  0  0  0  0
    9.6954  -16.7429   22.8867 C   0  0  1  0  0  0  0  0  0  0  0  0
    9.8274  -15.5788   21.9311 C   0  0  0  0  0  0  0  0  0  0  0  0
    8.5312  -15.0208   21.5124 C   0  0  0  0  0  0  0  0  0  0  0  0
    7.2997  -15.4891   21.9233 C   0  0  0  0  0  0  0  0  0  0  0  0
    6.3920  -14.7303   21.2890 N   0  0  0  0  0  0  0  0  0  0  0  0
    7.0019  -13.8117   20.5030 C   0  0  0  0  0  0  0  0  0  0  0  0
    6.4989  -12.8272   19.6797 C   0  0  0  0  0  0  0  0  0  0  0  0
    7.3816  -12.0259   18.9983 C   0  0  0  0  0  0  0  0  0  0  0  0
    8.7436  -12.1716   19.1092 C   0  0  0  0  0  0  0  0  0  0  0  0
    9.2447  -13.1502   19.9272 C   0  0  0  0  0  0  0  0  0  0  0  0
    8.3911  -13.9664   20.6198 C   0  0  0  0  0  0  0  0  0  0  0  0
   10.1802  -16.4239   24.2338 C   0  0  0  0  0  0  0  0  0  0  0  0
   11.3595  -16.0112   24.4308 O   0  0  0  0  0  0  0  0  0  0  0  0
    9.3843  -16.5447   25.4193 N   0  0  0  0  0  0  0  0  0  0  0  0
    9.8749  -16.2015   26.7425 C   0  0  1  0  0  0  0  0  0  0  0  0
    8.6253  -15.7339   27.4743 C   0  0  0  0  0  0  0  0  0  0  0  0
    8.0236  -14.5142   26.9617 C   0  0  0  0  0  0  0  0  0  0  0  0
    6.8285  -14.5801   26.2820 C   0  0  0  0  0  0  0  0  0  0  0  0
    6.2136  -13.4305   25.7743 C   0  0  0  0  0  0  0  0  0  0  0  0
    6.8053  -12.2016   25.9511 C   0  0  0  0  0  0  0  0  0  0  0  0
    8.0014  -12.1342   26.6311 C   0  0  0  0  0  0  0  0  0  0  0  0
    8.5915  -13.2706   27.1228 C   0  0  0  0  0  0  0  0  0  0  0  0
   10.4513  -17.3360   27.4781 C   0  0  0  0  0  0  0  0  0  0  0  0
   10.7371  -17.1894   28.6946 O   0  0  0  0  0  0  0  0  0  0  0  0
   11.0812  -20.9790   26.9969 C   0  0  0  0  0  0  0  0  0  0  0  0
   11.2611  -19.6493   27.7392 C   0  0  2  0  0  0  0  0  0  0  0  0
   10.7166  -18.6179   26.9121 N   0  0  0  0  0  0  0  0  0  0  0  0
   12.6809  -19.5010   28.0785 C   0  0  0  0  0  0  0  0  0  0  0  0
   13.2630  -20.4391   28.9037 O   0  0  0  0  0  0  0  0  0  0  0  0
   13.3711  -18.5634   27.6490 O   0  0  0  0  0  0  0  0  0  0  0  0
  2  1  1  1
  2  3  1  0
  2 13  1  0
  3  4  1  0
  4  5  2  0
  6  5  1  0
  7  6  1  0
  8  7  2  0
  9  8  1  0
 10 11  1  0
 10  9  2  0
 11 12  2  0
 12  7  1  0
 12  4  1  0
 13 14  2  0
 15 13  1  0
 15 16  1  0
 16 17  1  1
 18 17  1  0
 19 18  2  0
 20 19  1  0
 21 22  1  0
 21 20  2  0
 22 23  2  0
 23 18  1  0
 24 16  1  0
 24 25  2  0
 27 26  1  6
 27 28  1  0
 28 24  1  0
 29 27  1  0
 29 30  1  0
 31 29  2  0
M  END
$$$$
