WFA.pdb
     RDKit          3D

 31 33  0  0  1  0  0  0  0  0999 V2000
    8.3049  -20.9425   25.3567 N   0  0  0  0  0  0  0  0  0  0  0  0
    8.3840  -19.6711   26.0389 C   0  0  1  0  0  0  0  0  0  0  0  0
    9.7303  -19.4075   26.6744 C   0  0  0  0  0  0  0  0  0  0  0  0
    9.6336  -18.7678   27.9965 C   0  0  0  0  0  0  0  0  0  0  0  0
    9.3014  -19.4193   29.1670 C   0  0  0  0  0  0  0  0  0  0  0  0
    9.2952  -18.4740   30.1202 N   0  0  0  0  0  0  0  0  0  0  0  0
    9.6084  -17.2651   29.5968 C   0  0  0  0  0  0  0  0  0  0  0  0
    9.7312  -16.0184   30.1719 C   0  0  0  0  0  0  0  0  0  0  0  0
   10.0752  -14.9567   29.3720 C   0  0  0  0  0  0  0  0  0  0  0  0
   10.3004  -15.0945   28.0233 C   0  0  0  0  0  0  0  0  0  0  0  0
   10.1782  -16.3334   27.4506 C   0  0  0  0  0  0  0  0  0  0  0  0
    9.8358  -17.4124   28.2205 C   0  0  0  0  0  0  0  0  0  0  0  0
    7.9891  -18.6176   25.0979 C   0  0  0  0  0  0  0  0  0  0  0  0
    8.4588  -18.5701   23.9244 O   0  0  0  0  0  0  0  0  0  0  0  0
    7.0585  -17.5738   25.4108 N   0  0  0  0  0  0  0  0  0  0  0  0
    7.0679  -16.2790   24.7530 C   0  0  1  0  0  0  0  0  0  0  0  0
    6.3725  -15.3673   25.7535 C   0  0  0  0  0  0  0  0  0  0  0  0
    6.4476  -13.9464   25.4575 C   0  0  0  0  0  0  0  0  0  0  0  0
    6.4960  -13.5272   24.1473 C   0  0  0  0  0  0  0  0  0  0  0  0
    6.5662  -12.1692   23.8179 C   0  0  0  0  0  0  0  0  0  0  0  0
    6.5881  -11.2222   24.8150 C   0  0  0  0  0  0  0  0  0  0  0  0
    6.5396  -11.6402   26.1267 C   0  0  0  0  0  0  0  0  0  0  0  0
    6.4710  -12.9755   26.4331 C   0  0  0  0  0  0  0  0  0  0  0  0
    8.4150  -15.7503   24.4955 C   0  0  0  0  0  0  0  0  0  0  0  0
    8.5313  -14.6172   23.9612 O   0  0  0  0  0  0  0  0  0  0  0  0
   11.0561  -14.5530   25.1861 C   0  0  0  0  0  0  0  0  0  0  0  0
   10.8758  -15.8631   24.4098 C   0  0  2  0  0  0  0  0  0  0  0  0
    9.6271  -16.4324   24.8112 N   0  0  0  0  0  0  0  0  0  0  0  0
   12.0557  -16.7028   24.6454 C   0  0  0  0  0  0  0  0  0  0  0  0
   12.8361  -16.4477   25.7526 O   0  0  0  0  0  0  0  0  0  0  0  0
   12.3723  -17.6304   23.8843 O   0  0  0  0  0  0  0  0  0  0  0  0
  2  1  1  6
  2  3  1  0
  2 13  1  0
  3  4  1  0
  4  5  2  0
  6  5  1  0
  7  6  1  0
  8  7  2  0
  9  8  1  0
 10 11  1  0
 10  9  2  0
 11 12  2  0
 12  7  1  0
 12  4  1  0
 13 14  2  0
 15 13  1  0
 15 16  1  0
 16 17  1  1
 18 17  1  0
 19 18  2  0
 20 19  1  0
 21 22  1  0
 21 20  2  0
 22 23  2  0
 23 18  1  0
 24 16  1  0
 24 25  2  0
 27 26  1  1
 27 28  1  0
 28 24  1  0
 29 27  1  0
 29 30  1  0
 31 29  2  0
M  END
$$$$
