WFA.pdb
     RDKit          3D

 31 33  0  0  1  0  0  0  0  0999 V2000
    8.1168  -19.3714   21.5480 N   0  0  0  0  0  0  0  0  0  0  0  0
    7.8762  -19.1075   22.9483 C   0  0  1  0  0  0  0  0  0  0  0  0
    8.5960  -20.0596   23.8764 C   0  0  0  0  0  0  0  0  0  0  0  0
    7.7895  -20.4557   25.0422 C   0  0  0  0  0  0  0  0  0  0  0  0
    6.6369  -21.2126   24.9852 C   0  0  0  0  0  0  0  0  0  0  0  0
    6.2050  -21.3135   26.2522 N   0  0  0  0  0  0  0  0  0  0  0  0
    7.0357  -20.6547   27.0945 C   0  0  0  0  0  0  0  0  0  0  0  0
    7.0113  -20.4830   28.4620 C   0  0  0  0  0  0  0  0  0  0  0  0
    8.0154  -19.7547   29.0509 C   0  0  0  0  0  0  0  0  0  0  0  0
    9.0396  -19.1940   28.3261 C   0  0  0  0  0  0  0  0  0  0  0  0
    9.0646  -19.3639   26.9666 C   0  0  0  0  0  0  0  0  0  0  0  0
    8.0777  -20.0840   26.3487 C   0  0  0  0  0  0  0  0  0  0  0  0
    8.2049  -17.7033   23.2159 C   0  0  0  0  0  0  0  0  0  0  0  0
    9.2576  -17.1725   22.7580 O   0  0  0  0  0  0  0  0  0  0  0  0
    7.3854  -16.8256   23.9979 N   0  0  0  0  0  0  0  0  0  0  0  0
    7.7619  -15.4583   24.3114 C   0  0  1  0  0  0  0  0  0  0  0  0
    6.5868  -14.9454   25.1310 C   0  0  0  0  0  0  0  0  0  0  0  0
    6.6398  -13.5356   25.4803 C   0  0  0  0  0  0  0  0  0  0  0  0
    6.0252  -13.0975   26.6314 C   0  0  0  0  0  0  0  0  0  0  0  0
    6.0541  -11.7500   27.0064 C   0  0  0  0  0  0  0  0  0  0  0  0
    6.7071  -10.8325   26.2168 C   0  0  0  0  0  0  0  0  0  0  0  0
    7.3227  -11.2695   25.0645 C   0  0  0  0  0  0  0  0  0  0  0  0
    7.2853  -12.5943   24.7108 C   0  0  0  0  0  0  0  0  0  0  0  0
    8.9827  -15.3465   25.1223 C   0  0  0  0  0  0  0  0  0  0  0  0
   10.1009  -15.4300   24.5518 O   0  0  0  0  0  0  0  0  0  0  0  0
   10.0484  -13.6952   28.1209 C   0  0  0  0  0  0  0  0  0  0  0  0
   10.2486  -14.8961   27.1887 C   0  0  2  0  0  0  0  0  0  0  0  0
    9.0020  -15.1447   26.5340 N   0  0  0  0  0  0  0  0  0  0  0  0
   10.7764  -16.0112   27.9829 C   0  0  0  0  0  0  0  0  0  0  0  0
   10.0380  -17.1726   28.0610 O   0  0  0  0  0  0  0  0  0  0  0  0
   11.8602  -15.9434   28.5834 O   0  0  0  0  0  0  0  0  0  0  0  0
  2  1  1  6
  2  3  1  0
  2 13  1  0
  3  4  1  0
  4  5  2  0
  6  5  1  0
  7  6  1  0
  8  7  2  0
  9  8  1  0
 10 11  1  0
 10  9  2  0
 11 12  2  0
 12  7  1  0
 12  4  1  0
 13 14  2  0
 15 13  1  0
 15 16  1  0
 16 17  1  1
 18 17  1  0
 19 18  2  0
 20 19  1  0
 21 22  1  0
 21 20  2  0
 22 23  2  0
 23 18  1  0
 24 16  1  0
 24 25  2  0
 27 26  1  1
 27 28  1  0
 28 24  1  0
 29 27  1  0
 29 30  1  0
 31 29  2  0
M  END
$$$$
