WFA.pdb
     RDKit          3D

 31 33  0  0  1  0  0  0  0  0999 V2000
   12.3049  -15.1031   22.0664 N   0  0  0  0  0  0  0  0  0  0  0  0
   10.8997  -15.1559   22.3993 C   0  0  1  0  0  0  0  0  0  0  0  0
   10.0854  -16.0116   21.4556 C   0  0  0  0  0  0  0  0  0  0  0  0
    9.5094  -15.2527   20.3335 C   0  0  0  0  0  0  0  0  0  0  0  0
   10.0743  -15.1468   19.0788 C   0  0  0  0  0  0  0  0  0  0  0  0
    9.2542  -14.3488   18.3769 N   0  0  0  0  0  0  0  0  0  0  0  0
    8.2055  -13.9538   19.1369 C   0  0  0  0  0  0  0  0  0  0  0  0
    7.1204  -13.1502   18.8596 C   0  0  0  0  0  0  0  0  0  0  0  0
    6.1953  -12.9302   19.8502 C   0  0  0  0  0  0  0  0  0  0  0  0
    6.3141  -13.4820   21.1032 C   0  0  0  0  0  0  0  0  0  0  0  0
    7.3926  -14.2808   21.3800 C   0  0  0  0  0  0  0  0  0  0  0  0
    8.3332  -14.5192   20.4142 C   0  0  0  0  0  0  0  0  0  0  0  0
   10.7727  -15.5812   23.7973 C   0  0  0  0  0  0  0  0  0  0  0  0
   11.7880  -15.8665   24.4957 O   0  0  0  0  0  0  0  0  0  0  0  0
    9.5213  -15.7078   24.4839 N   0  0  0  0  0  0  0  0  0  0  0  0
    9.4211  -15.9977   25.9036 C   0  0  1  0  0  0  0  0  0  0  0  0
    7.9696  -15.6779   26.2298 C   0  0  0  0  0  0  0  0  0  0  0  0
    7.6492  -14.2632   26.3206 C   0  0  0  0  0  0  0  0  0  0  0  0
    6.7278  -13.7185   25.4552 C   0  0  0  0  0  0  0  0  0  0  0  0
    6.3883  -12.3624   25.5099 C   0  0  0  0  0  0  0  0  0  0  0  0
    6.9806  -11.5445   26.4435 C   0  0  0  0  0  0  0  0  0  0  0  0
    7.9030  -12.0882   27.3103 C   0  0  0  0  0  0  0  0  0  0  0  0
    8.2250  -13.4199   27.2438 C   0  0  0  0  0  0  0  0  0  0  0  0
    9.6790  -17.4039   26.2451 C   0  0  0  0  0  0  0  0  0  0  0  0
    9.4183  -17.8042   27.4090 O   0  0  0  0  0  0  0  0  0  0  0  0
   10.7786  -20.5574   24.5572 C   0  0  0  0  0  0  0  0  0  0  0  0
   10.3469  -19.7291   25.7734 C   0  0  2  0  0  0  0  0  0  0  0  0
   10.2105  -18.3724   25.3431 N   0  0  0  0  0  0  0  0  0  0  0  0
   11.3176  -19.9539   26.8503 C   0  0  0  0  0  0  0  0  0  0  0  0
   11.4850  -21.2352   27.3303 O   0  0  0  0  0  0  0  0  0  0  0  0
   11.9894  -19.0330   27.3407 O   0  0  0  0  0  0  0  0  0  0  0  0
  2  1  1  6
  2  3  1  0
  2 13  1  0
  3  4  1  0
  4  5  2  0
  6  5  1  0
  7  6  1  0
  8  7  2  0
  9  8  1  0
 10 11  1  0
 10  9  2  0
 11 12  2  0
 12  7  1  0
 12  4  1  0
 13 14  2  0
 15 13  1  0
 15 16  1  0
 16 17  1  6
 18 17  1  0
 19 18  2  0
 20 19  1  0
 21 22  1  0
 21 20  2  0
 22 23  2  0
 23 18  1  0
 24 16  1  0
 24 25  2  0
 27 26  1  6
 27 28  1  0
 28 24  1  0
 29 27  1  0
 29 30  1  0
 31 29  2  0
M  END
$$$$
