WFA.pdb
     RDKit          3D

 31 33  0  0  1  0  0  0  0  0999 V2000
    7.8784  -17.6772   25.3403 N   0  0  0  0  0  0  0  0  0  0  0  0
    7.0446  -17.1817   24.2691 C   0  0  1  0  0  0  0  0  0  0  0  0
    6.8236  -15.6868   24.3157 C   0  0  0  0  0  0  0  0  0  0  0  0
    7.6445  -15.0094   25.3326 C   0  0  0  0  0  0  0  0  0  0  0  0
    8.6940  -15.5897   26.0156 C   0  0  0  0  0  0  0  0  0  0  0  0
    9.1422  -14.6485   26.8613 N   0  0  0  0  0  0  0  0  0  0  0  0
    8.4204  -13.5098   26.7357 C   0  0  0  0  0  0  0  0  0  0  0  0
    8.5070  -12.2914   27.3745 C   0  0  0  0  0  0  0  0  0  0  0  0
    7.6228  -11.3011   27.0236 C   0  0  0  0  0  0  0  0  0  0  0  0
    6.6589  -11.4828   26.0611 C   0  0  0  0  0  0  0  0  0  0  0  0
    6.5719  -12.6938   25.4256 C   0  0  0  0  0  0  0  0  0  0  0  0
    7.4381  -13.7022   25.7530 C   0  0  0  0  0  0  0  0  0  0  0  0
    7.6181  -17.6271   22.9947 C   0  0  0  0  0  0  0  0  0  0  0  0
    7.7821  -18.8546   22.7373 O   0  0  0  0  0  0  0  0  0  0  0  0
    8.0328  -16.7378   21.9504 N   0  0  0  0  0  0  0  0  0  0  0  0
    8.6852  -17.1913   20.7346 C   0  0  1  0  0  0  0  0  0  0  0  0
    7.9927  -16.3919   19.6405 C   0  0  0  0  0  0  0  0  0  0  0  0
    7.9131  -14.9593   19.8720 C   0  0  0  0  0  0  0  0  0  0  0  0
    6.8696  -14.4475   20.6094 C   0  0  0  0  0  0  0  0  0  0  0  0
    6.7562  -13.0754   20.8583 C   0  0  0  0  0  0  0  0  0  0  0  0
    7.7008  -12.2081   20.3611 C   0  0  0  0  0  0  0  0  0  0  0  0
    8.7456  -12.7190   19.6229 C   0  0  0  0  0  0  0  0  0  0  0  0
    8.8426  -14.0669   19.3878 C   0  0  0  0  0  0  0  0  0  0  0  0
   10.1253  -16.9012   20.6863 C   0  0  0  0  0  0  0  0  0  0  0  0
   10.7270  -16.9924   19.5851 O   0  0  0  0  0  0  0  0  0  0  0  0
   12.3798  -14.9848   20.7061 C   0  0  0  0  0  0  0  0  0  0  0  0
   12.2966  -16.2093   21.6255 C   0  0  2  0  0  0  0  0  0  0  0  0
   10.9121  -16.5144   21.8112 N   0  0  0  0  0  0  0  0  0  0  0  0
   13.0467  -15.9150   22.8517 C   0  0  0  0  0  0  0  0  0  0  0  0
   12.4184  -16.0876   24.0664 O   0  0  0  0  0  0  0  0  0  0  0  0
   14.2221  -15.5178   22.8311 O   0  0  0  0  0  0  0  0  0  0  0  0
  2  1  1  1
  2  3  1  0
  2 13  1  0
  3  4  1  0
  4  5  2  0
  6  5  1  0
  7  6  1  0
  8  7  2  0
  9  8  1  0
 10 11  1  0
 10  9  2  0
 11 12  2  0
 12  7  1  0
 12  4  1  0
 13 14  2  0
 15 13  1  0
 15 16  1  0
 16 17  1  6
 18 17  1  0
 19 18  2  0
 20 19  1  0
 21 22  1  0
 21 20  2  0
 22 23  2  0
 23 18  1  0
 24 16  1  0
 24 25  2  0
 27 26  1  6
 27 28  1  0
 28 24  1  0
 29 27  1  0
 29 30  1  0
 31 29  2  0
M  END
$$$$
