WFA.pdb
     RDKit          3D

 31 33  0  0  1  0  0  0  0  0999 V2000
    7.3165  -19.0542   21.3383 N   0  0  0  0  0  0  0  0  0  0  0  0
    6.5602  -18.0852   22.0980 C   0  0  1  0  0  0  0  0  0  0  0  0
    5.8134  -18.6828   23.2689 C   0  0  0  0  0  0  0  0  0  0  0  0
    4.6795  -19.5295   22.8639 C   0  0  0  0  0  0  0  0  0  0  0  0
    4.3537  -20.7414   23.4382 C   0  0  0  0  0  0  0  0  0  0  0  0
    3.2867  -21.1907   22.7587 N   0  0  0  0  0  0  0  0  0  0  0  0
    2.9337  -20.3143   21.7887 C   0  0  0  0  0  0  0  0  0  0  0  0
    1.9193  -20.3354   20.8556 C   0  0  0  0  0  0  0  0  0  0  0  0
    1.8034  -19.2782   19.9870 C   0  0  0  0  0  0  0  0  0  0  0  0
    2.6606  -18.2044   20.0167 C   0  0  0  0  0  0  0  0  0  0  0  0
    3.6695  -18.1826   20.9438 C   0  0  0  0  0  0  0  0  0  0  0  0
    3.8127  -19.2217   21.8236 C   0  0  0  0  0  0  0  0  0  0  0  0
    7.4673  -17.0050   22.5003 C   0  0  0  0  0  0  0  0  0  0  0  0
    8.7232  -17.1541   22.4770 O   0  0  0  0  0  0  0  0  0  0  0  0
    7.0276  -15.7151   22.9430 N   0  0  0  0  0  0  0  0  0  0  0  0
    7.7306  -14.9399   23.9502 C   0  0  1  0  0  0  0  0  0  0  0  0
    6.6186  -14.1643   24.6415 C   0  0  0  0  0  0  0  0  0  0  0  0
    7.0549  -13.2335   25.6689 C   0  0  0  0  0  0  0  0  0  0  0  0
    6.1168  -12.5680   26.4250 C   0  0  0  0  0  0  0  0  0  0  0  0
    6.4931  -11.6656   27.4257 C   0  0  0  0  0  0  0  0  0  0  0  0
    7.8258  -11.4289   27.6696 C   0  0  0  0  0  0  0  0  0  0  0  0
    8.7657  -12.0942   26.9137 C   0  0  0  0  0  0  0  0  0  0  0  0
    8.3805  -12.9760   25.9361 C   0  0  0  0  0  0  0  0  0  0  0  0
    8.4257  -15.7573   24.9547 C   0  0  0  0  0  0  0  0  0  0  0  0
    9.4788  -15.3106   25.4786 O   0  0  0  0  0  0  0  0  0  0  0  0
    7.8348  -18.8653   26.9333 C   0  0  0  0  0  0  0  0  0  0  0  0
    8.7047  -17.7007   26.4449 C   0  0  2  0  0  0  0  0  0  0  0  0
    7.9921  -17.0429   25.3942 N   0  0  0  0  0  0  0  0  0  0  0  0
   10.0209  -18.2337   26.0757 C   0  0  0  0  0  0  0  0  0  0  0  0
   10.9142  -18.5385   27.0804 O   0  0  0  0  0  0  0  0  0  0  0  0
   10.3546  -18.4180   24.8948 O   0  0  0  0  0  0  0  0  0  0  0  0
  2  1  1  1
  2  3  1  0
  2 13  1  0
  3  4  1  0
  4  5  2  0
  6  5  1  0
  7  6  1  0
  8  7  2  0
  9  8  1  0
 10 11  1  0
 10  9  2  0
 11 12  2  0
 12  7  1  0
 12  4  1  0
 13 14  2  0
 15 13  1  0
 15 16  1  0
 16 17  1  1
 18 17  1  0
 19 18  2  0
 20 19  1  0
 21 22  1  0
 21 20  2  0
 22 23  2  0
 23 18  1  0
 24 16  1  0
 24 25  2  0
 27 26  1  6
 27 28  1  0
 28 24  1  0
 29 27  1  0
 29 30  1  0
 31 29  2  0
M  END
$$$$
