WFA.pdb
     RDKit          3D

 31 33  0  0  1  0  0  0  0  0999 V2000
   10.8895  -18.6400   21.6311 N   0  0  0  0  0  0  0  0  0  0  0  0
   10.1378  -17.4096   21.5343 C   0  0  1  0  0  0  0  0  0  0  0  0
    8.8888  -17.5278   20.6905 C   0  0  0  0  0  0  0  0  0  0  0  0
    8.6778  -16.3748   19.8002 C   0  0  0  0  0  0  0  0  0  0  0  0
    9.0056  -16.3411   18.4600 C   0  0  0  0  0  0  0  0  0  0  0  0
    8.6822  -15.1086   18.0374 N   0  0  0  0  0  0  0  0  0  0  0  0
    8.1682  -14.3746   19.0525 C   0  0  0  0  0  0  0  0  0  0  0  0
    7.6973  -13.0801   19.1040 C   0  0  0  0  0  0  0  0  0  0  0  0
    7.2203  -12.6015   20.2994 C   0  0  0  0  0  0  0  0  0  0  0  0
    7.1964  -13.3662   21.4410 C   0  0  0  0  0  0  0  0  0  0  0  0
    7.6646  -14.6530   21.3909 C   0  0  0  0  0  0  0  0  0  0  0  0
    8.1477  -15.1601   20.2144 C   0  0  0  0  0  0  0  0  0  0  0  0
    9.8571  -16.9327   22.8926 C   0  0  0  0  0  0  0  0  0  0  0  0
   10.2246  -17.5863   23.9113 O   0  0  0  0  0  0  0  0  0  0  0  0
    9.1614  -15.7144   23.1844 N   0  0  0  0  0  0  0  0  0  0  0  0
    8.9753  -15.2107   24.5339 C   0  0  1  0  0  0  0  0  0  0  0  0
    7.9292  -14.1186   24.3642 C   0  0  0  0  0  0  0  0  0  0  0  0
    7.5876  -13.3905   25.5748 C   0  0  0  0  0  0  0  0  0  0  0  0
    6.2643  -13.2029   25.9039 C   0  0  0  0  0  0  0  0  0  0  0  0
    5.8914  -12.5105   27.0610 C   0  0  0  0  0  0  0  0  0  0  0  0
    6.8578  -12.0009   27.8965 C   0  0  0  0  0  0  0  0  0  0  0  0
    8.1826  -12.1879   27.5683 C   0  0  0  0  0  0  0  0  0  0  0  0
    8.5318  -12.8692   26.4302 C   0  0  0  0  0  0  0  0  0  0  0  0
    8.4585  -16.2114   25.4783 C   0  0  0  0  0  0  0  0  0  0  0  0
    8.5065  -15.9651   26.7112 O   0  0  0  0  0  0  0  0  0  0  0  0
    6.6489  -19.4799   25.4299 C   0  0  0  0  0  0  0  0  0  0  0  0
    7.4471  -18.3660   26.1183 C   0  0  2  0  0  0  0  0  0  0  0  0
    7.8932  -17.4653   25.1014 N   0  0  0  0  0  0  0  0  0  0  0  0
    8.5080  -18.9882   26.9183 C   0  0  0  0  0  0  0  0  0  0  0  0
    9.8161  -18.6312   26.6703 O   0  0  0  0  0  0  0  0  0  0  0  0
    8.2674  -19.8210   27.8062 O   0  0  0  0  0  0  0  0  0  0  0  0
  2  1  1  1
  2  3  1  0
  2 13  1  0
  3  4  1  0
  4  5  2  0
  6  5  1  0
  7  6  1  0
  8  7  2  0
  9  8  1  0
 10 11  1  0
 10  9  2  0
 11 12  2  0
 12  7  1  0
 12  4  1  0
 13 14  2  0
 15 13  1  0
 15 16  1  0
 16 17  1  6
 18 17  1  0
 19 18  2  0
 20 19  1  0
 21 22  1  0
 21 20  2  0
 22 23  2  0
 23 18  1  0
 24 16  1  0
 24 25  2  0
 27 26  1  6
 27 28  1  0
 28 24  1  0
 29 27  1  0
 29 30  1  0
 31 29  2  0
M  END
$$$$
