WFA.pdb
     RDKit          3D

 31 33  0  0  1  0  0  0  0  0999 V2000
    7.2308  -16.4310   21.8128 N   0  0  0  0  0  0  0  0  0  0  0  0
    8.4952  -16.8723   22.3558 C   0  0  1  0  0  0  0  0  0  0  0  0
    9.4925  -17.2953   21.3012 C   0  0  0  0  0  0  0  0  0  0  0  0
    9.0043  -18.3886   20.4449 C   0  0  0  0  0  0  0  0  0  0  0  0
    8.7262  -18.2732   19.0981 C   0  0  0  0  0  0  0  0  0  0  0  0
    8.2806  -19.4799   18.7141 N   0  0  0  0  0  0  0  0  0  0  0  0
    8.2691  -20.3403   19.7596 C   0  0  0  0  0  0  0  0  0  0  0  0
    7.9050  -21.6664   19.8547 C   0  0  0  0  0  0  0  0  0  0  0  0
    8.0098  -22.2908   21.0732 C   0  0  0  0  0  0  0  0  0  0  0  0
    8.4636  -21.6413   22.1960 C   0  0  0  0  0  0  0  0  0  0  0  0
    8.8255  -20.3229   22.1025 C   0  0  0  0  0  0  0  0  0  0  0  0
    8.7321  -19.6712   20.9021 C   0  0  0  0  0  0  0  0  0  0  0  0
    9.0146  -15.8164   23.2313 C   0  0  0  0  0  0  0  0  0  0  0  0
    9.5900  -14.7925   22.7617 O   0  0  0  0  0  0  0  0  0  0  0  0
    8.9195  -15.8445   24.6608 N   0  0  0  0  0  0  0  0  0  0  0  0
    9.9121  -15.2428   25.5339 C   0  0  1  0  0  0  0  0  0  0  0  0
    9.1234  -14.9099   26.7920 C   0  0  0  0  0  0  0  0  0  0  0  0
    8.1366  -13.8529   26.6464 C   0  0  0  0  0  0  0  0  0  0  0  0
    8.5219  -12.5394   26.7910 C   0  0  0  0  0  0  0  0  0  0  0  0
    7.6051  -11.4911   26.6564 C   0  0  0  0  0  0  0  0  0  0  0  0
    6.2873  -11.7649   26.3737 C   0  0  0  0  0  0  0  0  0  0  0  0
    5.9002  -13.0790   26.2287 C   0  0  0  0  0  0  0  0  0  0  0  0
    6.8113  -14.0955   26.3637 C   0  0  0  0  0  0  0  0  0  0  0  0
   11.0134  -16.1461   25.8970 C   0  0  0  0  0  0  0  0  0  0  0  0
   11.9373  -15.7127   26.6329 O   0  0  0  0  0  0  0  0  0  0  0  0
   11.9950  -19.7288   25.4719 C   0  0  0  0  0  0  0  0  0  0  0  0
   12.2622  -18.2708   25.8650 C   0  0  2  0  0  0  0  0  0  0  0  0
   11.1202  -17.5041   25.4748 N   0  0  0  0  0  0  0  0  0  0  0  0
   13.5342  -17.8580   25.2614 C   0  0  0  0  0  0  0  0  0  0  0  0
   13.5247  -16.8332   24.3396 O   0  0  0  0  0  0  0  0  0  0  0  0
   14.6127  -18.3985   25.5521 O   0  0  0  0  0  0  0  0  0  0  0  0
  2  1  1  6
  2  3  1  0
  2 13  1  0
  3  4  1  0
  4  5  2  0
  6  5  1  0
  7  6  1  0
  8  7  2  0
  9  8  1  0
 10 11  1  0
 10  9  2  0
 11 12  2  0
 12  7  1  0
 12  4  1  0
 13 14  2  0
 15 13  1  0
 15 16  1  0
 16 17  1  1
 18 17  1  0
 19 18  2  0
 20 19  1  0
 21 22  1  0
 21 20  2  0
 22 23  2  0
 23 18  1  0
 24 16  1  0
 24 25  2  0
 27 26  1  6
 27 28  1  0
 28 24  1  0
 29 27  1  0
 29 30  1  0
 31 29  2  0
M  END
$$$$
