WAY.pdb
     RDKit          3D

 32 34  0  0  1  0  0  0  0  0999 V2000
    7.0987  -17.0177   23.9032 N   0  0  0  0  0  0  0  0  0  0  0  0
    8.0580  -16.4322   22.9871 C   0  0  1  0  0  0  0  0  0  0  0  0
    7.5161  -15.1837   22.3294 C   0  0  0  0  0  0  0  0  0  0  0  0
    7.6683  -14.0001   23.2109 C   0  0  0  0  0  0  0  0  0  0  0  0
    8.4098  -12.8716   22.9381 C   0  0  0  0  0  0  0  0  0  0  0  0
    8.3082  -12.0026   23.9783 N   0  0  0  0  0  0  0  0  0  0  0  0
    7.5080  -12.5541   24.9257 C   0  0  0  0  0  0  0  0  0  0  0  0
    7.1031  -12.0628   26.1606 C   0  0  0  0  0  0  0  0  0  0  0  0
    6.2756  -12.8568   26.9221 C   0  0  0  0  0  0  0  0  0  0  0  0
    5.8513  -14.0987   26.4944 C   0  0  0  0  0  0  0  0  0  0  0  0
    6.2861  -14.5391   25.2535 C   0  0  0  0  0  0  0  0  0  0  0  0
    7.1154  -13.7808   24.4537 C   0  0  0  0  0  0  0  0  0  0  0  0
    9.2469  -16.0253   23.7755 C   0  0  0  0  0  0  0  0  0  0  0  0
   10.0940  -15.2851   23.2202 O   0  0  0  0  0  0  0  0  0  0  0  0
   10.7072  -14.7732   26.3138 C   0  0  0  0  0  0  0  0  0  0  0  0
   10.7487  -16.1696   25.7260 C   0  0  2  0  0  0  0  0  0  0  0  0
    9.4733  -16.4244   25.1078 N   0  0  0  0  0  0  0  0  0  0  0  0
   11.0193  -17.1873   26.7890 C   0  0  0  0  0  0  0  0  0  0  0  0
   10.8455  -16.8876   28.0025 O   0  0  0  0  0  0  0  0  0  0  0  0
   10.7472  -20.2779   21.3189 O   0  0  0  0  0  0  0  0  0  0  0  0
   10.9456  -20.4278   22.7020 C   0  0  0  0  0  0  0  0  0  0  0  0
    9.8593  -20.4632   23.5507 C   0  0  0  0  0  0  0  0  0  0  0  0
   10.0664  -20.6130   24.9281 C   0  0  0  0  0  0  0  0  0  0  0  0
   11.3338  -20.7240   25.4350 C   0  0  0  0  0  0  0  0  0  0  0  0
   11.5427  -20.8797   26.8728 C   0  0  0  0  0  0  0  0  0  0  0  0
   11.5297  -19.5041   27.5288 C   0  0  2  0  0  0  0  0  0  0  0  0
   11.4665  -18.4822   26.4700 N   0  0  0  0  0  0  0  0  0  0  0  0
   12.6845  -19.2471   28.3961 C   0  0  0  0  0  0  0  0  0  0  0  0
   13.5042  -18.3331   28.1671 O   0  0  0  0  0  0  0  0  0  0  0  0
   12.4058  -20.6876   24.5821 C   0  0  0  0  0  0  0  0  0  0  0  0
   12.2382  -20.5393   23.2014 C   0  0  0  0  0  0  0  0  0  0  0  0
   12.8943  -20.0352   29.5176 O   0  0  0  0  0  0  0  0  0  0  0  0
  2  1  1  1
  2 13  1  0
  2  3  1  0
  4  5  2  0
  4  3  1  0
  6  5  1  0
  7 12  2  0
  7  6  1  0
  8  7  1  0
  9 10  1  0
  9  8  2  0
 10 11  2  0
 11 12  1  0
 12  4  1  0
 13 14  2  0
 16 15  1  1
 17 16  1  0
 17 13  1  0
 18 16  1  0
 19 18  2  0
 20 21  1  0
 21 22  2  0
 21 31  1  0
 22 23  1  0
 23 24  2  0
 24 25  1  0
 26 25  1  6
 26 27  1  0
 26 28  1  0
 27 18  1  0
 28 32  1  0
 29 28  2  0
 30 24  1  0
 31 30  2  0
M  END
$$$$
