WAY.pdb
     RDKit          3D

 32 34  0  0  1  0  0  0  0  0999 V2000
    7.8414  -18.2693   21.1869 N   0  0  0  0  0  0  0  0  0  0  0  0
    9.0199  -17.4253   21.1568 C   0  0  1  0  0  0  0  0  0  0  0  0
    8.8371  -16.1763   21.9883 C   0  0  0  0  0  0  0  0  0  0  0  0
    7.8643  -15.2481   21.3612 C   0  0  0  0  0  0  0  0  0  0  0  0
    6.5349  -15.1133   21.6962 C   0  0  0  0  0  0  0  0  0  0  0  0
    5.9646  -14.1651   20.9069 N   0  0  0  0  0  0  0  0  0  0  0  0
    6.9094  -13.6812   20.0612 C   0  0  0  0  0  0  0  0  0  0  0  0
    6.8211  -12.7086   19.0730 C   0  0  0  0  0  0  0  0  0  0  0  0
    7.9626  -12.4192   18.3600 C   0  0  0  0  0  0  0  0  0  0  0  0
    9.1615  -13.0592   18.6010 C   0  0  0  0  0  0  0  0  0  0  0  0
    9.1923  -14.0215   19.5990 C   0  0  0  0  0  0  0  0  0  0  0  0
    8.0758  -14.3469   20.3408 C   0  0  0  0  0  0  0  0  0  0  0  0
   10.1390  -18.1885   21.7617 C   0  0  0  0  0  0  0  0  0  0  0  0
    9.8979  -18.8697   22.7873 O   0  0  0  0  0  0  0  0  0  0  0  0
   13.8221  -18.4712   21.2746 C   0  0  0  0  0  0  0  0  0  0  0  0
   12.5425  -18.6473   22.0674 C   0  0  2  0  0  0  0  0  0  0  0  0
   11.4509  -18.1885   21.2477 N   0  0  0  0  0  0  0  0  0  0  0  0
   12.5938  -17.8661   23.3425 C   0  0  0  0  0  0  0  0  0  0  0  0
   12.8631  -16.6335   23.3121 O   0  0  0  0  0  0  0  0  0  0  0  0
   10.6582  -14.0235   30.6942 O   0  0  0  0  0  0  0  0  0  0  0  0
   10.7323  -14.7541   29.4961 C   0  0  0  0  0  0  0  0  0  0  0  0
   10.3504  -16.0789   29.4762 C   0  0  0  0  0  0  0  0  0  0  0  0
   10.4276  -16.7997   28.2774 C   0  0  0  0  0  0  0  0  0  0  0  0
   10.8774  -16.2007   27.1309 C   0  0  0  0  0  0  0  0  0  0  0  0
   10.9556  -16.9584   25.8840 C   0  0  0  0  0  0  0  0  0  0  0  0
   12.3159  -17.6410   25.8017 C   0  0  2  0  0  0  0  0  0  0  0  0
   12.3479  -18.4736   24.5871 N   0  0  0  0  0  0  0  0  0  0  0  0
   12.6421  -18.4617   26.9729 C   0  0  0  0  0  0  0  0  0  0  0  0
   12.2323  -19.6342   27.1045 O   0  0  0  0  0  0  0  0  0  0  0  0
   11.2543  -14.8835   27.1626 C   0  0  0  0  0  0  0  0  0  0  0  0
   11.1911  -14.1320   28.3405 C   0  0  0  0  0  0  0  0  0  0  0  0
   13.4332  -17.9379   27.9841 O   0  0  0  0  0  0  0  0  0  0  0  0
  2  1  1  1
  2 13  1  0
  2  3  1  0
  4  5  2  0
  4  3  1  0
  6  5  1  0
  7 12  2  0
  7  6  1  0
  8  7  1  0
  9 10  1  0
  9  8  2  0
 10 11  2  0
 11 12  1  0
 12  4  1  0
 13 14  2  0
 16 15  1  6
 17 16  1  0
 17 13  1  0
 18 16  1  0
 19 18  2  0
 20 21  1  0
 21 22  2  0
 21 31  1  0
 22 23  1  0
 23 24  2  0
 24 25  1  0
 26 25  1  1
 26 27  1  0
 26 28  1  0
 27 18  1  0
 28 32  1  0
 29 28  2  0
 30 24  1  0
 31 30  2  0
M  END
$$$$
