WAY.pdb
     RDKit          3D

 32 34  0  0  1  0  0  0  0  0999 V2000
    6.5828  -17.6539   23.7324 N   0  0  0  0  0  0  0  0  0  0  0  0
    7.4497  -16.5421   23.3937 C   0  0  1  0  0  0  0  0  0  0  0  0
    8.0524  -15.9050   24.6248 C   0  0  0  0  0  0  0  0  0  0  0  0
    7.0691  -15.0384   25.3201 C   0  0  0  0  0  0  0  0  0  0  0  0
    5.9122  -15.4551   25.9412 C   0  0  0  0  0  0  0  0  0  0  0  0
    5.2701  -14.3791   26.4677 N   0  0  0  0  0  0  0  0  0  0  0  0
    5.9972  -13.2659   26.1956 C   0  0  0  0  0  0  0  0  0  0  0  0
    5.7624  -11.9350   26.5180 C   0  0  0  0  0  0  0  0  0  0  0  0
    6.6892  -11.0057   26.1027 C   0  0  0  0  0  0  0  0  0  0  0  0
    7.8174  -11.3604   25.3910 C   0  0  0  0  0  0  0  0  0  0  0  0
    8.0015  -12.7030   25.0969 C   0  0  0  0  0  0  0  0  0  0  0  0
    7.1020  -13.6717   25.4907 C   0  0  0  0  0  0  0  0  0  0  0  0
    8.5749  -17.0749   22.5868 C   0  0  0  0  0  0  0  0  0  0  0  0
    8.9460  -18.2535   22.8036 O   0  0  0  0  0  0  0  0  0  0  0  0
   10.7560  -16.1516   19.7549 C   0  0  0  0  0  0  0  0  0  0  0  0
   10.5357  -16.7617   21.1248 C   0  0  2  0  0  0  0  0  0  0  0  0
    9.2447  -16.3307   21.5953 N   0  0  0  0  0  0  0  0  0  0  0  0
   11.6036  -16.3283   22.0790 C   0  0  0  0  0  0  0  0  0  0  0  0
   11.9925  -15.1277   22.0814 O   0  0  0  0  0  0  0  0  0  0  0  0
   11.2686  -14.4773   30.1567 O   0  0  0  0  0  0  0  0  0  0  0  0
   11.1759  -14.9530   28.8377 C   0  0  0  0  0  0  0  0  0  0  0  0
   11.3657  -14.0871   27.7815 C   0  0  0  0  0  0  0  0  0  0  0  0
   11.2714  -14.5700   26.4698 C   0  0  0  0  0  0  0  0  0  0  0  0
   10.9935  -15.8895   26.2305 C   0  0  0  0  0  0  0  0  0  0  0  0
   10.8963  -16.3865   24.8599 C   0  0  0  0  0  0  0  0  0  0  0  0
   12.2680  -16.8757   24.4102 C   0  0  2  0  0  0  0  0  0  0  0  0
   12.1923  -17.2312   22.9828 N   0  0  0  0  0  0  0  0  0  0  0  0
   12.7740  -18.0183   25.1784 C   0  0  0  0  0  0  0  0  0  0  0  0
   13.6480  -17.8971   26.0623 O   0  0  0  0  0  0  0  0  0  0  0  0
   10.8068  -16.7409   27.2880 C   0  0  0  0  0  0  0  0  0  0  0  0
   10.8931  -16.2952   28.6109 C   0  0  0  0  0  0  0  0  0  0  0  0
   12.2783  -19.2896   24.9318 O   0  0  0  0  0  0  0  0  0  0  0  0
  2  1  1  1
  2 13  1  0
  2  3  1  0
  4  5  2  0
  4  3  1  0
  6  5  1  0
  7 12  2  0
  7  6  1  0
  8  7  1  0
  9 10  1  0
  9  8  2  0
 10 11  2  0
 11 12  1  0
 12  4  1  0
 13 14  2  0
 16 15  1  6
 17 16  1  0
 17 13  1  0
 18 16  1  0
 19 18  2  0
 20 21  1  0
 21 22  2  0
 21 31  1  0
 22 23  1  0
 23 24  2  0
 24 25  1  0
 26 25  1  1
 26 27  1  0
 26 28  1  0
 27 18  1  0
 28 32  1  0
 29 28  2  0
 30 24  1  0
 31 30  2  0
M  END
$$$$
