WAY.pdb
     RDKit          3D

 32 34  0  0  1  0  0  0  0  0999 V2000
    7.0406  -18.6888   24.4026 N   0  0  0  0  0  0  0  0  0  0  0  0
    7.5264  -18.3435   23.0808 C   0  0  1  0  0  0  0  0  0  0  0  0
    6.8376  -17.1145   22.5332 C   0  0  0  0  0  0  0  0  0  0  0  0
    6.1861  -16.3344   23.6140 C   0  0  0  0  0  0  0  0  0  0  0  0
    5.4569  -16.8488   24.6635 C   0  0  0  0  0  0  0  0  0  0  0  0
    5.0193  -15.8307   25.4506 N   0  0  0  0  0  0  0  0  0  0  0  0
    5.4561  -14.6586   24.9239 C   0  0  0  0  0  0  0  0  0  0  0  0
    5.2722  -13.3516   25.3579 C   0  0  0  0  0  0  0  0  0  0  0  0
    5.8411  -12.3458   24.6098 C   0  0  0  0  0  0  0  0  0  0  0  0
    6.5714  -12.6031   23.4671 C   0  0  0  0  0  0  0  0  0  0  0  0
    6.7231  -13.9261   23.0803 C   0  0  0  0  0  0  0  0  0  0  0  0
    6.1726  -14.9688   23.7960 C   0  0  0  0  0  0  0  0  0  0  0  0
    8.9682  -18.0152   23.1999 C   0  0  0  0  0  0  0  0  0  0  0  0
    9.7942  -18.9537   23.0958 O   0  0  0  0  0  0  0  0  0  0  0  0
   11.0308  -15.0054   22.8662 C   0  0  0  0  0  0  0  0  0  0  0  0
   10.8664  -16.4451   23.3103 C   0  0  2  0  0  0  0  0  0  0  0  0
    9.4557  -16.7120   23.4224 N   0  0  0  0  0  0  0  0  0  0  0  0
   11.5414  -16.6775   24.6252 C   0  0  0  0  0  0  0  0  0  0  0  0
   12.8003  -16.6309   24.7005 O   0  0  0  0  0  0  0  0  0  0  0  0
   11.8069  -11.2234   28.2550 O   0  0  0  0  0  0  0  0  0  0  0  0
   11.5631  -12.6072   28.2458 C   0  0  0  0  0  0  0  0  0  0  0  0
   12.5118  -13.4740   28.7460 C   0  0  0  0  0  0  0  0  0  0  0  0
   12.2603  -14.8521   28.7328 C   0  0  0  0  0  0  0  0  0  0  0  0
   11.0848  -15.3420   28.2292 C   0  0  0  0  0  0  0  0  0  0  0  0
   10.8290  -16.7805   28.2183 C   0  0  0  0  0  0  0  0  0  0  0  0
   11.5119  -17.3976   27.0035 C   0  0  2  0  0  0  0  0  0  0  0  0
   10.8043  -16.9493   25.7920 N   0  0  0  0  0  0  0  0  0  0  0  0
   11.5658  -18.8632   27.0312 C   0  0  0  0  0  0  0  0  0  0  0  0
   11.0853  -19.5687   26.1194 O   0  0  0  0  0  0  0  0  0  0  0  0
   10.1491  -14.4712   27.7348 C   0  0  0  0  0  0  0  0  0  0  0  0
   10.3649  -13.0893   27.7313 C   0  0  0  0  0  0  0  0  0  0  0  0
   12.1676  -19.5117   28.0990 O   0  0  0  0  0  0  0  0  0  0  0  0
  2  1  1  1
  2 13  1  0
  2  3  1  0
  4  5  2  0
  4  3  1  0
  6  5  1  0
  7 12  2  0
  7  6  1  0
  8  7  1  0
  9 10  1  0
  9  8  2  0
 10 11  2  0
 11 12  1  0
 12  4  1  0
 13 14  2  0
 16 15  1  1
 17 16  1  0
 17 13  1  0
 18 16  1  0
 19 18  2  0
 20 21  1  0
 21 22  2  0
 21 31  1  0
 22 23  1  0
 23 24  2  0
 24 25  1  0
 26 25  1  1
 26 27  1  0
 26 28  1  0
 27 18  1  0
 28 32  1  0
 29 28  2  0
 30 24  1  0
 31 30  2  0
M  END
$$$$
