WAY.pdb
     RDKit          3D

 32 34  0  0  1  0  0  0  0  0999 V2000
    7.1283  -17.7754   23.2229 N   0  0  0  0  0  0  0  0  0  0  0  0
    7.6259  -16.7537   22.3225 C   0  0  1  0  0  0  0  0  0  0  0  0
    6.5133  -15.8701   21.8066 C   0  0  0  0  0  0  0  0  0  0  0  0
    6.7111  -15.5338   20.3752 C   0  0  0  0  0  0  0  0  0  0  0  0
    6.3309  -16.3035   19.2977 C   0  0  0  0  0  0  0  0  0  0  0  0
    6.6757  -15.6692   18.1461 N   0  0  0  0  0  0  0  0  0  0  0  0
    7.2765  -14.4943   18.4629 C   0  0  0  0  0  0  0  0  0  0  0  0
    7.8015  -13.5013   17.6451 C   0  0  0  0  0  0  0  0  0  0  0  0
    8.3596  -12.4013   18.2563 C   0  0  0  0  0  0  0  0  0  0  0  0
    8.4068  -12.2687   19.6294 C   0  0  0  0  0  0  0  0  0  0  0  0
    7.8679  -13.2901   20.3971 C   0  0  0  0  0  0  0  0  0  0  0  0
    7.2979  -14.4118   19.8321 C   0  0  0  0  0  0  0  0  0  0  0  0
    8.5491  -15.8834   23.0912 C   0  0  0  0  0  0  0  0  0  0  0  0
    9.3458  -15.1593   22.4471 O   0  0  0  0  0  0  0  0  0  0  0  0
    8.8621  -14.2152   26.2374 C   0  0  0  0  0  0  0  0  0  0  0  0
    9.5675  -15.0207   25.1647 C   0  0  2  0  0  0  0  0  0  0  0  0
    8.5778  -15.8276   24.4989 N   0  0  0  0  0  0  0  0  0  0  0  0
   10.6265  -15.8923   25.7628 C   0  0  0  0  0  0  0  0  0  0  0  0
   11.6201  -15.3673   26.3370 O   0  0  0  0  0  0  0  0  0  0  0  0
   10.4975  -14.1387   31.1103 O   0  0  0  0  0  0  0  0  0  0  0  0
   10.6453  -15.2464   30.2584 C   0  0  0  0  0  0  0  0  0  0  0  0
    9.5456  -16.0111   29.9309 C   0  0  0  0  0  0  0  0  0  0  0  0
    9.7022  -17.1137   29.0808 C   0  0  0  0  0  0  0  0  0  0  0  0
   10.9336  -17.4356   28.5754 C   0  0  0  0  0  0  0  0  0  0  0  0
   11.0900  -18.5870   27.6895 C   0  0  0  0  0  0  0  0  0  0  0  0
   11.5981  -18.1068   26.3352 C   0  0  2  0  0  0  0  0  0  0  0  0
   10.5446  -17.2952   25.7020 N   0  0  0  0  0  0  0  0  0  0  0  0
   11.9985  -19.1903   25.4312 C   0  0  0  0  0  0  0  0  0  0  0  0
   11.4841  -19.3469   24.3039 O   0  0  0  0  0  0  0  0  0  0  0  0
   12.0195  -16.6683   28.9076 C   0  0  0  0  0  0  0  0  0  0  0  0
   11.9020  -15.5604   29.7532 C   0  0  0  0  0  0  0  0  0  0  0  0
   12.9826  -20.0862   25.8209 O   0  0  0  0  0  0  0  0  0  0  0  0
  2  1  1  1
  2 13  1  0
  2  3  1  0
  4  5  2  0
  4  3  1  0
  6  5  1  0
  7 12  2  0
  7  6  1  0
  8  7  1  0
  9 10  1  0
  9  8  2  0
 10 11  2  0
 11 12  1  0
 12  4  1  0
 13 14  2  0
 16 15  1  1
 17 16  1  0
 17 13  1  0
 18 16  1  0
 19 18  2  0
 20 21  1  0
 21 22  2  0
 21 31  1  0
 22 23  1  0
 23 24  2  0
 24 25  1  0
 26 25  1  1
 26 27  1  0
 26 28  1  0
 27 18  1  0
 28 32  1  0
 29 28  2  0
 30 24  1  0
 31 30  2  0
M  END
$$$$
