WAY.pdb
     RDKit          3D

 32 34  0  0  1  0  0  0  0  0999 V2000
    6.6389  -18.5882   25.5206 N   0  0  0  0  0  0  0  0  0  0  0  0
    6.8096  -17.5316   24.5424 C   0  0  1  0  0  0  0  0  0  0  0  0
    7.7424  -16.4514   25.0403 C   0  0  0  0  0  0  0  0  0  0  0  0
    6.9897  -15.3262   25.6473 C   0  0  0  0  0  0  0  0  0  0  0  0
    5.8151  -15.4230   26.3607 C   0  0  0  0  0  0  0  0  0  0  0  0
    5.4263  -14.1833   26.7600 N   0  0  0  0  0  0  0  0  0  0  0  0
    6.3359  -13.2803   26.3137 C   0  0  0  0  0  0  0  0  0  0  0  0
    6.3822  -11.8996   26.4616 C   0  0  0  0  0  0  0  0  0  0  0  0
    7.4430  -11.2329   25.8910 C   0  0  0  0  0  0  0  0  0  0  0  0
    8.4352  -11.8916   25.1933 C   0  0  0  0  0  0  0  0  0  0  0  0
    8.3386  -13.2699   25.0768 C   0  0  0  0  0  0  0  0  0  0  0  0
    7.2957  -13.9830   25.6303 C   0  0  0  0  0  0  0  0  0  0  0  0
    7.4394  -18.1268   23.3384 C   0  0  0  0  0  0  0  0  0  0  0  0
    8.3020  -19.0217   23.5089 O   0  0  0  0  0  0  0  0  0  0  0  0
    7.0573  -18.1113   19.6622 C   0  0  0  0  0  0  0  0  0  0  0  0
    7.8941  -18.2526   20.9180 C   0  0  2  0  0  0  0  0  0  0  0  0
    7.1215  -17.7418   22.0207 N   0  0  0  0  0  0  0  0  0  0  0  0
    9.1771  -17.4933   20.7915 C   0  0  0  0  0  0  0  0  0  0  0  0
    9.9768  -17.7655   19.8540 O   0  0  0  0  0  0  0  0  0  0  0  0
    6.5869  -12.9046   17.6612 O   0  0  0  0  0  0  0  0  0  0  0  0
    7.5419  -13.2315   18.6389 C   0  0  0  0  0  0  0  0  0  0  0  0
    8.8519  -13.4540   18.2704 C   0  0  0  0  0  0  0  0  0  0  0  0
    9.7972  -13.7795   19.2517 C   0  0  0  0  0  0  0  0  0  0  0  0
    9.4312  -13.8777   20.5678 C   0  0  0  0  0  0  0  0  0  0  0  0
   10.4223  -14.2178   21.5862 C   0  0  0  0  0  0  0  0  0  0  0  0
   10.7552  -15.7013   21.4799 C   0  0  2  0  0  0  0  0  0  0  0  0
    9.5203  -16.4739   21.6980 N   0  0  0  0  0  0  0  0  0  0  0  0
   11.7904  -16.1478   22.4183 C   0  0  0  0  0  0  0  0  0  0  0  0
   12.9639  -15.7225   22.3735 O   0  0  0  0  0  0  0  0  0  0  0  0
    8.1264  -13.6543   20.9223 C   0  0  0  0  0  0  0  0  0  0  0  0
    7.1549  -13.3274   19.9707 C   0  0  0  0  0  0  0  0  0  0  0  0
   11.4781  -17.0759   23.4001 O   0  0  0  0  0  0  0  0  0  0  0  0
  2  1  1  1
  2 13  1  0
  2  3  1  0
  4  5  2  0
  4  3  1  0
  6  5  1  0
  7 12  2  0
  7  6  1  0
  8  7  1  0
  9 10  1  0
  9  8  2  0
 10 11  2  0
 11 12  1  0
 12  4  1  0
 13 14  2  0
 16 15  1  6
 17 16  1  0
 17 13  1  0
 18 16  1  0
 19 18  2  0
 20 21  1  0
 21 22  2  0
 21 31  1  0
 22 23  1  0
 23 24  2  0
 24 25  1  0
 26 25  1  1
 26 27  1  0
 26 28  1  0
 27 18  1  0
 28 32  1  0
 29 28  2  0
 30 24  1  0
 31 30  2  0
M  END
$$$$
