WAY.pdb
     RDKit          3D

 32 34  0  0  1  0  0  0  0  0999 V2000
    7.1724  -17.6075   24.3047 N   0  0  0  0  0  0  0  0  0  0  0  0
    7.9173  -16.4754   23.7891 C   0  0  1  0  0  0  0  0  0  0  0  0
    8.4809  -15.6208   24.9012 C   0  0  0  0  0  0  0  0  0  0  0  0
    7.4202  -14.8112   25.5499 C   0  0  0  0  0  0  0  0  0  0  0  0
    6.4828  -15.2681   26.4499 C   0  0  0  0  0  0  0  0  0  0  0  0
    5.6802  -14.2381   26.8274 N   0  0  0  0  0  0  0  0  0  0  0  0
    6.0857  -13.1152   26.1820 C   0  0  0  0  0  0  0  0  0  0  0  0
    5.5897  -11.8183   26.2320 C   0  0  0  0  0  0  0  0  0  0  0  0
    6.2121  -10.8677   25.4547 C   0  0  0  0  0  0  0  0  0  0  0  0
    7.2907  -11.1695   24.6480 C   0  0  0  0  0  0  0  0  0  0  0  0
    7.7440  -12.4799   24.6369 C   0  0  0  0  0  0  0  0  0  0  0  0
    7.1544  -13.4680   25.3976 C   0  0  0  0  0  0  0  0  0  0  0  0
    9.0716  -17.0045   23.0220 C   0  0  0  0  0  0  0  0  0  0  0  0
    9.4224  -18.1904   23.2330 O   0  0  0  0  0  0  0  0  0  0  0  0
   10.9687  -16.0824   20.0037 C   0  0  0  0  0  0  0  0  0  0  0  0
   10.8164  -16.8792   21.2839 C   0  0  2  0  0  0  0  0  0  0  0  0
    9.7905  -16.2492   22.0742 N   0  0  0  0  0  0  0  0  0  0  0  0
   12.1041  -16.9160   22.0450 C   0  0  0  0  0  0  0  0  0  0  0  0
   12.8354  -17.9431   21.9903 O   0  0  0  0  0  0  0  0  0  0  0  0
   11.0577  -15.8087   30.4230 O   0  0  0  0  0  0  0  0  0  0  0  0
   11.0691  -15.8718   29.0193 C   0  0  0  0  0  0  0  0  0  0  0  0
   11.0931  -14.7076   28.2807 C   0  0  0  0  0  0  0  0  0  0  0  0
   11.1043  -14.7799   26.8817 C   0  0  0  0  0  0  0  0  0  0  0  0
   11.0915  -15.9926   26.2457 C   0  0  0  0  0  0  0  0  0  0  0  0
   11.1030  -16.0608   24.7862 C   0  0  0  0  0  0  0  0  0  0  0  0
   12.5421  -15.9563   24.2950 C   0  0  2  0  0  0  0  0  0  0  0  0
   12.5266  -15.8265   22.8279 N   0  0  0  0  0  0  0  0  0  0  0  0
   13.3873  -17.0909   24.6824 C   0  0  0  0  0  0  0  0  0  0  0  0
   14.3931  -16.9590   25.4109 O   0  0  0  0  0  0  0  0  0  0  0  0
   11.0677  -17.1432   26.9899 C   0  0  0  0  0  0  0  0  0  0  0  0
   11.0559  -17.1105   28.3881 C   0  0  0  0  0  0  0  0  0  0  0  0
   13.0777  -18.3665   24.2354 O   0  0  0  0  0  0  0  0  0  0  0  0
  2  1  1  1
  2 13  1  0
  2  3  1  0
  4  5  2  0
  4  3  1  0
  6  5  1  0
  7 12  2  0
  7  6  1  0
  8  7  1  0
  9 10  1  0
  9  8  2  0
 10 11  2  0
 11 12  1  0
 12  4  1  0
 13 14  2  0
 16 15  1  6
 17 16  1  0
 17 13  1  0
 18 16  1  0
 19 18  2  0
 20 21  1  0
 21 22  2  0
 21 31  1  0
 22 23  1  0
 23 24  2  0
 24 25  1  0
 26 25  1  6
 26 27  1  0
 26 28  1  0
 27 18  1  0
 28 32  1  0
 29 28  2  0
 30 24  1  0
 31 30  2  0
M  END
$$$$
