WAY.pdb
     RDKit          3D

 32 34  0  0  1  0  0  0  0  0999 V2000
    7.3808  -17.6071   26.4636 N   0  0  0  0  0  0  0  0  0  0  0  0
    7.1743  -16.5723   25.4691 C   0  0  1  0  0  0  0  0  0  0  0  0
    8.3306  -15.5999   25.4226 C   0  0  0  0  0  0  0  0  0  0  0  0
    8.2854  -14.6528   26.5638 C   0  0  0  0  0  0  0  0  0  0  0  0
    9.1224  -14.6557   27.6580 C   0  0  0  0  0  0  0  0  0  0  0  0
    8.7786  -13.6386   28.4916 N   0  0  0  0  0  0  0  0  0  0  0  0
    7.7261  -12.9737   27.9512 C   0  0  0  0  0  0  0  0  0  0  0  0
    7.0203  -11.8718   28.4182 C   0  0  0  0  0  0  0  0  0  0  0  0
    5.9812  -11.4060   27.6447 C   0  0  0  0  0  0  0  0  0  0  0  0
    5.6356  -11.9964   26.4459 C   0  0  0  0  0  0  0  0  0  0  0  0
    6.3740  -13.0932   26.0280 C   0  0  0  0  0  0  0  0  0  0  0  0
    7.4237  -13.5972   26.7672 C   0  0  0  0  0  0  0  0  0  0  0  0
    7.1063  -17.2284   24.1404 C   0  0  0  0  0  0  0  0  0  0  0  0
    7.5502  -18.3974   24.0398 O   0  0  0  0  0  0  0  0  0  0  0  0
    5.6911  -16.6483   20.7726 C   0  0  0  0  0  0  0  0  0  0  0  0
    6.7372  -17.2301   21.7022 C   0  0  2  0  0  0  0  0  0  0  0  0
    6.5724  -16.6108   22.9919 N   0  0  0  0  0  0  0  0  0  0  0  0
    8.1157  -16.9745   21.1796 C   0  0  0  0  0  0  0  0  0  0  0  0
    8.4842  -17.5069   20.0964 O   0  0  0  0  0  0  0  0  0  0  0  0
    7.1627  -13.1621   16.7266 O   0  0  0  0  0  0  0  0  0  0  0  0
    8.0192  -13.5009   17.7879 C   0  0  0  0  0  0  0  0  0  0  0  0
    7.7141  -13.0977   19.0708 C   0  0  0  0  0  0  0  0  0  0  0  0
    8.5736  -13.4400   20.1228 C   0  0  0  0  0  0  0  0  0  0  0  0
    9.7090  -14.1686   19.8871 C   0  0  0  0  0  0  0  0  0  0  0  0
   10.6013  -14.5220   20.9889 C   0  0  0  0  0  0  0  0  0  0  0  0
   10.3903  -15.9879   21.3488 C   0  0  2  0  0  0  0  0  0  0  0  0
    9.0218  -16.1487   21.8693 N   0  0  0  0  0  0  0  0  0  0  0  0
   11.3549  -16.5062   22.3247 C   0  0  0  0  0  0  0  0  0  0  0  0
   11.0053  -16.9765   23.4277 O   0  0  0  0  0  0  0  0  0  0  0  0
   10.0021  -14.5640   18.6080 C   0  0  0  0  0  0  0  0  0  0  0  0
    9.1681  -14.2411   17.5327 C   0  0  0  0  0  0  0  0  0  0  0  0
   12.7106  -16.4838   22.0340 O   0  0  0  0  0  0  0  0  0  0  0  0
  2  1  1  1
  2 13  1  0
  2  3  1  0
  4  5  2  0
  4  3  1  0
  6  5  1  0
  7 12  2  0
  7  6  1  0
  8  7  1  0
  9 10  1  0
  9  8  2  0
 10 11  2  0
 11 12  1  0
 12  4  1  0
 13 14  2  0
 16 15  1  6
 17 16  1  0
 17 13  1  0
 18 16  1  0
 19 18  2  0
 20 21  1  0
 21 22  2  0
 21 31  1  0
 22 23  1  0
 23 24  2  0
 24 25  1  0
 26 25  1  1
 26 27  1  0
 26 28  1  0
 27 18  1  0
 28 32  1  0
 29 28  2  0
 30 24  1  0
 31 30  2  0
M  END
$$$$
