WAY.pdb
     RDKit          3D

 32 34  0  0  1  0  0  0  0  0999 V2000
    7.0367  -18.6881   20.8632 N   0  0  0  0  0  0  0  0  0  0  0  0
    6.9538  -17.5792   21.7937 C   0  0  1  0  0  0  0  0  0  0  0  0
    5.8510  -16.6150   21.4209 C   0  0  0  0  0  0  0  0  0  0  0  0
    6.3375  -15.5768   20.4792 C   0  0  0  0  0  0  0  0  0  0  0  0
    6.2159  -15.6005   19.1072 C   0  0  0  0  0  0  0  0  0  0  0  0
    6.7782  -14.4787   18.5850 N   0  0  0  0  0  0  0  0  0  0  0  0
    7.2648  -13.7248   19.6033 C   0  0  0  0  0  0  0  0  0  0  0  0
    7.9224  -12.5011   19.5841 C   0  0  0  0  0  0  0  0  0  0  0  0
    8.3071  -11.9655   20.7925 C   0  0  0  0  0  0  0  0  0  0  0  0
    8.0590  -12.6032   21.9912 C   0  0  0  0  0  0  0  0  0  0  0  0
    7.3992  -13.8222   21.9513 C   0  0  0  0  0  0  0  0  0  0  0  0
    6.9937  -14.3999   20.7663 C   0  0  0  0  0  0  0  0  0  0  0  0
    6.6135  -18.1319   23.1276 C   0  0  0  0  0  0  0  0  0  0  0  0
    5.4007  -18.3004   23.4009 O   0  0  0  0  0  0  0  0  0  0  0  0
    7.5471  -18.8600   26.4549 C   0  0  0  0  0  0  0  0  0  0  0  0
    7.5829  -17.8016   25.3708 C   0  0  2  0  0  0  0  0  0  0  0  0
    7.5755  -18.4755   24.0981 N   0  0  0  0  0  0  0  0  0  0  0  0
    8.8074  -16.9509   25.4969 C   0  0  0  0  0  0  0  0  0  0  0  0
    8.9042  -16.1290   26.4496 O   0  0  0  0  0  0  0  0  0  0  0  0
    8.3405  -13.7993   29.9194 O   0  0  0  0  0  0  0  0  0  0  0  0
    9.1575  -14.4402   28.9727 C   0  0  0  0  0  0  0  0  0  0  0  0
    9.4027  -13.8362   27.7576 C   0  0  0  0  0  0  0  0  0  0  0  0
   10.2183  -14.4824   26.8197 C   0  0  0  0  0  0  0  0  0  0  0  0
   10.7711  -15.7037   27.0997 C   0  0  0  0  0  0  0  0  0  0  0  0
   11.6207  -16.3722   26.1168 C   0  0  0  0  0  0  0  0  0  0  0  0
   11.0337  -16.1602   24.7263 C   0  0  2  0  0  0  0  0  0  0  0  0
    9.8644  -17.0428   24.5734 N   0  0  0  0  0  0  0  0  0  0  0  0
   11.9836  -16.4041   23.6355 C   0  0  0  0  0  0  0  0  0  0  0  0
   13.0801  -15.8112   23.5568 O   0  0  0  0  0  0  0  0  0  0  0  0
   10.5206  -16.2945   28.3106 C   0  0  0  0  0  0  0  0  0  0  0  0
    9.7114  -15.6798   29.2717 C   0  0  0  0  0  0  0  0  0  0  0  0
   11.6746  -17.3225   22.6436 O   0  0  0  0  0  0  0  0  0  0  0  0
  2  1  1  6
  2 13  1  0
  2  3  1  0
  4  5  2  0
  4  3  1  0
  6  5  1  0
  7 12  2  0
  7  6  1  0
  8  7  1  0
  9 10  1  0
  9  8  2  0
 10 11  2  0
 11 12  1  0
 12  4  1  0
 13 14  2  0
 16 15  1  1
 17 16  1  0
 17 13  1  0
 18 16  1  0
 19 18  2  0
 20 21  1  0
 21 22  2  0
 21 31  1  0
 22 23  1  0
 23 24  2  0
 24 25  1  0
 26 25  1  1
 26 27  1  0
 26 28  1  0
 27 18  1  0
 28 32  1  0
 29 28  2  0
 30 24  1  0
 31 30  2  0
M  END
$$$$
