WAY.pdb
     RDKit          3D

 32 34  0  0  1  0  0  0  0  0999 V2000
    6.2877  -19.0392   19.6007 N   0  0  0  0  0  0  0  0  0  0  0  0
    7.0339  -17.8182   19.8345 C   0  0  1  0  0  0  0  0  0  0  0  0
    6.1205  -16.6253   19.9999 C   0  0  0  0  0  0  0  0  0  0  0  0
    6.8934  -15.3619   20.0876 C   0  0  0  0  0  0  0  0  0  0  0  0
    7.5418  -14.7302   19.0492 C   0  0  0  0  0  0  0  0  0  0  0  0
    8.1382  -13.5995   19.5109 N   0  0  0  0  0  0  0  0  0  0  0  0
    7.8847  -13.4887   20.8396 C   0  0  0  0  0  0  0  0  0  0  0  0
    8.2726  -12.5163   21.7530 C   0  0  0  0  0  0  0  0  0  0  0  0
    7.8612  -12.6675   23.0579 C   0  0  0  0  0  0  0  0  0  0  0  0
    7.0912  -13.7378   23.4663 C   0  0  0  0  0  0  0  0  0  0  0  0
    6.7329  -14.6785   22.5126 C   0  0  0  0  0  0  0  0  0  0  0  0
    7.1202  -14.5715   21.1931 C   0  0  0  0  0  0  0  0  0  0  0  0
    7.7741  -17.9772   21.1103 C   0  0  0  0  0  0  0  0  0  0  0  0
    7.1116  -18.2284   22.1457 O   0  0  0  0  0  0  0  0  0  0  0  0
   10.8986  -19.0623   22.3543 C   0  0  0  0  0  0  0  0  0  0  0  0
    9.8090  -18.0192   22.5024 C   0  0  2  0  0  0  0  0  0  0  0  0
    9.1741  -17.8616   21.2194 N   0  0  0  0  0  0  0  0  0  0  0  0
   10.3798  -16.7137   22.9593 C   0  0  0  0  0  0  0  0  0  0  0  0
   10.8833  -15.9205   22.1167 O   0  0  0  0  0  0  0  0  0  0  0  0
   10.3278  -17.3037   30.5700 O   0  0  0  0  0  0  0  0  0  0  0  0
   10.2553  -16.5802   29.3675 C   0  0  0  0  0  0  0  0  0  0  0  0
    9.5023  -17.0660   28.3194 C   0  0  0  0  0  0  0  0  0  0  0  0
    9.4356  -16.3382   27.1243 C   0  0  0  0  0  0  0  0  0  0  0  0
   10.1096  -15.1536   26.9903 C   0  0  0  0  0  0  0  0  0  0  0  0
   10.0360  -14.3996   25.7408 C   0  0  0  0  0  0  0  0  0  0  0  0
   10.9547  -15.0497   24.7131 C   0  0  2  0  0  0  0  0  0  0  0  0
   10.3707  -16.3423   24.3159 N   0  0  0  0  0  0  0  0  0  0  0  0
   12.3284  -15.2519   25.1860 C   0  0  0  0  0  0  0  0  0  0  0  0
   13.1067  -14.3011   25.4100 O   0  0  0  0  0  0  0  0  0  0  0  0
   10.8548  -14.6804   28.0386 C   0  0  0  0  0  0  0  0  0  0  0  0
   10.9451  -15.3792   29.2468 C   0  0  0  0  0  0  0  0  0  0  0  0
   12.8027  -16.5373   25.3996 O   0  0  0  0  0  0  0  0  0  0  0  0
  2  1  1  1
  2 13  1  0
  2  3  1  0
  4  5  2  0
  4  3  1  0
  6  5  1  0
  7 12  2  0
  7  6  1  0
  8  7  1  0
  9 10  1  0
  9  8  2  0
 10 11  2  0
 11 12  1  0
 12  4  1  0
 13 14  2  0
 16 15  1  6
 17 16  1  0
 17 13  1  0
 18 16  1  0
 19 18  2  0
 20 21  1  0
 21 22  2  0
 21 31  1  0
 22 23  1  0
 23 24  2  0
 24 25  1  0
 26 25  1  1
 26 27  1  0
 26 28  1  0
 27 18  1  0
 28 32  1  0
 29 28  2  0
 30 24  1  0
 31 30  2  0
M  END
$$$$
