WAY.pdb
     RDKit          3D

 32 34  0  0  1  0  0  0  0  0999 V2000
    7.2365  -18.2118   22.0019 N   0  0  0  0  0  0  0  0  0  0  0  0
    8.3665  -17.3246   22.1976 C   0  0  1  0  0  0  0  0  0  0  0  0
    7.9338  -15.9687   22.7066 C   0  0  0  0  0  0  0  0  0  0  0  0
    7.3562  -15.1428   21.6178 C   0  0  0  0  0  0  0  0  0  0  0  0
    6.0532  -15.1789   21.1720 C   0  0  0  0  0  0  0  0  0  0  0  0
    5.8958  -14.2796   20.1651 N   0  0  0  0  0  0  0  0  0  0  0  0
    7.0833  -13.6584   19.9507 C   0  0  0  0  0  0  0  0  0  0  0  0
    7.4317  -12.6708   19.0377 C   0  0  0  0  0  0  0  0  0  0  0  0
    8.7336  -12.2236   19.0487 C   0  0  0  0  0  0  0  0  0  0  0  0
    9.6749  -12.7236   19.9256 C   0  0  0  0  0  0  0  0  0  0  0  0
    9.2721  -13.7081   20.8152 C   0  0  0  0  0  0  0  0  0  0  0  0
    7.9797  -14.1891   20.8433 C   0  0  0  0  0  0  0  0  0  0  0  0
    9.2357  -17.9218   23.2409 C   0  0  0  0  0  0  0  0  0  0  0  0
    8.6871  -18.5910   24.1492 O   0  0  0  0  0  0  0  0  0  0  0  0
   12.6898  -18.8676   23.8145 C   0  0  0  0  0  0  0  0  0  0  0  0
   11.3941  -18.3096   24.3686 C   0  0  2  0  0  0  0  0  0  0  0  0
   10.6372  -17.7777   23.2649 N   0  0  0  0  0  0  0  0  0  0  0  0
   11.6637  -17.2353   25.3745 C   0  0  0  0  0  0  0  0  0  0  0  0
   12.5149  -16.3386   25.1213 O   0  0  0  0  0  0  0  0  0  0  0  0
    5.6026  -13.6966   26.4891 O   0  0  0  0  0  0  0  0  0  0  0  0
    6.9777  -13.9680   26.5903 C   0  0  0  0  0  0  0  0  0  0  0  0
    7.7518  -13.2616   27.4864 C   0  0  0  0  0  0  0  0  0  0  0  0
    9.1219  -13.5387   27.5806 C   0  0  0  0  0  0  0  0  0  0  0  0
    9.6947  -14.5014   26.7929 C   0  0  0  0  0  0  0  0  0  0  0  0
   11.1243  -14.7852   26.8960 C   0  0  0  0  0  0  0  0  0  0  0  0
   11.3151  -16.1360   27.5758 C   0  0  2  0  0  0  0  0  0  0  0  0
   10.9878  -17.1965   26.6075 N   0  0  0  0  0  0  0  0  0  0  0  0
   10.5116  -16.3100   28.7906 C   0  0  0  0  0  0  0  0  0  0  0  0
    9.6672  -17.2224   28.9104 O   0  0  0  0  0  0  0  0  0  0  0  0
    8.9155  -15.1972   25.9058 C   0  0  0  0  0  0  0  0  0  0  0  0
    7.5446  -14.9483   25.7838 C   0  0  0  0  0  0  0  0  0  0  0  0
   10.6783  -15.4415   29.8587 O   0  0  0  0  0  0  0  0  0  0  0  0
  2  1  1  1
  2 13  1  0
  2  3  1  0
  4  5  2  0
  4  3  1  0
  6  5  1  0
  7 12  2  0
  7  6  1  0
  8  7  1  0
  9 10  1  0
  9  8  2  0
 10 11  2  0
 11 12  1  0
 12  4  1  0
 13 14  2  0
 16 15  1  6
 17 16  1  0
 17 13  1  0
 18 16  1  0
 19 18  2  0
 20 21  1  0
 21 22  2  0
 21 31  1  0
 22 23  1  0
 23 24  2  0
 24 25  1  0
 26 25  1  6
 26 27  1  0
 26 28  1  0
 27 18  1  0
 28 32  1  0
 29 28  2  0
 30 24  1  0
 31 30  2  0
M  END
$$$$
