WAY.pdb
     RDKit          3D

 32 34  0  0  1  0  0  0  0  0999 V2000
    6.4053  -20.0659   21.1828 N   0  0  0  0  0  0  0  0  0  0  0  0
    6.6024  -19.1153   22.2598 C   0  0  1  0  0  0  0  0  0  0  0  0
    7.6846  -19.5651   23.2144 C   0  0  0  0  0  0  0  0  0  0  0  0
    7.1075  -20.2173   24.4156 C   0  0  0  0  0  0  0  0  0  0  0  0
    6.6366  -21.5096   24.4936 C   0  0  0  0  0  0  0  0  0  0  0  0
    6.1873  -21.7508   25.7535 N   0  0  0  0  0  0  0  0  0  0  0  0
    6.3610  -20.6285   26.4967 C   0  0  0  0  0  0  0  0  0  0  0  0
    6.0617  -20.3750   27.8295 C   0  0  0  0  0  0  0  0  0  0  0  0
    6.3530  -19.1226   28.3210 C   0  0  0  0  0  0  0  0  0  0  0  0
    6.9217  -18.1394   27.5366 C   0  0  0  0  0  0  0  0  0  0  0  0
    7.1994  -18.4472   26.2133 C   0  0  0  0  0  0  0  0  0  0  0  0
    6.9261  -19.6871   25.6743 C   0  0  0  0  0  0  0  0  0  0  0  0
    7.0586  -17.8381   21.6586 C   0  0  0  0  0  0  0  0  0  0  0  0
    7.8341  -17.8969   20.6742 O   0  0  0  0  0  0  0  0  0  0  0  0
    6.4109  -14.2563   21.5987 C   0  0  0  0  0  0  0  0  0  0  0  0
    7.4004  -15.3970   21.7285 C   0  0  2  0  0  0  0  0  0  0  0  0
    6.6686  -16.5697   22.1325 N   0  0  0  0  0  0  0  0  0  0  0  0
    8.4561  -15.0743   22.7385 C   0  0  0  0  0  0  0  0  0  0  0  0
    9.2323  -14.0984   22.5440 O   0  0  0  0  0  0  0  0  0  0  0  0
    5.1417  -11.4314   26.5076 O   0  0  0  0  0  0  0  0  0  0  0  0
    6.1248  -12.4337   26.4473 C   0  0  0  0  0  0  0  0  0  0  0  0
    5.8222  -13.6582   25.8901 C   0  0  0  0  0  0  0  0  0  0  0  0
    6.8084  -14.6517   25.8342 C   0  0  0  0  0  0  0  0  0  0  0  0
    8.0645  -14.4163   26.3265 C   0  0  0  0  0  0  0  0  0  0  0  0
    9.0883  -15.4570   26.2651 C   0  0  0  0  0  0  0  0  0  0  0  0
    9.6800  -15.4899   24.8609 C   0  0  2  0  0  0  0  0  0  0  0  0
    8.6092  -15.8364   23.9108 N   0  0  0  0  0  0  0  0  0  0  0  0
   10.7989  -16.4261   24.7081 C   0  0  0  0  0  0  0  0  0  0  0  0
   10.7867  -17.3542   23.8724 O   0  0  0  0  0  0  0  0  0  0  0  0
    8.3539  -13.1955   26.8779 C   0  0  0  0  0  0  0  0  0  0  0  0
    7.3953  -12.1796   26.9513 C   0  0  0  0  0  0  0  0  0  0  0  0
   11.9226  -16.2955   25.5101 O   0  0  0  0  0  0  0  0  0  0  0  0
  2  1  1  6
  2 13  1  0
  2  3  1  0
  4  5  2  0
  4  3  1  0
  6  5  1  0
  7 12  2  0
  7  6  1  0
  8  7  1  0
  9 10  1  0
  9  8  2  0
 10 11  2  0
 11 12  1  0
 12  4  1  0
 13 14  2  0
 16 15  1  1
 17 16  1  0
 17 13  1  0
 18 16  1  0
 19 18  2  0
 20 21  1  0
 21 22  2  0
 21 31  1  0
 22 23  1  0
 23 24  2  0
 24 25  1  0
 26 25  1  1
 26 27  1  0
 26 28  1  0
 27 18  1  0
 28 32  1  0
 29 28  2  0
 30 24  1  0
 31 30  2  0
M  END
$$$$
