WAY.pdb
     RDKit          3D

 32 34  0  0  1  0  0  0  0  0999 V2000
    8.1803  -16.7004   25.5986 N   0  0  0  0  0  0  0  0  0  0  0  0
    7.3283  -17.1505   24.5151 C   0  0  1  0  0  0  0  0  0  0  0  0
    6.1714  -16.2061   24.2816 C   0  0  0  0  0  0  0  0  0  0  0  0
    6.6389  -14.8053   24.1384 C   0  0  0  0  0  0  0  0  0  0  0  0
    7.3478  -14.2879   23.0765 C   0  0  0  0  0  0  0  0  0  0  0  0
    7.5953  -12.9700   23.2987 N   0  0  0  0  0  0  0  0  0  0  0  0
    7.0547  -12.6242   24.4945 C   0  0  0  0  0  0  0  0  0  0  0  0
    7.0409  -11.4035   25.1579 C   0  0  0  0  0  0  0  0  0  0  0  0
    6.4067  -11.3488   26.3786 C   0  0  0  0  0  0  0  0  0  0  0  0
    5.8003  -12.4535   26.9417 C   0  0  0  0  0  0  0  0  0  0  0  0
    5.8446  -13.6463   26.2358 C   0  0  0  0  0  0  0  0  0  0  0  0
    6.4675  -13.7519   25.0096 C   0  0  0  0  0  0  0  0  0  0  0  0
    8.1400  -17.1566   23.2734 C   0  0  0  0  0  0  0  0  0  0  0  0
    7.7166  -17.8235   22.2989 O   0  0  0  0  0  0  0  0  0  0  0  0
   10.4692  -16.0702   21.0556 C   0  0  0  0  0  0  0  0  0  0  0  0
   10.3848  -16.9743   22.2692 C   0  0  2  0  0  0  0  0  0  0  0  0
    9.3547  -16.4565   23.1322 N   0  0  0  0  0  0  0  0  0  0  0  0
   11.6927  -17.0159   22.9946 C   0  0  0  0  0  0  0  0  0  0  0  0
   12.6954  -16.4191   22.5139 O   0  0  0  0  0  0  0  0  0  0  0  0
    9.4093  -15.0937   29.8168 O   0  0  0  0  0  0  0  0  0  0  0  0
   10.2698  -15.2867   28.7227 C   0  0  0  0  0  0  0  0  0  0  0  0
   11.4088  -16.0493   28.8724 C   0  0  0  0  0  0  0  0  0  0  0  0
   12.2609  -16.2365   27.7763 C   0  0  0  0  0  0  0  0  0  0  0  0
   11.9720  -15.6702   26.5633 C   0  0  0  0  0  0  0  0  0  0  0  0
   12.8652  -15.8692   25.4242 C   0  0  0  0  0  0  0  0  0  0  0  0
   12.9479  -17.3587   25.1117 C   0  0  2  0  0  0  0  0  0  0  0  0
   11.8374  -17.7091   24.2100 N   0  0  0  0  0  0  0  0  0  0  0  0
   12.9114  -18.2191   26.2992 C   0  0  0  0  0  0  0  0  0  0  0  0
   11.9924  -19.0397   26.5040 O   0  0  0  0  0  0  0  0  0  0  0  0
   10.8371  -14.9143   26.4262 C   0  0  0  0  0  0  0  0  0  0  0  0
    9.9628  -14.7053   27.4977 C   0  0  0  0  0  0  0  0  0  0  0  0
   13.9238  -18.1361   27.2431 O   0  0  0  0  0  0  0  0  0  0  0  0
  2  1  1  1
  2 13  1  0
  2  3  1  0
  4  5  2  0
  4  3  1  0
  6  5  1  0
  7 12  2  0
  7  6  1  0
  8  7  1  0
  9 10  1  0
  9  8  2  0
 10 11  2  0
 11 12  1  0
 12  4  1  0
 13 14  2  0
 16 15  1  6
 17 16  1  0
 17 13  1  0
 18 16  1  0
 19 18  2  0
 20 21  1  0
 21 22  2  0
 21 31  1  0
 22 23  1  0
 23 24  2  0
 24 25  1  0
 26 25  1  1
 26 27  1  0
 26 28  1  0
 27 18  1  0
 28 32  1  0
 29 28  2  0
 30 24  1  0
 31 30  2  0
M  END
$$$$
