WAY.pdb
     RDKit          3D

 32 34  0  0  1  0  0  0  0  0999 V2000
    6.7719  -17.7750   24.0830 N   0  0  0  0  0  0  0  0  0  0  0  0
    7.5677  -16.6501   23.6319 C   0  0  1  0  0  0  0  0  0  0  0  0
    8.1863  -15.9002   24.7893 C   0  0  0  0  0  0  0  0  0  0  0  0
    7.2283  -14.9330   25.3793 C   0  0  0  0  0  0  0  0  0  0  0  0
    6.1033  -15.2444   26.1109 C   0  0  0  0  0  0  0  0  0  0  0  0
    5.4770  -14.0977   26.4854 N   0  0  0  0  0  0  0  0  0  0  0  0
    6.1829  -13.0428   26.0049 C   0  0  0  0  0  0  0  0  0  0  0  0
    5.9525  -11.6774   26.1187 C   0  0  0  0  0  0  0  0  0  0  0  0
    6.8529  -10.8270   25.5176 C   0  0  0  0  0  0  0  0  0  0  0  0
    7.9511  -11.2916   24.8225 C   0  0  0  0  0  0  0  0  0  0  0  0
    8.1321  -12.6640   24.7407 C   0  0  0  0  0  0  0  0  0  0  0  0
    7.2583  -13.5566   25.3256 C   0  0  0  0  0  0  0  0  0  0  0  0
    8.6850  -17.1845   22.8153 C   0  0  0  0  0  0  0  0  0  0  0  0
    9.1218  -18.3270   23.0944 O   0  0  0  0  0  0  0  0  0  0  0  0
   10.7558  -16.1678   19.8988 C   0  0  0  0  0  0  0  0  0  0  0  0
   10.5048  -16.9597   21.1665 C   0  0  2  0  0  0  0  0  0  0  0  0
    9.2781  -16.4801   21.7487 N   0  0  0  0  0  0  0  0  0  0  0  0
   11.6348  -16.7909   22.1326 C   0  0  0  0  0  0  0  0  0  0  0  0
   12.7946  -17.1731   21.8138 O   0  0  0  0  0  0  0  0  0  0  0  0
   10.1941  -16.7754   30.0510 O   0  0  0  0  0  0  0  0  0  0  0  0
   10.7166  -16.2861   28.8418 C   0  0  0  0  0  0  0  0  0  0  0  0
    9.9887  -15.3832   28.0959 C   0  0  0  0  0  0  0  0  0  0  0  0
   10.5173  -14.9006   26.8916 C   0  0  0  0  0  0  0  0  0  0  0  0
   11.7456  -15.3173   26.4522 C   0  0  0  0  0  0  0  0  0  0  0  0
   12.2909  -14.8101   25.1950 C   0  0  0  0  0  0  0  0  0  0  0  0
   12.5999  -15.9867   24.2767 C   0  0  2  0  0  0  0  0  0  0  0  0
   11.4384  -16.2122   23.3996 N   0  0  0  0  0  0  0  0  0  0  0  0
   12.9309  -17.2262   24.9880 C   0  0  0  0  0  0  0  0  0  0  0  0
   13.9972  -17.3706   25.6220 O   0  0  0  0  0  0  0  0  0  0  0  0
   12.4601  -16.2149   27.2018 C   0  0  0  0  0  0  0  0  0  0  0  0
   11.9650  -16.7186   28.4090 C   0  0  0  0  0  0  0  0  0  0  0  0
   12.0423  -18.2905   24.9701 O   0  0  0  0  0  0  0  0  0  0  0  0
  2  1  1  1
  2 13  1  0
  2  3  1  0
  4  5  2  0
  4  3  1  0
  6  5  1  0
  7 12  2  0
  7  6  1  0
  8  7  1  0
  9 10  1  0
  9  8  2  0
 10 11  2  0
 11 12  1  0
 12  4  1  0
 13 14  2  0
 16 15  1  6
 17 16  1  0
 17 13  1  0
 18 16  1  0
 19 18  2  0
 20 21  1  0
 21 22  2  0
 21 31  1  0
 22 23  1  0
 23 24  2  0
 24 25  1  0
 26 25  1  1
 26 27  1  0
 26 28  1  0
 27 18  1  0
 28 32  1  0
 29 28  2  0
 30 24  1  0
 31 30  2  0
M  END
$$$$
