WAY.pdb
     RDKit          3D

 32 34  0  0  1  0  0  0  0  0999 V2000
    7.0674  -17.4097   24.2811 N   0  0  0  0  0  0  0  0  0  0  0  0
    7.9142  -16.3566   23.7556 C   0  0  1  0  0  0  0  0  0  0  0  0
    8.4344  -15.4551   24.8517 C   0  0  0  0  0  0  0  0  0  0  0  0
    7.3831  -14.5226   25.3276 C   0  0  0  0  0  0  0  0  0  0  0  0
    6.3798  -14.8159   26.2249 C   0  0  0  0  0  0  0  0  0  0  0  0
    5.6106  -13.7121   26.4183 N   0  0  0  0  0  0  0  0  0  0  0  0
    6.1030  -12.7031   25.6558 C   0  0  0  0  0  0  0  0  0  0  0  0
    5.6694  -11.3914   25.5076 C   0  0  0  0  0  0  0  0  0  0  0  0
    6.3763  -10.5797   24.6494 C   0  0  0  0  0  0  0  0  0  0  0  0
    7.4784  -11.0311   23.9517 C   0  0  0  0  0  0  0  0  0  0  0  0
    7.8669  -12.3492   24.1378 C   0  0  0  0  0  0  0  0  0  0  0  0
    7.1916  -13.2016   24.9862 C   0  0  0  0  0  0  0  0  0  0  0  0
    9.0944  -16.9970   23.1249 C   0  0  0  0  0  0  0  0  0  0  0  0
    9.3200  -18.2022   23.3905 O   0  0  0  0  0  0  0  0  0  0  0  0
   11.3907  -16.3841   20.3293 C   0  0  0  0  0  0  0  0  0  0  0  0
   11.0799  -17.0337   21.6629 C   0  0  2  0  0  0  0  0  0  0  0  0
    9.9704  -16.3264   22.2483 N   0  0  0  0  0  0  0  0  0  0  0  0
   12.2662  -16.9763   22.5729 C   0  0  0  0  0  0  0  0  0  0  0  0
   13.3912  -17.3740   22.1621 O   0  0  0  0  0  0  0  0  0  0  0  0
    9.0330  -15.5934   29.2620 O   0  0  0  0  0  0  0  0  0  0  0  0
   10.0517  -16.0688   28.4188 C   0  0  0  0  0  0  0  0  0  0  0  0
   10.1075  -17.4090   28.0991 C   0  0  0  0  0  0  0  0  0  0  0  0
   11.1265  -17.8742   27.2577 C   0  0  0  0  0  0  0  0  0  0  0  0
   12.0629  -17.0116   26.7532 C   0  0  0  0  0  0  0  0  0  0  0  0
   13.1232  -17.5035   25.8764 C   0  0  0  0  0  0  0  0  0  0  0  0
   13.3502  -16.4947   24.7566 C   0  0  2  0  0  0  0  0  0  0  0  0
   12.1612  -16.4865   23.8873 N   0  0  0  0  0  0  0  0  0  0  0  0
   14.5488  -16.7571   23.9529 C   0  0  0  0  0  0  0  0  0  0  0  0
   15.6985  -16.7450   24.4407 O   0  0  0  0  0  0  0  0  0  0  0  0
   11.9975  -15.6817   27.0777 C   0  0  0  0  0  0  0  0  0  0  0  0
   10.9949  -15.1807   27.9144 C   0  0  0  0  0  0  0  0  0  0  0  0
   14.4258  -17.0313   22.5992 O   0  0  0  0  0  0  0  0  0  0  0  0
  2  1  1  1
  2 13  1  0
  2  3  1  0
  4  5  2  0
  4  3  1  0
  6  5  1  0
  7 12  2  0
  7  6  1  0
  8  7  1  0
  9 10  1  0
  9  8  2  0
 10 11  2  0
 11 12  1  0
 12  4  1  0
 13 14  2  0
 16 15  1  6
 17 16  1  0
 17 13  1  0
 18 16  1  0
 19 18  2  0
 20 21  1  0
 21 22  2  0
 21 31  1  0
 22 23  1  0
 23 24  2  0
 24 25  1  0
 26 25  1  1
 26 27  1  0
 26 28  1  0
 27 18  1  0
 28 32  1  0
 29 28  2  0
 30 24  1  0
 31 30  2  0
M  END
$$$$
