WAY.pdb
     RDKit          3D

 32 34  0  0  1  0  0  0  0  0999 V2000
    7.4132  -19.2462   21.0974 N   0  0  0  0  0  0  0  0  0  0  0  0
    7.5167  -17.8046   21.2136 C   0  0  1  0  0  0  0  0  0  0  0  0
    6.5149  -17.0970   20.3301 C   0  0  0  0  0  0  0  0  0  0  0  0
    7.1565  -16.0108   19.5493 C   0  0  0  0  0  0  0  0  0  0  0  0
    7.5748  -16.0875   18.2390 C   0  0  0  0  0  0  0  0  0  0  0  0
    8.1120  -14.8958   17.8664 N   0  0  0  0  0  0  0  0  0  0  0  0
    8.0478  -14.0441   18.9210 C   0  0  0  0  0  0  0  0  0  0  0  0
    8.4633  -12.7236   19.0394 C   0  0  0  0  0  0  0  0  0  0  0  0
    8.2675  -12.1002   20.2511 C   0  0  0  0  0  0  0  0  0  0  0  0
    7.6820  -12.7440   21.3225 C   0  0  0  0  0  0  0  0  0  0  0  0
    7.2864  -14.0616   21.1484 C   0  0  0  0  0  0  0  0  0  0  0  0
    7.4609  -14.7296   19.9542 C   0  0  0  0  0  0  0  0  0  0  0  0
    7.1932  -17.4389   22.6144 C   0  0  0  0  0  0  0  0  0  0  0  0
    5.9925  -17.4959   22.9734 O   0  0  0  0  0  0  0  0  0  0  0  0
    7.5088  -14.8158   24.1609 C   0  0  0  0  0  0  0  0  0  0  0  0
    8.6160  -15.6679   23.5734 C   0  0  2  0  0  0  0  0  0  0  0  0
    8.1584  -17.0332   23.5575 N   0  0  0  0  0  0  0  0  0  0  0  0
    9.8662  -15.5523   24.3875 C   0  0  0  0  0  0  0  0  0  0  0  0
   10.4862  -14.4540   24.4316 O   0  0  0  0  0  0  0  0  0  0  0  0
    7.5289  -12.5887   28.6832 O   0  0  0  0  0  0  0  0  0  0  0  0
    8.4655  -13.5836   28.3549 C   0  0  0  0  0  0  0  0  0  0  0  0
    9.8143  -13.3067   28.4286 C   0  0  0  0  0  0  0  0  0  0  0  0
   10.7410  -14.3044   28.0995 C   0  0  0  0  0  0  0  0  0  0  0  0
   10.3187  -15.5467   27.7070 C   0  0  0  0  0  0  0  0  0  0  0  0
   11.2906  -16.5827   27.3648 C   0  0  0  0  0  0  0  0  0  0  0  0
   11.6212  -16.4832   25.8803 C   0  0  2  0  0  0  0  0  0  0  0  0
   10.3749  -16.6452   25.1123 N   0  0  0  0  0  0  0  0  0  0  0  0
   12.6140  -17.4622   25.4245 C   0  0  0  0  0  0  0  0  0  0  0  0
   13.7601  -17.5326   25.9158 O   0  0  0  0  0  0  0  0  0  0  0  0
    8.9757  -15.8106   27.6374 C   0  0  0  0  0  0  0  0  0  0  0  0
    8.0213  -14.8398   27.9582 C   0  0  0  0  0  0  0  0  0  0  0  0
   12.2907  -18.3529   24.4121 O   0  0  0  0  0  0  0  0  0  0  0  0
  2  1  1  1
  2 13  1  0
  2  3  1  0
  4  5  2  0
  4  3  1  0
  6  5  1  0
  7 12  2  0
  7  6  1  0
  8  7  1  0
  9 10  1  0
  9  8  2  0
 10 11  2  0
 11 12  1  0
 12  4  1  0
 13 14  2  0
 16 15  1  1
 17 16  1  0
 17 13  1  0
 18 16  1  0
 19 18  2  0
 20 21  1  0
 21 22  2  0
 21 31  1  0
 22 23  1  0
 23 24  2  0
 24 25  1  0
 26 25  1  1
 26 27  1  0
 26 28  1  0
 27 18  1  0
 28 32  1  0
 29 28  2  0
 30 24  1  0
 31 30  2  0
M  END
$$$$
