QAY.pdb
     RDKit          3D

 27 27  0  0  1  0  0  0  0  0999 V2000
   24.0874  -21.0387  -19.3078 N   0  0  0  0  0  0  0  0  0  0  0  0
   24.7503  -22.1459  -19.9181 C   0  0  0  0  0  0  0  0  0  0  0  0
   24.9740  -22.0603  -21.1374 O   0  0  0  0  0  0  0  0  0  0  0  0
   25.1619  -23.3409  -19.1747 C   0  0  0  0  0  0  0  0  0  0  0  0
   25.8230  -23.0876  -17.8675 C   0  0  0  0  0  0  0  0  0  0  0  0
   27.0320  -22.2238  -17.8958 C   0  0  2  0  0  0  0  0  0  0  0  0
   28.1093  -22.9503  -18.5193 N   0  0  0  0  0  0  0  0  0  0  0  0
   27.3880  -21.8473  -16.4963 C   0  0  0  0  0  0  0  0  0  0  0  0
   27.2047  -22.6833  -15.5743 O   0  0  0  0  0  0  0  0  0  0  0  0
   28.9017  -18.9100  -14.6660 C   0  0  0  0  0  0  0  0  0  0  0  0
   28.1881  -20.2337  -14.8331 C   0  0  2  0  0  0  0  0  0  0  0  0
   27.9278  -20.5667  -16.1894 N   0  0  0  0  0  0  0  0  0  0  0  0
   26.9672  -20.1883  -13.9826 C   0  0  0  0  0  0  0  0  0  0  0  0
   25.8003  -20.0955  -14.4623 O   0  0  0  0  0  0  0  0  0  0  0  0
   20.2715  -20.7688   -8.8971 O   0  0  0  0  0  0  0  0  0  0  0  0
   21.4619  -20.9163   -9.6313 C   0  0  0  0  0  0  0  0  0  0  0  0
   22.5887  -21.4216   -9.0194 C   0  0  0  0  0  0  0  0  0  0  0  0
   23.7285  -21.5436   -9.7915 C   0  0  0  0  0  0  0  0  0  0  0  0
   23.7598  -21.1810  -11.1212 C   0  0  0  0  0  0  0  0  0  0  0  0
   24.9983  -21.3362  -11.8813 C   0  0  0  0  0  0  0  0  0  0  0  0
   25.9918  -20.2184  -11.6509 C   0  0  2  0  0  0  0  0  0  0  0  0
   27.0863  -20.2502  -12.5676 N   0  0  0  0  0  0  0  0  0  0  0  0
   26.4044  -20.1229  -10.2348 C   0  0  0  0  0  0  0  0  0  0  0  0
   25.7990  -19.2656   -9.3358 O   0  0  0  0  0  0  0  0  0  0  0  0
   22.6353  -20.6764  -11.7333 C   0  0  0  0  0  0  0  0  0  0  0  0
   21.4912  -20.5520  -10.9651 C   0  0  0  0  0  0  0  0  0  0  0  0
   27.3402  -20.8405   -9.8117 O   0  0  0  0  0  0  0  0  0  0  0  0
  2  1  1  0
  3  2  2  0
  4  2  1  0
  5  4  1  0
  6  5  1  0
  6  8  1  0
  6  7  1  1
  8  9  2  0
 11 10  1  6
 12  8  1  0
 12 11  1  0
 13 11  1  0
 13 14  2  0
 15 16  1  0
 16 17  2  0
 17 18  1  0
 19 18  2  0
 19 20  1  0
 21 20  1  1
 21 22  1  0
 22 13  1  0
 23 24  1  0
 23 21  1  0
 25 19  1  0
 26 16  1  0
 26 25  2  0
 27 23  2  0
M  END
$$$$
