QAY.pdb
     RDKit          3D

 27 27  0  0  1  0  0  0  0  0999 V2000
   27.5725  -19.6361  -17.8472 N   0  0  0  0  0  0  0  0  0  0  0  0
   28.4309  -20.5617  -18.5137 C   0  0  0  0  0  0  0  0  0  0  0  0
   29.4627  -20.0970  -19.0270 O   0  0  0  0  0  0  0  0  0  0  0  0
   28.1420  -21.9962  -18.6074 C   0  0  0  0  0  0  0  0  0  0  0  0
   26.9447  -22.4602  -17.8583 C   0  0  0  0  0  0  0  0  0  0  0  0
   27.1478  -22.7777  -16.4207 C   0  0  2  0  0  0  0  0  0  0  0  0
   27.8414  -24.0366  -16.3150 N   0  0  0  0  0  0  0  0  0  0  0  0
   25.8163  -22.8492  -15.7505 C   0  0  0  0  0  0  0  0  0  0  0  0
   24.9176  -23.5710  -16.2544 O   0  0  0  0  0  0  0  0  0  0  0  0
   24.2093  -21.6151  -12.5667 C   0  0  0  0  0  0  0  0  0  0  0  0
   24.2787  -22.2559  -13.9355 C   0  0  2  0  0  0  0  0  0  0  0  0
   25.5481  -22.1193  -14.5584 N   0  0  0  0  0  0  0  0  0  0  0  0
   23.1543  -21.7037  -14.7398 C   0  0  0  0  0  0  0  0  0  0  0  0
   23.2235  -20.5946  -15.3443 O   0  0  0  0  0  0  0  0  0  0  0  0
   16.7159  -25.2078  -11.9002 O   0  0  0  0  0  0  0  0  0  0  0  0
   17.5311  -24.7070  -12.9310 C   0  0  0  0  0  0  0  0  0  0  0  0
   18.8294  -25.1516  -13.0581 C   0  0  0  0  0  0  0  0  0  0  0  0
   19.5820  -24.6235  -14.0901 C   0  0  0  0  0  0  0  0  0  0  0  0
   19.0754  -23.6893  -14.9681 C   0  0  0  0  0  0  0  0  0  0  0  0
   19.9250  -23.1714  -16.0385 C   0  0  0  0  0  0  0  0  0  0  0  0
   20.8008  -22.0150  -15.6077 C   0  0  2  0  0  0  0  0  0  0  0  0
   21.9385  -22.4314  -14.8517 N   0  0  0  0  0  0  0  0  0  0  0  0
   20.0220  -20.9356  -14.9649 C   0  0  0  0  0  0  0  0  0  0  0  0
   20.2317  -20.5388  -13.6579 O   0  0  0  0  0  0  0  0  0  0  0  0
   17.7792  -23.2445  -14.8423 C   0  0  0  0  0  0  0  0  0  0  0  0
   17.0209  -23.7698  -13.8109 C   0  0  0  0  0  0  0  0  0  0  0  0
   19.1299  -20.3430  -15.6149 O   0  0  0  0  0  0  0  0  0  0  0  0
  2  1  1  0
  3  2  2  0
  4  2  1  0
  5  4  1  0
  6  5  1  0
  6  8  1  0
  6  7  1  6
  8  9  2  0
 11 10  1  1
 12  8  1  0
 12 11  1  0
 13 11  1  0
 13 14  2  0
 15 16  1  0
 16 17  2  0
 17 18  1  0
 19 18  2  0
 19 20  1  0
 21 20  1  1
 21 22  1  0
 22 13  1  0
 23 24  1  0
 23 21  1  0
 25 19  1  0
 26 16  1  0
 26 25  2  0
 27 23  2  0
M  END
$$$$
