QAY.pdb
     RDKit          3D

 27 27  0  0  1  0  0  0  0  0999 V2000
   18.3301  -19.1043  -14.6664 N   0  0  0  0  0  0  0  0  0  0  0  0
   18.8017  -19.7290  -15.8601 C   0  0  0  0  0  0  0  0  0  0  0  0
   19.4272  -20.7941  -15.7239 O   0  0  0  0  0  0  0  0  0  0  0  0
   18.5774  -19.1712  -17.1975 C   0  0  0  0  0  0  0  0  0  0  0  0
   17.6745  -17.9918  -17.2579 C   0  0  0  0  0  0  0  0  0  0  0  0
   18.1132  -16.8687  -18.1269 C   0  0  2  0  0  0  0  0  0  0  0  0
   18.9731  -17.3877  -19.1605 N   0  0  0  0  0  0  0  0  0  0  0  0
   18.8365  -15.8665  -17.2905 C   0  0  0  0  0  0  0  0  0  0  0  0
   18.6816  -15.8880  -16.0422 O   0  0  0  0  0  0  0  0  0  0  0  0
   21.8871  -13.8757  -17.4725 C   0  0  0  0  0  0  0  0  0  0  0  0
   20.4489  -14.0379  -17.0318 C   0  0  2  0  0  0  0  0  0  0  0  0
   19.6930  -14.8932  -17.8776 N   0  0  0  0  0  0  0  0  0  0  0  0
   19.8726  -12.6725  -16.8917 C   0  0  0  0  0  0  0  0  0  0  0  0
   20.3837  -11.7853  -16.1490 O   0  0  0  0  0  0  0  0  0  0  0  0
   14.7821   -5.6801  -18.5937 O   0  0  0  0  0  0  0  0  0  0  0  0
   15.4286   -6.9277  -18.6530 C   0  0  0  0  0  0  0  0  0  0  0  0
   14.7279   -8.0793  -18.3665 C   0  0  0  0  0  0  0  0  0  0  0  0
   15.4163   -9.2754  -18.4414 C   0  0  0  0  0  0  0  0  0  0  0  0
   16.7495   -9.3376  -18.7866 C   0  0  0  0  0  0  0  0  0  0  0  0
   17.4181  -10.6357  -18.8479 C   0  0  0  0  0  0  0  0  0  0  0  0
   18.0354  -11.0592  -17.5328 C   0  0  2  0  0  0  0  0  0  0  0  0
   18.6980  -12.3217  -17.6112 N   0  0  0  0  0  0  0  0  0  0  0  0
   17.0792  -10.9577  -16.4103 C   0  0  0  0  0  0  0  0  0  0  0  0
   16.8871   -9.7911  -15.6948 O   0  0  0  0  0  0  0  0  0  0  0  0
   17.4504   -8.1884  -19.0730 C   0  0  0  0  0  0  0  0  0  0  0  0
   16.7661   -6.9880  -18.9996 C   0  0  0  0  0  0  0  0  0  0  0  0
   16.4050  -11.9598  -16.0774 O   0  0  0  0  0  0  0  0  0  0  0  0
  2  1  1  0
  3  2  2  0
  4  2  1  0
  5  4  1  0
  6  5  1  0
  6  8  1  0
  6  7  1  6
  8  9  2  0
 11 10  1  6
 12  8  1  0
 12 11  1  0
 13 11  1  0
 13 14  2  0
 15 16  1  0
 16 17  2  0
 17 18  1  0
 19 18  2  0
 19 20  1  0
 21 20  1  6
 21 22  1  0
 22 13  1  0
 23 24  1  0
 23 21  1  0
 25 19  1  0
 26 16  1  0
 26 25  2  0
 27 23  2  0
M  END
$$$$
