QAY.pdb
     RDKit          3D

 27 27  0  0  1  0  0  0  0  0999 V2000
   29.9962  -24.8628  -18.0172 N   0  0  0  0  0  0  0  0  0  0  0  0
   29.4324  -25.9952  -17.3558 C   0  0  0  0  0  0  0  0  0  0  0  0
   29.8866  -27.1087  -17.6689 O   0  0  0  0  0  0  0  0  0  0  0  0
   28.3695  -25.8881  -16.3514 C   0  0  0  0  0  0  0  0  0  0  0  0
   28.0080  -24.5047  -15.9444 C   0  0  0  0  0  0  0  0  0  0  0  0
   26.6073  -24.0839  -16.2083 C   0  0  2  0  0  0  0  0  0  0  0  0
   26.2812  -24.3837  -17.5798 N   0  0  0  0  0  0  0  0  0  0  0  0
   26.4859  -22.6203  -15.9432 C   0  0  0  0  0  0  0  0  0  0  0  0
   26.7384  -22.1862  -14.7898 O   0  0  0  0  0  0  0  0  0  0  0  0
   27.0454  -19.4734  -17.2614 C   0  0  0  0  0  0  0  0  0  0  0  0
   25.9591  -20.3340  -16.6543 C   0  0  2  0  0  0  0  0  0  0  0  0
   26.0918  -21.7134  -16.9669 N   0  0  0  0  0  0  0  0  0  0  0  0
   24.6522  -19.7503  -17.0633 C   0  0  0  0  0  0  0  0  0  0  0  0
   24.0804  -20.0448  -18.1526 O   0  0  0  0  0  0  0  0  0  0  0  0
   20.0919  -22.9502  -13.2840 O   0  0  0  0  0  0  0  0  0  0  0  0
   20.5398  -21.7136  -13.7823 C   0  0  0  0  0  0  0  0  0  0  0  0
   21.3242  -20.8987  -12.9949 C   0  0  0  0  0  0  0  0  0  0  0  0
   21.7340  -19.6959  -13.5386 C   0  0  0  0  0  0  0  0  0  0  0  0
   21.3845  -19.3070  -14.8141 C   0  0  0  0  0  0  0  0  0  0  0  0
   21.8522  -18.0217  -15.3290 C   0  0  0  0  0  0  0  0  0  0  0  0
   22.7725  -18.1489  -16.5234 C   0  0  2  0  0  0  0  0  0  0  0  0
   23.9948  -18.8193  -16.2140 N   0  0  0  0  0  0  0  0  0  0  0  0
   22.9612  -16.8596  -17.2211 C   0  0  0  0  0  0  0  0  0  0  0  0
   24.1972  -16.2563  -17.3560 O   0  0  0  0  0  0  0  0  0  0  0  0
   20.6014  -20.1198  -15.6014 C   0  0  0  0  0  0  0  0  0  0  0  0
   20.1881  -21.3252  -15.0622 C   0  0  0  0  0  0  0  0  0  0  0  0
   21.9722  -16.2728  -17.7181 O   0  0  0  0  0  0  0  0  0  0  0  0
  2  1  1  0
  3  2  2  0
  4  2  1  0
  5  4  1  0
  6  5  1  0
  6  8  1  0
  6  7  1  6
  8  9  2  0
 11 10  1  6
 12  8  1  0
 12 11  1  0
 13 11  1  0
 13 14  2  0
 15 16  1  0
 16 17  2  0
 17 18  1  0
 19 18  2  0
 19 20  1  0
 21 20  1  1
 21 22  1  0
 22 13  1  0
 23 24  1  0
 23 21  1  0
 25 19  1  0
 26 16  1  0
 26 25  2  0
 27 23  2  0
M  END
$$$$
