QAY.pdb
     RDKit          3D

 27 27  0  0  1  0  0  0  0  0999 V2000
   18.4180  -16.2492  -15.4065 N   0  0  0  0  0  0  0  0  0  0  0  0
   18.7021  -14.8609  -15.5787 C   0  0  0  0  0  0  0  0  0  0  0  0
   18.0770  -14.0684  -14.8539 O   0  0  0  0  0  0  0  0  0  0  0  0
   19.6770  -14.3584  -16.5520 C   0  0  0  0  0  0  0  0  0  0  0  0
   20.5836  -13.2886  -16.0586 C   0  0  0  0  0  0  0  0  0  0  0  0
   21.5165  -12.7022  -17.0559 C   0  0  2  0  0  0  0  0  0  0  0  0
   22.4110  -13.7328  -17.5196 N   0  0  0  0  0  0  0  0  0  0  0  0
   22.2772  -11.5926  -16.4099 C   0  0  0  0  0  0  0  0  0  0  0  0
   21.6664  -10.7929  -15.6550 O   0  0  0  0  0  0  0  0  0  0  0  0
   25.8432  -10.3649  -16.2087 C   0  0  0  0  0  0  0  0  0  0  0  0
   24.3412  -10.3250  -16.0311 C   0  0  2  0  0  0  0  0  0  0  0  0
   23.6730  -11.4252  -16.6322 N   0  0  0  0  0  0  0  0  0  0  0  0
   23.8729   -8.9996  -16.5211 C   0  0  0  0  0  0  0  0  0  0  0  0
   23.4191   -8.8212  -17.6884 O   0  0  0  0  0  0  0  0  0  0  0  0
   21.6292   -0.4733  -16.3219 O   0  0  0  0  0  0  0  0  0  0  0  0
   22.0071   -1.7786  -15.9594 C   0  0  0  0  0  0  0  0  0  0  0  0
   23.3333   -2.0694  -15.7225 C   0  0  0  0  0  0  0  0  0  0  0  0
   23.6439   -3.3692  -15.3698 C   0  0  0  0  0  0  0  0  0  0  0  0
   22.6827   -4.3507  -15.2537 C   0  0  0  0  0  0  0  0  0  0  0  0
   23.0788   -5.7058  -14.8763 C   0  0  0  0  0  0  0  0  0  0  0  0
   23.5738   -6.5362  -16.0405 C   0  0  2  0  0  0  0  0  0  0  0  0
   23.9259   -7.8676  -15.6632 N   0  0  0  0  0  0  0  0  0  0  0  0
   24.6227   -5.8402  -16.8151 C   0  0  0  0  0  0  0  0  0  0  0  0
   24.3455   -5.0858  -17.9394 O   0  0  0  0  0  0  0  0  0  0  0  0
   21.3582   -4.0615  -15.4901 C   0  0  0  0  0  0  0  0  0  0  0  0
   21.0414   -2.7618  -15.8436 C   0  0  0  0  0  0  0  0  0  0  0  0
   25.8194   -5.9249  -16.4542 O   0  0  0  0  0  0  0  0  0  0  0  0
  2  1  1  0
  3  2  2  0
  4  2  1  0
  5  4  1  0
  6  5  1  0
  6  8  1  0
  6  7  1  1
  8  9  2  0
 11 10  1  6
 12  8  1  0
 12 11  1  0
 13 11  1  0
 13 14  2  0
 15 16  1  0
 16 17  2  0
 17 18  1  0
 19 18  2  0
 19 20  1  0
 21 20  1  1
 21 22  1  0
 22 13  1  0
 23 24  1  0
 23 21  1  0
 25 19  1  0
 26 16  1  0
 26 25  2  0
 27 23  2  0
M  END
$$$$
