QAY.pdb
     RDKit          3D

 27 27  0  0  1  0  0  0  0  0999 V2000
   18.7144  -10.6597  -19.6997 N   0  0  0  0  0  0  0  0  0  0  0  0
   18.8247  -11.9973  -19.2136 C   0  0  0  0  0  0  0  0  0  0  0  0
   18.6044  -12.9083  -20.0294 O   0  0  0  0  0  0  0  0  0  0  0  0
   19.1787  -12.3182  -17.8273 C   0  0  0  0  0  0  0  0  0  0  0  0
   19.6911  -11.1825  -17.0163 C   0  0  0  0  0  0  0  0  0  0  0  0
   21.0367  -10.6665  -17.3793 C   0  0  2  0  0  0  0  0  0  0  0  0
   22.0376  -11.5100  -16.7760 N   0  0  0  0  0  0  0  0  0  0  0  0
   21.1626   -9.2626  -16.8892 C   0  0  0  0  0  0  0  0  0  0  0  0
   21.1666   -9.0470  -15.6498 O   0  0  0  0  0  0  0  0  0  0  0  0
   22.0232   -5.8935  -18.3169 C   0  0  0  0  0  0  0  0  0  0  0  0
   21.5086   -6.8670  -17.2793 C   0  0  2  0  0  0  0  0  0  0  0  0
   21.2774   -8.1705  -17.7947 N   0  0  0  0  0  0  0  0  0  0  0  0
   20.3085   -6.2500  -16.6508 C   0  0  0  0  0  0  0  0  0  0  0  0
   19.1387   -6.4072  -17.1059 O   0  0  0  0  0  0  0  0  0  0  0  0
   21.2054   -5.9617   -8.8244 O   0  0  0  0  0  0  0  0  0  0  0  0
   20.5570   -5.8755  -10.0694 C   0  0  0  0  0  0  0  0  0  0  0  0
   19.3388   -5.2384  -10.1673 C   0  0  0  0  0  0  0  0  0  0  0  0
   18.7499   -5.1852  -11.4166 C   0  0  0  0  0  0  0  0  0  0  0  0
   19.3389   -5.7399  -12.5328 C   0  0  0  0  0  0  0  0  0  0  0  0
   18.6626   -5.6480  -13.8250 C   0  0  0  0  0  0  0  0  0  0  0  0
   19.3847   -4.7688  -14.8228 C   0  0  2  0  0  0  0  0  0  0  0  0
   20.4520   -5.4447  -15.4884 N   0  0  0  0  0  0  0  0  0  0  0  0
   19.7762   -3.4687  -14.2388 C   0  0  0  0  0  0  0  0  0  0  0  0
   18.8537   -2.5350  -13.8064 O   0  0  0  0  0  0  0  0  0  0  0  0
   20.5552   -6.3763  -12.4363 C   0  0  0  0  0  0  0  0  0  0  0  0
   21.1494   -6.4326  -11.1880 C   0  0  0  0  0  0  0  0  0  0  0  0
   20.9901   -3.1816  -14.1220 O   0  0  0  0  0  0  0  0  0  0  0  0
  2  1  1  0
  3  2  2  0
  4  2  1  0
  5  4  1  0
  6  5  1  0
  6  8  1  0
  6  7  1  1
  8  9  2  0
 11 10  1  6
 12  8  1  0
 12 11  1  0
 13 11  1  0
 13 14  2  0
 15 16  1  0
 16 17  2  0
 17 18  1  0
 19 18  2  0
 19 20  1  0
 21 20  1  1
 21 22  1  0
 22 13  1  0
 23 24  1  0
 23 21  1  0
 25 19  1  0
 26 16  1  0
 26 25  2  0
 27 23  2  0
M  END
$$$$
