QAY.pdb
     RDKit          3D

 27 27  0  0  1  0  0  0  0  0999 V2000
   24.6616  -25.1996  -13.9270 N   0  0  0  0  0  0  0  0  0  0  0  0
   25.4674  -24.4954  -14.8718 C   0  0  0  0  0  0  0  0  0  0  0  0
   26.0186  -25.1761  -15.7533 O   0  0  0  0  0  0  0  0  0  0  0  0
   25.6576  -23.0420  -14.8353 C   0  0  0  0  0  0  0  0  0  0  0  0
   24.9328  -22.3268  -13.7522 C   0  0  0  0  0  0  0  0  0  0  0  0
   25.7197  -21.3337  -12.9755 C   0  0  2  0  0  0  0  0  0  0  0  0
   25.1567  -21.2242  -11.6533 N   0  0  0  0  0  0  0  0  0  0  0  0
   25.6697  -20.0203  -13.6823 C   0  0  0  0  0  0  0  0  0  0  0  0
   24.5852  -19.3835  -13.7106 O   0  0  0  0  0  0  0  0  0  0  0  0
   28.0091  -17.7336  -15.5674 C   0  0  0  0  0  0  0  0  0  0  0  0
   26.6851  -18.3101  -15.1158 C   0  0  2  0  0  0  0  0  0  0  0  0
   26.8211  -19.4796  -14.3209 N   0  0  0  0  0  0  0  0  0  0  0  0
   25.8503  -18.5067  -16.3325 C   0  0  0  0  0  0  0  0  0  0  0  0
   26.0360  -19.4582  -17.1452 O   0  0  0  0  0  0  0  0  0  0  0  0
   19.1466  -19.1297  -13.6129 O   0  0  0  0  0  0  0  0  0  0  0  0
   20.1397  -19.1193  -14.6086 C   0  0  0  0  0  0  0  0  0  0  0  0
   21.2318  -19.9529  -14.4989 C   0  0  0  0  0  0  0  0  0  0  0  0
   22.1747  -19.8984  -15.5080 C   0  0  0  0  0  0  0  0  0  0  0  0
   22.0484  -19.0526  -16.5893 C   0  0  0  0  0  0  0  0  0  0  0  0
   23.0819  -19.0449  -17.6224 C   0  0  0  0  0  0  0  0  0  0  0  0
   23.8578  -17.7475  -17.6900 C   0  0  2  0  0  0  0  0  0  0  0  0
   24.7919  -17.6025  -16.6196 N   0  0  0  0  0  0  0  0  0  0  0  0
   22.9726  -16.5776  -17.8697 C   0  0  0  0  0  0  0  0  0  0  0  0
   23.0044  -15.4799  -17.0307 O   0  0  0  0  0  0  0  0  0  0  0  0
   20.9584  -18.2198  -16.7000 C   0  0  0  0  0  0  0  0  0  0  0  0
   20.0112  -18.2701  -15.6926 C   0  0  0  0  0  0  0  0  0  0  0  0
   22.1519  -16.5605  -18.8161 O   0  0  0  0  0  0  0  0  0  0  0  0
  2  1  1  0
  3  2  2  0
  4  2  1  0
  5  4  1  0
  6  5  1  0
  6  8  1  0
  6  7  1  1
  8  9  2  0
 11 10  1  6
 12  8  1  0
 12 11  1  0
 13 11  1  0
 13 14  2  0
 15 16  1  0
 16 17  2  0
 17 18  1  0
 19 18  2  0
 19 20  1  0
 21 20  1  1
 21 22  1  0
 22 13  1  0
 23 24  1  0
 23 21  1  0
 25 19  1  0
 26 16  1  0
 26 25  2  0
 27 23  2  0
M  END
$$$$
