QAY.pdb
     RDKit          3D

 27 27  0  0  1  0  0  0  0  0999 V2000
   29.7005  -26.3437  -22.7559 N   0  0  0  0  0  0  0  0  0  0  0  0
   30.6983  -26.1755  -23.7628 C   0  0  0  0  0  0  0  0  0  0  0  0
   30.5162  -25.2594  -24.5824 O   0  0  0  0  0  0  0  0  0  0  0  0
   31.8919  -27.0220  -23.8558 C   0  0  0  0  0  0  0  0  0  0  0  0
   31.9994  -28.0948  -22.8323 C   0  0  0  0  0  0  0  0  0  0  0  0
   32.3528  -27.6604  -21.4556 C   0  0  2  0  0  0  0  0  0  0  0  0
   33.7712  -27.4116  -21.3951 N   0  0  0  0  0  0  0  0  0  0  0  0
   31.9626  -28.7349  -20.4963 C   0  0  0  0  0  0  0  0  0  0  0  0
   32.7991  -29.6296  -20.2092 O   0  0  0  0  0  0  0  0  0  0  0  0
   29.8733  -29.3073  -17.6494 C   0  0  0  0  0  0  0  0  0  0  0  0
   30.3476  -29.8080  -18.9961 C   0  0  2  0  0  0  0  0  0  0  0  0
   30.6685  -28.7641  -19.9047 N   0  0  0  0  0  0  0  0  0  0  0  0
   29.3141  -30.7498  -19.5068 C   0  0  0  0  0  0  0  0  0  0  0  0
   28.9979  -30.8238  -20.7294 O   0  0  0  0  0  0  0  0  0  0  0  0
   26.0489  -33.7002  -12.3517 O   0  0  0  0  0  0  0  0  0  0  0  0
   26.3350  -32.9365  -13.4975 C   0  0  0  0  0  0  0  0  0  0  0  0
   27.6391  -32.7926  -13.9196 C   0  0  0  0  0  0  0  0  0  0  0  0
   27.8584  -32.0307  -15.0517 C   0  0  0  0  0  0  0  0  0  0  0  0
   26.8300  -31.4301  -15.7460 C   0  0  0  0  0  0  0  0  0  0  0  0
   27.1308  -30.6376  -16.9365 C   0  0  0  0  0  0  0  0  0  0  0  0
   27.2777  -31.4682  -18.1929 C   0  0  2  0  0  0  0  0  0  0  0  0
   28.6368  -31.6155  -18.6056 N   0  0  0  0  0  0  0  0  0  0  0  0
   26.3747  -31.0125  -19.2707 C   0  0  0  0  0  0  0  0  0  0  0  0
   25.2838  -31.7482  -19.6932 O   0  0  0  0  0  0  0  0  0  0  0  0
   25.5275  -31.5729  -15.3255 C   0  0  0  0  0  0  0  0  0  0  0  0
   25.3019  -32.3347  -14.1926 C   0  0  0  0  0  0  0  0  0  0  0  0
   26.5898  -29.9163  -19.8379 O   0  0  0  0  0  0  0  0  0  0  0  0
  2  1  1  0
  3  2  2  0
  4  2  1  0
  5  4  1  0
  6  5  1  0
  6  8  1  0
  6  7  1  6
  8  9  2  0
 11 10  1  1
 12  8  1  0
 12 11  1  0
 13 11  1  0
 13 14  2  0
 15 16  1  0
 16 17  2  0
 17 18  1  0
 19 18  2  0
 19 20  1  0
 21 20  1  1
 21 22  1  0
 22 13  1  0
 23 24  1  0
 23 21  1  0
 25 19  1  0
 26 16  1  0
 26 25  2  0
 27 23  2  0
M  END
$$$$
