QAY.pdb
     RDKit          3D

 27 27  0  0  1  0  0  0  0  0999 V2000
   22.7783  -18.6848  -19.7818 N   0  0  0  0  0  0  0  0  0  0  0  0
   23.0009  -17.4801  -20.5146 C   0  0  0  0  0  0  0  0  0  0  0  0
   23.1493  -17.5927  -21.7432 O   0  0  0  0  0  0  0  0  0  0  0  0
   23.0573  -16.1580  -19.8829 C   0  0  0  0  0  0  0  0  0  0  0  0
   22.7966  -16.1342  -18.4196 C   0  0  0  0  0  0  0  0  0  0  0  0
   21.4016  -16.4186  -17.9930 C   0  0  2  0  0  0  0  0  0  0  0  0
   20.6680  -15.1791  -17.9420 N   0  0  0  0  0  0  0  0  0  0  0  0
   21.4317  -17.0713  -16.6513 C   0  0  0  0  0  0  0  0  0  0  0  0
   21.8166  -16.4040  -15.6568 O   0  0  0  0  0  0  0  0  0  0  0  0
   20.0417  -20.0730  -14.9564 C   0  0  0  0  0  0  0  0  0  0  0  0
   21.0877  -19.0032  -15.1817 C   0  0  2  0  0  0  0  0  0  0  0  0
   21.0347  -18.4272  -16.4792 N   0  0  0  0  0  0  0  0  0  0  0  0
   22.4095  -19.5993  -14.8447 C   0  0  0  0  0  0  0  0  0  0  0  0
   23.1196  -20.2158  -15.6908 O   0  0  0  0  0  0  0  0  0  0  0  0
   29.7512  -21.3364  -10.3043 O   0  0  0  0  0  0  0  0  0  0  0  0
   28.5129  -20.8144  -10.7192 C   0  0  0  0  0  0  0  0  0  0  0  0
   27.3752  -21.0804   -9.9881 C   0  0  0  0  0  0  0  0  0  0  0  0
   26.1877  -20.5403  -10.4448 C   0  0  0  0  0  0  0  0  0  0  0  0
   26.1207  -19.7645  -11.5824 C   0  0  0  0  0  0  0  0  0  0  0  0
   24.8324  -19.2232  -12.0103 C   0  0  0  0  0  0  0  0  0  0  0  0
   24.1473  -20.0609  -13.0680 C   0  0  2  0  0  0  0  0  0  0  0  0
   22.9217  -19.4867  -13.5236 N   0  0  0  0  0  0  0  0  0  0  0  0
   24.0269  -21.4778  -12.6651 C   0  0  0  0  0  0  0  0  0  0  0  0
   22.8818  -21.9976  -12.0922 O   0  0  0  0  0  0  0  0  0  0  0  0
   27.2559  -19.4983  -12.3132 C   0  0  0  0  0  0  0  0  0  0  0  0
   28.4477  -20.0363  -11.8607 C   0  0  0  0  0  0  0  0  0  0  0  0
   24.9921  -22.2569  -12.8416 O   0  0  0  0  0  0  0  0  0  0  0  0
  2  1  1  0
  3  2  2  0
  4  2  1  0
  5  4  1  0
  6  5  1  0
  6  8  1  0
  6  7  1  1
  8  9  2  0
 11 10  1  6
 12  8  1  0
 12 11  1  0
 13 11  1  0
 13 14  2  0
 15 16  1  0
 16 17  2  0
 17 18  1  0
 19 18  2  0
 19 20  1  0
 21 20  1  1
 21 22  1  0
 22 13  1  0
 23 24  1  0
 23 21  1  0
 25 19  1  0
 26 16  1  0
 26 25  2  0
 27 23  2  0
M  END
$$$$
