QAY.pdb
     RDKit          3D

 27 27  0  0  1  0  0  0  0  0999 V2000
   24.9955  -18.2556  -15.4948 N   0  0  0  0  0  0  0  0  0  0  0  0
   26.0084  -18.1208  -16.4915 C   0  0  0  0  0  0  0  0  0  0  0  0
   25.6580  -17.6414  -17.5831 O   0  0  0  0  0  0  0  0  0  0  0  0
   27.4033  -18.5169  -16.2736 C   0  0  0  0  0  0  0  0  0  0  0  0
   27.7412  -18.9418  -14.8897 C   0  0  0  0  0  0  0  0  0  0  0  0
   27.9153  -20.4016  -14.6715 C   0  0  2  0  0  0  0  0  0  0  0  0
   28.0324  -21.0534  -15.9516 N   0  0  0  0  0  0  0  0  0  0  0  0
   26.7354  -20.9204  -13.9194 C   0  0  0  0  0  0  0  0  0  0  0  0
   25.8007  -21.4718  -14.5557 O   0  0  0  0  0  0  0  0  0  0  0  0
   25.5508  -21.1241  -10.3354 C   0  0  0  0  0  0  0  0  0  0  0  0
   25.4871  -21.2755  -11.8395 C   0  0  2  0  0  0  0  0  0  0  0  0
   26.6505  -20.8027  -12.5036 N   0  0  0  0  0  0  0  0  0  0  0  0
   24.2296  -20.6230  -12.2968 C   0  0  0  0  0  0  0  0  0  0  0  0
   24.0603  -19.3696  -12.2751 O   0  0  0  0  0  0  0  0  0  0  0  0
   16.5838  -19.5210  -16.4724 O   0  0  0  0  0  0  0  0  0  0  0  0
   17.8058  -20.0244  -15.9917 C   0  0  0  0  0  0  0  0  0  0  0  0
   17.8130  -21.0707  -15.0947 C   0  0  0  0  0  0  0  0  0  0  0  0
   19.0440  -21.5226  -14.6579 C   0  0  0  0  0  0  0  0  0  0  0  0
   20.2288  -20.9645  -15.0885 C   0  0  0  0  0  0  0  0  0  0  0  0
   21.4969  -21.4905  -14.5875 C   0  0  0  0  0  0  0  0  0  0  0  0
   21.9070  -20.9069  -13.2529 C   0  0  2  0  0  0  0  0  0  0  0  0
   23.1558  -21.4166  -12.7840 N   0  0  0  0  0  0  0  0  0  0  0  0
   20.8204  -20.9831  -12.2539 C   0  0  0  0  0  0  0  0  0  0  0  0
   20.5662  -22.1202  -11.5109 O   0  0  0  0  0  0  0  0  0  0  0  0
   20.2229  -19.9198  -15.9841 C   0  0  0  0  0  0  0  0  0  0  0  0
   18.9933  -19.4632  -16.4249 C   0  0  0  0  0  0  0  0  0  0  0  0
   20.0877  -19.9861  -12.0573 O   0  0  0  0  0  0  0  0  0  0  0  0
  2  1  1  0
  3  2  2  0
  4  2  1  0
  5  4  1  0
  6  5  1  0
  6  8  1  0
  6  7  1  6
  8  9  2  0
 11 10  1  1
 12  8  1  0
 12 11  1  0
 13 11  1  0
 13 14  2  0
 15 16  1  0
 16 17  2  0
 17 18  1  0
 19 18  2  0
 19 20  1  0
 21 20  1  6
 21 22  1  0
 22 13  1  0
 23 24  1  0
 23 21  1  0
 25 19  1  0
 26 16  1  0
 26 25  2  0
 27 23  2  0
M  END
$$$$
