QAY.pdb
     RDKit          3D

 27 27  0  0  1  0  0  0  0  0999 V2000
   28.2260  -26.9337  -16.0798 N   0  0  0  0  0  0  0  0  0  0  0  0
   27.0513  -26.3733  -16.6660 C   0  0  0  0  0  0  0  0  0  0  0  0
   25.9821  -26.9703  -16.4548 O   0  0  0  0  0  0  0  0  0  0  0  0
   27.0672  -25.1552  -17.4820 C   0  0  0  0  0  0  0  0  0  0  0  0
   26.7437  -23.8957  -16.7616 C   0  0  0  0  0  0  0  0  0  0  0  0
   25.5017  -23.9026  -15.9455 C   0  0  2  0  0  0  0  0  0  0  0  0
   24.3679  -23.7435  -16.8210 N   0  0  0  0  0  0  0  0  0  0  0  0
   25.5682  -22.7860  -14.9576 C   0  0  0  0  0  0  0  0  0  0  0  0
   26.6913  -22.3108  -14.6486 O   0  0  0  0  0  0  0  0  0  0  0  0
   23.2233  -20.3359  -13.3747 C   0  0  0  0  0  0  0  0  0  0  0  0
   24.5004  -21.1391  -13.4885 C   0  0  2  0  0  0  0  0  0  0  0  0
   24.3899  -22.2531  -14.3632 N   0  0  0  0  0  0  0  0  0  0  0  0
   24.9193  -21.5019  -12.1068 C   0  0  0  0  0  0  0  0  0  0  0  0
   24.5971  -22.5947  -11.5572 O   0  0  0  0  0  0  0  0  0  0  0  0
   28.3335  -20.1563   -4.0479 O   0  0  0  0  0  0  0  0  0  0  0  0
   28.0585  -20.0874   -5.4254 C   0  0  0  0  0  0  0  0  0  0  0  0
   28.8380  -20.7910   -6.3181 C   0  0  0  0  0  0  0  0  0  0  0  0
   28.5196  -20.6843   -7.6588 C   0  0  0  0  0  0  0  0  0  0  0  0
   27.4697  -19.9116   -8.1073 C   0  0  0  0  0  0  0  0  0  0  0  0
   27.1863  -19.8427   -9.5394 C   0  0  0  0  0  0  0  0  0  0  0  0
   26.0958  -20.7925   -9.9851 C   0  0  2  0  0  0  0  0  0  0  0  0
   25.7160  -20.6017  -11.3483 N   0  0  0  0  0  0  0  0  0  0  0  0
   24.9543  -20.8101   -9.0463 C   0  0  0  0  0  0  0  0  0  0  0  0
   24.8430  -21.7307   -8.0216 O   0  0  0  0  0  0  0  0  0  0  0  0
   26.6906  -19.2086   -7.2171 C   0  0  0  0  0  0  0  0  0  0  0  0
   27.0048  -19.3117   -5.8734 C   0  0  0  0  0  0  0  0  0  0  0  0
   24.0388  -19.9635   -9.1672 O   0  0  0  0  0  0  0  0  0  0  0  0
  2  1  1  0
  3  2  2  0
  4  2  1  0
  5  4  1  0
  6  5  1  0
  6  8  1  0
  6  7  1  6
  8  9  2  0
 11 10  1  1
 12  8  1  0
 12 11  1  0
 13 11  1  0
 13 14  2  0
 15 16  1  0
 16 17  2  0
 17 18  1  0
 19 18  2  0
 19 20  1  0
 21 20  1  1
 21 22  1  0
 22 13  1  0
 23 24  1  0
 23 21  1  0
 25 19  1  0
 26 16  1  0
 26 25  2  0
 27 23  2  0
M  END
$$$$
