QAY.pdb
     RDKit          3D

 27 27  0  0  1  0  0  0  0  0999 V2000
   27.9040  -14.7423  -18.6483 N   0  0  0  0  0  0  0  0  0  0  0  0
   27.5770  -15.3048  -17.3777 C   0  0  0  0  0  0  0  0  0  0  0  0
   26.6062  -14.8097  -16.7806 O   0  0  0  0  0  0  0  0  0  0  0  0
   28.3264  -16.4122  -16.7761 C   0  0  0  0  0  0  0  0  0  0  0  0
   27.5095  -17.5683  -16.3221 C   0  0  0  0  0  0  0  0  0  0  0  0
   27.3546  -18.6869  -17.2882 C   0  0  2  0  0  0  0  0  0  0  0  0
   26.6245  -18.2128  -18.4369 N   0  0  0  0  0  0  0  0  0  0  0  0
   26.6230  -19.8029  -16.6199 C   0  0  0  0  0  0  0  0  0  0  0  0
   25.5086  -19.5681  -16.0855 O   0  0  0  0  0  0  0  0  0  0  0  0
   26.8056  -23.5248  -16.2576 C   0  0  0  0  0  0  0  0  0  0  0  0
   26.4978  -22.1130  -15.8089 C   0  0  2  0  0  0  0  0  0  0  0  0
   27.1616  -21.1196  -16.5774 N   0  0  0  0  0  0  0  0  0  0  0  0
   26.7916  -22.0383  -14.3514 C   0  0  0  0  0  0  0  0  0  0  0  0
   27.9441  -22.2453  -13.8727 O   0  0  0  0  0  0  0  0  0  0  0  0
   27.7142  -19.8036   -6.1646 O   0  0  0  0  0  0  0  0  0  0  0  0
   27.5307  -19.9851   -7.5471 C   0  0  0  0  0  0  0  0  0  0  0  0
   26.5186  -19.3150   -8.1999 C   0  0  0  0  0  0  0  0  0  0  0  0
   26.3872  -19.5333   -9.5583 C   0  0  0  0  0  0  0  0  0  0  0  0
   27.2229  -20.3822  -10.2522 C   0  0  0  0  0  0  0  0  0  0  0  0
   27.0297  -20.5680  -11.6889 C   0  0  0  0  0  0  0  0  0  0  0  0
   25.9267  -21.5471  -12.0277 C   0  0  2  0  0  0  0  0  0  0  0  0
   25.7527  -21.7228  -13.4341 N   0  0  0  0  0  0  0  0  0  0  0  0
   24.6726  -21.2450  -11.3062 C   0  0  0  0  0  0  0  0  0  0  0  0
   24.4314  -21.6728  -10.0144 O   0  0  0  0  0  0  0  0  0  0  0  0
   28.2338  -21.0519   -9.6015 C   0  0  0  0  0  0  0  0  0  0  0  0
   28.3701  -20.8371   -8.2414 C   0  0  0  0  0  0  0  0  0  0  0  0
   23.7780  -20.5745  -11.8716 O   0  0  0  0  0  0  0  0  0  0  0  0
  2  1  1  0
  3  2  2  0
  4  2  1  0
  5  4  1  0
  6  5  1  0
  6  8  1  0
  6  7  1  6
  8  9  2  0
 11 10  1  6
 12  8  1  0
 12 11  1  0
 13 11  1  0
 13 14  2  0
 15 16  1  0
 16 17  2  0
 17 18  1  0
 19 18  2  0
 19 20  1  0
 21 20  1  6
 21 22  1  0
 22 13  1  0
 23 24  1  0
 23 21  1  0
 25 19  1  0
 26 16  1  0
 26 25  2  0
 27 23  2  0
M  END
$$$$
