QAY.pdb
     RDKit          3D

 27 27  0  0  1  0  0  0  0  0999 V2000
   25.6457  -33.0341  -13.5874 N   0  0  0  0  0  0  0  0  0  0  0  0
   25.3926  -34.4040  -13.2756 C   0  0  0  0  0  0  0  0  0  0  0  0
   24.9993  -35.1257  -14.2076 O   0  0  0  0  0  0  0  0  0  0  0  0
   25.5769  -34.9666  -11.9341 C   0  0  0  0  0  0  0  0  0  0  0  0
   26.0872  -34.0216  -10.9063 C   0  0  0  0  0  0  0  0  0  0  0  0
   25.4344  -34.0815   -9.5725 C   0  0  2  0  0  0  0  0  0  0  0  0
   24.0347  -33.7735   -9.7245 N   0  0  0  0  0  0  0  0  0  0  0  0
   26.0974  -33.0978   -8.6670 C   0  0  0  0  0  0  0  0  0  0  0  0
   26.2032  -31.9008   -9.0394 O   0  0  0  0  0  0  0  0  0  0  0  0
   24.8963  -32.4699   -5.9680 C   0  0  0  0  0  0  0  0  0  0  0  0
   26.3668  -32.6589   -6.2701 C   0  0  2  0  0  0  0  0  0  0  0  0
   26.6086  -33.4886   -7.3976 N   0  0  0  0  0  0  0  0  0  0  0  0
   27.0164  -33.1418   -5.0208 C   0  0  0  0  0  0  0  0  0  0  0  0
   26.8894  -32.5513   -3.9093 O   0  0  0  0  0  0  0  0  0  0  0  0
   33.9623  -34.8737   -7.3088 O   0  0  0  0  0  0  0  0  0  0  0  0
   32.9150  -34.6503   -6.3971 C   0  0  0  0  0  0  0  0  0  0  0  0
   31.9834  -33.6661   -6.6481 C   0  0  0  0  0  0  0  0  0  0  0  0
   30.9774  -33.4931   -5.7163 C   0  0  0  0  0  0  0  0  0  0  0  0
   30.8899  -34.2621   -4.5754 C   0  0  0  0  0  0  0  0  0  0  0  0
   29.8000  -34.0277   -3.6305 C   0  0  0  0  0  0  0  0  0  0  0  0
   28.5537  -34.8297   -3.9359 C   0  0  2  0  0  0  0  0  0  0  0  0
   27.8197  -34.3141   -5.0471 N   0  0  0  0  0  0  0  0  0  0  0  0
   27.7280  -35.0565   -2.7312 C   0  0  0  0  0  0  0  0  0  0  0  0
   28.2684  -35.4162   -1.5112 O   0  0  0  0  0  0  0  0  0  0  0  0
   31.8195  -35.2451   -4.3237 C   0  0  0  0  0  0  0  0  0  0  0  0
   32.8289  -35.4227   -5.2532 C   0  0  0  0  0  0  0  0  0  0  0  0
   26.4841  -34.9224   -2.7976 O   0  0  0  0  0  0  0  0  0  0  0  0
  2  1  1  0
  3  2  2  0
  4  2  1  0
  5  4  1  0
  6  5  1  0
  6  8  1  0
  6  7  1  6
  8  9  2  0
 11 10  1  1
 12  8  1  0
 12 11  1  0
 13 11  1  0
 13 14  2  0
 15 16  1  0
 16 17  2  0
 17 18  1  0
 19 18  2  0
 19 20  1  0
 21 20  1  1
 21 22  1  0
 22 13  1  0
 23 24  1  0
 23 21  1  0
 25 19  1  0
 26 16  1  0
 26 25  2  0
 27 23  2  0
M  END
$$$$
