QAY.pdb
     RDKit          3D

 27 27  0  0  1  0  0  0  0  0999 V2000
   27.2230  -21.5268  -17.9062 N   0  0  0  0  0  0  0  0  0  0  0  0
   28.1650  -20.5716  -17.4185 C   0  0  0  0  0  0  0  0  0  0  0  0
   29.1327  -20.3149  -18.1547 O   0  0  0  0  0  0  0  0  0  0  0  0
   28.0298  -19.9059  -16.1190 C   0  0  0  0  0  0  0  0  0  0  0  0
   26.8494  -20.3098  -15.3106 C   0  0  0  0  0  0  0  0  0  0  0  0
   27.0402  -21.4657  -14.3961 C   0  0  2  0  0  0  0  0  0  0  0  0
   27.2358  -22.6563  -15.1845 N   0  0  0  0  0  0  0  0  0  0  0  0
   25.8332  -21.5979  -13.5286 C   0  0  0  0  0  0  0  0  0  0  0  0
   24.7719  -22.0555  -14.0254 O   0  0  0  0  0  0  0  0  0  0  0  0
   24.8459  -20.8653   -9.9537 C   0  0  0  0  0  0  0  0  0  0  0  0
   24.6636  -21.2786  -11.3977 C   0  0  2  0  0  0  0  0  0  0  0  0
   25.8625  -21.2175  -12.1574 N   0  0  0  0  0  0  0  0  0  0  0  0
   23.5574  -20.4543  -11.9572 C   0  0  0  0  0  0  0  0  0  0  0  0
   23.7449  -19.3150  -12.4741 O   0  0  0  0  0  0  0  0  0  0  0  0
   21.0374  -24.2573  -17.4049 O   0  0  0  0  0  0  0  0  0  0  0  0
   21.0957  -23.1678  -16.5175 C   0  0  0  0  0  0  0  0  0  0  0  0
   21.1774  -23.3908  -15.1599 C   0  0  0  0  0  0  0  0  0  0  0  0
   21.2319  -22.2812  -14.3375 C   0  0  0  0  0  0  0  0  0  0  0  0
   21.2069  -20.9951  -14.8332 C   0  0  0  0  0  0  0  0  0  0  0  0
   21.2683  -19.8653  -13.9082 C   0  0  0  0  0  0  0  0  0  0  0  0
   21.0876  -20.2614  -12.4590 C   0  0  2  0  0  0  0  0  0  0  0  0
   22.2229  -20.9423  -11.9235 N   0  0  0  0  0  0  0  0  0  0  0  0
   19.8086  -20.9656  -12.2292 C   0  0  0  0  0  0  0  0  0  0  0  0
   18.5805  -20.3940  -12.5033 O   0  0  0  0  0  0  0  0  0  0  0  0
   21.1253  -20.7712  -16.1885 C   0  0  0  0  0  0  0  0  0  0  0  0
   21.0704  -21.8783  -17.0166 C   0  0  0  0  0  0  0  0  0  0  0  0
   19.8160  -22.1301  -11.7672 O   0  0  0  0  0  0  0  0  0  0  0  0
  2  1  1  0
  3  2  2  0
  4  2  1  0
  5  4  1  0
  6  5  1  0
  6  8  1  0
  6  7  1  6
  8  9  2  0
 11 10  1  1
 12  8  1  0
 12 11  1  0
 13 11  1  0
 13 14  2  0
 15 16  1  0
 16 17  2  0
 17 18  1  0
 19 18  2  0
 19 20  1  0
 21 20  1  6
 21 22  1  0
 22 13  1  0
 23 24  1  0
 23 21  1  0
 25 19  1  0
 26 16  1  0
 26 25  2  0
 27 23  2  0
M  END
$$$$
