QAY.pdb
     RDKit          3D

 27 27  0  0  1  0  0  0  0  0999 V2000
   12.6403  -10.2010  -15.8695 N   0  0  0  0  0  0  0  0  0  0  0  0
   13.2708  -11.3650  -16.4037 C   0  0  0  0  0  0  0  0  0  0  0  0
   12.6063  -12.0418  -17.2065 O   0  0  0  0  0  0  0  0  0  0  0  0
   14.6333  -11.7723  -16.0464 C   0  0  0  0  0  0  0  0  0  0  0  0
   15.3641  -10.8455  -15.1425 C   0  0  0  0  0  0  0  0  0  0  0  0
   16.7175  -11.2786  -14.7072 C   0  0  2  0  0  0  0  0  0  0  0  0
   16.6559  -12.6594  -14.2984 N   0  0  0  0  0  0  0  0  0  0  0  0
   17.1604  -10.4113  -13.5765 C   0  0  0  0  0  0  0  0  0  0  0  0
   16.7525  -10.6681  -12.4145 O   0  0  0  0  0  0  0  0  0  0  0  0
   19.6644   -7.7287  -12.8626 C   0  0  0  0  0  0  0  0  0  0  0  0
   18.3477   -8.4552  -12.6963 C   0  0  2  0  0  0  0  0  0  0  0  0
   18.0310   -9.3056  -13.7893 N   0  0  0  0  0  0  0  0  0  0  0  0
   17.3078   -7.4275  -12.4163 C   0  0  0  0  0  0  0  0  0  0  0  0
   16.5899   -6.9137  -13.3224 O   0  0  0  0  0  0  0  0  0  0  0  0
   11.9977   -8.8822   -6.7563 O   0  0  0  0  0  0  0  0  0  0  0  0
   12.6624   -8.2573   -7.8267 C   0  0  0  0  0  0  0  0  0  0  0  0
   11.9864   -7.3612   -8.6265 C   0  0  0  0  0  0  0  0  0  0  0  0
   12.6918   -6.7790   -9.6626 C   0  0  0  0  0  0  0  0  0  0  0  0
   14.0179   -7.0678   -9.9046 C   0  0  0  0  0  0  0  0  0  0  0  0
   14.7056   -6.4161  -11.0174 C   0  0  0  0  0  0  0  0  0  0  0  0
   16.1256   -6.0064  -10.6923 C   0  0  2  0  0  0  0  0  0  0  0  0
   17.0894   -6.9849  -11.0834 N   0  0  0  0  0  0  0  0  0  0  0  0
   16.2690   -5.5569   -9.2916 C   0  0  0  0  0  0  0  0  0  0  0  0
   15.5784   -4.4750   -8.7791 O   0  0  0  0  0  0  0  0  0  0  0  0
   14.6940   -7.9623   -9.1068 C   0  0  0  0  0  0  0  0  0  0  0  0
   13.9927   -8.5484   -8.0679 C   0  0  0  0  0  0  0  0  0  0  0  0
   17.0439   -6.1684   -8.5202 O   0  0  0  0  0  0  0  0  0  0  0  0
  2  1  1  0
  3  2  2  0
  4  2  1  0
  5  4  1  0
  6  5  1  0
  6  8  1  0
  6  7  1  1
  8  9  2  0
 11 10  1  6
 12  8  1  0
 12 11  1  0
 13 11  1  0
 13 14  2  0
 15 16  1  0
 16 17  2  0
 17 18  1  0
 19 18  2  0
 19 20  1  0
 21 20  1  1
 21 22  1  0
 22 13  1  0
 23 24  1  0
 23 21  1  0
 25 19  1  0
 26 16  1  0
 26 25  2  0
 27 23  2  0
M  END
$$$$
