SAQ.pdb
     RDKit          3D

 21 20  0  0  1  0  0  0  0  0999 V2000
   16.2578  -11.8860  -16.4481 O   0  0  0  0  0  0  0  0  0  0  0  0
   16.5133  -11.2133  -15.2719 C   0  0  0  0  0  0  0  0  0  0  0  0
   17.9213  -10.7168  -15.2692 C   0  0  2  0  0  0  0  0  0  0  0  0
   18.8935  -11.7833  -15.1853 N   0  0  0  0  0  0  0  0  0  0  0  0
   18.1422   -9.7359  -14.1402 C   0  0  0  0  0  0  0  0  0  0  0  0
   18.2056  -10.1533  -12.9583 O   0  0  0  0  0  0  0  0  0  0  0  0
   18.8889   -6.0140  -13.9042 C   0  0  0  0  0  0  0  0  0  0  0  0
   18.4355   -7.3513  -13.3855 C   0  0  2  0  0  0  0  0  0  0  0  0
   18.2790   -8.3505  -14.3947 N   0  0  0  0  0  0  0  0  0  0  0  0
   17.1734   -7.2388  -12.5659 C   0  0  0  0  0  0  0  0  0  0  0  0
   16.0814   -7.7465  -12.9020 O   0  0  0  0  0  0  0  0  0  0  0  0
   12.4783   -8.9643   -8.0431 N   0  0  0  0  0  0  0  0  0  0  0  0
   13.7019   -8.9804   -8.8109 C   0  0  0  0  0  0  0  0  0  0  0  0
   14.1038  -10.0996   -9.1568 O   0  0  0  0  0  0  0  0  0  0  0  0
   14.3711   -7.7440   -9.1253 C   0  0  0  0  0  0  0  0  0  0  0  0
   15.4180   -7.6929  -10.1575 C   0  0  0  0  0  0  0  0  0  0  0  0
   16.0745   -6.3998  -10.4535 C   0  0  2  0  0  0  0  0  0  0  0  0
   17.2055   -6.5196  -11.3392 N   0  0  0  0  0  0  0  0  0  0  0  0
   16.3597   -5.4981   -9.3419 C   0  0  0  0  0  0  0  0  0  0  0  0
   17.5764   -5.2946   -8.9901 O   0  0  0  0  0  0  0  0  0  0  0  0
   15.4179   -4.8074   -8.5920 O   0  0  0  0  0  0  0  0  0  0  0  0
  1  2  1  0
  3  4  1  1
  3  2  1  0
  5  3  1  0
  6  5  2  0
  8  7  1  6
  8  9  1  0
  8 10  1  0
  9  5  1  0
 10 11  2  0
 12 13  1  0
 13 14  2  0
 15 13  1  0
 15 16  1  0
 17 16  1  1
 18 10  1  0
 18 17  1  0
 19 21  1  0
 19 17  1  0
 20 19  2  0
M  END
$$$$
