SAQ.pdb
     RDKit          3D

 21 20  0  0  1  0  0  0  0  0999 V2000
   19.6233  -14.2569  -16.7392 O   0  0  0  0  0  0  0  0  0  0  0  0
   20.5247  -13.2758  -16.3839 C   0  0  0  0  0  0  0  0  0  0  0  0
   19.9093  -11.9296  -16.5785 C   0  0  2  0  0  0  0  0  0  0  0  0
   19.5705  -11.6601  -17.9576 N   0  0  0  0  0  0  0  0  0  0  0  0
   20.8206  -10.8424  -16.0558 C   0  0  0  0  0  0  0  0  0  0  0  0
   21.1111  -10.8091  -14.8353 O   0  0  0  0  0  0  0  0  0  0  0  0
   22.8673   -8.0369  -17.6012 C   0  0  0  0  0  0  0  0  0  0  0  0
   22.1162   -8.7283  -16.4963 C   0  0  2  0  0  0  0  0  0  0  0  0
   21.3532   -9.8587  -16.9226 N   0  0  0  0  0  0  0  0  0  0  0  0
   21.2401   -7.7710  -15.7262 C   0  0  0  0  0  0  0  0  0  0  0  0
   19.9905   -7.7980  -15.7563 O   0  0  0  0  0  0  0  0  0  0  0  0
   18.7211   -8.2869  -11.0962 N   0  0  0  0  0  0  0  0  0  0  0  0
   18.7972   -6.8478  -10.9950 C   0  0  0  0  0  0  0  0  0  0  0  0
   18.2150   -6.3465  -10.0236 O   0  0  0  0  0  0  0  0  0  0  0  0
   19.5170   -6.0930  -11.9887 C   0  0  0  0  0  0  0  0  0  0  0  0
   20.2435   -6.7714  -13.0732 C   0  0  0  0  0  0  0  0  0  0  0  0
   21.1291   -5.9767  -13.9535 C   0  0  2  0  0  0  0  0  0  0  0  0
   21.8491   -6.7744  -14.9143 N   0  0  0  0  0  0  0  0  0  0  0  0
   21.9909   -4.9705  -13.3415 C   0  0  0  0  0  0  0  0  0  0  0  0
   21.4627   -3.9773  -12.7249 O   0  0  0  0  0  0  0  0  0  0  0  0
   23.3787   -4.9709  -13.3545 O   0  0  0  0  0  0  0  0  0  0  0  0
  1  2  1  0
  3  4  1  6
  3  2  1  0
  5  3  1  0
  6  5  2  0
  8  7  1  6
  8  9  1  0
  8 10  1  0
  9  5  1  0
 10 11  2  0
 12 13  1  0
 13 14  2  0
 15 13  1  0
 15 16  1  0
 17 16  1  1
 18 10  1  0
 18 17  1  0
 19 21  1  0
 19 17  1  0
 20 19  2  0
M  END
$$$$
