SAQ.pdb
     RDKit          3D

 21 20  0  0  1  0  0  0  0  0999 V2000
   19.3721  -13.5431  -16.3243 O   0  0  0  0  0  0  0  0  0  0  0  0
   19.5438  -12.1761  -16.3794 C   0  0  0  0  0  0  0  0  0  0  0  0
   18.2129  -11.5004  -16.4135 C   0  0  2  0  0  0  0  0  0  0  0  0
   17.5397  -11.6478  -17.6841 N   0  0  0  0  0  0  0  0  0  0  0  0
   18.3474  -10.0331  -16.0752 C   0  0  0  0  0  0  0  0  0  0  0  0
   18.7751   -9.2326  -16.9420 O   0  0  0  0  0  0  0  0  0  0  0  0
   17.5163   -7.8631  -13.0587 C   0  0  0  0  0  0  0  0  0  0  0  0
   18.2096   -8.2042  -14.3494 C   0  0  2  0  0  0  0  0  0  0  0  0
   17.9979   -9.5457  -14.7933 N   0  0  0  0  0  0  0  0  0  0  0  0
   19.6872   -7.9035  -14.2914 C   0  0  0  0  0  0  0  0  0  0  0  0
   20.5747   -8.7259  -14.6064 O   0  0  0  0  0  0  0  0  0  0  0  0
   23.1844   -6.9685  -18.0054 N   0  0  0  0  0  0  0  0  0  0  0  0
   23.9513   -6.2599  -17.0070 C   0  0  0  0  0  0  0  0  0  0  0  0
   25.0998   -5.9384  -17.3408 O   0  0  0  0  0  0  0  0  0  0  0  0
   23.3685   -5.9722  -15.7213 C   0  0  0  0  0  0  0  0  0  0  0  0
   22.0110   -6.4300  -15.3876 C   0  0  0  0  0  0  0  0  0  0  0  0
   21.4521   -6.1138  -14.0540 C   0  0  2  0  0  0  0  0  0  0  0  0
   20.1165   -6.6189  -13.8569 N   0  0  0  0  0  0  0  0  0  0  0  0
   21.5868   -4.7498  -13.5530 C   0  0  0  0  0  0  0  0  0  0  0  0
   20.7328   -3.8601  -13.9063 O   0  0  0  0  0  0  0  0  0  0  0  0
   22.5804   -4.2906  -12.6996 O   0  0  0  0  0  0  0  0  0  0  0  0
  1  2  1  0
  3  4  1  6
  3  2  1  0
  5  3  1  0
  6  5  2  0
  8  7  1  1
  8  9  1  0
  8 10  1  0
  9  5  1  0
 10 11  2  0
 12 13  1  0
 13 14  2  0
 15 13  1  0
 15 16  1  0
 17 16  1  6
 18 10  1  0
 18 17  1  0
 19 21  1  0
 19 17  1  0
 20 19  2  0
M  END
$$$$
