SAQ.pdb
     RDKit          3D

 21 20  0  0  1  0  0  0  0  0999 V2000
   22.4554  -19.7227  -16.1606 O   0  0  0  0  0  0  0  0  0  0  0  0
   23.1974  -19.6415  -17.3199 C   0  0  0  0  0  0  0  0  0  0  0  0
   24.2275  -18.5690  -17.1867 C   0  0  2  0  0  0  0  0  0  0  0  0
   25.1318  -18.7920  -16.0812 N   0  0  0  0  0  0  0  0  0  0  0  0
   23.5748  -17.2126  -17.0456 C   0  0  0  0  0  0  0  0  0  0  0  0
   23.3251  -16.7595  -15.9022 O   0  0  0  0  0  0  0  0  0  0  0  0
   22.5206  -14.4644  -19.4655 C   0  0  0  0  0  0  0  0  0  0  0  0
   22.5685  -15.1824  -18.1445 C   0  0  2  0  0  0  0  0  0  0  0  0
   23.2398  -16.4431  -18.1851 N   0  0  0  0  0  0  0  0  0  0  0  0
   21.1947  -15.3447  -17.5417 C   0  0  0  0  0  0  0  0  0  0  0  0
   20.6587  -16.4537  -17.3270 O   0  0  0  0  0  0  0  0  0  0  0  0
   19.1347  -16.8706  -12.9739 N   0  0  0  0  0  0  0  0  0  0  0  0
   17.9788  -16.0709  -13.3078 C   0  0  0  0  0  0  0  0  0  0  0  0
   17.0068  -16.1898  -12.5495 O   0  0  0  0  0  0  0  0  0  0  0  0
   18.0088  -15.2077  -14.4607 C   0  0  0  0  0  0  0  0  0  0  0  0
   19.1983  -15.1404  -15.3235 C   0  0  0  0  0  0  0  0  0  0  0  0
   19.1934  -14.2245  -16.4861 C   0  0  2  0  0  0  0  0  0  0  0  0
   20.4503  -14.1846  -17.1908 N   0  0  0  0  0  0  0  0  0  0  0  0
   18.6364  -12.8870  -16.3110 C   0  0  0  0  0  0  0  0  0  0  0  0
   19.3661  -11.9601  -15.8068 O   0  0  0  0  0  0  0  0  0  0  0  0
   17.3485  -12.4916  -16.6447 O   0  0  0  0  0  0  0  0  0  0  0  0
  1  2  1  0
  3  4  1  1
  3  2  1  0
  5  3  1  0
  6  5  2  0
  8  7  1  6
  8  9  1  0
  8 10  1  0
  9  5  1  0
 10 11  2  0
 12 13  1  0
 13 14  2  0
 15 13  1  0
 15 16  1  0
 17 16  1  1
 18 10  1  0
 18 17  1  0
 19 21  1  0
 19 17  1  0
 20 19  2  0
M  END
$$$$
