SAQ.pdb
     RDKit          3D

 21 20  0  0  1  0  0  0  0  0999 V2000
   16.3527  -11.3196  -10.2240 O   0  0  0  0  0  0  0  0  0  0  0  0
   15.0451  -11.5210  -10.6124 C   0  0  0  0  0  0  0  0  0  0  0  0
   14.1324  -10.7070   -9.7561 C   0  0  2  0  0  0  0  0  0  0  0  0
   12.7352  -10.9899   -9.9958 N   0  0  0  0  0  0  0  0  0  0  0  0
   14.3932   -9.2300   -9.9466 C   0  0  0  0  0  0  0  0  0  0  0  0
   14.1322   -8.6904  -11.0492 O   0  0  0  0  0  0  0  0  0  0  0  0
   15.5092   -6.3608   -7.7169 C   0  0  0  0  0  0  0  0  0  0  0  0
   15.3120   -7.0731   -9.0271 C   0  0  2  0  0  0  0  0  0  0  0  0
   14.9285   -8.4435   -8.8989 N   0  0  0  0  0  0  0  0  0  0  0  0
   16.5224   -6.9539   -9.9204 C   0  0  0  0  0  0  0  0  0  0  0  0
   17.5474   -7.6589   -9.7962 O   0  0  0  0  0  0  0  0  0  0  0  0
   17.7669   -9.7711  -14.2520 N   0  0  0  0  0  0  0  0  0  0  0  0
   18.5476   -8.6263  -14.6603 C   0  0  0  0  0  0  0  0  0  0  0  0
   19.2492   -8.7870  -15.6682 O   0  0  0  0  0  0  0  0  0  0  0  0
   18.4774   -7.4007  -13.9065 C   0  0  0  0  0  0  0  0  0  0  0  0
   17.6304   -7.2981  -12.7082 C   0  0  0  0  0  0  0  0  0  0  0  0
   17.4738   -5.9828  -12.0478 C   0  0  2  0  0  0  0  0  0  0  0  0
   16.5182   -5.9924  -10.9686 N   0  0  0  0  0  0  0  0  0  0  0  0
   17.3177   -4.8004  -12.8890 C   0  0  0  0  0  0  0  0  0  0  0  0
   18.2808   -4.4393  -13.6556 O   0  0  0  0  0  0  0  0  0  0  0  0
   16.1931   -3.9896  -12.9526 O   0  0  0  0  0  0  0  0  0  0  0  0
  1  2  1  0
  3  4  1  6
  3  2  1  0
  5  3  1  0
  6  5  2  0
  8  7  1  1
  8  9  1  0
  8 10  1  0
  9  5  1  0
 10 11  2  0
 12 13  1  0
 13 14  2  0
 15 13  1  0
 15 16  1  0
 17 16  1  6
 18 10  1  0
 18 17  1  0
 19 21  1  0
 19 17  1  0
 20 19  2  0
M  END
$$$$
