SAQ.pdb
     RDKit          3D

 21 20  0  0  1  0  0  0  0  0999 V2000
   14.8763  -11.2179  -14.2257 O   0  0  0  0  0  0  0  0  0  0  0  0
   15.9815  -10.4100  -14.3893 C   0  0  0  0  0  0  0  0  0  0  0  0
   16.0532   -9.9313  -15.8016 C   0  0  2  0  0  0  0  0  0  0  0  0
   16.3956  -10.9809  -16.7345 N   0  0  0  0  0  0  0  0  0  0  0  0
   17.0380   -8.7917  -15.9325 C   0  0  0  0  0  0  0  0  0  0  0  0
   18.2512   -9.0398  -16.1365 O   0  0  0  0  0  0  0  0  0  0  0  0
   16.7660   -4.9886  -15.9338 C   0  0  0  0  0  0  0  0  0  0  0  0
   17.4798   -6.3126  -15.9089 C   0  0  2  0  0  0  0  0  0  0  0  0
   16.6132   -7.4458  -15.8286 N   0  0  0  0  0  0  0  0  0  0  0  0
   18.5163   -6.3728  -14.8138 C   0  0  0  0  0  0  0  0  0  0  0  0
   18.2677   -6.7357  -13.6435 O   0  0  0  0  0  0  0  0  0  0  0  0
   23.0786   -9.9929  -14.4114 N   0  0  0  0  0  0  0  0  0  0  0  0
   23.7031   -8.7800  -14.8865 C   0  0  0  0  0  0  0  0  0  0  0  0
   24.8461   -8.9090  -15.3456 O   0  0  0  0  0  0  0  0  0  0  0  0
   22.9963   -7.5271  -14.8072 C   0  0  0  0  0  0  0  0  0  0  0  0
   21.6264   -7.4649  -14.2749 C   0  0  0  0  0  0  0  0  0  0  0  0
   20.9501   -6.1518  -14.1797 C   0  0  2  0  0  0  0  0  0  0  0  0
   19.8572   -6.0004  -15.1075 N   0  0  0  0  0  0  0  0  0  0  0  0
   21.7764   -4.9500  -14.1270 C   0  0  0  0  0  0  0  0  0  0  0  0
   21.6508   -4.0567  -15.0390 O   0  0  0  0  0  0  0  0  0  0  0  0
   22.7237   -4.6557  -13.1563 O   0  0  0  0  0  0  0  0  0  0  0  0
  1  2  1  0
  3  4  1  6
  3  2  1  0
  5  3  1  0
  6  5  2  0
  8  7  1  1
  8  9  1  0
  8 10  1  0
  9  5  1  0
 10 11  2  0
 12 13  1  0
 13 14  2  0
 15 13  1  0
 15 16  1  0
 17 16  1  6
 18 10  1  0
 18 17  1  0
 19 21  1  0
 19 17  1  0
 20 19  2  0
M  END
$$$$
