SAQ.pdb
     RDKit          3D

 21 20  0  0  1  0  0  0  0  0999 V2000
   27.3372  -11.0987  -16.0178 O   0  0  0  0  0  0  0  0  0  0  0  0
   26.2763  -11.9653  -15.8612 C   0  0  0  0  0  0  0  0  0  0  0  0
   25.4472  -11.9790  -17.1027 C   0  0  2  0  0  0  0  0  0  0  0  0
   26.2352  -12.1424  -18.3035 N   0  0  0  0  0  0  0  0  0  0  0  0
   24.6154  -10.7208  -17.2063 C   0  0  0  0  0  0  0  0  0  0  0  0
   25.1105   -9.6898  -17.7230 O   0  0  0  0  0  0  0  0  0  0  0  0
   20.9649   -9.8667  -16.5741 C   0  0  0  0  0  0  0  0  0  0  0  0
   22.4148   -9.5563  -16.8280 C   0  0  2  0  0  0  0  0  0  0  0  0
   23.2837  -10.6862  -16.7287 N   0  0  0  0  0  0  0  0  0  0  0  0
   22.9140   -8.4383  -15.9459 C   0  0  0  0  0  0  0  0  0  0  0  0
   23.3712   -8.6146  -14.7956 O   0  0  0  0  0  0  0  0  0  0  0  0
   25.4917   -2.8835  -17.8588 N   0  0  0  0  0  0  0  0  0  0  0  0
   25.8509   -4.2778  -17.9773 C   0  0  0  0  0  0  0  0  0  0  0  0
   26.8042   -4.5244  -18.7285 O   0  0  0  0  0  0  0  0  0  0  0  0
   25.1133   -5.2763  -17.2464 C   0  0  0  0  0  0  0  0  0  0  0  0
   23.9450   -4.9073  -16.4323 C   0  0  0  0  0  0  0  0  0  0  0  0
   23.2557   -5.9548  -15.6459 C   0  0  2  0  0  0  0  0  0  0  0  0
   22.8711   -7.1016  -16.4302 N   0  0  0  0  0  0  0  0  0  0  0  0
   22.1898   -5.5481  -14.7360 C   0  0  0  0  0  0  0  0  0  0  0  0
   22.4562   -4.7493  -13.7681 O   0  0  0  0  0  0  0  0  0  0  0  0
   20.8627   -5.9482  -14.8065 O   0  0  0  0  0  0  0  0  0  0  0  0
  1  2  1  0
  3  4  1  6
  3  2  1  0
  5  3  1  0
  6  5  2  0
  8  7  1  1
  8  9  1  0
  8 10  1  0
  9  5  1  0
 10 11  2  0
 12 13  1  0
 13 14  2  0
 15 13  1  0
 15 16  1  0
 17 16  1  6
 18 10  1  0
 18 17  1  0
 19 21  1  0
 19 17  1  0
 20 19  2  0
M  END
$$$$
