SAQ.pdb
     RDKit          3D

 21 20  0  0  1  0  0  0  0  0999 V2000
   23.0722   -8.8697  -19.2055 O   0  0  0  0  0  0  0  0  0  0  0  0
   22.0857   -8.3826  -18.3744 C   0  0  0  0  0  0  0  0  0  0  0  0
   22.3242   -8.8522  -16.9774 C   0  0  2  0  0  0  0  0  0  0  0  0
   22.0082  -10.2505  -16.7925 N   0  0  0  0  0  0  0  0  0  0  0  0
   21.5407   -8.0177  -15.9898 C   0  0  0  0  0  0  0  0  0  0  0  0
   20.3429   -8.3035  -15.7479 O   0  0  0  0  0  0  0  0  0  0  0  0
   22.3173   -5.0024  -13.7898 C   0  0  0  0  0  0  0  0  0  0  0  0
   21.4326   -5.9793  -14.5150 C   0  0  2  0  0  0  0  0  0  0  0  0
   22.1375   -6.9162  -15.3316 N   0  0  0  0  0  0  0  0  0  0  0  0
   20.3689   -5.2807  -15.3261 C   0  0  0  0  0  0  0  0  0  0  0  0
   20.2344   -5.4224  -16.5610 O   0  0  0  0  0  0  0  0  0  0  0  0
   14.0712   -4.7767  -17.8014 N   0  0  0  0  0  0  0  0  0  0  0  0
   15.4654   -5.0713  -17.5636 C   0  0  0  0  0  0  0  0  0  0  0  0
   15.9133   -6.0621  -18.1565 O   0  0  0  0  0  0  0  0  0  0  0  0
   16.2386   -4.2332  -16.6832 C   0  0  0  0  0  0  0  0  0  0  0  0
   17.4868   -4.7223  -16.0776 C   0  0  0  0  0  0  0  0  0  0  0  0
   18.3418   -3.7758  -15.3268 C   0  0  2  0  0  0  0  0  0  0  0  0
   19.4579   -4.4080  -14.6691 N   0  0  0  0  0  0  0  0  0  0  0  0
   17.6943   -2.7976  -14.4585 C   0  0  0  0  0  0  0  0  0  0  0  0
   17.3090   -1.6762  -14.9479 O   0  0  0  0  0  0  0  0  0  0  0  0
   17.4390   -2.9552  -13.1034 O   0  0  0  0  0  0  0  0  0  0  0  0
  1  2  1  0
  3  4  1  6
  3  2  1  0
  5  3  1  0
  6  5  2  0
  8  7  1  6
  8  9  1  0
  8 10  1  0
  9  5  1  0
 10 11  2  0
 12 13  1  0
 13 14  2  0
 15 13  1  0
 15 16  1  0
 17 16  1  1
 18 10  1  0
 18 17  1  0
 19 21  1  0
 19 17  1  0
 20 19  2  0
M  END
$$$$
