SAQ.pdb
     RDKit          3D

 21 20  0  0  1  0  0  0  0  0999 V2000
   27.2470  -12.7601  -15.1032 O   0  0  0  0  0  0  0  0  0  0  0  0
   26.4365  -13.7661  -15.5851 C   0  0  0  0  0  0  0  0  0  0  0  0
   26.6484  -13.9259  -17.0543 C   0  0  2  0  0  0  0  0  0  0  0  0
   26.1077  -12.8278  -17.8232 N   0  0  0  0  0  0  0  0  0  0  0  0
   26.0583  -15.2294  -17.5428 C   0  0  0  0  0  0  0  0  0  0  0  0
   24.8155  -15.3353  -17.6809 O   0  0  0  0  0  0  0  0  0  0  0  0
   27.4874  -18.6253  -18.5317 C   0  0  0  0  0  0  0  0  0  0  0  0
   26.4104  -17.6497  -18.1428 C   0  0  2  0  0  0  0  0  0  0  0  0
   26.8869  -16.3353  -17.8479 N   0  0  0  0  0  0  0  0  0  0  0  0
   25.5692  -18.1654  -17.0010 C   0  0  0  0  0  0  0  0  0  0  0  0
   25.6489  -17.7325  -15.8308 O   0  0  0  0  0  0  0  0  0  0  0  0
   20.2635  -17.7333  -15.6445 N   0  0  0  0  0  0  0  0  0  0  0  0
   20.6865  -18.5447  -14.5266 C   0  0  0  0  0  0  0  0  0  0  0  0
   19.8222  -18.7681  -13.6681 O   0  0  0  0  0  0  0  0  0  0  0  0
   22.0394  -19.0359  -14.4643 C   0  0  0  0  0  0  0  0  0  0  0  0
   23.0300  -18.6525  -15.4819 C   0  0  0  0  0  0  0  0  0  0  0  0
   23.7216  -19.7129  -16.2487 C   0  0  2  0  0  0  0  0  0  0  0  0
   24.6266  -19.2017  -17.2476 N   0  0  0  0  0  0  0  0  0  0  0  0
   22.9275  -20.8230  -16.7653 C   0  0  0  0  0  0  0  0  0  0  0  0
   22.5440  -20.8091  -17.9894 O   0  0  0  0  0  0  0  0  0  0  0  0
   22.5250  -21.9397  -16.0461 O   0  0  0  0  0  0  0  0  0  0  0  0
  1  2  1  0
  3  4  1  6
  3  2  1  0
  5  3  1  0
  6  5  2  0
  8  7  1  1
  8  9  1  0
  8 10  1  0
  9  5  1  0
 10 11  2  0
 12 13  1  0
 13 14  2  0
 15 13  1  0
 15 16  1  0
 17 16  1  6
 18 10  1  0
 18 17  1  0
 19 21  1  0
 19 17  1  0
 20 19  2  0
M  END
$$$$
