SAQ.pdb
     RDKit          3D

 21 20  0  0  1  0  0  0  0  0999 V2000
   18.9020  -12.0098  -19.7414 O   0  0  0  0  0  0  0  0  0  0  0  0
   19.1413  -11.1670  -18.6767 C   0  0  0  0  0  0  0  0  0  0  0  0
   19.3965  -11.9698  -17.4440 C   0  0  2  0  0  0  0  0  0  0  0  0
   18.1968  -12.5693  -16.9049 N   0  0  0  0  0  0  0  0  0  0  0  0
   20.0655  -11.1257  -16.3830 C   0  0  0  0  0  0  0  0  0  0  0  0
   19.4051  -10.2420  -15.7847 O   0  0  0  0  0  0  0  0  0  0  0  0
   23.5349  -11.0147  -14.8099 C   0  0  0  0  0  0  0  0  0  0  0  0
   22.1701  -10.4856  -15.1571 C   0  0  2  0  0  0  0  0  0  0  0  0
   21.4283  -11.3162  -16.0523 N   0  0  0  0  0  0  0  0  0  0  0  0
   22.2318   -9.0746  -15.6885 C   0  0  0  0  0  0  0  0  0  0  0  0
   22.2496   -8.7930  -16.9065 O   0  0  0  0  0  0  0  0  0  0  0  0
   19.4073   -5.5845  -18.3426 N   0  0  0  0  0  0  0  0  0  0  0  0
   20.1418   -4.5469  -17.6565 C   0  0  0  0  0  0  0  0  0  0  0  0
   19.8750   -3.3861  -17.9963 O   0  0  0  0  0  0  0  0  0  0  0  0
   21.1117   -4.8960  -16.6501 C   0  0  0  0  0  0  0  0  0  0  0  0
   21.3071   -6.2959  -16.2426 C   0  0  0  0  0  0  0  0  0  0  0  0
   22.2789   -6.6042  -15.1696 C   0  0  2  0  0  0  0  0  0  0  0  0
   22.2725   -7.9893  -14.7701 N   0  0  0  0  0  0  0  0  0  0  0  0
   22.3388   -5.7151  -14.0138 C   0  0  0  0  0  0  0  0  0  0  0  0
   21.8844   -6.1173  -12.8836 O   0  0  0  0  0  0  0  0  0  0  0  0
   22.8557   -4.4272  -14.0038 O   0  0  0  0  0  0  0  0  0  0  0  0
  1  2  1  0
  3  4  1  1
  3  2  1  0
  5  3  1  0
  6  5  2  0
  8  7  1  6
  8  9  1  0
  8 10  1  0
  9  5  1  0
 10 11  2  0
 12 13  1  0
 13 14  2  0
 15 13  1  0
 15 16  1  0
 17 16  1  1
 18 10  1  0
 18 17  1  0
 19 21  1  0
 19 17  1  0
 20 19  2  0
M  END
$$$$
