SAQ.pdb
     RDKit          3D

 21 20  0  0  1  0  0  0  0  0999 V2000
   23.0138  -13.6544  -20.1557 O   0  0  0  0  0  0  0  0  0  0  0  0
   22.9792  -12.6428  -19.2194 C   0  0  0  0  0  0  0  0  0  0  0  0
   24.1852  -12.7236  -18.3431 C   0  0  2  0  0  0  0  0  0  0  0  0
   24.2757  -13.9747  -17.6249 N   0  0  0  0  0  0  0  0  0  0  0  0
   24.2159  -11.5711  -17.3650 C   0  0  0  0  0  0  0  0  0  0  0  0
   23.3512  -11.5033  -16.4580 O   0  0  0  0  0  0  0  0  0  0  0  0
   26.4482   -8.5149  -16.8818 C   0  0  0  0  0  0  0  0  0  0  0  0
   25.2562   -9.3979  -16.6322 C   0  0  2  0  0  0  0  0  0  0  0  0
   25.2066  -10.5646  -17.4556 N   0  0  0  0  0  0  0  0  0  0  0  0
   23.9586   -8.6344  -16.7347 C   0  0  0  0  0  0  0  0  0  0  0  0
   23.1588   -8.7521  -17.6884 O   0  0  0  0  0  0  0  0  0  0  0  0
   18.7762   -9.3848  -16.5062 N   0  0  0  0  0  0  0  0  0  0  0  0
   18.6570   -8.0030  -16.1021 C   0  0  0  0  0  0  0  0  0  0  0  0
   17.5005   -7.5717  -15.9994 O   0  0  0  0  0  0  0  0  0  0  0  0
   19.8406   -7.2221  -15.8481 C   0  0  0  0  0  0  0  0  0  0  0  0
   21.1797   -7.8193  -15.9671 C   0  0  0  0  0  0  0  0  0  0  0  0
   22.3677   -6.9875  -15.6712 C   0  0  2  0  0  0  0  0  0  0  0  0
   23.6061   -7.7248  -15.6996 N   0  0  0  0  0  0  0  0  0  0  0  0
   22.3111   -6.0820  -14.5281 C   0  0  0  0  0  0  0  0  0  0  0  0
   22.8000   -6.4550  -13.4023 O   0  0  0  0  0  0  0  0  0  0  0  0
   21.7627   -4.8071  -14.5262 O   0  0  0  0  0  0  0  0  0  0  0  0
  1  2  1  0
  3  4  1  1
  3  2  1  0
  5  3  1  0
  6  5  2  0
  8  7  1  6
  8  9  1  0
  8 10  1  0
  9  5  1  0
 10 11  2  0
 12 13  1  0
 13 14  2  0
 15 13  1  0
 15 16  1  0
 17 16  1  1
 18 10  1  0
 18 17  1  0
 19 21  1  0
 19 17  1  0
 20 19  2  0
M  END
$$$$
