CAR.pdb
     RDKit          3D

 23 22  0  0  1  0  0  0  0  0999 V2000
    8.2084  -12.5708   20.0770 N   0  0  0  0  0  0  0  0  0  0  0  0
    7.2870  -13.3555   20.8424 C   0  0  1  0  0  0  0  0  0  0  0  0
    7.1007  -14.7501   20.2920 C   0  0  0  0  0  0  0  0  0  0  0  0
    6.2898  -14.7905   18.7005 S   0  0  0  0  0  0  0  0  0  0  0  0
    7.8292  -13.5184   22.2371 C   0  0  0  0  0  0  0  0  0  0  0  0
    9.0654  -13.7890   22.3993 O   0  0  0  0  0  0  0  0  0  0  0  0
    6.5756  -12.8131   25.6579 C   0  0  0  0  0  0  0  0  0  0  0  0
    7.5014  -13.5078   24.6850 C   0  0  2  0  0  0  0  0  0  0  0  0
    6.9685  -13.3712   23.3523 N   0  0  0  0  0  0  0  0  0  0  0  0
    7.6204  -14.9673   25.0054 C   0  0  0  0  0  0  0  0  0  0  0  0
    6.9462  -15.8140   24.3442 O   0  0  0  0  0  0  0  0  0  0  0  0
   14.0984  -19.1709   22.8504 N   0  0  0  0  0  0  0  0  0  0  0  0
   12.8070  -19.5613   22.4167 C   0  0  0  0  0  0  0  0  0  0  0  0
   12.5137  -20.8181   22.3178 N   0  0  0  0  0  0  0  0  0  0  0  0
   11.8251  -18.5897   22.0867 N   0  0  0  0  0  0  0  0  0  0  0  0
   11.6147  -17.4263   22.9417 C   0  0  0  0  0  0  0  0  0  0  0  0
   10.5344  -17.7277   23.9591 C   0  0  0  0  0  0  0  0  0  0  0  0
   10.3191  -16.4875   24.7847 C   0  0  0  0  0  0  0  0  0  0  0  0
    9.2764  -16.6507   25.8459 C   0  0  2  0  0  0  0  0  0  0  0  0
    8.4545  -15.4758   26.0203 N   0  0  0  0  0  0  0  0  0  0  0  0
    9.8376  -17.1316   27.1329 C   0  0  0  0  0  0  0  0  0  0  0  0
   10.0909  -16.3035   28.0514 O   0  0  0  0  0  0  0  0  0  0  0  0
   10.1120  -18.4612   27.4089 O   0  0  0  0  0  0  0  0  0  0  0  0
  2  1  1  6
  2  3  1  0
  3  4  1  0
  5  2  1  0
  6  5  2  0
  8  7  1  1
  8 10  1  0
  8  9  1  0
  9  5  1  0
 10 20  1  0
 11 10  2  0
 12 13  1  0
 13 15  1  0
 14 13  2  0
 16 15  1  0
 16 17  1  0
 18 17  1  0
 19 18  1  6
 19 21  1  0
 20 19  1  0
 21 23  1  0
 22 21  2  0
M  END
$$$$
