CAR.pdb
     RDKit          3D

 23 22  0  0  1  0  0  0  0  0999 V2000
    6.9273  -13.5920   27.7088 N   0  0  0  0  0  0  0  0  0  0  0  0
    6.7795  -13.8051   26.3005 C   0  0  1  0  0  0  0  0  0  0  0  0
    7.5725  -12.8241   25.4690 C   0  0  0  0  0  0  0  0  0  0  0  0
    7.1488  -11.1161   25.7774 S   0  0  0  0  0  0  0  0  0  0  0  0
    7.3048  -15.1736   25.9584 C   0  0  0  0  0  0  0  0  0  0  0  0
    8.3070  -15.6361   26.5981 O   0  0  0  0  0  0  0  0  0  0  0  0
    6.1013  -18.1239   24.1354 C   0  0  0  0  0  0  0  0  0  0  0  0
    7.2298  -17.2199   24.5774 C   0  0  2  0  0  0  0  0  0  0  0  0
    6.6867  -15.9331   24.9350 N   0  0  0  0  0  0  0  0  0  0  0  0
    8.2279  -17.0284   23.4756 C   0  0  0  0  0  0  0  0  0  0  0  0
    8.2228  -17.8120   22.4783 O   0  0  0  0  0  0  0  0  0  0  0  0
    8.5373  -15.2369   17.8836 N   0  0  0  0  0  0  0  0  0  0  0  0
    8.0470  -13.9093   17.8095 C   0  0  0  0  0  0  0  0  0  0  0  0
    7.6252  -13.4411   16.6789 N   0  0  0  0  0  0  0  0  0  0  0  0
    8.0117  -13.0807   18.9624 N   0  0  0  0  0  0  0  0  0  0  0  0
    9.0624  -13.1667   19.9711 C   0  0  0  0  0  0  0  0  0  0  0  0
    9.0314  -14.5310   20.6273 C   0  0  0  0  0  0  0  0  0  0  0  0
   10.0796  -14.5474   21.7075 C   0  0  0  0  0  0  0  0  0  0  0  0
   10.1786  -15.8582   22.4231 C   0  0  2  0  0  0  0  0  0  0  0  0
    9.1986  -16.0076   23.4734 N   0  0  0  0  0  0  0  0  0  0  0  0
   11.5533  -16.1488   22.9012 C   0  0  0  0  0  0  0  0  0  0  0  0
   11.7674  -16.2891   24.1373 O   0  0  0  0  0  0  0  0  0  0  0  0
   12.6511  -16.2813   22.0666 O   0  0  0  0  0  0  0  0  0  0  0  0
  2  1  1  1
  2  3  1  0
  3  4  1  0
  5  2  1  0
  6  5  2  0
  8  7  1  6
  8 10  1  0
  8  9  1  0
  9  5  1  0
 10 20  1  0
 11 10  2  0
 12 13  1  0
 13 15  1  0
 14 13  2  0
 16 15  1  0
 16 17  1  0
 18 17  1  0
 19 18  1  1
 19 21  1  0
 20 19  1  0
 21 23  1  0
 22 21  2  0
M  END
$$$$
