CAR.pdb
     RDKit          3D

 23 22  0  0  1  0  0  0  0  0999 V2000
    7.4820  -13.9114   17.1990 N   0  0  0  0  0  0  0  0  0  0  0  0
    8.8011  -14.2914   17.6070 C   0  0  1  0  0  0  0  0  0  0  0  0
    9.5500  -13.1747   18.2959 C   0  0  0  0  0  0  0  0  0  0  0  0
    8.6376  -12.4170   19.6321 S   0  0  0  0  0  0  0  0  0  0  0  0
    8.6966  -15.4123   18.6061 C   0  0  0  0  0  0  0  0  0  0  0  0
    7.6553  -15.5021   19.3378 O   0  0  0  0  0  0  0  0  0  0  0  0
   10.6981  -18.4430   19.4418 C   0  0  0  0  0  0  0  0  0  0  0  0
    9.6843  -17.3649   19.7514 C   0  0  2  0  0  0  0  0  0  0  0  0
    9.7485  -16.3531   18.7263 N   0  0  0  0  0  0  0  0  0  0  0  0
    9.9699  -16.7230   21.0756 C   0  0  0  0  0  0  0  0  0  0  0  0
   10.7552  -15.7290   21.1371 O   0  0  0  0  0  0  0  0  0  0  0  0
    5.1832  -12.7930   26.0618 N   0  0  0  0  0  0  0  0  0  0  0  0
    6.4224  -12.5563   26.7073 C   0  0  0  0  0  0  0  0  0  0  0  0
    6.6641  -11.3980   27.2318 N   0  0  0  0  0  0  0  0  0  0  0  0
    7.4081  -13.5757   26.7873 N   0  0  0  0  0  0  0  0  0  0  0  0
    7.3130  -14.7679   25.9516 C   0  0  0  0  0  0  0  0  0  0  0  0
    8.6003  -14.9531   25.1762 C   0  0  0  0  0  0  0  0  0  0  0  0
    8.4594  -16.1955   24.3379 C   0  0  0  0  0  0  0  0  0  0  0  0
    9.6922  -16.5332   23.5594 C   0  0  2  0  0  0  0  0  0  0  0  0
    9.4086  -17.1623   22.2906 N   0  0  0  0  0  0  0  0  0  0  0  0
   10.6791  -17.3062   24.3540 C   0  0  0  0  0  0  0  0  0  0  0  0
   10.6521  -18.5679   24.3254 O   0  0  0  0  0  0  0  0  0  0  0  0
   11.6563  -16.7284   25.1481 O   0  0  0  0  0  0  0  0  0  0  0  0
  2  1  1  1
  2  3  1  0
  3  4  1  0
  5  2  1  0
  6  5  2  0
  8  7  1  6
  8 10  1  0
  8  9  1  0
  9  5  1  0
 10 20  1  0
 11 10  2  0
 12 13  1  0
 13 15  1  0
 14 13  2  0
 16 15  1  0
 16 17  1  0
 18 17  1  0
 19 18  1  1
 19 21  1  0
 20 19  1  0
 21 23  1  0
 22 21  2  0
M  END
$$$$
