CAR.pdb
     RDKit          3D

 23 22  0  0  1  0  0  0  0  0999 V2000
    7.8776  -12.9809   20.9505 N   0  0  0  0  0  0  0  0  0  0  0  0
    7.2201  -13.8340   21.8943 C   0  0  1  0  0  0  0  0  0  0  0  0
    7.3122  -15.2975   21.5306 C   0  0  0  0  0  0  0  0  0  0  0  0
    6.6534  -16.3900   22.7813 S   0  0  0  0  0  0  0  0  0  0  0  0
    7.8917  -13.6860   23.2332 C   0  0  0  0  0  0  0  0  0  0  0  0
    9.1645  -13.7380   23.3029 O   0  0  0  0  0  0  0  0  0  0  0  0
    6.7795  -12.6023   26.6080 C   0  0  0  0  0  0  0  0  0  0  0  0
    7.7643  -13.2496   25.6608 C   0  0  2  0  0  0  0  0  0  0  0  0
    7.1107  -13.4916   24.3986 N   0  0  0  0  0  0  0  0  0  0  0  0
    8.2528  -14.5581   26.2052 C   0  0  0  0  0  0  0  0  0  0  0  0
    7.4444  -15.5266   26.3361 O   0  0  0  0  0  0  0  0  0  0  0  0
   10.5990  -19.7869   23.6360 N   0  0  0  0  0  0  0  0  0  0  0  0
   11.1563  -18.8095   22.7743 C   0  0  0  0  0  0  0  0  0  0  0  0
   10.7693  -18.7427   21.5411 N   0  0  0  0  0  0  0  0  0  0  0  0
   12.1383  -17.8982   23.2457 N   0  0  0  0  0  0  0  0  0  0  0  0
   12.2665  -17.6166   24.6716 C   0  0  0  0  0  0  0  0  0  0  0  0
   11.0032  -16.9524   25.1775 C   0  0  0  0  0  0  0  0  0  0  0  0
   11.1976  -16.6430   26.6379 C   0  0  0  0  0  0  0  0  0  0  0  0
   10.0091  -15.9921   27.2733 C   0  0  2  0  0  0  0  0  0  0  0  0
    9.5872  -14.7906   26.5918 N   0  0  0  0  0  0  0  0  0  0  0  0
   10.1864  -15.7708   28.7302 C   0  0  0  0  0  0  0  0  0  0  0  0
   10.1935  -14.5937   29.1861 O   0  0  0  0  0  0  0  0  0  0  0  0
   10.3496  -16.7905   29.6537 O   0  0  0  0  0  0  0  0  0  0  0  0
  2  1  1  6
  2  3  1  0
  3  4  1  0
  5  2  1  0
  6  5  2  0
  8  7  1  1
  8 10  1  0
  8  9  1  0
  9  5  1  0
 10 20  1  0
 11 10  2  0
 12 13  1  0
 13 15  1  0
 14 13  2  0
 16 15  1  0
 16 17  1  0
 18 17  1  0
 19 18  1  6
 19 21  1  0
 20 19  1  0
 21 23  1  0
 22 21  2  0
M  END
$$$$
