CAR.pdb
     RDKit          3D

 23 22  0  0  1  0  0  0  0  0999 V2000
    5.2419  -13.9620   26.4231 N   0  0  0  0  0  0  0  0  0  0  0  0
    6.2263  -13.1568   25.7649 C   0  0  1  0  0  0  0  0  0  0  0  0
    7.3011  -12.6562   26.7013 C   0  0  0  0  0  0  0  0  0  0  0  0
    6.7010  -11.5119   27.9352 S   0  0  0  0  0  0  0  0  0  0  0  0
    6.9239  -13.9941   24.7267 C   0  0  0  0  0  0  0  0  0  0  0  0
    7.0330  -15.2522   24.9087 O   0  0  0  0  0  0  0  0  0  0  0  0
    8.1325  -13.3236   21.2576 C   0  0  0  0  0  0  0  0  0  0  0  0
    7.8778  -14.2062   22.4585 C   0  0  2  0  0  0  0  0  0  0  0  0
    7.4511  -13.3832   23.5627 N   0  0  0  0  0  0  0  0  0  0  0  0
    9.1224  -14.9386   22.8607 C   0  0  0  0  0  0  0  0  0  0  0  0
    9.9277  -14.4067   23.6836 O   0  0  0  0  0  0  0  0  0  0  0  0
    8.2981  -22.5654   20.6630 N   0  0  0  0  0  0  0  0  0  0  0  0
    8.8952  -22.6577   21.9450 C   0  0  0  0  0  0  0  0  0  0  0  0
    9.0164  -23.8125   22.5170 N   0  0  0  0  0  0  0  0  0  0  0  0
    9.3642  -21.4967   22.6151 N   0  0  0  0  0  0  0  0  0  0  0  0
    9.2011  -20.1765   22.0157 C   0  0  0  0  0  0  0  0  0  0  0  0
    9.6652  -19.1124   22.9879 C   0  0  0  0  0  0  0  0  0  0  0  0
   10.7447  -18.3095   22.3126 C   0  0  0  0  0  0  0  0  0  0  0  0
   10.7240  -16.8576   22.6754 C   0  0  2  0  0  0  0  0  0  0  0  0
    9.4671  -16.2140   22.3721 N   0  0  0  0  0  0  0  0  0  0  0  0
   11.8790  -16.1103   22.1183 C   0  0  0  0  0  0  0  0  0  0  0  0
   11.7308  -15.4242   21.0691 O   0  0  0  0  0  0  0  0  0  0  0  0
   13.1449  -16.1100   22.6812 O   0  0  0  0  0  0  0  0  0  0  0  0
  2  1  1  1
  2  3  1  0
  3  4  1  0
  5  2  1  0
  6  5  2  0
  8  7  1  6
  8 10  1  0
  8  9  1  0
  9  5  1  0
 10 20  1  0
 11 10  2  0
 12 13  1  0
 13 15  1  0
 14 13  2  0
 16 15  1  0
 16 17  1  0
 18 17  1  0
 19 18  1  6
 19 21  1  0
 20 19  1  0
 21 23  1  0
 22 21  2  0
M  END
$$$$
