CAR.pdb
     RDKit          3D

 23 22  0  0  1  0  0  0  0  0999 V2000
    5.0153  -21.5685   20.3510 N   0  0  0  0  0  0  0  0  0  0  0  0
    6.3618  -21.1219   20.5463 C   0  0  1  0  0  0  0  0  0  0  0  0
    6.9381  -20.4359   19.3297 C   0  0  0  0  0  0  0  0  0  0  0  0
    7.9597  -21.5008   18.3227 S   0  0  0  0  0  0  0  0  0  0  0  0
    6.3803  -20.1049   21.6558 C   0  0  0  0  0  0  0  0  0  0  0  0
    5.6914  -19.0376   21.5368 O   0  0  0  0  0  0  0  0  0  0  0  0
    6.5610  -20.0194   25.1240 C   0  0  0  0  0  0  0  0  0  0  0  0
    7.1443  -19.3733   23.8877 C   0  0  2  0  0  0  0  0  0  0  0  0
    7.1576  -20.3384   22.8166 N   0  0  0  0  0  0  0  0  0  0  0  0
    8.5494  -18.9129   24.1341 C   0  0  0  0  0  0  0  0  0  0  0  0
    9.3436  -19.6437   24.8002 O   0  0  0  0  0  0  0  0  0  0  0  0
    5.0271  -12.3535   26.2816 N   0  0  0  0  0  0  0  0  0  0  0  0
    6.2916  -11.7351   26.4456 C   0  0  0  0  0  0  0  0  0  0  0  0
    6.3892  -10.6412   27.1304 N   0  0  0  0  0  0  0  0  0  0  0  0
    7.4589  -12.3000   25.8666 N   0  0  0  0  0  0  0  0  0  0  0  0
    7.3607  -13.4320   24.9513 C   0  0  0  0  0  0  0  0  0  0  0  0
    7.8384  -14.6917   25.6424 C   0  0  0  0  0  0  0  0  0  0  0  0
    7.8165  -15.8084   24.6331 C   0  0  0  0  0  0  0  0  0  0  0  0
    9.1347  -16.5004   24.4801 C   0  0  2  0  0  0  0  0  0  0  0  0
    9.0612  -17.6884   23.6620 N   0  0  0  0  0  0  0  0  0  0  0  0
    9.7998  -16.7625   25.7808 C   0  0  0  0  0  0  0  0  0  0  0  0
    9.2209  -17.4782   26.6446 O   0  0  0  0  0  0  0  0  0  0  0  0
   11.0456  -16.2650   26.1272 O   0  0  0  0  0  0  0  0  0  0  0  0
  2  1  1  6
  2  3  1  0
  3  4  1  0
  5  2  1  0
  6  5  2  0
  8  7  1  1
  8 10  1  0
  8  9  1  0
  9  5  1  0
 10 20  1  0
 11 10  2  0
 12 13  1  0
 13 15  1  0
 14 13  2  0
 16 15  1  0
 16 17  1  0
 18 17  1  0
 19 18  1  1
 19 21  1  0
 20 19  1  0
 21 23  1  0
 22 21  2  0
M  END
$$$$
