CAR.pdb
     RDKit          3D

 23 22  0  0  1  0  0  0  0  0999 V2000
    5.2317  -14.0864   26.1471 N   0  0  0  0  0  0  0  0  0  0  0  0
    6.1665  -13.3906   25.3149 C   0  0  1  0  0  0  0  0  0  0  0  0
    7.2114  -12.6367   26.1039 C   0  0  0  0  0  0  0  0  0  0  0  0
    6.7539  -10.9489   26.4699 S   0  0  0  0  0  0  0  0  0  0  0  0
    6.9106  -14.3944   24.4756 C   0  0  0  0  0  0  0  0  0  0  0  0
    7.3120  -15.4810   25.0103 O   0  0  0  0  0  0  0  0  0  0  0  0
    7.8308  -14.6517   20.8588 C   0  0  0  0  0  0  0  0  0  0  0  0
    7.8194  -15.1195   22.2965 C   0  0  2  0  0  0  0  0  0  0  0  0
    7.1585  -14.1269   23.1070 N   0  0  0  0  0  0  0  0  0  0  0  0
    9.2147  -15.3061   22.8119 C   0  0  0  0  0  0  0  0  0  0  0  0
    9.8764  -14.3020   23.2150 O   0  0  0  0  0  0  0  0  0  0  0  0
    9.2556  -14.4756   27.0345 N   0  0  0  0  0  0  0  0  0  0  0  0
    9.9600  -15.2670   27.9757 C   0  0  0  0  0  0  0  0  0  0  0  0
   10.5494  -14.7013   28.9795 N   0  0  0  0  0  0  0  0  0  0  0  0
   10.0297  -16.6783   27.8331 N   0  0  0  0  0  0  0  0  0  0  0  0
   10.0434  -17.2912   26.5091 C   0  0  0  0  0  0  0  0  0  0  0  0
   11.3679  -17.0131   25.8302 C   0  0  0  0  0  0  0  0  0  0  0  0
   11.3437  -17.6796   24.4807 C   0  0  0  0  0  0  0  0  0  0  0  0
   11.2175  -16.7168   23.3418 C   0  0  2  0  0  0  0  0  0  0  0  0
    9.8581  -16.5573   22.8806 N   0  0  0  0  0  0  0  0  0  0  0  0
   12.1497  -17.0204   22.2275 C   0  0  0  0  0  0  0  0  0  0  0  0
   11.7439  -17.6949   21.2406 O   0  0  0  0  0  0  0  0  0  0  0  0
   13.4712  -16.6061   22.1893 O   0  0  0  0  0  0  0  0  0  0  0  0
  2  1  1  1
  2  3  1  0
  3  4  1  0
  5  2  1  0
  6  5  2  0
  8  7  1  6
  8 10  1  0
  8  9  1  0
  9  5  1  0
 10 20  1  0
 11 10  2  0
 12 13  1  0
 13 15  1  0
 14 13  2  0
 16 15  1  0
 16 17  1  0
 18 17  1  0
 19 18  1  1
 19 21  1  0
 20 19  1  0
 21 23  1  0
 22 21  2  0
M  END
$$$$
