CAR.pdb
     RDKit          3D

 23 22  0  0  1  0  0  0  0  0999 V2000
    8.9115  -13.6781   15.8187 N   0  0  0  0  0  0  0  0  0  0  0  0
    8.0019  -14.2956   16.7364 C   0  0  1  0  0  0  0  0  0  0  0  0
    7.8004  -15.7684   16.4661 C   0  0  0  0  0  0  0  0  0  0  0  0
    9.3083  -16.7238   16.5400 S   0  0  0  0  0  0  0  0  0  0  0  0
    8.5697  -14.1928   18.1266 C   0  0  0  0  0  0  0  0  0  0  0  0
    9.8286  -14.3099   18.2977 O   0  0  0  0  0  0  0  0  0  0  0  0
    7.1720  -13.3960   21.5010 C   0  0  0  0  0  0  0  0  0  0  0  0
    8.2647  -13.8306   20.5506 C   0  0  2  0  0  0  0  0  0  0  0  0
    7.7078  -13.9683   19.2278 N   0  0  0  0  0  0  0  0  0  0  0  0
    8.8444  -15.1493   20.9653 C   0  0  0  0  0  0  0  0  0  0  0  0
    8.3068  -16.2266   20.5664 O   0  0  0  0  0  0  0  0  0  0  0  0
   14.2455  -15.3927   17.3571 N   0  0  0  0  0  0  0  0  0  0  0  0
   14.0221  -14.8059   18.6275 C   0  0  0  0  0  0  0  0  0  0  0  0
   13.3558  -13.6999   18.7176 N   0  0  0  0  0  0  0  0  0  0  0  0
   14.5212  -15.4156   19.8091 N   0  0  0  0  0  0  0  0  0  0  0  0
   13.7563  -16.4563   20.4878 C   0  0  0  0  0  0  0  0  0  0  0  0
   12.4865  -15.8652   21.0631 C   0  0  0  0  0  0  0  0  0  0  0  0
   11.7690  -16.9549   21.8139 C   0  0  0  0  0  0  0  0  0  0  0  0
   10.4241  -16.5420   22.3244 C   0  0  2  0  0  0  0  0  0  0  0  0
    9.9782  -15.2758   21.7915 N   0  0  0  0  0  0  0  0  0  0  0  0
   10.3347  -16.5834   23.8053 C   0  0  0  0  0  0  0  0  0  0  0  0
   10.6334  -17.6454   24.4190 O   0  0  0  0  0  0  0  0  0  0  0  0
    9.9360  -15.5113   24.5869 O   0  0  0  0  0  0  0  0  0  0  0  0
  2  1  1  6
  2  3  1  0
  3  4  1  0
  5  2  1  0
  6  5  2  0
  8  7  1  1
  8 10  1  0
  8  9  1  0
  9  5  1  0
 10 20  1  0
 11 10  2  0
 12 13  1  0
 13 15  1  0
 14 13  2  0
 16 15  1  0
 16 17  1  0
 18 17  1  0
 19 18  1  1
 19 21  1  0
 20 19  1  0
 21 23  1  0
 22 21  2  0
M  END
$$$$
