CAR.pdb
     RDKit          3D

 23 22  0  0  1  0  0  0  0  0999 V2000
    7.7763  -15.7640   20.2284 N   0  0  0  0  0  0  0  0  0  0  0  0
    6.7976  -15.7598   21.2737 C   0  0  1  0  0  0  0  0  0  0  0  0
    6.1641  -17.1137   21.4940 C   0  0  0  0  0  0  0  0  0  0  0  0
    5.3229  -17.7546   20.0541 S   0  0  0  0  0  0  0  0  0  0  0  0
    7.4709  -15.3904   22.5683 C   0  0  0  0  0  0  0  0  0  0  0  0
    8.6439  -15.8300   22.8102 O   0  0  0  0  0  0  0  0  0  0  0  0
    6.7849  -13.0143   25.3422 C   0  0  0  0  0  0  0  0  0  0  0  0
    7.4388  -14.2453   24.7564 C   0  0  2  0  0  0  0  0  0  0  0  0
    6.8015  -14.5627   23.5026 N   0  0  0  0  0  0  0  0  0  0  0  0
    7.2950  -15.4197   25.6769 C   0  0  0  0  0  0  0  0  0  0  0  0
    6.2130  -16.0812   25.6891 O   0  0  0  0  0  0  0  0  0  0  0  0
    5.6994  -22.0714   25.4923 N   0  0  0  0  0  0  0  0  0  0  0  0
    6.3109  -21.5038   24.3467 C   0  0  0  0  0  0  0  0  0  0  0  0
    5.8571  -21.7866   23.1680 N   0  0  0  0  0  0  0  0  0  0  0  0
    7.4198  -20.6255   24.4731 N   0  0  0  0  0  0  0  0  0  0  0  0
    7.9054  -20.2272   25.7901 C   0  0  0  0  0  0  0  0  0  0  0  0
    9.1866  -19.4335   25.6444 C   0  0  0  0  0  0  0  0  0  0  0  0
    8.8145  -17.9871   25.4562 C   0  0  0  0  0  0  0  0  0  0  0  0
    8.6461  -17.2418   26.7431 C   0  0  2  0  0  0  0  0  0  0  0  0
    8.3099  -15.8500   26.5539 N   0  0  0  0  0  0  0  0  0  0  0  0
    9.7991  -17.4145   27.6616 C   0  0  0  0  0  0  0  0  0  0  0  0
   10.8261  -16.6952   27.5157 O   0  0  0  0  0  0  0  0  0  0  0  0
    9.8324  -18.3338   28.6975 O   0  0  0  0  0  0  0  0  0  0  0  0
  2  1  1  6
  2  3  1  0
  3  4  1  0
  5  2  1  0
  6  5  2  0
  8  7  1  1
  8 10  1  0
  8  9  1  0
  9  5  1  0
 10 20  1  0
 11 10  2  0
 12 13  1  0
 13 15  1  0
 14 13  2  0
 16 15  1  0
 16 17  1  0
 18 17  1  0
 19 18  1  6
 19 21  1  0
 20 19  1  0
 21 23  1  0
 22 21  2  0
M  END
$$$$
