RQS.pdb
     RDKit          3D

 27 26  0  0  1  0  0  0  0  0999 V2000
    8.3857  -13.1783   13.7377 N   0  0  0  0  0  0  0  0  0  0  0  0
    7.4247  -14.2168   13.6222 C   0  0  0  0  0  0  0  0  0  0  0  0
    6.4201  -14.0949   12.8185 N   0  0  0  0  0  0  0  0  0  0  0  0
    7.5234  -15.4268   14.3802 N   0  0  0  0  0  0  0  0  0  0  0  0
    8.5497  -15.5944   15.3982 C   0  0  0  0  0  0  0  0  0  0  0  0
    8.0375  -14.8886   16.6354 C   0  0  0  0  0  0  0  0  0  0  0  0
    8.9467  -15.0565   17.8319 C   0  0  0  0  0  0  0  0  0  0  0  0
    8.3108  -14.2525   18.9534 C   0  0  2  0  0  0  0  0  0  0  0  0
    8.3480  -12.8492   18.5791 N   0  0  0  0  0  0  0  0  0  0  0  0
    9.0179  -14.4222   20.2265 C   0  0  0  0  0  0  0  0  0  0  0  0
   10.1735  -13.9713   20.4576 O   0  0  0  0  0  0  0  0  0  0  0  0
    5.7247  -14.8454   12.7623 N   0  0  0  0  0  0  0  0  0  0  0  0
    6.7632  -16.6679   25.8103 C   0  0  0  0  0  0  0  0  0  0  0  0
    7.5271  -15.4790   25.9459 O   0  0  0  0  0  0  0  0  0  0  0  0
    7.4486  -14.8148   27.0307 C   0  0  0  0  0  0  0  0  0  0  0  0
    8.3760  -15.0718   24.8238 C   0  0  0  0  0  0  0  0  0  0  0  0
    8.2482  -15.9479   23.6056 C   0  0  2  0  0  0  0  0  0  0  0  0
    9.1077  -15.5570   22.4580 N   0  0  0  0  0  0  0  0  0  0  0  0
    8.3963  -15.1298   21.2849 C   0  0  0  0  0  0  0  0  0  0  0  0
   10.1421  -16.5898   22.1414 O   0  0  0  0  0  0  0  0  0  0  0  0
   10.0882  -17.2609   21.0696 O   0  0  0  0  0  0  0  0  0  0  0  0
   14.2453  -16.2127   21.0887 C   0  0  0  0  0  0  0  0  0  0  0  0
   13.0001  -15.9358   21.6277 C   0  0  2  0  0  0  0  0  0  0  0  0
   12.5665  -17.1503   22.4381 N   0  0  0  0  0  0  0  0  0  0  0  0
   11.2371  -16.8856   23.0046 C   0  0  0  0  0  0  0  0  0  0  0  0
   13.4870  -17.4308   23.5394 O   0  0  0  0  0  0  0  0  0  0  0  0
   13.4955  -16.6820   24.7144 O   0  0  0  0  0  0  0  0  0  0  0  0
  2  3  2  0
  2  1  1  0
  4  2  1  0
  5  4  1  0
  6  5  1  0
  7  8  1  0
  7  6  1  0
  8 10  1  0
  8  9  1  6
 10 11  2  0
 12 13  1  0
 13 15  1  0
 14 13  2  0
 16 15  1  0
 17 16  1  1
 18 17  1  0
 18 10  1  0
 19 20  2  0
 19 17  1  0
 21 22  1  0
 23 22  1  6
 23 24  1  0
 23 25  1  0
 24 19  1  0
 25 26  1  0
 27 25  2  0
M  END
$$$$
