RQS.pdb
     RDKit          3D

 27 26  0  0  1  0  0  0  0  0999 V2000
    7.9280  -13.8944   18.3610 N   0  0  0  0  0  0  0  0  0  0  0  0
    8.0169  -13.1298   19.5538 C   0  0  0  0  0  0  0  0  0  0  0  0
    8.6288  -11.9916   19.5596 N   0  0  0  0  0  0  0  0  0  0  0  0
    7.4423  -13.5792   20.7852 N   0  0  0  0  0  0  0  0  0  0  0  0
    6.8100  -14.8859   20.8869 C   0  0  0  0  0  0  0  0  0  0  0  0
    7.8380  -15.8912   20.4139 C   0  0  0  0  0  0  0  0  0  0  0  0
    8.5154  -16.6242   21.5498 C   0  0  0  0  0  0  0  0  0  0  0  0
    9.6538  -15.7262   22.0039 C   0  0  2  0  0  0  0  0  0  0  0  0
   10.7000  -15.7806   20.9972 N   0  0  0  0  0  0  0  0  0  0  0  0
   10.2129  -16.1488   23.2916 C   0  0  0  0  0  0  0  0  0  0  0  0
   11.0777  -17.0585   23.4212 O   0  0  0  0  0  0  0  0  0  0  0  0
    8.6244  -11.4206   20.4104 N   0  0  0  0  0  0  0  0  0  0  0  0
    9.5320  -13.0674   28.8784 C   0  0  0  0  0  0  0  0  0  0  0  0
   10.2685  -14.2244   29.2451 O   0  0  0  0  0  0  0  0  0  0  0  0
   10.6839  -14.3377   30.4446 C   0  0  0  0  0  0  0  0  0  0  0  0
   10.5152  -15.2399   28.2188 C   0  0  0  0  0  0  0  0  0  0  0  0
    9.9757  -14.8842   26.8585 C   0  0  1  0  0  0  0  0  0  0  0  0
   10.3244  -15.8398   25.7751 N   0  0  0  0  0  0  0  0  0  0  0  0
    9.7796  -15.5193   24.4846 C   0  0  0  0  0  0  0  0  0  0  0  0
   10.0579  -17.2606   26.1590 O   0  0  0  0  0  0  0  0  0  0  0  0
    8.8862  -17.7379   26.1231 O   0  0  0  0  0  0  0  0  0  0  0  0
   11.3729  -21.7712   26.4097 C   0  0  0  0  0  0  0  0  0  0  0  0
   11.6959  -20.4595   26.1048 C   0  0  1  0  0  0  0  0  0  0  0  0
   10.7502  -19.5567   26.8860 N   0  0  0  0  0  0  0  0  0  0  0  0
   11.0810  -18.1577   26.5836 C   0  0  0  0  0  0  0  0  0  0  0  0
   10.8717  -19.7551   28.3299 O   0  0  0  0  0  0  0  0  0  0  0  0
   10.5215  -20.9522   28.9510 O   0  0  0  0  0  0  0  0  0  0  0  0
  2  3  2  0
  2  1  1  0
  4  2  1  0
  5  4  1  0
  6  5  1  0
  7  8  1  0
  7  6  1  0
  8 10  1  0
  8  9  1  6
 10 11  2  0
 12 13  1  0
 13 15  1  0
 14 13  2  0
 16 15  1  0
 17 16  1  6
 18 17  1  0
 18 10  1  0
 19 20  2  0
 19 17  1  0
 21 22  1  0
 23 22  1  6
 23 24  1  0
 23 25  1  0
 24 19  1  0
 25 26  1  0
 27 25  2  0
M  END
$$$$
