RQS.pdb
     RDKit          3D

 27 26  0  0  1  0  0  0  0  0999 V2000
    8.5208  -13.9045   17.8537 N   0  0  0  0  0  0  0  0  0  0  0  0
    8.4627  -13.3310   19.1511 C   0  0  0  0  0  0  0  0  0  0  0  0
    8.5722  -12.0531   19.3092 N   0  0  0  0  0  0  0  0  0  0  0  0
    8.2841  -14.1308   20.3245 N   0  0  0  0  0  0  0  0  0  0  0  0
    7.9704  -15.5484   20.2274 C   0  0  0  0  0  0  0  0  0  0  0  0
    6.4796  -15.6357   19.9800 C   0  0  0  0  0  0  0  0  0  0  0  0
    5.6921  -15.9784   21.2246 C   0  0  0  0  0  0  0  0  0  0  0  0
    6.3212  -17.2456   21.7788 C   0  0  2  0  0  0  0  0  0  0  0  0
    5.5164  -18.3750   21.3460 N   0  0  0  0  0  0  0  0  0  0  0  0
    6.3803  -17.2396   23.2437 C   0  0  0  0  0  0  0  0  0  0  0  0
    5.3721  -17.1046   23.9903 O   0  0  0  0  0  0  0  0  0  0  0  0
    8.5879  -11.6613   20.2559 N   0  0  0  0  0  0  0  0  0  0  0  0
    9.0869  -20.6836   27.4201 C   0  0  0  0  0  0  0  0  0  0  0  0
    8.8720  -19.5169   28.2000 O   0  0  0  0  0  0  0  0  0  0  0  0
    9.0879  -19.5644   29.4551 C   0  0  0  0  0  0  0  0  0  0  0  0
    8.4107  -18.3056   27.5177 C   0  0  0  0  0  0  0  0  0  0  0  0
    8.2752  -18.4534   26.0252 C   0  0  2  0  0  0  0  0  0  0  0  0
    7.7883  -17.2417   25.3158 N   0  0  0  0  0  0  0  0  0  0  0  0
    7.6289  -17.3929   23.8957 C   0  0  0  0  0  0  0  0  0  0  0  0
    8.5777  -16.0200   25.6643 O   0  0  0  0  0  0  0  0  0  0  0  0
    9.7492  -15.8497   25.2165 O   0  0  0  0  0  0  0  0  0  0  0  0
    6.8298  -12.9032   27.4563 C   0  0  0  0  0  0  0  0  0  0  0  0
    7.9750  -12.5689   26.7531 C   0  0  1  0  0  0  0  0  0  0  0  0
    8.8909  -13.7859   26.7554 N   0  0  0  0  0  0  0  0  0  0  0  0
    8.0784  -14.9844   26.5069 C   0  0  0  0  0  0  0  0  0  0  0  0
    9.5757  -13.9533   28.0366 O   0  0  0  0  0  0  0  0  0  0  0  0
   10.4075  -12.9722   28.5724 O   0  0  0  0  0  0  0  0  0  0  0  0
  2  3  2  0
  2  1  1  0
  4  2  1  0
  5  4  1  0
  6  5  1  0
  7  8  1  0
  7  6  1  0
  8 10  1  0
  8  9  1  1
 10 11  2  0
 12 13  1  0
 13 15  1  0
 14 13  2  0
 16 15  1  0
 17 16  1  1
 18 17  1  0
 18 10  1  0
 19 20  2  0
 19 17  1  0
 21 22  1  0
 23 22  1  6
 23 24  1  0
 23 25  1  0
 24 19  1  0
 25 26  1  0
 27 25  2  0
M  END
$$$$
