RQS.pdb
     RDKit          3D

 27 26  0  0  1  0  0  0  0  0999 V2000
    8.9388  -15.4370   17.8730 N   0  0  0  0  0  0  0  0  0  0  0  0
    8.6018  -14.1850   17.2948 C   0  0  0  0  0  0  0  0  0  0  0  0
    8.6639  -14.0151   16.0152 N   0  0  0  0  0  0  0  0  0  0  0  0
    8.1855  -13.0712   18.0915 N   0  0  0  0  0  0  0  0  0  0  0  0
    8.3017  -13.0993   19.5417 C   0  0  0  0  0  0  0  0  0  0  0  0
    7.0611  -13.8005   20.0520 C   0  0  0  0  0  0  0  0  0  0  0  0
    7.0116  -13.8931   21.5605 C   0  0  0  0  0  0  0  0  0  0  0  0
    7.4956  -15.2910   21.9073 C   0  0  2  0  0  0  0  0  0  0  0  0
    6.6362  -16.2466   21.2298 N   0  0  0  0  0  0  0  0  0  0  0  0
    7.4493  -15.5513   23.3494 C   0  0  0  0  0  0  0  0  0  0  0  0
    7.3528  -14.6495   24.2267 O   0  0  0  0  0  0  0  0  0  0  0  0
    8.4405  -13.0980   15.6165 N   0  0  0  0  0  0  0  0  0  0  0  0
    6.8992  -21.2958   26.1723 C   0  0  0  0  0  0  0  0  0  0  0  0
    7.1005  -20.4207   27.2719 O   0  0  0  0  0  0  0  0  0  0  0  0
    7.1276  -20.9056   28.4502 C   0  0  0  0  0  0  0  0  0  0  0  0
    7.2701  -18.9923   26.9956 C   0  0  0  0  0  0  0  0  0  0  0  0
    7.2334  -18.6397   25.5320 C   0  0  1  0  0  0  0  0  0  0  0  0
    7.5140  -17.2136   25.2224 N   0  0  0  0  0  0  0  0  0  0  0  0
    7.5138  -16.8848   23.8236 C   0  0  0  0  0  0  0  0  0  0  0  0
    8.7388  -16.7087   25.9167 O   0  0  0  0  0  0  0  0  0  0  0  0
    9.8716  -16.7479   25.3536 O   0  0  0  0  0  0  0  0  0  0  0  0
   10.0237  -13.5577   29.1003 C   0  0  0  0  0  0  0  0  0  0  0  0
    9.6282  -13.9923   27.8463 C   0  0  1  0  0  0  0  0  0  0  0  0
    9.9102  -15.4869   27.7646 N   0  0  0  0  0  0  0  0  0  0  0  0
    8.7181  -16.1604   27.2323 C   0  0  0  0  0  0  0  0  0  0  0  0
   10.2136  -16.0593   29.0758 O   0  0  0  0  0  0  0  0  0  0  0  0
   11.3070  -15.6479   29.8351 O   0  0  0  0  0  0  0  0  0  0  0  0
  2  3  2  0
  2  1  1  0
  4  2  1  0
  5  4  1  0
  6  5  1  0
  7  8  1  0
  7  6  1  0
  8 10  1  0
  8  9  1  6
 10 11  2  0
 12 13  1  0
 13 15  1  0
 14 13  2  0
 16 15  1  0
 17 16  1  1
 18 17  1  0
 18 10  1  0
 19 20  2  0
 19 17  1  0
 21 22  1  0
 23 22  1  6
 23 24  1  0
 23 25  1  0
 24 19  1  0
 25 26  1  0
 27 25  2  0
M  END
$$$$
