RQS.pdb
     RDKit          3D

 27 26  0  0  1  0  0  0  0  0999 V2000
    9.5222  -15.0574   16.2142 N   0  0  0  0  0  0  0  0  0  0  0  0
    8.5105  -14.0899   16.4505 C   0  0  0  0  0  0  0  0  0  0  0  0
    7.4577  -14.0452   15.7024 N   0  0  0  0  0  0  0  0  0  0  0  0
    8.6105  -13.1341   17.5112 N   0  0  0  0  0  0  0  0  0  0  0  0
    8.7783  -13.5594   18.8927 C   0  0  0  0  0  0  0  0  0  0  0  0
    7.4372  -14.1060   19.3329 C   0  0  0  0  0  0  0  0  0  0  0  0
    7.4391  -14.5985   20.7626 C   0  0  0  0  0  0  0  0  0  0  0  0
    8.4562  -15.7261   20.8126 C   0  0  2  0  0  0  0  0  0  0  0  0
    7.9155  -16.8541   20.0735 N   0  0  0  0  0  0  0  0  0  0  0  0
    8.7431  -16.1529   22.1855 C   0  0  0  0  0  0  0  0  0  0  0  0
    7.8775  -16.6235   22.9738 O   0  0  0  0  0  0  0  0  0  0  0  0
    6.7716  -13.2968   15.8410 N   0  0  0  0  0  0  0  0  0  0  0  0
   14.0484  -18.5818   24.4280 C   0  0  0  0  0  0  0  0  0  0  0  0
   13.3501  -18.3038   25.6324 O   0  0  0  0  0  0  0  0  0  0  0  0
   13.8597  -18.6720   26.7409 C   0  0  0  0  0  0  0  0  0  0  0  0
   12.0686  -17.6002   25.5409 C   0  0  0  0  0  0  0  0  0  0  0  0
   11.6603  -17.2448   24.1356 C   0  0  1  0  0  0  0  0  0  0  0  0
   10.4163  -16.4391   24.0279 N   0  0  0  0  0  0  0  0  0  0  0  0
   10.0619  -16.0455   22.6921 C   0  0  0  0  0  0  0  0  0  0  0  0
   10.4013  -15.2822   24.9757 O   0  0  0  0  0  0  0  0  0  0  0  0
   11.1229  -14.2624   24.7729 O   0  0  0  0  0  0  0  0  0  0  0  0
    7.3483  -14.1621   26.9292 C   0  0  0  0  0  0  0  0  0  0  0  0
    8.4180  -13.2833   26.9687 C   0  0  1  0  0  0  0  0  0  0  0  0
    9.6924  -14.1107   27.0745 N   0  0  0  0  0  0  0  0  0  0  0  0
    9.5920  -15.2467   26.1486 C   0  0  0  0  0  0  0  0  0  0  0  0
    9.8940  -14.6354   28.4246 O   0  0  0  0  0  0  0  0  0  0  0  0
   10.0550  -13.8052   29.5320 O   0  0  0  0  0  0  0  0  0  0  0  0
  2  3  2  0
  2  1  1  0
  4  2  1  0
  5  4  1  0
  6  5  1  0
  7  8  1  0
  7  6  1  0
  8 10  1  0
  8  9  1  6
 10 11  2  0
 12 13  1  0
 13 15  1  0
 14 13  2  0
 16 15  1  0
 17 16  1  6
 18 17  1  0
 18 10  1  0
 19 20  2  0
 19 17  1  0
 21 22  1  0
 23 22  1  6
 23 24  1  0
 23 25  1  0
 24 19  1  0
 25 26  1  0
 27 25  2  0
M  END
$$$$
