RQS.pdb
     RDKit          3D

 27 26  0  0  1  0  0  0  0  0999 V2000
    8.4807  -11.4692   20.3706 N   0  0  0  0  0  0  0  0  0  0  0  0
    8.0746  -12.7696   19.9716 C   0  0  0  0  0  0  0  0  0  0  0  0
    8.1055  -13.1136   18.7263 N   0  0  0  0  0  0  0  0  0  0  0  0
    7.6183  -13.7430   20.9165 N   0  0  0  0  0  0  0  0  0  0  0  0
    7.0937  -15.0276   20.4782 C   0  0  0  0  0  0  0  0  0  0  0  0
    8.2940  -15.9264   20.2713 C   0  0  0  0  0  0  0  0  0  0  0  0
    8.7173  -16.6481   21.5309 C   0  0  0  0  0  0  0  0  0  0  0  0
   10.0557  -16.0464   21.9249 C   0  0  2  0  0  0  0  0  0  0  0  0
   11.0541  -16.5067   20.9751 N   0  0  0  0  0  0  0  0  0  0  0  0
   10.4664  -16.4451   23.2746 C   0  0  0  0  0  0  0  0  0  0  0  0
   11.1284  -17.4881   23.5318 O   0  0  0  0  0  0  0  0  0  0  0  0
    7.8742  -14.0763   18.4628 N   0  0  0  0  0  0  0  0  0  0  0  0
    9.4886  -13.1160   28.7043 C   0  0  0  0  0  0  0  0  0  0  0  0
   10.1101  -14.3084   29.1597 O   0  0  0  0  0  0  0  0  0  0  0  0
   10.4006  -14.4203   30.3955 C   0  0  0  0  0  0  0  0  0  0  0  0
   10.3877  -15.3604   28.1791 C   0  0  0  0  0  0  0  0  0  0  0  0
   10.0723  -14.9758   26.7576 C   0  0  2  0  0  0  0  0  0  0  0  0
   10.3960  -16.0101   25.7407 N   0  0  0  0  0  0  0  0  0  0  0  0
   10.1170  -15.6336   24.3823 C   0  0  0  0  0  0  0  0  0  0  0  0
    9.8185  -17.3469   26.0819 O   0  0  0  0  0  0  0  0  0  0  0  0
    8.7057  -17.7181   25.6066 O   0  0  0  0  0  0  0  0  0  0  0  0
   10.7032  -21.4369   25.1790 C   0  0  0  0  0  0  0  0  0  0  0  0
   10.8200  -20.0666   25.3422 C   0  0  1  0  0  0  0  0  0  0  0  0
   10.2969  -19.7199   26.7300 N   0  0  0  0  0  0  0  0  0  0  0  0
   10.4652  -18.2768   26.9473 C   0  0  0  0  0  0  0  0  0  0  0  0
   11.0230  -20.4301   27.7821 O   0  0  0  0  0  0  0  0  0  0  0  0
   12.2593  -19.9983   28.2581 O   0  0  0  0  0  0  0  0  0  0  0  0
  2  3  2  0
  2  1  1  0
  4  2  1  0
  5  4  1  0
  6  5  1  0
  7  8  1  0
  7  6  1  0
  8 10  1  0
  8  9  1  6
 10 11  2  0
 12 13  1  0
 13 15  1  0
 14 13  2  0
 16 15  1  0
 17 16  1  6
 18 17  1  0
 18 10  1  0
 19 20  2  0
 19 17  1  0
 21 22  1  0
 23 22  1  6
 23 24  1  0
 23 25  1  0
 24 19  1  0
 25 26  1  0
 27 25  2  0
M  END
$$$$
