RQS.pdb
     RDKit          3D

 27 26  0  0  1  0  0  0  0  0999 V2000
    9.0305  -19.3131   16.5528 N   0  0  0  0  0  0  0  0  0  0  0  0
    9.5855  -20.1765   17.5335 C   0  0  0  0  0  0  0  0  0  0  0  0
    9.4134  -21.4549   17.4553 N   0  0  0  0  0  0  0  0  0  0  0  0
   10.3482  -19.6771   18.6369 N   0  0  0  0  0  0  0  0  0  0  0  0
    9.7275  -19.4323   19.9301 C   0  0  0  0  0  0  0  0  0  0  0  0
    9.6617  -17.9286   20.0899 C   0  0  0  0  0  0  0  0  0  0  0  0
    8.8918  -17.4968   21.3176 C   0  0  0  0  0  0  0  0  0  0  0  0
    9.7589  -17.8754   22.5065 C   0  0  2  0  0  0  0  0  0  0  0  0
    9.8198  -19.3253   22.5764 N   0  0  0  0  0  0  0  0  0  0  0  0
    9.2209  -17.3623   23.7701 C   0  0  0  0  0  0  0  0  0  0  0  0
    8.8358  -16.1730   23.9422 O   0  0  0  0  0  0  0  0  0  0  0  0
    9.8752  -22.0686   18.1335 N   0  0  0  0  0  0  0  0  0  0  0  0
    6.9511  -21.0517   28.3476 C   0  0  0  0  0  0  0  0  0  0  0  0
    6.4445  -20.8799   27.0326 O   0  0  0  0  0  0  0  0  0  0  0  0
    5.5758  -21.7022   26.5929 C   0  0  0  0  0  0  0  0  0  0  0  0
    6.9480  -19.7556   26.2400 C   0  0  0  0  0  0  0  0  0  0  0  0
    7.9556  -18.8980   26.9590 C   0  0  2  0  0  0  0  0  0  0  0  0
    8.5487  -17.8074   26.1420 N   0  0  0  0  0  0  0  0  0  0  0  0
    9.1115  -18.2261   24.8878 C   0  0  0  0  0  0  0  0  0  0  0  0
    9.4973  -16.9575   26.9263 O   0  0  0  0  0  0  0  0  0  0  0  0
   10.7374  -17.2098   26.9451 O   0  0  0  0  0  0  0  0  0  0  0  0
    9.4713  -13.1057   27.2319 C   0  0  0  0  0  0  0  0  0  0  0  0
    9.5775  -13.5994   28.5214 C   0  0  2  0  0  0  0  0  0  0  0  0
   10.0753  -15.0358   28.4271 N   0  0  0  0  0  0  0  0  0  0  0  0
    9.0816  -15.8289   27.6912 C   0  0  0  0  0  0  0  0  0  0  0  0
   10.2585  -15.6395   29.7465 O   0  0  0  0  0  0  0  0  0  0  0  0
   11.1216  -15.1029   30.6997 O   0  0  0  0  0  0  0  0  0  0  0  0
  2  3  2  0
  2  1  1  0
  4  2  1  0
  5  4  1  0
  6  5  1  0
  7  8  1  0
  7  6  1  0
  8 10  1  0
  8  9  1  1
 10 11  2  0
 12 13  1  0
 13 15  1  0
 14 13  2  0
 16 15  1  0
 17 16  1  6
 18 17  1  0
 18 10  1  0
 19 20  2  0
 19 17  1  0
 21 22  1  0
 23 22  1  6
 23 24  1  0
 23 25  1  0
 24 19  1  0
 25 26  1  0
 27 25  2  0
M  END
$$$$
