RQS.pdb
     RDKit          3D

 27 26  0  0  1  0  0  0  0  0999 V2000
    8.5910  -14.0111   16.9391 N   0  0  0  0  0  0  0  0  0  0  0  0
    7.9668  -13.9983   18.2140 C   0  0  0  0  0  0  0  0  0  0  0  0
    7.4464  -12.9106   18.6790 N   0  0  0  0  0  0  0  0  0  0  0  0
    7.8879  -15.1717   19.0297 N   0  0  0  0  0  0  0  0  0  0  0  0
    6.8754  -15.2994   20.0670 C   0  0  0  0  0  0  0  0  0  0  0  0
    7.3591  -14.4670   21.2351 C   0  0  0  0  0  0  0  0  0  0  0  0
    6.4681  -14.5796   22.4516 C   0  0  0  0  0  0  0  0  0  0  0  0
    7.0609  -15.6924   23.2995 C   0  0  2  0  0  0  0  0  0  0  0  0
    6.0137  -16.2057   24.1658 N   0  0  0  0  0  0  0  0  0  0  0  0
    8.1747  -15.2229   24.1294 C   0  0  0  0  0  0  0  0  0  0  0  0
    8.2143  -14.0892   24.6819 O   0  0  0  0  0  0  0  0  0  0  0  0
    6.9672  -12.9275   19.5846 N   0  0  0  0  0  0  0  0  0  0  0  0
   10.5811  -16.4244   29.3174 C   0  0  0  0  0  0  0  0  0  0  0  0
   10.3938  -15.0685   28.9410 O   0  0  0  0  0  0  0  0  0  0  0  0
   10.3697  -14.1733   29.8478 C   0  0  0  0  0  0  0  0  0  0  0  0
   10.2379  -14.7624   27.5170 C   0  0  0  0  0  0  0  0  0  0  0  0
   10.2315  -15.9748   26.6238 C   0  0  2  0  0  0  0  0  0  0  0  0
   10.4027  -15.6887   25.1756 N   0  0  0  0  0  0  0  0  0  0  0  0
    9.2915  -16.0672   24.3468 C   0  0  0  0  0  0  0  0  0  0  0  0
   11.7015  -16.2035   24.6414 O   0  0  0  0  0  0  0  0  0  0  0  0
   11.8899  -17.4426   24.4652 O   0  0  0  0  0  0  0  0  0  0  0  0
   13.6421  -14.9565   21.6803 C   0  0  0  0  0  0  0  0  0  0  0  0
   14.5853  -15.0179   22.6926 C   0  0  2  0  0  0  0  0  0  0  0  0
   14.0389  -15.9355   23.7786 N   0  0  0  0  0  0  0  0  0  0  0  0
   12.7947  -15.3546   24.3008 C   0  0  0  0  0  0  0  0  0  0  0  0
   14.9768  -16.0867   24.8905 O   0  0  0  0  0  0  0  0  0  0  0  0
   16.2596  -16.6033   24.7202 O   0  0  0  0  0  0  0  0  0  0  0  0
  2  3  2  0
  2  1  1  0
  4  2  1  0
  5  4  1  0
  6  5  1  0
  7  8  1  0
  7  6  1  0
  8 10  1  0
  8  9  1  1
 10 11  2  0
 12 13  1  0
 13 15  1  0
 14 13  2  0
 16 15  1  0
 17 16  1  1
 18 17  1  0
 18 10  1  0
 19 20  2  0
 19 17  1  0
 21 22  1  0
 23 22  1  6
 23 24  1  0
 23 25  1  0
 24 19  1  0
 25 26  1  0
 27 25  2  0
M  END
$$$$
