RQS.pdb
     RDKit          3D

 27 26  0  0  1  0  0  0  0  0999 V2000
    7.3065  -15.0334   17.2816 N   0  0  0  0  0  0  0  0  0  0  0  0
    7.8373  -13.8026   17.7491 C   0  0  0  0  0  0  0  0  0  0  0  0
    8.6689  -13.1291   17.0245 N   0  0  0  0  0  0  0  0  0  0  0  0
    7.4814  -13.2610   19.0252 N   0  0  0  0  0  0  0  0  0  0  0  0
    7.6596  -14.0332   20.2456 C   0  0  0  0  0  0  0  0  0  0  0  0
    8.7698  -15.0223   19.9620 C   0  0  0  0  0  0  0  0  0  0  0  0
    9.1537  -15.8443   21.1717 C   0  0  0  0  0  0  0  0  0  0  0  0
   10.3663  -15.1554   21.7747 C   0  0  2  0  0  0  0  0  0  0  0  0
   11.4878  -15.3438   20.8706 N   0  0  0  0  0  0  0  0  0  0  0  0
   10.7189  -15.7037   23.0878 C   0  0  0  0  0  0  0  0  0  0  0  0
   11.4850  -16.6920   23.2575 O   0  0  0  0  0  0  0  0  0  0  0  0
    9.1135  -12.2917   17.4130 N   0  0  0  0  0  0  0  0  0  0  0  0
    9.4239  -13.0384   28.7890 C   0  0  0  0  0  0  0  0  0  0  0  0
    9.9613  -14.3028   29.1468 O   0  0  0  0  0  0  0  0  0  0  0  0
   10.1182  -14.5805   30.3806 C   0  0  0  0  0  0  0  0  0  0  0  0
   10.3102  -15.2340   28.0713 C   0  0  0  0  0  0  0  0  0  0  0  0
   10.0894  -14.6856   26.6863 C   0  0  1  0  0  0  0  0  0  0  0  0
   10.4904  -15.5934   25.5801 N   0  0  0  0  0  0  0  0  0  0  0  0
   10.1863  -15.1131   24.2604 C   0  0  0  0  0  0  0  0  0  0  0  0
   10.0133  -16.9953   25.7903 O   0  0  0  0  0  0  0  0  0  0  0  0
    8.7936  -17.2990   25.6424 O   0  0  0  0  0  0  0  0  0  0  0  0
   12.3093  -20.2194   25.4013 C   0  0  0  0  0  0  0  0  0  0  0  0
   10.9321  -20.3494   25.3378 C   0  0  1  0  0  0  0  0  0  0  0  0
   10.3306  -19.4111   26.3760 N   0  0  0  0  0  0  0  0  0  0  0  0
   10.8785  -18.0646   26.1641 C   0  0  0  0  0  0  0  0  0  0  0  0
   10.6509  -19.8273   27.7409 O   0  0  0  0  0  0  0  0  0  0  0  0
   11.3593  -19.0138   28.6227 O   0  0  0  0  0  0  0  0  0  0  0  0
  2  3  2  0
  2  1  1  0
  4  2  1  0
  5  4  1  0
  6  5  1  0
  7  8  1  0
  7  6  1  0
  8 10  1  0
  8  9  1  6
 10 11  2  0
 12 13  1  0
 13 15  1  0
 14 13  2  0
 16 15  1  0
 17 16  1  6
 18 17  1  0
 18 10  1  0
 19 20  2  0
 19 17  1  0
 21 22  1  0
 23 22  1  6
 23 24  1  0
 23 25  1  0
 24 19  1  0
 25 26  1  0
 27 25  2  0
M  END
$$$$
