RQS.pdb
     RDKit          3D

 27 26  0  0  1  0  0  0  0  0999 V2000
    7.2897  -14.4715   15.1859 N   0  0  0  0  0  0  0  0  0  0  0  0
    8.5695  -14.0515   15.6342 C   0  0  0  0  0  0  0  0  0  0  0  0
    9.6263  -14.3086   14.9363 N   0  0  0  0  0  0  0  0  0  0  0  0
    8.7442  -13.3362   16.8616 N   0  0  0  0  0  0  0  0  0  0  0  0
    7.6037  -12.9766   17.6908 C   0  0  0  0  0  0  0  0  0  0  0  0
    7.2761  -14.2035   18.5146 C   0  0  0  0  0  0  0  0  0  0  0  0
    7.4137  -13.9716   20.0025 C   0  0  0  0  0  0  0  0  0  0  0  0
    8.1472  -15.1859   20.5464 C   0  0  2  0  0  0  0  0  0  0  0  0
    7.1880  -16.2687   20.6818 N   0  0  0  0  0  0  0  0  0  0  0  0
    8.7556  -14.9255   21.8546 C   0  0  0  0  0  0  0  0  0  0  0  0
    8.6866  -13.8191   22.4575 O   0  0  0  0  0  0  0  0  0  0  0  0
   10.5347  -13.9483   15.2446 N   0  0  0  0  0  0  0  0  0  0  0  0
    6.9067  -13.9173   25.9143 C   0  0  0  0  0  0  0  0  0  0  0  0
    6.6426  -15.2521   25.5092 O   0  0  0  0  0  0  0  0  0  0  0  0
    5.4659  -15.7200   25.6532 C   0  0  0  0  0  0  0  0  0  0  0  0
    7.7442  -16.0316   24.9395 C   0  0  0  0  0  0  0  0  0  0  0  0
    9.0455  -15.2797   24.8443 C   0  0  1  0  0  0  0  0  0  0  0  0
   10.0040  -15.8083   23.8391 N   0  0  0  0  0  0  0  0  0  0  0  0
    9.4721  -15.9557   22.5124 C   0  0  0  0  0  0  0  0  0  0  0  0
   10.6959  -17.0491   24.3068 O   0  0  0  0  0  0  0  0  0  0  0  0
   10.5248  -17.4888   25.4812 O   0  0  0  0  0  0  0  0  0  0  0  0
   14.8215  -16.1895   23.3238 C   0  0  0  0  0  0  0  0  0  0  0  0
   13.4413  -16.2665   23.2402 C   0  0  2  0  0  0  0  0  0  0  0  0
   13.0312  -17.6755   23.6482 N   0  0  0  0  0  0  0  0  0  0  0  0
   11.5775  -17.8071   23.4823 C   0  0  0  0  0  0  0  0  0  0  0  0
   13.3612  -17.9591   25.0444 O   0  0  0  0  0  0  0  0  0  0  0  0
   14.4703  -18.7192   25.4099 O   0  0  0  0  0  0  0  0  0  0  0  0
  2  3  2  0
  2  1  1  0
  4  2  1  0
  5  4  1  0
  6  5  1  0
  7  8  1  0
  7  6  1  0
  8 10  1  0
  8  9  1  1
 10 11  2  0
 12 13  1  0
 13 15  1  0
 14 13  2  0
 16 15  1  0
 17 16  1  6
 18 17  1  0
 18 10  1  0
 19 20  2  0
 19 17  1  0
 21 22  1  0
 23 22  1  6
 23 24  1  0
 23 25  1  0
 24 19  1  0
 25 26  1  0
 27 25  2  0
M  END
$$$$
