RQS.pdb
     RDKit          3D

 27 26  0  0  1  0  0  0  0  0999 V2000
    8.5308  -11.1645   21.7610 N   0  0  0  0  0  0  0  0  0  0  0  0
    7.8630  -12.2840   21.1987 C   0  0  0  0  0  0  0  0  0  0  0  0
    6.7726  -12.7318   21.7283 N   0  0  0  0  0  0  0  0  0  0  0  0
    8.3609  -12.9576   20.0381 N   0  0  0  0  0  0  0  0  0  0  0  0
    7.5531  -13.9447   19.3376 C   0  0  0  0  0  0  0  0  0  0  0  0
    8.4655  -14.5906   18.3171 C   0  0  0  0  0  0  0  0  0  0  0  0
    9.8027  -14.9991   18.8929 C   0  0  0  0  0  0  0  0  0  0  0  0
   10.5917  -15.5873   17.7353 C   0  0  2  0  0  0  0  0  0  0  0  0
    9.9483  -16.8270   17.3351 N   0  0  0  0  0  0  0  0  0  0  0  0
   11.9826  -15.8719   18.1009 C   0  0  0  0  0  0  0  0  0  0  0  0
   12.3566  -16.9232   18.6902 O   0  0  0  0  0  0  0  0  0  0  0  0
    6.2840  -13.5180   21.2890 N   0  0  0  0  0  0  0  0  0  0  0  0
   17.6666  -11.9446   17.9324 C   0  0  0  0  0  0  0  0  0  0  0  0
   17.6706  -13.3029   17.5194 O   0  0  0  0  0  0  0  0  0  0  0  0
   18.4899  -13.6712   16.6154 C   0  0  0  0  0  0  0  0  0  0  0  0
   16.7262  -14.2219   18.1592 C   0  0  0  0  0  0  0  0  0  0  0  0
   15.3245  -14.1420   17.6145 C   0  0  1  0  0  0  0  0  0  0  0  0
   14.3503  -15.0672   18.2496 N   0  0  0  0  0  0  0  0  0  0  0  0
   12.9960  -14.9322   17.7889 C   0  0  0  0  0  0  0  0  0  0  0  0
   14.4387  -15.0526   19.7426 O   0  0  0  0  0  0  0  0  0  0  0  0
   14.0452  -14.0519   20.4103 O   0  0  0  0  0  0  0  0  0  0  0  0
   14.5102  -18.3198   21.9078 C   0  0  0  0  0  0  0  0  0  0  0  0
   14.2176  -17.1479   22.5851 C   0  0  1  0  0  0  0  0  0  0  0  0
   15.0520  -16.0347   21.9650 N   0  0  0  0  0  0  0  0  0  0  0  0
   14.9608  -16.1396   20.5026 C   0  0  0  0  0  0  0  0  0  0  0  0
   16.4610  -16.1301   22.3450 O   0  0  0  0  0  0  0  0  0  0  0  0
   16.8852  -16.0377   23.6689 O   0  0  0  0  0  0  0  0  0  0  0  0
  2  3  2  0
  2  1  1  0
  4  2  1  0
  5  4  1  0
  6  5  1  0
  7  8  1  0
  7  6  1  0
  8 10  1  0
  8  9  1  1
 10 11  2  0
 12 13  1  0
 13 15  1  0
 14 13  2  0
 16 15  1  0
 17 16  1  6
 18 17  1  0
 18 10  1  0
 19 20  2  0
 19 17  1  0
 21 22  1  0
 23 22  1  1
 23 24  1  0
 23 25  1  0
 24 19  1  0
 25 26  1  0
 27 25  2  0
M  END
$$$$
