RQS.pdb
     RDKit          3D

 27 26  0  0  1  0  0  0  0  0999 V2000
    6.0197  -18.8266   13.8401 N   0  0  0  0  0  0  0  0  0  0  0  0
    5.6323  -19.7025   14.8880 C   0  0  0  0  0  0  0  0  0  0  0  0
    4.4157  -19.7068   15.3237 N   0  0  0  0  0  0  0  0  0  0  0  0
    6.5584  -20.6058   15.5004 N   0  0  0  0  0  0  0  0  0  0  0  0
    7.9621  -20.2539   15.6533 C   0  0  0  0  0  0  0  0  0  0  0  0
    8.0118  -18.7440   15.7481 C   0  0  0  0  0  0  0  0  0  0  0  0
    8.8428  -18.2509   16.9112 C   0  0  0  0  0  0  0  0  0  0  0  0
    8.8155  -16.7340   16.8281 C   0  0  2  0  0  0  0  0  0  0  0  0
    9.7127  -16.3248   15.7610 N   0  0  0  0  0  0  0  0  0  0  0  0
    9.2479  -16.1028   18.0787 C   0  0  0  0  0  0  0  0  0  0  0  0
   10.4551  -15.9616   18.4176 O   0  0  0  0  0  0  0  0  0  0  0  0
    4.1692  -20.2943   16.1262 N   0  0  0  0  0  0  0  0  0  0  0  0
    9.1734  -12.2232   18.0917 C   0  0  0  0  0  0  0  0  0  0  0  0
    8.9524  -12.3121   19.4912 O   0  0  0  0  0  0  0  0  0  0  0  0
    9.8890  -11.9751   20.2871 C   0  0  0  0  0  0  0  0  0  0  0  0
    7.6476  -12.7891   19.9554 C   0  0  0  0  0  0  0  0  0  0  0  0
    7.7119  -14.0358   20.7978 C   0  0  2  0  0  0  0  0  0  0  0  0
    8.6194  -15.0946   20.2842 N   0  0  0  0  0  0  0  0  0  0  0  0
    8.2786  -15.6090   18.9865 C   0  0  0  0  0  0  0  0  0  0  0  0
    8.8422  -16.1882   21.2800 O   0  0  0  0  0  0  0  0  0  0  0  0
    8.1596  -17.2534   21.2437 O   0  0  0  0  0  0  0  0  0  0  0  0
   10.7396  -19.4636   21.9182 C   0  0  0  0  0  0  0  0  0  0  0  0
   11.0394  -18.1254   21.7256 C   0  0  2  0  0  0  0  0  0  0  0  0
   10.4038  -17.3403   22.8655 N   0  0  0  0  0  0  0  0  0  0  0  0
    9.8167  -16.1103   22.3173 C   0  0  0  0  0  0  0  0  0  0  0  0
   11.3829  -16.9665   23.8855 O   0  0  0  0  0  0  0  0  0  0  0  0
   11.8104  -17.8540   24.8709 O   0  0  0  0  0  0  0  0  0  0  0  0
  2  3  2  0
  2  1  1  0
  4  2  1  0
  5  4  1  0
  6  5  1  0
  7  8  1  0
  7  6  1  0
  8 10  1  0
  8  9  1  6
 10 11  2  0
 12 13  1  0
 13 15  1  0
 14 13  2  0
 16 15  1  0
 17 16  1  6
 18 17  1  0
 18 10  1  0
 19 20  2  0
 19 17  1  0
 21 22  1  0
 23 22  1  6
 23 24  1  0
 23 25  1  0
 24 19  1  0
 25 26  1  0
 27 25  2  0
M  END
$$$$
