RQS.pdb
     RDKit          3D

 27 26  0  0  1  0  0  0  0  0999 V2000
    7.0988  -12.4049   17.6119 N   0  0  0  0  0  0  0  0  0  0  0  0
    7.7807  -12.7380   18.8117 C   0  0  0  0  0  0  0  0  0  0  0  0
    8.5407  -11.8718   19.3967 N   0  0  0  0  0  0  0  0  0  0  0  0
    7.6598  -14.0291   19.4174 N   0  0  0  0  0  0  0  0  0  0  0  0
    7.1452  -15.1655   18.6682 C   0  0  0  0  0  0  0  0  0  0  0  0
    8.3103  -15.7072   17.8680 C   0  0  0  0  0  0  0  0  0  0  0  0
    9.4294  -16.2369   18.7361 C   0  0  0  0  0  0  0  0  0  0  0  0
   10.5417  -16.6377   17.7817 C   0  0  2  0  0  0  0  0  0  0  0  0
   10.1071  -17.8169   17.0528 N   0  0  0  0  0  0  0  0  0  0  0  0
   11.7898  -16.9487   18.4852 C   0  0  0  0  0  0  0  0  0  0  0  0
   12.1052  -18.1028   18.8863 O   0  0  0  0  0  0  0  0  0  0  0  0
    9.0738  -12.1475   20.2271 N   0  0  0  0  0  0  0  0  0  0  0  0
   16.3162  -13.0833   16.9012 C   0  0  0  0  0  0  0  0  0  0  0  0
   16.3798  -13.4295   18.2766 O   0  0  0  0  0  0  0  0  0  0  0  0
   17.4608  -13.2175   18.9175 C   0  0  0  0  0  0  0  0  0  0  0  0
   15.1897  -14.0167   18.8966 C   0  0  0  0  0  0  0  0  0  0  0  0
   15.1541  -15.5217   18.8575 C   0  0  1  0  0  0  0  0  0  0  0  0
   13.9468  -16.1373   19.4674 N   0  0  0  0  0  0  0  0  0  0  0  0
   12.7231  -15.9155   18.7476 C   0  0  0  0  0  0  0  0  0  0  0  0
   13.8101  -15.8087   20.9202 O   0  0  0  0  0  0  0  0  0  0  0  0
   13.3102  -14.7085   21.2965 O   0  0  0  0  0  0  0  0  0  0  0  0
   13.3421  -18.4499   23.7349 C   0  0  0  0  0  0  0  0  0  0  0  0
   13.0814  -17.1292   24.0599 C   0  0  1  0  0  0  0  0  0  0  0  0
   14.1259  -16.2667   23.3636 N   0  0  0  0  0  0  0  0  0  0  0  0
   14.2241  -16.6907   21.9605 C   0  0  0  0  0  0  0  0  0  0  0  0
   15.4462  -16.4030   23.9776 O   0  0  0  0  0  0  0  0  0  0  0  0
   15.7056  -16.0029   25.2869 O   0  0  0  0  0  0  0  0  0  0  0  0
  2  3  2  0
  2  1  1  0
  4  2  1  0
  5  4  1  0
  6  5  1  0
  7  8  1  0
  7  6  1  0
  8 10  1  0
  8  9  1  1
 10 11  2  0
 12 13  1  0
 13 15  1  0
 14 13  2  0
 16 15  1  0
 17 16  1  6
 18 17  1  0
 18 10  1  0
 19 20  2  0
 19 17  1  0
 21 22  1  0
 23 22  1  6
 23 24  1  0
 23 25  1  0
 24 19  1  0
 25 26  1  0
 27 25  2  0
M  END
$$$$
