QAG.pdb
     RDKit          3D

 19 18  0  0  1  0  0  0  0  0999 V2000
    6.7824  -13.6157   20.1795 N   0  0  0  0  0  0  0  0  0  0  0  0
    7.9387  -13.3727   19.3684 C   0  0  0  0  0  0  0  0  0  0  0  0
    7.6945  -12.7155   18.3218 O   0  0  0  0  0  0  0  0  0  0  0  0
    9.2463  -13.8811   19.7923 C   0  0  0  0  0  0  0  0  0  0  0  0
    9.3130  -14.7089   21.0077 C   0  0  0  0  0  0  0  0  0  0  0  0
    9.5243  -16.1775   20.8484 C   0  0  2  0  0  0  0  0  0  0  0  0
    8.4885  -16.8557   20.1181 N   0  0  0  0  0  0  0  0  0  0  0  0
    9.5871  -16.7803   22.2061 C   0  0  0  0  0  0  0  0  0  0  0  0
    8.4824  -17.1607   22.6930 O   0  0  0  0  0  0  0  0  0  0  0  0
   11.7485  -18.8105   24.2535 C   0  0  0  0  0  0  0  0  0  0  0  0
   10.7466  -17.6949   24.2421 C   0  0  2  0  0  0  0  0  0  0  0  0
   10.7340  -16.9637   22.9851 N   0  0  0  0  0  0  0  0  0  0  0  0
   11.0360  -16.7228   25.3386 C   0  0  0  0  0  0  0  0  0  0  0  0
   11.4776  -15.5689   25.0902 O   0  0  0  0  0  0  0  0  0  0  0  0
   10.8107  -17.1009   26.6918 N   0  0  0  0  0  0  0  0  0  0  0  0
   11.1317  -16.1491   27.7267 C   0  0  0  0  0  0  0  0  0  0  0  0
   10.9500  -16.7414   29.0815 C   0  0  0  0  0  0  0  0  0  0  0  0
   10.4520  -17.8834   29.1715 O   0  0  0  0  0  0  0  0  0  0  0  0
   11.3113  -16.0755   30.2392 O   0  0  0  0  0  0  0  0  0  0  0  0
  2  1  1  0
  3  2  2  0
  4  2  1  0
  5  4  1  0
  6  5  1  0
  6  7  1  6
  8  6  1  0
  8 12  1  0
  9  8  2  0
 11 10  1  6
 11 12  1  0
 11 13  1  0
 13 15  1  0
 14 13  2  0
 15 16  1  0
 16 17  1  0
 17 19  1  0
 18 17  2  0
M  END
$$$$
