QAG.pdb
     RDKit          3D

 19 18  0  0  1  0  0  0  0  0999 V2000
    8.4595  -12.9717   19.1013 N   0  0  0  0  0  0  0  0  0  0  0  0
    7.4500  -13.8178   19.6663 C   0  0  0  0  0  0  0  0  0  0  0  0
    6.4128  -13.1991   20.0246 O   0  0  0  0  0  0  0  0  0  0  0  0
    7.6875  -15.2594   19.7809 C   0  0  0  0  0  0  0  0  0  0  0  0
    8.9704  -15.7962   19.2982 C   0  0  0  0  0  0  0  0  0  0  0  0
    9.1500  -17.2774   19.2760 C   0  0  2  0  0  0  0  0  0  0  0  0
    8.0022  -18.0263   19.7094 N   0  0  0  0  0  0  0  0  0  0  0  0
   10.2776  -17.6149   20.1845 C   0  0  0  0  0  0  0  0  0  0  0  0
   10.1101  -18.6332   20.9176 O   0  0  0  0  0  0  0  0  0  0  0  0
   13.9301  -16.9038   20.5913 C   0  0  0  0  0  0  0  0  0  0  0  0
   12.6085  -17.3939   21.1031 C   0  0  2  0  0  0  0  0  0  0  0  0
   11.4876  -16.9241   20.3047 N   0  0  0  0  0  0  0  0  0  0  0  0
   12.3942  -16.9419   22.5105 C   0  0  0  0  0  0  0  0  0  0  0  0
   13.2687  -17.1298   23.3983 O   0  0  0  0  0  0  0  0  0  0  0  0
   11.1813  -16.2859   22.8619 N   0  0  0  0  0  0  0  0  0  0  0  0
   11.0726  -15.7187   24.1834 C   0  0  0  0  0  0  0  0  0  0  0  0
   10.8169  -16.7723   25.2050 C   0  0  0  0  0  0  0  0  0  0  0  0
   10.7702  -17.9642   24.8340 O   0  0  0  0  0  0  0  0  0  0  0  0
   10.6300  -16.4803   26.5444 O   0  0  0  0  0  0  0  0  0  0  0  0
  2  1  1  0
  3  2  2  0
  4  2  1  0
  5  4  1  0
  6  5  1  0
  6  7  1  1
  8  6  1  0
  8 12  1  0
  9  8  2  0
 11 10  1  6
 11 12  1  0
 11 13  1  0
 13 15  1  0
 14 13  2  0
 15 16  1  0
 16 17  1  0
 17 19  1  0
 18 17  2  0
M  END
$$$$
