QAG.pdb
     RDKit          3D

 19 18  0  0  1  0  0  0  0  0999 V2000
   11.7689  -18.3650   20.9430 N   0  0  0  0  0  0  0  0  0  0  0  0
   10.8691  -18.7467   19.8948 C   0  0  0  0  0  0  0  0  0  0  0  0
    9.9022  -19.4516   20.2887 O   0  0  0  0  0  0  0  0  0  0  0  0
   11.1279  -18.3143   18.5186 C   0  0  0  0  0  0  0  0  0  0  0  0
   11.4776  -16.9037   18.2839 C   0  0  0  0  0  0  0  0  0  0  0  0
   10.5338  -16.0680   17.4856 C   0  0  2  0  0  0  0  0  0  0  0  0
   11.0872  -15.5337   16.2714 N   0  0  0  0  0  0  0  0  0  0  0  0
   10.1115  -14.9205   18.3315 C   0  0  0  0  0  0  0  0  0  0  0  0
   11.0255  -14.1063   18.6539 O   0  0  0  0  0  0  0  0  0  0  0  0
    7.0487  -13.1146   19.5244 C   0  0  0  0  0  0  0  0  0  0  0  0
    8.4833  -13.5317   19.6531 C   0  0  2  0  0  0  0  0  0  0  0  0
    8.8194  -14.6594   18.7985 N   0  0  0  0  0  0  0  0  0  0  0  0
    8.7907  -13.9140   21.0638 C   0  0  0  0  0  0  0  0  0  0  0  0
    8.5980  -13.1113   22.0160 O   0  0  0  0  0  0  0  0  0  0  0  0
    9.3115  -15.2082   21.3446 N   0  0  0  0  0  0  0  0  0  0  0  0
    9.5064  -15.5786   22.7247 C   0  0  0  0  0  0  0  0  0  0  0  0
   10.9443  -15.5036   23.1070 C   0  0  0  0  0  0  0  0  0  0  0  0
   11.7775  -15.1807   22.2342 O   0  0  0  0  0  0  0  0  0  0  0  0
   11.3888  -15.7775   24.3883 O   0  0  0  0  0  0  0  0  0  0  0  0
  2  1  1  0
  3  2  2  0
  4  2  1  0
  5  4  1  0
  6  5  1  0
  6  7  1  6
  8  6  1  0
  8 12  1  0
  9  8  2  0
 11 10  1  1
 11 12  1  0
 11 13  1  0
 13 15  1  0
 14 13  2  0
 15 16  1  0
 16 17  1  0
 17 19  1  0
 18 17  2  0
M  END
$$$$
