QAG.pdb
     RDKit          3D

 19 18  0  0  1  0  0  0  0  0999 V2000
    8.6033  -11.6497   19.4009 N   0  0  0  0  0  0  0  0  0  0  0  0
    9.2776  -12.7666   18.8077 C   0  0  0  0  0  0  0  0  0  0  0  0
   10.0337  -12.4518   17.8505 O   0  0  0  0  0  0  0  0  0  0  0  0
    9.0481  -14.1171   19.3286 C   0  0  0  0  0  0  0  0  0  0  0  0
    8.1218  -14.2807   20.4609 C   0  0  0  0  0  0  0  0  0  0  0  0
    7.7647  -15.6665   20.8837 C   0  0  2  0  0  0  0  0  0  0  0  0
    6.6264  -16.2246   20.2062 N   0  0  0  0  0  0  0  0  0  0  0  0
    7.4533  -15.6351   22.3372 C   0  0  0  0  0  0  0  0  0  0  0  0
    6.3088  -15.1920   22.6472 O   0  0  0  0  0  0  0  0  0  0  0  0
    6.6745  -16.8593   25.0412 C   0  0  0  0  0  0  0  0  0  0  0  0
    7.9005  -16.0365   24.7795 C   0  0  2  0  0  0  0  0  0  0  0  0
    8.2926  -16.0421   23.3792 N   0  0  0  0  0  0  0  0  0  0  0  0
    9.0519  -16.5459   25.5831 C   0  0  0  0  0  0  0  0  0  0  0  0
   10.0607  -17.0587   25.0287 O   0  0  0  0  0  0  0  0  0  0  0  0
    9.0149  -16.4532   27.0027 N   0  0  0  0  0  0  0  0  0  0  0  0
   10.2008  -16.8149   27.7393 C   0  0  0  0  0  0  0  0  0  0  0  0
   10.0925  -18.1922   28.2964 C   0  0  0  0  0  0  0  0  0  0  0  0
    9.0596  -18.8528   28.0576 O   0  0  0  0  0  0  0  0  0  0  0  0
   11.0901  -18.7643   29.0657 O   0  0  0  0  0  0  0  0  0  0  0  0
  2  1  1  0
  3  2  2  0
  4  2  1  0
  5  4  1  0
  6  5  1  0
  6  7  1  6
  8  6  1  0
  8 12  1  0
  9  8  2  0
 11 10  1  6
 11 12  1  0
 11 13  1  0
 13 15  1  0
 14 13  2  0
 15 16  1  0
 16 17  1  0
 17 19  1  0
 18 17  2  0
M  END
$$$$
