QAG.pdb
     RDKit          3D

 19 18  0  0  1  0  0  0  0  0999 V2000
    5.7641  -19.7524   25.7790 N   0  0  0  0  0  0  0  0  0  0  0  0
    6.4064  -20.5384   24.7671 C   0  0  0  0  0  0  0  0  0  0  0  0
    6.9667  -21.5757   25.2109 O   0  0  0  0  0  0  0  0  0  0  0  0
    6.3675  -20.0998   23.3693 C   0  0  0  0  0  0  0  0  0  0  0  0
    5.6238  -18.8719   23.0432 C   0  0  0  0  0  0  0  0  0  0  0  0
    5.5996  -18.4204   21.6211 C   0  0  2  0  0  0  0  0  0  0  0  0
    5.8420  -19.4599   20.6585 N   0  0  0  0  0  0  0  0  0  0  0  0
    6.6594  -17.3917   21.4499 C   0  0  0  0  0  0  0  0  0  0  0  0
    7.7967  -17.8236   21.1004 O   0  0  0  0  0  0  0  0  0  0  0  0
    7.1546  -13.6402   21.4966 C   0  0  0  0  0  0  0  0  0  0  0  0
    7.6173  -15.0666   21.5001 C   0  0  2  0  0  0  0  0  0  0  0  0
    6.5213  -16.0126   21.6363 N   0  0  0  0  0  0  0  0  0  0  0  0
    8.5727  -15.3022   22.6238 C   0  0  0  0  0  0  0  0  0  0  0  0
    8.1776  -15.3481   23.8196 O   0  0  0  0  0  0  0  0  0  0  0  0
    9.9569  -15.4791   22.3452 N   0  0  0  0  0  0  0  0  0  0  0  0
   10.8467  -15.7323   23.4515 C   0  0  0  0  0  0  0  0  0  0  0  0
   12.2674  -15.7716   23.0050 C   0  0  0  0  0  0  0  0  0  0  0  0
   12.5134  -15.6476   21.7866 O   0  0  0  0  0  0  0  0  0  0  0  0
   13.3201  -15.9399   23.8868 O   0  0  0  0  0  0  0  0  0  0  0  0
  2  1  1  0
  3  2  2  0
  4  2  1  0
  5  4  1  0
  6  5  1  0
  6  7  1  6
  8  6  1  0
  8 12  1  0
  9  8  2  0
 11 10  1  1
 11 12  1  0
 11 13  1  0
 13 15  1  0
 14 13  2  0
 15 16  1  0
 16 17  1  0
 17 19  1  0
 18 17  2  0
M  END
$$$$
