QAG.pdb
     RDKit          3D

 19 18  0  0  1  0  0  0  0  0999 V2000
    9.5355  -13.8084   16.7440 N   0  0  0  0  0  0  0  0  0  0  0  0
    8.1290  -13.7489   16.4750 C   0  0  0  0  0  0  0  0  0  0  0  0
    7.8186  -14.1284   15.3146 O   0  0  0  0  0  0  0  0  0  0  0  0
    7.2081  -13.2748   17.5118 C   0  0  0  0  0  0  0  0  0  0  0  0
    7.7177  -13.1298   18.8852 C   0  0  0  0  0  0  0  0  0  0  0  0
    8.4307  -14.2889   19.4974 C   0  0  2  0  0  0  0  0  0  0  0  0
    8.0290  -15.5735   18.9929 N   0  0  0  0  0  0  0  0  0  0  0  0
    8.1579  -14.2734   20.9589 C   0  0  0  0  0  0  0  0  0  0  0  0
    8.1802  -13.1353   21.5127 O   0  0  0  0  0  0  0  0  0  0  0  0
    6.8724  -16.4471   23.7401 C   0  0  0  0  0  0  0  0  0  0  0  0
    7.6714  -15.2967   23.2044 C   0  0  2  0  0  0  0  0  0  0  0  0
    7.8836  -15.3805   21.7682 N   0  0  0  0  0  0  0  0  0  0  0  0
    9.0092  -15.2379   23.8660 C   0  0  0  0  0  0  0  0  0  0  0  0
    9.1163  -15.0997   25.1141 O   0  0  0  0  0  0  0  0  0  0  0  0
   10.1893  -15.3395   23.0774 N   0  0  0  0  0  0  0  0  0  0  0  0
   11.4600  -15.3900   23.7575 C   0  0  0  0  0  0  0  0  0  0  0  0
   12.1746  -16.6661   23.4747 C   0  0  0  0  0  0  0  0  0  0  0  0
   13.0454  -16.6764   22.5791 O   0  0  0  0  0  0  0  0  0  0  0  0
   11.9102  -17.8357   24.1649 O   0  0  0  0  0  0  0  0  0  0  0  0
  2  1  1  0
  3  2  2  0
  4  2  1  0
  5  4  1  0
  6  5  1  0
  6  7  1  6
  8  6  1  0
  8 12  1  0
  9  8  2  0
 11 10  1  1
 11 12  1  0
 11 13  1  0
 13 15  1  0
 14 13  2  0
 15 16  1  0
 16 17  1  0
 17 19  1  0
 18 17  2  0
M  END
$$$$
