QAG.pdb
     RDKit          3D

 19 18  0  0  1  0  0  0  0  0999 V2000
    8.9669  -16.4361   26.1277 N   0  0  0  0  0  0  0  0  0  0  0  0
    8.6037  -17.6717   26.7566 C   0  0  0  0  0  0  0  0  0  0  0  0
    8.7208  -17.6554   28.0108 O   0  0  0  0  0  0  0  0  0  0  0  0
    8.1507  -18.8002   25.9387 C   0  0  0  0  0  0  0  0  0  0  0  0
    8.0145  -18.6000   24.4867 C   0  0  0  0  0  0  0  0  0  0  0  0
    6.7033  -18.1176   23.9626 C   0  0  2  0  0  0  0  0  0  0  0  0
    5.8262  -19.1563   23.4958 N   0  0  0  0  0  0  0  0  0  0  0  0
    6.9749  -17.2088   22.8176 C   0  0  0  0  0  0  0  0  0  0  0  0
    7.0804  -17.7640   21.6850 O   0  0  0  0  0  0  0  0  0  0  0  0
    6.8056  -13.5752   21.9177 C   0  0  0  0  0  0  0  0  0  0  0  0
    7.2856  -14.9786   21.6969 C   0  0  2  0  0  0  0  0  0  0  0  0
    7.1236  -15.8193   22.8724 N   0  0  0  0  0  0  0  0  0  0  0  0
    8.7315  -14.9825   21.3225 C   0  0  0  0  0  0  0  0  0  0  0  0
    9.1348  -14.4292   20.2646 O   0  0  0  0  0  0  0  0  0  0  0  0
    9.6768  -15.6215   22.1728 N   0  0  0  0  0  0  0  0  0  0  0  0
   11.0566  -15.6525   21.7544 C   0  0  0  0  0  0  0  0  0  0  0  0
   11.9153  -16.3221   22.7710 C   0  0  0  0  0  0  0  0  0  0  0  0
   11.3645  -16.8730   23.7475 O   0  0  0  0  0  0  0  0  0  0  0  0
   13.2950  -16.3561   22.6735 O   0  0  0  0  0  0  0  0  0  0  0  0
  2  1  1  0
  3  2  2  0
  4  2  1  0
  5  4  1  0
  6  5  1  0
  6  7  1  6
  8  6  1  0
  8 12  1  0
  9  8  2  0
 11 10  1  1
 11 12  1  0
 11 13  1  0
 13 15  1  0
 14 13  2  0
 15 16  1  0
 16 17  1  0
 17 19  1  0
 18 17  2  0
M  END
$$$$
