QAG.pdb
     RDKit          3D

 19 18  0  0  1  0  0  0  0  0999 V2000
    5.5121  -19.3804   23.2521 N   0  0  0  0  0  0  0  0  0  0  0  0
    6.6029  -19.2072   24.1655 C   0  0  0  0  0  0  0  0  0  0  0  0
    6.5733  -19.9979   25.1457 O   0  0  0  0  0  0  0  0  0  0  0  0
    7.6140  -18.1784   23.9066 C   0  0  0  0  0  0  0  0  0  0  0  0
    7.4499  -17.3207   22.7215 C   0  0  0  0  0  0  0  0  0  0  0  0
    8.4708  -16.2612   22.4726 C   0  0  2  0  0  0  0  0  0  0  0  0
    8.9623  -15.6130   23.6576 N   0  0  0  0  0  0  0  0  0  0  0  0
    7.8483  -15.2191   21.6141 C   0  0  0  0  0  0  0  0  0  0  0  0
    6.9611  -14.5056   22.1674 O   0  0  0  0  0  0  0  0  0  0  0  0
    7.7836  -12.5308   20.0879 C   0  0  0  0  0  0  0  0  0  0  0  0
    7.5263  -13.8880   19.5044 C   0  0  2  0  0  0  0  0  0  0  0  0
    8.1449  -14.9565   20.2729 N   0  0  0  0  0  0  0  0  0  0  0  0
    8.0487  -13.9626   18.1071 C   0  0  0  0  0  0  0  0  0  0  0  0
    7.6501  -13.1653   17.2162 O   0  0  0  0  0  0  0  0  0  0  0  0
    9.0152  -14.9507   17.7689 N   0  0  0  0  0  0  0  0  0  0  0  0
    9.4442  -15.0409   16.3950 C   0  0  0  0  0  0  0  0  0  0  0  0
   10.3869  -16.1771   16.1961 C   0  0  0  0  0  0  0  0  0  0  0  0
   10.6651  -16.9000   17.1760 O   0  0  0  0  0  0  0  0  0  0  0  0
   10.9634  -16.4597   14.9705 O   0  0  0  0  0  0  0  0  0  0  0  0
  2  1  1  0
  3  2  2  0
  4  2  1  0
  5  4  1  0
  6  5  1  0
  6  7  1  1
  8  6  1  0
  8 12  1  0
  9  8  2  0
 11 10  1  1
 11 12  1  0
 11 13  1  0
 13 15  1  0
 14 13  2  0
 15 16  1  0
 16 17  1  0
 17 19  1  0
 18 17  2  0
M  END
$$$$
