QAG.pdb
     RDKit          3D

 19 18  0  0  1  0  0  0  0  0999 V2000
    7.8343  -16.0732   15.1393 N   0  0  0  0  0  0  0  0  0  0  0  0
    7.8610  -14.6441   15.0333 C   0  0  0  0  0  0  0  0  0  0  0  0
    8.0199  -14.2263   13.8556 O   0  0  0  0  0  0  0  0  0  0  0  0
    7.7120  -13.8211   16.2367 C   0  0  0  0  0  0  0  0  0  0  0  0
    8.9251  -13.4504   16.9838 C   0  0  0  0  0  0  0  0  0  0  0  0
    9.4106  -14.3812   18.0442 C   0  0  2  0  0  0  0  0  0  0  0  0
    8.9984  -15.7479   17.8761 N   0  0  0  0  0  0  0  0  0  0  0  0
    8.8770  -13.9068   19.3484 C   0  0  0  0  0  0  0  0  0  0  0  0
    9.2238  -12.7398   19.6952 O   0  0  0  0  0  0  0  0  0  0  0  0
    6.1882  -14.4164   21.8206 C   0  0  0  0  0  0  0  0  0  0  0  0
    7.6284  -14.1255   21.5208 C   0  0  2  0  0  0  0  0  0  0  0  0
    8.0411  -14.6171   20.2159 N   0  0  0  0  0  0  0  0  0  0  0  0
    8.5120  -14.7507   22.5500 C   0  0  0  0  0  0  0  0  0  0  0  0
    8.3589  -14.5094   23.7774 O   0  0  0  0  0  0  0  0  0  0  0  0
    9.5484  -15.6368   22.1431 N   0  0  0  0  0  0  0  0  0  0  0  0
   10.3664  -16.2421   23.1650 C   0  0  0  0  0  0  0  0  0  0  0  0
   11.8155  -16.0210   22.8995 C   0  0  0  0  0  0  0  0  0  0  0  0
   12.1459  -15.4215   21.8547 O   0  0  0  0  0  0  0  0  0  0  0  0
   12.8049  -16.4536   23.7645 O   0  0  0  0  0  0  0  0  0  0  0  0
  2  1  1  0
  3  2  2  0
  4  2  1  0
  5  4  1  0
  6  5  1  0
  6  7  1  6
  8  6  1  0
  8 12  1  0
  9  8  2  0
 11 10  1  1
 11 12  1  0
 11 13  1  0
 13 15  1  0
 14 13  2  0
 15 16  1  0
 16 17  1  0
 17 19  1  0
 18 17  2  0
M  END
$$$$
