QAG.pdb
     RDKit          3D

 19 18  0  0  1  0  0  0  0  0999 V2000
    7.1254  -17.7552   12.4720 N   0  0  0  0  0  0  0  0  0  0  0  0
    7.2828  -16.3673   12.7929 C   0  0  0  0  0  0  0  0  0  0  0  0
    7.5943  -15.6510   11.8045 O   0  0  0  0  0  0  0  0  0  0  0  0
    7.0831  -15.9106   14.1710 C   0  0  0  0  0  0  0  0  0  0  0  0
    8.2717  -15.6535   15.0007 C   0  0  0  0  0  0  0  0  0  0  0  0
    8.2859  -16.1863   16.3944 C   0  0  2  0  0  0  0  0  0  0  0  0
    6.9875  -16.4803   16.9364 N   0  0  0  0  0  0  0  0  0  0  0  0
    8.9180  -15.1631   17.2686 C   0  0  0  0  0  0  0  0  0  0  0  0
   10.1339  -14.9063   17.0279 O   0  0  0  0  0  0  0  0  0  0  0  0
    8.1437  -12.6346   19.9476 C   0  0  0  0  0  0  0  0  0  0  0  0
    9.0294  -13.6298   19.2592 C   0  0  2  0  0  0  0  0  0  0  0  0
    8.3060  -14.4682   18.3167 N   0  0  0  0  0  0  0  0  0  0  0  0
    9.6875  -14.5221   20.2600 C   0  0  0  0  0  0  0  0  0  0  0  0
    9.0209  -15.3514   20.9353 O   0  0  0  0  0  0  0  0  0  0  0  0
   11.0941  -14.4391   20.4592 N   0  0  0  0  0  0  0  0  0  0  0  0
   11.7147  -15.3993   21.3383 C   0  0  0  0  0  0  0  0  0  0  0  0
   13.1897  -15.2002   21.4019 C   0  0  0  0  0  0  0  0  0  0  0  0
   13.7122  -14.3633   20.6359 O   0  0  0  0  0  0  0  0  0  0  0  0
   13.9987  -15.9056   22.2749 O   0  0  0  0  0  0  0  0  0  0  0  0
  2  1  1  0
  3  2  2  0
  4  2  1  0
  5  4  1  0
  6  5  1  0
  6  7  1  1
  8  6  1  0
  8 12  1  0
  9  8  2  0
 11 10  1  1
 11 12  1  0
 11 13  1  0
 13 15  1  0
 14 13  2  0
 15 16  1  0
 16 17  1  0
 17 19  1  0
 18 17  2  0
M  END
$$$$
