QAG.pdb
     RDKit          3D

 19 18  0  0  1  0  0  0  0  0999 V2000
   13.8053  -14.9822   20.2158 N   0  0  0  0  0  0  0  0  0  0  0  0
   14.2508  -14.8855   18.8570 C   0  0  0  0  0  0  0  0  0  0  0  0
   15.4532  -14.5277   18.7423 O   0  0  0  0  0  0  0  0  0  0  0  0
   13.3249  -15.1909   17.7629 C   0  0  0  0  0  0  0  0  0  0  0  0
   11.9976  -15.7302   18.1014 C   0  0  0  0  0  0  0  0  0  0  0  0
   10.8143  -15.2055   17.3589 C   0  0  2  0  0  0  0  0  0  0  0  0
   11.1342  -14.4622   16.1710 N   0  0  0  0  0  0  0  0  0  0  0  0
   10.0678  -14.2988   18.2706 C   0  0  0  0  0  0  0  0  0  0  0  0
   10.6152  -13.1827   18.5092 O   0  0  0  0  0  0  0  0  0  0  0  0
    6.6590  -13.8192   19.7529 C   0  0  0  0  0  0  0  0  0  0  0  0
    8.1433  -13.6067   19.7346 C   0  0  2  0  0  0  0  0  0  0  0  0
    8.8366  -14.5583   18.8811 N   0  0  0  0  0  0  0  0  0  0  0  0
    8.7047  -13.7291   21.1133 C   0  0  0  0  0  0  0  0  0  0  0  0
    8.2730  -13.0192   22.0609 O   0  0  0  0  0  0  0  0  0  0  0  0
    9.7471  -14.6636   21.3682 N   0  0  0  0  0  0  0  0  0  0  0  0
   10.1175  -14.9126   22.7395 C   0  0  0  0  0  0  0  0  0  0  0  0
   11.2755  -15.8458   22.8262 C   0  0  0  0  0  0  0  0  0  0  0  0
   11.7542  -16.3025   21.7667 O   0  0  0  0  0  0  0  0  0  0  0  0
   11.8379  -16.2237   24.0325 O   0  0  0  0  0  0  0  0  0  0  0  0
  2  1  1  0
  3  2  2  0
  4  2  1  0
  5  4  1  0
  6  5  1  0
  6  7  1  6
  8  6  1  0
  8 12  1  0
  9  8  2  0
 11 10  1  1
 11 12  1  0
 11 13  1  0
 13 15  1  0
 14 13  2  0
 15 16  1  0
 16 17  1  0
 17 19  1  0
 18 17  2  0
M  END
$$$$
