QAG.pdb
     RDKit          3D

 19 18  0  0  1  0  0  0  0  0999 V2000
    6.9172  -12.8154   18.8438 N   0  0  0  0  0  0  0  0  0  0  0  0
    8.0965  -13.6034   18.6381 C   0  0  0  0  0  0  0  0  0  0  0  0
    8.5922  -13.4823   17.4864 O   0  0  0  0  0  0  0  0  0  0  0  0
    8.6080  -14.4465   19.7222 C   0  0  0  0  0  0  0  0  0  0  0  0
    7.9276  -14.3959   21.0266 C   0  0  0  0  0  0  0  0  0  0  0  0
    8.4600  -15.2455   22.1318 C   0  0  2  0  0  0  0  0  0  0  0  0
    9.3713  -16.2741   21.7105 N   0  0  0  0  0  0  0  0  0  0  0  0
    7.3064  -15.9093   22.7946 C   0  0  0  0  0  0  0  0  0  0  0  0
    6.4024  -15.1386   23.2316 O   0  0  0  0  0  0  0  0  0  0  0  0
    5.1087  -18.6874   22.9493 C   0  0  0  0  0  0  0  0  0  0  0  0
    6.0516  -17.8588   23.7697 C   0  0  2  0  0  0  0  0  0  0  0  0
    7.1282  -17.2841   22.9789 N   0  0  0  0  0  0  0  0  0  0  0  0
    6.6646  -18.6848   24.8527 C   0  0  0  0  0  0  0  0  0  0  0  0
    5.9521  -19.3561   25.6463 O   0  0  0  0  0  0  0  0  0  0  0  0
    8.0800  -18.7185   24.9963 N   0  0  0  0  0  0  0  0  0  0  0  0
    8.6368  -19.5089   26.0664 C   0  0  0  0  0  0  0  0  0  0  0  0
    9.4651  -18.6742   26.9809 C   0  0  0  0  0  0  0  0  0  0  0  0
    9.5263  -17.4438   26.7742 O   0  0  0  0  0  0  0  0  0  0  0  0
   10.1663  -19.2097   28.0467 O   0  0  0  0  0  0  0  0  0  0  0  0
  2  1  1  0
  3  2  2  0
  4  2  1  0
  5  4  1  0
  6  5  1  0
  6  7  1  6
  8  6  1  0
  8 12  1  0
  9  8  2  0
 11 10  1  6
 11 12  1  0
 11 13  1  0
 13 15  1  0
 14 13  2  0
 15 16  1  0
 16 17  1  0
 17 19  1  0
 18 17  2  0
M  END
$$$$
