QAG.pdb
     RDKit          3D

 19 18  0  0  1  0  0  0  0  0999 V2000
    6.5092  -13.8529   46.8929 N   0  0  0  0  0  0  0  0  0  0  0  0
    6.6426  -15.2346   46.5361 C   0  0  0  0  0  0  0  0  0  0  0  0
    5.8464  -15.9950   47.1483 O   0  0  0  0  0  0  0  0  0  0  0  0
    7.6416  -15.6377   45.5425 C   0  0  0  0  0  0  0  0  0  0  0  0
    8.4329  -14.5868   44.8818 C   0  0  0  0  0  0  0  0  0  0  0  0
    9.4043  -14.9961   43.8257 C   0  0  2  0  0  0  0  0  0  0  0  0
   10.5770  -15.6660   44.3178 N   0  0  0  0  0  0  0  0  0  0  0  0
    9.8512  -13.7690   43.1150 C   0  0  0  0  0  0  0  0  0  0  0  0
   10.8236  -13.1507   43.6389 O   0  0  0  0  0  0  0  0  0  0  0  0
    9.2938  -11.8553   39.9080 C   0  0  0  0  0  0  0  0  0  0  0  0
    9.7649  -12.0055   41.3237 C   0  0  2  0  0  0  0  0  0  0  0  0
    9.3067  -13.2402   41.9404 N   0  0  0  0  0  0  0  0  0  0  0  0
    9.2805  -10.8653   42.1582 C   0  0  0  0  0  0  0  0  0  0  0  0
    8.0892  -10.8127   42.5658 O   0  0  0  0  0  0  0  0  0  0  0  0
   10.1767   -9.8152   42.5031 N   0  0  0  0  0  0  0  0  0  0  0  0
    9.6744   -8.7285   43.3073 C   0  0  0  0  0  0  0  0  0  0  0  0
    9.9801   -7.4095   42.6861 C   0  0  0  0  0  0  0  0  0  0  0  0
   10.6238   -7.3890   41.6158 O   0  0  0  0  0  0  0  0  0  0  0  0
    9.5788   -6.2110   43.2490 O   0  0  0  0  0  0  0  0  0  0  0  0
  2  1  1  0
  3  2  2  0
  4  2  1  0
  5  4  1  0
  6  5  1  0
  6  7  1  1
  8  6  1  0
  8 12  1  0
  9  8  2  0
 11 10  1  6
 11 12  1  0
 11 13  1  0
 13 15  1  0
 14 13  2  0
 15 16  1  0
 16 17  1  0
 17 19  1  0
 18 17  2  0
M  END
$$$$
