QAG.pdb
     RDKit          3D

 19 18  0  0  1  0  0  0  0  0999 V2000
    9.1730  -13.7190   15.8312 N   0  0  0  0  0  0  0  0  0  0  0  0
    7.8830  -14.1672   16.2659 C   0  0  0  0  0  0  0  0  0  0  0  0
    7.3799  -15.0554   15.5276 O   0  0  0  0  0  0  0  0  0  0  0  0
    7.2777  -13.5891   17.4689 C   0  0  0  0  0  0  0  0  0  0  0  0
    8.0196  -12.5413   18.1893 C   0  0  0  0  0  0  0  0  0  0  0  0
    9.2355  -12.9408   18.9565 C   0  0  2  0  0  0  0  0  0  0  0  0
    9.9994  -14.0013   18.3583 N   0  0  0  0  0  0  0  0  0  0  0  0
    8.7971  -13.4034   20.2997 C   0  0  0  0  0  0  0  0  0  0  0  0
    8.0607  -12.6023   20.9464 O   0  0  0  0  0  0  0  0  0  0  0  0
    7.6205  -16.0198   22.2697 C   0  0  0  0  0  0  0  0  0  0  0  0
    8.7041  -14.9833   22.2546 C   0  0  2  0  0  0  0  0  0  0  0  0
    9.1168  -14.6215   20.9080 N   0  0  0  0  0  0  0  0  0  0  0  0
    9.9075  -15.4761   22.9894 C   0  0  0  0  0  0  0  0  0  0  0  0
    9.8157  -15.9437   24.1561 O   0  0  0  0  0  0  0  0  0  0  0  0
   11.1851  -15.4191   22.3655 N   0  0  0  0  0  0  0  0  0  0  0  0
   12.3181  -15.9464   23.0854 C   0  0  0  0  0  0  0  0  0  0  0  0
   13.5568  -15.8918   22.2596 C   0  0  0  0  0  0  0  0  0  0  0  0
   14.2743  -14.8715   22.3272 O   0  0  0  0  0  0  0  0  0  0  0  0
   13.9401  -16.9256   21.4239 O   0  0  0  0  0  0  0  0  0  0  0  0
  2  1  1  0
  3  2  2  0
  4  2  1  0
  5  4  1  0
  6  5  1  0
  6  7  1  6
  8  6  1  0
  8 12  1  0
  9  8  2  0
 11 10  1  6
 11 12  1  0
 11 13  1  0
 13 15  1  0
 14 13  2  0
 15 16  1  0
 16 17  1  0
 17 19  1  0
 18 17  2  0
M  END
$$$$
