QAG.pdb
     RDKit          3D

 19 18  0  0  1  0  0  0  0  0999 V2000
    6.2994  -23.9173   28.5123 N   0  0  0  0  0  0  0  0  0  0  0  0
    7.3587  -22.9817   28.7505 C   0  0  0  0  0  0  0  0  0  0  0  0
    8.3448  -23.4768   29.3583 O   0  0  0  0  0  0  0  0  0  0  0  0
    7.2222  -21.5950   28.2964 C   0  0  0  0  0  0  0  0  0  0  0  0
    5.9789  -21.2035   27.6123 C   0  0  0  0  0  0  0  0  0  0  0  0
    5.9752  -21.1757   26.1203 C   0  0  2  0  0  0  0  0  0  0  0  0
    6.4776  -22.3699   25.4979 N   0  0  0  0  0  0  0  0  0  0  0  0
    6.8337  -20.0437   25.6820 C   0  0  0  0  0  0  0  0  0  0  0  0
    7.8798  -20.3593   25.0429 O   0  0  0  0  0  0  0  0  0  0  0  0
    6.8477  -16.2805   25.4439 C   0  0  0  0  0  0  0  0  0  0  0  0
    7.5047  -17.6280   25.4803 C   0  0  2  0  0  0  0  0  0  0  0  0
    6.5991  -18.6833   25.9060 N   0  0  0  0  0  0  0  0  0  0  0  0
    8.6699  -17.6151   26.4147 C   0  0  0  0  0  0  0  0  0  0  0  0
    9.6397  -16.8295   26.2401 O   0  0  0  0  0  0  0  0  0  0  0  0
    8.6913  -18.5045   27.5253 N   0  0  0  0  0  0  0  0  0  0  0  0
    9.7533  -18.3625   28.4905 C   0  0  0  0  0  0  0  0  0  0  0  0
   10.8450  -19.3453   28.2421 C   0  0  0  0  0  0  0  0  0  0  0  0
   10.8021  -20.0340   27.2009 O   0  0  0  0  0  0  0  0  0  0  0  0
   11.9004  -19.5225   29.1190 O   0  0  0  0  0  0  0  0  0  0  0  0
  2  1  1  0
  3  2  2  0
  4  2  1  0
  5  4  1  0
  6  5  1  0
  6  7  1  6
  8  6  1  0
  8 12  1  0
  9  8  2  0
 11 10  1  1
 11 12  1  0
 11 13  1  0
 13 15  1  0
 14 13  2  0
 15 16  1  0
 16 17  1  0
 17 19  1  0
 18 17  2  0
M  END
$$$$
