QFH.pdb
     RDKit          3D

 31 32  0  0  1  0  0  0  0  0999 V2000
    7.2917  -20.5034   18.7363 N   0  0  0  0  0  0  0  0  0  0  0  0
    8.2547  -20.3079   19.7365 C   0  0  0  0  0  0  0  0  0  0  0  0
    8.8930  -21.2832   20.2026 O   0  0  0  0  0  0  0  0  0  0  0  0
    8.5361  -18.9483   20.2610 C   0  0  0  0  0  0  0  0  0  0  0  0
    7.6829  -17.9010   19.5759 C   0  0  0  0  0  0  0  0  0  0  0  0
    8.4765  -16.6196   19.5544 C   0  0  2  0  0  0  0  0  0  0  0  0
    9.6827  -16.7709   18.8110 N   0  0  0  0  0  0  0  0  0  0  0  0
    8.7546  -16.0784   20.8877 C   0  0  0  0  0  0  0  0  0  0  0  0
    9.8770  -16.3094   21.4019 O   0  0  0  0  0  0  0  0  0  0  0  0
    7.8329  -15.3063   21.6391 N   0  0  0  0  0  0  0  0  0  0  0  0
    8.0622  -14.7102   22.9059 C   0  0  1  0  0  0  0  0  0  0  0  0
    6.9496  -13.8123   23.4126 C   0  0  0  0  0  0  0  0  0  0  0  0
    7.2021  -13.2142   24.7215 C   0  0  0  0  0  0  0  0  0  0  0  0
    6.5975  -13.6688   25.8586 C   0  0  0  0  0  0  0  0  0  0  0  0
    6.8396  -13.0868   27.1096 C   0  0  0  0  0  0  0  0  0  0  0  0
    7.7053  -12.0268   27.2278 C   0  0  0  0  0  0  0  0  0  0  0  0
    8.3309  -11.5494   26.0825 C   0  0  0  0  0  0  0  0  0  0  0  0
    8.0773  -12.1359   24.8701 C   0  0  0  0  0  0  0  0  0  0  0  0
    8.3922  -15.6760   23.9725 C   0  0  0  0  0  0  0  0  0  0  0  0
    7.6148  -16.6636   24.2133 O   0  0  0  0  0  0  0  0  0  0  0  0
    9.5430  -15.6128   24.7952 N   0  0  0  0  0  0  0  0  0  0  0  0
   10.1243  -16.7687   25.4471 C   0  0  1  0  0  0  0  0  0  0  0  0
   11.5748  -16.9550   25.0593 C   0  0  0  0  0  0  0  0  0  0  0  0
   12.1766  -18.1152   25.8069 C   0  0  0  0  0  0  0  0  0  0  0  0
   11.5534  -18.9065   26.7311 C   0  0  0  0  0  0  0  0  0  0  0  0
   12.4428  -19.8167   27.1504 N   0  0  0  0  0  0  0  0  0  0  0  0
   13.6262  -19.6232   26.5112 C   0  0  0  0  0  0  0  0  0  0  0  0
   13.4403  -18.5770   25.6940 N   0  0  0  0  0  0  0  0  0  0  0  0
   10.0867  -16.5376   26.9094 C   0  0  0  0  0  0  0  0  0  0  0  0
   10.1693  -17.5944   27.7997 O   0  0  0  0  0  0  0  0  0  0  0  0
    9.9787  -15.3757   27.3747 O   0  0  0  0  0  0  0  0  0  0  0  0
  2  1  1  0
  3  2  2  0
  4  2  1  0
  5  4  1  0
  5  6  1  0
  6  7  1  1
  8  9  2  0
  8  6  1  0
 10  8  1  0
 11 10  1  0
 11 12  1  1
 13 12  1  0
 13 18  1  0
 14 13  2  0
 15 14  1  0
 15 16  2  0
 16 17  1  0
 17 18  2  0
 19 11  1  0
 20 19  2  0
 21 19  1  0
 22 21  1  0
 23 24  1  0
 22 23  1  6
 24 28  1  0
 25 24  2  0
 25 26  1  0
 26 27  1  0
 28 27  2  0
 29 22  1  0
 29 30  1  0
 31 29  2  0
M  END
$$$$
