QFH.pdb
     RDKit          3D

 31 32  0  0  1  0  0  0  0  0999 V2000
    6.3982  -20.1396   18.4275 N   0  0  0  0  0  0  0  0  0  0  0  0
    7.2012  -19.0166   18.1828 C   0  0  0  0  0  0  0  0  0  0  0  0
    6.8002  -18.1030   17.4210 O   0  0  0  0  0  0  0  0  0  0  0  0
    8.5364  -18.8878   18.8182 C   0  0  0  0  0  0  0  0  0  0  0  0
    8.4482  -18.1902   20.1597 C   0  0  0  0  0  0  0  0  0  0  0  0
    8.8393  -16.7506   19.9434 C   0  0  2  0  0  0  0  0  0  0  0  0
    9.9614  -16.6451   19.0715 N   0  0  0  0  0  0  0  0  0  0  0  0
    9.0793  -16.0138   21.1874 C   0  0  0  0  0  0  0  0  0  0  0  0
   10.2207  -16.0792   21.7076 O   0  0  0  0  0  0  0  0  0  0  0  0
    8.1003  -15.2271   21.8455 N   0  0  0  0  0  0  0  0  0  0  0  0
    8.2333  -14.5898   23.1060 C   0  0  1  0  0  0  0  0  0  0  0  0
    7.0899  -13.6717   23.4939 C   0  0  0  0  0  0  0  0  0  0  0  0
    7.1961  -13.1052   24.8365 C   0  0  0  0  0  0  0  0  0  0  0  0
    8.1618  -12.1990   25.1700 C   0  0  0  0  0  0  0  0  0  0  0  0
    8.2616  -11.6642   26.4609 C   0  0  0  0  0  0  0  0  0  0  0  0
    7.3766  -12.0428   27.4410 C   0  0  0  0  0  0  0  0  0  0  0  0
    6.3862  -12.9638   27.1217 C   0  0  0  0  0  0  0  0  0  0  0  0
    6.3097  -13.4726   25.8514 C   0  0  0  0  0  0  0  0  0  0  0  0
    8.4730  -15.5206   24.2266 C   0  0  0  0  0  0  0  0  0  0  0  0
    7.5856  -16.3838   24.5508 O   0  0  0  0  0  0  0  0  0  0  0  0
    9.6481  -15.5527   25.0160 N   0  0  0  0  0  0  0  0  0  0  0  0
   10.1772  -16.7620   25.6132 C   0  0  1  0  0  0  0  0  0  0  0  0
   11.6524  -16.9271   25.3209 C   0  0  0  0  0  0  0  0  0  0  0  0
   12.1882  -18.1649   25.9903 C   0  0  0  0  0  0  0  0  0  0  0  0
   11.4574  -19.1755   26.5501 C   0  0  0  0  0  0  0  0  0  0  0  0
   12.3203  -20.0794   27.0336 N   0  0  0  0  0  0  0  0  0  0  0  0
   13.5925  -19.6663   26.7938 C   0  0  0  0  0  0  0  0  0  0  0  0
   13.4876  -18.4927   26.1545 N   0  0  0  0  0  0  0  0  0  0  0  0
   10.0303  -16.6500   27.0826 C   0  0  0  0  0  0  0  0  0  0  0  0
   10.1213  -17.7674   27.8946 O   0  0  0  0  0  0  0  0  0  0  0  0
    9.8195  -15.5367   27.6251 O   0  0  0  0  0  0  0  0  0  0  0  0
  2  1  1  0
  3  2  2  0
  4  2  1  0
  5  4  1  0
  5  6  1  0
  6  7  1  6
  8  9  2  0
  8  6  1  0
 10  8  1  0
 11 10  1  0
 11 12  1  1
 13 12  1  0
 13 18  1  0
 14 13  2  0
 15 14  1  0
 15 16  2  0
 16 17  1  0
 17 18  2  0
 19 11  1  0
 20 19  2  0
 21 19  1  0
 22 21  1  0
 23 24  1  0
 22 23  1  1
 24 28  1  0
 25 24  2  0
 25 26  1  0
 26 27  1  0
 28 27  2  0
 29 22  1  0
 29 30  1  0
 31 29  2  0
M  END
$$$$
