QFH.pdb
     RDKit          3D

 31 32  0  0  1  0  0  0  0  0999 V2000
    9.0435  -15.9419   16.1286 N   0  0  0  0  0  0  0  0  0  0  0  0
    8.3012  -14.7892   16.4222 C   0  0  0  0  0  0  0  0  0  0  0  0
    8.2186  -13.8570   15.5854 O   0  0  0  0  0  0  0  0  0  0  0  0
    7.6016  -14.6503   17.7238 C   0  0  0  0  0  0  0  0  0  0  0  0
    7.7816  -15.8828   18.5854 C   0  0  0  0  0  0  0  0  0  0  0  0
    7.4550  -15.4904   20.0037 C   0  0  2  0  0  0  0  0  0  0  0  0
    6.9258  -14.1689   20.0657 N   0  0  0  0  0  0  0  0  0  0  0  0
    8.5816  -15.6408   20.9291 C   0  0  0  0  0  0  0  0  0  0  0  0
    9.1566  -16.7557   20.9910 O   0  0  0  0  0  0  0  0  0  0  0  0
    9.0671  -14.6027   21.7640 N   0  0  0  0  0  0  0  0  0  0  0  0
    8.6731  -14.3367   23.1006 C   0  0  1  0  0  0  0  0  0  0  0  0
    7.4400  -13.4668   23.2539 C   0  0  0  0  0  0  0  0  0  0  0  0
    7.1961  -12.9954   24.6151 C   0  0  0  0  0  0  0  0  0  0  0  0
    6.2650  -13.5736   25.4300 C   0  0  0  0  0  0  0  0  0  0  0  0
    6.0320  -13.1128   26.7322 C   0  0  0  0  0  0  0  0  0  0  0  0
    6.7453  -12.0506   27.2322 C   0  0  0  0  0  0  0  0  0  0  0  0
    7.6977  -11.4484   26.4189 C   0  0  0  0  0  0  0  0  0  0  0  0
    7.9069  -11.9178   25.1483 C   0  0  0  0  0  0  0  0  0  0  0  0
    8.4832  -15.5483   23.9224 C   0  0  0  0  0  0  0  0  0  0  0  0
    7.5520  -16.3801   23.6420 O   0  0  0  0  0  0  0  0  0  0  0  0
    9.2711  -15.8968   25.0462 N   0  0  0  0  0  0  0  0  0  0  0  0
   10.0315  -17.1265   25.1392 C   0  0  1  0  0  0  0  0  0  0  0  0
   11.1714  -17.1520   24.1448 C   0  0  0  0  0  0  0  0  0  0  0  0
   11.9436  -18.4395   24.2594 C   0  0  0  0  0  0  0  0  0  0  0  0
   11.7134  -19.4575   25.1424 C   0  0  0  0  0  0  0  0  0  0  0  0
   12.6248  -20.4112   24.9073 N   0  0  0  0  0  0  0  0  0  0  0  0
   13.4360  -20.0229   23.8887 C   0  0  0  0  0  0  0  0  0  0  0  0
   13.0009  -18.8136   23.5076 N   0  0  0  0  0  0  0  0  0  0  0  0
   10.6277  -17.1957   26.4931 C   0  0  0  0  0  0  0  0  0  0  0  0
   10.9235  -18.4142   27.0795 O   0  0  0  0  0  0  0  0  0  0  0  0
   10.8785  -16.1484   27.1399 O   0  0  0  0  0  0  0  0  0  0  0  0
  2  1  1  0
  3  2  2  0
  4  2  1  0
  5  4  1  0
  5  6  1  0
  6  7  1  6
  8  9  2  0
  8  6  1  0
 10  8  1  0
 11 10  1  0
 11 12  1  6
 13 12  1  0
 13 18  1  0
 14 13  2  0
 15 14  1  0
 15 16  2  0
 16 17  1  0
 17 18  2  0
 19 11  1  0
 20 19  2  0
 21 19  1  0
 22 21  1  0
 23 24  1  0
 22 23  1  6
 24 28  1  0
 25 24  2  0
 25 26  1  0
 26 27  1  0
 28 27  2  0
 29 22  1  0
 29 30  1  0
 31 29  2  0
M  END
$$$$
