QFH.pdb
     RDKit          3D

 31 32  0  0  1  0  0  0  0  0999 V2000
    8.6175  -12.8956   16.6854 N   0  0  0  0  0  0  0  0  0  0  0  0
    8.2598  -14.2241   16.4144 C   0  0  0  0  0  0  0  0  0  0  0  0
    7.8603  -14.5534   15.2708 O   0  0  0  0  0  0  0  0  0  0  0  0
    8.3468  -15.2621   17.4716 C   0  0  0  0  0  0  0  0  0  0  0  0
    8.8855  -14.6917   18.7672 C   0  0  0  0  0  0  0  0  0  0  0  0
    8.8527  -15.7967   19.7919 C   0  0  2  0  0  0  0  0  0  0  0  0
    7.6807  -16.5953   19.6538 N   0  0  0  0  0  0  0  0  0  0  0  0
    8.9967  -15.3231   21.1714 C   0  0  0  0  0  0  0  0  0  0  0  0
   10.0899  -14.8079   21.5131 O   0  0  0  0  0  0  0  0  0  0  0  0
    7.9752  -15.4095   22.1510 N   0  0  0  0  0  0  0  0  0  0  0  0
    8.0481  -14.9550   23.4929 C   0  0  1  0  0  0  0  0  0  0  0  0
    6.8050  -14.2574   24.0113 C   0  0  0  0  0  0  0  0  0  0  0  0
    6.9777  -13.5882   25.2986 C   0  0  0  0  0  0  0  0  0  0  0  0
    7.8326  -12.5361   25.4633 C   0  0  0  0  0  0  0  0  0  0  0  0
    7.9978  -11.9028   26.7018 C   0  0  0  0  0  0  0  0  0  0  0  0
    7.2930  -12.3298   27.8009 C   0  0  0  0  0  0  0  0  0  0  0  0
    6.4176  -13.3990   27.6542 C   0  0  0  0  0  0  0  0  0  0  0  0
    6.2737  -14.0019   26.4318 C   0  0  0  0  0  0  0  0  0  0  0  0
    8.4219  -16.0040   24.4621 C   0  0  0  0  0  0  0  0  0  0  0  0
    7.6616  -17.0174   24.6429 O   0  0  0  0  0  0  0  0  0  0  0  0
    9.5987  -15.9974   25.2496 N   0  0  0  0  0  0  0  0  0  0  0  0
    9.9977  -17.1002   26.1003 C   0  0  1  0  0  0  0  0  0  0  0  0
   11.4138  -17.5447   25.8071 C   0  0  0  0  0  0  0  0  0  0  0  0
   11.5528  -17.9468   24.3627 C   0  0  0  0  0  0  0  0  0  0  0  0
   12.0490  -17.1829   23.3434 C   0  0  0  0  0  0  0  0  0  0  0  0
   11.9959  -17.9175   22.2241 N   0  0  0  0  0  0  0  0  0  0  0  0
   11.4742  -19.1398   22.5074 C   0  0  0  0  0  0  0  0  0  0  0  0
   11.2103  -19.1355   23.8217 N   0  0  0  0  0  0  0  0  0  0  0  0
    9.9663  -16.6308   27.5045 C   0  0  0  0  0  0  0  0  0  0  0  0
    9.6451  -15.3195   27.8100 O   0  0  0  0  0  0  0  0  0  0  0  0
   10.2309  -17.4137   28.4507 O   0  0  0  0  0  0  0  0  0  0  0  0
  2  1  1  0
  3  2  2  0
  4  2  1  0
  5  4  1  0
  5  6  1  0
  6  7  1  1
  8  9  2  0
  8  6  1  0
 10  8  1  0
 11 10  1  0
 11 12  1  1
 13 12  1  0
 13 18  1  0
 14 13  2  0
 15 14  1  0
 15 16  2  0
 16 17  1  0
 17 18  2  0
 19 11  1  0
 20 19  2  0
 21 19  1  0
 22 21  1  0
 23 24  1  0
 22 23  1  6
 24 28  1  0
 25 24  2  0
 25 26  1  0
 26 27  1  0
 28 27  2  0
 29 22  1  0
 29 30  1  0
 31 29  2  0
M  END
$$$$
