QFH.pdb
     RDKit          3D

 31 32  0  0  1  0  0  0  0  0999 V2000
    8.8455  -12.3777   18.4742 N   0  0  0  0  0  0  0  0  0  0  0  0
    7.9885  -13.3985   18.0388 C   0  0  0  0  0  0  0  0  0  0  0  0
    7.7033  -13.5120   16.8216 O   0  0  0  0  0  0  0  0  0  0  0  0
    7.4045  -14.3606   19.0063 C   0  0  0  0  0  0  0  0  0  0  0  0
    7.8430  -14.0580   20.4241 C   0  0  0  0  0  0  0  0  0  0  0  0
    8.3014  -15.3557   21.0387 C   0  0  2  0  0  0  0  0  0  0  0  0
    7.3037  -16.3659   20.9180 N   0  0  0  0  0  0  0  0  0  0  0  0
    8.7387  -15.2240   22.4314 C   0  0  0  0  0  0  0  0  0  0  0  0
    9.7240  -14.4855   22.6789 O   0  0  0  0  0  0  0  0  0  0  0  0
    8.1175  -15.8805   23.5239 N   0  0  0  0  0  0  0  0  0  0  0  0
    8.5405  -15.8565   24.8779 C   0  0  1  0  0  0  0  0  0  0  0  0
    7.4774  -15.4585   25.8839 C   0  0  0  0  0  0  0  0  0  0  0  0
    7.3716  -14.0200   26.1169 C   0  0  0  0  0  0  0  0  0  0  0  0
    8.3084  -13.3269   26.8290 C   0  0  0  0  0  0  0  0  0  0  0  0
    8.1978  -11.9487   27.0536 C   0  0  0  0  0  0  0  0  0  0  0  0
    7.1272  -11.2465   26.5557 C   0  0  0  0  0  0  0  0  0  0  0  0
    6.1630  -11.9334   25.8281 C   0  0  0  0  0  0  0  0  0  0  0  0
    6.2940  -13.2820   25.6221 C   0  0  0  0  0  0  0  0  0  0  0  0
    9.1553  -17.1178   25.3367 C   0  0  0  0  0  0  0  0  0  0  0  0
    8.4680  -18.1967   25.3712 O   0  0  0  0  0  0  0  0  0  0  0  0
   10.4985  -17.2564   25.7629 N   0  0  0  0  0  0  0  0  0  0  0  0
   11.0639  -18.5054   26.2313 C   0  0  1  0  0  0  0  0  0  0  0  0
   12.5666  -18.5351   26.0584 C   0  0  0  0  0  0  0  0  0  0  0  0
   12.9327  -18.4313   24.6015 C   0  0  0  0  0  0  0  0  0  0  0  0
   12.2126  -18.9035   23.5398 C   0  0  0  0  0  0  0  0  0  0  0  0
   12.8914  -18.6028   22.4244 N   0  0  0  0  0  0  0  0  0  0  0  0
   14.0349  -17.9457   22.7519 C   0  0  0  0  0  0  0  0  0  0  0  0
   14.0394  -17.8519   24.0891 N   0  0  0  0  0  0  0  0  0  0  0  0
   10.7861  -18.6193   27.6815 C   0  0  0  0  0  0  0  0  0  0  0  0
   11.2163  -19.7182   28.4049 O   0  0  0  0  0  0  0  0  0  0  0  0
   10.1529  -17.7195   28.2879 O   0  0  0  0  0  0  0  0  0  0  0  0
  2  1  1  0
  3  2  2  0
  4  2  1  0
  5  4  1  0
  5  6  1  0
  6  7  1  1
  8  9  2  0
  8  6  1  0
 10  8  1  0
 11 10  1  0
 11 12  1  1
 13 12  1  0
 13 18  1  0
 14 13  2  0
 15 14  1  0
 15 16  2  0
 16 17  1  0
 17 18  2  0
 19 11  1  0
 20 19  2  0
 21 19  1  0
 22 21  1  0
 23 24  1  0
 22 23  1  1
 24 28  1  0
 25 24  2  0
 25 26  1  0
 26 27  1  0
 28 27  2  0
 29 22  1  0
 29 30  1  0
 31 29  2  0
M  END
$$$$
