QFH.pdb
     RDKit          3D

 31 32  0  0  1  0  0  0  0  0999 V2000
    9.1617  -12.8363   16.7557 N   0  0  0  0  0  0  0  0  0  0  0  0
    8.6341  -14.1006   16.4573 C   0  0  0  0  0  0  0  0  0  0  0  0
    8.1770  -14.3442   15.3138 O   0  0  0  0  0  0  0  0  0  0  0  0
    8.6064  -15.1711   17.4850 C   0  0  0  0  0  0  0  0  0  0  0  0
    9.2241  -14.7067   18.7877 C   0  0  0  0  0  0  0  0  0  0  0  0
    9.2346  -15.8870   19.7252 C   0  0  2  0  0  0  0  0  0  0  0  0
    8.0902  -16.7131   19.5293 N   0  0  0  0  0  0  0  0  0  0  0  0
    9.3690  -15.5150   21.1364 C   0  0  0  0  0  0  0  0  0  0  0  0
   10.5146  -15.2441   21.5744 O   0  0  0  0  0  0  0  0  0  0  0  0
    8.2827  -15.4407   22.0447 N   0  0  0  0  0  0  0  0  0  0  0  0
    8.3226  -14.9467   23.3740 C   0  0  1  0  0  0  0  0  0  0  0  0
    7.0685  -14.2316   23.8395 C   0  0  0  0  0  0  0  0  0  0  0  0
    7.1988  -13.5564   25.1286 C   0  0  0  0  0  0  0  0  0  0  0  0
    6.6329  -14.0498   26.2694 C   0  0  0  0  0  0  0  0  0  0  0  0
    6.7568  -13.3942   27.5011 C   0  0  0  0  0  0  0  0  0  0  0  0
    7.4621  -12.2191   27.5958 C   0  0  0  0  0  0  0  0  0  0  0  0
    8.0459  -11.7005   26.4463 C   0  0  0  0  0  0  0  0  0  0  0  0
    7.9101  -12.3609   25.2530 C   0  0  0  0  0  0  0  0  0  0  0  0
    8.6686  -15.9672   24.3831 C   0  0  0  0  0  0  0  0  0  0  0  0
    7.9132  -16.9852   24.5581 O   0  0  0  0  0  0  0  0  0  0  0  0
    9.8123  -15.9270   25.2170 N   0  0  0  0  0  0  0  0  0  0  0  0
   10.1398  -16.9629   26.1755 C   0  0  1  0  0  0  0  0  0  0  0  0
   11.5939  -17.3696   26.0795 C   0  0  0  0  0  0  0  0  0  0  0  0
   11.8762  -18.0103   24.7465 C   0  0  0  0  0  0  0  0  0  0  0  0
   11.0278  -18.7981   24.0196 C   0  0  0  0  0  0  0  0  0  0  0  0
   11.6697  -19.1590   22.9002 N   0  0  0  0  0  0  0  0  0  0  0  0
   12.9155  -18.6165   22.8961 C   0  0  0  0  0  0  0  0  0  0  0  0
   13.0202  -17.9177   24.0352 N   0  0  0  0  0  0  0  0  0  0  0  0
    9.9256  -16.4146   27.5344 C   0  0  0  0  0  0  0  0  0  0  0  0
   10.0777  -17.2116   28.6560 O   0  0  0  0  0  0  0  0  0  0  0  0
    9.6007  -15.2123   27.6993 O   0  0  0  0  0  0  0  0  0  0  0  0
  2  1  1  0
  3  2  2  0
  4  2  1  0
  5  4  1  0
  5  6  1  0
  6  7  1  1
  8  9  2  0
  8  6  1  0
 10  8  1  0
 11 10  1  0
 11 12  1  1
 13 12  1  0
 13 18  1  0
 14 13  2  0
 15 14  1  0
 15 16  2  0
 16 17  1  0
 17 18  2  0
 19 11  1  0
 20 19  2  0
 21 19  1  0
 22 21  1  0
 23 24  1  0
 22 23  1  1
 24 28  1  0
 25 24  2  0
 25 26  1  0
 26 27  1  0
 28 27  2  0
 29 22  1  0
 29 30  1  0
 31 29  2  0
M  END
$$$$
