QFH.pdb
     RDKit          3D

 31 32  0  0  1  0  0  0  0  0999 V2000
   10.9801  -21.2347   21.8346 N   0  0  0  0  0  0  0  0  0  0  0  0
    9.7929  -21.4382   21.1168 C   0  0  0  0  0  0  0  0  0  0  0  0
    9.3491  -22.5990   20.9397 O   0  0  0  0  0  0  0  0  0  0  0  0
    9.0415  -20.2882   20.5548 C   0  0  0  0  0  0  0  0  0  0  0  0
    9.7167  -18.9717   20.8789 C   0  0  0  0  0  0  0  0  0  0  0  0
    8.6825  -17.8864   20.7218 C   0  0  2  0  0  0  0  0  0  0  0  0
    8.6353  -17.4074   19.3807 N   0  0  0  0  0  0  0  0  0  0  0  0
    8.8494  -16.7752   21.6628 C   0  0  0  0  0  0  0  0  0  0  0  0
    9.7038  -15.8936   21.3977 O   0  0  0  0  0  0  0  0  0  0  0  0
    8.1042  -16.6304   22.8604 N   0  0  0  0  0  0  0  0  0  0  0  0
    8.2249  -15.5849   23.8117 C   0  0  1  0  0  0  0  0  0  0  0  0
    6.9423  -15.2064   24.5276 C   0  0  0  0  0  0  0  0  0  0  0  0
    7.1075  -14.2044   25.5781 C   0  0  0  0  0  0  0  0  0  0  0  0
    7.4067  -14.5432   26.8668 C   0  0  0  0  0  0  0  0  0  0  0  0
    7.5579  -13.5777   27.8704 C   0  0  0  0  0  0  0  0  0  0  0  0
    7.4071  -12.2434   27.5804 C   0  0  0  0  0  0  0  0  0  0  0  0
    7.1028  -11.8779   26.2748 C   0  0  0  0  0  0  0  0  0  0  0  0
    6.9599  -12.8415   25.3107 C   0  0  0  0  0  0  0  0  0  0  0  0
    9.2661  -15.8193   24.8317 C   0  0  0  0  0  0  0  0  0  0  0  0
    9.6190  -14.8777   25.6232 O   0  0  0  0  0  0  0  0  0  0  0  0
    9.9453  -17.0460   25.0292 N   0  0  0  0  0  0  0  0  0  0  0  0
   11.1178  -17.1845   25.8691 C   0  0  1  0  0  0  0  0  0  0  0  0
   11.9792  -15.9413   25.8309 C   0  0  0  0  0  0  0  0  0  0  0  0
   12.7547  -15.8755   24.5420 C   0  0  0  0  0  0  0  0  0  0  0  0
   12.5940  -16.6778   23.4469 C   0  0  0  0  0  0  0  0  0  0  0  0
   13.4809  -16.2841   22.5229 N   0  0  0  0  0  0  0  0  0  0  0  0
   14.2082  -15.2429   23.0061 C   0  0  0  0  0  0  0  0  0  0  0  0
   13.7468  -15.0099   24.2430 N   0  0  0  0  0  0  0  0  0  0  0  0
   10.6621  -17.3607   27.2671 C   0  0  0  0  0  0  0  0  0  0  0  0
   11.5722  -17.5145   28.2987 O   0  0  0  0  0  0  0  0  0  0  0  0
    9.4377  -17.3745   27.5479 O   0  0  0  0  0  0  0  0  0  0  0  0
  2  1  1  0
  3  2  2  0
  4  2  1  0
  5  4  1  0
  5  6  1  0
  6  7  1  6
  8  9  2  0
  8  6  1  0
 10  8  1  0
 11 10  1  0
 11 12  1  1
 13 12  1  0
 13 18  1  0
 14 13  2  0
 15 14  1  0
 15 16  2  0
 16 17  1  0
 17 18  2  0
 19 11  1  0
 20 19  2  0
 21 19  1  0
 22 21  1  0
 23 24  1  0
 22 23  1  1
 24 28  1  0
 25 24  2  0
 25 26  1  0
 26 27  1  0
 28 27  2  0
 29 22  1  0
 29 30  1  0
 31 29  2  0
M  END
$$$$
