QFH.pdb
     RDKit          3D

 31 32  0  0  1  0  0  0  0  0999 V2000
   11.5999  -21.1445   20.6844 N   0  0  0  0  0  0  0  0  0  0  0  0
   10.3722  -20.5504   20.3591 C   0  0  0  0  0  0  0  0  0  0  0  0
    9.2932  -21.1047   20.6822 O   0  0  0  0  0  0  0  0  0  0  0  0
   10.3260  -19.2590   19.6291 C   0  0  0  0  0  0  0  0  0  0  0  0
   10.6122  -18.0903   20.5489 C   0  0  0  0  0  0  0  0  0  0  0  0
    9.3001  -17.3981   20.8164 C   0  0  2  0  0  0  0  0  0  0  0  0
    8.7844  -16.7927   19.6341 N   0  0  0  0  0  0  0  0  0  0  0  0
    9.3615  -16.4257   21.9113 C   0  0  0  0  0  0  0  0  0  0  0  0
   10.3747  -15.6884   21.9970 O   0  0  0  0  0  0  0  0  0  0  0  0
    8.3446  -16.2626   22.8860 N   0  0  0  0  0  0  0  0  0  0  0  0
    8.3608  -15.3653   23.9848 C   0  0  1  0  0  0  0  0  0  0  0  0
    7.0069  -14.8222   24.4004 C   0  0  0  0  0  0  0  0  0  0  0  0
    7.0564  -13.8150   25.4576 C   0  0  0  0  0  0  0  0  0  0  0  0
    6.6975  -14.0932   26.7456 C   0  0  0  0  0  0  0  0  0  0  0  0
    6.7416  -13.1211   27.7532 C   0  0  0  0  0  0  0  0  0  0  0  0
    7.1539  -11.8421   27.4682 C   0  0  0  0  0  0  0  0  0  0  0  0
    7.5236  -11.5387   26.1635 C   0  0  0  0  0  0  0  0  0  0  0  0
    7.4715  -12.5075   25.1954 C   0  0  0  0  0  0  0  0  0  0  0  0
    9.0275  -15.9019   25.1877 C   0  0  0  0  0  0  0  0  0  0  0  0
    8.5661  -16.9425   25.7723 O   0  0  0  0  0  0  0  0  0  0  0  0
   10.1857  -15.3496   25.7866 N   0  0  0  0  0  0  0  0  0  0  0  0
   10.9603  -16.0287   26.8053 C   0  0  1  0  0  0  0  0  0  0  0  0
   12.3553  -15.4542   26.9185 C   0  0  0  0  0  0  0  0  0  0  0  0
   13.1498  -15.7475   25.6735 C   0  0  0  0  0  0  0  0  0  0  0  0
   12.7477  -16.4944   24.6015 C   0  0  0  0  0  0  0  0  0  0  0  0
   13.7522  -16.5037   23.7148 N   0  0  0  0  0  0  0  0  0  0  0  0
   14.7923  -15.7755   24.1993 C   0  0  0  0  0  0  0  0  0  0  0  0
   14.4016  -15.3223   25.3988 N   0  0  0  0  0  0  0  0  0  0  0  0
   10.2903  -15.8159   28.1088 C   0  0  0  0  0  0  0  0  0  0  0  0
    9.3846  -14.7838   28.2838 O   0  0  0  0  0  0  0  0  0  0  0  0
   10.5297  -16.5687   29.0857 O   0  0  0  0  0  0  0  0  0  0  0  0
  2  1  1  0
  3  2  2  0
  4  2  1  0
  5  4  1  0
  5  6  1  0
  6  7  1  6
  8  9  2  0
  8  6  1  0
 10  8  1  0
 11 10  1  0
 11 12  1  1
 13 12  1  0
 13 18  1  0
 14 13  2  0
 15 14  1  0
 15 16  2  0
 16 17  1  0
 17 18  2  0
 19 11  1  0
 20 19  2  0
 21 19  1  0
 22 21  1  0
 23 24  1  0
 22 23  1  1
 24 28  1  0
 25 24  2  0
 25 26  1  0
 26 27  1  0
 28 27  2  0
 29 22  1  0
 29 30  1  0
 31 29  2  0
M  END
$$$$
