QFH.pdb
     RDKit          3D

 31 32  0  0  1  0  0  0  0  0999 V2000
   10.4850  -20.3727   21.0559 N   0  0  0  0  0  0  0  0  0  0  0  0
   11.1438  -19.8956   19.9139 C   0  0  0  0  0  0  0  0  0  0  0  0
   12.0289  -20.5888   19.3552 O   0  0  0  0  0  0  0  0  0  0  0  0
   10.8078  -18.5660   19.3462 C   0  0  0  0  0  0  0  0  0  0  0  0
   11.0172  -17.4602   20.3597 C   0  0  0  0  0  0  0  0  0  0  0  0
    9.6634  -16.8757   20.6723 C   0  0  2  0  0  0  0  0  0  0  0  0
    9.0992  -16.2381   19.5297 N   0  0  0  0  0  0  0  0  0  0  0  0
    9.6670  -15.9677   21.8228 C   0  0  0  0  0  0  0  0  0  0  0  0
   10.7585  -15.4548   22.1732 O   0  0  0  0  0  0  0  0  0  0  0  0
    8.5106  -15.6290   22.5702 N   0  0  0  0  0  0  0  0  0  0  0  0
    8.4675  -14.8591   23.7611 C   0  0  1  0  0  0  0  0  0  0  0  0
    7.1235  -14.2336   24.0823 C   0  0  0  0  0  0  0  0  0  0  0  0
    7.1155  -13.3953   25.2789 C   0  0  0  0  0  0  0  0  0  0  0  0
    7.7751  -12.2008   25.3354 C   0  0  0  0  0  0  0  0  0  0  0  0
    7.7682  -11.4046   26.4879 C   0  0  0  0  0  0  0  0  0  0  0  0
    7.0869  -11.8105   27.6096 C   0  0  0  0  0  0  0  0  0  0  0  0
    6.4091  -13.0230   27.5725 C   0  0  0  0  0  0  0  0  0  0  0  0
    6.4311  -13.7839   26.4328 C   0  0  0  0  0  0  0  0  0  0  0  0
    8.9337  -15.5827   24.9604 C   0  0  0  0  0  0  0  0  0  0  0  0
    8.2554  -16.5613   25.4293 O   0  0  0  0  0  0  0  0  0  0  0  0
   10.1178  -15.2845   25.6774 N   0  0  0  0  0  0  0  0  0  0  0  0
   10.5739  -16.0483   26.8210 C   0  0  1  0  0  0  0  0  0  0  0  0
   12.0844  -16.1049   26.8853 C   0  0  0  0  0  0  0  0  0  0  0  0
   12.6379  -16.8183   25.6803 C   0  0  0  0  0  0  0  0  0  0  0  0
   11.9217  -17.4196   24.6832 C   0  0  0  0  0  0  0  0  0  0  0  0
   12.7975  -17.9329   23.8086 N   0  0  0  0  0  0  0  0  0  0  0  0
   14.0636  -17.6714   24.2273 C   0  0  0  0  0  0  0  0  0  0  0  0
   13.9419  -16.9885   25.3744 N   0  0  0  0  0  0  0  0  0  0  0  0
   10.1074  -15.3610   28.0471 C   0  0  0  0  0  0  0  0  0  0  0  0
   10.2881  -15.9310   29.2955 O   0  0  0  0  0  0  0  0  0  0  0  0
    9.5365  -14.2439   27.9808 O   0  0  0  0  0  0  0  0  0  0  0  0
  2  1  1  0
  3  2  2  0
  4  2  1  0
  5  4  1  0
  5  6  1  0
  6  7  1  6
  8  9  2  0
  8  6  1  0
 10  8  1  0
 11 10  1  0
 11 12  1  1
 13 12  1  0
 13 18  1  0
 14 13  2  0
 15 14  1  0
 15 16  2  0
 16 17  1  0
 17 18  2  0
 19 11  1  0
 20 19  2  0
 21 19  1  0
 22 21  1  0
 23 24  1  0
 22 23  1  1
 24 28  1  0
 25 24  2  0
 25 26  1  0
 26 27  1  0
 28 27  2  0
 29 22  1  0
 29 30  1  0
 31 29  2  0
M  END
$$$$
