QFH.pdb
     RDKit          3D

 31 32  0  0  1  0  0  0  0  0999 V2000
   13.3887  -18.4297   19.2838 N   0  0  0  0  0  0  0  0  0  0  0  0
   12.3869  -18.4518   18.3031 C   0  0  0  0  0  0  0  0  0  0  0  0
   12.4754  -19.2304   17.3223 O   0  0  0  0  0  0  0  0  0  0  0  0
   11.2068  -17.5575   18.4062 C   0  0  0  0  0  0  0  0  0  0  0  0
   11.2716  -16.6932   19.6482 C   0  0  0  0  0  0  0  0  0  0  0  0
   10.1680  -17.1474   20.5691 C   0  0  2  0  0  0  0  0  0  0  0  0
    8.9134  -17.1828   19.8945 N   0  0  0  0  0  0  0  0  0  0  0  0
   10.0708  -16.3610   21.8020 C   0  0  0  0  0  0  0  0  0  0  0  0
   11.0926  -16.2585   22.5252 O   0  0  0  0  0  0  0  0  0  0  0  0
    8.8905  -15.7044   22.2337 N   0  0  0  0  0  0  0  0  0  0  0  0
    8.7004  -15.0274   23.4659 C   0  0  1  0  0  0  0  0  0  0  0  0
    7.4283  -14.2075   23.5674 C   0  0  0  0  0  0  0  0  0  0  0  0
    7.3067  -13.4269   24.7964 C   0  0  0  0  0  0  0  0  0  0  0  0
    8.1040  -12.3489   25.0562 C   0  0  0  0  0  0  0  0  0  0  0  0
    7.9860  -11.6084   26.2394 C   0  0  0  0  0  0  0  0  0  0  0  0
    7.0504  -11.9521   27.1848 C   0  0  0  0  0  0  0  0  0  0  0  0
    6.2291  -13.0458   26.9393 C   0  0  0  0  0  0  0  0  0  0  0  0
    6.3642  -13.7543   25.7739 C   0  0  0  0  0  0  0  0  0  0  0  0
    8.7747  -15.9052   24.6504 C   0  0  0  0  0  0  0  0  0  0  0  0
    7.8592  -16.7716   24.8713 O   0  0  0  0  0  0  0  0  0  0  0  0
    9.8127  -15.8806   25.6133 N   0  0  0  0  0  0  0  0  0  0  0  0
    9.9433  -16.8596   26.6734 C   0  0  1  0  0  0  0  0  0  0  0  0
   11.2643  -17.5926   26.5936 C   0  0  0  0  0  0  0  0  0  0  0  0
   11.2716  -18.5424   25.4252 C   0  0  0  0  0  0  0  0  0  0  0  0
   10.2625  -18.7419   24.5249 C   0  0  0  0  0  0  0  0  0  0  0  0
   10.6776  -19.6680   23.6500 N   0  0  0  0  0  0  0  0  0  0  0  0
   11.9360  -20.0664   23.9734 C   0  0  0  0  0  0  0  0  0  0  0  0
   12.2794  -19.3646   25.0627 N   0  0  0  0  0  0  0  0  0  0  0  0
    9.9173  -16.1403   27.9676 C   0  0  0  0  0  0  0  0  0  0  0  0
    9.7583  -16.8252   29.1600 O   0  0  0  0  0  0  0  0  0  0  0  0
   10.0393  -14.8907   28.0118 O   0  0  0  0  0  0  0  0  0  0  0  0
  2  1  1  0
  3  2  2  0
  4  2  1  0
  5  4  1  0
  5  6  1  0
  6  7  1  6
  8  9  2  0
  8  6  1  0
 10  8  1  0
 11 10  1  0
 11 12  1  6
 13 12  1  0
 13 18  1  0
 14 13  2  0
 15 14  1  0
 15 16  2  0
 16 17  1  0
 17 18  2  0
 19 11  1  0
 20 19  2  0
 21 19  1  0
 22 21  1  0
 23 24  1  0
 22 23  1  6
 24 28  1  0
 25 24  2  0
 25 26  1  0
 26 27  1  0
 28 27  2  0
 29 22  1  0
 29 30  1  0
 31 29  2  0
M  END
$$$$
