QFH.pdb
     RDKit          3D

 31 32  0  0  1  0  0  0  0  0999 V2000
    9.8592  -13.7595   17.6606 N   0  0  0  0  0  0  0  0  0  0  0  0
    8.5509  -13.5544   18.1215 C   0  0  0  0  0  0  0  0  0  0  0  0
    7.9093  -12.5319   17.7769 O   0  0  0  0  0  0  0  0  0  0  0  0
    7.9026  -14.5395   19.0226 C   0  0  0  0  0  0  0  0  0  0  0  0
    8.3011  -14.3177   20.4669 C   0  0  0  0  0  0  0  0  0  0  0  0
    8.2900  -15.6627   21.1471 C   0  0  2  0  0  0  0  0  0  0  0  0
    6.9955  -16.2562   21.0980 N   0  0  0  0  0  0  0  0  0  0  0  0
    8.7920  -15.6291   22.5237 C   0  0  0  0  0  0  0  0  0  0  0  0
    9.9929  -15.3129   22.7120 O   0  0  0  0  0  0  0  0  0  0  0  0
    8.0048  -15.9321   23.6634 N   0  0  0  0  0  0  0  0  0  0  0  0
    8.4316  -15.9154   25.0162 C   0  0  1  0  0  0  0  0  0  0  0  0
    7.3702  -15.5270   26.0278 C   0  0  0  0  0  0  0  0  0  0  0  0
    7.1316  -14.0895   26.1344 C   0  0  0  0  0  0  0  0  0  0  0  0
    5.8760  -13.5545   26.0879 C   0  0  0  0  0  0  0  0  0  0  0  0
    5.6547  -12.1746   26.1848 C   0  0  0  0  0  0  0  0  0  0  0  0
    6.7115  -11.3093   26.3317 C   0  0  0  0  0  0  0  0  0  0  0  0
    7.9974  -11.8339   26.3815 C   0  0  0  0  0  0  0  0  0  0  0  0
    8.1876  -13.1877   26.2844 C   0  0  0  0  0  0  0  0  0  0  0  0
    9.0516  -17.1776   25.4653 C   0  0  0  0  0  0  0  0  0  0  0  0
    8.3902  -18.2724   25.4258 O   0  0  0  0  0  0  0  0  0  0  0  0
   10.3729  -17.3005   25.9595 N   0  0  0  0  0  0  0  0  0  0  0  0
   10.9413  -18.5511   26.4199 C   0  0  1  0  0  0  0  0  0  0  0  0
   12.3910  -18.6877   26.0092 C   0  0  0  0  0  0  0  0  0  0  0  0
   12.5101  -18.7665   24.5103 C   0  0  0  0  0  0  0  0  0  0  0  0
   11.5671  -19.2313   23.6365 C   0  0  0  0  0  0  0  0  0  0  0  0
   12.0741  -19.1272   22.4005 N   0  0  0  0  0  0  0  0  0  0  0  0
   13.3263  -18.6036   22.4660 C   0  0  0  0  0  0  0  0  0  0  0  0
   13.5724  -18.3907   23.7664 N   0  0  0  0  0  0  0  0  0  0  0  0
   10.9017  -18.5554   27.9003 C   0  0  0  0  0  0  0  0  0  0  0  0
   10.4368  -17.4574   28.6034 O   0  0  0  0  0  0  0  0  0  0  0  0
   11.2898  -19.5573   28.5514 O   0  0  0  0  0  0  0  0  0  0  0  0
  2  1  1  0
  3  2  2  0
  4  2  1  0
  5  4  1  0
  5  6  1  0
  6  7  1  1
  8  9  2  0
  8  6  1  0
 10  8  1  0
 11 10  1  0
 11 12  1  1
 13 12  1  0
 13 18  1  0
 14 13  2  0
 15 14  1  0
 15 16  2  0
 16 17  1  0
 17 18  2  0
 19 11  1  0
 20 19  2  0
 21 19  1  0
 22 21  1  0
 23 24  1  0
 22 23  1  1
 24 28  1  0
 25 24  2  0
 25 26  1  0
 26 27  1  0
 28 27  2  0
 29 22  1  0
 29 30  1  0
 31 29  2  0
M  END
$$$$
