QFH.pdb
     RDKit          3D

 31 32  0  0  1  0  0  0  0  0999 V2000
    8.7259  -20.9168   20.7648 N   0  0  0  0  0  0  0  0  0  0  0  0
    9.9985  -20.4544   20.4005 C   0  0  0  0  0  0  0  0  0  0  0  0
   10.9390  -21.2646   20.2136 O   0  0  0  0  0  0  0  0  0  0  0  0
   10.2562  -19.0027   20.2298 C   0  0  0  0  0  0  0  0  0  0  0  0
    8.9969  -18.1869   20.4361 C   0  0  0  0  0  0  0  0  0  0  0  0
    9.3696  -16.7360   20.2685 C   0  0  2  0  0  0  0  0  0  0  0  0
   10.5781  -16.5950   19.5269 N   0  0  0  0  0  0  0  0  0  0  0  0
    9.4497  -16.0002   21.5335 C   0  0  0  0  0  0  0  0  0  0  0  0
   10.5823  -15.8136   22.0433 O   0  0  0  0  0  0  0  0  0  0  0  0
    8.3243  -15.4821   22.2231 N   0  0  0  0  0  0  0  0  0  0  0  0
    8.3297  -14.8286   23.4823 C   0  0  1  0  0  0  0  0  0  0  0  0
    7.0583  -14.0783   23.8306 C   0  0  0  0  0  0  0  0  0  0  0  0
    7.1015  -13.3735   25.1097 C   0  0  0  0  0  0  0  0  0  0  0  0
    7.9534  -12.3309   25.3382 C   0  0  0  0  0  0  0  0  0  0  0  0
    7.9937  -11.6634   26.5691 C   0  0  0  0  0  0  0  0  0  0  0  0
    7.1642  -12.0456   27.5952 C   0  0  0  0  0  0  0  0  0  0  0  0
    6.2896  -13.1044   27.3827 C   0  0  0  0  0  0  0  0  0  0  0  0
    6.2693  -13.7415   26.1694 C   0  0  0  0  0  0  0  0  0  0  0  0
    8.6640  -15.7133   24.6159 C   0  0  0  0  0  0  0  0  0  0  0  0
    7.8536  -16.6357   24.9767 O   0  0  0  0  0  0  0  0  0  0  0  0
    9.8536  -15.6366   25.3801 N   0  0  0  0  0  0  0  0  0  0  0  0
   10.1753  -16.5556   26.4530 C   0  0  1  0  0  0  0  0  0  0  0  0
   11.6098  -17.0287   26.3685 C   0  0  0  0  0  0  0  0  0  0  0  0
   11.7947  -17.9465   25.1892 C   0  0  0  0  0  0  0  0  0  0  0  0
   10.8095  -18.5260   24.4393 C   0  0  0  0  0  0  0  0  0  0  0  0
   11.4032  -19.2647   23.4921 N   0  0  0  0  0  0  0  0  0  0  0  0
   12.7526  -19.1693   23.6212 C   0  0  0  0  0  0  0  0  0  0  0  0
   12.9694  -18.3578   24.6658 N   0  0  0  0  0  0  0  0  0  0  0  0
   10.0260  -15.8323   27.7366 C   0  0  0  0  0  0  0  0  0  0  0  0
    9.6753  -14.4935   27.7630 O   0  0  0  0  0  0  0  0  0  0  0  0
   10.2146  -16.4190   28.8314 O   0  0  0  0  0  0  0  0  0  0  0  0
  2  1  1  0
  3  2  2  0
  4  2  1  0
  5  4  1  0
  5  6  1  0
  6  7  1  1
  8  9  2  0
  8  6  1  0
 10  8  1  0
 11 10  1  0
 11 12  1  1
 13 12  1  0
 13 18  1  0
 14 13  2  0
 15 14  1  0
 15 16  2  0
 16 17  1  0
 17 18  2  0
 19 11  1  0
 20 19  2  0
 21 19  1  0
 22 21  1  0
 23 24  1  0
 22 23  1  6
 24 28  1  0
 25 24  2  0
 25 26  1  0
 26 27  1  0
 28 27  2  0
 29 22  1  0
 29 30  1  0
 31 29  2  0
M  END
$$$$
