QFH.pdb
     RDKit          3D

 31 32  0  0  1  0  0  0  0  0999 V2000
    9.1459  -20.7538   18.0287 N   0  0  0  0  0  0  0  0  0  0  0  0
    9.3194  -20.3427   19.3579 C   0  0  0  0  0  0  0  0  0  0  0  0
    9.1276  -21.1479   20.3018 O   0  0  0  0  0  0  0  0  0  0  0  0
    9.7317  -18.9520   19.6726 C   0  0  0  0  0  0  0  0  0  0  0  0
    8.5376  -18.0785   19.9969 C   0  0  0  0  0  0  0  0  0  0  0  0
    8.9936  -16.6445   19.9086 C   0  0  2  0  0  0  0  0  0  0  0  0
   10.1581  -16.5212   19.0967 N   0  0  0  0  0  0  0  0  0  0  0  0
    9.2039  -16.0135   21.2146 C   0  0  0  0  0  0  0  0  0  0  0  0
   10.3408  -16.0996   21.7414 O   0  0  0  0  0  0  0  0  0  0  0  0
    8.2008  -15.3077   21.9260 N   0  0  0  0  0  0  0  0  0  0  0  0
    8.3298  -14.7161   23.2090 C   0  0  1  0  0  0  0  0  0  0  0  0
    7.1592  -13.8582   23.6498 C   0  0  0  0  0  0  0  0  0  0  0  0
    7.3272  -13.2293   24.9578 C   0  0  0  0  0  0  0  0  0  0  0  0
    6.5692  -13.5816   26.0378 C   0  0  0  0  0  0  0  0  0  0  0  0
    6.7315  -12.9704   27.2878 C   0  0  0  0  0  0  0  0  0  0  0  0
    7.6724  -11.9849   27.4632 C   0  0  0  0  0  0  0  0  0  0  0  0
    8.4541  -11.6121   26.3766 C   0  0  0  0  0  0  0  0  0  0  0  0
    8.2760  -12.2253   25.1638 C   0  0  0  0  0  0  0  0  0  0  0  0
    8.6219  -15.6807   24.2878 C   0  0  0  0  0  0  0  0  0  0  0  0
    7.7469  -16.5482   24.6335 O   0  0  0  0  0  0  0  0  0  0  0  0
    9.8369  -15.7424   25.0124 N   0  0  0  0  0  0  0  0  0  0  0  0
   10.1302  -16.7652   25.9958 C   0  0  1  0  0  0  0  0  0  0  0  0
   11.6063  -17.0949   26.0319 C   0  0  0  0  0  0  0  0  0  0  0  0
   11.9072  -18.0478   27.1582 C   0  0  0  0  0  0  0  0  0  0  0  0
   11.5137  -19.3534   27.2544 C   0  0  0  0  0  0  0  0  0  0  0  0
   11.9915  -19.8362   28.4094 N   0  0  0  0  0  0  0  0  0  0  0  0
   12.6851  -18.8630   29.0562 C   0  0  0  0  0  0  0  0  0  0  0  0
   12.6204  -17.7774   28.2724 N   0  0  0  0  0  0  0  0  0  0  0  0
    9.7653  -16.2364   27.3302 C   0  0  0  0  0  0  0  0  0  0  0  0
    9.3622  -17.0852   28.3466 O   0  0  0  0  0  0  0  0  0  0  0  0
    9.8138  -15.0040   27.5691 O   0  0  0  0  0  0  0  0  0  0  0  0
  2  1  1  0
  3  2  2  0
  4  2  1  0
  5  4  1  0
  5  6  1  0
  6  7  1  6
  8  9  2  0
  8  6  1  0
 10  8  1  0
 11 10  1  0
 11 12  1  1
 13 12  1  0
 13 18  1  0
 14 13  2  0
 15 14  1  0
 15 16  2  0
 16 17  1  0
 17 18  2  0
 19 11  1  0
 20 19  2  0
 21 19  1  0
 22 21  1  0
 23 24  1  0
 22 23  1  1
 24 28  1  0
 25 24  2  0
 25 26  1  0
 26 27  1  0
 28 27  2  0
 29 22  1  0
 29 30  1  0
 31 29  2  0
M  END
$$$$
