VCF.pdb
     RDKit          3D

 25 25  0  0  1  0  0  0  0  0999 V2000
    8.2192  -12.6293   20.8042 C   0  0  0  0  0  0  0  0  0  0  0  0
    7.8128  -13.2369   19.5124 C   0  0  1  0  0  0  0  0  0  0  0  0
    8.1049  -12.3369   18.3344 C   0  0  0  0  0  0  0  0  0  0  0  0
    8.5783  -14.5372   19.2739 C   0  0  2  0  0  0  0  0  0  0  0  0
    8.0622  -15.1680   18.0529 N   0  0  0  0  0  0  0  0  0  0  0  0
    8.2510  -15.4561   20.3867 C   0  0  0  0  0  0  0  0  0  0  0  0
    7.3437  -16.3194   20.2064 O   0  0  0  0  0  0  0  0  0  0  0  0
    8.8751  -15.4584   21.6593 N   0  0  0  0  0  0  0  0  0  0  0  0
    8.4616  -16.4075   22.6614 C   0  0  1  0  0  0  0  0  0  0  0  0
    8.8606  -17.8108   22.1850 C   0  0  0  0  0  0  0  0  0  0  0  0
   10.5934  -17.7406   21.6910 S   0  0  0  0  0  0  0  0  0  0  0  0
    9.1763  -16.1743   23.9399 C   0  0  0  0  0  0  0  0  0  0  0  0
   10.3974  -15.8368   23.9973 O   0  0  0  0  0  0  0  0  0  0  0  0
    8.5120  -16.3215   25.1844 N   0  0  0  0  0  0  0  0  0  0  0  0
    9.1489  -16.0241   26.4615 C   0  0  1  0  0  0  0  0  0  0  0  0
    8.0536  -15.4753   27.3451 C   0  0  0  0  0  0  0  0  0  0  0  0
    7.5217  -14.1869   26.8849 C   0  0  0  0  0  0  0  0  0  0  0  0
    8.2551  -13.0443   27.1057 C   0  0  0  0  0  0  0  0  0  0  0  0
    7.7556  -11.8180   26.6645 C   0  0  0  0  0  0  0  0  0  0  0  0
    6.5446  -11.8014   26.0240 C   0  0  0  0  0  0  0  0  0  0  0  0
    5.7939  -12.9425   25.7941 C   0  0  0  0  0  0  0  0  0  0  0  0
    6.3090  -14.1275   26.2374 C   0  0  0  0  0  0  0  0  0  0  0  0
    9.7169  -17.2271   27.0870 C   0  0  0  0  0  0  0  0  0  0  0  0
    9.5405  -18.5115   26.5286 O   0  0  0  0  0  0  0  0  0  0  0  0
   10.3918  -17.2213   28.1452 O   0  0  0  0  0  0  0  0  0  0  0  0
  2  4  1  0
  2  1  1  1
  3  2  1  0
  4  5  1  6
  4  6  1  0
  6  7  2  0
  8  6  1  0
  8  9  1  0
  9 12  1  0
  9 10  1  6
 11 10  1  0
 12 14  1  0
 13 12  2  0
 14 15  1  0
 15 16  1  1
 16 17  1  0
 17 18  2  0
 18 19  1  0
 20 19  2  0
 21 20  1  0
 22 21  2  0
 22 17  1  0
 23 15  1  0
 24 23  1  0
 25 23  2  0
M  END
$$$$
