VCF.pdb
     RDKit          3D

 25 25  0  0  1  0  0  0  0  0999 V2000
    7.7461  -19.3491   22.4743 C   0  0  0  0  0  0  0  0  0  0  0  0
    8.4846  -19.6731   21.2282 C   0  0  1  0  0  0  0  0  0  0  0  0
    8.0690  -21.0016   20.6403 C   0  0  0  0  0  0  0  0  0  0  0  0
    8.2134  -18.6147   20.1606 C   0  0  2  0  0  0  0  0  0  0  0  0
    9.0103  -18.9349   18.9699 N   0  0  0  0  0  0  0  0  0  0  0  0
    8.7295  -17.3255   20.6718 C   0  0  0  0  0  0  0  0  0  0  0  0
    9.9817  -17.1790   20.7785 O   0  0  0  0  0  0  0  0  0  0  0  0
    7.9333  -16.2182   21.0577 N   0  0  0  0  0  0  0  0  0  0  0  0
    8.5411  -15.0899   21.7161 C   0  0  1  0  0  0  0  0  0  0  0  0
    7.9014  -13.8101   21.1605 C   0  0  0  0  0  0  0  0  0  0  0  0
    7.3683  -14.1615   19.4741 S   0  0  0  0  0  0  0  0  0  0  0  0
    8.2572  -15.1088   23.1717 C   0  0  0  0  0  0  0  0  0  0  0  0
    7.1094  -15.3610   23.6486 O   0  0  0  0  0  0  0  0  0  0  0  0
    9.2788  -14.8396   24.1178 N   0  0  0  0  0  0  0  0  0  0  0  0
    9.1717  -15.2069   25.5244 C   0  0  1  0  0  0  0  0  0  0  0  0
    7.7000  -15.1293   25.8550 C   0  0  0  0  0  0  0  0  0  0  0  0
    7.2523  -13.7786   26.2155 C   0  0  0  0  0  0  0  0  0  0  0  0
    8.1838  -12.7720   26.3204 C   0  0  0  0  0  0  0  0  0  0  0  0
    7.7615  -11.4851   26.6573 C   0  0  0  0  0  0  0  0  0  0  0  0
    6.4249  -11.2745   26.8720 C   0  0  0  0  0  0  0  0  0  0  0  0
    5.4745  -12.2770   26.7705 C   0  0  0  0  0  0  0  0  0  0  0  0
    5.9183  -13.5256   26.4393 C   0  0  0  0  0  0  0  0  0  0  0  0
    9.6516  -16.5738   25.7747 C   0  0  0  0  0  0  0  0  0  0  0  0
    9.9692  -17.0260   27.0737 O   0  0  0  0  0  0  0  0  0  0  0  0
    9.8179  -17.4388   24.8807 O   0  0  0  0  0  0  0  0  0  0  0  0
  2  4  1  0
  2  1  1  1
  3  2  1  0
  4  5  1  6
  4  6  1  0
  6  7  2  0
  8  6  1  0
  8  9  1  0
  9 12  1  0
  9 10  1  6
 11 10  1  0
 12 14  1  0
 13 12  2  0
 14 15  1  0
 15 16  1  6
 16 17  1  0
 17 18  2  0
 18 19  1  0
 20 19  2  0
 21 20  1  0
 22 21  2  0
 22 17  1  0
 23 15  1  0
 24 23  1  0
 25 23  2  0
M  END
$$$$
