VCF.pdb
     RDKit          3D

 25 25  0  0  1  0  0  0  0  0999 V2000
    7.9512  -12.6545   20.6689 C   0  0  0  0  0  0  0  0  0  0  0  0
    7.6681  -13.2583   19.3429 C   0  0  1  0  0  0  0  0  0  0  0  0
    7.9780  -12.3169   18.2024 C   0  0  0  0  0  0  0  0  0  0  0  0
    8.5282  -14.5032   19.1326 C   0  0  2  0  0  0  0  0  0  0  0  0
    8.1016  -15.1639   17.8930 N   0  0  0  0  0  0  0  0  0  0  0  0
    8.2226  -15.4453   20.2321 C   0  0  0  0  0  0  0  0  0  0  0  0
    7.2106  -16.1959   20.1167 O   0  0  0  0  0  0  0  0  0  0  0  0
    8.9764  -15.5874   21.4240 N   0  0  0  0  0  0  0  0  0  0  0  0
    8.5389  -16.5029   22.4468 C   0  0  1  0  0  0  0  0  0  0  0  0
    9.0215  -17.9098   22.0680 C   0  0  0  0  0  0  0  0  0  0  0  0
   10.7684  -17.7837   21.6389 S   0  0  0  0  0  0  0  0  0  0  0  0
    9.1630  -16.1776   23.7523 C   0  0  0  0  0  0  0  0  0  0  0  0
   10.3342  -15.7029   23.8592 O   0  0  0  0  0  0  0  0  0  0  0  0
    8.4630  -16.3870   24.9680 N   0  0  0  0  0  0  0  0  0  0  0  0
    9.0331  -16.0764   26.2731 C   0  0  1  0  0  0  0  0  0  0  0  0
    7.8900  -15.5346   27.0986 C   0  0  0  0  0  0  0  0  0  0  0  0
    7.5259  -14.1540   26.7578 C   0  0  0  0  0  0  0  0  0  0  0  0
    8.4444  -13.1509   26.9630 C   0  0  0  0  0  0  0  0  0  0  0  0
    8.1042  -11.8377   26.6349 C   0  0  0  0  0  0  0  0  0  0  0  0
    6.8583  -11.5985   26.1174 C   0  0  0  0  0  0  0  0  0  0  0  0
    5.9222  -12.5970   25.9050 C   0  0  0  0  0  0  0  0  0  0  0  0
    6.2843  -13.8719   26.2357 C   0  0  0  0  0  0  0  0  0  0  0  0
    9.5819  -17.2701   26.9327 C   0  0  0  0  0  0  0  0  0  0  0  0
    9.4616  -18.5569   26.3650 O   0  0  0  0  0  0  0  0  0  0  0  0
   10.1905  -17.2537   28.0302 O   0  0  0  0  0  0  0  0  0  0  0  0
  2  4  1  0
  2  1  1  1
  3  2  1  0
  4  5  1  6
  4  6  1  0
  6  7  2  0
  8  6  1  0
  8  9  1  0
  9 12  1  0
  9 10  1  6
 11 10  1  0
 12 14  1  0
 13 12  2  0
 14 15  1  0
 15 16  1  1
 16 17  1  0
 17 18  2  0
 18 19  1  0
 20 19  2  0
 21 20  1  0
 22 21  2  0
 22 17  1  0
 23 15  1  0
 24 23  1  0
 25 23  2  0
M  END
$$$$
