VCF.pdb
     RDKit          3D

 25 25  0  0  1  0  0  0  0  0999 V2000
    8.4094  -12.9168   20.2510 C   0  0  0  0  0  0  0  0  0  0  0  0
    7.7154  -13.6102   19.1372 C   0  0  1  0  0  0  0  0  0  0  0  0
    8.1863  -13.1382   17.7813 C   0  0  0  0  0  0  0  0  0  0  0  0
    7.9841  -15.1127   19.1984 C   0  0  2  0  0  0  0  0  0  0  0  0
    7.2455  -15.7658   18.1107 N   0  0  0  0  0  0  0  0  0  0  0  0
    7.3987  -15.6178   20.4601 C   0  0  0  0  0  0  0  0  0  0  0  0
    6.2540  -15.2004   20.8012 O   0  0  0  0  0  0  0  0  0  0  0  0
    8.0146  -16.5462   21.3364 N   0  0  0  0  0  0  0  0  0  0  0  0
    7.6080  -16.6109   22.7171 C   0  0  1  0  0  0  0  0  0  0  0  0
    7.1751  -18.0516   23.0215 C   0  0  0  0  0  0  0  0  0  0  0  0
    8.6508  -19.0854   22.9479 S   0  0  0  0  0  0  0  0  0  0  0  0
    8.7456  -16.3100   23.6199 C   0  0  0  0  0  0  0  0  0  0  0  0
    9.9524  -16.5538   23.3155 O   0  0  0  0  0  0  0  0  0  0  0  0
    8.5311  -15.7229   24.8930 N   0  0  0  0  0  0  0  0  0  0  0  0
    9.6172  -15.4113   25.8139 C   0  0  1  0  0  0  0  0  0  0  0  0
    9.6130  -13.9075   25.9553 C   0  0  0  0  0  0  0  0  0  0  0  0
    8.3044  -13.3595   26.3322 C   0  0  0  0  0  0  0  0  0  0  0  0
    7.3371  -13.2148   25.3650 C   0  0  0  0  0  0  0  0  0  0  0  0
    6.0897  -12.6996   25.7203 C   0  0  0  0  0  0  0  0  0  0  0  0
    5.8770  -12.3555   27.0293 C   0  0  0  0  0  0  0  0  0  0  0  0
    6.8401  -12.4948   28.0149 C   0  0  0  0  0  0  0  0  0  0  0  0
    8.0507  -13.0018   27.6366 C   0  0  0  0  0  0  0  0  0  0  0  0
    9.4108  -16.0213   27.1355 C   0  0  0  0  0  0  0  0  0  0  0  0
    8.2814  -16.8189   27.4200 O   0  0  0  0  0  0  0  0  0  0  0  0
   10.1984  -15.8917   28.1040 O   0  0  0  0  0  0  0  0  0  0  0  0
  2  4  1  0
  2  1  1  1
  3  2  1  0
  4  5  1  6
  4  6  1  0
  6  7  2  0
  8  6  1  0
  8  9  1  0
  9 12  1  0
  9 10  1  1
 11 10  1  0
 12 14  1  0
 13 12  2  0
 14 15  1  0
 15 16  1  1
 16 17  1  0
 17 18  2  0
 18 19  1  0
 20 19  2  0
 21 20  1  0
 22 21  2  0
 22 17  1  0
 23 15  1  0
 24 23  1  0
 25 23  2  0
M  END
$$$$
