VCF.pdb
     RDKit          3D

 25 25  0  0  1  0  0  0  0  0999 V2000
    9.6978  -13.1589   18.0421 C   0  0  0  0  0  0  0  0  0  0  0  0
    9.0383  -13.4739   19.3339 C   0  0  1  0  0  0  0  0  0  0  0  0
    7.8484  -12.5835   19.6064 C   0  0  0  0  0  0  0  0  0  0  0  0
    8.5209  -14.9112   19.3286 C   0  0  2  0  0  0  0  0  0  0  0  0
    7.4888  -15.0341   18.2918 N   0  0  0  0  0  0  0  0  0  0  0  0
    7.8405  -15.1434   20.6220 C   0  0  0  0  0  0  0  0  0  0  0  0
    6.8449  -14.4200   20.9158 O   0  0  0  0  0  0  0  0  0  0  0  0
    8.2084  -16.1227   21.5784 N   0  0  0  0  0  0  0  0  0  0  0  0
    7.5847  -16.1298   22.8771 C   0  0  1  0  0  0  0  0  0  0  0  0
    6.7429  -17.4076   22.9967 C   0  0  0  0  0  0  0  0  0  0  0  0
    7.8768  -18.8084   22.9365 S   0  0  0  0  0  0  0  0  0  0  0  0
    8.6024  -16.1899   23.9542 C   0  0  0  0  0  0  0  0  0  0  0  0
    9.7100  -16.7942   23.8253 O   0  0  0  0  0  0  0  0  0  0  0  0
    8.3787  -15.5604   25.2053 N   0  0  0  0  0  0  0  0  0  0  0  0
    9.3084  -15.6680   26.3229 C   0  0  1  0  0  0  0  0  0  0  0  0
    9.2714  -14.3257   27.0145 C   0  0  0  0  0  0  0  0  0  0  0  0
    8.0993  -13.5168   26.6586 C   0  0  0  0  0  0  0  0  0  0  0  0
    8.1931  -12.6291   25.6120 C   0  0  0  0  0  0  0  0  0  0  0  0
    7.0792  -11.8624   25.2667 C   0  0  0  0  0  0  0  0  0  0  0  0
    5.9274  -12.0260   25.9902 C   0  0  0  0  0  0  0  0  0  0  0  0
    5.8166  -12.9150   27.0466 C   0  0  0  0  0  0  0  0  0  0  0  0
    6.9234  -13.6513   27.3606 C   0  0  0  0  0  0  0  0  0  0  0  0
    8.9062  -16.7133   27.2752 C   0  0  0  0  0  0  0  0  0  0  0  0
    9.7391  -17.1081   28.3442 O   0  0  0  0  0  0  0  0  0  0  0  0
    7.8156  -17.3324   27.2252 O   0  0  0  0  0  0  0  0  0  0  0  0
  2  4  1  0
  2  1  1  6
  3  2  1  0
  4  5  1  6
  4  6  1  0
  6  7  2  0
  8  6  1  0
  8  9  1  0
  9 12  1  0
  9 10  1  6
 11 10  1  0
 12 14  1  0
 13 12  2  0
 14 15  1  0
 15 16  1  1
 16 17  1  0
 17 18  2  0
 18 19  1  0
 20 19  2  0
 21 20  1  0
 22 21  2  0
 22 17  1  0
 23 15  1  0
 24 23  1  0
 25 23  2  0
M  END
$$$$
