VCF.pdb
     RDKit          3D

 25 25  0  0  1  0  0  0  0  0999 V2000
    8.4822  -12.8720   20.6629 C   0  0  0  0  0  0  0  0  0  0  0  0
    7.8535  -13.5851   19.5230 C   0  0  1  0  0  0  0  0  0  0  0  0
    7.9394  -12.8013   18.2341 C   0  0  0  0  0  0  0  0  0  0  0  0
    8.5595  -14.9172   19.2765 C   0  0  2  0  0  0  0  0  0  0  0  0
    7.8552  -15.6296   18.2033 N   0  0  0  0  0  0  0  0  0  0  0  0
    8.3973  -15.7386   20.4967 C   0  0  0  0  0  0  0  0  0  0  0  0
    7.2919  -16.3252   20.6839 O   0  0  0  0  0  0  0  0  0  0  0  0
    9.3873  -15.9334   21.4921 N   0  0  0  0  0  0  0  0  0  0  0  0
    9.0662  -16.6612   22.6933 C   0  0  1  0  0  0  0  0  0  0  0  0
    9.3216  -18.1520   22.4322 C   0  0  0  0  0  0  0  0  0  0  0  0
   10.8629  -18.2810   21.5051 S   0  0  0  0  0  0  0  0  0  0  0  0
    9.9609  -16.2664   23.8082 C   0  0  0  0  0  0  0  0  0  0  0  0
   11.2188  -16.1647   23.6819 O   0  0  0  0  0  0  0  0  0  0  0  0
    9.4393  -15.9780   25.0952 N   0  0  0  0  0  0  0  0  0  0  0  0
   10.2777  -15.5708   26.2160 C   0  0  1  0  0  0  0  0  0  0  0  0
   10.1825  -14.0643   26.2700 C   0  0  0  0  0  0  0  0  0  0  0  0
    8.8028  -13.5681   26.3410 C   0  0  0  0  0  0  0  0  0  0  0  0
    8.0176  -13.6138   25.2125 C   0  0  0  0  0  0  0  0  0  0  0  0
    6.7034  -13.1483   25.2773 C   0  0  0  0  0  0  0  0  0  0  0  0
    6.2445  -12.6602   26.4723 C   0  0  0  0  0  0  0  0  0  0  0  0
    7.0221  -12.6070   27.6173 C   0  0  0  0  0  0  0  0  0  0  0  0
    8.3038  -13.0698   27.5227 C   0  0  0  0  0  0  0  0  0  0  0  0
    9.8041  -16.1308   27.4901 C   0  0  0  0  0  0  0  0  0  0  0  0
   10.5033  -15.9275   28.6994 O   0  0  0  0  0  0  0  0  0  0  0  0
    8.7636  -16.8214   27.6146 O   0  0  0  0  0  0  0  0  0  0  0  0
  2  4  1  0
  2  1  1  1
  3  2  1  0
  4  5  1  6
  4  6  1  0
  6  7  2  0
  8  6  1  0
  8  9  1  0
  9 12  1  0
  9 10  1  6
 11 10  1  0
 12 14  1  0
 13 12  2  0
 14 15  1  0
 15 16  1  1
 16 17  1  0
 17 18  2  0
 18 19  1  0
 20 19  2  0
 21 20  1  0
 22 21  2  0
 22 17  1  0
 23 15  1  0
 24 23  1  0
 25 23  2  0
M  END
$$$$
