VCF.pdb
     RDKit          3D

 25 25  0  0  1  0  0  0  0  0999 V2000
    8.5774  -13.3746   17.6376 C   0  0  0  0  0  0  0  0  0  0  0  0
    8.0419  -13.5740   19.0075 C   0  0  1  0  0  0  0  0  0  0  0  0
    6.5524  -13.8280   19.0132 C   0  0  0  0  0  0  0  0  0  0  0  0
    8.6983  -14.7883   19.6619 C   0  0  2  0  0  0  0  0  0  0  0  0
    8.3849  -15.9787   18.8620 N   0  0  0  0  0  0  0  0  0  0  0  0
    8.0504  -14.9888   20.9771 C   0  0  0  0  0  0  0  0  0  0  0  0
    8.2048  -14.1006   21.8649 O   0  0  0  0  0  0  0  0  0  0  0  0
    7.2555  -16.1053   21.3383 N   0  0  0  0  0  0  0  0  0  0  0  0
    6.8500  -16.2862   22.7089 C   0  0  1  0  0  0  0  0  0  0  0  0
    6.1310  -17.6376   22.8208 C   0  0  0  0  0  0  0  0  0  0  0  0
    7.3971  -18.9211   22.8571 S   0  0  0  0  0  0  0  0  0  0  0  0
    8.0288  -16.3573   23.6061 C   0  0  0  0  0  0  0  0  0  0  0  0
    9.1790  -16.7147   23.2087 O   0  0  0  0  0  0  0  0  0  0  0  0
    7.9215  -16.0215   24.9799 N   0  0  0  0  0  0  0  0  0  0  0  0
    9.0675  -15.9961   25.8803 C   0  0  1  0  0  0  0  0  0  0  0  0
    9.3993  -14.5357   26.0766 C   0  0  0  0  0  0  0  0  0  0  0  0
    8.2570  -13.7324   26.5288 C   0  0  0  0  0  0  0  0  0  0  0  0
    7.2877  -13.3782   25.6194 C   0  0  0  0  0  0  0  0  0  0  0  0
    6.1970  -12.6194   26.0465 C   0  0  0  0  0  0  0  0  0  0  0  0
    6.1352  -12.2546   27.3657 C   0  0  0  0  0  0  0  0  0  0  0  0
    7.1027  -12.6027   28.2937 C   0  0  0  0  0  0  0  0  0  0  0  0
    8.1578  -13.3456   27.8457 C   0  0  0  0  0  0  0  0  0  0  0  0
    8.7571  -16.6004   27.1840 C   0  0  0  0  0  0  0  0  0  0  0  0
    7.4886  -17.1513   27.4671 O   0  0  0  0  0  0  0  0  0  0  0  0
    9.5695  -16.6792   28.1374 O   0  0  0  0  0  0  0  0  0  0  0  0
  2  4  1  0
  2  1  1  6
  3  2  1  0
  4  5  1  6
  4  6  1  0
  6  7  2  0
  8  6  1  0
  8  9  1  0
  9 12  1  0
  9 10  1  6
 11 10  1  0
 12 14  1  0
 13 12  2  0
 14 15  1  0
 15 16  1  1
 16 17  1  0
 17 18  2  0
 18 19  1  0
 20 19  2  0
 21 20  1  0
 22 21  2  0
 22 17  1  0
 23 15  1  0
 24 23  1  0
 25 23  2  0
M  END
$$$$
