VCF.pdb
     RDKit          3D

 25 25  0  0  1  0  0  0  0  0999 V2000
    8.0353  -12.7808   20.6040 C   0  0  0  0  0  0  0  0  0  0  0  0
    7.7746  -13.4608   19.3107 C   0  0  1  0  0  0  0  0  0  0  0  0
    8.1197  -12.5929   18.1229 C   0  0  0  0  0  0  0  0  0  0  0  0
    8.6252  -14.7244   19.1950 C   0  0  2  0  0  0  0  0  0  0  0  0
    8.2619  -15.4223   17.9555 N   0  0  0  0  0  0  0  0  0  0  0  0
    8.2398  -15.6227   20.3060 C   0  0  0  0  0  0  0  0  0  0  0  0
    7.3746  -16.5184   20.0824 O   0  0  0  0  0  0  0  0  0  0  0  0
    8.7637  -15.5712   21.6220 N   0  0  0  0  0  0  0  0  0  0  0  0
    8.2963  -16.5002   22.6192 C   0  0  1  0  0  0  0  0  0  0  0  0
    8.6508  -17.9194   22.1546 C   0  0  0  0  0  0  0  0  0  0  0  0
   10.3041  -17.8552   21.4375 S   0  0  0  0  0  0  0  0  0  0  0  0
    8.9954  -16.2893   23.9100 C   0  0  0  0  0  0  0  0  0  0  0  0
   10.2164  -15.9550   23.9880 O   0  0  0  0  0  0  0  0  0  0  0  0
    8.3156  -16.4556   25.1436 N   0  0  0  0  0  0  0  0  0  0  0  0
    8.9384  -16.1842   26.4334 C   0  0  1  0  0  0  0  0  0  0  0  0
    7.8464  -15.6009   27.2986 C   0  0  0  0  0  0  0  0  0  0  0  0
    7.4389  -14.2500   26.8940 C   0  0  0  0  0  0  0  0  0  0  0  0
    6.2348  -14.0800   26.2511 C   0  0  0  0  0  0  0  0  0  0  0  0
    5.8410  -12.7964   25.8699 C   0  0  0  0  0  0  0  0  0  0  0  0
    6.6767  -11.7485   26.1535 C   0  0  0  0  0  0  0  0  0  0  0  0
    7.8921  -11.9028   26.7998 C   0  0  0  0  0  0  0  0  0  0  0  0
    8.2500  -13.1707   27.1605 C   0  0  0  0  0  0  0  0  0  0  0  0
    9.4531  -17.4080   27.0647 C   0  0  0  0  0  0  0  0  0  0  0  0
   10.4082  -17.3658   28.1033 O   0  0  0  0  0  0  0  0  0  0  0  0
    9.0997  -18.5694   26.7463 O   0  0  0  0  0  0  0  0  0  0  0  0
  2  4  1  0
  2  1  1  1
  3  2  1  0
  4  5  1  6
  4  6  1  0
  6  7  2  0
  8  6  1  0
  8  9  1  0
  9 12  1  0
  9 10  1  6
 11 10  1  0
 12 14  1  0
 13 12  2  0
 14 15  1  0
 15 16  1  1
 16 17  1  0
 17 18  2  0
 18 19  1  0
 20 19  2  0
 21 20  1  0
 22 21  2  0
 22 17  1  0
 23 15  1  0
 24 23  1  0
 25 23  2  0
M  END
$$$$
