VCF.pdb
     RDKit          3D

 25 25  0  0  1  0  0  0  0  0999 V2000
    6.3118  -21.0692   23.3041 C   0  0  0  0  0  0  0  0  0  0  0  0
    7.2177  -19.8967   23.2164 C   0  0  1  0  0  0  0  0  0  0  0  0
    8.6648  -20.2676   23.4436 C   0  0  0  0  0  0  0  0  0  0  0  0
    7.1372  -19.2671   21.8269 C   0  0  2  0  0  0  0  0  0  0  0  0
    7.7112  -20.2042   20.8536 N   0  0  0  0  0  0  0  0  0  0  0  0
    8.0167  -18.0770   21.8267 C   0  0  0  0  0  0  0  0  0  0  0  0
    9.2409  -18.2343   21.5485 O   0  0  0  0  0  0  0  0  0  0  0  0
    7.6037  -16.7517   22.1129 N   0  0  0  0  0  0  0  0  0  0  0  0
    8.5497  -15.6686   22.0245 C   0  0  1  0  0  0  0  0  0  0  0  0
    7.8289  -14.4510   21.4300 C   0  0  0  0  0  0  0  0  0  0  0  0
    6.1826  -14.3875   22.1631 S   0  0  0  0  0  0  0  0  0  0  0  0
    9.0226  -15.2659   23.3713 C   0  0  0  0  0  0  0  0  0  0  0  0
    9.1508  -14.0547   23.7250 O   0  0  0  0  0  0  0  0  0  0  0  0
    9.3606  -16.2383   24.3469 N   0  0  0  0  0  0  0  0  0  0  0  0
    9.1881  -16.0175   25.7774 C   0  0  1  0  0  0  0  0  0  0  0  0
    7.6999  -15.8717   25.9908 C   0  0  0  0  0  0  0  0  0  0  0  0
    7.2703  -14.4812   26.1822 C   0  0  0  0  0  0  0  0  0  0  0  0
    5.9929  -14.1211   25.8208 C   0  0  0  0  0  0  0  0  0  0  0  0
    5.5785  -12.8013   26.0065 C   0  0  0  0  0  0  0  0  0  0  0  0
    6.4684  -11.9100   26.5457 C   0  0  0  0  0  0  0  0  0  0  0  0
    7.7578  -12.2565   26.9145 C   0  0  0  0  0  0  0  0  0  0  0  0
    8.1340  -13.5552   26.7208 C   0  0  0  0  0  0  0  0  0  0  0  0
    9.6815  -17.1509   26.5731 C   0  0  0  0  0  0  0  0  0  0  0  0
   10.0548  -18.3743   25.9759 O   0  0  0  0  0  0  0  0  0  0  0  0
    9.8120  -17.1340   27.8212 O   0  0  0  0  0  0  0  0  0  0  0  0
  2  4  1  0
  2  1  1  6
  3  2  1  0
  4  5  1  6
  4  6  1  0
  6  7  2  0
  8  6  1  0
  8  9  1  0
  9 12  1  0
  9 10  1  1
 11 10  1  0
 12 14  1  0
 13 12  2  0
 14 15  1  0
 15 16  1  6
 16 17  1  0
 17 18  2  0
 18 19  1  0
 20 19  2  0
 21 20  1  0
 22 21  2  0
 22 17  1  0
 23 15  1  0
 24 23  1  0
 25 23  2  0
M  END
$$$$
