VCF.pdb
     RDKit          3D

 25 25  0  0  1  0  0  0  0  0999 V2000
    8.8539  -12.1846   18.7033 C   0  0  0  0  0  0  0  0  0  0  0  0
    8.4718  -13.2154   19.7005 C   0  0  1  0  0  0  0  0  0  0  0  0
    6.9793  -13.2706   19.9301 C   0  0  0  0  0  0  0  0  0  0  0  0
    8.8949  -14.6019   19.2187 C   0  0  2  0  0  0  0  0  0  0  0  0
    8.0914  -14.9548   18.0418 N   0  0  0  0  0  0  0  0  0  0  0  0
    8.5302  -15.5704   20.2765 C   0  0  0  0  0  0  0  0  0  0  0  0
    7.5551  -16.3493   20.0681 O   0  0  0  0  0  0  0  0  0  0  0  0
    9.1880  -15.7087   21.5243 N   0  0  0  0  0  0  0  0  0  0  0  0
    8.6858  -16.6392   22.5030 C   0  0  1  0  0  0  0  0  0  0  0  0
    9.1416  -18.0486   22.1013 C   0  0  0  0  0  0  0  0  0  0  0  0
   10.9021  -17.9586   21.7215 S   0  0  0  0  0  0  0  0  0  0  0  0
    9.2688  -16.3695   23.8397 C   0  0  0  0  0  0  0  0  0  0  0  0
   10.4653  -15.9835   24.0066 O   0  0  0  0  0  0  0  0  0  0  0  0
    8.4980  -16.5347   25.0188 N   0  0  0  0  0  0  0  0  0  0  0  0
    8.9885  -16.1711   26.3425 C   0  0  1  0  0  0  0  0  0  0  0  0
    7.8009  -15.5881   27.0712 C   0  0  0  0  0  0  0  0  0  0  0  0
    7.4714  -14.2205   26.6516 C   0  0  0  0  0  0  0  0  0  0  0  0
    6.1900  -13.9391   26.2382 C   0  0  0  0  0  0  0  0  0  0  0  0
    5.8712  -12.6387   25.8440 C   0  0  0  0  0  0  0  0  0  0  0  0
    6.8557  -11.6869   25.8848 C   0  0  0  0  0  0  0  0  0  0  0  0
    8.1505  -11.9539   26.2982 C   0  0  0  0  0  0  0  0  0  0  0  0
    8.4319  -13.2354   26.6780 C   0  0  0  0  0  0  0  0  0  0  0  0
    9.4856  -17.3383   27.0853 C   0  0  0  0  0  0  0  0  0  0  0  0
   10.3145  -17.2019   28.2198 O   0  0  0  0  0  0  0  0  0  0  0  0
    9.2253  -18.5291   26.7864 O   0  0  0  0  0  0  0  0  0  0  0  0
  2  4  1  0
  2  1  1  6
  3  2  1  0
  4  5  1  6
  4  6  1  0
  6  7  2  0
  8  6  1  0
  8  9  1  0
  9 12  1  0
  9 10  1  6
 11 10  1  0
 12 14  1  0
 13 12  2  0
 14 15  1  0
 15 16  1  1
 16 17  1  0
 17 18  2  0
 18 19  1  0
 20 19  2  0
 21 20  1  0
 22 21  2  0
 22 17  1  0
 23 15  1  0
 24 23  1  0
 25 23  2  0
M  END
$$$$
