VCF.pdb
     RDKit          3D

 25 25  0  0  1  0  0  0  0  0999 V2000
    8.2193  -12.6241   21.0091 C   0  0  0  0  0  0  0  0  0  0  0  0
    7.7430  -13.1271   19.6964 C   0  0  1  0  0  0  0  0  0  0  0  0
    7.9110  -12.1086   18.5929 C   0  0  0  0  0  0  0  0  0  0  0  0
    8.5401  -14.3623   19.2808 C   0  0  2  0  0  0  0  0  0  0  0  0
    7.9592  -14.9012   18.0450 N   0  0  0  0  0  0  0  0  0  0  0  0
    8.3347  -15.3943   20.3212 C   0  0  0  0  0  0  0  0  0  0  0  0
    7.2437  -16.0351   20.3252 O   0  0  0  0  0  0  0  0  0  0  0  0
    9.2679  -15.7383   21.3311 N   0  0  0  0  0  0  0  0  0  0  0  0
    8.8946  -16.6636   22.3704 C   0  0  1  0  0  0  0  0  0  0  0  0
    9.5378  -18.0212   22.0561 C   0  0  0  0  0  0  0  0  0  0  0  0
   11.2775  -17.7216   21.6878 S   0  0  0  0  0  0  0  0  0  0  0  0
    9.4334  -16.2327   23.6833 C   0  0  0  0  0  0  0  0  0  0  0  0
   10.5307  -15.6093   23.8088 O   0  0  0  0  0  0  0  0  0  0  0  0
    8.7306  -16.5040   24.8850 N   0  0  0  0  0  0  0  0  0  0  0  0
    9.1971  -16.0590   26.1924 C   0  0  1  0  0  0  0  0  0  0  0  0
    7.9585  -15.6296   26.9426 C   0  0  0  0  0  0  0  0  0  0  0  0
    7.4571  -14.3110   26.5369 C   0  0  0  0  0  0  0  0  0  0  0  0
    6.3094  -14.2361   25.7824 C   0  0  0  0  0  0  0  0  0  0  0  0
    5.8261  -12.9840   25.3995 C   0  0  0  0  0  0  0  0  0  0  0  0
    6.5202  -11.8705   25.7937 C   0  0  0  0  0  0  0  0  0  0  0  0
    7.6772  -11.9289   26.5530 C   0  0  0  0  0  0  0  0  0  0  0  0
    8.1253  -13.1681   26.9124 C   0  0  0  0  0  0  0  0  0  0  0  0
    9.8627  -17.1383   26.9363 C   0  0  0  0  0  0  0  0  0  0  0  0
    9.9119  -18.4611   26.4460 O   0  0  0  0  0  0  0  0  0  0  0  0
   10.4318  -16.9856   28.0444 O   0  0  0  0  0  0  0  0  0  0  0  0
  2  4  1  0
  2  1  1  1
  3  2  1  0
  4  5  1  6
  4  6  1  0
  6  7  2  0
  8  6  1  0
  8  9  1  0
  9 12  1  0
  9 10  1  6
 11 10  1  0
 12 14  1  0
 13 12  2  0
 14 15  1  0
 15 16  1  1
 16 17  1  0
 17 18  2  0
 18 19  1  0
 20 19  2  0
 21 20  1  0
 22 21  2  0
 22 17  1  0
 23 15  1  0
 24 23  1  0
 25 23  2  0
M  END
$$$$
