VCF.pdb
     RDKit          3D

 25 25  0  0  1  0  0  0  0  0999 V2000
    8.0120  -12.8342   20.5039 C   0  0  0  0  0  0  0  0  0  0  0  0
    7.7519  -13.4278   19.1686 C   0  0  1  0  0  0  0  0  0  0  0  0
    7.8482  -12.4098   18.0562 C   0  0  0  0  0  0  0  0  0  0  0  0
    8.7810  -14.5144   18.8618 C   0  0  2  0  0  0  0  0  0  0  0  0
    8.4065  -15.1731   17.6043 N   0  0  0  0  0  0  0  0  0  0  0  0
    8.6694  -15.5434   19.9193 C   0  0  0  0  0  0  0  0  0  0  0  0
    7.6670  -16.3153   19.9037 O   0  0  0  0  0  0  0  0  0  0  0  0
    9.6025  -15.7482   20.9664 N   0  0  0  0  0  0  0  0  0  0  0  0
    9.3287  -16.7203   21.9939 C   0  0  1  0  0  0  0  0  0  0  0  0
   10.4125  -17.8051   21.9274 C   0  0  0  0  0  0  0  0  0  0  0  0
   11.9861  -16.9779   21.6255 S   0  0  0  0  0  0  0  0  0  0  0  0
    9.4229  -16.1086   23.3417 C   0  0  0  0  0  0  0  0  0  0  0  0
   10.1858  -15.1302   23.6047 O   0  0  0  0  0  0  0  0  0  0  0  0
    8.6470  -16.6008   24.4221 N   0  0  0  0  0  0  0  0  0  0  0  0
    8.7672  -16.0875   25.7812 C   0  0  1  0  0  0  0  0  0  0  0  0
    7.3743  -15.6615   26.1807 C   0  0  0  0  0  0  0  0  0  0  0  0
    7.2463  -14.2162   26.4033 C   0  0  0  0  0  0  0  0  0  0  0  0
    8.2096  -13.5659   27.1391 C   0  0  0  0  0  0  0  0  0  0  0  0
    8.0947  -12.1908   27.3482 C   0  0  0  0  0  0  0  0  0  0  0  0
    7.0179  -11.5384   26.8078 C   0  0  0  0  0  0  0  0  0  0  0  0
    6.0396  -12.1784   26.0649 C   0  0  0  0  0  0  0  0  0  0  0  0
    6.1796  -13.5241   25.8774 C   0  0  0  0  0  0  0  0  0  0  0  0
    9.2453  -17.1150   26.7176 C   0  0  0  0  0  0  0  0  0  0  0  0
    9.8365  -16.7790   27.9547 O   0  0  0  0  0  0  0  0  0  0  0  0
    9.1730  -18.3503   26.5079 O   0  0  0  0  0  0  0  0  0  0  0  0
  2  4  1  0
  2  1  1  1
  3  2  1  0
  4  5  1  6
  4  6  1  0
  6  7  2  0
  8  6  1  0
  8  9  1  0
  9 12  1  0
  9 10  1  1
 11 10  1  0
 12 14  1  0
 13 12  2  0
 14 15  1  0
 15 16  1  1
 16 17  1  0
 17 18  2  0
 18 19  1  0
 20 19  2  0
 21 20  1  0
 22 21  2  0
 22 17  1  0
 23 15  1  0
 24 23  1  0
 25 23  2  0
M  END
$$$$
