VCF.pdb
     RDKit          3D

 25 25  0  0  1  0  0  0  0  0999 V2000
    7.2191  -12.4472   20.1224 C   0  0  0  0  0  0  0  0  0  0  0  0
    7.7527  -13.5103   19.2346 C   0  0  1  0  0  0  0  0  0  0  0  0
    8.1887  -12.9746   17.8908 C   0  0  0  0  0  0  0  0  0  0  0  0
    8.9800  -14.1633   19.8678 C   0  0  2  0  0  0  0  0  0  0  0  0
    9.4318  -15.2555   18.9970 N   0  0  0  0  0  0  0  0  0  0  0  0
    8.5444  -14.7941   21.1336 C   0  0  0  0  0  0  0  0  0  0  0  0
    8.1034  -14.0488   22.0561 O   0  0  0  0  0  0  0  0  0  0  0  0
    8.5746  -16.1839   21.4105 N   0  0  0  0  0  0  0  0  0  0  0  0
    8.0440  -16.6812   22.6543 C   0  0  1  0  0  0  0  0  0  0  0  0
    8.0839  -18.2149   22.6124 C   0  0  0  0  0  0  0  0  0  0  0  0
    9.7584  -18.6986   22.1499 S   0  0  0  0  0  0  0  0  0  0  0  0
    8.8929  -16.2657   23.7972 C   0  0  0  0  0  0  0  0  0  0  0  0
   10.1106  -15.9352   23.6692 O   0  0  0  0  0  0  0  0  0  0  0  0
    8.3702  -16.2178   25.1148 N   0  0  0  0  0  0  0  0  0  0  0  0
    9.1830  -15.8811   26.2770 C   0  0  1  0  0  0  0  0  0  0  0  0
    8.2455  -15.2022   27.2473 C   0  0  0  0  0  0  0  0  0  0  0  0
    7.7219  -13.9221   26.7556 C   0  0  0  0  0  0  0  0  0  0  0  0
    8.5537  -12.8270   26.7266 C   0  0  0  0  0  0  0  0  0  0  0  0
    8.0614  -11.6094   26.2544 C   0  0  0  0  0  0  0  0  0  0  0  0
    6.7583  -11.5534   25.8352 C   0  0  0  0  0  0  0  0  0  0  0  0
    5.9078  -12.6464   25.8581 C   0  0  0  0  0  0  0  0  0  0  0  0
    6.4184  -13.8240   26.3254 C   0  0  0  0  0  0  0  0  0  0  0  0
    9.7550  -17.0763   26.9139 C   0  0  0  0  0  0  0  0  0  0  0  0
   10.7663  -16.9865   27.8946 O   0  0  0  0  0  0  0  0  0  0  0  0
    9.4055  -18.2526   26.6506 O   0  0  0  0  0  0  0  0  0  0  0  0
  2  4  1  0
  2  1  1  1
  3  2  1  0
  4  5  1  6
  4  6  1  0
  6  7  2  0
  8  6  1  0
  8  9  1  0
  9 12  1  0
  9 10  1  6
 11 10  1  0
 12 14  1  0
 13 12  2  0
 14 15  1  0
 15 16  1  1
 16 17  1  0
 17 18  2  0
 18 19  1  0
 20 19  2  0
 21 20  1  0
 22 21  2  0
 22 17  1  0
 23 15  1  0
 24 23  1  0
 25 23  2  0
M  END
$$$$
