VCF.pdb
     RDKit          3D

 25 25  0  0  1  0  0  0  0  0999 V2000
    7.7744  -12.6075   20.5019 C   0  0  0  0  0  0  0  0  0  0  0  0
    7.6917  -13.3720   19.2324 C   0  0  1  0  0  0  0  0  0  0  0  0
    8.2072  -12.5846   18.0502 C   0  0  0  0  0  0  0  0  0  0  0  0
    8.5393  -14.6398   19.3206 C   0  0  2  0  0  0  0  0  0  0  0  0
    8.3756  -15.4009   18.0760 N   0  0  0  0  0  0  0  0  0  0  0  0
    7.9720  -15.4795   20.3990 C   0  0  0  0  0  0  0  0  0  0  0  0
    7.0368  -16.2806   20.1081 O   0  0  0  0  0  0  0  0  0  0  0  0
    8.3907  -15.4693   21.7530 N   0  0  0  0  0  0  0  0  0  0  0  0
    7.9406  -16.5005   22.6529 C   0  0  1  0  0  0  0  0  0  0  0  0
    8.2885  -17.8612   22.0339 C   0  0  0  0  0  0  0  0  0  0  0  0
    7.8699  -19.1285   23.2465 S   0  0  0  0  0  0  0  0  0  0  0  0
    8.6608  -16.4267   23.9473 C   0  0  0  0  0  0  0  0  0  0  0  0
    9.9259  -16.4409   24.0359 O   0  0  0  0  0  0  0  0  0  0  0  0
    7.9520  -16.3348   25.1724 N   0  0  0  0  0  0  0  0  0  0  0  0
    8.6140  -16.1489   26.4577 C   0  0  1  0  0  0  0  0  0  0  0  0
    7.5831  -15.5109   27.3587 C   0  0  0  0  0  0  0  0  0  0  0  0
    7.3255  -14.1003   27.0450 C   0  0  0  0  0  0  0  0  0  0  0  0
    6.0714  -13.7289   26.6191 C   0  0  0  0  0  0  0  0  0  0  0  0
    5.8207  -12.3877   26.3254 C   0  0  0  0  0  0  0  0  0  0  0  0
    6.8426  -11.4873   26.4743 C   0  0  0  0  0  0  0  0  0  0  0  0
    8.1106  -11.8449   26.9017 C   0  0  0  0  0  0  0  0  0  0  0  0
    8.3252  -13.1646   27.1815 C   0  0  0  0  0  0  0  0  0  0  0  0
    9.0449  -17.4258   27.0451 C   0  0  0  0  0  0  0  0  0  0  0  0
    9.9543  -17.4811   28.1233 O   0  0  0  0  0  0  0  0  0  0  0  0
    8.6540  -18.5517   26.6519 O   0  0  0  0  0  0  0  0  0  0  0  0
  2  4  1  0
  2  1  1  1
  3  2  1  0
  4  5  1  6
  4  6  1  0
  6  7  2  0
  8  6  1  0
  8  9  1  0
  9 12  1  0
  9 10  1  6
 11 10  1  0
 12 14  1  0
 13 12  2  0
 14 15  1  0
 15 16  1  1
 16 17  1  0
 17 18  2  0
 18 19  1  0
 20 19  2  0
 21 20  1  0
 22 21  2  0
 22 17  1  0
 23 15  1  0
 24 23  1  0
 25 23  2  0
M  END
$$$$
