FIP.pdb
     RDKit          3D

 27 28  0  0  1  0  0  0  0  0999 V2000
    5.7808  -17.9927   25.7450 N   0  0  0  0  0  0  0  0  0  0  0  0
    6.4008  -16.7359   25.4261 C   0  0  1  0  0  0  0  0  0  0  0  0
    7.1241  -16.1119   26.5947 C   0  0  0  0  0  0  0  0  0  0  0  0
    7.0589  -14.6485   26.6242 C   0  0  0  0  0  0  0  0  0  0  0  0
    5.8783  -13.9657   26.4251 C   0  0  0  0  0  0  0  0  0  0  0  0
    5.7938  -12.5959   26.4484 C   0  0  0  0  0  0  0  0  0  0  0  0
    6.9612  -11.8889   26.6845 C   0  0  0  0  0  0  0  0  0  0  0  0
    8.1451  -12.5463   26.8849 C   0  0  0  0  0  0  0  0  0  0  0  0
    8.2098  -13.9186   26.8579 C   0  0  0  0  0  0  0  0  0  0  0  0
    7.2165  -16.7842   24.1949 C   0  0  0  0  0  0  0  0  0  0  0  0
    7.6293  -17.9122   23.8220 O   0  0  0  0  0  0  0  0  0  0  0  0
    7.1549  -12.2841   20.9855 C   0  0  0  0  0  0  0  0  0  0  0  0
    6.9795  -13.7314   21.3805 C   0  0  0  0  0  0  0  0  0  0  0  0
    8.3671  -14.3141   21.5937 C   0  0  2  0  0  0  0  0  0  0  0  0
    9.0712  -14.2223   20.2736 C   0  0  0  0  0  0  0  0  0  0  0  0
    8.2806  -15.7244   22.1422 C   0  0  2  0  0  0  0  0  0  0  0  0
    7.5552  -15.6582   23.4243 N   0  0  0  0  0  0  0  0  0  0  0  0
    9.6388  -16.2025   22.4655 C   0  0  0  0  0  0  0  0  0  0  0  0
   10.1772  -15.6486   23.5030 O   0  0  0  0  0  0  0  0  0  0  0  0
   10.3983  -17.1683   21.8022 N   0  0  0  0  0  0  0  0  0  0  0  0
   10.1267  -17.9333   20.5826 C   0  0  0  0  0  0  0  0  0  0  0  0
   10.7395  -19.2921   20.8792 C   0  0  0  0  0  0  0  0  0  0  0  0
   12.0085  -18.9180   21.5726 C   0  0  0  0  0  0  0  0  0  0  0  0
   11.7144  -17.6281   22.2537 C   0  0  1  0  0  0  0  0  0  0  0  0
   12.7657  -16.6475   21.8825 C   0  0  0  0  0  0  0  0  0  0  0  0
   13.9333  -16.6665   22.3453 O   0  0  0  0  0  0  0  0  0  0  0  0
   12.4303  -15.6581   20.9726 O   0  0  0  0  0  0  0  0  0  0  0  0
  2  1  1  1
  3  2  1  0
  4  5  2  0
  4  3  1  0
  6  5  1  0
  7  6  2  0
  8  7  1  0
  8  9  2  0
  9  4  1  0
 10  2  1  0
 11 10  2  0
 13 12  1  0
 14 13  1  0
 14 15  1  6
 16 14  1  0
 16 17  1  1
 17 10  1  0
 18 16  1  0
 19 18  2  0
 20 18  1  0
 21 20  1  0
 22 23  1  0
 22 21  1  0
 23 24  1  0
 24 20  1  0
 24 25  1  6
 25 27  1  0
 26 25  2  0
M  END
$$$$
