FIP.pdb
     RDKit          3D

 27 28  0  0  1  0  0  0  0  0999 V2000
    6.0918  -16.2211   20.9361 N   0  0  0  0  0  0  0  0  0  0  0  0
    7.0540  -15.5559   21.7710 C   0  0  1  0  0  0  0  0  0  0  0  0
    7.1441  -14.0712   21.5144 C   0  0  0  0  0  0  0  0  0  0  0  0
    7.7630  -13.7238   20.2327 C   0  0  0  0  0  0  0  0  0  0  0  0
    9.0774  -14.0273   19.9500 C   0  0  0  0  0  0  0  0  0  0  0  0
    9.6776  -13.7116   18.7567 C   0  0  0  0  0  0  0  0  0  0  0  0
    8.9076  -13.0583   17.8087 C   0  0  0  0  0  0  0  0  0  0  0  0
    7.6000  -12.7470   18.0679 C   0  0  0  0  0  0  0  0  0  0  0  0
    7.0164  -13.0713   19.2688 C   0  0  0  0  0  0  0  0  0  0  0  0
    6.9141  -15.8918   23.2032 C   0  0  0  0  0  0  0  0  0  0  0  0
    5.8325  -15.5802   23.7643 O   0  0  0  0  0  0  0  0  0  0  0  0
    6.5167  -20.3927   25.0537 C   0  0  0  0  0  0  0  0  0  0  0  0
    6.4964  -18.8954   24.8555 C   0  0  0  0  0  0  0  0  0  0  0  0
    7.7151  -18.3281   25.5650 C   0  0  2  0  0  0  0  0  0  0  0  0
    7.6237  -18.7823   26.9904 C   0  0  0  0  0  0  0  0  0  0  0  0
    7.7774  -16.8219   25.4075 C   0  0  2  0  0  0  0  0  0  0  0  0
    7.9058  -16.5312   23.9675 N   0  0  0  0  0  0  0  0  0  0  0  0
    9.0139  -16.3197   26.0374 C   0  0  0  0  0  0  0  0  0  0  0  0
   10.1056  -16.8498   25.5901 O   0  0  0  0  0  0  0  0  0  0  0  0
    9.1466  -15.3536   27.0367 N   0  0  0  0  0  0  0  0  0  0  0  0
    8.1434  -14.5301   27.7163 C   0  0  0  0  0  0  0  0  0  0  0  0
    8.8607  -13.2062   27.9232 C   0  0  0  0  0  0  0  0  0  0  0  0
   10.2319  -13.6514   28.3141 C   0  0  0  0  0  0  0  0  0  0  0  0
   10.4273  -14.9576   27.6287 C   0  0  1  0  0  0  0  0  0  0  0  0
   10.8691  -15.9571   28.6339 C   0  0  0  0  0  0  0  0  0  0  0  0
   10.1680  -16.9306   29.0057 O   0  0  0  0  0  0  0  0  0  0  0  0
   12.1288  -15.7984   29.1883 O   0  0  0  0  0  0  0  0  0  0  0  0
  2  1  1  6
  3  2  1  0
  4  5  2  0
  4  3  1  0
  6  5  1  0
  7  6  2  0
  8  7  1  0
  8  9  2  0
  9  4  1  0
 10  2  1  0
 11 10  2  0
 13 12  1  0
 14 13  1  0
 14 15  1  1
 16 14  1  0
 16 17  1  6
 17 10  1  0
 18 16  1  0
 19 18  2  0
 20 18  1  0
 21 20  1  0
 22 23  1  0
 22 21  1  0
 23 24  1  0
 24 20  1  0
 24 25  1  1
 25 27  1  0
 26 25  2  0
M  END
$$$$
