FIP.pdb
     RDKit          3D

 27 28  0  0  1  0  0  0  0  0999 V2000
    6.0181  -16.9397   26.2818 N   0  0  0  0  0  0  0  0  0  0  0  0
    7.1383  -16.2095   25.7550 C   0  0  1  0  0  0  0  0  0  0  0  0
    8.4030  -16.3920   26.5586 C   0  0  0  0  0  0  0  0  0  0  0  0
    8.8262  -15.1925   27.2856 C   0  0  0  0  0  0  0  0  0  0  0  0
    8.1297  -14.0059   27.2054 C   0  0  0  0  0  0  0  0  0  0  0  0
    8.5076  -12.8703   27.8773 C   0  0  0  0  0  0  0  0  0  0  0  0
    9.6441  -12.9442   28.6658 C   0  0  0  0  0  0  0  0  0  0  0  0
   10.3513  -14.1124   28.7602 C   0  0  0  0  0  0  0  0  0  0  0  0
    9.9572  -15.2392   28.0798 C   0  0  0  0  0  0  0  0  0  0  0  0
    7.3358  -16.4116   24.3046 C   0  0  0  0  0  0  0  0  0  0  0  0
    6.9940  -17.5237   23.8268 O   0  0  0  0  0  0  0  0  0  0  0  0
    7.1733  -12.0764   21.1497 C   0  0  0  0  0  0  0  0  0  0  0  0
    6.8998  -13.4989   21.5778 C   0  0  0  0  0  0  0  0  0  0  0  0
    8.1712  -14.2966   21.3374 C   0  0  2  0  0  0  0  0  0  0  0  0
    8.3606  -14.3519   19.8516 C   0  0  0  0  0  0  0  0  0  0  0  0
    8.0831  -15.6606   21.9923 C   0  0  2  0  0  0  0  0  0  0  0  0
    7.8765  -15.4469   23.4367 N   0  0  0  0  0  0  0  0  0  0  0  0
    9.3841  -16.3451   21.8627 C   0  0  0  0  0  0  0  0  0  0  0  0
   10.3176  -15.8880   22.6325 O   0  0  0  0  0  0  0  0  0  0  0  0
    9.7224  -17.4122   21.0282 N   0  0  0  0  0  0  0  0  0  0  0  0
    8.9252  -18.1582   20.0513 C   0  0  0  0  0  0  0  0  0  0  0  0
    9.4487  -19.5787   20.1856 C   0  0  0  0  0  0  0  0  0  0  0  0
   10.9190  -19.3578   20.3285 C   0  0  0  0  0  0  0  0  0  0  0  0
   11.0511  -18.0287   20.9842 C   0  0  1  0  0  0  0  0  0  0  0  0
   11.9859  -17.1980   20.1838 C   0  0  0  0  0  0  0  0  0  0  0  0
   11.6233  -16.2326   19.4667 O   0  0  0  0  0  0  0  0  0  0  0  0
   13.3339  -17.5133   20.2373 O   0  0  0  0  0  0  0  0  0  0  0  0
  2  1  1  1
  3  2  1  0
  4  5  2  0
  4  3  1  0
  6  5  1  0
  7  6  2  0
  8  7  1  0
  8  9  2  0
  9  4  1  0
 10  2  1  0
 11 10  2  0
 13 12  1  0
 14 13  1  0
 14 15  1  6
 16 14  1  0
 16 17  1  1
 17 10  1  0
 18 16  1  0
 19 18  2  0
 20 18  1  0
 21 20  1  0
 22 23  1  0
 22 21  1  0
 23 24  1  0
 24 20  1  0
 24 25  1  6
 25 27  1  0
 26 25  2  0
M  END
$$$$
