FIP.pdb
     RDKit          3D

 27 28  0  0  1  0  0  0  0  0999 V2000
    3.5575  -18.0697   24.7364 N   0  0  0  0  0  0  0  0  0  0  0  0
    4.9309  -18.3789   24.4471 C   0  0  1  0  0  0  0  0  0  0  0  0
    5.0946  -19.4901   23.4387 C   0  0  0  0  0  0  0  0  0  0  0  0
    6.4758  -19.9518   23.2786 C   0  0  0  0  0  0  0  0  0  0  0  0
    7.5181  -19.3987   23.9908 C   0  0  0  0  0  0  0  0  0  0  0  0
    8.8191  -19.8152   23.8570 C   0  0  0  0  0  0  0  0  0  0  0  0
    9.0717  -20.8393   22.9592 C   0  0  0  0  0  0  0  0  0  0  0  0
    8.0518  -21.4032   22.2412 C   0  0  0  0  0  0  0  0  0  0  0  0
    6.7554  -20.9727   22.3889 C   0  0  0  0  0  0  0  0  0  0  0  0
    5.7439  -17.1851   24.1350 C   0  0  0  0  0  0  0  0  0  0  0  0
    5.6672  -16.7260   22.9665 O   0  0  0  0  0  0  0  0  0  0  0  0
    6.2360  -13.2055   27.7508 C   0  0  0  0  0  0  0  0  0  0  0  0
    6.0626  -13.9346   26.4393 C   0  0  0  0  0  0  0  0  0  0  0  0
    7.4174  -14.5082   26.0574 C   0  0  2  0  0  0  0  0  0  0  0  0
    8.3639  -13.3478   25.9907 C   0  0  0  0  0  0  0  0  0  0  0  0
    7.3245  -15.2946   24.7651 C   0  0  2  0  0  0  0  0  0  0  0  0
    6.5882  -16.5390   25.0548 N   0  0  0  0  0  0  0  0  0  0  0  0
    8.6793  -15.7085   24.3514 C   0  0  0  0  0  0  0  0  0  0  0  0
    9.2280  -16.6042   25.1063 O   0  0  0  0  0  0  0  0  0  0  0  0
    9.4259  -15.2626   23.2591 N   0  0  0  0  0  0  0  0  0  0  0  0
    9.2419  -14.1075   22.3768 C   0  0  0  0  0  0  0  0  0  0  0  0
    9.6875  -14.6298   21.0208 C   0  0  0  0  0  0  0  0  0  0  0  0
   10.8877  -15.4438   21.3784 C   0  0  0  0  0  0  0  0  0  0  0  0
   10.6279  -15.9351   22.7587 C   0  0  1  0  0  0  0  0  0  0  0  0
   11.8017  -15.6056   23.6061 C   0  0  0  0  0  0  0  0  0  0  0  0
   12.9503  -16.0799   23.4234 O   0  0  0  0  0  0  0  0  0  0  0  0
   11.6093  -14.7230   24.6566 O   0  0  0  0  0  0  0  0  0  0  0  0
  2  1  1  6
  3  2  1  0
  4  5  2  0
  4  3  1  0
  6  5  1  0
  7  6  2  0
  8  7  1  0
  8  9  2  0
  9  4  1  0
 10  2  1  0
 11 10  2  0
 13 12  1  0
 14 13  1  0
 14 15  1  6
 16 14  1  0
 16 17  1  1
 17 10  1  0
 18 16  1  0
 19 18  2  0
 20 18  1  0
 21 20  1  0
 22 23  1  0
 22 21  1  0
 23 24  1  0
 24 20  1  0
 24 25  1  1
 25 27  1  0
 26 25  2  0
M  END
$$$$
