FIP.pdb
     RDKit          3D

 27 28  0  0  1  0  0  0  0  0999 V2000
    5.5694  -17.5882   25.5732 N   0  0  0  0  0  0  0  0  0  0  0  0
    6.2986  -16.3781   25.3098 C   0  0  1  0  0  0  0  0  0  0  0  0
    6.9610  -15.7995   26.5366 C   0  0  0  0  0  0  0  0  0  0  0  0
    6.8135  -14.3476   26.6655 C   0  0  0  0  0  0  0  0  0  0  0  0
    5.5802  -13.7330   26.6356 C   0  0  0  0  0  0  0  0  0  0  0  0
    5.4184  -12.3752   26.7545 C   0  0  0  0  0  0  0  0  0  0  0  0
    6.5611  -11.6081   26.9107 C   0  0  0  0  0  0  0  0  0  0  0  0
    7.7963  -12.1972   26.9432 C   0  0  0  0  0  0  0  0  0  0  0  0
    7.9382  -13.5586   26.8226 C   0  0  0  0  0  0  0  0  0  0  0  0
    7.2108  -16.4874   24.1524 C   0  0  0  0  0  0  0  0  0  0  0  0
    7.7562  -17.6030   23.9529 O   0  0  0  0  0  0  0  0  0  0  0  0
    7.1203  -12.3080   20.5939 C   0  0  0  0  0  0  0  0  0  0  0  0
    7.0246  -13.7597   21.0001 C   0  0  0  0  0  0  0  0  0  0  0  0
    8.4189  -14.2097   21.4046 C   0  0  2  0  0  0  0  0  0  0  0  0
    9.2472  -14.1930   20.1554 C   0  0  0  0  0  0  0  0  0  0  0  0
    8.3716  -15.5622   22.0871 C   0  0  2  0  0  0  0  0  0  0  0  0
    7.5024  -15.4316   23.2711 N   0  0  0  0  0  0  0  0  0  0  0  0
    9.7149  -15.8928   22.6010 C   0  0  0  0  0  0  0  0  0  0  0  0
   10.1320  -15.1321   23.5604 O   0  0  0  0  0  0  0  0  0  0  0  0
   10.5736  -16.9135   22.1882 N   0  0  0  0  0  0  0  0  0  0  0  0
   10.4009  -17.9675   21.1854 C   0  0  0  0  0  0  0  0  0  0  0  0
   11.1259  -19.1544   21.7983 C   0  0  0  0  0  0  0  0  0  0  0  0
   12.3392  -18.5106   22.3852 C   0  0  0  0  0  0  0  0  0  0  0  0
   11.9144  -17.1291   22.7388 C   0  0  1  0  0  0  0  0  0  0  0  0
   12.8822  -16.1712   22.1468 C   0  0  0  0  0  0  0  0  0  0  0  0
   14.0090  -15.9209   22.6422 O   0  0  0  0  0  0  0  0  0  0  0  0
   12.5123  -15.5208   20.9809 O   0  0  0  0  0  0  0  0  0  0  0  0
  2  1  1  1
  3  2  1  0
  4  5  2  0
  4  3  1  0
  6  5  1  0
  7  6  2  0
  8  7  1  0
  8  9  2  0
  9  4  1  0
 10  2  1  0
 11 10  2  0
 13 12  1  0
 14 13  1  0
 14 15  1  6
 16 14  1  0
 16 17  1  1
 17 10  1  0
 18 16  1  0
 19 18  2  0
 20 18  1  0
 21 20  1  0
 22 23  1  0
 22 21  1  0
 23 24  1  0
 24 20  1  0
 24 25  1  6
 25 27  1  0
 26 25  2  0
M  END
$$$$
