FIP.pdb
     RDKit          3D

 27 28  0  0  1  0  0  0  0  0999 V2000
    5.4812  -17.8470   25.4728 N   0  0  0  0  0  0  0  0  0  0  0  0
    6.2199  -16.6295   25.2788 C   0  0  1  0  0  0  0  0  0  0  0  0
    6.8535  -16.1058   26.5447 C   0  0  0  0  0  0  0  0  0  0  0  0
    6.9736  -14.6464   26.5922 C   0  0  0  0  0  0  0  0  0  0  0  0
    5.8804  -13.8185   26.4531 C   0  0  0  0  0  0  0  0  0  0  0  0
    5.9694  -12.4495   26.4942 C   0  0  0  0  0  0  0  0  0  0  0  0
    7.2253  -11.8975   26.6854 C   0  0  0  0  0  0  0  0  0  0  0  0
    8.3249  -12.7006   26.8260 C   0  0  0  0  0  0  0  0  0  0  0  0
    8.2159  -14.0696   26.7819 C   0  0  0  0  0  0  0  0  0  0  0  0
    7.1598  -16.6931   24.1404 C   0  0  0  0  0  0  0  0  0  0  0  0
    7.7494  -17.7861   23.9413 O   0  0  0  0  0  0  0  0  0  0  0  0
    7.2349  -12.3741   20.6350 C   0  0  0  0  0  0  0  0  0  0  0  0
    7.0670  -13.8180   21.0457 C   0  0  0  0  0  0  0  0  0  0  0  0
    8.4267  -14.3195   21.5041 C   0  0  2  0  0  0  0  0  0  0  0  0
    9.3290  -14.2456   20.3095 C   0  0  0  0  0  0  0  0  0  0  0  0
    8.3156  -15.7089   22.0996 C   0  0  2  0  0  0  0  0  0  0  0  0
    7.4317  -15.6179   23.2765 N   0  0  0  0  0  0  0  0  0  0  0  0
    9.6361  -16.1235   22.6116 C   0  0  0  0  0  0  0  0  0  0  0  0
   10.0322  -15.4913   23.6682 O   0  0  0  0  0  0  0  0  0  0  0  0
   10.4930  -17.1031   22.1059 N   0  0  0  0  0  0  0  0  0  0  0  0
   10.3130  -18.0690   21.0191 C   0  0  0  0  0  0  0  0  0  0  0  0
   11.0462  -19.3014   21.5226 C   0  0  0  0  0  0  0  0  0  0  0  0
   12.2637  -18.7061   22.1505 C   0  0  0  0  0  0  0  0  0  0  0  0
   11.8394  -17.3607   22.6238 C   0  0  1  0  0  0  0  0  0  0  0  0
   12.7995  -16.3534   22.1061 C   0  0  0  0  0  0  0  0  0  0  0  0
   12.5395  -15.5571   21.1702 O   0  0  0  0  0  0  0  0  0  0  0  0
   14.0519  -16.2958   22.6956 O   0  0  0  0  0  0  0  0  0  0  0  0
  2  1  1  1
  3  2  1  0
  4  5  2  0
  4  3  1  0
  6  5  1  0
  7  6  2  0
  8  7  1  0
  8  9  2  0
  9  4  1  0
 10  2  1  0
 11 10  2  0
 13 12  1  0
 14 13  1  0
 14 15  1  6
 16 14  1  0
 16 17  1  1
 17 10  1  0
 18 16  1  0
 19 18  2  0
 20 18  1  0
 21 20  1  0
 22 23  1  0
 22 21  1  0
 23 24  1  0
 24 20  1  0
 24 25  1  6
 25 27  1  0
 26 25  2  0
M  END
$$$$
