FIP.pdb
     RDKit          3D

 27 28  0  0  1  0  0  0  0  0999 V2000
    6.9652  -19.2693   27.1714 N   0  0  0  0  0  0  0  0  0  0  0  0
    7.6351  -18.0075   27.3292 C   0  0  1  0  0  0  0  0  0  0  0  0
    9.0653  -18.1432   27.7926 C   0  0  0  0  0  0  0  0  0  0  0  0
    9.6394  -16.9054   28.3263 C   0  0  0  0  0  0  0  0  0  0  0  0
    9.2121  -16.3554   29.5157 C   0  0  0  0  0  0  0  0  0  0  0  0
    9.7353  -15.1973   30.0345 C   0  0  0  0  0  0  0  0  0  0  0  0
   10.7374  -14.5707   29.3122 C   0  0  0  0  0  0  0  0  0  0  0  0
   11.1773  -15.0992   28.1286 C   0  0  0  0  0  0  0  0  0  0  0  0
   10.6411  -16.2597   27.6251 C   0  0  0  0  0  0  0  0  0  0  0  0
    7.4839  -17.1171   26.1597 C   0  0  0  0  0  0  0  0  0  0  0  0
    7.4885  -17.6547   25.0227 O   0  0  0  0  0  0  0  0  0  0  0  0
    6.6678  -11.5850   26.9643 C   0  0  0  0  0  0  0  0  0  0  0  0
    6.3017  -12.9591   26.4550 C   0  0  0  0  0  0  0  0  0  0  0  0
    7.4241  -13.4158   25.5373 C   0  0  2  0  0  0  0  0  0  0  0  0
    7.4910  -12.4165   24.4222 C   0  0  0  0  0  0  0  0  0  0  0  0
    7.1913  -14.8383   25.0685 C   0  0  2  0  0  0  0  0  0  0  0  0
    7.3371  -15.7212   26.2405 N   0  0  0  0  0  0  0  0  0  0  0  0
    8.2657  -15.2216   24.1322 C   0  0  0  0  0  0  0  0  0  0  0  0
    9.3895  -15.5323   24.6924 O   0  0  0  0  0  0  0  0  0  0  0  0
    8.2157  -15.2942   22.7387 N   0  0  0  0  0  0  0  0  0  0  0  0
    7.1924  -14.8488   21.7896 C   0  0  0  0  0  0  0  0  0  0  0  0
    7.2298  -15.9172   20.7093 C   0  0  0  0  0  0  0  0  0  0  0  0
    8.6956  -16.1672   20.5675 C   0  0  0  0  0  0  0  0  0  0  0  0
    9.2705  -15.8850   21.9106 C   0  0  1  0  0  0  0  0  0  0  0  0
   10.4016  -14.9366   21.7505 C   0  0  0  0  0  0  0  0  0  0  0  0
   10.3600  -13.7333   22.1083 O   0  0  0  0  0  0  0  0  0  0  0  0
   11.5658  -15.4155   21.1722 O   0  0  0  0  0  0  0  0  0  0  0  0
  2  1  1  6
  3  2  1  0
  4  5  2  0
  4  3  1  0
  6  5  1  0
  7  6  2  0
  8  7  1  0
  8  9  2  0
  9  4  1  0
 10  2  1  0
 11 10  2  0
 13 12  1  0
 14 13  1  0
 14 15  1  6
 16 14  1  0
 16 17  1  1
 17 10  1  0
 18 16  1  0
 19 18  2  0
 20 18  1  0
 21 20  1  0
 22 23  1  0
 22 21  1  0
 23 24  1  0
 24 20  1  0
 24 25  1  6
 25 27  1  0
 26 25  2  0
M  END
$$$$
