FIP.pdb
     RDKit          3D

 27 28  0  0  1  0  0  0  0  0999 V2000
    5.3766  -17.4081   25.5230 N   0  0  0  0  0  0  0  0  0  0  0  0
    6.2383  -16.2893   25.2558 C   0  0  1  0  0  0  0  0  0  0  0  0
    7.0206  -15.8346   26.4640 C   0  0  0  0  0  0  0  0  0  0  0  0
    7.0874  -14.3792   26.6183 C   0  0  0  0  0  0  0  0  0  0  0  0
    8.2861  -13.7140   26.7616 C   0  0  0  0  0  0  0  0  0  0  0  0
    8.3724  -12.3519   26.9075 C   0  0  0  0  0  0  0  0  0  0  0  0
    7.1877  -11.6342   26.9077 C   0  0  0  0  0  0  0  0  0  0  0  0
    5.9859  -12.2741   26.7668 C   0  0  0  0  0  0  0  0  0  0  0  0
    5.9196  -13.6388   26.6219 C   0  0  0  0  0  0  0  0  0  0  0  0
    7.0780  -16.4743   24.0542 C   0  0  0  0  0  0  0  0  0  0  0  0
    7.5598  -17.6197   23.8596 O   0  0  0  0  0  0  0  0  0  0  0  0
    7.1582  -12.4005   20.2819 C   0  0  0  0  0  0  0  0  0  0  0  0
    6.9847  -13.8167   20.7775 C   0  0  0  0  0  0  0  0  0  0  0  0
    8.3457  -14.3014   21.2497 C   0  0  2  0  0  0  0  0  0  0  0  0
    9.2298  -14.3227   20.0395 C   0  0  0  0  0  0  0  0  0  0  0  0
    8.2286  -15.6440   21.9432 C   0  0  2  0  0  0  0  0  0  0  0  0
    7.3677  -15.4588   23.1261 N   0  0  0  0  0  0  0  0  0  0  0  0
    9.5531  -16.0396   22.4599 C   0  0  0  0  0  0  0  0  0  0  0  0
    9.9572  -15.3688   23.4894 O   0  0  0  0  0  0  0  0  0  0  0  0
   10.4063  -17.0372   21.9840 N   0  0  0  0  0  0  0  0  0  0  0  0
   10.2263  -18.0284   20.9203 C   0  0  0  0  0  0  0  0  0  0  0  0
   10.9478  -19.2529   21.4587 C   0  0  0  0  0  0  0  0  0  0  0  0
   12.1655  -18.6505   22.0795 C   0  0  0  0  0  0  0  0  0  0  0  0
   11.7476  -17.2910   22.5167 C   0  0  1  0  0  0  0  0  0  0  0  0
   12.7179  -16.3033   21.9804 C   0  0  0  0  0  0  0  0  0  0  0  0
   12.5095  -15.6037   20.9583 O   0  0  0  0  0  0  0  0  0  0  0  0
   13.9197  -16.1516   22.6528 O   0  0  0  0  0  0  0  0  0  0  0  0
  2  1  1  1
  3  2  1  0
  4  5  2  0
  4  3  1  0
  6  5  1  0
  7  6  2  0
  8  7  1  0
  8  9  2  0
  9  4  1  0
 10  2  1  0
 11 10  2  0
 13 12  1  0
 14 13  1  0
 14 15  1  6
 16 14  1  0
 16 17  1  1
 17 10  1  0
 18 16  1  0
 19 18  2  0
 20 18  1  0
 21 20  1  0
 22 23  1  0
 22 21  1  0
 23 24  1  0
 24 20  1  0
 24 25  1  6
 25 27  1  0
 26 25  2  0
M  END
$$$$
