FIP.pdb
     RDKit          3D

 27 28  0  0  1  0  0  0  0  0999 V2000
    7.4399  -19.3585   27.1459 N   0  0  0  0  0  0  0  0  0  0  0  0
    7.9369  -18.0220   27.3260 C   0  0  1  0  0  0  0  0  0  0  0  0
    9.3458  -17.9751   27.8657 C   0  0  0  0  0  0  0  0  0  0  0  0
    9.6707  -16.7371   28.5785 C   0  0  0  0  0  0  0  0  0  0  0  0
    9.4882  -16.6077   29.9386 C   0  0  0  0  0  0  0  0  0  0  0  0
    9.7855  -15.4579   30.6267 C   0  0  0  0  0  0  0  0  0  0  0  0
   10.2908  -14.3924   29.9002 C   0  0  0  0  0  0  0  0  0  0  0  0
   10.4803  -14.4986   28.5486 C   0  0  0  0  0  0  0  0  0  0  0  0
   10.1766  -15.6582   27.8770 C   0  0  0  0  0  0  0  0  0  0  0  0
    7.7383  -17.1616   26.1413 C   0  0  0  0  0  0  0  0  0  0  0  0
    7.6047  -17.7347   25.0297 O   0  0  0  0  0  0  0  0  0  0  0  0
    6.8070  -11.7305   27.0452 C   0  0  0  0  0  0  0  0  0  0  0  0
    6.4541  -13.1077   26.5350 C   0  0  0  0  0  0  0  0  0  0  0  0
    7.4677  -13.4662   25.4606 C   0  0  2  0  0  0  0  0  0  0  0  0
    7.2681  -12.4834   24.3467 C   0  0  0  0  0  0  0  0  0  0  0  0
    7.3114  -14.9121   25.0336 C   0  0  2  0  0  0  0  0  0  0  0  0
    7.6903  -15.7571   26.1812 N   0  0  0  0  0  0  0  0  0  0  0  0
    8.2868  -15.2104   23.9671 C   0  0  0  0  0  0  0  0  0  0  0  0
    9.4939  -15.4253   24.3793 O   0  0  0  0  0  0  0  0  0  0  0  0
    8.0675  -15.2933   22.5907 N   0  0  0  0  0  0  0  0  0  0  0  0
    6.9361  -14.8543   21.7699 C   0  0  0  0  0  0  0  0  0  0  0  0
    6.8419  -15.9309   20.7012 C   0  0  0  0  0  0  0  0  0  0  0  0
    8.2795  -16.1828   20.3837 C   0  0  0  0  0  0  0  0  0  0  0  0
    9.0136  -15.8911   21.6447 C   0  0  1  0  0  0  0  0  0  0  0  0
   10.1166  -14.9446   21.3410 C   0  0  0  0  0  0  0  0  0  0  0  0
   10.1041  -13.7309   21.6638 O   0  0  0  0  0  0  0  0  0  0  0  0
   11.2190  -15.4379   20.6621 O   0  0  0  0  0  0  0  0  0  0  0  0
  2  1  1  6
  3  2  1  0
  4  5  2  0
  4  3  1  0
  6  5  1  0
  7  6  2  0
  8  7  1  0
  8  9  2  0
  9  4  1  0
 10  2  1  0
 11 10  2  0
 13 12  1  0
 14 13  1  0
 14 15  1  6
 16 14  1  0
 16 17  1  1
 17 10  1  0
 18 16  1  0
 19 18  2  0
 20 18  1  0
 21 20  1  0
 22 23  1  0
 22 21  1  0
 23 24  1  0
 24 20  1  0
 24 25  1  6
 25 27  1  0
 26 25  2  0
M  END
$$$$
