FIP.pdb
     RDKit          3D

 27 28  0  0  1  0  0  0  0  0999 V2000
    5.9323  -18.2316   26.0298 N   0  0  0  0  0  0  0  0  0  0  0  0
    6.4519  -16.9444   25.6571 C   0  0  1  0  0  0  0  0  0  0  0  0
    7.3313  -16.3247   26.7159 C   0  0  0  0  0  0  0  0  0  0  0  0
    7.2886  -14.8605   26.7449 C   0  0  0  0  0  0  0  0  0  0  0  0
    6.1313  -14.1581   26.4859 C   0  0  0  0  0  0  0  0  0  0  0  0
    6.0682  -12.7872   26.5074 C   0  0  0  0  0  0  0  0  0  0  0  0
    7.2332  -12.0998   26.8054 C   0  0  0  0  0  0  0  0  0  0  0  0
    8.3940  -12.7768   27.0659 C   0  0  0  0  0  0  0  0  0  0  0  0
    8.4376  -14.1499   27.0396 C   0  0  0  0  0  0  0  0  0  0  0  0
    7.0622  -16.9296   24.3115 C   0  0  0  0  0  0  0  0  0  0  0  0
    7.3584  -18.0406   23.8017 O   0  0  0  0  0  0  0  0  0  0  0  0
    6.8404  -12.1714   21.5809 C   0  0  0  0  0  0  0  0  0  0  0  0
    6.6507  -13.6277   21.9338 C   0  0  0  0  0  0  0  0  0  0  0  0
    7.9968  -14.3135   21.7662 C   0  0  2  0  0  0  0  0  0  0  0  0
    8.3727  -14.1593   20.3235 C   0  0  0  0  0  0  0  0  0  0  0  0
    7.9278  -15.7556   22.2278 C   0  0  2  0  0  0  0  0  0  0  0  0
    7.3288  -15.7620   23.5753 N   0  0  0  0  0  0  0  0  0  0  0  0
    9.2982  -16.2791   22.3876 C   0  0  0  0  0  0  0  0  0  0  0  0
    9.9155  -15.8712   23.4485 O   0  0  0  0  0  0  0  0  0  0  0  0
    9.9957  -17.1515   21.5497 N   0  0  0  0  0  0  0  0  0  0  0  0
    9.6383  -17.7276   20.2509 C   0  0  0  0  0  0  0  0  0  0  0  0
   10.2326  -19.1251   20.3137 C   0  0  0  0  0  0  0  0  0  0  0  0
   11.5468  -18.8763   20.9786 C   0  0  0  0  0  0  0  0  0  0  0  0
   11.3229  -17.6936   21.8534 C   0  0  1  0  0  0  0  0  0  0  0  0
   12.3762  -16.6873   21.5660 C   0  0  0  0  0  0  0  0  0  0  0  0
   13.5681  -16.7957   21.9470 O   0  0  0  0  0  0  0  0  0  0  0  0
   12.0141  -15.5677   20.8349 O   0  0  0  0  0  0  0  0  0  0  0  0
  2  1  1  1
  3  2  1  0
  4  5  2  0
  4  3  1  0
  6  5  1  0
  7  6  2  0
  8  7  1  0
  8  9  2  0
  9  4  1  0
 10  2  1  0
 11 10  2  0
 13 12  1  0
 14 13  1  0
 14 15  1  6
 16 14  1  0
 16 17  1  1
 17 10  1  0
 18 16  1  0
 19 18  2  0
 20 18  1  0
 21 20  1  0
 22 23  1  0
 22 21  1  0
 23 24  1  0
 24 20  1  0
 24 25  1  6
 25 27  1  0
 26 25  2  0
M  END
$$$$
