FIP.pdb
     RDKit          3D

 27 28  0  0  1  0  0  0  0  0999 V2000
    6.5881  -19.0845   27.5277 N   0  0  0  0  0  0  0  0  0  0  0  0
    7.3732  -17.8813   27.4897 C   0  0  1  0  0  0  0  0  0  0  0  0
    8.8290  -18.1060   27.8194 C   0  0  0  0  0  0  0  0  0  0  0  0
    9.5680  -16.8784   28.1245 C   0  0  0  0  0  0  0  0  0  0  0  0
    9.3944  -16.1966   29.3097 C   0  0  0  0  0  0  0  0  0  0  0  0
   10.0756  -15.0452   29.6166 C   0  0  0  0  0  0  0  0  0  0  0  0
   10.9731  -14.5655   28.6769 C   0  0  0  0  0  0  0  0  0  0  0  0
   11.1615  -15.2264   27.4930 C   0  0  0  0  0  0  0  0  0  0  0  0
   10.4701  -16.3780   27.2037 C   0  0  0  0  0  0  0  0  0  0  0  0
    7.1705  -17.0917   26.2573 C   0  0  0  0  0  0  0  0  0  0  0  0
    6.9944  -17.7295   25.1877 O   0  0  0  0  0  0  0  0  0  0  0  0
    6.1233  -11.5868   26.6037 C   0  0  0  0  0  0  0  0  0  0  0  0
    5.9062  -13.0259   26.1995 C   0  0  0  0  0  0  0  0  0  0  0  0
    7.0895  -13.4382   25.3393 C   0  0  2  0  0  0  0  0  0  0  0  0
    7.0939  -12.5168   24.1571 C   0  0  0  0  0  0  0  0  0  0  0  0
    7.0008  -14.9053   24.9688 C   0  0  2  0  0  0  0  0  0  0  0  0
    7.1629  -15.6867   26.2088 N   0  0  0  0  0  0  0  0  0  0  0  0
    8.1482  -15.2584   24.1106 C   0  0  0  0  0  0  0  0  0  0  0  0
    9.2447  -15.5141   24.7474 O   0  0  0  0  0  0  0  0  0  0  0  0
    8.1919  -15.3542   22.7183 N   0  0  0  0  0  0  0  0  0  0  0  0
    7.2431  -14.9092   21.6944 C   0  0  0  0  0  0  0  0  0  0  0  0
    7.3358  -15.9966   20.6366 C   0  0  0  0  0  0  0  0  0  0  0  0
    8.8035  -16.2719   20.5992 C   0  0  0  0  0  0  0  0  0  0  0  0
    9.2904  -15.9757   21.9737 C   0  0  1  0  0  0  0  0  0  0  0  0
   10.4455  -15.0480   21.8759 C   0  0  0  0  0  0  0  0  0  0  0  0
   10.4123  -13.8494   22.2499 O   0  0  0  0  0  0  0  0  0  0  0  0
   11.6238  -15.5419   21.3400 O   0  0  0  0  0  0  0  0  0  0  0  0
  2  1  1  6
  3  2  1  0
  4  5  2  0
  4  3  1  0
  6  5  1  0
  7  6  2  0
  8  7  1  0
  8  9  2  0
  9  4  1  0
 10  2  1  0
 11 10  2  0
 13 12  1  0
 14 13  1  0
 14 15  1  6
 16 14  1  0
 16 17  1  1
 17 10  1  0
 18 16  1  0
 19 18  2  0
 20 18  1  0
 21 20  1  0
 22 23  1  0
 22 21  1  0
 23 24  1  0
 24 20  1  0
 24 25  1  6
 25 27  1  0
 26 25  2  0
M  END
$$$$
