FIP.pdb
     RDKit          3D

 27 28  0  0  1  0  0  0  0  0999 V2000
    6.8062  -19.0712   27.6569 N   0  0  0  0  0  0  0  0  0  0  0  0
    7.5408  -17.8382   27.5819 C   0  0  1  0  0  0  0  0  0  0  0  0
    9.0046  -17.9923   27.9165 C   0  0  0  0  0  0  0  0  0  0  0  0
    9.7135  -16.7222   28.0918 C   0  0  0  0  0  0  0  0  0  0  0  0
   10.3818  -16.1092   27.0538 C   0  0  0  0  0  0  0  0  0  0  0  0
   11.0522  -14.9199   27.1950 C   0  0  0  0  0  0  0  0  0  0  0  0
   11.0429  -14.3274   28.4470 C   0  0  0  0  0  0  0  0  0  0  0  0
   10.3856  -14.9183   29.4922 C   0  0  0  0  0  0  0  0  0  0  0  0
    9.7198  -16.1095   29.3314 C   0  0  0  0  0  0  0  0  0  0  0  0
    7.3056  -17.0950   26.3266 C   0  0  0  0  0  0  0  0  0  0  0  0
    7.0056  -17.7678   25.3071 O   0  0  0  0  0  0  0  0  0  0  0  0
    6.0842  -11.6592   26.5018 C   0  0  0  0  0  0  0  0  0  0  0  0
    5.9333  -13.1088   26.1049 C   0  0  0  0  0  0  0  0  0  0  0  0
    7.1547  -13.4824   25.2810 C   0  0  2  0  0  0  0  0  0  0  0  0
    7.1377  -12.5944   24.0736 C   0  0  0  0  0  0  0  0  0  0  0  0
    7.1496  -14.9616   24.9505 C   0  0  2  0  0  0  0  0  0  0  0  0
    7.3960  -15.6974   26.2045 N   0  0  0  0  0  0  0  0  0  0  0  0
    8.2927  -15.2647   24.0678 C   0  0  0  0  0  0  0  0  0  0  0  0
    9.4234  -15.4193   24.6766 O   0  0  0  0  0  0  0  0  0  0  0  0
    8.3009  -15.4082   22.6789 N   0  0  0  0  0  0  0  0  0  0  0  0
    7.3284  -14.9938   21.6645 C   0  0  0  0  0  0  0  0  0  0  0  0
    7.3900  -16.1172   20.6426 C   0  0  0  0  0  0  0  0  0  0  0  0
    8.8551  -16.4008   20.5779 C   0  0  0  0  0  0  0  0  0  0  0  0
    9.3777  -16.0602   21.9288 C   0  0  1  0  0  0  0  0  0  0  0  0
   10.5338  -15.1421   21.7703 C   0  0  0  0  0  0  0  0  0  0  0  0
   11.6673  -15.5087   21.3722 O   0  0  0  0  0  0  0  0  0  0  0  0
   10.3417  -13.8060   22.0820 O   0  0  0  0  0  0  0  0  0  0  0  0
  2  1  1  6
  3  2  1  0
  4  5  2  0
  4  3  1  0
  6  5  1  0
  7  6  2  0
  8  7  1  0
  8  9  2  0
  9  4  1  0
 10  2  1  0
 11 10  2  0
 13 12  1  0
 14 13  1  0
 14 15  1  6
 16 14  1  0
 16 17  1  1
 17 10  1  0
 18 16  1  0
 19 18  2  0
 20 18  1  0
 21 20  1  0
 22 23  1  0
 22 21  1  0
 23 24  1  0
 24 20  1  0
 24 25  1  6
 25 27  1  0
 26 25  2  0
M  END
$$$$
