FIP.pdb
     RDKit          3D

 27 28  0  0  1  0  0  0  0  0999 V2000
    6.7928  -19.0794   27.3124 N   0  0  0  0  0  0  0  0  0  0  0  0
    7.4922  -17.8252   27.3709 C   0  0  1  0  0  0  0  0  0  0  0  0
    8.9356  -17.9640   27.7902 C   0  0  0  0  0  0  0  0  0  0  0  0
    9.5547  -16.7084   28.2224 C   0  0  0  0  0  0  0  0  0  0  0  0
   10.3417  -15.9537   27.3793 C   0  0  0  0  0  0  0  0  0  0  0  0
   10.9313  -14.7750   27.7627 C   0  0  0  0  0  0  0  0  0  0  0  0
   10.7111  -14.3443   29.0606 C   0  0  0  0  0  0  0  0  0  0  0  0
    9.9330  -15.0779   29.9151 C   0  0  0  0  0  0  0  0  0  0  0  0
    9.3509  -16.2558   29.5131 C   0  0  0  0  0  0  0  0  0  0  0  0
    7.3151  -17.0018   26.1568 C   0  0  0  0  0  0  0  0  0  0  0  0
    7.2038  -17.6089   25.0610 O   0  0  0  0  0  0  0  0  0  0  0  0
    6.3428  -11.4660   26.6332 C   0  0  0  0  0  0  0  0  0  0  0  0
    6.0600  -12.8766   26.1731 C   0  0  0  0  0  0  0  0  0  0  0  0
    7.2471  -13.3271   25.3375 C   0  0  2  0  0  0  0  0  0  0  0  0
    7.3273  -12.3845   24.1748 C   0  0  0  0  0  0  0  0  0  0  0  0
    7.1017  -14.7811   24.9352 C   0  0  2  0  0  0  0  0  0  0  0  0
    7.2643  -15.5969   26.1528 N   0  0  0  0  0  0  0  0  0  0  0  0
    8.2181  -15.1510   24.0437 C   0  0  0  0  0  0  0  0  0  0  0  0
    9.3163  -15.4662   24.6502 O   0  0  0  0  0  0  0  0  0  0  0  0
    8.2311  -15.2067   22.6486 N   0  0  0  0  0  0  0  0  0  0  0  0
    7.2967  -14.6685   21.6568 C   0  0  0  0  0  0  0  0  0  0  0  0
    7.2981  -15.7267   20.5659 C   0  0  0  0  0  0  0  0  0  0  0  0
    8.7431  -16.0977   20.4920 C   0  0  0  0  0  0  0  0  0  0  0  0
    9.2725  -15.8768   21.8650 C   0  0  1  0  0  0  0  0  0  0  0  0
   10.4853  -15.0253   21.7722 C   0  0  0  0  0  0  0  0  0  0  0  0
   10.5267  -13.8260   22.1430 O   0  0  0  0  0  0  0  0  0  0  0  0
   11.6327  -15.5952   21.2450 O   0  0  0  0  0  0  0  0  0  0  0  0
  2  1  1  6
  3  2  1  0
  4  5  2  0
  4  3  1  0
  6  5  1  0
  7  6  2  0
  8  7  1  0
  8  9  2  0
  9  4  1  0
 10  2  1  0
 11 10  2  0
 13 12  1  0
 14 13  1  0
 14 15  1  6
 16 14  1  0
 16 17  1  1
 17 10  1  0
 18 16  1  0
 19 18  2  0
 20 18  1  0
 21 20  1  0
 22 23  1  0
 22 21  1  0
 23 24  1  0
 24 20  1  0
 24 25  1  6
 25 27  1  0
 26 25  2  0
M  END
$$$$
