FIP.pdb
     RDKit          3D

 27 28  0  0  1  0  0  0  0  0999 V2000
    5.3467  -17.9156   25.3117 N   0  0  0  0  0  0  0  0  0  0  0  0
    6.0523  -16.6671   25.2177 C   0  0  1  0  0  0  0  0  0  0  0  0
    6.6006  -16.1886   26.5402 C   0  0  0  0  0  0  0  0  0  0  0  0
    6.6845  -14.7307   26.6589 C   0  0  0  0  0  0  0  0  0  0  0  0
    5.5709  -13.9245   26.5610 C   0  0  0  0  0  0  0  0  0  0  0  0
    5.6259  -12.5573   26.6690 C   0  0  0  0  0  0  0  0  0  0  0  0
    6.8681  -11.9842   26.8860 C   0  0  0  0  0  0  0  0  0  0  0  0
    7.9875  -12.7656   26.9865 C   0  0  0  0  0  0  0  0  0  0  0  0
    7.9125  -14.1331   26.8757 C   0  0  0  0  0  0  0  0  0  0  0  0
    7.0521  -16.6430   24.1299 C   0  0  0  0  0  0  0  0  0  0  0  0
    7.6680  -17.7132   23.8907 O   0  0  0  0  0  0  0  0  0  0  0  0
    6.9910  -12.2252   20.7713 C   0  0  0  0  0  0  0  0  0  0  0  0
    6.8946  -13.6797   21.1670 C   0  0  0  0  0  0  0  0  0  0  0  0
    8.2788  -14.1202   21.6144 C   0  0  2  0  0  0  0  0  0  0  0  0
    9.1752  -13.9721   20.4223 C   0  0  0  0  0  0  0  0  0  0  0  0
    8.2406  -15.5267   22.1779 C   0  0  2  0  0  0  0  0  0  0  0  0
    7.3529  -15.5091   23.3553 N   0  0  0  0  0  0  0  0  0  0  0  0
    9.5809  -15.8831   22.6822 C   0  0  0  0  0  0  0  0  0  0  0  0
    9.9716  -15.2059   23.7126 O   0  0  0  0  0  0  0  0  0  0  0  0
   10.4615  -16.8505   22.1939 N   0  0  0  0  0  0  0  0  0  0  0  0
   10.3139  -17.8240   21.1091 C   0  0  0  0  0  0  0  0  0  0  0  0
   11.0599  -19.0417   21.6292 C   0  0  0  0  0  0  0  0  0  0  0  0
   12.2578  -18.4233   22.2723 C   0  0  0  0  0  0  0  0  0  0  0  0
   11.8042  -17.0831   22.7330 C   0  0  1  0  0  0  0  0  0  0  0  0
   12.7549  -16.0622   22.2248 C   0  0  0  0  0  0  0  0  0  0  0  0
   13.8443  -15.7826   22.7841 O   0  0  0  0  0  0  0  0  0  0  0  0
   12.4122  -15.3839   21.0665 O   0  0  0  0  0  0  0  0  0  0  0  0
  2  1  1  1
  3  2  1  0
  4  5  2  0
  4  3  1  0
  6  5  1  0
  7  6  2  0
  8  7  1  0
  8  9  2  0
  9  4  1  0
 10  2  1  0
 11 10  2  0
 13 12  1  0
 14 13  1  0
 14 15  1  6
 16 14  1  0
 16 17  1  1
 17 10  1  0
 18 16  1  0
 19 18  2  0
 20 18  1  0
 21 20  1  0
 22 23  1  0
 22 21  1  0
 23 24  1  0
 24 20  1  0
 24 25  1  6
 25 27  1  0
 26 25  2  0
M  END
$$$$
