YVT.pdb
     RDKit          3D

 27 27  0  0  1  0  0  0  0  0999 V2000
   10.1143  -12.7191   17.4499 O   0  0  0  0  0  0  0  0  0  0  0  0
    9.3441  -13.1548   18.5260 C   0  0  0  0  0  0  0  0  0  0  0  0
    7.9900  -12.8373   18.5011 C   0  0  0  0  0  0  0  0  0  0  0  0
    7.1938  -13.2604   19.5654 C   0  0  0  0  0  0  0  0  0  0  0  0
    7.7745  -13.9714   20.5931 C   0  0  0  0  0  0  0  0  0  0  0  0
    6.9212  -14.4119   21.7107 C   0  0  0  0  0  0  0  0  0  0  0  0
    6.8530  -15.9194   21.8146 C   0  0  2  0  0  0  0  0  0  0  0  0
    5.6912  -16.4814   21.2085 N   0  0  0  0  0  0  0  0  0  0  0  0
    6.8975  -16.2640   23.2601 C   0  0  0  0  0  0  0  0  0  0  0  0
    5.8191  -16.2581   23.8939 O   0  0  0  0  0  0  0  0  0  0  0  0
    9.1152  -14.2874   20.6206 C   0  0  0  0  0  0  0  0  0  0  0  0
    9.9168  -13.8661   19.5575 C   0  0  0  0  0  0  0  0  0  0  0  0
    6.9229  -19.1094   24.6415 C   0  0  0  0  0  0  0  0  0  0  0  0
    8.1384  -18.5600   25.3306 C   0  0  1  0  0  0  0  0  0  0  0  0
    9.4122  -19.1347   24.7333 C   0  0  0  0  0  0  0  0  0  0  0  0
    8.1612  -17.0415   25.3031 C   0  0  2  0  0  0  0  0  0  0  0  0
    8.0917  -16.5954   23.9462 N   0  0  0  0  0  0  0  0  0  0  0  0
    9.3407  -16.5012   26.0251 C   0  0  0  0  0  0  0  0  0  0  0  0
   10.4615  -16.4108   25.4608 O   0  0  0  0  0  0  0  0  0  0  0  0
    9.6513  -13.2256   27.7975 C   0  0  0  0  0  0  0  0  0  0  0  0
   10.0454  -14.3034   28.8093 C   0  0  1  0  0  0  0  0  0  0  0  0
    8.9245  -14.6535   29.5623 O   0  0  0  0  0  0  0  0  0  0  0  0
   10.4619  -15.5476   28.0416 C   0  0  2  0  0  0  0  0  0  0  0  0
    9.2796  -16.0588   27.3776 N   0  0  0  0  0  0  0  0  0  0  0  0
   11.0784  -16.5657   28.9313 C   0  0  0  0  0  0  0  0  0  0  0  0
   12.2701  -16.2192   29.5510 O   0  0  0  0  0  0  0  0  0  0  0  0
   10.5328  -17.6765   29.1002 O   0  0  0  0  0  0  0  0  0  0  0  0
  2  1  1  0
  3  2  2  0
  4  3  1  0
  5  4  2  0
  5 11  1  0
  6  5  1  0
  7  9  1  0
  7  6  1  0
  7  8  1  1
  9 17  1  0
 10  9  2  0
 11 12  2  0
 12  2  1  0
 14 15  1  6
 14 13  1  0
 16 14  1  0
 16 17  1  6
 18 19  2  0
 18 16  1  0
 21 20  1  6
 21 22  1  0
 23 24  1  1
 23 21  1  0
 24 18  1  0
 25 23  1  0
 26 25  1  0
 27 25  2  0
M  END
$$$$
