YVT.pdb
     RDKit          3D

 27 27  0  0  1  0  0  0  0  0999 V2000
    6.3016  -10.2784   27.9542 O   0  0  0  0  0  0  0  0  0  0  0  0
    6.6101  -11.5106   27.3815 C   0  0  0  0  0  0  0  0  0  0  0  0
    7.7000  -12.1952   27.9089 C   0  0  0  0  0  0  0  0  0  0  0  0
    8.0326  -13.4317   27.3554 C   0  0  0  0  0  0  0  0  0  0  0  0
    7.2746  -13.9240   26.3153 C   0  0  0  0  0  0  0  0  0  0  0  0
    7.6376  -15.2313   25.7405 C   0  0  0  0  0  0  0  0  0  0  0  0
    6.4933  -15.8515   24.9700 C   0  0  2  0  0  0  0  0  0  0  0  0
    5.9297  -16.9957   25.6074 N   0  0  0  0  0  0  0  0  0  0  0  0
    7.0131  -16.2150   23.6254 C   0  0  0  0  0  0  0  0  0  0  0  0
    7.2966  -17.4150   23.4152 O   0  0  0  0  0  0  0  0  0  0  0  0
    6.1946  -13.2482   25.7908 C   0  0  0  0  0  0  0  0  0  0  0  0
    5.8573  -12.0099   26.3413 C   0  0  0  0  0  0  0  0  0  0  0  0
    8.2343  -13.1358   20.9657 C   0  0  0  0  0  0  0  0  0  0  0  0
    7.6036  -14.3712   20.3914 C   0  0  1  0  0  0  0  0  0  0  0  0
    8.1429  -14.6647   19.0012 C   0  0  0  0  0  0  0  0  0  0  0  0
    7.7798  -15.5696   21.3079 C   0  0  2  0  0  0  0  0  0  0  0  0
    7.2003  -15.2755   22.5818 N   0  0  0  0  0  0  0  0  0  0  0  0
    9.2045  -15.9759   21.4057 C   0  0  0  0  0  0  0  0  0  0  0  0
    9.9832  -15.4199   22.2225 O   0  0  0  0  0  0  0  0  0  0  0  0
   12.5863  -19.4551   20.5940 C   0  0  0  0  0  0  0  0  0  0  0  0
   11.1805  -18.9141   20.3263 C   0  0  1  0  0  0  0  0  0  0  0  0
   10.2581  -19.6572   21.0632 O   0  0  0  0  0  0  0  0  0  0  0  0
   11.1111  -17.4887   20.8500 C   0  0  2  0  0  0  0  0  0  0  0  0
    9.7700  -17.0021   20.5959 N   0  0  0  0  0  0  0  0  0  0  0  0
   12.1411  -16.6191   20.2245 C   0  0  0  0  0  0  0  0  0  0  0  0
   13.2722  -16.3432   20.9786 O   0  0  0  0  0  0  0  0  0  0  0  0
   11.9770  -16.1674   19.0717 O   0  0  0  0  0  0  0  0  0  0  0  0
  2  1  1  0
  3  2  2  0
  4  3  1  0
  5  4  2  0
  5 11  1  0
  6  5  1  0
  7  9  1  0
  7  6  1  0
  7  8  1  1
  9 17  1  0
 10  9  2  0
 11 12  2  0
 12  2  1  0
 14 15  1  6
 14 13  1  0
 16 14  1  0
 16 17  1  1
 18 19  2  0
 18 16  1  0
 21 20  1  1
 21 22  1  0
 23 24  1  6
 23 21  1  0
 24 18  1  0
 25 23  1  0
 26 25  1  0
 27 25  2  0
M  END
$$$$
