YVT.pdb
     RDKit          3D

 27 27  0  0  1  0  0  0  0  0999 V2000
   12.1622  -16.4915   32.4860 O   0  0  0  0  0  0  0  0  0  0  0  0
   11.5995  -16.4516   31.2120 C   0  0  0  0  0  0  0  0  0  0  0  0
   10.9673  -15.2699   30.8393 C   0  0  0  0  0  0  0  0  0  0  0  0
   10.3946  -15.2007   29.5692 C   0  0  0  0  0  0  0  0  0  0  0  0
   10.4762  -16.2972   28.7386 C   0  0  0  0  0  0  0  0  0  0  0  0
    9.8667  -16.2097   27.4000 C   0  0  0  0  0  0  0  0  0  0  0  0
    8.3908  -16.5401   27.4241 C   0  0  2  0  0  0  0  0  0  0  0  0
    8.1180  -17.9165   27.6775 N   0  0  0  0  0  0  0  0  0  0  0  0
    7.8274  -16.1372   26.1086 C   0  0  0  0  0  0  0  0  0  0  0  0
    7.3773  -17.0384   25.3670 O   0  0  0  0  0  0  0  0  0  0  0  0
   11.1016  -17.4689   29.1050 C   0  0  0  0  0  0  0  0  0  0  0  0
   11.6767  -17.5434   30.3754 C   0  0  0  0  0  0  0  0  0  0  0  0
    5.7957  -12.7129   25.6838 C   0  0  0  0  0  0  0  0  0  0  0  0
    6.7712  -12.9089   24.5595 C   0  0  1  0  0  0  0  0  0  0  0  0
    7.9810  -12.0035   24.7212 C   0  0  0  0  0  0  0  0  0  0  0  0
    7.1926  -14.3624   24.4288 C   0  0  2  0  0  0  0  0  0  0  0  0
    7.7770  -14.7944   25.6604 N   0  0  0  0  0  0  0  0  0  0  0  0
    8.0913  -14.5664   23.2646 C   0  0  0  0  0  0  0  0  0  0  0  0
    9.1952  -13.9683   23.1844 O   0  0  0  0  0  0  0  0  0  0  0  0
    9.8616  -17.4949   22.0592 C   0  0  0  0  0  0  0  0  0  0  0  0
    8.9611  -17.0622   20.9006 C   0  0  1  0  0  0  0  0  0  0  0  0
    7.7390  -17.7276   21.0000 O   0  0  0  0  0  0  0  0  0  0  0  0
    8.6648  -15.5793   21.0561 C   0  0  2  0  0  0  0  0  0  0  0  0
    7.7669  -15.4363   22.1845 N   0  0  0  0  0  0  0  0  0  0  0  0
    8.0889  -14.9976   19.8158 C   0  0  0  0  0  0  0  0  0  0  0  0
    8.9375  -14.8789   18.7249 O   0  0  0  0  0  0  0  0  0  0  0  0
    6.8933  -14.6381   19.7778 O   0  0  0  0  0  0  0  0  0  0  0  0
  2  1  1  0
  3  2  2  0
  4  3  1  0
  5  4  2  0
  5 11  1  0
  6  5  1  0
  7  9  1  0
  7  6  1  0
  7  8  1  6
  9 17  1  0
 10  9  2  0
 11 12  2  0
 12  2  1  0
 14 15  1  1
 14 13  1  0
 16 14  1  0
 16 17  1  1
 18 19  2  0
 18 16  1  0
 21 20  1  1
 21 22  1  0
 23 24  1  1
 23 21  1  0
 24 18  1  0
 25 23  1  0
 26 25  1  0
 27 25  2  0
M  END
$$$$
