YVT.pdb
     RDKit          3D

 27 27  0  0  1  0  0  0  0  0999 V2000
    5.6824  -10.6516   28.5224 O   0  0  0  0  0  0  0  0  0  0  0  0
    6.1923  -11.6035   27.6420 C   0  0  0  0  0  0  0  0  0  0  0  0
    5.7093  -11.5781   26.3378 C   0  0  0  0  0  0  0  0  0  0  0  0
    6.2018  -12.5195   25.4338 C   0  0  0  0  0  0  0  0  0  0  0  0
    7.1409  -13.4316   25.8640 C   0  0  0  0  0  0  0  0  0  0  0  0
    7.6521  -14.4200   24.8982 C   0  0  0  0  0  0  0  0  0  0  0  0
    6.5354  -15.1273   24.1629 C   0  0  2  0  0  0  0  0  0  0  0  0
    5.8634  -16.1068   24.9516 N   0  0  0  0  0  0  0  0  0  0  0  0
    7.1326  -15.7588   22.9567 C   0  0  0  0  0  0  0  0  0  0  0  0
    7.1643  -17.0083   22.9085 O   0  0  0  0  0  0  0  0  0  0  0  0
    7.6211  -13.4592   27.1550 C   0  0  0  0  0  0  0  0  0  0  0  0
    7.1313  -12.5189   28.0641 C   0  0  0  0  0  0  0  0  0  0  0  0
    6.7166  -14.2624   19.2609 C   0  0  0  0  0  0  0  0  0  0  0  0
    8.1481  -14.6086   19.5526 C   0  0  1  0  0  0  0  0  0  0  0  0
    8.9703  -13.3580   19.8161 C   0  0  0  0  0  0  0  0  0  0  0  0
    8.2646  -15.5899   20.7061 C   0  0  2  0  0  0  0  0  0  0  0  0
    7.6618  -15.0192   21.8706 N   0  0  0  0  0  0  0  0  0  0  0  0
    9.6735  -16.0004   20.9320 C   0  0  0  0  0  0  0  0  0  0  0  0
   10.4810  -15.2453   21.5324 O   0  0  0  0  0  0  0  0  0  0  0  0
   11.0943  -18.9039   22.7812 C   0  0  0  0  0  0  0  0  0  0  0  0
   11.5854  -19.0016   21.3355 C   0  0  1  0  0  0  0  0  0  0  0  0
   10.6795  -19.7629   20.5968 O   0  0  0  0  0  0  0  0  0  0  0  0
   11.5753  -17.6056   20.7340 C   0  0  2  0  0  0  0  0  0  0  0  0
   10.1910  -17.2520   20.4913 N   0  0  0  0  0  0  0  0  0  0  0  0
   12.3888  -17.5325   19.4925 C   0  0  0  0  0  0  0  0  0  0  0  0
   13.7665  -17.5987   19.6398 O   0  0  0  0  0  0  0  0  0  0  0  0
   11.8382  -17.4170   18.3774 O   0  0  0  0  0  0  0  0  0  0  0  0
  2  1  1  0
  3  2  2  0
  4  3  1  0
  5  4  2  0
  5 11  1  0
  6  5  1  0
  7  9  1  0
  7  6  1  0
  7  8  1  1
  9 17  1  0
 10  9  2  0
 11 12  2  0
 12  2  1  0
 14 15  1  1
 14 13  1  0
 16 14  1  0
 16 17  1  1
 18 19  2  0
 18 16  1  0
 21 20  1  1
 21 22  1  0
 23 24  1  6
 23 21  1  0
 24 18  1  0
 25 23  1  0
 26 25  1  0
 27 25  2  0
M  END
$$$$
