YVT.pdb
     RDKit          3D

 27 27  0  0  1  0  0  0  0  0999 V2000
    8.5709  -13.4247   16.2141 O   0  0  0  0  0  0  0  0  0  0  0  0
    8.2283  -13.7109   17.5339 C   0  0  0  0  0  0  0  0  0  0  0  0
    9.0213  -14.6365   18.2041 C   0  0  0  0  0  0  0  0  0  0  0  0
    8.7022  -14.9430   19.5271 C   0  0  0  0  0  0  0  0  0  0  0  0
    7.6218  -14.3218   20.1150 C   0  0  0  0  0  0  0  0  0  0  0  0
    7.2965  -14.6553   21.5129 C   0  0  0  0  0  0  0  0  0  0  0  0
    6.9077  -16.1080   21.6756 C   0  0  2  0  0  0  0  0  0  0  0  0
    5.6219  -16.4179   21.1431 N   0  0  0  0  0  0  0  0  0  0  0  0
    6.9506  -16.4155   23.1296 C   0  0  0  0  0  0  0  0  0  0  0  0
    5.9076  -16.2312   23.7950 O   0  0  0  0  0  0  0  0  0  0  0  0
    6.8345  -13.4047   19.4538 C   0  0  0  0  0  0  0  0  0  0  0  0
    7.1496  -13.0943   18.1291 C   0  0  0  0  0  0  0  0  0  0  0  0
    8.8883  -18.9306   26.8353 C   0  0  0  0  0  0  0  0  0  0  0  0
    8.6958  -18.6031   25.3828 C   0  0  1  0  0  0  0  0  0  0  0  0
    7.7687  -19.6049   24.7147 C   0  0  0  0  0  0  0  0  0  0  0  0
    8.1931  -17.1829   25.1893 C   0  0  2  0  0  0  0  0  0  0  0  0
    8.1054  -16.9026   23.7897 N   0  0  0  0  0  0  0  0  0  0  0  0
    9.0359  -16.2023   25.9191 C   0  0  0  0  0  0  0  0  0  0  0  0
   10.2095  -15.9488   25.5433 O   0  0  0  0  0  0  0  0  0  0  0  0
    8.0906  -12.6793   26.5920 C   0  0  0  0  0  0  0  0  0  0  0  0
    8.4976  -13.2740   27.9416 C   0  0  1  0  0  0  0  0  0  0  0  0
    7.3602  -13.7587   28.5877 O   0  0  0  0  0  0  0  0  0  0  0  0
    9.3965  -14.4720   27.6823 C   0  0  2  0  0  0  0  0  0  0  0  0
    8.5779  -15.4992   27.0700 N   0  0  0  0  0  0  0  0  0  0  0  0
   10.0471  -14.9550   28.9280 C   0  0  0  0  0  0  0  0  0  0  0  0
   10.9886  -14.1187   29.5097 O   0  0  0  0  0  0  0  0  0  0  0  0
    9.7460  -16.0660   29.4130 O   0  0  0  0  0  0  0  0  0  0  0  0
  2  1  1  0
  3  2  2  0
  4  3  1  0
  5  4  2  0
  5 11  1  0
  6  5  1  0
  7  9  1  0
  7  6  1  0
  7  8  1  1
  9 17  1  0
 10  9  2  0
 11 12  2  0
 12  2  1  0
 14 15  1  1
 14 13  1  0
 16 14  1  0
 16 17  1  6
 18 19  2  0
 18 16  1  0
 21 20  1  6
 21 22  1  0
 23 24  1  1
 23 21  1  0
 24 18  1  0
 25 23  1  0
 26 25  1  0
 27 25  2  0
M  END
$$$$
