YVT.pdb
     RDKit          3D

 27 27  0  0  1  0  0  0  0  0999 V2000
    6.6525  -10.6837   27.1453 O   0  0  0  0  0  0  0  0  0  0  0  0
    6.7707  -12.0678   27.0379 C   0  0  0  0  0  0  0  0  0  0  0  0
    8.0598  -12.5886   26.9940 C   0  0  0  0  0  0  0  0  0  0  0  0
    8.2091  -13.9714   26.8866 C   0  0  0  0  0  0  0  0  0  0  0  0
    7.0824  -14.7627   26.8285 C   0  0  0  0  0  0  0  0  0  0  0  0
    7.2553  -16.2216   26.7152 C   0  0  0  0  0  0  0  0  0  0  0  0
    6.4322  -16.8062   25.5889 C   0  0  2  0  0  0  0  0  0  0  0  0
    5.8740  -18.0826   25.8928 N   0  0  0  0  0  0  0  0  0  0  0  0
    7.3183  -16.9020   24.3990 C   0  0  0  0  0  0  0  0  0  0  0  0
    7.9170  -17.9828   24.2038 O   0  0  0  0  0  0  0  0  0  0  0  0
    5.8044  -14.2498   26.8718 C   0  0  0  0  0  0  0  0  0  0  0  0
    5.6494  -12.8661   26.9792 C   0  0  0  0  0  0  0  0  0  0  0  0
    9.0009  -14.6478   20.2632 C   0  0  0  0  0  0  0  0  0  0  0  0
    8.1004  -14.6753   21.4642 C   0  0  1  0  0  0  0  0  0  0  0  0
    6.6386  -14.6157   21.0531 C   0  0  0  0  0  0  0  0  0  0  0  0
    8.3704  -15.8861   22.3408 C   0  0  2  0  0  0  0  0  0  0  0  0
    7.5144  -15.8373   23.4853 N   0  0  0  0  0  0  0  0  0  0  0  0
    9.8069  -15.9873   22.7026 C   0  0  0  0  0  0  0  0  0  0  0  0
   10.3568  -15.1168   23.4254 O   0  0  0  0  0  0  0  0  0  0  0  0
   13.8294  -18.8058   23.0827 C   0  0  0  0  0  0  0  0  0  0  0  0
   12.3410  -18.6603   22.7598 C   0  0  1  0  0  0  0  0  0  0  0  0
   11.5932  -19.2316   23.7896 O   0  0  0  0  0  0  0  0  0  0  0  0
   12.0003  -17.1790   22.7425 C   0  0  2  0  0  0  0  0  0  0  0  0
   10.6384  -17.0567   22.2625 N   0  0  0  0  0  0  0  0  0  0  0  0
   12.9517  -16.4025   21.9056 C   0  0  0  0  0  0  0  0  0  0  0  0
   12.7705  -16.4597   20.5315 O   0  0  0  0  0  0  0  0  0  0  0  0
   13.8656  -15.7355   22.4345 O   0  0  0  0  0  0  0  0  0  0  0  0
  2  1  1  0
  3  2  2  0
  4  3  1  0
  5  4  2  0
  5 11  1  0
  6  5  1  0
  7  9  1  0
  7  6  1  0
  7  8  1  1
  9 17  1  0
 10  9  2  0
 11 12  2  0
 12  2  1  0
 14 15  1  6
 14 13  1  0
 16 14  1  0
 16 17  1  1
 18 19  2  0
 18 16  1  0
 21 20  1  1
 21 22  1  0
 23 24  1  6
 23 21  1  0
 24 18  1  0
 25 23  1  0
 26 25  1  0
 27 25  2  0
M  END
$$$$
