YVT.pdb
     RDKit          3D

 27 27  0  0  1  0  0  0  0  0999 V2000
   10.8036  -14.4353   31.2586 O   0  0  0  0  0  0  0  0  0  0  0  0
   10.5786  -14.8102   29.9357 C   0  0  0  0  0  0  0  0  0  0  0  0
   10.1309  -13.8198   29.0676 C   0  0  0  0  0  0  0  0  0  0  0  0
    9.8969  -14.1659   27.7367 C   0  0  0  0  0  0  0  0  0  0  0  0
   10.1165  -15.4659   27.3357 C   0  0  0  0  0  0  0  0  0  0  0  0
    9.8651  -15.8170   25.9269 C   0  0  0  0  0  0  0  0  0  0  0  0
    8.4255  -16.2151   25.6879 C   0  0  2  0  0  0  0  0  0  0  0  0
    8.0212  -17.3655   26.4269 N   0  0  0  0  0  0  0  0  0  0  0  0
    8.2722  -16.4599   24.2296 C   0  0  0  0  0  0  0  0  0  0  0  0
    8.3023  -17.6453   23.8314 O   0  0  0  0  0  0  0  0  0  0  0  0
   10.5598  -16.4490   28.1931 C   0  0  0  0  0  0  0  0  0  0  0  0
   10.7956  -16.1077   29.5266 C   0  0  0  0  0  0  0  0  0  0  0  0
    7.7763  -14.4641   19.6798 C   0  0  0  0  0  0  0  0  0  0  0  0
    7.7735  -14.3111   21.1733 C   0  0  1  0  0  0  0  0  0  0  0  0
    6.3962  -13.9162   21.6799 C   0  0  0  0  0  0  0  0  0  0  0  0
    8.2691  -15.5681   21.8674 C   0  0  2  0  0  0  0  0  0  0  0  0
    8.0954  -15.4240   23.2796 N   0  0  0  0  0  0  0  0  0  0  0  0
    9.6705  -15.8819   21.4907 C   0  0  0  0  0  0  0  0  0  0  0  0
   10.6103  -15.0948   21.7739 O   0  0  0  0  0  0  0  0  0  0  0  0
   11.8175  -18.5231   22.6536 C   0  0  0  0  0  0  0  0  0  0  0  0
   11.7433  -18.7090   21.1368 C   0  0  1  0  0  0  0  0  0  0  0  0
   10.6781  -19.5569   20.8330 O   0  0  0  0  0  0  0  0  0  0  0  0
   11.4233  -17.3628   20.5073 C   0  0  2  0  0  0  0  0  0  0  0  0
   10.0336  -17.0719   20.7976 N   0  0  0  0  0  0  0  0  0  0  0  0
   11.6943  -17.3573   19.0462 C   0  0  0  0  0  0  0  0  0  0  0  0
   13.0243  -17.3165   18.6543 O   0  0  0  0  0  0  0  0  0  0  0  0
   10.7538  -17.3884   18.2249 O   0  0  0  0  0  0  0  0  0  0  0  0
  2  1  1  0
  3  2  2  0
  4  3  1  0
  5  4  2  0
  5 11  1  0
  6  5  1  0
  7  9  1  0
  7  6  1  0
  7  8  1  1
  9 17  1  0
 10  9  2  0
 11 12  2  0
 12  2  1  0
 14 15  1  1
 14 13  1  0
 16 14  1  0
 16 17  1  1
 18 19  2  0
 18 16  1  0
 21 20  1  1
 21 22  1  0
 23 24  1  6
 23 21  1  0
 24 18  1  0
 25 23  1  0
 26 25  1  0
 27 25  2  0
M  END
$$$$
