YVT.pdb
     RDKit          3D

 27 27  0  0  1  0  0  0  0  0999 V2000
    5.6138  -10.9415   27.5873 O   0  0  0  0  0  0  0  0  0  0  0  0
    6.1858  -12.1644   27.2426 C   0  0  0  0  0  0  0  0  0  0  0  0
    5.6292  -12.8374   26.1600 C   0  0  0  0  0  0  0  0  0  0  0  0
    6.1813  -14.0644   25.7917 C   0  0  0  0  0  0  0  0  0  0  0  0
    7.2488  -14.5591   26.5090 C   0  0  0  0  0  0  0  0  0  0  0  0
    7.8217  -15.8563   26.1086 C   0  0  0  0  0  0  0  0  0  0  0  0
    6.8604  -16.6679   25.2689 C   0  0  2  0  0  0  0  0  0  0  0  0
    6.5455  -17.9401   25.8306 N   0  0  0  0  0  0  0  0  0  0  0  0
    7.4803  -16.8364   23.9281 C   0  0  0  0  0  0  0  0  0  0  0  0
    7.8484  -17.9849   23.5966 O   0  0  0  0  0  0  0  0  0  0  0  0
    7.8022  -13.8949   27.5817 C   0  0  0  0  0  0  0  0  0  0  0  0
    7.2532  -12.6661   27.9545 C   0  0  0  0  0  0  0  0  0  0  0  0
    6.3797  -14.3875   20.8440 C   0  0  0  0  0  0  0  0  0  0  0  0
    7.8575  -14.6459   20.9002 C   0  0  1  0  0  0  0  0  0  0  0  0
    8.6012  -13.4466   21.4642 C   0  0  0  0  0  0  0  0  0  0  0  0
    8.1779  -15.9047   21.6875 C   0  0  2  0  0  0  0  0  0  0  0  0
    7.6717  -15.7679   23.0180 N   0  0  0  0  0  0  0  0  0  0  0  0
    9.6300  -16.2129   21.6549 C   0  0  0  0  0  0  0  0  0  0  0  0
   10.2599  -16.2557   20.5667 O   0  0  0  0  0  0  0  0  0  0  0  0
   12.3450  -15.0554   24.3266 C   0  0  0  0  0  0  0  0  0  0  0  0
   12.4219  -16.5644   24.0864 C   0  0  1  0  0  0  0  0  0  0  0  0
   11.6559  -17.2191   25.0512 O   0  0  0  0  0  0  0  0  0  0  0  0
   11.7808  -16.8657   22.7414 C   0  0  2  0  0  0  0  0  0  0  0  0
   10.3882  -16.4749   22.8318 N   0  0  0  0  0  0  0  0  0  0  0  0
   11.9289  -18.2959   22.3663 C   0  0  0  0  0  0  0  0  0  0  0  0
   10.7682  -19.0533   22.3081 O   0  0  0  0  0  0  0  0  0  0  0  0
   13.0555  -18.7749   22.1186 O   0  0  0  0  0  0  0  0  0  0  0  0
  2  1  1  0
  3  2  2  0
  4  3  1  0
  5  4  2  0
  5 11  1  0
  6  5  1  0
  7  9  1  0
  7  6  1  0
  7  8  1  1
  9 17  1  0
 10  9  2  0
 11 12  2  0
 12  2  1  0
 14 15  1  1
 14 13  1  0
 16 14  1  0
 16 17  1  1
 18 19  2  0
 18 16  1  0
 21 20  1  1
 21 22  1  0
 23 24  1  1
 23 21  1  0
 24 18  1  0
 25 23  1  0
 26 25  1  0
 27 25  2  0
M  END
$$$$
