YVT.pdb
     RDKit          3D

 27 27  0  0  1  0  0  0  0  0999 V2000
    7.5959  -15.8611   27.1234 O   0  0  0  0  0  0  0  0  0  0  0  0
    7.1500  -16.5862   26.0204 C   0  0  0  0  0  0  0  0  0  0  0  0
    5.8757  -16.2922   25.5465 C   0  0  0  0  0  0  0  0  0  0  0  0
    5.4024  -17.0024   24.4430 C   0  0  0  0  0  0  0  0  0  0  0  0
    6.2091  -17.9607   23.8690 C   0  0  0  0  0  0  0  0  0  0  0  0
    5.6961  -18.7030   22.7040 C   0  0  0  0  0  0  0  0  0  0  0  0
    5.6077  -17.8336   21.4694 C   0  0  2  0  0  0  0  0  0  0  0  0
    5.0821  -18.5114   20.3304 N   0  0  0  0  0  0  0  0  0  0  0  0
    6.9782  -17.3332   21.1837 C   0  0  0  0  0  0  0  0  0  0  0  0
    7.8014  -18.1370   20.6930 O   0  0  0  0  0  0  0  0  0  0  0  0
    7.4716  -18.2541   24.3361 C   0  0  0  0  0  0  0  0  0  0  0  0
    7.9502  -17.5460   25.4405 C   0  0  0  0  0  0  0  0  0  0  0  0
    7.4312  -13.6374   19.8255 C   0  0  0  0  0  0  0  0  0  0  0  0
    8.4896  -13.9485   20.8438 C   0  0  1  0  0  0  0  0  0  0  0  0
    8.2046  -13.2457   22.1608 C   0  0  0  0  0  0  0  0  0  0  0  0
    8.6491  -15.4451   21.0487 C   0  0  2  0  0  0  0  0  0  0  0  0
    7.3911  -16.0023   21.4385 N   0  0  0  0  0  0  0  0  0  0  0  0
    9.7355  -15.7501   22.0138 C   0  0  0  0  0  0  0  0  0  0  0  0
    9.6632  -15.3743   23.2122 O   0  0  0  0  0  0  0  0  0  0  0  0
   10.8862  -18.8161   23.3918 C   0  0  0  0  0  0  0  0  0  0  0  0
   12.1293  -18.2297   22.7198 C   0  0  1  0  0  0  0  0  0  0  0  0
   12.2090  -18.7085   21.4119 O   0  0  0  0  0  0  0  0  0  0  0  0
   11.9523  -16.7230   22.6233 C   0  0  2  0  0  0  0  0  0  0  0  0
   10.9070  -16.4743   21.6509 N   0  0  0  0  0  0  0  0  0  0  0  0
   13.2201  -16.0398   22.2569 C   0  0  0  0  0  0  0  0  0  0  0  0
   14.2403  -16.0630   23.1966 O   0  0  0  0  0  0  0  0  0  0  0  0
   13.3416  -15.4764   21.1488 O   0  0  0  0  0  0  0  0  0  0  0  0
  2  1  1  0
  3  2  2  0
  4  3  1  0
  5  4  2  0
  5 11  1  0
  6  5  1  0
  7  9  1  0
  7  6  1  0
  7  8  1  6
  9 17  1  0
 10  9  2  0
 11 12  2  0
 12  2  1  0
 14 15  1  1
 14 13  1  0
 16 14  1  0
 16 17  1  1
 18 19  2  0
 18 16  1  0
 21 20  1  6
 21 22  1  0
 23 24  1  6
 23 21  1  0
 24 18  1  0
 25 23  1  0
 26 25  1  0
 27 25  2  0
M  END
$$$$
