YVT.pdb
     RDKit          3D

 27 27  0  0  1  0  0  0  0  0999 V2000
    6.6908  -10.5649   26.4345 O   0  0  0  0  0  0  0  0  0  0  0  0
    6.7084  -11.9566   26.4974 C   0  0  0  0  0  0  0  0  0  0  0  0
    7.8696  -12.5920   26.0700 C   0  0  0  0  0  0  0  0  0  0  0  0
    7.9162  -13.9852   26.1215 C   0  0  0  0  0  0  0  0  0  0  0  0
    6.8184  -14.6737   26.5901 C   0  0  0  0  0  0  0  0  0  0  0  0
    6.8818  -16.1450   26.6388 C   0  0  0  0  0  0  0  0  0  0  0  0
    6.2380  -16.7826   25.4277 C   0  0  2  0  0  0  0  0  0  0  0  0
    5.8202  -18.1284   25.6453 N   0  0  0  0  0  0  0  0  0  0  0  0
    7.2279  -16.7236   24.3200 C   0  0  0  0  0  0  0  0  0  0  0  0
    8.1006  -17.6182   24.2703 O   0  0  0  0  0  0  0  0  0  0  0  0
    5.6669  -14.0473   27.0141 C   0  0  0  0  0  0  0  0  0  0  0  0
    5.6151  -12.6526   26.9646 C   0  0  0  0  0  0  0  0  0  0  0  0
    7.7641  -13.1863   21.9952 C   0  0  0  0  0  0  0  0  0  0  0  0
    7.7151  -14.5163   21.3005 C   0  0  1  0  0  0  0  0  0  0  0  0
    8.5581  -14.5041   20.0361 C   0  0  0  0  0  0  0  0  0  0  0  0
    8.1342  -15.6476   22.2234 C   0  0  2  0  0  0  0  0  0  0  0  0
    7.2287  -15.7119   23.3284 N   0  0  0  0  0  0  0  0  0  0  0  0
    9.5498  -15.5075   22.6489 C   0  0  0  0  0  0  0  0  0  0  0  0
    9.9671  -14.4433   23.1744 O   0  0  0  0  0  0  0  0  0  0  0  0
   11.3814  -16.8009   25.2711 C   0  0  0  0  0  0  0  0  0  0  0  0
   12.1588  -17.2992   24.0512 C   0  0  1  0  0  0  0  0  0  0  0  0
   11.6630  -18.5473   23.6735 O   0  0  0  0  0  0  0  0  0  0  0  0
   11.8862  -16.3524   22.8936 C   0  0  2  0  0  0  0  0  0  0  0  0
   10.5078  -16.5497   22.4922 N   0  0  0  0  0  0  0  0  0  0  0  0
   12.8265  -16.5745   21.7645 C   0  0  0  0  0  0  0  0  0  0  0  0
   14.1563  -16.2438   21.9804 O   0  0  0  0  0  0  0  0  0  0  0  0
   12.4184  -17.0385   20.6791 O   0  0  0  0  0  0  0  0  0  0  0  0
  2  1  1  0
  3  2  2  0
  4  3  1  0
  5  4  2  0
  5 11  1  0
  6  5  1  0
  7  9  1  0
  7  6  1  0
  7  8  1  1
  9 17  1  0
 10  9  2  0
 11 12  2  0
 12  2  1  0
 14 15  1  6
 14 13  1  0
 16 14  1  0
 16 17  1  1
 18 19  2  0
 18 16  1  0
 21 20  1  1
 21 22  1  0
 23 24  1  6
 23 21  1  0
 24 18  1  0
 25 23  1  0
 26 25  1  0
 27 25  2  0
M  END
$$$$
