YVT.pdb
     RDKit          3D

 27 27  0  0  1  0  0  0  0  0999 V2000
    8.0294  -12.9065   16.3346 O   0  0  0  0  0  0  0  0  0  0  0  0
    7.9496  -13.3278   17.6603 C   0  0  0  0  0  0  0  0  0  0  0  0
    9.0659  -13.9704   18.1855 C   0  0  0  0  0  0  0  0  0  0  0  0
    9.0149  -14.4034   19.5106 C   0  0  0  0  0  0  0  0  0  0  0  0
    7.8694  -14.1798   20.2431 C   0  0  0  0  0  0  0  0  0  0  0  0
    7.8298  -14.6426   21.6414 C   0  0  0  0  0  0  0  0  0  0  0  0
    7.6882  -16.1454   21.7395 C   0  0  2  0  0  0  0  0  0  0  0  0
    6.4290  -16.6314   21.2800 N   0  0  0  0  0  0  0  0  0  0  0  0
    7.8939  -16.5154   23.1647 C   0  0  0  0  0  0  0  0  0  0  0  0
    6.9431  -16.3337   23.9568 O   0  0  0  0  0  0  0  0  0  0  0  0
    6.7622  -13.5437   19.7257 C   0  0  0  0  0  0  0  0  0  0  0  0
    6.8080  -13.1081   18.3996 C   0  0  0  0  0  0  0  0  0  0  0  0
   11.3707  -18.6604   24.2730 C   0  0  0  0  0  0  0  0  0  0  0  0
   10.1089  -18.7155   25.0847 C   0  0  1  0  0  0  0  0  0  0  0  0
   10.4001  -19.1157   26.5215 C   0  0  0  0  0  0  0  0  0  0  0  0
    9.3476  -17.4022   25.0289 C   0  0  2  0  0  0  0  0  0  0  0  0
    9.1039  -17.0586   23.6623 N   0  0  0  0  0  0  0  0  0  0  0  0
   10.0558  -16.3300   25.7727 C   0  0  0  0  0  0  0  0  0  0  0  0
   11.1494  -15.8662   25.3581 O   0  0  0  0  0  0  0  0  0  0  0  0
    9.3583  -12.8797   26.5170 C   0  0  0  0  0  0  0  0  0  0  0  0
    9.4749  -13.5559   27.8844 C   0  0  1  0  0  0  0  0  0  0  0  0
    8.2112  -13.9863   28.2893 O   0  0  0  0  0  0  0  0  0  0  0  0
   10.3313  -14.8021   27.7278 C   0  0  2  0  0  0  0  0  0  0  0  0
    9.5516  -15.7684   26.9806 N   0  0  0  0  0  0  0  0  0  0  0  0
   10.7667  -15.3425   29.0418 C   0  0  0  0  0  0  0  0  0  0  0  0
   11.5796  -14.5288   29.8172 O   0  0  0  0  0  0  0  0  0  0  0  0
   10.4063  -16.4794   29.4127 O   0  0  0  0  0  0  0  0  0  0  0  0
  2  1  1  0
  3  2  2  0
  4  3  1  0
  5  4  2  0
  5 11  1  0
  6  5  1  0
  7  9  1  0
  7  6  1  0
  7  8  1  1
  9 17  1  0
 10  9  2  0
 11 12  2  0
 12  2  1  0
 14 15  1  1
 14 13  1  0
 16 14  1  0
 16 17  1  6
 18 19  2  0
 18 16  1  0
 21 20  1  6
 21 22  1  0
 23 24  1  1
 23 21  1  0
 24 18  1  0
 25 23  1  0
 26 25  1  0
 27 25  2  0
M  END
$$$$
