YVT.pdb
     RDKit          3D

 27 27  0  0  1  0  0  0  0  0999 V2000
    5.7307  -10.9311   28.9177 O   0  0  0  0  0  0  0  0  0  0  0  0
    6.2495  -11.8388   27.9967 C   0  0  0  0  0  0  0  0  0  0  0  0
    5.7126  -11.8110   26.7138 C   0  0  0  0  0  0  0  0  0  0  0  0
    6.2125  -12.7086   25.7702 C   0  0  0  0  0  0  0  0  0  0  0  0
    7.2115  -13.5818   26.1422 C   0  0  0  0  0  0  0  0  0  0  0  0
    7.7299  -14.5242   25.1350 C   0  0  0  0  0  0  0  0  0  0  0  0
    6.6211  -15.2939   24.4522 C   0  0  2  0  0  0  0  0  0  0  0  0
    6.1656  -16.4208   25.1975 N   0  0  0  0  0  0  0  0  0  0  0  0
    7.1369  -15.7275   23.1269 C   0  0  0  0  0  0  0  0  0  0  0  0
    7.4203  -16.9368   22.9794 O   0  0  0  0  0  0  0  0  0  0  0  0
    7.7452  -13.6117   27.4120 C   0  0  0  0  0  0  0  0  0  0  0  0
    7.2482  -12.7152   28.3604 C   0  0  0  0  0  0  0  0  0  0  0  0
    8.5729  -12.9042   20.3365 C   0  0  0  0  0  0  0  0  0  0  0  0
    7.7221  -14.0241   19.8112 C   0  0  1  0  0  0  0  0  0  0  0  0
    8.1290  -14.4026   18.3967 C   0  0  0  0  0  0  0  0  0  0  0  0
    7.7561  -15.2335   20.7295 C   0  0  2  0  0  0  0  0  0  0  0  0
    7.3206  -14.8442   22.0348 N   0  0  0  0  0  0  0  0  0  0  0  0
    9.0960  -15.8731   20.7387 C   0  0  0  0  0  0  0  0  0  0  0  0
   10.0067  -15.4606   21.5025 O   0  0  0  0  0  0  0  0  0  0  0  0
   11.7982  -19.8616   19.8928 C   0  0  0  0  0  0  0  0  0  0  0  0
   10.4720  -19.1186   19.7196 C   0  0  1  0  0  0  0  0  0  0  0  0
    9.5571  -19.5942   20.6592 O   0  0  0  0  0  0  0  0  0  0  0  0
   10.7035  -17.6507   20.0394 C   0  0  2  0  0  0  0  0  0  0  0  0
    9.4296  -16.9741   19.8990 N   0  0  0  0  0  0  0  0  0  0  0  0
   11.7452  -17.0518   19.1650 C   0  0  0  0  0  0  0  0  0  0  0  0
   12.9842  -16.8097   19.7398 O   0  0  0  0  0  0  0  0  0  0  0  0
   11.4966  -16.7862   17.9702 O   0  0  0  0  0  0  0  0  0  0  0  0
  2  1  1  0
  3  2  2  0
  4  3  1  0
  5  4  2  0
  5 11  1  0
  6  5  1  0
  7  9  1  0
  7  6  1  0
  7  8  1  1
  9 17  1  0
 10  9  2  0
 11 12  2  0
 12  2  1  0
 14 15  1  6
 14 13  1  0
 16 14  1  0
 16 17  1  1
 18 19  2  0
 18 16  1  0
 21 20  1  1
 21 22  1  0
 23 24  1  6
 23 21  1  0
 24 18  1  0
 25 23  1  0
 26 25  1  0
 27 25  2  0
M  END
$$$$
