DED.pdb
     RDKit          3D

 26 25  0  0  1  0  0  0  0  0999 V2000
   13.9552  -15.2978   17.5872 N   0  0  0  0  0  0  0  0  0  0  0  0
   14.5761  -15.2240   18.8879 C   0  0  1  0  0  0  0  0  0  0  0  0
   15.1663  -13.8373   19.0102 C   0  0  0  0  0  0  0  0  0  0  0  0
   16.3613  -13.6218   18.1883 C   0  0  0  0  0  0  0  0  0  0  0  0
   16.4216  -13.8881   16.9675 O   0  0  0  0  0  0  0  0  0  0  0  0
   13.6048  -15.4792   19.9547 C   0  0  0  0  0  0  0  0  0  0  0  0
   13.7688  -15.1723   21.1578 O   0  0  0  0  0  0  0  0  0  0  0  0
   17.5197  -13.0877   18.7746 O   0  0  0  0  0  0  0  0  0  0  0  0
   12.3587  -16.1297   19.6294 N   0  0  0  0  0  0  0  0  0  0  0  0
   11.3823  -16.3811   20.6695 C   0  0  1  0  0  0  0  0  0  0  0  0
   10.0816  -16.7688   20.0045 C   0  0  0  0  0  0  0  0  0  0  0  0
    9.0754  -17.1172   21.0447 C   0  0  0  0  0  0  0  0  0  0  0  0
    7.7597  -17.4955   20.4788 C   0  0  0  0  0  0  0  0  0  0  0  0
    6.7805  -16.7216   20.4512 O   0  0  0  0  0  0  0  0  0  0  0  0
   11.9048  -17.5053   21.4967 C   0  0  0  0  0  0  0  0  0  0  0  0
   12.5988  -18.4251   20.9933 O   0  0  0  0  0  0  0  0  0  0  0  0
    7.6158  -18.7670   19.9584 O   0  0  0  0  0  0  0  0  0  0  0  0
   11.6255  -17.5666   22.9046 N   0  0  0  0  0  0  0  0  0  0  0  0
   12.6574  -18.0501   23.7990 C   0  0  1  0  0  0  0  0  0  0  0  0
   13.9418  -17.2749   23.6331 C   0  0  0  0  0  0  0  0  0  0  0  0
   14.9991  -17.7268   24.5466 C   0  0  0  0  0  0  0  0  0  0  0  0
   14.9929  -17.5707   25.7937 O   0  0  0  0  0  0  0  0  0  0  0  0
   12.1735  -18.0523   25.1933 C   0  0  0  0  0  0  0  0  0  0  0  0
   12.7632  -18.8469   26.1662 O   0  0  0  0  0  0  0  0  0  0  0  0
   16.1017  -18.3815   24.0045 O   0  0  0  0  0  0  0  0  0  0  0  0
   11.2085  -17.3182   25.4991 O   0  0  0  0  0  0  0  0  0  0  0  0
  2  1  1  6
  2  3  1  0
  3  4  1  0
  4  8  1  0
  5  4  2  0
  6  2  1  0
  6  9  1  0
  7  6  2  0
 10  9  1  0
 11 12  1  0
 10 11  1  6
 12 13  1  0
 13 17  1  0
 14 13  2  0
 15 16  2  0
 15 10  1  0
 18 15  1  0
 19 18  1  0
 19 20  1  1
 21 20  1  0
 21 22  2  0
 23 19  1  0
 24 23  1  0
 25 21  1  0
 26 23  2  0
M  END
$$$$
