DED.pdb
     RDKit          3D

 26 25  0  0  1  0  0  0  0  0999 V2000
   13.8347  -13.8319   16.9499 N   0  0  0  0  0  0  0  0  0  0  0  0
   14.4781  -14.7423   17.8663 C   0  0  1  0  0  0  0  0  0  0  0  0
   15.7264  -14.0491   18.3638 C   0  0  0  0  0  0  0  0  0  0  0  0
   16.6981  -13.7392   17.3104 C   0  0  0  0  0  0  0  0  0  0  0  0
   17.1669  -12.5964   17.1128 O   0  0  0  0  0  0  0  0  0  0  0  0
   13.5903  -15.0912   18.9784 C   0  0  0  0  0  0  0  0  0  0  0  0
   13.2706  -14.3143   19.9073 O   0  0  0  0  0  0  0  0  0  0  0  0
   17.1477  -14.7607   16.4588 O   0  0  0  0  0  0  0  0  0  0  0  0
   13.0266  -16.4181   19.0378 N   0  0  0  0  0  0  0  0  0  0  0  0
   12.0554  -16.7448   20.0618 C   0  0  1  0  0  0  0  0  0  0  0  0
   10.9672  -17.5775   19.4238 C   0  0  0  0  0  0  0  0  0  0  0  0
   10.0133  -18.0358   20.4706 C   0  0  0  0  0  0  0  0  0  0  0  0
    8.9586  -18.9334   19.9445 C   0  0  0  0  0  0  0  0  0  0  0  0
    7.7928  -18.5531   19.7106 O   0  0  0  0  0  0  0  0  0  0  0  0
   12.7708  -17.5282   21.1085 C   0  0  0  0  0  0  0  0  0  0  0  0
   13.4978  -18.5105   20.8128 O   0  0  0  0  0  0  0  0  0  0  0  0
    9.2874  -20.2533   19.7036 O   0  0  0  0  0  0  0  0  0  0  0  0
   12.6461  -17.1766   22.4958 N   0  0  0  0  0  0  0  0  0  0  0  0
   13.2964  -18.0096   23.4866 C   0  0  1  0  0  0  0  0  0  0  0  0
   14.1005  -17.1847   24.4619 C   0  0  0  0  0  0  0  0  0  0  0  0
   15.2774  -16.5621   23.8426 C   0  0  0  0  0  0  0  0  0  0  0  0
   15.6146  -16.6910   22.6387 O   0  0  0  0  0  0  0  0  0  0  0  0
   12.3108  -18.8790   24.1583 C   0  0  0  0  0  0  0  0  0  0  0  0
   12.6893  -20.0574   24.7858 O   0  0  0  0  0  0  0  0  0  0  0  0
   16.0942  -15.7630   24.6379 O   0  0  0  0  0  0  0  0  0  0  0  0
   11.1072  -18.5400   24.1586 O   0  0  0  0  0  0  0  0  0  0  0  0
  2  1  1  6
  2  3  1  0
  3  4  1  0
  4  8  1  0
  5  4  2  0
  6  2  1  0
  6  9  1  0
  7  6  2  0
 10  9  1  0
 11 12  1  0
 10 11  1  6
 12 13  1  0
 13 17  1  0
 14 13  2  0
 15 16  2  0
 15 10  1  0
 18 15  1  0
 19 18  1  0
 19 20  1  1
 21 20  1  0
 21 22  2  0
 23 19  1  0
 24 23  1  0
 25 21  1  0
 26 23  2  0
M  END
$$$$
