DED.pdb
     RDKit          3D

 26 25  0  0  1  0  0  0  0  0999 V2000
   12.2819  -15.9435   18.9083 N   0  0  0  0  0  0  0  0  0  0  0  0
   12.7247  -15.3924   20.1665 C   0  0  1  0  0  0  0  0  0  0  0  0
   13.0942  -13.9500   19.9037 C   0  0  0  0  0  0  0  0  0  0  0  0
   14.3221  -13.7807   19.1204 C   0  0  0  0  0  0  0  0  0  0  0  0
   14.4570  -12.9261   18.2170 O   0  0  0  0  0  0  0  0  0  0  0  0
   11.6776  -15.4907   21.1866 C   0  0  0  0  0  0  0  0  0  0  0  0
   10.8243  -14.6044   21.4213 O   0  0  0  0  0  0  0  0  0  0  0  0
   15.4269  -14.6090   19.3743 O   0  0  0  0  0  0  0  0  0  0  0  0
   11.5957  -16.6816   21.9970 N   0  0  0  0  0  0  0  0  0  0  0  0
   10.4898  -16.8547   22.9164 C   0  0  1  0  0  0  0  0  0  0  0  0
    9.7423  -18.1061   22.5166 C   0  0  0  0  0  0  0  0  0  0  0  0
   10.6950  -19.0894   21.9324 C   0  0  0  0  0  0  0  0  0  0  0  0
   10.0412  -20.3450   21.4958 C   0  0  0  0  0  0  0  0  0  0  0  0
    9.6792  -20.5527   20.3192 O   0  0  0  0  0  0  0  0  0  0  0  0
   11.0740  -17.0046   24.2792 C   0  0  0  0  0  0  0  0  0  0  0  0
   12.2724  -17.3461   24.4472 O   0  0  0  0  0  0  0  0  0  0  0  0
    9.8244  -21.3291   22.4407 O   0  0  0  0  0  0  0  0  0  0  0  0
   10.2739  -16.7602   25.4471 N   0  0  0  0  0  0  0  0  0  0  0  0
   10.8498  -17.0147   26.7518 C   0  0  1  0  0  0  0  0  0  0  0  0
   10.1446  -16.2297   27.8310 C   0  0  0  0  0  0  0  0  0  0  0  0
   10.6150  -14.8415   27.9218 C   0  0  0  0  0  0  0  0  0  0  0  0
   11.6056  -14.3718   27.3072 O   0  0  0  0  0  0  0  0  0  0  0  0
   10.8766  -18.4636   27.0313 C   0  0  0  0  0  0  0  0  0  0  0  0
   10.2778  -19.3797   26.1781 O   0  0  0  0  0  0  0  0  0  0  0  0
    9.9199  -13.9640   28.7495 O   0  0  0  0  0  0  0  0  0  0  0  0
   11.4544  -18.8692   28.0634 O   0  0  0  0  0  0  0  0  0  0  0  0
  2  1  1  6
  2  3  1  0
  3  4  1  0
  4  8  1  0
  5  4  2  0
  6  2  1  0
  6  9  1  0
  7  6  2  0
 10  9  1  0
 11 12  1  0
 10 11  1  6
 12 13  1  0
 13 17  1  0
 14 13  2  0
 15 16  2  0
 15 10  1  0
 18 15  1  0
 19 18  1  0
 19 20  1  1
 21 20  1  0
 21 22  2  0
 23 19  1  0
 24 23  1  0
 25 21  1  0
 26 23  2  0
M  END
$$$$
