DED.pdb
     RDKit          3D

 26 25  0  0  1  0  0  0  0  0999 V2000
   14.2537  -19.5935   17.4863 N   0  0  0  0  0  0  0  0  0  0  0  0
   14.6632  -18.2106   17.5370 C   0  0  1  0  0  0  0  0  0  0  0  0
   14.3943  -17.6267   16.1684 C   0  0  0  0  0  0  0  0  0  0  0  0
   15.2811  -18.1350   15.1170 C   0  0  0  0  0  0  0  0  0  0  0  0
   15.3986  -19.3479   14.8344 O   0  0  0  0  0  0  0  0  0  0  0  0
   13.9327  -17.4787   18.5749 C   0  0  0  0  0  0  0  0  0  0  0  0
   14.1445  -16.2852   18.8900 O   0  0  0  0  0  0  0  0  0  0  0  0
   16.0551  -17.2354   14.3671 O   0  0  0  0  0  0  0  0  0  0  0  0
   12.8873  -18.1527   19.3061 N   0  0  0  0  0  0  0  0  0  0  0  0
   12.1557  -17.4453   20.3370 C   0  0  1  0  0  0  0  0  0  0  0  0
   10.7907  -18.0825   20.4610 C   0  0  0  0  0  0  0  0  0  0  0  0
    9.9744  -17.7474   19.2622 C   0  0  0  0  0  0  0  0  0  0  0  0
    8.6433  -18.3975   19.2637 C   0  0  0  0  0  0  0  0  0  0  0  0
    8.4558  -19.5700   18.8783 O   0  0  0  0  0  0  0  0  0  0  0  0
   12.9251  -17.6008   21.6038 C   0  0  0  0  0  0  0  0  0  0  0  0
   13.2003  -18.7352   22.0711 O   0  0  0  0  0  0  0  0  0  0  0  0
    7.5617  -17.6657   19.7141 O   0  0  0  0  0  0  0  0  0  0  0  0
   13.3762  -16.4463   22.3300 N   0  0  0  0  0  0  0  0  0  0  0  0
   14.0485  -16.6401   23.5985 C   0  0  1  0  0  0  0  0  0  0  0  0
   15.2283  -15.7105   23.7476 C   0  0  0  0  0  0  0  0  0  0  0  0
   16.2801  -15.9652   22.7550 C   0  0  0  0  0  0  0  0  0  0  0  0
   16.5318  -17.0831   22.2386 O   0  0  0  0  0  0  0  0  0  0  0  0
   13.0902  -16.5223   24.7147 C   0  0  0  0  0  0  0  0  0  0  0  0
   11.7775  -16.1234   24.5067 O   0  0  0  0  0  0  0  0  0  0  0  0
   17.0692  -14.8948   22.3428 O   0  0  0  0  0  0  0  0  0  0  0  0
   13.4765  -16.7899   25.8735 O   0  0  0  0  0  0  0  0  0  0  0  0
  2  1  1  6
  2  3  1  0
  3  4  1  0
  4  8  1  0
  5  4  2  0
  6  2  1  0
  6  9  1  0
  7  6  2  0
 10  9  1  0
 11 12  1  0
 10 11  1  1
 12 13  1  0
 13 17  1  0
 14 13  2  0
 15 16  2  0
 15 10  1  0
 18 15  1  0
 19 18  1  0
 19 20  1  1
 21 20  1  0
 21 22  2  0
 23 19  1  0
 24 23  1  0
 25 21  1  0
 26 23  2  0
M  END
$$$$
