DED.pdb
     RDKit          3D

 26 25  0  0  1  0  0  0  0  0999 V2000
   10.8741  -16.7883   15.0006 N   0  0  0  0  0  0  0  0  0  0  0  0
   11.6798  -17.3773   16.0431 C   0  0  1  0  0  0  0  0  0  0  0  0
   13.1216  -17.0770   15.7010 C   0  0  0  0  0  0  0  0  0  0  0  0
   13.5142  -17.4914   14.3504 C   0  0  0  0  0  0  0  0  0  0  0  0
   13.1249  -18.5494   13.8082 O   0  0  0  0  0  0  0  0  0  0  0  0
   11.3260  -16.8348   17.3574 C   0  0  0  0  0  0  0  0  0  0  0  0
   11.5528  -15.6606   17.7294 O   0  0  0  0  0  0  0  0  0  0  0  0
   14.3745  -16.6768   13.5971 O   0  0  0  0  0  0  0  0  0  0  0  0
   10.6679  -17.6889   18.3161 N   0  0  0  0  0  0  0  0  0  0  0  0
   10.3453  -17.1810   19.6338 C   0  0  1  0  0  0  0  0  0  0  0  0
    9.2763  -18.0695   20.2273 C   0  0  0  0  0  0  0  0  0  0  0  0
    8.0406  -17.9804   19.4020 C   0  0  0  0  0  0  0  0  0  0  0  0
    6.9521  -18.8610   19.8862 C   0  0  0  0  0  0  0  0  0  0  0  0
    7.0511  -19.5689   20.9096 O   0  0  0  0  0  0  0  0  0  0  0  0
   11.5935  -17.2472   20.4453 C   0  0  0  0  0  0  0  0  0  0  0  0
   12.6708  -17.6784   19.9609 O   0  0  0  0  0  0  0  0  0  0  0  0
    5.7738  -18.8960   19.1660 O   0  0  0  0  0  0  0  0  0  0  0  0
   11.5969  -16.8154   21.8154 N   0  0  0  0  0  0  0  0  0  0  0  0
   12.8221  -16.9320   22.5795 C   0  0  1  0  0  0  0  0  0  0  0  0
   13.8248  -15.8758   22.1827 C   0  0  0  0  0  0  0  0  0  0  0  0
   15.0814  -15.9751   22.9360 C   0  0  0  0  0  0  0  0  0  0  0  0
   15.6637  -15.0154   23.5011 O   0  0  0  0  0  0  0  0  0  0  0  0
   12.5319  -16.9220   24.0265 C   0  0  0  0  0  0  0  0  0  0  0  0
   13.4350  -17.4245   24.9526 O   0  0  0  0  0  0  0  0  0  0  0  0
   15.6881  -17.2237   23.0422 O   0  0  0  0  0  0  0  0  0  0  0  0
   11.4444  -16.4477   24.4213 O   0  0  0  0  0  0  0  0  0  0  0  0
  2  1  1  6
  2  3  1  0
  3  4  1  0
  4  8  1  0
  5  4  2  0
  6  2  1  0
  6  9  1  0
  7  6  2  0
 10  9  1  0
 11 12  1  0
 10 11  1  1
 12 13  1  0
 13 17  1  0
 14 13  2  0
 15 16  2  0
 15 10  1  0
 18 15  1  0
 19 18  1  0
 19 20  1  1
 21 20  1  0
 21 22  2  0
 23 19  1  0
 24 23  1  0
 25 21  1  0
 26 23  2  0
M  END
$$$$
