DED.pdb
     RDKit          3D

 26 25  0  0  1  0  0  0  0  0999 V2000
   11.2694  -19.8010   17.1753 N   0  0  0  0  0  0  0  0  0  0  0  0
   11.0388  -18.4482   17.6223 C   0  0  1  0  0  0  0  0  0  0  0  0
    9.5736  -18.1568   17.3894 C   0  0  0  0  0  0  0  0  0  0  0  0
    9.1338  -18.3718   16.0072 C   0  0  0  0  0  0  0  0  0  0  0  0
    8.0108  -18.0300   15.5749 O   0  0  0  0  0  0  0  0  0  0  0  0
   11.3894  -18.2896   19.0360 C   0  0  0  0  0  0  0  0  0  0  0  0
   11.1838  -17.2547   19.7106 O   0  0  0  0  0  0  0  0  0  0  0  0
    9.9984  -18.9938   15.0927 O   0  0  0  0  0  0  0  0  0  0  0  0
   12.0187  -19.3863   19.7311 N   0  0  0  0  0  0  0  0  0  0  0  0
   12.3145  -19.2707   21.1445 C   0  0  1  0  0  0  0  0  0  0  0  0
   12.1238  -20.6317   21.7736 C   0  0  0  0  0  0  0  0  0  0  0  0
   10.6791  -20.8504   22.0580 C   0  0  0  0  0  0  0  0  0  0  0  0
   10.3971  -22.1772   22.6535 C   0  0  0  0  0  0  0  0  0  0  0  0
   10.2670  -23.2165   21.9743 O   0  0  0  0  0  0  0  0  0  0  0  0
   13.7344  -18.8331   21.2594 C   0  0  0  0  0  0  0  0  0  0  0  0
   14.6051  -19.2006   20.4299 O   0  0  0  0  0  0  0  0  0  0  0  0
   10.2730  -22.2616   24.0268 O   0  0  0  0  0  0  0  0  0  0  0  0
   14.1480  -17.9716   22.3320 N   0  0  0  0  0  0  0  0  0  0  0  0
   15.5179  -17.5013   22.3591 C   0  0  1  0  0  0  0  0  0  0  0  0
   15.6004  -16.0617   22.8050 C   0  0  0  0  0  0  0  0  0  0  0  0
   16.9722  -15.5382   22.7810 C   0  0  0  0  0  0  0  0  0  0  0  0
   17.7208  -15.4250   23.7841 O   0  0  0  0  0  0  0  0  0  0  0  0
   16.3558  -18.3972   23.1798 C   0  0  0  0  0  0  0  0  0  0  0  0
   17.6580  -18.7098   22.8162 O   0  0  0  0  0  0  0  0  0  0  0  0
   17.4999  -15.1312   21.5586 O   0  0  0  0  0  0  0  0  0  0  0  0
   15.8751  -18.8829   24.2269 O   0  0  0  0  0  0  0  0  0  0  0  0
  2  1  1  1
  2  3  1  0
  3  4  1  0
  4  8  1  0
  5  4  2  0
  6  2  1  0
  6  9  1  0
  7  6  2  0
 10  9  1  0
 11 12  1  0
 10 11  1  1
 12 13  1  0
 13 17  1  0
 14 13  2  0
 15 16  2  0
 15 10  1  0
 18 15  1  0
 19 18  1  0
 19 20  1  1
 21 20  1  0
 21 22  2  0
 23 19  1  0
 24 23  1  0
 25 21  1  0
 26 23  2  0
M  END
$$$$
