DED.pdb
     RDKit          3D

 26 25  0  0  1  0  0  0  0  0999 V2000
   10.6708  -16.2570   16.5809 N   0  0  0  0  0  0  0  0  0  0  0  0
   10.7460  -14.8212   16.7066 C   0  0  1  0  0  0  0  0  0  0  0  0
    9.3650  -14.2850   16.4046 C   0  0  0  0  0  0  0  0  0  0  0  0
    8.6442  -15.0374   15.3729 C   0  0  0  0  0  0  0  0  0  0  0  0
    9.1352  -16.0030   14.7472 O   0  0  0  0  0  0  0  0  0  0  0  0
   11.1818  -14.4285   18.0492 C   0  0  0  0  0  0  0  0  0  0  0  0
   11.2866  -13.2460   18.4482 O   0  0  0  0  0  0  0  0  0  0  0  0
    7.3269  -14.6789   15.0455 O   0  0  0  0  0  0  0  0  0  0  0  0
   11.5226  -15.4539   19.0053 N   0  0  0  0  0  0  0  0  0  0  0  0
   12.0796  -15.0861   20.2910 C   0  0  1  0  0  0  0  0  0  0  0  0
   11.3570  -15.8783   21.3562 C   0  0  0  0  0  0  0  0  0  0  0  0
   11.9675  -15.5981   22.6846 C   0  0  0  0  0  0  0  0  0  0  0  0
   11.4241  -16.4513   23.7669 C   0  0  0  0  0  0  0  0  0  0  0  0
   11.2186  -16.0355   24.9259 O   0  0  0  0  0  0  0  0  0  0  0  0
   13.5256  -15.4451   20.2595 C   0  0  0  0  0  0  0  0  0  0  0  0
   13.9076  -16.6140   19.9973 O   0  0  0  0  0  0  0  0  0  0  0  0
   11.1331  -17.7694   23.4731 O   0  0  0  0  0  0  0  0  0  0  0  0
   14.5296  -14.4541   20.5309 N   0  0  0  0  0  0  0  0  0  0  0  0
   15.9202  -14.8593   20.5537 C   0  0  1  0  0  0  0  0  0  0  0  0
   16.7885  -13.9030   19.7728 C   0  0  0  0  0  0  0  0  0  0  0  0
   16.6879  -14.1017   18.3213 C   0  0  0  0  0  0  0  0  0  0  0  0
   16.2481  -15.1377   17.7618 O   0  0  0  0  0  0  0  0  0  0  0  0
   16.3837  -15.0390   21.9433 C   0  0  0  0  0  0  0  0  0  0  0  0
   15.5356  -14.8408   23.0238 O   0  0  0  0  0  0  0  0  0  0  0  0
   17.1084  -13.0709   17.4853 O   0  0  0  0  0  0  0  0  0  0  0  0
   17.5701  -15.3782   22.1455 O   0  0  0  0  0  0  0  0  0  0  0  0
  2  1  1  1
  2  3  1  0
  3  4  1  0
  4  8  1  0
  5  4  2  0
  6  2  1  0
  6  9  1  0
  7  6  2  0
 10  9  1  0
 11 12  1  0
 10 11  1  1
 12 13  1  0
 13 17  1  0
 14 13  2  0
 15 16  2  0
 15 10  1  0
 18 15  1  0
 19 18  1  0
 19 20  1  1
 21 20  1  0
 21 22  2  0
 23 19  1  0
 24 23  1  0
 25 21  1  0
 26 23  2  0
M  END
$$$$
