DED.pdb
     RDKit          3D

 26 25  0  0  1  0  0  0  0  0999 V2000
   15.6510  -15.9492   16.0791 N   0  0  0  0  0  0  0  0  0  0  0  0
   14.9109  -16.9311   16.8347 C   0  0  1  0  0  0  0  0  0  0  0  0
   15.4965  -18.2807   16.4856 C   0  0  0  0  0  0  0  0  0  0  0  0
   16.8212  -18.2138   15.8606 C   0  0  0  0  0  0  0  0  0  0  0  0
   17.2160  -17.2469   15.1721 O   0  0  0  0  0  0  0  0  0  0  0  0
   15.0033  -16.6729   18.2739 C   0  0  0  0  0  0  0  0  0  0  0  0
   15.5510  -15.6694   18.7854 O   0  0  0  0  0  0  0  0  0  0  0  0
   17.7208  -19.2790   16.0253 O   0  0  0  0  0  0  0  0  0  0  0  0
   14.4323  -17.6240   19.1965 N   0  0  0  0  0  0  0  0  0  0  0  0
   14.4673  -17.3594   20.6203 C   0  0  1  0  0  0  0  0  0  0  0  0
   13.1703  -17.8536   21.2186 C   0  0  0  0  0  0  0  0  0  0  0  0
   12.0661  -17.6636   20.2385 C   0  0  0  0  0  0  0  0  0  0  0  0
   10.7976  -18.3028   20.6591 C   0  0  0  0  0  0  0  0  0  0  0  0
    9.7543  -18.2649   19.9747 O   0  0  0  0  0  0  0  0  0  0  0  0
   15.6245  -18.1158   21.1770 C   0  0  0  0  0  0  0  0  0  0  0  0
   16.1854  -19.0332   20.5252 O   0  0  0  0  0  0  0  0  0  0  0  0
   10.7748  -18.9713   21.8678 O   0  0  0  0  0  0  0  0  0  0  0  0
   16.1330  -17.8124   22.4858 N   0  0  0  0  0  0  0  0  0  0  0  0
   17.5650  -17.8476   22.7021 C   0  0  1  0  0  0  0  0  0  0  0  0
   18.2964  -16.9761   21.7103 C   0  0  0  0  0  0  0  0  0  0  0  0
   19.7561  -17.0791   21.8331 C   0  0  0  0  0  0  0  0  0  0  0  0
   20.4223  -16.7433   22.8445 O   0  0  0  0  0  0  0  0  0  0  0  0
   17.8849  -17.5042   24.1014 C   0  0  0  0  0  0  0  0  0  0  0  0
   18.6121  -18.3636   24.9128 O   0  0  0  0  0  0  0  0  0  0  0  0
   20.4731  -17.5868   20.7531 O   0  0  0  0  0  0  0  0  0  0  0  0
   17.4885  -16.4110   24.5611 O   0  0  0  0  0  0  0  0  0  0  0  0
  2  1  1  6
  2  3  1  0
  3  4  1  0
  4  8  1  0
  5  4  2  0
  6  2  1  0
  6  9  1  0
  7  6  2  0
 10  9  1  0
 11 12  1  0
 10 11  1  1
 12 13  1  0
 13 17  1  0
 14 13  2  0
 15 16  2  0
 15 10  1  0
 18 15  1  0
 19 18  1  0
 19 20  1  6
 21 20  1  0
 21 22  2  0
 23 19  1  0
 24 23  1  0
 25 21  1  0
 26 23  2  0
M  END
$$$$
