DED.pdb
     RDKit          3D

 26 25  0  0  1  0  0  0  0  0999 V2000
   11.3358  -17.1084   19.1700 N   0  0  0  0  0  0  0  0  0  0  0  0
   10.6050  -17.9359   20.0997 C   0  0  1  0  0  0  0  0  0  0  0  0
   10.1037  -19.1295   19.3187 C   0  0  0  0  0  0  0  0  0  0  0  0
    9.4086  -18.7812   18.0755 C   0  0  0  0  0  0  0  0  0  0  0  0
    9.8584  -19.0308   16.9352 O   0  0  0  0  0  0  0  0  0  0  0  0
   11.4546  -18.3562   21.2169 C   0  0  0  0  0  0  0  0  0  0  0  0
   11.5829  -19.5381   21.6107 O   0  0  0  0  0  0  0  0  0  0  0  0
    8.1660  -18.1303   18.1341 O   0  0  0  0  0  0  0  0  0  0  0  0
   12.2115  -17.3611   21.9371 N   0  0  0  0  0  0  0  0  0  0  0  0
   13.1157  -17.7666   22.9937 C   0  0  1  0  0  0  0  0  0  0  0  0
   14.1739  -16.6971   23.1380 C   0  0  0  0  0  0  0  0  0  0  0  0
   15.2282  -16.8980   22.1065 C   0  0  0  0  0  0  0  0  0  0  0  0
   16.2931  -15.8692   22.1541 C   0  0  0  0  0  0  0  0  0  0  0  0
   17.1432  -15.7245   21.2514 O   0  0  0  0  0  0  0  0  0  0  0  0
   12.3080  -17.8781   24.2411 C   0  0  0  0  0  0  0  0  0  0  0  0
   11.6835  -16.8929   24.7106 O   0  0  0  0  0  0  0  0  0  0  0  0
   16.3423  -15.0333   23.2527 O   0  0  0  0  0  0  0  0  0  0  0  0
   12.2220  -19.1271   24.9456 N   0  0  0  0  0  0  0  0  0  0  0  0
   11.5377  -19.1614   26.2219 C   0  0  1  0  0  0  0  0  0  0  0  0
   10.7936  -20.4601   26.4166 C   0  0  0  0  0  0  0  0  0  0  0  0
    9.7820  -20.6954   25.3785 C   0  0  0  0  0  0  0  0  0  0  0  0
    9.4794  -19.8851   24.4667 O   0  0  0  0  0  0  0  0  0  0  0  0
   12.4804  -18.8786   27.3217 C   0  0  0  0  0  0  0  0  0  0  0  0
   13.8356  -18.6929   27.0878 O   0  0  0  0  0  0  0  0  0  0  0  0
    9.0952  -21.9063   25.3913 O   0  0  0  0  0  0  0  0  0  0  0  0
   12.0413  -18.8057   28.4902 O   0  0  0  0  0  0  0  0  0  0  0  0
  2  1  1  6
  2  3  1  0
  3  4  1  0
  4  8  1  0
  5  4  2  0
  6  2  1  0
  6  9  1  0
  7  6  2  0
 10  9  1  0
 11 12  1  0
 10 11  1  1
 12 13  1  0
 13 17  1  0
 14 13  2  0
 15 16  2  0
 15 10  1  0
 18 15  1  0
 19 18  1  0
 19 20  1  1
 21 20  1  0
 21 22  2  0
 23 19  1  0
 24 23  1  0
 25 21  1  0
 26 23  2  0
M  END
$$$$
