DED.pdb
     RDKit          3D

 26 25  0  0  1  0  0  0  0  0999 V2000
   11.9825  -18.8518   14.7391 N   0  0  0  0  0  0  0  0  0  0  0  0
   10.9140  -18.5734   15.6684 C   0  0  1  0  0  0  0  0  0  0  0  0
    9.6617  -19.1919   15.0896 C   0  0  0  0  0  0  0  0  0  0  0  0
    9.2925  -18.6703   13.7698 C   0  0  0  0  0  0  0  0  0  0  0  0
   10.1111  -18.4873   12.8418 O   0  0  0  0  0  0  0  0  0  0  0  0
   11.2081  -19.1221   16.9947 C   0  0  0  0  0  0  0  0  0  0  0  0
   10.4292  -19.0775   17.9745 O   0  0  0  0  0  0  0  0  0  0  0  0
    7.9528  -18.3483   13.5008 O   0  0  0  0  0  0  0  0  0  0  0  0
   12.4786  -19.7670   17.2224 N   0  0  0  0  0  0  0  0  0  0  0  0
   12.7985  -20.2889   18.5353 C   0  0  1  0  0  0  0  0  0  0  0  0
   13.6647  -21.5139   18.3519 C   0  0  0  0  0  0  0  0  0  0  0  0
   14.0566  -22.0500   19.6841 C   0  0  0  0  0  0  0  0  0  0  0  0
   14.9255  -23.2468   19.5975 C   0  0  0  0  0  0  0  0  0  0  0  0
   16.0091  -23.3493   20.2089 O   0  0  0  0  0  0  0  0  0  0  0  0
   13.5445  -19.2216   19.2600 C   0  0  0  0  0  0  0  0  0  0  0  0
   14.3937  -18.5007   18.6766 O   0  0  0  0  0  0  0  0  0  0  0  0
   14.5112  -24.2960   18.8002 O   0  0  0  0  0  0  0  0  0  0  0  0
   13.3096  -18.9875   20.6577 N   0  0  0  0  0  0  0  0  0  0  0  0
   14.0334  -17.9195   21.3165 C   0  0  1  0  0  0  0  0  0  0  0  0
   13.2818  -17.4001   22.5180 C   0  0  0  0  0  0  0  0  0  0  0  0
   13.9320  -16.2366   23.1342 C   0  0  0  0  0  0  0  0  0  0  0  0
   15.0627  -15.7880   22.8179 O   0  0  0  0  0  0  0  0  0  0  0  0
   15.4041  -18.3531   21.6501 C   0  0  0  0  0  0  0  0  0  0  0  0
   16.5132  -17.6042   21.2828 O   0  0  0  0  0  0  0  0  0  0  0  0
   13.2561  -15.5664   24.1502 O   0  0  0  0  0  0  0  0  0  0  0  0
   15.5634  -19.4220   22.2792 O   0  0  0  0  0  0  0  0  0  0  0  0
  2  1  1  6
  2  3  1  0
  3  4  1  0
  4  8  1  0
  5  4  2  0
  6  2  1  0
  6  9  1  0
  7  6  2  0
 10  9  1  0
 11 12  1  0
 10 11  1  6
 12 13  1  0
 13 17  1  0
 14 13  2  0
 15 16  2  0
 15 10  1  0
 18 15  1  0
 19 18  1  0
 19 20  1  1
 21 20  1  0
 21 22  2  0
 23 19  1  0
 24 23  1  0
 25 21  1  0
 26 23  2  0
M  END
$$$$
