DED.pdb
     RDKit          3D

 26 25  0  0  1  0  0  0  0  0999 V2000
    9.4678  -18.0766   19.9017 N   0  0  0  0  0  0  0  0  0  0  0  0
    9.9867  -19.2521   20.5588 C   0  0  1  0  0  0  0  0  0  0  0  0
   11.4943  -19.1492   20.5078 C   0  0  0  0  0  0  0  0  0  0  0  0
   12.0321  -18.9123   19.1645 C   0  0  0  0  0  0  0  0  0  0  0  0
   11.5588  -19.4257   18.1266 O   0  0  0  0  0  0  0  0  0  0  0  0
    9.5110  -19.3403   21.9417 C   0  0  0  0  0  0  0  0  0  0  0  0
    9.3406  -18.3596   22.7019 O   0  0  0  0  0  0  0  0  0  0  0  0
   13.1405  -18.0664   18.9999 O   0  0  0  0  0  0  0  0  0  0  0  0
    9.2079  -20.6361   22.4992 N   0  0  0  0  0  0  0  0  0  0  0  0
    8.7520  -20.7438   23.8700 C   0  0  1  0  0  0  0  0  0  0  0  0
    7.6288  -21.7544   23.9099 C   0  0  0  0  0  0  0  0  0  0  0  0
    7.1843  -21.9488   25.3172 C   0  0  0  0  0  0  0  0  0  0  0  0
    6.1956  -23.0414   25.4700 C   0  0  0  0  0  0  0  0  0  0  0  0
    6.3793  -24.1949   25.0293 O   0  0  0  0  0  0  0  0  0  0  0  0
    9.9109  -21.2142   24.6802 C   0  0  0  0  0  0  0  0  0  0  0  0
   10.8401  -21.8896   24.1688 O   0  0  0  0  0  0  0  0  0  0  0  0
    5.0157  -22.7640   26.1327 O   0  0  0  0  0  0  0  0  0  0  0  0
    9.9961  -20.9045   26.0804 N   0  0  0  0  0  0  0  0  0  0  0  0
   11.2708  -20.4830   26.6244 C   0  0  1  0  0  0  0  0  0  0  0  0
   11.8982  -19.3957   25.7861 C   0  0  0  0  0  0  0  0  0  0  0  0
   13.2717  -19.7162   25.3773 C   0  0  0  0  0  0  0  0  0  0  0  0
   13.9221  -20.7236   25.7538 O   0  0  0  0  0  0  0  0  0  0  0  0
   11.1252  -20.0933   28.0404 C   0  0  0  0  0  0  0  0  0  0  0  0
   12.0896  -20.4136   28.9854 O   0  0  0  0  0  0  0  0  0  0  0  0
   13.9185  -18.8457   24.5043 O   0  0  0  0  0  0  0  0  0  0  0  0
   10.1060  -19.4592   28.3908 O   0  0  0  0  0  0  0  0  0  0  0  0
  2  1  1  1
  2  3  1  0
  3  4  1  0
  4  8  1  0
  5  4  2  0
  6  2  1  0
  6  9  1  0
  7  6  2  0
 10  9  1  0
 11 12  1  0
 10 11  1  6
 12 13  1  0
 13 17  1  0
 14 13  2  0
 15 16  2  0
 15 10  1  0
 18 15  1  0
 19 18  1  0
 19 20  1  6
 21 20  1  0
 21 22  2  0
 23 19  1  0
 24 23  1  0
 25 21  1  0
 26 23  2  0
M  END
$$$$
