DED.pdb
     RDKit          3D

 26 25  0  0  1  0  0  0  0  0999 V2000
    8.2606  -14.1465   20.2270 N   0  0  0  0  0  0  0  0  0  0  0  0
    7.9310  -14.8018   21.4700 C   0  0  1  0  0  0  0  0  0  0  0  0
    6.5360  -15.3626   21.3096 C   0  0  0  0  0  0  0  0  0  0  0  0
    6.3825  -16.2643   20.1637 C   0  0  0  0  0  0  0  0  0  0  0  0
    7.3327  -16.6341   19.4390 O   0  0  0  0  0  0  0  0  0  0  0  0
    8.8927  -15.8623   21.7818 C   0  0  0  0  0  0  0  0  0  0  0  0
    8.8174  -16.6255   22.7719 O   0  0  0  0  0  0  0  0  0  0  0  0
    5.1101  -16.7583   19.8350 O   0  0  0  0  0  0  0  0  0  0  0  0
   10.0198  -16.0687   20.9050 N   0  0  0  0  0  0  0  0  0  0  0  0
   10.9143  -17.1857   21.1296 C   0  0  1  0  0  0  0  0  0  0  0  0
   11.5967  -17.5075   19.8199 C   0  0  0  0  0  0  0  0  0  0  0  0
   12.4348  -18.7270   19.9820 C   0  0  0  0  0  0  0  0  0  0  0  0
   13.1592  -19.1043   18.7461 C   0  0  0  0  0  0  0  0  0  0  0  0
   14.2978  -18.6767   18.4646 O   0  0  0  0  0  0  0  0  0  0  0  0
   11.9111  -16.7494   22.1480 C   0  0  0  0  0  0  0  0  0  0  0  0
   12.3441  -15.5694   22.1810 O   0  0  0  0  0  0  0  0  0  0  0  0
   12.5394  -19.9711   17.8669 O   0  0  0  0  0  0  0  0  0  0  0  0
   12.4070  -17.6760   23.1274 N   0  0  0  0  0  0  0  0  0  0  0  0
   13.3989  -17.2190   24.0792 C   0  0  1  0  0  0  0  0  0  0  0  0
   13.4116  -18.0773   25.3207 C   0  0  0  0  0  0  0  0  0  0  0  0
   12.2164  -17.8888   26.1528 C   0  0  0  0  0  0  0  0  0  0  0  0
   11.4414  -16.9012   26.0924 O   0  0  0  0  0  0  0  0  0  0  0  0
   14.7259  -17.1287   23.4397 C   0  0  0  0  0  0  0  0  0  0  0  0
   15.7785  -16.4537   24.0416 O   0  0  0  0  0  0  0  0  0  0  0  0
   11.9031  -18.8725   27.0869 O   0  0  0  0  0  0  0  0  0  0  0  0
   14.8998  -17.6757   22.3288 O   0  0  0  0  0  0  0  0  0  0  0  0
  2  1  1  6
  2  3  1  0
  3  4  1  0
  4  8  1  0
  5  4  2  0
  6  2  1  0
  6  9  1  0
  7  6  2  0
 10  9  1  0
 11 12  1  0
 10 11  1  6
 12 13  1  0
 13 17  1  0
 14 13  2  0
 15 16  2  0
 15 10  1  0
 18 15  1  0
 19 18  1  0
 19 20  1  1
 21 20  1  0
 21 22  2  0
 23 19  1  0
 24 23  1  0
 25 21  1  0
 26 23  2  0
M  END
$$$$
