DED.pdb
     RDKit          3D

 26 25  0  0  1  0  0  0  0  0999 V2000
   15.5138  -18.3489   15.6529 N   0  0  0  0  0  0  0  0  0  0  0  0
   15.6108  -19.0791   16.8940 C   0  0  1  0  0  0  0  0  0  0  0  0
   17.0692  -19.4332   17.0776 C   0  0  0  0  0  0  0  0  0  0  0  0
   17.6279  -20.2466   15.9930 C   0  0  0  0  0  0  0  0  0  0  0  0
   18.5070  -19.8392   15.2018 O   0  0  0  0  0  0  0  0  0  0  0  0
   15.1167  -18.2810   18.0189 C   0  0  0  0  0  0  0  0  0  0  0  0
   15.4482  -17.0963   18.2537 O   0  0  0  0  0  0  0  0  0  0  0  0
   17.1716  -21.5609   15.8055 O   0  0  0  0  0  0  0  0  0  0  0  0
   14.1791  -18.8730   18.9422 N   0  0  0  0  0  0  0  0  0  0  0  0
   13.6250  -18.0771   20.0182 C   0  0  1  0  0  0  0  0  0  0  0  0
   12.3190  -18.7096   20.4414 C   0  0  0  0  0  0  0  0  0  0  0  0
   11.7107  -17.9083   21.5385 C   0  0  0  0  0  0  0  0  0  0  0  0
   10.4086  -18.4447   21.9985 C   0  0  0  0  0  0  0  0  0  0  0  0
    9.3176  -18.1227   21.4842 O   0  0  0  0  0  0  0  0  0  0  0  0
   14.6100  -18.1076   21.1362 C   0  0  0  0  0  0  0  0  0  0  0  0
   15.2313  -19.1586   21.4369 O   0  0  0  0  0  0  0  0  0  0  0  0
   10.4086  -19.3438   23.0472 O   0  0  0  0  0  0  0  0  0  0  0  0
   14.8768  -16.9245   21.9061 N   0  0  0  0  0  0  0  0  0  0  0  0
   15.8443  -16.9969   22.9818 C   0  0  1  0  0  0  0  0  0  0  0  0
   16.7830  -15.8149   22.9628 C   0  0  0  0  0  0  0  0  0  0  0  0
   17.9374  -15.9930   23.8527 C   0  0  0  0  0  0  0  0  0  0  0  0
   18.4536  -15.0894   24.5575 O   0  0  0  0  0  0  0  0  0  0  0  0
   15.1623  -17.1573   24.2807 C   0  0  0  0  0  0  0  0  0  0  0  0
   15.8046  -17.7202   25.3745 O   0  0  0  0  0  0  0  0  0  0  0  0
   18.5171  -17.2562   23.9338 O   0  0  0  0  0  0  0  0  0  0  0  0
   13.9770  -16.7747   24.3921 O   0  0  0  0  0  0  0  0  0  0  0  0
  2  1  1  6
  2  3  1  0
  3  4  1  0
  4  8  1  0
  5  4  2  0
  6  2  1  0
  6  9  1  0
  7  6  2  0
 10  9  1  0
 11 12  1  0
 10 11  1  1
 12 13  1  0
 13 17  1  0
 14 13  2  0
 15 16  2  0
 15 10  1  0
 18 15  1  0
 19 18  1  0
 19 20  1  1
 21 20  1  0
 21 22  2  0
 23 19  1  0
 24 23  1  0
 25 21  1  0
 26 23  2  0
M  END
$$$$
