DED.pdb
     RDKit          3D

 26 25  0  0  1  0  0  0  0  0999 V2000
    9.1670  -12.9741   17.0728 N   0  0  0  0  0  0  0  0  0  0  0  0
    8.8828  -14.3889   17.0937 C   0  0  1  0  0  0  0  0  0  0  0  0
    8.6849  -14.8143   15.6564 C   0  0  0  0  0  0  0  0  0  0  0  0
    7.5658  -14.1467   14.9842 C   0  0  0  0  0  0  0  0  0  0  0  0
    7.6758  -13.0714   14.3544 O   0  0  0  0  0  0  0  0  0  0  0  0
    9.9738  -15.1399   17.7201 C   0  0  0  0  0  0  0  0  0  0  0  0
   10.0023  -16.3856   17.8466 O   0  0  0  0  0  0  0  0  0  0  0  0
    6.2856  -14.7211   15.0313 O   0  0  0  0  0  0  0  0  0  0  0  0
   11.1129  -14.4226   18.2394 N   0  0  0  0  0  0  0  0  0  0  0  0
   12.2676  -15.1527   18.7213 C   0  0  1  0  0  0  0  0  0  0  0  0
   13.5045  -14.5003   18.1478 C   0  0  0  0  0  0  0  0  0  0  0  0
   14.7179  -15.1362   18.7304 C   0  0  0  0  0  0  0  0  0  0  0  0
   15.9816  -14.5812   18.1922 C   0  0  0  0  0  0  0  0  0  0  0  0
   16.1022  -14.1711   17.0193 O   0  0  0  0  0  0  0  0  0  0  0  0
   12.2605  -15.0494   20.2080 C   0  0  0  0  0  0  0  0  0  0  0  0
   12.1849  -13.9373   20.7898 O   0  0  0  0  0  0  0  0  0  0  0  0
   17.0753  -14.5173   19.0337 O   0  0  0  0  0  0  0  0  0  0  0  0
   12.3410  -16.2305   21.0219 N   0  0  0  0  0  0  0  0  0  0  0  0
   12.4352  -16.0806   22.4596 C   0  0  1  0  0  0  0  0  0  0  0  0
   11.3430  -16.8440   23.1687 C   0  0  0  0  0  0  0  0  0  0  0  0
   11.4799  -16.8038   24.6302 C   0  0  0  0  0  0  0  0  0  0  0  0
   12.4115  -16.2359   25.2540 O   0  0  0  0  0  0  0  0  0  0  0  0
   13.7834  -16.4525   22.9309 C   0  0  0  0  0  0  0  0  0  0  0  0
   14.3089  -15.9400   24.1086 O   0  0  0  0  0  0  0  0  0  0  0  0
   10.5096  -17.4399   25.3998 O   0  0  0  0  0  0  0  0  0  0  0  0
   14.4638  -17.2491   22.2481 O   0  0  0  0  0  0  0  0  0  0  0  0
  2  1  1  6
  2  3  1  0
  3  4  1  0
  4  8  1  0
  5  4  2  0
  6  2  1  0
  6  9  1  0
  7  6  2  0
 10  9  1  0
 11 12  1  0
 10 11  1  6
 12 13  1  0
 13 17  1  0
 14 13  2  0
 15 16  2  0
 15 10  1  0
 18 15  1  0
 19 18  1  0
 19 20  1  1
 21 20  1  0
 21 22  2  0
 23 19  1  0
 24 23  1  0
 25 21  1  0
 26 23  2  0
M  END
$$$$
