DED.pdb
     RDKit          3D

 26 25  0  0  1  0  0  0  0  0999 V2000
   15.9340  -15.1567   16.2069 N   0  0  0  0  0  0  0  0  0  0  0  0
   15.8570  -13.9324   16.9673 C   0  0  1  0  0  0  0  0  0  0  0  0
   15.7653  -12.8033   15.9659 C   0  0  0  0  0  0  0  0  0  0  0  0
   16.8983  -12.7341   15.0377 C   0  0  0  0  0  0  0  0  0  0  0  0
   18.0690  -13.0485   15.3466 O   0  0  0  0  0  0  0  0  0  0  0  0
   14.6984  -13.9369   17.8640 C   0  0  0  0  0  0  0  0  0  0  0  0
   14.4071  -13.0135   18.6584 O   0  0  0  0  0  0  0  0  0  0  0  0
   16.6906  -12.2943   13.7208 O   0  0  0  0  0  0  0  0  0  0  0  0
   13.8084  -15.0725   17.8565 N   0  0  0  0  0  0  0  0  0  0  0  0
   12.6685  -15.1026   18.7499 C   0  0  1  0  0  0  0  0  0  0  0  0
   11.5443  -15.8286   18.0473 C   0  0  0  0  0  0  0  0  0  0  0  0
   10.3581  -15.8952   18.9441 C   0  0  0  0  0  0  0  0  0  0  0  0
    9.1737  -16.5077   18.2986 C   0  0  0  0  0  0  0  0  0  0  0  0
    9.2404  -17.5176   17.5677 O   0  0  0  0  0  0  0  0  0  0  0  0
   13.0904  -15.8446   19.9716 C   0  0  0  0  0  0  0  0  0  0  0  0
   13.4612  -17.0448   19.9169 O   0  0  0  0  0  0  0  0  0  0  0  0
    7.9391  -15.9286   18.5199 O   0  0  0  0  0  0  0  0  0  0  0  0
   13.0838  -15.2001   21.2554 N   0  0  0  0  0  0  0  0  0  0  0  0
   13.3782  -15.9906   22.4332 C   0  0  1  0  0  0  0  0  0  0  0  0
   14.5350  -15.4134   23.2123 C   0  0  0  0  0  0  0  0  0  0  0  0
   15.8042  -15.4808   22.4767 C   0  0  0  0  0  0  0  0  0  0  0  0
   16.0097  -16.1778   21.4512 O   0  0  0  0  0  0  0  0  0  0  0  0
   12.1668  -16.1584   23.2592 C   0  0  0  0  0  0  0  0  0  0  0  0
   12.1295  -17.0498   24.3222 O   0  0  0  0  0  0  0  0  0  0  0  0
   16.8737  -14.7185   22.9385 O   0  0  0  0  0  0  0  0  0  0  0  0
   11.1528  -15.4781   22.9899 O   0  0  0  0  0  0  0  0  0  0  0  0
  2  1  1  6
  2  3  1  0
  3  4  1  0
  4  8  1  0
  5  4  2  0
  6  2  1  0
  6  9  1  0
  7  6  2  0
 10  9  1  0
 11 12  1  0
 10 11  1  6
 12 13  1  0
 13 17  1  0
 14 13  2  0
 15 16  2  0
 15 10  1  0
 18 15  1  0
 19 18  1  0
 19 20  1  1
 21 20  1  0
 21 22  2  0
 23 19  1  0
 24 23  1  0
 25 21  1  0
 26 23  2  0
M  END
$$$$
