LGV.pdb
     RDKit          3D

 20 19  0  0  1  0  0  0  0  0999 V2000
    7.3502  -11.9455   20.1364 C   0  0  0  0  0  0  0  0  0  0  0  0
    7.6906  -13.4207   20.1061 C   0  0  1  0  0  0  0  0  0  0  0  0
    8.8479  -13.6522   19.1792 C   0  0  0  0  0  0  0  0  0  0  0  0
    7.8668  -13.9798   21.4697 C   0  0  0  0  0  0  0  0  0  0  0  0
    8.1324  -15.4600   21.5016 C   0  0  2  0  0  0  0  0  0  0  0  0
    6.9479  -16.1285   21.0131 N   0  0  0  0  0  0  0  0  0  0  0  0
    8.4839  -15.9217   22.8825 C   0  0  0  0  0  0  0  0  0  0  0  0
    9.6223  -15.6872   23.3578 O   0  0  0  0  0  0  0  0  0  0  0  0
    7.5594  -16.6310   23.6957 N   0  0  0  0  0  0  0  0  0  0  0  0
    7.8868  -17.2824   24.9425 C   0  0  0  0  0  0  0  0  0  0  0  0
    9.0500  -16.7704   25.6447 C   0  0  0  0  0  0  0  0  0  0  0  0
   10.1743  -16.9002   25.0924 O   0  0  0  0  0  0  0  0  0  0  0  0
    8.9973  -14.2229   29.1698 C   0  0  0  0  0  0  0  0  0  0  0  0
   10.0338  -14.2801   28.0739 C   0  0  2  0  0  0  0  0  0  0  0  0
    9.6587  -13.3262   26.9729 C   0  0  0  0  0  0  0  0  0  0  0  0
   10.1869  -15.6959   27.5556 C   0  0  2  0  0  0  0  0  0  0  0  0
    8.9884  -16.1455   26.8982 N   0  0  0  0  0  0  0  0  0  0  0  0
   10.5920  -16.5968   28.6616 C   0  0  0  0  0  0  0  0  0  0  0  0
    9.7522  -17.4419   29.0635 O   0  0  0  0  0  0  0  0  0  0  0  0
   11.8265  -16.5680   29.2761 O   0  0  0  0  0  0  0  0  0  0  0  0
  2  1  1  1
  3  2  1  0
  4  2  1  0
  5  4  1  0
  5  6  1  1
  7  5  1  0
  7  8  2  0
  9 10  1  0
  9  7  1  0
 10 11  1  0
 11 17  1  0
 11 12  2  0
 14 13  1  1
 14 15  1  0
 16 14  1  0
 16 17  1  1
 18 16  1  0
 18 20  1  0
 19 18  2  0
M  END
$$$$
