LGV.pdb
     RDKit          3D

 20 19  0  0  1  0  0  0  0  0999 V2000
    6.9780  -11.1606   26.0562 C   0  0  0  0  0  0  0  0  0  0  0  0
    6.2546  -12.4379   25.6844 C   0  0  1  0  0  0  0  0  0  0  0  0
    4.7817  -12.2694   25.9175 C   0  0  0  0  0  0  0  0  0  0  0  0
    6.6173  -12.9077   24.3240 C   0  0  0  0  0  0  0  0  0  0  0  0
    6.5812  -14.4020   24.1557 C   0  0  2  0  0  0  0  0  0  0  0  0
    6.1807  -14.9760   25.4201 N   0  0  0  0  0  0  0  0  0  0  0  0
    7.9108  -14.9339   23.7167 C   0  0  0  0  0  0  0  0  0  0  0  0
    8.2540  -14.8636   22.5109 O   0  0  0  0  0  0  0  0  0  0  0  0
    8.8212  -15.5290   24.6313 N   0  0  0  0  0  0  0  0  0  0  0  0
   10.1455  -15.9954   24.2925 C   0  0  0  0  0  0  0  0  0  0  0  0
   10.9519  -16.4858   25.3958 C   0  0  0  0  0  0  0  0  0  0  0  0
   12.1351  -16.8388   25.1478 O   0  0  0  0  0  0  0  0  0  0  0  0
   10.0218  -15.6573   29.5978 C   0  0  0  0  0  0  0  0  0  0  0  0
   11.2747  -15.5296   28.7656 C   0  0  2  0  0  0  0  0  0  0  0  0
   11.2610  -14.2181   28.0290 C   0  0  0  0  0  0  0  0  0  0  0  0
   11.4065  -16.7013   27.8136 C   0  0  2  0  0  0  0  0  0  0  0  0
   10.4852  -16.5888   26.7138 N   0  0  0  0  0  0  0  0  0  0  0  0
   11.2420  -17.9748   28.5554 C   0  0  0  0  0  0  0  0  0  0  0  0
   10.2136  -18.6589   28.3199 O   0  0  0  0  0  0  0  0  0  0  0  0
   12.1410  -18.4560   29.4841 O   0  0  0  0  0  0  0  0  0  0  0  0
  2  1  1  6
  3  2  1  0
  4  2  1  0
  5  4  1  0
  5  6  1  1
  7  5  1  0
  7  8  2  0
  9 10  1  0
  9  7  1  0
 10 11  1  0
 11 17  1  0
 11 12  2  0
 14 13  1  6
 14 15  1  0
 16 14  1  0
 16 17  1  6
 18 16  1  0
 18 20  1  0
 19 18  2  0
M  END
$$$$
