LGV.pdb
     RDKit          3D

 20 19  0  0  1  0  0  0  0  0999 V2000
    5.8394  -11.9197   26.0830 C   0  0  0  0  0  0  0  0  0  0  0  0
    6.2762  -12.9537   25.0667 C   0  0  1  0  0  0  0  0  0  0  0  0
    7.6296  -12.5918   24.5287 C   0  0  0  0  0  0  0  0  0  0  0  0
    6.1691  -14.3358   25.5970 C   0  0  0  0  0  0  0  0  0  0  0  0
    6.6935  -15.3968   24.6687 C   0  0  2  0  0  0  0  0  0  0  0  0
    5.8549  -16.5642   24.8188 N   0  0  0  0  0  0  0  0  0  0  0  0
    8.1267  -15.7185   24.9619 C   0  0  0  0  0  0  0  0  0  0  0  0
    8.5415  -15.7381   26.1470 O   0  0  0  0  0  0  0  0  0  0  0  0
    9.0581  -16.0092   23.9288 N   0  0  0  0  0  0  0  0  0  0  0  0
   10.4581  -15.6551   23.9557 C   0  0  0  0  0  0  0  0  0  0  0  0
   11.1601  -15.9187   25.1990 C   0  0  0  0  0  0  0  0  0  0  0  0
   12.3797  -16.2257   25.1319 O   0  0  0  0  0  0  0  0  0  0  0  0
    9.7088  -15.2112   29.3450 C   0  0  0  0  0  0  0  0  0  0  0  0
   11.0517  -14.9925   28.6912 C   0  0  2  0  0  0  0  0  0  0  0  0
   11.1002  -13.6173   28.0835 C   0  0  0  0  0  0  0  0  0  0  0  0
   11.3254  -16.0673   27.6585 C   0  0  2  0  0  0  0  0  0  0  0  0
   10.5552  -15.8525   26.4621 N   0  0  0  0  0  0  0  0  0  0  0  0
   11.0843  -17.4064   28.2483 C   0  0  0  0  0  0  0  0  0  0  0  0
   11.8069  -17.7570   29.2157 O   0  0  0  0  0  0  0  0  0  0  0  0
   10.1217  -18.2896   27.8058 O   0  0  0  0  0  0  0  0  0  0  0  0
  2  1  1  1
  3  2  1  0
  4  2  1  0
  5  4  1  0
  5  6  1  1
  7  5  1  0
  7  8  2  0
  9 10  1  0
  9  7  1  0
 10 11  1  0
 11 17  1  0
 11 12  2  0
 14 13  1  6
 14 15  1  0
 16 14  1  0
 16 17  1  6
 18 16  1  0
 18 20  1  0
 19 18  2  0
M  END
$$$$
