LGV.pdb
     RDKit          3D

 20 19  0  0  1  0  0  0  0  0999 V2000
    5.7752  -22.8226   24.6231 C   0  0  0  0  0  0  0  0  0  0  0  0
    7.0673  -22.4252   23.9408 C   0  0  1  0  0  0  0  0  0  0  0  0
    7.4029  -23.4262   22.8742 C   0  0  0  0  0  0  0  0  0  0  0  0
    7.0435  -21.0141   23.4814 C   0  0  0  0  0  0  0  0  0  0  0  0
    7.3419  -20.0078   24.5589 C   0  0  2  0  0  0  0  0  0  0  0  0
    6.3215  -20.1371   25.5742 N   0  0  0  0  0  0  0  0  0  0  0  0
    7.3845  -18.6154   24.0085 C   0  0  0  0  0  0  0  0  0  0  0  0
    8.3398  -18.2520   23.2790 O   0  0  0  0  0  0  0  0  0  0  0  0
    6.3636  -17.6665   24.2851 N   0  0  0  0  0  0  0  0  0  0  0  0
    6.3066  -16.3315   23.7367 C   0  0  0  0  0  0  0  0  0  0  0  0
    7.2403  -15.3706   24.2960 C   0  0  0  0  0  0  0  0  0  0  0  0
    8.3516  -15.2275   23.7211 O   0  0  0  0  0  0  0  0  0  0  0  0
    6.2734  -12.4839   27.3366 C   0  0  0  0  0  0  0  0  0  0  0  0
    7.3417  -12.3403   26.2798 C   0  0  2  0  0  0  0  0  0  0  0  0
    6.7580  -11.6891   25.0559 C   0  0  0  0  0  0  0  0  0  0  0  0
    7.9566  -13.6866   25.9543 C   0  0  2  0  0  0  0  0  0  0  0  0
    6.9728  -14.6004   25.4366 N   0  0  0  0  0  0  0  0  0  0  0  0
    8.6502  -14.2263   27.1487 C   0  0  0  0  0  0  0  0  0  0  0  0
    9.6186  -13.5690   27.6081 O   0  0  0  0  0  0  0  0  0  0  0  0
    8.3030  -15.3990   27.7864 O   0  0  0  0  0  0  0  0  0  0  0  0
  2  1  1  6
  3  2  1  0
  4  2  1  0
  5  4  1  0
  5  6  1  1
  7  5  1  0
  7  8  2  0
  9 10  1  0
  9  7  1  0
 10 11  1  0
 11 17  1  0
 11 12  2  0
 14 13  1  1
 14 15  1  0
 16 14  1  0
 16 17  1  1
 18 16  1  0
 18 20  1  0
 19 18  2  0
M  END
$$$$
