LGV.pdb
     RDKit          3D

 20 19  0  0  1  0  0  0  0  0999 V2000
    7.2345  -12.5508   17.9947 C   0  0  0  0  0  0  0  0  0  0  0  0
    8.1960  -13.5762   18.5579 C   0  0  1  0  0  0  0  0  0  0  0  0
    9.2249  -12.8894   19.4075 C   0  0  0  0  0  0  0  0  0  0  0  0
    7.4874  -14.6961   19.2260 C   0  0  0  0  0  0  0  0  0  0  0  0
    8.3799  -15.5988   20.0331 C   0  0  2  0  0  0  0  0  0  0  0  0
    8.2383  -16.9381   19.5088 N   0  0  0  0  0  0  0  0  0  0  0  0
    8.0336  -15.5482   21.4895 C   0  0  0  0  0  0  0  0  0  0  0  0
    8.3065  -14.5289   22.1701 O   0  0  0  0  0  0  0  0  0  0  0  0
    7.3937  -16.6329   22.1478 N   0  0  0  0  0  0  0  0  0  0  0  0
    6.9021  -16.6005   23.5055 C   0  0  0  0  0  0  0  0  0  0  0  0
    7.7093  -15.8618   24.4599 C   0  0  0  0  0  0  0  0  0  0  0  0
    8.9525  -15.8127   24.2647 O   0  0  0  0  0  0  0  0  0  0  0  0
    8.0420  -12.0015   27.3641 C   0  0  0  0  0  0  0  0  0  0  0  0
    7.2173  -12.9652   26.5456 C   0  0  2  0  0  0  0  0  0  0  0  0
    5.8987  -13.2080   27.2275 C   0  0  0  0  0  0  0  0  0  0  0  0
    7.9737  -14.2588   26.3197 C   0  0  2  0  0  0  0  0  0  0  0  0
    7.1817  -15.2066   25.5814 N   0  0  0  0  0  0  0  0  0  0  0  0
    8.4370  -14.8053   27.6180 C   0  0  0  0  0  0  0  0  0  0  0  0
    9.2355  -14.1075   28.2936 O   0  0  0  0  0  0  0  0  0  0  0  0
    8.0501  -16.0258   28.1311 O   0  0  0  0  0  0  0  0  0  0  0  0
  2  1  1  1
  3  2  1  0
  4  2  1  0
  5  4  1  0
  5  6  1  6
  7  5  1  0
  7  8  2  0
  9 10  1  0
  9  7  1  0
 10 11  1  0
 11 17  1  0
 11 12  2  0
 14 13  1  1
 14 15  1  0
 16 14  1  0
 16 17  1  1
 18 16  1  0
 18 20  1  0
 19 18  2  0
M  END
$$$$
