LGV.pdb
     RDKit          3D

 20 19  0  0  1  0  0  0  0  0999 V2000
    7.1783  -12.8873   17.6236 C   0  0  0  0  0  0  0  0  0  0  0  0
    8.1677  -13.7447   18.3844 C   0  0  1  0  0  0  0  0  0  0  0  0
    9.2704  -12.8826   18.9258 C   0  0  0  0  0  0  0  0  0  0  0  0
    7.4996  -14.6035   19.3939 C   0  0  0  0  0  0  0  0  0  0  0  0
    8.4452  -15.3327   20.3086 C   0  0  2  0  0  0  0  0  0  0  0  0
    8.4688  -16.7188   19.9003 N   0  0  0  0  0  0  0  0  0  0  0  0
    8.0310  -15.1975   21.7417 C   0  0  0  0  0  0  0  0  0  0  0  0
    8.0974  -14.0836   22.3176 O   0  0  0  0  0  0  0  0  0  0  0  0
    7.5547  -16.3051   22.4938 N   0  0  0  0  0  0  0  0  0  0  0  0
    7.0283  -16.2263   23.8365 C   0  0  0  0  0  0  0  0  0  0  0  0
    7.8442  -15.5113   24.8017 C   0  0  0  0  0  0  0  0  0  0  0  0
    9.0955  -15.5701   24.6719 O   0  0  0  0  0  0  0  0  0  0  0  0
    6.2512  -12.8368   27.7832 C   0  0  0  0  0  0  0  0  0  0  0  0
    7.5707  -12.6601   27.0716 C   0  0  2  0  0  0  0  0  0  0  0  0
    7.3734  -11.8152   25.8429 C   0  0  0  0  0  0  0  0  0  0  0  0
    8.1788  -14.0055   26.7302 C   0  0  2  0  0  0  0  0  0  0  0  0
    7.3161  -14.7660   25.8652 N   0  0  0  0  0  0  0  0  0  0  0  0
    8.5126  -14.7387   27.9752 C   0  0  0  0  0  0  0  0  0  0  0  0
    7.8713  -15.7915   28.2226 O   0  0  0  0  0  0  0  0  0  0  0  0
    9.4780  -14.3418   28.8769 O   0  0  0  0  0  0  0  0  0  0  0  0
  2  1  1  1
  3  2  1  0
  4  2  1  0
  5  4  1  0
  5  6  1  6
  7  5  1  0
  7  8  2  0
  9 10  1  0
  9  7  1  0
 10 11  1  0
 11 17  1  0
 11 12  2  0
 14 13  1  6
 14 15  1  0
 16 14  1  0
 16 17  1  1
 18 16  1  0
 18 20  1  0
 19 18  2  0
M  END
$$$$
