LGV.pdb
     RDKit          3D

 20 19  0  0  1  0  0  0  0  0999 V2000
    7.7951  -11.8814   20.9028 C   0  0  0  0  0  0  0  0  0  0  0  0
    7.7140  -13.3922   20.9658 C   0  0  1  0  0  0  0  0  0  0  0  0
    7.3773  -13.9362   19.6083 C   0  0  0  0  0  0  0  0  0  0  0  0
    8.9204  -13.9891   21.5912 C   0  0  0  0  0  0  0  0  0  0  0  0
    8.8386  -15.4770   21.7963 C   0  0  2  0  0  0  0  0  0  0  0  0
    7.6823  -15.7430   22.6214 N   0  0  0  0  0  0  0  0  0  0  0  0
   10.0880  -16.0103   22.4274 C   0  0  0  0  0  0  0  0  0  0  0  0
   11.2101  -15.7538   21.9253 O   0  0  0  0  0  0  0  0  0  0  0  0
   10.0541  -16.8138   23.5989 N   0  0  0  0  0  0  0  0  0  0  0  0
   11.2182  -17.3371   24.2752 C   0  0  0  0  0  0  0  0  0  0  0  0
   11.3996  -16.9166   25.6530 C   0  0  0  0  0  0  0  0  0  0  0  0
   12.5139  -17.1422   26.1946 O   0  0  0  0  0  0  0  0  0  0  0  0
    8.3612  -15.0083   28.1625 C   0  0  0  0  0  0  0  0  0  0  0  0
    9.8274  -14.6506   28.1314 C   0  0  2  0  0  0  0  0  0  0  0  0
   10.0493  -13.5092   27.1771 C   0  0  0  0  0  0  0  0  0  0  0  0
   10.6649  -15.8577   27.7595 C   0  0  2  0  0  0  0  0  0  0  0  0
   10.4052  -16.2793   26.4084 N   0  0  0  0  0  0  0  0  0  0  0  0
   10.4419  -16.9476   28.7401 C   0  0  0  0  0  0  0  0  0  0  0  0
    9.7901  -17.9526   28.3576 O   0  0  0  0  0  0  0  0  0  0  0  0
   10.9015  -16.9305   30.0404 O   0  0  0  0  0  0  0  0  0  0  0  0
  2  1  1  6
  3  2  1  0
  4  2  1  0
  5  4  1  0
  5  6  1  1
  7  5  1  0
  7  8  2  0
  9 10  1  0
  9  7  1  0
 10 11  1  0
 11 17  1  0
 11 12  2  0
 14 13  1  6
 14 15  1  0
 16 14  1  0
 16 17  1  6
 18 16  1  0
 18 20  1  0
 19 18  2  0
M  END
$$$$
