LGV.pdb
     RDKit          3D

 20 19  0  0  1  0  0  0  0  0999 V2000
    6.7998  -12.4967   18.9484 C   0  0  0  0  0  0  0  0  0  0  0  0
    7.8560  -13.4978   19.3668 C   0  0  1  0  0  0  0  0  0  0  0  0
    9.2153  -12.9819   18.9949 C   0  0  0  0  0  0  0  0  0  0  0  0
    7.7123  -13.8974   20.7890 C   0  0  0  0  0  0  0  0  0  0  0  0
    8.7357  -14.8953   21.2574 C   0  0  2  0  0  0  0  0  0  0  0  0
    8.4921  -16.1352   20.5560 N   0  0  0  0  0  0  0  0  0  0  0  0
    8.6684  -15.0904   22.7410 C   0  0  0  0  0  0  0  0  0  0  0  0
    8.9418  -14.1421   23.5173 O   0  0  0  0  0  0  0  0  0  0  0  0
    8.2990  -16.3348   23.3192 N   0  0  0  0  0  0  0  0  0  0  0  0
    8.1324  -16.5706   24.7344 C   0  0  0  0  0  0  0  0  0  0  0  0
    9.2973  -16.3227   25.5649 C   0  0  0  0  0  0  0  0  0  0  0  0
   10.4169  -16.2325   24.9953 O   0  0  0  0  0  0  0  0  0  0  0  0
    9.2829  -14.6381   29.5040 C   0  0  0  0  0  0  0  0  0  0  0  0
   10.3613  -14.6058   28.4483 C   0  0  2  0  0  0  0  0  0  0  0  0
   10.1046  -13.4684   27.4979 C   0  0  0  0  0  0  0  0  0  0  0  0
   10.4375  -15.9329   27.7205 C   0  0  2  0  0  0  0  0  0  0  0  0
    9.2424  -16.1819   26.9587 N   0  0  0  0  0  0  0  0  0  0  0  0
   10.7250  -17.0215   28.6855 C   0  0  0  0  0  0  0  0  0  0  0  0
    9.8047  -17.8425   28.9305 O   0  0  0  0  0  0  0  0  0  0  0  0
   11.9326  -17.1914   29.3299 O   0  0  0  0  0  0  0  0  0  0  0  0
  2  1  1  1
  3  2  1  0
  4  2  1  0
  5  4  1  0
  5  6  1  6
  7  5  1  0
  7  8  2  0
  9 10  1  0
  9  7  1  0
 10 11  1  0
 11 17  1  0
 11 12  2  0
 14 13  1  1
 14 15  1  0
 16 14  1  0
 16 17  1  1
 18 16  1  0
 18 20  1  0
 19 18  2  0
M  END
$$$$
