LGV.pdb
     RDKit          3D

 20 19  0  0  1  0  0  0  0  0999 V2000
    7.0826  -12.8163   17.6232 C   0  0  0  0  0  0  0  0  0  0  0  0
    7.9496  -13.8182   18.3564 C   0  0  1  0  0  0  0  0  0  0  0  0
    9.3796  -13.3637   18.3280 C   0  0  0  0  0  0  0  0  0  0  0  0
    7.4233  -14.1250   19.7098 C   0  0  0  0  0  0  0  0  0  0  0  0
    8.2607  -15.0988   20.4928 C   0  0  2  0  0  0  0  0  0  0  0  0
    8.0991  -16.4014   19.8880 N   0  0  0  0  0  0  0  0  0  0  0  0
    7.8653  -15.1200   21.9374 C   0  0  0  0  0  0  0  0  0  0  0  0
    7.9411  -14.0753   22.6299 O   0  0  0  0  0  0  0  0  0  0  0  0
    7.3970  -16.3026   22.5710 N   0  0  0  0  0  0  0  0  0  0  0  0
    7.0266  -16.4020   23.9635 C   0  0  0  0  0  0  0  0  0  0  0  0
    7.8373  -15.6399   24.8963 C   0  0  0  0  0  0  0  0  0  0  0  0
    9.0695  -15.8947   24.9485 O   0  0  0  0  0  0  0  0  0  0  0  0
    6.2336  -12.9069   27.8011 C   0  0  0  0  0  0  0  0  0  0  0  0
    7.5480  -12.6374   27.1095 C   0  0  2  0  0  0  0  0  0  0  0  0
    7.3310  -11.6877   25.9634 C   0  0  0  0  0  0  0  0  0  0  0  0
    8.1843  -13.9325   26.6464 C   0  0  2  0  0  0  0  0  0  0  0  0
    7.3237  -14.6435   25.7383 N   0  0  0  0  0  0  0  0  0  0  0  0
    8.5645  -14.7555   27.8199 C   0  0  0  0  0  0  0  0  0  0  0  0
    7.9281  -15.8221   28.0156 O   0  0  0  0  0  0  0  0  0  0  0  0
    9.5677  -14.4280   28.7079 O   0  0  0  0  0  0  0  0  0  0  0  0
  2  1  1  1
  3  2  1  0
  4  2  1  0
  5  4  1  0
  5  6  1  6
  7  5  1  0
  7  8  2  0
  9 10  1  0
  9  7  1  0
 10 11  1  0
 11 17  1  0
 11 12  2  0
 14 13  1  6
 14 15  1  0
 16 14  1  0
 16 17  1  6
 18 16  1  0
 18 20  1  0
 19 18  2  0
M  END
$$$$
