LGV.pdb
     RDKit          3D

 20 19  0  0  1  0  0  0  0  0999 V2000
    6.4490  -12.6544   18.7522 C   0  0  0  0  0  0  0  0  0  0  0  0
    7.5411  -13.5855   19.2354 C   0  0  1  0  0  0  0  0  0  0  0  0
    8.8836  -13.0053   18.8991 C   0  0  0  0  0  0  0  0  0  0  0  0
    7.3657  -13.9568   20.6617 C   0  0  0  0  0  0  0  0  0  0  0  0
    8.4167  -14.8941   21.1904 C   0  0  2  0  0  0  0  0  0  0  0  0
    8.2847  -16.1460   20.4806 N   0  0  0  0  0  0  0  0  0  0  0  0
    8.2771  -15.0926   22.6685 C   0  0  0  0  0  0  0  0  0  0  0  0
    8.3339  -14.1093   23.4474 O   0  0  0  0  0  0  0  0  0  0  0  0
    8.0782  -16.3790   23.2384 N   0  0  0  0  0  0  0  0  0  0  0  0
    7.9204  -16.6413   24.6500 C   0  0  0  0  0  0  0  0  0  0  0  0
    9.0617  -16.3250   25.4900 C   0  0  0  0  0  0  0  0  0  0  0  0
   10.2103  -16.4246   24.9832 O   0  0  0  0  0  0  0  0  0  0  0  0
    8.8347  -13.9512   29.0851 C   0  0  0  0  0  0  0  0  0  0  0  0
    9.9015  -14.0125   28.0188 C   0  0  2  0  0  0  0  0  0  0  0  0
    9.5325  -13.0999   26.8813 C   0  0  0  0  0  0  0  0  0  0  0  0
   10.1038  -15.4379   27.5456 C   0  0  2  0  0  0  0  0  0  0  0  0
    8.9535  -15.9197   26.8278 N   0  0  0  0  0  0  0  0  0  0  0  0
   10.4518  -16.3065   28.6960 C   0  0  0  0  0  0  0  0  0  0  0  0
   11.5020  -16.0384   29.3333 O   0  0  0  0  0  0  0  0  0  0  0  0
    9.7005  -17.3863   29.1110 O   0  0  0  0  0  0  0  0  0  0  0  0
  2  1  1  1
  3  2  1  0
  4  2  1  0
  5  4  1  0
  5  6  1  6
  7  5  1  0
  7  8  2  0
  9 10  1  0
  9  7  1  0
 10 11  1  0
 11 17  1  0
 11 12  2  0
 14 13  1  1
 14 15  1  0
 16 14  1  0
 16 17  1  1
 18 16  1  0
 18 20  1  0
 19 18  2  0
M  END
$$$$
