LGV.pdb
     RDKit          3D

 20 19  0  0  1  0  0  0  0  0999 V2000
    7.6346  -12.4613   19.4396 C   0  0  0  0  0  0  0  0  0  0  0  0
    7.3407  -13.6139   20.3767 C   0  0  1  0  0  0  0  0  0  0  0  0
    6.8130  -14.7794   19.5924 C   0  0  0  0  0  0  0  0  0  0  0  0
    8.4970  -13.9284   21.2524 C   0  0  0  0  0  0  0  0  0  0  0  0
    8.2233  -14.9926   22.2797 C   0  0  2  0  0  0  0  0  0  0  0  0
    7.0668  -14.5794   23.0415 N   0  0  0  0  0  0  0  0  0  0  0  0
    9.4084  -15.2096   23.1697 C   0  0  0  0  0  0  0  0  0  0  0  0
    9.7488  -14.3282   23.9968 O   0  0  0  0  0  0  0  0  0  0  0  0
   10.1814  -16.4007   23.1145 N   0  0  0  0  0  0  0  0  0  0  0  0
   11.4895  -16.5642   23.7048 C   0  0  0  0  0  0  0  0  0  0  0  0
   11.5770  -16.3393   25.1365 C   0  0  0  0  0  0  0  0  0  0  0  0
   12.6676  -16.6047   25.7077 O   0  0  0  0  0  0  0  0  0  0  0  0
   10.2224  -13.9458   29.1508 C   0  0  0  0  0  0  0  0  0  0  0  0
   10.0218  -14.2459   27.6850 C   0  0  2  0  0  0  0  0  0  0  0  0
    8.5506  -14.2855   27.3738 C   0  0  0  0  0  0  0  0  0  0  0  0
   10.7059  -15.5440   27.3062 C   0  0  2  0  0  0  0  0  0  0  0  0
   10.5176  -15.8479   25.9123 N   0  0  0  0  0  0  0  0  0  0  0  0
   10.2340  -16.6389   28.1880 C   0  0  0  0  0  0  0  0  0  0  0  0
    9.3129  -17.3788   27.7580 O   0  0  0  0  0  0  0  0  0  0  0  0
   10.7384  -16.8974   29.4454 O   0  0  0  0  0  0  0  0  0  0  0  0
  2  1  1  6
  3  2  1  0
  4  2  1  0
  5  4  1  0
  5  6  1  1
  7  5  1  0
  7  8  2  0
  9 10  1  0
  9  7  1  0
 10 11  1  0
 11 17  1  0
 11 12  2  0
 14 13  1  1
 14 15  1  0
 16 14  1  0
 16 17  1  6
 18 16  1  0
 18 20  1  0
 19 18  2  0
M  END
$$$$
