LGV.pdb
     RDKit          3D

 20 19  0  0  1  0  0  0  0  0999 V2000
    7.5240  -11.9633   20.8482 C   0  0  0  0  0  0  0  0  0  0  0  0
    7.6963  -13.4638   20.7395 C   0  0  1  0  0  0  0  0  0  0  0  0
    7.3842  -13.9071   19.3402 C   0  0  0  0  0  0  0  0  0  0  0  0
    9.0153  -13.9115   21.2521 C   0  0  0  0  0  0  0  0  0  0  0  0
    9.2068  -15.4034   21.2467 C   0  0  2  0  0  0  0  0  0  0  0  0
    8.0194  -15.9999   21.8150 N   0  0  0  0  0  0  0  0  0  0  0  0
   10.4313  -15.7991   22.0132 C   0  0  0  0  0  0  0  0  0  0  0  0
   11.5383  -15.2642   21.7580 O   0  0  0  0  0  0  0  0  0  0  0  0
   10.3899  -16.7786   23.0420 N   0  0  0  0  0  0  0  0  0  0  0  0
   11.5304  -17.2135   23.8142 C   0  0  0  0  0  0  0  0  0  0  0  0
   11.6205  -16.6958   25.1677 C   0  0  0  0  0  0  0  0  0  0  0  0
   12.6652  -16.9468   25.8248 O   0  0  0  0  0  0  0  0  0  0  0  0
   10.1815  -13.6945   28.7744 C   0  0  0  0  0  0  0  0  0  0  0  0
    9.9989  -14.1807   27.3570 C   0  0  2  0  0  0  0  0  0  0  0  0
    8.5327  -14.3446   27.0636 C   0  0  0  0  0  0  0  0  0  0  0  0
   10.7592  -15.4722   27.1323 C   0  0  2  0  0  0  0  0  0  0  0  0
   10.6115  -15.9383   25.7789 N   0  0  0  0  0  0  0  0  0  0  0  0
   10.3329  -16.4877   28.1252 C   0  0  0  0  0  0  0  0  0  0  0  0
    9.5598  -17.3987   27.7335 O   0  0  0  0  0  0  0  0  0  0  0  0
   10.7281  -16.4979   29.4467 O   0  0  0  0  0  0  0  0  0  0  0  0
  2  1  1  6
  3  2  1  0
  4  2  1  0
  5  4  1  0
  5  6  1  1
  7  5  1  0
  7  8  2  0
  9 10  1  0
  9  7  1  0
 10 11  1  0
 11 17  1  0
 11 12  2  0
 14 13  1  1
 14 15  1  0
 16 14  1  0
 16 17  1  6
 18 16  1  0
 18 20  1  0
 19 18  2  0
M  END
$$$$
