LGV.pdb
     RDKit          3D

 20 19  0  0  1  0  0  0  0  0999 V2000
    7.1375  -12.0310   19.7230 C   0  0  0  0  0  0  0  0  0  0  0  0
    7.4482  -13.5124   19.6777 C   0  0  1  0  0  0  0  0  0  0  0  0
    7.1947  -14.0387   18.2954 C   0  0  0  0  0  0  0  0  0  0  0  0
    8.7966  -13.8154   20.2189 C   0  0  0  0  0  0  0  0  0  0  0  0
    9.0313  -15.2714   20.5146 C   0  0  2  0  0  0  0  0  0  0  0  0
    7.8079  -15.8101   21.0639 N   0  0  0  0  0  0  0  0  0  0  0  0
   10.1777  -15.4582   21.4604 C   0  0  0  0  0  0  0  0  0  0  0  0
   11.2987  -14.9541   21.2039 O   0  0  0  0  0  0  0  0  0  0  0  0
   10.0448  -16.2005   22.6648 N   0  0  0  0  0  0  0  0  0  0  0  0
   11.0769  -16.3429   23.6651 C   0  0  0  0  0  0  0  0  0  0  0  0
   10.6910  -16.0325   25.0300 C   0  0  0  0  0  0  0  0  0  0  0  0
   11.5145  -16.2912   25.9470 O   0  0  0  0  0  0  0  0  0  0  0  0
    6.7823  -14.5191   26.2652 C   0  0  0  0  0  0  0  0  0  0  0  0
    8.0935  -14.1476   26.9144 C   0  0  2  0  0  0  0  0  0  0  0  0
    8.6018  -12.8597   26.3265 C   0  0  0  0  0  0  0  0  0  0  0  0
    9.1033  -15.2669   26.7597 C   0  0  2  0  0  0  0  0  0  0  0  0
    9.4570  -15.4661   25.3791 N   0  0  0  0  0  0  0  0  0  0  0  0
    8.5848  -16.5047   27.3904 C   0  0  0  0  0  0  0  0  0  0  0  0
    8.1383  -17.4032   26.6325 O   0  0  0  0  0  0  0  0  0  0  0  0
    8.5605  -16.7338   28.7503 O   0  0  0  0  0  0  0  0  0  0  0  0
  2  1  1  6
  3  2  1  0
  4  2  1  0
  5  4  1  0
  5  6  1  1
  7  5  1  0
  7  8  2  0
  9 10  1  0
  9  7  1  0
 10 11  1  0
 11 17  1  0
 11 12  2  0
 14 13  1  6
 14 15  1  0
 16 14  1  0
 16 17  1  6
 18 16  1  0
 18 20  1  0
 19 18  2  0
M  END
$$$$
