LGV.pdb
     RDKit          3D

 20 19  0  0  1  0  0  0  0  0999 V2000
    7.6183  -11.5061   25.3333 C   0  0  0  0  0  0  0  0  0  0  0  0
    7.1221  -12.9313   25.2080 C   0  0  1  0  0  0  0  0  0  0  0  0
    5.9909  -13.1576   26.1678 C   0  0  0  0  0  0  0  0  0  0  0  0
    6.8233  -13.2953   23.8005 C   0  0  0  0  0  0  0  0  0  0  0  0
    7.0100  -14.7543   23.4861 C   0  0  2  0  0  0  0  0  0  0  0  0
    6.3992  -15.5143   24.5528 N   0  0  0  0  0  0  0  0  0  0  0  0
    8.4600  -15.0993   23.3373 C   0  0  0  0  0  0  0  0  0  0  0  0
    9.1899  -14.4423   22.5547 O   0  0  0  0  0  0  0  0  0  0  0  0
    9.0571  -16.1651   24.0631 N   0  0  0  0  0  0  0  0  0  0  0  0
   10.4721  -16.4531   24.0925 C   0  0  0  0  0  0  0  0  0  0  0  0
   11.1116  -16.3830   25.3942 C   0  0  0  0  0  0  0  0  0  0  0  0
   12.3526  -16.5896   25.4514 O   0  0  0  0  0  0  0  0  0  0  0  0
    9.2886  -15.3687   29.3739 C   0  0  0  0  0  0  0  0  0  0  0  0
   10.6083  -14.9887   28.7473 C   0  0  2  0  0  0  0  0  0  0  0  0
   10.4573  -13.6942   27.9962 C   0  0  0  0  0  0  0  0  0  0  0  0
   11.1125  -16.0988   27.8473 C   0  0  2  0  0  0  0  0  0  0  0  0
   10.4245  -16.1018   26.5834 N   0  0  0  0  0  0  0  0  0  0  0  0
   11.0071  -17.4022   28.5467 C   0  0  0  0  0  0  0  0  0  0  0  0
   10.1370  -18.2139   28.1406 O   0  0  0  0  0  0  0  0  0  0  0  0
   11.7992  -17.7807   29.6105 O   0  0  0  0  0  0  0  0  0  0  0  0
  2  1  1  6
  3  2  1  0
  4  2  1  0
  5  4  1  0
  5  6  1  1
  7  5  1  0
  7  8  2  0
  9 10  1  0
  9  7  1  0
 10 11  1  0
 11 17  1  0
 11 12  2  0
 14 13  1  6
 14 15  1  0
 16 14  1  0
 16 17  1  6
 18 16  1  0
 18 20  1  0
 19 18  2  0
M  END
$$$$
