RVG.pdb
     RDKit          3D

 23 22  0  0  1  0  0  0  0  0999 V2000
   31.2016  -24.9588  -15.5091 N   0  0  0  0  0  0  0  0  0  0  0  0
   30.5083  -25.0168  -16.7406 C   0  0  0  0  0  0  0  0  0  0  0  0
   30.3203  -26.1354  -17.3939 N   0  0  0  0  0  0  0  0  0  0  0  0
   29.9637  -23.8566  -17.3585 N   0  0  0  0  0  0  0  0  0  0  0  0
   29.8591  -22.5987  -16.6469 C   0  0  0  0  0  0  0  0  0  0  0  0
   28.9132  -22.7912  -15.4938 C   0  0  0  0  0  0  0  0  0  0  0  0
   27.9708  -21.6294  -15.3076 C   0  0  0  0  0  0  0  0  0  0  0  0
   26.9761  -21.5169  -16.4417 C   0  0  2  0  0  0  0  0  0  0  0  0
   27.6836  -20.8469  -17.5402 N   0  0  0  0  0  0  0  0  0  0  0  0
   25.8622  -20.6180  -15.9625 C   0  0  0  0  0  0  0  0  0  0  0  0
   26.0208  -19.3724  -15.9272 O   0  0  0  0  0  0  0  0  0  0  0  0
   29.8109  -26.0555  -18.2966 C   0  0  0  0  0  0  0  0  0  0  0  0
   21.1896  -19.8014  -15.7130 C   0  0  1  0  0  0  0  0  0  0  0  0
   22.4564  -20.4486  -16.1588 C   0  0  0  0  0  0  0  0  0  0  0  0
   23.0715  -19.6951  -17.3417 C   0  0  1  0  0  0  0  0  0  0  0  0
   23.4926  -20.3889  -15.0623 N   0  0  0  0  0  0  0  0  0  0  0  0
   24.6356  -21.1579  -15.5500 C   0  0  0  0  0  0  0  0  0  0  0  0
   23.0488  -20.8702  -13.7531 O   0  0  0  0  0  0  0  0  0  0  0  0
   22.8058  -22.1260  -13.6453 N   0  0  0  0  0  0  0  0  0  0  0  0
   22.8544  -20.1263  -12.5789 C   0  0  0  0  0  0  0  0  0  0  0  0
   22.3447  -20.6985  -11.3440 C   0  0  0  0  0  0  0  0  0  0  0  0
   20.8756  -20.8424  -11.4796 O   0  0  0  0  0  0  0  0  0  0  0  0
   20.2521  -20.4627  -12.5090 O   0  0  0  0  0  0  0  0  0  0  0  0
  2  1  1  0
  2  4  1  0
  3  2  2  0
  5  4  1  0
  6  5  1  0
  7  6  1  0
  7  8  1  0
  8  9  1  6
  8 10  1  0
 10 11  2  0
 13 14  1  1
 13 15  1  0
 13 12  1  0
 16 10  1  0
 15 16  1  6
 17 15  1  0
 17 18  2  0
 19 20  1  0
 19 17  1  0
 20 21  1  0
 21 22  2  0
 21 23  1  0
M  END
$$$$
