RVG.pdb
     RDKit          3D

 23 22  0  0  1  0  0  0  0  0999 V2000
   31.2791  -24.0209  -17.0913 N   0  0  0  0  0  0  0  0  0  0  0  0
   30.0722  -24.7432  -16.9418 C   0  0  0  0  0  0  0  0  0  0  0  0
   30.0397  -25.9918  -16.5501 N   0  0  0  0  0  0  0  0  0  0  0  0
   28.8023  -24.1596  -17.2082 N   0  0  0  0  0  0  0  0  0  0  0  0
   28.6499  -22.7304  -17.3928 C   0  0  0  0  0  0  0  0  0  0  0  0
   28.8089  -22.0665  -16.0529 C   0  0  0  0  0  0  0  0  0  0  0  0
   27.6048  -22.2443  -15.1634 C   0  0  0  0  0  0  0  0  0  0  0  0
   26.5742  -21.1580  -15.3779 C   0  0  2  0  0  0  0  0  0  0  0  0
   27.1094  -19.9540  -14.7298 N   0  0  0  0  0  0  0  0  0  0  0  0
   25.3244  -21.5870  -14.6480 C   0  0  0  0  0  0  0  0  0  0  0  0
   24.7399  -22.6540  -14.9606 O   0  0  0  0  0  0  0  0  0  0  0  0
   30.9625  -26.4484  -16.4072 C   0  0  0  0  0  0  0  0  0  0  0  0
   25.1279  -22.1769  -11.2615 C   0  0  2  0  0  0  0  0  0  0  0  0
   24.0123  -21.1993  -11.4098 C   0  0  0  0  0  0  0  0  0  0  0  0
   24.4642  -19.7876  -11.0249 C   0  0  2  0  0  0  0  0  0  0  0  0
   23.5843  -21.1038  -12.8546 N   0  0  0  0  0  0  0  0  0  0  0  0
   24.7975  -20.8028  -13.6119 C   0  0  0  0  0  0  0  0  0  0  0  0
   22.5292  -20.1283  -13.1330 O   0  0  0  0  0  0  0  0  0  0  0  0
   22.8463  -18.8871  -13.0512 N   0  0  0  0  0  0  0  0  0  0  0  0
   21.1940  -20.3764  -13.4876 C   0  0  0  0  0  0  0  0  0  0  0  0
   20.2289  -19.3241  -13.7584 C   0  0  0  0  0  0  0  0  0  0  0  0
   18.9530  -19.6943  -13.1008 O   0  0  0  0  0  0  0  0  0  0  0  0
   18.8074  -20.7785  -12.4716 O   0  0  0  0  0  0  0  0  0  0  0  0
  2  1  1  0
  2  4  1  0
  3  2  2  0
  5  4  1  0
  6  5  1  0
  7  6  1  0
  7  8  1  0
  8  9  1  1
  8 10  1  0
 10 11  2  0
 13 14  1  1
 13 15  1  0
 13 12  1  0
 16 10  1  0
 15 16  1  6
 17 15  1  0
 17 18  2  0
 19 20  1  0
 19 17  1  0
 20 21  1  0
 21 22  2  0
 21 23  1  0
M  END
$$$$
