RVG.pdb
     RDKit          3D

 23 22  0  0  1  0  0  0  0  0999 V2000
   20.0521  -18.1448  -15.4362 N   0  0  0  0  0  0  0  0  0  0  0  0
   18.7512  -18.6699  -15.2562 C   0  0  0  0  0  0  0  0  0  0  0  0
   18.5257  -19.9412  -15.0405 N   0  0  0  0  0  0  0  0  0  0  0  0
   17.5903  -17.8483  -15.2972 N   0  0  0  0  0  0  0  0  0  0  0  0
   17.6795  -16.4246  -15.5521 C   0  0  0  0  0  0  0  0  0  0  0  0
   16.2836  -15.8662  -15.5795 C   0  0  0  0  0  0  0  0  0  0  0  0
   16.2362  -14.4262  -16.0233 C   0  0  0  0  0  0  0  0  0  0  0  0
   14.8217  -13.8922  -16.0702 C   0  0  2  0  0  0  0  0  0  0  0  0
   14.0987  -14.7355  -17.0306 N   0  0  0  0  0  0  0  0  0  0  0  0
   14.8994  -12.4884  -16.6197 C   0  0  0  0  0  0  0  0  0  0  0  0
   15.1110  -12.2949  -17.8426 O   0  0  0  0  0  0  0  0  0  0  0  0
   17.5282  -20.2340  -15.0448 C   0  0  0  0  0  0  0  0  0  0  0  0
   13.5985   -7.8599  -15.8931 C   0  0  2  0  0  0  0  0  0  0  0  0
   13.5306   -9.3398  -15.7268 C   0  0  0  0  0  0  0  0  0  0  0  0
   12.4347   -9.9421  -16.6108 C   0  0  1  0  0  0  0  0  0  0  0  0
   14.8169   -9.9813  -16.1891 N   0  0  0  0  0  0  0  0  0  0  0  0
   14.7370  -11.3807  -15.7754 C   0  0  0  0  0  0  0  0  0  0  0  0
   16.0436   -9.3519  -15.6978 O   0  0  0  0  0  0  0  0  0  0  0  0
   16.2569   -8.1363  -16.0508 N   0  0  0  0  0  0  0  0  0  0  0  0
   17.0325   -9.9116  -14.8739 C   0  0  0  0  0  0  0  0  0  0  0  0
   18.1713   -9.1634  -14.3686 C   0  0  0  0  0  0  0  0  0  0  0  0
   19.2281   -9.1829  -15.4079 O   0  0  0  0  0  0  0  0  0  0  0  0
   19.0368   -9.6699  -16.5563 O   0  0  0  0  0  0  0  0  0  0  0  0
  2  1  1  0
  2  4  1  0
  3  2  2  0
  5  4  1  0
  6  5  1  0
  7  6  1  0
  7  8  1  0
  8  9  1  6
  8 10  1  0
 10 11  2  0
 13 14  1  6
 13 15  1  0
 13 12  1  0
 16 10  1  0
 15 16  1  1
 17 15  1  0
 17 18  2  0
 19 20  1  0
 19 17  1  0
 20 21  1  0
 21 22  2  0
 21 23  1  0
M  END
$$$$
