RVG.pdb
     RDKit          3D

 23 22  0  0  1  0  0  0  0  0999 V2000
   44.8942  -13.7413   -7.7540 N   0  0  0  0  0  0  0  0  0  0  0  0
   45.4009  -12.6259   -7.0472 C   0  0  0  0  0  0  0  0  0  0  0  0
   46.6701  -12.4903   -6.7567 N   0  0  0  0  0  0  0  0  0  0  0  0
   44.5618  -11.5674   -6.6002 N   0  0  0  0  0  0  0  0  0  0  0  0
   43.4623  -11.0805   -7.4088 C   0  0  0  0  0  0  0  0  0  0  0  0
   44.0249  -10.1640   -8.4597 C   0  0  0  0  0  0  0  0  0  0  0  0
   42.9872   -9.2468   -9.0552 C   0  0  0  0  0  0  0  0  0  0  0  0
   42.0150   -9.9899   -9.9445 C   0  0  2  0  0  0  0  0  0  0  0  0
   42.8193  -10.5902  -11.0164 N   0  0  0  0  0  0  0  0  0  0  0  0
   41.0944   -8.9575  -10.5491 C   0  0  0  0  0  0  0  0  0  0  0  0
   41.4391   -8.3217  -11.5761 O   0  0  0  0  0  0  0  0  0  0  0  0
   46.9392  -11.5977   -6.2968 C   0  0  0  0  0  0  0  0  0  0  0  0
   36.4323   -7.4460  -10.6901 C   0  0  2  0  0  0  0  0  0  0  0  0
   37.5333   -8.4188  -10.4373 C   0  0  0  0  0  0  0  0  0  0  0  0
   37.5969   -9.4758  -11.5437 C   0  0  1  0  0  0  0  0  0  0  0  0
   38.8715   -7.7204  -10.4720 N   0  0  0  0  0  0  0  0  0  0  0  0
   39.8429   -8.6926   -9.9749 C   0  0  0  0  0  0  0  0  0  0  0  0
   38.9440   -6.4662   -9.7209 O   0  0  0  0  0  0  0  0  0  0  0  0
   38.3781   -5.4397  -10.2442 N   0  0  0  0  0  0  0  0  0  0  0  0
   39.5586   -6.2356   -8.4803 C   0  0  0  0  0  0  0  0  0  0  0  0
   39.6675   -4.9197   -7.8732 C   0  0  0  0  0  0  0  0  0  0  0  0
   40.4028   -5.0662   -6.5944 O   0  0  0  0  0  0  0  0  0  0  0  0
   41.0326   -6.1178   -6.2943 O   0  0  0  0  0  0  0  0  0  0  0  0
  2  1  1  0
  2  4  1  0
  3  2  2  0
  5  4  1  0
  6  5  1  0
  7  6  1  0
  7  8  1  0
  8  9  1  6
  8 10  1  0
 10 11  2  0
 13 14  1  6
 13 15  1  0
 13 12  1  0
 16 10  1  0
 15 16  1  1
 17 15  1  0
 17 18  2  0
 19 20  1  0
 19 17  1  0
 20 21  1  0
 21 22  2  0
 21 23  1  0
M  END
$$$$
