RVG.pdb
     RDKit          3D

 23 22  0  0  1  0  0  0  0  0999 V2000
   20.0639  -23.0753  -17.0941 N   0  0  0  0  0  0  0  0  0  0  0  0
   20.6563  -24.2398  -17.6358 C   0  0  0  0  0  0  0  0  0  0  0  0
   20.0406  -25.0116  -18.4954 N   0  0  0  0  0  0  0  0  0  0  0  0
   21.9701  -24.6560  -17.2822 N   0  0  0  0  0  0  0  0  0  0  0  0
   22.8302  -23.8291  -16.4598 C   0  0  0  0  0  0  0  0  0  0  0  0
   23.3004  -22.6696  -17.2938 C   0  0  0  0  0  0  0  0  0  0  0  0
   24.2058  -21.7313  -16.5371 C   0  0  0  0  0  0  0  0  0  0  0  0
   23.6104  -20.3466  -16.4092 C   0  0  2  0  0  0  0  0  0  0  0  0
   24.7430  -19.4122  -16.4266 N   0  0  0  0  0  0  0  0  0  0  0  0
   22.9449  -20.2771  -15.0560 C   0  0  0  0  0  0  0  0  0  0  0  0
   23.6367  -20.2453  -14.0080 O   0  0  0  0  0  0  0  0  0  0  0  0
   20.5706  -25.8448  -18.8204 C   0  0  0  0  0  0  0  0  0  0  0  0
   19.1839  -18.6732  -14.7688 C   0  0  2  0  0  0  0  0  0  0  0  0
   20.1573  -18.8301  -13.6506 C   0  0  0  0  0  0  0  0  0  0  0  0
   19.4515  -18.7546  -12.2936 C   0  0  1  0  0  0  0  0  0  0  0  0
   20.7953  -20.1977  -13.6957 N   0  0  0  0  0  0  0  0  0  0  0  0
   21.5473  -20.2470  -14.9479 C   0  0  0  0  0  0  0  0  0  0  0  0
   19.8689  -21.3258  -13.5883 O   0  0  0  0  0  0  0  0  0  0  0  0
   19.1984  -21.6318  -14.6393 N   0  0  0  0  0  0  0  0  0  0  0  0
   19.6159  -22.1333  -12.4685 C   0  0  0  0  0  0  0  0  0  0  0  0
   18.7457  -23.2968  -12.5006 C   0  0  0  0  0  0  0  0  0  0  0  0
   17.3442  -22.8213  -12.4156 O   0  0  0  0  0  0  0  0  0  0  0  0
   17.0511  -21.5978  -12.3182 O   0  0  0  0  0  0  0  0  0  0  0  0
  2  1  1  0
  2  4  1  0
  3  2  2  0
  5  4  1  0
  6  5  1  0
  7  6  1  0
  7  8  1  0
  8  9  1  1
  8 10  1  0
 10 11  2  0
 13 14  1  1
 13 15  1  0
 13 12  1  0
 16 10  1  0
 15 16  1  6
 17 15  1  0
 17 18  2  0
 19 20  1  0
 19 17  1  0
 20 21  1  0
 21 22  2  0
 21 23  1  0
M  END
$$$$
