RVG.pdb
     RDKit          3D

 23 22  0  0  1  0  0  0  0  0999 V2000
   27.1145  -20.9861   -9.5437 N   0  0  0  0  0  0  0  0  0  0  0  0
   25.7626  -20.6091   -9.7190 C   0  0  0  0  0  0  0  0  0  0  0  0
   24.9390  -20.4439   -8.7151 N   0  0  0  0  0  0  0  0  0  0  0  0
   25.2005  -20.3818  -11.0062 N   0  0  0  0  0  0  0  0  0  0  0  0
   24.9440  -21.4738  -11.9235 C   0  0  0  0  0  0  0  0  0  0  0  0
   25.7401  -21.2293  -13.1756 C   0  0  0  0  0  0  0  0  0  0  0  0
   24.8732  -20.9565  -14.3784 C   0  0  0  0  0  0  0  0  0  0  0  0
   23.8305  -22.0330  -14.5835 C   0  0  2  0  0  0  0  0  0  0  0  0
   24.5341  -23.1734  -15.1841 N   0  0  0  0  0  0  0  0  0  0  0  0
   22.8348  -21.4963  -15.5831 C   0  0  0  0  0  0  0  0  0  0  0  0
   23.0516  -21.6014  -16.8159 O   0  0  0  0  0  0  0  0  0  0  0  0
   23.9488  -20.2502   -8.9655 C   0  0  0  0  0  0  0  0  0  0  0  0
   18.1983  -20.5687  -16.4631 C   0  0  1  0  0  0  0  0  0  0  0  0
   19.3377  -21.0424  -15.6266 C   0  0  0  0  0  0  0  0  0  0  0  0
   19.6068  -22.5322  -15.8582 C   0  0  1  0  0  0  0  0  0  0  0  0
   20.6122  -20.3377  -16.0249 N   0  0  0  0  0  0  0  0  0  0  0  0
   21.6549  -20.8734  -15.1521 C   0  0  0  0  0  0  0  0  0  0  0  0
   20.5666  -18.8760  -15.9620 O   0  0  0  0  0  0  0  0  0  0  0  0
   20.4004  -18.3472  -14.8042 N   0  0  0  0  0  0  0  0  0  0  0  0
   20.6867  -17.9609  -17.0194 C   0  0  0  0  0  0  0  0  0  0  0  0
   20.5909  -16.5211  -16.8467 C   0  0  0  0  0  0  0  0  0  0  0  0
   19.1576  -16.1478  -16.9105 O   0  0  0  0  0  0  0  0  0  0  0  0
   18.2521  -16.9877  -17.1695 O   0  0  0  0  0  0  0  0  0  0  0  0
  2  1  1  0
  2  4  1  0
  3  2  2  0
  5  4  1  0
  6  5  1  0
  7  6  1  0
  7  8  1  0
  8  9  1  6
  8 10  1  0
 10 11  2  0
 13 14  1  6
 13 15  1  0
 13 12  1  0
 16 10  1  0
 15 16  1  1
 17 15  1  0
 17 18  2  0
 19 20  1  0
 19 17  1  0
 20 21  1  0
 21 22  2  0
 21 23  1  0
M  END
$$$$
