RVG.pdb
     RDKit          3D

 23 22  0  0  1  0  0  0  0  0999 V2000
   19.7396  -24.2952  -16.1911 N   0  0  0  0  0  0  0  0  0  0  0  0
   18.5338  -23.5722  -16.3455 C   0  0  0  0  0  0  0  0  0  0  0  0
   17.3798  -24.1567  -16.5460 N   0  0  0  0  0  0  0  0  0  0  0  0
   18.4909  -22.1510  -16.2934 N   0  0  0  0  0  0  0  0  0  0  0  0
   19.6828  -21.3667  -16.0403 C   0  0  0  0  0  0  0  0  0  0  0  0
   19.9898  -21.4438  -14.5703 C   0  0  0  0  0  0  0  0  0  0  0  0
   21.2743  -20.7461  -14.2017 C   0  0  0  0  0  0  0  0  0  0  0  0
   21.5810  -20.8628  -12.7250 C   0  0  2  0  0  0  0  0  0  0  0  0
   20.6119  -19.9999  -12.0376 N   0  0  0  0  0  0  0  0  0  0  0  0
   22.9656  -20.2986  -12.5173 C   0  0  0  0  0  0  0  0  0  0  0  0
   23.1853  -19.0736  -12.6875 O   0  0  0  0  0  0  0  0  0  0  0  0
   16.5641  -23.5241  -16.6687 C   0  0  0  0  0  0  0  0  0  0  0  0
   27.2790  -20.9932  -10.3550 C   0  0  2  0  0  0  0  0  0  0  0  0
   25.8586  -21.3431  -10.6421 C   0  0  0  0  0  0  0  0  0  0  0  0
   24.9261  -20.7813   -9.5649 C   0  0  1  0  0  0  0  0  0  0  0  0
   25.4097  -20.7043  -11.9344 N   0  0  0  0  0  0  0  0  0  0  0  0
   24.0259  -21.1312  -12.1319 C   0  0  0  0  0  0  0  0  0  0  0  0
   26.2323  -21.0125  -13.1052 O   0  0  0  0  0  0  0  0  0  0  0  0
   26.1402  -22.1989  -13.5866 N   0  0  0  0  0  0  0  0  0  0  0  0
   27.1212  -20.1650  -13.7847 C   0  0  0  0  0  0  0  0  0  0  0  0
   28.0453  -20.6276  -14.8064 C   0  0  0  0  0  0  0  0  0  0  0  0
   27.4643  -20.2995  -16.1301 O   0  0  0  0  0  0  0  0  0  0  0  0
   26.2507  -20.5088  -16.4053 O   0  0  0  0  0  0  0  0  0  0  0  0
  2  1  1  0
  2  4  1  0
  3  2  2  0
  5  4  1  0
  6  5  1  0
  7  6  1  0
  7  8  1  0
  8  9  1  1
  8 10  1  0
 10 11  2  0
 13 14  1  6
 13 15  1  0
 13 12  1  0
 16 10  1  0
 15 16  1  1
 17 15  1  0
 17 18  2  0
 19 20  1  0
 19 17  1  0
 20 21  1  0
 21 22  2  0
 21 23  1  0
M  END
$$$$
