RVG.pdb
     RDKit          3D

 23 22  0  0  1  0  0  0  0  0999 V2000
   19.1918  -28.9105  -11.8037 N   0  0  0  0  0  0  0  0  0  0  0  0
   20.4081  -28.2004  -11.6741 C   0  0  0  0  0  0  0  0  0  0  0  0
   21.3762  -28.5947  -10.8860 N   0  0  0  0  0  0  0  0  0  0  0  0
   20.6658  -27.0014  -12.3955 N   0  0  0  0  0  0  0  0  0  0  0  0
   19.7356  -26.5000  -13.3869 C   0  0  0  0  0  0  0  0  0  0  0  0
   19.0763  -25.2690  -12.8291 C   0  0  0  0  0  0  0  0  0  0  0  0
   19.9970  -24.0758  -12.7922 C   0  0  0  0  0  0  0  0  0  0  0  0
   19.3692  -22.8952  -12.0849 C   0  0  2  0  0  0  0  0  0  0  0  0
   17.9695  -23.2642  -11.8385 N   0  0  0  0  0  0  0  0  0  0  0  0
   19.4024  -21.7354  -13.0505 C   0  0  0  0  0  0  0  0  0  0  0  0
   18.3501  -21.3498  -13.6177 O   0  0  0  0  0  0  0  0  0  0  0  0
   22.2355  -28.0098  -10.8927 C   0  0  0  0  0  0  0  0  0  0  0  0
   18.4751  -19.4007  -13.1598 C   0  0  2  0  0  0  0  0  0  0  0  0
   19.8385  -18.8281  -13.3486 C   0  0  0  0  0  0  0  0  0  0  0  0
   20.5172  -18.5698  -12.0003 C   0  0  2  0  0  0  0  0  0  0  0  0
   20.7296  -19.8147  -14.0641 N   0  0  0  0  0  0  0  0  0  0  0  0
   20.6058  -21.0716  -13.3288 C   0  0  0  0  0  0  0  0  0  0  0  0
   22.1309  -19.4130  -14.1963 O   0  0  0  0  0  0  0  0  0  0  0  0
   22.8566  -19.4723  -13.1391 N   0  0  0  0  0  0  0  0  0  0  0  0
   22.7977  -18.9674  -15.3481 C   0  0  0  0  0  0  0  0  0  0  0  0
   24.2302  -18.7286  -15.4020 C   0  0  0  0  0  0  0  0  0  0  0  0
   24.5720  -18.3108  -16.7826 O   0  0  0  0  0  0  0  0  0  0  0  0
   23.7073  -18.2346  -17.6985 O   0  0  0  0  0  0  0  0  0  0  0  0
  2  1  1  0
  2  4  1  0
  3  2  2  0
  5  4  1  0
  6  5  1  0
  7  6  1  0
  7  8  1  0
  8  9  1  6
  8 10  1  0
 10 11  2  0
 13 14  1  1
 13 15  1  0
 13 12  1  0
 16 10  1  0
 15 16  1  6
 17 15  1  0
 17 18  2  0
 19 20  1  0
 19 17  1  0
 20 21  1  0
 21 22  2  0
 21 23  1  0
M  END
$$$$
