RVG.pdb
     RDKit          3D

 23 22  0  0  1  0  0  0  0  0999 V2000
   23.6250  -19.0449  -15.5112 N   0  0  0  0  0  0  0  0  0  0  0  0
   23.0525  -18.4462  -16.6577 C   0  0  0  0  0  0  0  0  0  0  0  0
   21.8443  -17.9425  -16.6633 N   0  0  0  0  0  0  0  0  0  0  0  0
   23.7540  -18.3492  -17.8917 N   0  0  0  0  0  0  0  0  0  0  0  0
   24.8946  -19.1944  -18.1823 C   0  0  0  0  0  0  0  0  0  0  0  0
   24.4257  -20.6231  -18.1982 C   0  0  0  0  0  0  0  0  0  0  0  0
   25.5561  -21.6102  -18.3412 C   0  0  0  0  0  0  0  0  0  0  0  0
   26.8213  -21.1272  -17.6672 C   0  0  2  0  0  0  0  0  0  0  0  0
   27.9334  -21.7725  -18.3764 N   0  0  0  0  0  0  0  0  0  0  0  0
   26.7875  -21.6410  -16.2482 C   0  0  0  0  0  0  0  0  0  0  0  0
   26.9686  -22.8608  -16.0091 O   0  0  0  0  0  0  0  0  0  0  0  0
   21.5092  -17.5730  -17.5754 C   0  0  0  0  0  0  0  0  0  0  0  0
   28.9261  -20.3934  -13.8863 C   0  0  2  0  0  0  0  0  0  0  0  0
   27.6463  -20.2727  -13.1313 C   0  0  0  0  0  0  0  0  0  0  0  0
   27.1046  -18.8417  -13.1940 C   0  0  2  0  0  0  0  0  0  0  0  0
   26.5791  -21.1340  -13.7628 N   0  0  0  0  0  0  0  0  0  0  0  0
   26.5540  -20.7667  -15.1772 C   0  0  0  0  0  0  0  0  0  0  0  0
   25.2486  -21.0250  -13.1625 O   0  0  0  0  0  0  0  0  0  0  0  0
   24.5189  -20.0377  -13.5374 N   0  0  0  0  0  0  0  0  0  0  0  0
   24.6543  -21.8753  -12.2171 C   0  0  0  0  0  0  0  0  0  0  0  0
   23.3633  -21.6124  -11.6038 C   0  0  0  0  0  0  0  0  0  0  0  0
   23.5990  -20.8631  -10.3466 O   0  0  0  0  0  0  0  0  0  0  0  0
   24.7575  -20.5612   -9.9477 O   0  0  0  0  0  0  0  0  0  0  0  0
  2  1  1  0
  2  4  1  0
  3  2  2  0
  5  4  1  0
  6  5  1  0
  7  6  1  0
  7  8  1  0
  8  9  1  6
  8 10  1  0
 10 11  2  0
 13 14  1  6
 13 15  1  0
 13 12  1  0
 16 10  1  0
 15 16  1  1
 17 15  1  0
 17 18  2  0
 19 20  1  0
 19 17  1  0
 20 21  1  0
 21 22  2  0
 21 23  1  0
M  END
$$$$
