RVG.pdb
     RDKit          3D

 23 22  0  0  1  0  0  0  0  0999 V2000
   19.3538  -17.3452  -15.5221 N   0  0  0  0  0  0  0  0  0  0  0  0
   19.3819  -18.6872  -15.0761 C   0  0  0  0  0  0  0  0  0  0  0  0
   19.2600  -19.0155  -13.8147 N   0  0  0  0  0  0  0  0  0  0  0  0
   19.5456  -19.7800  -15.9724 N   0  0  0  0  0  0  0  0  0  0  0  0
   19.6521  -19.5758  -17.4030 C   0  0  0  0  0  0  0  0  0  0  0  0
   21.0483  -19.1063  -17.7055 C   0  0  0  0  0  0  0  0  0  0  0  0
   22.1055  -20.0864  -17.2646 C   0  0  0  0  0  0  0  0  0  0  0  0
   23.5032  -19.5731  -17.5316 C   0  0  2  0  0  0  0  0  0  0  0  0
   23.8917  -20.1100  -18.8420 N   0  0  0  0  0  0  0  0  0  0  0  0
   24.4010  -20.1723  -16.4764 C   0  0  0  0  0  0  0  0  0  0  0  0
   24.7239  -21.3850  -16.5301 O   0  0  0  0  0  0  0  0  0  0  0  0
   19.2250  -20.0342  -13.6107 C   0  0  0  0  0  0  0  0  0  0  0  0
   27.6666  -19.2176  -15.8109 C   0  0  2  0  0  0  0  0  0  0  0  0
   27.0309  -19.0163  -14.4776 C   0  0  0  0  0  0  0  0  0  0  0  0
   26.5722  -17.5659  -14.3013 C   0  0  2  0  0  0  0  0  0  0  0  0
   25.7780  -19.8506  -14.3602 N   0  0  0  0  0  0  0  0  0  0  0  0
   24.8875  -19.3864  -15.4220 C   0  0  0  0  0  0  0  0  0  0  0  0
   25.1157  -19.8076  -13.0556 O   0  0  0  0  0  0  0  0  0  0  0  0
   24.0842  -19.0509  -12.9500 N   0  0  0  0  0  0  0  0  0  0  0  0
   25.4645  -20.5001  -11.8856 C   0  0  0  0  0  0  0  0  0  0  0  0
   24.7414  -20.3686  -10.6319 C   0  0  0  0  0  0  0  0  0  0  0  0
   25.4190  -21.2171   -9.6227 O   0  0  0  0  0  0  0  0  0  0  0  0
   26.4551  -21.8862   -9.8892 O   0  0  0  0  0  0  0  0  0  0  0  0
  2  1  1  0
  2  4  1  0
  3  2  2  0
  5  4  1  0
  6  5  1  0
  7  6  1  0
  7  8  1  0
  8  9  1  6
  8 10  1  0
 10 11  2  0
 13 14  1  6
 13 15  1  0
 13 12  1  0
 16 10  1  0
 15 16  1  1
 17 15  1  0
 17 18  2  0
 19 20  1  0
 19 17  1  0
 20 21  1  0
 21 22  2  0
 21 23  1  0
M  END
$$$$
