RVG.pdb
     RDKit          3D

 23 22  0  0  1  0  0  0  0  0999 V2000
   28.1251  -16.4036  -18.4796 N   0  0  0  0  0  0  0  0  0  0  0  0
   26.7428  -16.7008  -18.4412 C   0  0  0  0  0  0  0  0  0  0  0  0
   26.0819  -17.1258  -19.4882 N   0  0  0  0  0  0  0  0  0  0  0  0
   25.9699  -16.5577  -17.2553 N   0  0  0  0  0  0  0  0  0  0  0  0
   26.5631  -16.0956  -16.0166 C   0  0  0  0  0  0  0  0  0  0  0  0
   27.3724  -17.2225  -15.4368 C   0  0  0  0  0  0  0  0  0  0  0  0
   26.5208  -18.3697  -14.9559 C   0  0  0  0  0  0  0  0  0  0  0  0
   27.3561  -19.5214  -14.4420 C   0  0  2  0  0  0  0  0  0  0  0  0
   28.0410  -20.0832  -15.6131 N   0  0  0  0  0  0  0  0  0  0  0  0
   26.3968  -20.5531  -13.8998 C   0  0  0  0  0  0  0  0  0  0  0  0
   26.0071  -21.5022  -14.6245 O   0  0  0  0  0  0  0  0  0  0  0  0
   25.0683  -17.3060  -19.3446 C   0  0  0  0  0  0  0  0  0  0  0  0
   26.8485  -22.0773  -10.5763 C   0  0  2  0  0  0  0  0  0  0  0  0
   25.4322  -21.6123  -10.5641 C   0  0  0  0  0  0  0  0  0  0  0  0
   25.3025  -20.2655   -9.8467 C   0  0  2  0  0  0  0  0  0  0  0  0
   24.9467  -21.3654  -11.9723 N   0  0  0  0  0  0  0  0  0  0  0  0
   25.9266  -20.4685  -12.5815 C   0  0  0  0  0  0  0  0  0  0  0  0
   23.5913  -20.8242  -12.0826 O   0  0  0  0  0  0  0  0  0  0  0  0
   23.4699  -19.5465  -12.0590 N   0  0  0  0  0  0  0  0  0  0  0  0
   22.3862  -21.5312  -12.2169 C   0  0  0  0  0  0  0  0  0  0  0  0
   21.0881  -20.8871  -12.3261 C   0  0  0  0  0  0  0  0  0  0  0  0
   20.7884  -20.7050  -13.7664 O   0  0  0  0  0  0  0  0  0  0  0  0
   21.5465  -21.1441  -14.6746 O   0  0  0  0  0  0  0  0  0  0  0  0
  2  1  1  0
  2  4  1  0
  3  2  2  0
  5  4  1  0
  6  5  1  0
  7  6  1  0
  7  8  1  0
  8  9  1  6
  8 10  1  0
 10 11  2  0
 13 14  1  1
 13 15  1  0
 13 12  1  0
 16 10  1  0
 15 16  1  6
 17 15  1  0
 17 18  2  0
 19 20  1  0
 19 17  1  0
 20 21  1  0
 21 22  2  0
 21 23  1  0
M  END
$$$$
