RVG.pdb
     RDKit          3D

 23 22  0  0  1  0  0  0  0  0999 V2000
   19.9319  -23.3554   -8.7738 N   0  0  0  0  0  0  0  0  0  0  0  0
   19.4165  -22.9971  -10.0412 C   0  0  0  0  0  0  0  0  0  0  0  0
   18.1959  -23.2865  -10.4154 N   0  0  0  0  0  0  0  0  0  0  0  0
   20.1930  -22.2929  -11.0032 N   0  0  0  0  0  0  0  0  0  0  0  0
   21.6318  -22.1767  -10.8759 C   0  0  0  0  0  0  0  0  0  0  0  0
   21.9270  -21.0644   -9.9079 C   0  0  0  0  0  0  0  0  0  0  0  0
   23.0825  -20.1993  -10.3427 C   0  0  0  0  0  0  0  0  0  0  0  0
   24.3941  -20.9527  -10.3271 C   0  0  2  0  0  0  0  0  0  0  0  0
   24.7604  -21.1051   -8.9133 N   0  0  0  0  0  0  0  0  0  0  0  0
   25.4166  -20.0699  -11.0007 C   0  0  0  0  0  0  0  0  0  0  0  0
   25.8833  -19.0678  -10.4042 O   0  0  0  0  0  0  0  0  0  0  0  0
   17.9532  -23.0516  -11.3985 C   0  0  0  0  0  0  0  0  0  0  0  0
   28.5377  -20.8164  -11.8703 C   0  0  2  0  0  0  0  0  0  0  0  0
   28.0501  -20.3814  -13.2102 C   0  0  0  0  0  0  0  0  0  0  0  0
   27.6382  -21.5855  -14.0622 C   0  0  2  0  0  0  0  0  0  0  0  0
   26.8020  -19.5433  -13.0698 N   0  0  0  0  0  0  0  0  0  0  0  0
   25.8606  -20.3539  -12.3001 C   0  0  0  0  0  0  0  0  0  0  0  0
   26.2067  -19.0893  -14.3275 O   0  0  0  0  0  0  0  0  0  0  0  0
   25.2686  -19.8121  -14.8229 N   0  0  0  0  0  0  0  0  0  0  0  0
   26.5300  -17.9455  -15.0739 C   0  0  0  0  0  0  0  0  0  0  0  0
   25.8185  -17.5472  -16.2769 C   0  0  0  0  0  0  0  0  0  0  0  0
   26.5324  -18.1228  -17.4415 O   0  0  0  0  0  0  0  0  0  0  0  0
   27.4314  -18.9996  -17.3164 O   0  0  0  0  0  0  0  0  0  0  0  0
  2  1  1  0
  2  4  1  0
  3  2  2  0
  5  4  1  0
  6  5  1  0
  7  6  1  0
  7  8  1  0
  8  9  1  1
  8 10  1  0
 10 11  2  0
 13 14  1  1
 13 15  1  0
 13 12  1  0
 16 10  1  0
 15 16  1  6
 17 15  1  0
 17 18  2  0
 19 20  1  0
 19 17  1  0
 20 21  1  0
 21 22  2  0
 21 23  1  0
M  END
$$$$
