RVG.pdb
     RDKit          3D

 23 22  0  0  1  0  0  0  0  0999 V2000
   19.3737  -17.1179  -15.7133 N   0  0  0  0  0  0  0  0  0  0  0  0
   19.4789  -17.3115  -17.1104 C   0  0  0  0  0  0  0  0  0  0  0  0
   18.5942  -16.8482  -17.9568 N   0  0  0  0  0  0  0  0  0  0  0  0
   20.5598  -18.0273  -17.6967 N   0  0  0  0  0  0  0  0  0  0  0  0
   21.3378  -18.9819  -16.9331 C   0  0  0  0  0  0  0  0  0  0  0  0
   22.1770  -18.2183  -15.9463 C   0  0  0  0  0  0  0  0  0  0  0  0
   23.0066  -19.1153  -15.0633 C   0  0  0  0  0  0  0  0  0  0  0  0
   24.3701  -19.3934  -15.6563 C   0  0  2  0  0  0  0  0  0  0  0  0
   24.1320  -20.1631  -16.8839 N   0  0  0  0  0  0  0  0  0  0  0  0
   25.1084  -20.2672  -14.6714 C   0  0  0  0  0  0  0  0  0  0  0  0
   24.9130  -21.5079  -14.6509 O   0  0  0  0  0  0  0  0  0  0  0  0
   18.7477  -17.0927  -18.9554 C   0  0  0  0  0  0  0  0  0  0  0  0
   28.9006  -20.6240  -11.6155 C   0  0  2  0  0  0  0  0  0  0  0  0
   28.1405  -20.0224  -12.7480 C   0  0  0  0  0  0  0  0  0  0  0  0
   28.6500  -20.5492  -14.0927 C   0  0  1  0  0  0  0  0  0  0  0  0
   26.6879  -20.4286  -12.6821 N   0  0  0  0  0  0  0  0  0  0  0  0
   26.0218  -19.7089  -13.7658 C   0  0  0  0  0  0  0  0  0  0  0  0
   26.0264  -20.1865  -11.3991 O   0  0  0  0  0  0  0  0  0  0  0  0
   25.7164  -18.9718  -11.1230 N   0  0  0  0  0  0  0  0  0  0  0  0
   25.6773  -21.1249  -10.4155 C   0  0  0  0  0  0  0  0  0  0  0  0
   25.1474  -20.7596   -9.1126 C   0  0  0  0  0  0  0  0  0  0  0  0
   23.6676  -20.7824   -9.1986 O   0  0  0  0  0  0  0  0  0  0  0  0
   23.0553  -20.7743  -10.3020 O   0  0  0  0  0  0  0  0  0  0  0  0
  2  1  1  0
  2  4  1  0
  3  2  2  0
  5  4  1  0
  6  5  1  0
  7  6  1  0
  7  8  1  0
  8  9  1  6
  8 10  1  0
 10 11  2  0
 13 14  1  1
 13 15  1  0
 13 12  1  0
 16 10  1  0
 15 16  1  6
 17 15  1  0
 17 18  2  0
 19 20  1  0
 19 17  1  0
 20 21  1  0
 21 22  2  0
 21 23  1  0
M  END
$$$$
