RVG.pdb
     RDKit          3D

 23 22  0  0  1  0  0  0  0  0999 V2000
   32.0683  -21.6124  -10.4797 N   0  0  0  0  0  0  0  0  0  0  0  0
   32.3421  -22.4709  -11.5699 C   0  0  0  0  0  0  0  0  0  0  0  0
   33.4132  -23.2213  -11.6269 N   0  0  0  0  0  0  0  0  0  0  0  0
   31.4674  -22.5794  -12.6868 N   0  0  0  0  0  0  0  0  0  0  0  0
   30.2215  -21.8419  -12.7467 C   0  0  0  0  0  0  0  0  0  0  0  0
   30.4921  -20.5202  -13.4108 C   0  0  0  0  0  0  0  0  0  0  0  0
   29.2573  -19.6651  -13.5410 C   0  0  0  0  0  0  0  0  0  0  0  0
   28.0491  -20.4719  -13.9622 C   0  0  2  0  0  0  0  0  0  0  0  0
   27.9512  -20.3292  -15.4204 N   0  0  0  0  0  0  0  0  0  0  0  0
   26.8431  -19.8213  -13.3291 C   0  0  0  0  0  0  0  0  0  0  0  0
   26.6397  -18.5893  -13.4663 O   0  0  0  0  0  0  0  0  0  0  0  0
   33.5171  -23.8023  -12.4827 C   0  0  0  0  0  0  0  0  0  0  0  0
   24.1298  -19.5731  -14.3294 C   0  0  2  0  0  0  0  0  0  0  0  0
   23.6444  -20.1883  -13.0612 C   0  0  0  0  0  0  0  0  0  0  0  0
   23.4011  -21.6900  -13.2372 C   0  0  2  0  0  0  0  0  0  0  0  0
   24.6970  -20.0756  -11.9846 N   0  0  0  0  0  0  0  0  0  0  0  0
   25.9329  -20.5801  -12.5795 C   0  0  0  0  0  0  0  0  0  0  0  0
   24.3898  -20.7678  -10.7321 O   0  0  0  0  0  0  0  0  0  0  0  0
   24.4937  -22.0473  -10.7324 N   0  0  0  0  0  0  0  0  0  0  0  0
   23.9932  -20.2061   -9.5085 C   0  0  0  0  0  0  0  0  0  0  0  0
   23.6266  -20.9972   -8.3459 C   0  0  0  0  0  0  0  0  0  0  0  0
   22.1885  -21.3383   -8.4605 O   0  0  0  0  0  0  0  0  0  0  0  0
   21.4953  -21.0129   -9.4636 O   0  0  0  0  0  0  0  0  0  0  0  0
  2  1  1  0
  2  4  1  0
  3  2  2  0
  5  4  1  0
  6  5  1  0
  7  6  1  0
  7  8  1  0
  8  9  1  6
  8 10  1  0
 10 11  2  0
 13 14  1  6
 13 15  1  0
 13 12  1  0
 16 10  1  0
 15 16  1  1
 17 15  1  0
 17 18  2  0
 19 20  1  0
 19 17  1  0
 20 21  1  0
 21 22  2  0
 21 23  1  0
M  END
$$$$
