EDW.pdb
     RDKit          3D

 32 33  0  0  1  0  0  0  0  0999 V2000
    9.3916  -17.2580   19.3469 N   0  0  0  0  0  0  0  0  0  0  0  0
    8.8318  -16.7553   20.5726 C   0  0  1  0  0  0  0  0  0  0  0  0
    7.3773  -17.1603   20.6747 C   0  0  0  0  0  0  0  0  0  0  0  0
    6.7349  -16.9367   19.3150 C   0  0  0  0  0  0  0  0  0  0  0  0
    5.8423  -18.0915   19.0560 C   0  0  0  0  0  0  0  0  0  0  0  0
    6.0061  -18.8111   18.0369 O   0  0  0  0  0  0  0  0  0  0  0  0
    9.5469  -17.2870   21.7594 C   0  0  0  0  0  0  0  0  0  0  0  0
    9.1183  -18.2527   22.4352 O   0  0  0  0  0  0  0  0  0  0  0  0
    4.8070  -18.4163   19.9172 O   0  0  0  0  0  0  0  0  0  0  0  0
   10.7868  -16.6474   22.1314 N   0  0  0  0  0  0  0  0  0  0  0  0
   11.4767  -17.1539   23.2763 C   0  0  1  0  0  0  0  0  0  0  0  0
   12.9677  -16.9535   23.1842 C   0  0  0  0  0  0  0  0  0  0  0  0
   13.5181  -17.5180   21.9439 C   0  0  0  0  0  0  0  0  0  0  0  0
   14.0964  -16.8254   21.0826 O   0  0  0  0  0  0  0  0  0  0  0  0
   10.9626  -16.4621   24.5062 C   0  0  0  0  0  0  0  0  0  0  0  0
   11.2430  -15.2358   24.6322 O   0  0  0  0  0  0  0  0  0  0  0  0
   13.4063  -18.8768   21.6895 O   0  0  0  0  0  0  0  0  0  0  0  0
   10.2170  -17.1973   25.4264 N   0  0  0  0  0  0  0  0  0  0  0  0
    9.9370  -16.6308   26.7648 C   0  0  1  0  0  0  0  0  0  0  0  0
    8.4454  -16.6874   26.8826 C   0  0  0  0  0  0  0  0  0  0  0  0
    7.7246  -15.6777   26.0860 C   0  0  0  0  0  0  0  0  0  0  0  0
    6.9277  -15.9268   24.9514 C   0  0  0  0  0  0  0  0  0  0  0  0
    6.4643  -14.7781   24.4730 N   0  0  0  0  0  0  0  0  0  0  0  0
    6.8989  -13.7385   25.2198 C   0  0  0  0  0  0  0  0  0  0  0  0
    6.6877  -12.3782   25.1458 C   0  0  0  0  0  0  0  0  0  0  0  0
    7.2874  -11.5912   26.1140 C   0  0  0  0  0  0  0  0  0  0  0  0
    8.0660  -12.1412   27.1148 C   0  0  0  0  0  0  0  0  0  0  0  0
    8.2641  -13.4848   27.1718 C   0  0  0  0  0  0  0  0  0  0  0  0
    7.6849  -14.3062   26.2253 C   0  0  0  0  0  0  0  0  0  0  0  0
   10.7072  -17.4426   27.7106 C   0  0  0  0  0  0  0  0  0  0  0  0
   11.2721  -18.5135   27.3786 O   0  0  0  0  0  0  0  0  0  0  0  0
   10.8784  -17.0921   29.0648 O   0  0  0  0  0  0  0  0  0  0  0  0
  2  1  1  6
  2  3  1  0
  3  4  1  0
  4  5  1  0
  5  9  1  0
  5  6  2  0
  7  2  1  0
  8  7  2  0
 10  7  1  0
 11 10  1  0
 11 12  1  6
 13 12  1  0
 14 13  2  0
 15 11  1  0
 15 18  1  0
 16 15  2  0
 17 13  1  0
 19 30  1  0
 19 18  1  0
 19 20  1  1
 21 20  1  0
 21 22  2  0
 23 22  1  0
 24 23  1  0
 25 24  2  0
 26 25  1  0
 27 26  2  0
 27 28  1  0
 28 29  2  0
 29 24  1  0
 29 21  1  0
 30 32  1  0
 31 30  2  0
M  END
$$$$
