EDW.pdb
     RDKit          3D

 32 33  0  0  1  0  0  0  0  0999 V2000
    6.8276  -16.7627   19.3362 N   0  0  0  0  0  0  0  0  0  0  0  0
    8.2080  -16.4423   19.5821 C   0  0  1  0  0  0  0  0  0  0  0  0
    8.3926  -14.9403   19.5801 C   0  0  0  0  0  0  0  0  0  0  0  0
    8.1759  -14.4462   18.1587 C   0  0  0  0  0  0  0  0  0  0  0  0
    8.4999  -12.9998   18.1427 C   0  0  0  0  0  0  0  0  0  0  0  0
    7.5826  -12.1387   18.1262 O   0  0  0  0  0  0  0  0  0  0  0  0
    8.6659  -16.9653   20.8933 C   0  0  0  0  0  0  0  0  0  0  0  0
    7.9307  -16.9920   21.9091 O   0  0  0  0  0  0  0  0  0  0  0  0
    9.8099  -12.5491   18.1451 O   0  0  0  0  0  0  0  0  0  0  0  0
   10.0204  -17.4585   20.9771 N   0  0  0  0  0  0  0  0  0  0  0  0
   10.4260  -18.0778   22.1999 C   0  0  1  0  0  0  0  0  0  0  0  0
   11.6740  -18.9073   22.0377 C   0  0  0  0  0  0  0  0  0  0  0  0
   12.0862  -19.5257   23.3057 C   0  0  0  0  0  0  0  0  0  0  0  0
   12.8726  -18.9763   24.1032 O   0  0  0  0  0  0  0  0  0  0  0  0
   10.6729  -17.0147   23.2315 C   0  0  0  0  0  0  0  0  0  0  0  0
   11.4510  -16.0726   22.9073 O   0  0  0  0  0  0  0  0  0  0  0  0
   11.5974  -20.7740   23.6612 O   0  0  0  0  0  0  0  0  0  0  0  0
   10.0413  -17.1227   24.4696 N   0  0  0  0  0  0  0  0  0  0  0  0
   10.4285  -16.2158   25.5732 C   0  0  1  0  0  0  0  0  0  0  0  0
    9.7869  -14.9104   25.2178 C   0  0  0  0  0  0  0  0  0  0  0  0
    8.4042  -14.7498   25.7034 C   0  0  0  0  0  0  0  0  0  0  0  0
    7.4064  -15.7442   25.7174 C   0  0  0  0  0  0  0  0  0  0  0  0
    6.2764  -15.2330   26.1913 N   0  0  0  0  0  0  0  0  0  0  0  0
    6.4372  -13.9291   26.5098 C   0  0  0  0  0  0  0  0  0  0  0  0
    5.5876  -12.9821   27.0404 C   0  0  0  0  0  0  0  0  0  0  0  0
    6.1075  -11.7182   27.2608 C   0  0  0  0  0  0  0  0  0  0  0  0
    7.4224  -11.4136   26.9631 C   0  0  0  0  0  0  0  0  0  0  0  0
    8.2458  -12.3598   26.4396 C   0  0  0  0  0  0  0  0  0  0  0  0
    7.7674  -13.6332   26.2033 C   0  0  0  0  0  0  0  0  0  0  0  0
    9.9695  -16.8660   26.8034 C   0  0  0  0  0  0  0  0  0  0  0  0
   10.1469  -16.3637   27.9403 O   0  0  0  0  0  0  0  0  0  0  0  0
    9.2937  -18.1027   26.8147 O   0  0  0  0  0  0  0  0  0  0  0  0
  2  1  1  1
  2  3  1  0
  3  4  1  0
  4  5  1  0
  5  9  1  0
  5  6  2  0
  7  2  1  0
  8  7  2  0
 10  7  1  0
 11 10  1  0
 11 12  1  6
 13 12  1  0
 14 13  2  0
 15 11  1  0
 15 18  1  0
 16 15  2  0
 17 13  1  0
 19 30  1  0
 19 18  1  0
 19 20  1  6
 21 20  1  0
 21 22  2  0
 23 22  1  0
 24 23  1  0
 25 24  2  0
 26 25  1  0
 27 26  2  0
 27 28  1  0
 28 29  2  0
 29 24  1  0
 29 21  1  0
 30 32  1  0
 31 30  2  0
M  END
$$$$
