EDW.pdb
     RDKit          3D

 32 33  0  0  1  0  0  0  0  0999 V2000
    6.6716  -19.6381   21.7457 N   0  0  0  0  0  0  0  0  0  0  0  0
    8.0498  -19.9451   22.0194 C   0  0  1  0  0  0  0  0  0  0  0  0
    8.4625  -21.1784   21.2457 C   0  0  0  0  0  0  0  0  0  0  0  0
    7.2655  -21.6381   20.4289 C   0  0  0  0  0  0  0  0  0  0  0  0
    6.5392  -22.6427   21.2417 C   0  0  0  0  0  0  0  0  0  0  0  0
    5.4515  -22.3479   21.8013 O   0  0  0  0  0  0  0  0  0  0  0  0
    8.9470  -18.8293   21.6287 C   0  0  0  0  0  0  0  0  0  0  0  0
   10.1195  -19.0101   21.2219 O   0  0  0  0  0  0  0  0  0  0  0  0
    7.0266  -23.9282   21.4126 O   0  0  0  0  0  0  0  0  0  0  0  0
    8.4238  -17.4874   21.7307 N   0  0  0  0  0  0  0  0  0  0  0  0
    9.2874  -16.4093   21.3630 C   0  0  1  0  0  0  0  0  0  0  0  0
    8.5381  -15.2590   20.7409 C   0  0  0  0  0  0  0  0  0  0  0  0
    8.5746  -15.3150   19.2727 C   0  0  0  0  0  0  0  0  0  0  0  0
    9.2419  -16.1606   18.6435 O   0  0  0  0  0  0  0  0  0  0  0  0
   10.0119  -15.9209   22.5845 C   0  0  0  0  0  0  0  0  0  0  0  0
   10.8684  -15.0067   22.4144 O   0  0  0  0  0  0  0  0  0  0  0  0
    7.8465  -14.4022   18.5242 O   0  0  0  0  0  0  0  0  0  0  0  0
    9.7059  -16.4926   23.8186 N   0  0  0  0  0  0  0  0  0  0  0  0
   10.4330  -16.0552   25.0312 C   0  0  1  0  0  0  0  0  0  0  0  0
    9.9647  -14.6504   25.2533 C   0  0  0  0  0  0  0  0  0  0  0  0
    8.5472  -14.5261   25.6391 C   0  0  0  0  0  0  0  0  0  0  0  0
    7.6160  -15.5786   25.7370 C   0  0  0  0  0  0  0  0  0  0  0  0
    6.4285  -15.0912   26.0764 N   0  0  0  0  0  0  0  0  0  0  0  0
    6.4858  -13.7483   26.2210 C   0  0  0  0  0  0  0  0  0  0  0  0
    5.5463  -12.8024   26.5714 C   0  0  0  0  0  0  0  0  0  0  0  0
    5.9698  -11.4864   26.6433 C   0  0  0  0  0  0  0  0  0  0  0  0
    7.2784  -11.1307   26.3761 C   0  0  0  0  0  0  0  0  0  0  0  0
    8.1913  -12.0769   26.0312 C   0  0  0  0  0  0  0  0  0  0  0  0
    7.8108  -13.4014   25.9470 C   0  0  0  0  0  0  0  0  0  0  0  0
   10.1030  -17.0351   26.0693 C   0  0  0  0  0  0  0  0  0  0  0  0
   10.5021  -16.9248   27.2546 O   0  0  0  0  0  0  0  0  0  0  0  0
    9.3142  -18.1776   25.8269 O   0  0  0  0  0  0  0  0  0  0  0  0
  2  1  1  6
  2  3  1  0
  3  4  1  0
  4  5  1  0
  5  9  1  0
  5  6  2  0
  7  2  1  0
  8  7  2  0
 10  7  1  0
 11 10  1  0
 11 12  1  1
 13 12  1  0
 14 13  2  0
 15 11  1  0
 15 18  1  0
 16 15  2  0
 17 13  1  0
 19 30  1  0
 19 18  1  0
 19 20  1  1
 21 20  1  0
 21 22  2  0
 23 22  1  0
 24 23  1  0
 25 24  2  0
 26 25  1  0
 27 26  2  0
 27 28  1  0
 28 29  2  0
 29 24  1  0
 29 21  1  0
 30 32  1  0
 31 30  2  0
M  END
$$$$
