EDW.pdb
     RDKit          3D

 32 33  0  0  1  0  0  0  0  0999 V2000
    6.5690  -16.5118   20.9158 N   0  0  0  0  0  0  0  0  0  0  0  0
    7.9957  -16.6940   20.9154 C   0  0  1  0  0  0  0  0  0  0  0  0
    8.6735  -15.4236   20.4498 C   0  0  0  0  0  0  0  0  0  0  0  0
    7.6616  -14.2931   20.5470 C   0  0  0  0  0  0  0  0  0  0  0  0
    8.3576  -13.0458   20.1506 C   0  0  0  0  0  0  0  0  0  0  0  0
    9.0361  -12.3975   20.9887 O   0  0  0  0  0  0  0  0  0  0  0  0
    8.5056  -17.0236   22.2696 C   0  0  0  0  0  0  0  0  0  0  0  0
    7.7818  -16.9978   23.2936 O   0  0  0  0  0  0  0  0  0  0  0  0
    8.2866  -12.5544   18.8573 O   0  0  0  0  0  0  0  0  0  0  0  0
    9.8984  -17.3860   22.3866 N   0  0  0  0  0  0  0  0  0  0  0  0
   10.3422  -17.9181   23.6369 C   0  0  1  0  0  0  0  0  0  0  0  0
   11.5856  -18.7582   23.4951 C   0  0  0  0  0  0  0  0  0  0  0  0
   11.3513  -19.9413   22.6553 C   0  0  0  0  0  0  0  0  0  0  0  0
   10.5006  -20.8107   22.9319 O   0  0  0  0  0  0  0  0  0  0  0  0
   10.6195  -16.7852   24.5830 C   0  0  0  0  0  0  0  0  0  0  0  0
   11.3708  -15.8596   24.1626 O   0  0  0  0  0  0  0  0  0  0  0  0
   12.0916  -20.1293   21.4976 O   0  0  0  0  0  0  0  0  0  0  0  0
   10.0431  -16.8156   25.8520 N   0  0  0  0  0  0  0  0  0  0  0  0
   10.3691  -15.7557   26.8322 C   0  0  1  0  0  0  0  0  0  0  0  0
    9.1038  -15.5753   27.6122 C   0  0  0  0  0  0  0  0  0  0  0  0
    7.9602  -15.0764   26.8266 C   0  0  0  0  0  0  0  0  0  0  0  0
    6.9326  -15.8587   26.2642 C   0  0  0  0  0  0  0  0  0  0  0  0
    6.0927  -15.0760   25.5972 N   0  0  0  0  0  0  0  0  0  0  0  0
    6.4843  -13.7840   25.6674 C   0  0  0  0  0  0  0  0  0  0  0  0
    5.9530  -12.6150   25.1660 C   0  0  0  0  0  0  0  0  0  0  0  0
    6.6234  -11.4393   25.4572 C   0  0  0  0  0  0  0  0  0  0  0  0
    7.7772  -11.4326   26.2181 C   0  0  0  0  0  0  0  0  0  0  0  0
    8.2873  -12.5951   26.7038 C   0  0  0  0  0  0  0  0  0  0  0  0
    7.6504  -13.7905   26.4362 C   0  0  0  0  0  0  0  0  0  0  0  0
   11.5383  -16.2408   27.5701 C   0  0  0  0  0  0  0  0  0  0  0  0
   12.2441  -15.4903   28.2875 O   0  0  0  0  0  0  0  0  0  0  0  0
   11.9669  -17.5830   27.5374 O   0  0  0  0  0  0  0  0  0  0  0  0
  2  1  1  1
  2  3  1  0
  3  4  1  0
  4  5  1  0
  5  9  1  0
  5  6  2  0
  7  2  1  0
  8  7  2  0
 10  7  1  0
 11 10  1  0
 11 12  1  6
 13 12  1  0
 14 13  2  0
 15 11  1  0
 15 18  1  0
 16 15  2  0
 17 13  1  0
 19 30  1  0
 19 18  1  0
 19 20  1  1
 21 20  1  0
 21 22  2  0
 23 22  1  0
 24 23  1  0
 25 24  2  0
 26 25  1  0
 27 26  2  0
 27 28  1  0
 28 29  2  0
 29 24  1  0
 29 21  1  0
 30 32  1  0
 31 30  2  0
M  END
$$$$
