EDW.pdb
     RDKit          3D

 32 33  0  0  1  0  0  0  0  0999 V2000
    9.4250  -15.5142   19.5208 N   0  0  0  0  0  0  0  0  0  0  0  0
    8.2730  -16.0058   20.2279 C   0  0  1  0  0  0  0  0  0  0  0  0
    7.4587  -16.9011   19.3193 C   0  0  0  0  0  0  0  0  0  0  0  0
    7.6125  -16.3854   17.8974 C   0  0  0  0  0  0  0  0  0  0  0  0
    6.8552  -17.3031   17.0133 C   0  0  0  0  0  0  0  0  0  0  0  0
    6.9798  -17.2352   15.7631 O   0  0  0  0  0  0  0  0  0  0  0  0
    8.6603  -16.7894   21.4273 C   0  0  0  0  0  0  0  0  0  0  0  0
    7.8252  -17.3843   22.1496 O   0  0  0  0  0  0  0  0  0  0  0  0
    5.9924  -18.2579   17.5262 O   0  0  0  0  0  0  0  0  0  0  0  0
   10.0649  -16.8538   21.7554 N   0  0  0  0  0  0  0  0  0  0  0  0
   10.4499  -17.6688   22.8648 C   0  0  1  0  0  0  0  0  0  0  0  0
   11.8418  -18.2268   22.7126 C   0  0  0  0  0  0  0  0  0  0  0  0
   12.8056  -17.1884   22.3216 C   0  0  0  0  0  0  0  0  0  0  0  0
   13.5072  -16.5700   23.1472 O   0  0  0  0  0  0  0  0  0  0  0  0
   10.3830  -16.8509   24.1227 C   0  0  0  0  0  0  0  0  0  0  0  0
   10.8195  -15.6662   24.0587 O   0  0  0  0  0  0  0  0  0  0  0  0
   12.9666  -16.8577   20.9843 O   0  0  0  0  0  0  0  0  0  0  0  0
    9.8522  -17.4328   25.2729 N   0  0  0  0  0  0  0  0  0  0  0  0
    9.8480  -16.6752   26.5443 C   0  0  1  0  0  0  0  0  0  0  0  0
    8.4097  -16.6644   26.9604 C   0  0  0  0  0  0  0  0  0  0  0  0
    7.5631  -15.7034   26.2302 C   0  0  0  0  0  0  0  0  0  0  0  0
    6.5856  -16.0201   25.2665 C   0  0  0  0  0  0  0  0  0  0  0  0
    6.0465  -14.9016   24.7962 N   0  0  0  0  0  0  0  0  0  0  0  0
    6.6003  -13.8185   25.3858 C   0  0  0  0  0  0  0  0  0  0  0  0
    6.3780  -12.4643   25.2559 C   0  0  0  0  0  0  0  0  0  0  0  0
    7.1323  -11.6200   26.0526 C   0  0  0  0  0  0  0  0  0  0  0  0
    8.0699  -12.1093   26.9423 C   0  0  0  0  0  0  0  0  0  0  0  0
    8.2764  -13.4479   27.0567 C   0  0  0  0  0  0  0  0  0  0  0  0
    7.5460  -14.3252   26.2802 C   0  0  0  0  0  0  0  0  0  0  0  0
   10.7874  -17.3718   27.4269 C   0  0  0  0  0  0  0  0  0  0  0  0
   11.3390  -18.4537   27.1082 O   0  0  0  0  0  0  0  0  0  0  0  0
   11.1497  -16.8893   28.7005 O   0  0  0  0  0  0  0  0  0  0  0  0
  2  1  1  6
  2  3  1  0
  3  4  1  0
  4  5  1  0
  5  9  1  0
  5  6  2  0
  7  2  1  0
  8  7  2  0
 10  7  1  0
 11 10  1  0
 11 12  1  6
 13 12  1  0
 14 13  2  0
 15 11  1  0
 15 18  1  0
 16 15  2  0
 17 13  1  0
 19 30  1  0
 19 18  1  0
 19 20  1  1
 21 20  1  0
 21 22  2  0
 23 22  1  0
 24 23  1  0
 25 24  2  0
 26 25  1  0
 27 26  2  0
 27 28  1  0
 28 29  2  0
 29 24  1  0
 29 21  1  0
 30 32  1  0
 31 30  2  0
M  END
$$$$
