EDW.pdb
     RDKit          3D

 32 33  0  0  1  0  0  0  0  0999 V2000
    6.4905  -15.7209   20.4003 N   0  0  0  0  0  0  0  0  0  0  0  0
    7.8642  -15.3984   20.6792 C   0  0  1  0  0  0  0  0  0  0  0  0
    7.9871  -13.9268   21.0099 C   0  0  0  0  0  0  0  0  0  0  0  0
    7.5166  -13.1364   19.7994 C   0  0  0  0  0  0  0  0  0  0  0  0
    8.5770  -13.2396   18.7687 C   0  0  0  0  0  0  0  0  0  0  0  0
    9.5964  -13.9497   18.9681 O   0  0  0  0  0  0  0  0  0  0  0  0
    8.3869  -16.1784   21.8285 C   0  0  0  0  0  0  0  0  0  0  0  0
    7.6445  -16.6606   22.7169 O   0  0  0  0  0  0  0  0  0  0  0  0
    8.4849  -12.5651   17.5622 O   0  0  0  0  0  0  0  0  0  0  0  0
    9.8152  -16.3764   21.9042 N   0  0  0  0  0  0  0  0  0  0  0  0
   10.3123  -17.2318   22.9359 C   0  0  1  0  0  0  0  0  0  0  0  0
   11.6327  -17.8619   22.5737 C   0  0  0  0  0  0  0  0  0  0  0  0
   12.0888  -18.8034   23.6060 C   0  0  0  0  0  0  0  0  0  0  0  0
   13.1321  -18.6302   24.2675 O   0  0  0  0  0  0  0  0  0  0  0  0
   10.4774  -16.4352   24.1983 C   0  0  0  0  0  0  0  0  0  0  0  0
   11.1700  -15.3803   24.1226 O   0  0  0  0  0  0  0  0  0  0  0  0
   11.3496  -19.9442   23.8813 O   0  0  0  0  0  0  0  0  0  0  0  0
    9.8685  -16.8945   25.3651 N   0  0  0  0  0  0  0  0  0  0  0  0
   10.0283  -16.1347   26.6251 C   0  0  1  0  0  0  0  0  0  0  0  0
    8.6678  -16.1688   27.2494 C   0  0  0  0  0  0  0  0  0  0  0  0
    7.6355  -15.4081   26.5218 C   0  0  0  0  0  0  0  0  0  0  0  0
    6.5404  -15.9511   25.8216 C   0  0  0  0  0  0  0  0  0  0  0  0
    5.8408  -14.9712   25.2619 N   0  0  0  0  0  0  0  0  0  0  0  0
    6.3946  -13.7694   25.5383 C   0  0  0  0  0  0  0  0  0  0  0  0
    6.0438  -12.4776   25.2088 C   0  0  0  0  0  0  0  0  0  0  0  0
    6.8486  -11.4604   25.6924 C   0  0  0  0  0  0  0  0  0  0  0  0
    7.9583  -11.7237   26.4732 C   0  0  0  0  0  0  0  0  0  0  0  0
    8.2897  -13.0038   26.7877 C   0  0  0  0  0  0  0  0  0  0  0  0
    7.5143  -14.0484   26.3252 C   0  0  0  0  0  0  0  0  0  0  0  0
   11.1096  -16.7992   27.3573 C   0  0  0  0  0  0  0  0  0  0  0  0
   11.6054  -17.8915   26.9866 O   0  0  0  0  0  0  0  0  0  0  0  0
   11.6816  -16.2716   28.5323 O   0  0  0  0  0  0  0  0  0  0  0  0
  2  1  1  1
  2  3  1  0
  3  4  1  0
  4  5  1  0
  5  9  1  0
  5  6  2  0
  7  2  1  0
  8  7  2  0
 10  7  1  0
 11 10  1  0
 11 12  1  6
 13 12  1  0
 14 13  2  0
 15 11  1  0
 15 18  1  0
 16 15  2  0
 17 13  1  0
 19 30  1  0
 19 18  1  0
 19 20  1  1
 21 20  1  0
 21 22  2  0
 23 22  1  0
 24 23  1  0
 25 24  2  0
 26 25  1  0
 27 26  2  0
 27 28  1  0
 28 29  2  0
 29 24  1  0
 29 21  1  0
 30 32  1  0
 31 30  2  0
M  END
$$$$
