EDW.pdb
     RDKit          3D

 32 33  0  0  1  0  0  0  0  0999 V2000
    9.5659  -18.8481   18.0609 N   0  0  0  0  0  0  0  0  0  0  0  0
   10.0025  -17.6714   18.7635 C   0  0  1  0  0  0  0  0  0  0  0  0
    8.9619  -16.5807   18.6308 C   0  0  0  0  0  0  0  0  0  0  0  0
    7.6548  -17.2328   18.2092 C   0  0  0  0  0  0  0  0  0  0  0  0
    7.7278  -17.4562   16.7456 C   0  0  0  0  0  0  0  0  0  0  0  0
    8.7428  -17.0988   16.0935 O   0  0  0  0  0  0  0  0  0  0  0  0
   10.2107  -17.9422   20.2077 C   0  0  0  0  0  0  0  0  0  0  0  0
    9.3489  -18.5036   20.9254 O   0  0  0  0  0  0  0  0  0  0  0  0
    6.6924  -18.0597   16.0507 O   0  0  0  0  0  0  0  0  0  0  0  0
   11.4677  -17.5316   20.7876 N   0  0  0  0  0  0  0  0  0  0  0  0
   11.6879  -17.8251   22.1691 C   0  0  1  0  0  0  0  0  0  0  0  0
   13.1449  -18.0473   22.4845 C   0  0  0  0  0  0  0  0  0  0  0  0
   13.6386  -19.3108   21.9190 C   0  0  0  0  0  0  0  0  0  0  0  0
   12.8801  -20.2297   21.5496 O   0  0  0  0  0  0  0  0  0  0  0  0
   11.1726  -16.6866   23.0021 C   0  0  0  0  0  0  0  0  0  0  0  0
   11.3626  -15.5193   22.5556 O   0  0  0  0  0  0  0  0  0  0  0  0
   15.0018  -19.5225   21.7760 O   0  0  0  0  0  0  0  0  0  0  0  0
   10.5238  -16.9741   24.2020 N   0  0  0  0  0  0  0  0  0  0  0  0
   10.0857  -15.8687   25.0833 C   0  0  1  0  0  0  0  0  0  0  0  0
    9.1230  -15.0886   24.2427 C   0  0  0  0  0  0  0  0  0  0  0  0
    7.8968  -14.6635   24.9422 C   0  0  0  0  0  0  0  0  0  0  0  0
    6.7519  -15.4524   25.1684 C   0  0  0  0  0  0  0  0  0  0  0  0
    5.8323  -14.7306   25.7980 N   0  0  0  0  0  0  0  0  0  0  0  0
    6.2804  -13.4752   26.0228 C   0  0  0  0  0  0  0  0  0  0  0  0
    5.7215  -12.3771   26.6410 C   0  0  0  0  0  0  0  0  0  0  0  0
    6.4932  -11.2299   26.7119 C   0  0  0  0  0  0  0  0  0  0  0  0
    7.7707  -11.1825   26.1865 C   0  0  0  0  0  0  0  0  0  0  0  0
    8.3056  -12.2748   25.5797 C   0  0  0  0  0  0  0  0  0  0  0  0
    7.5697  -13.4393   25.4867 C   0  0  0  0  0  0  0  0  0  0  0  0
    9.5470  -16.5077   26.2868 C   0  0  0  0  0  0  0  0  0  0  0  0
    9.3490  -15.8787   27.3551 O   0  0  0  0  0  0  0  0  0  0  0  0
    9.2073  -17.8741   26.3466 O   0  0  0  0  0  0  0  0  0  0  0  0
  2  1  1  6
  2  3  1  0
  3  4  1  0
  4  5  1  0
  5  9  1  0
  5  6  2  0
  7  2  1  0
  8  7  2  0
 10  7  1  0
 11 10  1  0
 11 12  1  6
 13 12  1  0
 14 13  2  0
 15 11  1  0
 15 18  1  0
 16 15  2  0
 17 13  1  0
 19 30  1  0
 19 18  1  0
 19 20  1  6
 21 20  1  0
 21 22  2  0
 23 22  1  0
 24 23  1  0
 25 24  2  0
 26 25  1  0
 27 26  2  0
 27 28  1  0
 28 29  2  0
 29 24  1  0
 29 21  1  0
 30 32  1  0
 31 30  2  0
M  END
$$$$
