EDW.pdb
     RDKit          3D

 32 33  0  0  1  0  0  0  0  0999 V2000
    9.0809  -13.0622   19.9331 N   0  0  0  0  0  0  0  0  0  0  0  0
    7.9741  -13.9792   19.9874 C   0  0  1  0  0  0  0  0  0  0  0  0
    7.4845  -14.2735   18.5861 C   0  0  0  0  0  0  0  0  0  0  0  0
    8.7008  -14.5431   17.7147 C   0  0  0  0  0  0  0  0  0  0  0  0
    8.2113  -14.7574   16.3320 C   0  0  0  0  0  0  0  0  0  0  0  0
    8.0886  -15.9212   15.8697 O   0  0  0  0  0  0  0  0  0  0  0  0
    8.3581  -15.2632   20.6250 C   0  0  0  0  0  0  0  0  0  0  0  0
    7.5539  -16.2132   20.7788 O   0  0  0  0  0  0  0  0  0  0  0  0
    7.8751  -13.6956   15.5081 O   0  0  0  0  0  0  0  0  0  0  0  0
    9.7218  -15.3992   21.0795 N   0  0  0  0  0  0  0  0  0  0  0  0
   10.0674  -16.5885   21.7932 C   0  0  1  0  0  0  0  0  0  0  0  0
   11.1256  -17.3962   21.0863 C   0  0  0  0  0  0  0  0  0  0  0  0
   11.4845  -18.6046   21.8420 C   0  0  0  0  0  0  0  0  0  0  0  0
   10.6410  -19.4415   22.2218 O   0  0  0  0  0  0  0  0  0  0  0  0
   10.5652  -16.2149   23.1599 C   0  0  0  0  0  0  0  0  0  0  0  0
   11.7032  -15.6682   23.2246 O   0  0  0  0  0  0  0  0  0  0  0  0
   12.8103  -18.8552   22.1630 O   0  0  0  0  0  0  0  0  0  0  0  0
    9.7591  -16.4867   24.2643 N   0  0  0  0  0  0  0  0  0  0  0  0
   10.2898  -16.2784   25.6301 C   0  0  1  0  0  0  0  0  0  0  0  0
    9.8371  -14.8981   25.9933 C   0  0  0  0  0  0  0  0  0  0  0  0
    8.3778  -14.6943   25.9443 C   0  0  0  0  0  0  0  0  0  0  0  0
    7.4028  -15.6969   25.7754 C   0  0  0  0  0  0  0  0  0  0  0  0
    6.1964  -15.1430   25.7458 N   0  0  0  0  0  0  0  0  0  0  0  0
    6.2821  -13.8013   25.8867 C   0  0  0  0  0  0  0  0  0  0  0  0
    5.3343  -12.8015   25.9357 C   0  0  0  0  0  0  0  0  0  0  0  0
    5.7894  -11.5065   26.1151 C   0  0  0  0  0  0  0  0  0  0  0  0
    7.1363  -11.2226   26.2403 C   0  0  0  0  0  0  0  0  0  0  0  0
    8.0570  -12.2211   26.1888 C   0  0  0  0  0  0  0  0  0  0  0  0
    7.6461  -13.5271   26.0105 C   0  0  0  0  0  0  0  0  0  0  0  0
    9.7614  -17.3821   26.4360 C   0  0  0  0  0  0  0  0  0  0  0  0
    8.9803  -18.2468   25.9686 O   0  0  0  0  0  0  0  0  0  0  0  0
   10.0834  -17.5657   27.7957 O   0  0  0  0  0  0  0  0  0  0  0  0
  2  1  1  6
  2  3  1  0
  3  4  1  0
  4  5  1  0
  5  9  1  0
  5  6  2  0
  7  2  1  0
  8  7  2  0
 10  7  1  0
 11 10  1  0
 11 12  1  6
 13 12  1  0
 14 13  2  0
 15 11  1  0
 15 18  1  0
 16 15  2  0
 17 13  1  0
 19 30  1  0
 19 18  1  0
 19 20  1  1
 21 20  1  0
 21 22  2  0
 23 22  1  0
 24 23  1  0
 25 24  2  0
 26 25  1  0
 27 26  2  0
 27 28  1  0
 28 29  2  0
 29 24  1  0
 29 21  1  0
 30 32  1  0
 31 30  2  0
M  END
$$$$
