EDW.pdb
     RDKit          3D

 32 33  0  0  1  0  0  0  0  0999 V2000
    8.9928  -15.9049   19.8381 N   0  0  0  0  0  0  0  0  0  0  0  0
    8.2489  -16.8223   20.6589 C   0  0  1  0  0  0  0  0  0  0  0  0
    7.8239  -18.0177   19.8339 C   0  0  0  0  0  0  0  0  0  0  0  0
    7.6507  -17.5538   18.3965 C   0  0  0  0  0  0  0  0  0  0  0  0
    7.1899  -18.7230   17.6104 C   0  0  0  0  0  0  0  0  0  0  0  0
    7.9733  -19.6755   17.3610 O   0  0  0  0  0  0  0  0  0  0  0  0
    9.0569  -17.3111   21.8037 C   0  0  0  0  0  0  0  0  0  0  0  0
    8.6478  -18.1912   22.5982 O   0  0  0  0  0  0  0  0  0  0  0  0
    5.8943  -18.8082   17.1275 O   0  0  0  0  0  0  0  0  0  0  0  0
   10.3667  -16.7325   21.9895 N   0  0  0  0  0  0  0  0  0  0  0  0
   11.1591  -17.2199   23.0747 C   0  0  1  0  0  0  0  0  0  0  0  0
   12.6367  -17.0542   22.8275 C   0  0  0  0  0  0  0  0  0  0  0  0
   13.0664  -17.7498   21.6062 C   0  0  0  0  0  0  0  0  0  0  0  0
   13.1956  -18.9889   21.5423 O   0  0  0  0  0  0  0  0  0  0  0  0
   10.7845  -16.4815   24.3277 C   0  0  0  0  0  0  0  0  0  0  0  0
   11.1145  -15.2630   24.3941 O   0  0  0  0  0  0  0  0  0  0  0  0
   13.3483  -17.0263   20.4571 O   0  0  0  0  0  0  0  0  0  0  0  0
   10.1048  -17.1684   25.3325 N   0  0  0  0  0  0  0  0  0  0  0  0
    9.8584  -16.5101   26.6349 C   0  0  1  0  0  0  0  0  0  0  0  0
    8.3746  -16.5974   26.8155 C   0  0  0  0  0  0  0  0  0  0  0  0
    7.6053  -15.5510   26.1177 C   0  0  0  0  0  0  0  0  0  0  0  0
    6.7440  -15.7439   25.0198 C   0  0  0  0  0  0  0  0  0  0  0  0
    6.2500  -14.5742   24.6317 N   0  0  0  0  0  0  0  0  0  0  0  0
    6.7245  -13.5733   25.4066 C   0  0  0  0  0  0  0  0  0  0  0  0
    6.5052  -12.2124   25.4183 C   0  0  0  0  0  0  0  0  0  0  0  0
    7.1582  -11.4746   26.3907 C   0  0  0  0  0  0  0  0  0  0  0  0
    7.9958  -12.0726   27.3133 C   0  0  0  0  0  0  0  0  0  0  0  0
    8.2009  -13.4160   27.2865 C   0  0  0  0  0  0  0  0  0  0  0  0
    7.5697  -14.1891   26.3326 C   0  0  0  0  0  0  0  0  0  0  0  0
   10.6871  -17.2273   27.6074 C   0  0  0  0  0  0  0  0  0  0  0  0
   10.8486  -16.8245   28.7855 O   0  0  0  0  0  0  0  0  0  0  0  0
   11.3688  -18.4231   27.3047 O   0  0  0  0  0  0  0  0  0  0  0  0
  2  1  1  6
  2  3  1  0
  3  4  1  0
  4  5  1  0
  5  9  1  0
  5  6  2  0
  7  2  1  0
  8  7  2  0
 10  7  1  0
 11 10  1  0
 11 12  1  6
 13 12  1  0
 14 13  2  0
 15 11  1  0
 15 18  1  0
 16 15  2  0
 17 13  1  0
 19 30  1  0
 19 18  1  0
 19 20  1  1
 21 20  1  0
 21 22  2  0
 23 22  1  0
 24 23  1  0
 25 24  2  0
 26 25  1  0
 27 26  2  0
 27 28  1  0
 28 29  2  0
 29 24  1  0
 29 21  1  0
 30 32  1  0
 31 30  2  0
M  END
$$$$
