EDW.pdb
     RDKit          3D

 32 33  0  0  1  0  0  0  0  0999 V2000
    6.5945  -15.9704   20.9057 N   0  0  0  0  0  0  0  0  0  0  0  0
    7.9979  -15.6898   21.0486 C   0  0  1  0  0  0  0  0  0  0  0  0
    8.2127  -14.1954   21.1530 C   0  0  0  0  0  0  0  0  0  0  0  0
    7.7172  -13.5623   19.8626 C   0  0  0  0  0  0  0  0  0  0  0  0
    8.8338  -13.6181   18.8893 C   0  0  0  0  0  0  0  0  0  0  0  0
    9.9142  -14.1903   19.1869 O   0  0  0  0  0  0  0  0  0  0  0  0
    8.5623  -16.3267   22.2644 C   0  0  0  0  0  0  0  0  0  0  0  0
    7.8556  -16.6728   23.2411 O   0  0  0  0  0  0  0  0  0  0  0  0
    8.7292  -13.0486   17.6309 O   0  0  0  0  0  0  0  0  0  0  0  0
    9.9890  -16.5461   22.2999 N   0  0  0  0  0  0  0  0  0  0  0  0
   10.5238  -17.2505   23.4229 C   0  0  1  0  0  0  0  0  0  0  0  0
   11.9222  -17.7541   23.1727 C   0  0  0  0  0  0  0  0  0  0  0  0
   11.9963  -18.5758   21.9564 C   0  0  0  0  0  0  0  0  0  0  0  0
   11.2972  -19.5944   21.7834 O   0  0  0  0  0  0  0  0  0  0  0  0
   10.5358  -16.3381   24.6157 C   0  0  0  0  0  0  0  0  0  0  0  0
   11.0515  -15.1949   24.4563 O   0  0  0  0  0  0  0  0  0  0  0  0
   12.8714  -18.2310   20.9371 O   0  0  0  0  0  0  0  0  0  0  0  0
    9.9871  -16.7937   25.8135 N   0  0  0  0  0  0  0  0  0  0  0  0
   10.0554  -15.9434   27.0230 C   0  0  1  0  0  0  0  0  0  0  0  0
    8.6677  -15.9902   27.5835 C   0  0  0  0  0  0  0  0  0  0  0  0
    7.6568  -15.2680   26.7897 C   0  0  0  0  0  0  0  0  0  0  0  0
    6.6025  -15.8492   26.0582 C   0  0  0  0  0  0  0  0  0  0  0  0
    5.9129  -14.8975   25.4404 N   0  0  0  0  0  0  0  0  0  0  0  0
    6.4347  -13.6790   25.7060 C   0  0  0  0  0  0  0  0  0  0  0  0
    6.0784  -12.4033   25.3244 C   0  0  0  0  0  0  0  0  0  0  0  0
    6.8448  -11.3592   25.8133 C   0  0  0  0  0  0  0  0  0  0  0  0
    7.9228  -11.5814   26.6493 C   0  0  0  0  0  0  0  0  0  0  0  0
    8.2603  -12.8464   27.0147 C   0  0  0  0  0  0  0  0  0  0  0  0
    7.5228  -13.9167   26.5489 C   0  0  0  0  0  0  0  0  0  0  0  0
   11.1231  -16.5115   27.8501 C   0  0  0  0  0  0  0  0  0  0  0  0
   11.6323  -17.6355   27.6184 O   0  0  0  0  0  0  0  0  0  0  0  0
   11.6659  -15.8483   28.9689 O   0  0  0  0  0  0  0  0  0  0  0  0
  2  1  1  1
  2  3  1  0
  3  4  1  0
  4  5  1  0
  5  9  1  0
  5  6  2  0
  7  2  1  0
  8  7  2  0
 10  7  1  0
 11 10  1  0
 11 12  1  6
 13 12  1  0
 14 13  2  0
 15 11  1  0
 15 18  1  0
 16 15  2  0
 17 13  1  0
 19 30  1  0
 19 18  1  0
 19 20  1  1
 21 20  1  0
 21 22  2  0
 23 22  1  0
 24 23  1  0
 25 24  2  0
 26 25  1  0
 27 26  2  0
 27 28  1  0
 28 29  2  0
 29 24  1  0
 29 21  1  0
 30 32  1  0
 31 30  2  0
M  END
$$$$
