EDW.pdb
     RDKit          3D

 32 33  0  0  1  0  0  0  0  0999 V2000
    8.1646  -13.5341   18.6421 N   0  0  0  0  0  0  0  0  0  0  0  0
    9.3011  -14.3216   19.0383 C   0  0  1  0  0  0  0  0  0  0  0  0
   10.4309  -13.4100   19.4658 C   0  0  0  0  0  0  0  0  0  0  0  0
   11.4983  -13.4523   18.3840 C   0  0  0  0  0  0  0  0  0  0  0  0
   12.7970  -13.6901   19.0579 C   0  0  0  0  0  0  0  0  0  0  0  0
   13.8708  -13.6736   18.4021 O   0  0  0  0  0  0  0  0  0  0  0  0
    8.9749  -15.2211   20.1727 C   0  0  0  0  0  0  0  0  0  0  0  0
    8.1806  -14.8999   21.0886 O   0  0  0  0  0  0  0  0  0  0  0  0
   12.8744  -13.9362   20.4189 O   0  0  0  0  0  0  0  0  0  0  0  0
    9.6128  -16.5162   20.2001 N   0  0  0  0  0  0  0  0  0  0  0  0
    9.3219  -17.3753   21.3050 C   0  0  1  0  0  0  0  0  0  0  0  0
    9.7170  -18.8056   21.0405 C   0  0  0  0  0  0  0  0  0  0  0  0
    9.0194  -19.3564   19.8700 C   0  0  0  0  0  0  0  0  0  0  0  0
    9.5942  -19.5939   18.7887 O   0  0  0  0  0  0  0  0  0  0  0  0
   10.0533  -16.8797   22.5194 C   0  0  0  0  0  0  0  0  0  0  0  0
   11.2536  -16.5180   22.3563 O   0  0  0  0  0  0  0  0  0  0  0  0
    7.6625  -19.6355   19.9375 O   0  0  0  0  0  0  0  0  0  0  0  0
    9.3804  -16.8460   23.7397 N   0  0  0  0  0  0  0  0  0  0  0  0
   10.0959  -16.4146   24.9614 C   0  0  1  0  0  0  0  0  0  0  0  0
    9.7763  -14.9565   25.0783 C   0  0  0  0  0  0  0  0  0  0  0  0
    8.4103  -14.6596   25.5467 C   0  0  0  0  0  0  0  0  0  0  0  0
    7.3240  -15.5562   25.5660 C   0  0  0  0  0  0  0  0  0  0  0  0
    6.2424  -14.9341   26.0199 N   0  0  0  0  0  0  0  0  0  0  0  0
    6.5214  -13.6457   26.3192 C   0  0  0  0  0  0  0  0  0  0  0  0
    5.7592  -12.6148   26.8258 C   0  0  0  0  0  0  0  0  0  0  0  0
    6.3929  -11.4013   27.0316 C   0  0  0  0  0  0  0  0  0  0  0  0
    7.7331  -11.2256   26.7429 C   0  0  0  0  0  0  0  0  0  0  0  0
    8.4692  -12.2532   26.2432 C   0  0  0  0  0  0  0  0  0  0  0  0
    7.8762  -13.4803   26.0221 C   0  0  0  0  0  0  0  0  0  0  0  0
    9.6129  -17.2865   26.0353 C   0  0  0  0  0  0  0  0  0  0  0  0
    8.6761  -18.1061   25.8711 O   0  0  0  0  0  0  0  0  0  0  0  0
   10.1560  -17.2794   27.3358 O   0  0  0  0  0  0  0  0  0  0  0  0
  2  1  1  1
  2  3  1  0
  3  4  1  0
  4  5  1  0
  5  9  1  0
  5  6  2  0
  7  2  1  0
  8  7  2  0
 10  7  1  0
 11 10  1  0
 11 12  1  6
 13 12  1  0
 14 13  2  0
 15 11  1  0
 15 18  1  0
 16 15  2  0
 17 13  1  0
 19 30  1  0
 19 18  1  0
 19 20  1  1
 21 20  1  0
 21 22  2  0
 23 22  1  0
 24 23  1  0
 25 24  2  0
 26 25  1  0
 27 26  2  0
 27 28  1  0
 28 29  2  0
 29 24  1  0
 29 21  1  0
 30 32  1  0
 31 30  2  0
M  END
$$$$
