MMI.pdb
     RDKit          3D

 25 24  0  0  1  0  0  0  0  0999 V2000
   19.1789  -23.7388   -7.8112 C   0  0  0  0  0  0  0  0  0  0  0  0
   18.1290  -22.6312   -8.7759 S   0  0  0  0  0  0  0  0  0  0  0  0
   18.9623  -22.2854  -10.3617 C   0  0  0  0  0  0  0  0  0  0  0  0
   20.1783  -21.4360  -10.0481 C   0  0  0  0  0  0  0  0  0  0  0  0
   20.9482  -21.2450  -11.3269 C   0  0  2  0  0  0  0  0  0  0  0  0
   21.2734  -22.5118  -11.9496 N   0  0  0  0  0  0  0  0  0  0  0  0
   22.2330  -20.5197  -11.0969 C   0  0  0  0  0  0  0  0  0  0  0  0
   22.3051  -19.2510  -11.0977 O   0  0  0  0  0  0  0  0  0  0  0  0
   26.6053  -19.5708   -6.7771 C   0  0  0  0  0  0  0  0  0  0  0  0
   27.4393  -20.7245   -7.8971 S   0  0  0  0  0  0  0  0  0  0  0  0
   26.9132  -20.4267   -9.6298 C   0  0  0  0  0  0  0  0  0  0  0  0
   25.5157  -20.9535   -9.7341 C   0  0  0  0  0  0  0  0  0  0  0  0
   24.7478  -20.5168  -10.9359 C   0  0  2  0  0  0  0  0  0  0  0  0
   23.4548  -21.2057  -10.8633 N   0  0  0  0  0  0  0  0  0  0  0  0
   25.4627  -20.9707  -12.1589 C   0  0  0  0  0  0  0  0  0  0  0  0
   25.5201  -22.1516  -12.5518 O   0  0  0  0  0  0  0  0  0  0  0  0
   27.2254  -18.0327  -17.3327 C   0  0  0  0  0  0  0  0  0  0  0  0
   27.2186  -19.3176  -16.5143 C   0  0  0  0  0  0  0  0  0  0  0  0
   26.7148  -19.0657  -15.1323 C   0  0  2  0  0  0  0  0  0  0  0  0
   27.3834  -17.8957  -14.4626 C   0  0  0  0  0  0  0  0  0  0  0  0
   26.6813  -20.3115  -14.2781 C   0  0  2  0  0  0  0  0  0  0  0  0
   26.1462  -20.0179  -12.9689 N   0  0  0  0  0  0  0  0  0  0  0  0
   27.9579  -21.0431  -14.2259 C   0  0  0  0  0  0  0  0  0  0  0  0
   28.6992  -20.9470  -13.2112 O   0  0  0  0  0  0  0  0  0  0  0  0
   28.4289  -21.8607  -15.2405 O   0  0  0  0  0  0  0  0  0  0  0  0
  1  2  1  0
  3  2  1  0
  3  4  1  0
  5  6  1  1
  5  4  1  0
  7  5  1  0
  8  7  2  0
 10  9  1  0
 10 11  1  0
 12 11  1  0
 13 12  1  1
 13 14  1  0
 14  7  1  0
 15 13  1  0
 15 16  2  0
 17 18  1  0
 18 19  1  0
 19 20  1  1
 21 19  1  0
 21 22  1  1
 22 15  1  0
 23 21  1  0
 24 23  2  0
 25 23  1  0
M  END
$$$$
