MMI.pdb
     RDKit          3D

 25 24  0  0  1  0  0  0  0  0999 V2000
   31.1333  -20.8313  -11.0105 C   0  0  0  0  0  0  0  0  0  0  0  0
   30.1700  -21.8664  -12.1332 S   0  0  0  0  0  0  0  0  0  0  0  0
   30.1789  -21.0878  -13.7833 C   0  0  0  0  0  0  0  0  0  0  0  0
   29.3147  -19.8455  -13.6924 C   0  0  0  0  0  0  0  0  0  0  0  0
   27.8865  -20.2609  -13.9209 C   0  0  2  0  0  0  0  0  0  0  0  0
   27.3718  -19.7407  -15.1710 N   0  0  0  0  0  0  0  0  0  0  0  0
   26.9871  -19.7742  -12.8329 C   0  0  0  0  0  0  0  0  0  0  0  0
   26.6961  -18.5452  -12.6926 O   0  0  0  0  0  0  0  0  0  0  0  0
   21.7056  -22.0534  -11.7120 C   0  0  0  0  0  0  0  0  0  0  0  0
   21.7725  -20.3153  -12.2172 S   0  0  0  0  0  0  0  0  0  0  0  0
   23.4914  -19.6822  -12.1043 C   0  0  0  0  0  0  0  0  0  0  0  0
   24.1810  -20.5371  -11.0870 C   0  0  0  0  0  0  0  0  0  0  0  0
   25.5890  -20.1591  -10.7719 C   0  0  2  0  0  0  0  0  0  0  0  0
   26.4018  -20.6575  -11.8868 N   0  0  0  0  0  0  0  0  0  0  0  0
   26.0100  -20.8541   -9.5260 C   0  0  0  0  0  0  0  0  0  0  0  0
   26.2733  -22.0691   -9.4439 O   0  0  0  0  0  0  0  0  0  0  0  0
   29.1473  -19.6332   -4.4630 C   0  0  0  0  0  0  0  0  0  0  0  0
   28.0220  -20.4612   -5.0704 C   0  0  0  0  0  0  0  0  0  0  0  0
   27.5986  -19.8994   -6.3867 C   0  0  2  0  0  0  0  0  0  0  0  0
   27.3175  -18.4220   -6.3369 C   0  0  0  0  0  0  0  0  0  0  0  0
   26.5009  -20.7005   -7.0468 C   0  0  2  0  0  0  0  0  0  0  0  0
   26.1330  -20.1137   -8.3144 N   0  0  0  0  0  0  0  0  0  0  0  0
   25.3415  -20.9667   -6.1792 C   0  0  0  0  0  0  0  0  0  0  0  0
   25.4996  -21.5634   -5.0803 O   0  0  0  0  0  0  0  0  0  0  0  0
   24.0406  -20.6001   -6.4837 O   0  0  0  0  0  0  0  0  0  0  0  0
  1  2  1  0
  3  2  1  0
  3  4  1  0
  5  6  1  6
  5  4  1  0
  7  5  1  0
  8  7  2  0
 10  9  1  0
 10 11  1  0
 12 11  1  0
 13 12  1  6
 13 14  1  0
 14  7  1  0
 15 13  1  0
 15 16  2  0
 17 18  1  0
 18 19  1  0
 19 20  1  1
 21 19  1  0
 21 22  1  6
 22 15  1  0
 23 21  1  0
 24 23  2  0
 25 23  1  0
M  END
$$$$
