MMI.pdb
     RDKit          3D

 25 24  0  0  1  0  0  0  0  0999 V2000
   15.4040  -12.1016  -20.8229 C   0  0  0  0  0  0  0  0  0  0  0  0
   16.7036  -11.1152  -20.0495 S   0  0  0  0  0  0  0  0  0  0  0  0
   17.8734  -12.2488  -19.2276 C   0  0  0  0  0  0  0  0  0  0  0  0
   18.9103  -11.3887  -18.5321 C   0  0  0  0  0  0  0  0  0  0  0  0
   19.8577  -12.3061  -17.8072 C   0  0  2  0  0  0  0  0  0  0  0  0
   19.1487  -13.3220  -17.0564 N   0  0  0  0  0  0  0  0  0  0  0  0
   20.7207  -11.5615  -16.8427 C   0  0  0  0  0  0  0  0  0  0  0  0
   20.3370  -11.2847  -15.6632 O   0  0  0  0  0  0  0  0  0  0  0  0
   28.2075  -10.9933  -14.8313 C   0  0  0  0  0  0  0  0  0  0  0  0
   26.8551  -11.4450  -15.9485 S   0  0  0  0  0  0  0  0  0  0  0  0
   25.3374  -10.5024  -15.5291 C   0  0  0  0  0  0  0  0  0  0  0  0
   24.2614  -11.0304  -16.4262 C   0  0  0  0  0  0  0  0  0  0  0  0
   22.8986  -10.4673  -16.2024 C   0  0  2  0  0  0  0  0  0  0  0  0
   22.0251  -11.1163  -17.1863 N   0  0  0  0  0  0  0  0  0  0  0  0
   22.9266   -9.0060  -16.4793 C   0  0  0  0  0  0  0  0  0  0  0  0
   23.3628   -8.4889  -17.5255 O   0  0  0  0  0  0  0  0  0  0  0  0
   19.8178   -4.5388  -17.6654 C   0  0  0  0  0  0  0  0  0  0  0  0
   21.0257   -4.8406  -16.7875 C   0  0  0  0  0  0  0  0  0  0  0  0
   21.1341   -6.3041  -16.5160 C   0  0  2  0  0  0  0  0  0  0  0  0
   19.8587   -6.9046  -15.9898 C   0  0  0  0  0  0  0  0  0  0  0  0
   22.3530   -6.6662  -15.7002 C   0  0  2  0  0  0  0  0  0  0  0  0
   22.4286   -8.0952  -15.5029 N   0  0  0  0  0  0  0  0  0  0  0  0
   22.4895   -5.9054  -14.4471 C   0  0  0  0  0  0  0  0  0  0  0  0
   22.7017   -4.6636  -14.4828 O   0  0  0  0  0  0  0  0  0  0  0  0
   22.3995   -6.4648  -13.1827 O   0  0  0  0  0  0  0  0  0  0  0  0
  1  2  1  0
  3  2  1  0
  3  4  1  0
  5  6  1  1
  5  4  1  0
  7  5  1  0
  8  7  2  0
 10  9  1  0
 10 11  1  0
 12 11  1  0
 13 12  1  6
 13 14  1  0
 14  7  1  0
 15 13  1  0
 15 16  2  0
 17 18  1  0
 18 19  1  0
 19 20  1  1
 21 19  1  0
 21 22  1  1
 22 15  1  0
 23 21  1  0
 24 23  2  0
 25 23  1  0
M  END
$$$$
