MMI.pdb
     RDKit          3D

 25 24  0  0  1  0  0  0  0  0999 V2000
   29.2388  -15.6367  -16.7928 C   0  0  0  0  0  0  0  0  0  0  0  0
   27.8872  -16.6414  -16.1421 S   0  0  0  0  0  0  0  0  0  0  0  0
   28.5992  -18.1380  -15.3790 C   0  0  0  0  0  0  0  0  0  0  0  0
   27.4481  -18.9197  -14.7771 C   0  0  0  0  0  0  0  0  0  0  0  0
   28.0245  -20.1179  -14.0722 C   0  0  2  0  0  0  0  0  0  0  0  0
   28.6229  -21.0504  -15.0053 N   0  0  0  0  0  0  0  0  0  0  0  0
   26.9828  -20.8633  -13.3048 C   0  0  0  0  0  0  0  0  0  0  0  0
   26.3500  -21.8476  -13.8005 O   0  0  0  0  0  0  0  0  0  0  0  0
   27.1891  -18.9327   -7.3192 C   0  0  0  0  0  0  0  0  0  0  0  0
   26.4251  -20.5738   -7.3803 S   0  0  0  0  0  0  0  0  0  0  0  0
   26.5849  -21.2913   -9.0619 C   0  0  0  0  0  0  0  0  0  0  0  0
   25.5211  -20.6421   -9.8914 C   0  0  0  0  0  0  0  0  0  0  0  0
   25.4523  -21.0822  -11.3149 C   0  0  2  0  0  0  0  0  0  0  0  0
   26.6356  -20.5162  -11.9719 N   0  0  0  0  0  0  0  0  0  0  0  0
   24.2346  -20.5028  -11.9428 C   0  0  0  0  0  0  0  0  0  0  0  0
   24.1241  -19.3213  -12.3226 O   0  0  0  0  0  0  0  0  0  0  0  0
   20.7401  -21.8045  -16.4310 C   0  0  0  0  0  0  0  0  0  0  0  0
   20.6628  -21.2174  -15.0273 C   0  0  0  0  0  0  0  0  0  0  0  0
   21.8646  -21.5936  -14.2263 C   0  0  2  0  0  0  0  0  0  0  0  0
   22.0846  -23.0803  -14.1515 C   0  0  0  0  0  0  0  0  0  0  0  0
   21.9181  -20.9072  -12.8814 C   0  0  2  0  0  0  0  0  0  0  0  0
   23.0871  -21.3241  -12.1423 N   0  0  0  0  0  0  0  0  0  0  0  0
   20.6756  -21.0136  -12.0987 C   0  0  0  0  0  0  0  0  0  0  0  0
   19.6005  -20.5391  -12.5539 O   0  0  0  0  0  0  0  0  0  0  0  0
   20.5884  -21.6169  -10.8544 O   0  0  0  0  0  0  0  0  0  0  0  0
  1  2  1  0
  3  2  1  0
  3  4  1  0
  5  6  1  6
  5  4  1  0
  7  5  1  0
  8  7  2  0
 10  9  1  0
 10 11  1  0
 12 11  1  0
 13 12  1  1
 13 14  1  0
 14  7  1  0
 15 13  1  0
 15 16  2  0
 17 18  1  0
 18 19  1  0
 19 20  1  1
 21 19  1  0
 21 22  1  1
 22 15  1  0
 23 21  1  0
 24 23  2  0
 25 23  1  0
M  END
$$$$
