MMI.pdb
     RDKit          3D

 25 24  0  0  1  0  0  0  0  0999 V2000
   25.3750  -19.1962   -7.3013 C   0  0  0  0  0  0  0  0  0  0  0  0
   27.0854  -19.6745   -6.9759 S   0  0  0  0  0  0  0  0  0  0  0  0
   27.6414  -20.7725   -8.3228 C   0  0  0  0  0  0  0  0  0  0  0  0
   26.8835  -20.3633   -9.5704 C   0  0  0  0  0  0  0  0  0  0  0  0
   27.1880  -21.3717  -10.6452 C   0  0  2  0  0  0  0  0  0  0  0  0
   28.5966  -21.3845  -10.9827 N   0  0  0  0  0  0  0  0  0  0  0  0
   26.4323  -21.0878  -11.9013 C   0  0  0  0  0  0  0  0  0  0  0  0
   26.8902  -20.3280  -12.8112 O   0  0  0  0  0  0  0  0  0  0  0  0
   22.7715  -25.4248  -14.4085 C   0  0  0  0  0  0  0  0  0  0  0  0
   24.5683  -25.4669  -14.6330 S   0  0  0  0  0  0  0  0  0  0  0  0
   25.3057  -23.8446  -14.1941 C   0  0  0  0  0  0  0  0  0  0  0  0
   24.1565  -22.9434  -13.8648 C   0  0  0  0  0  0  0  0  0  0  0  0
   24.5184  -21.5503  -13.4740 C   0  0  2  0  0  0  0  0  0  0  0  0
   25.1532  -21.6510  -12.1553 N   0  0  0  0  0  0  0  0  0  0  0  0
   23.2745  -20.7447  -13.3449 C   0  0  0  0  0  0  0  0  0  0  0  0
   22.5999  -20.6406  -12.3026 O   0  0  0  0  0  0  0  0  0  0  0  0
   23.1994  -16.0967  -16.0357 C   0  0  0  0  0  0  0  0  0  0  0  0
   22.9941  -17.2135  -15.0201 C   0  0  0  0  0  0  0  0  0  0  0  0
   21.7587  -17.9922  -15.3279 C   0  0  2  0  0  0  0  0  0  0  0  0
   20.5243  -17.1356  -15.4111 C   0  0  0  0  0  0  0  0  0  0  0  0
   21.5908  -19.2084  -14.4474 C   0  0  2  0  0  0  0  0  0  0  0  0
   22.7826  -20.0241  -14.4718 N   0  0  0  0  0  0  0  0  0  0  0  0
   20.3628  -19.9780  -14.7075 C   0  0  0  0  0  0  0  0  0  0  0  0
   20.3396  -20.8364  -15.6299 O   0  0  0  0  0  0  0  0  0  0  0  0
   19.1851  -19.8301  -13.9928 O   0  0  0  0  0  0  0  0  0  0  0  0
  1  2  1  0
  3  2  1  0
  3  4  1  0
  5  6  1  6
  5  4  1  0
  7  5  1  0
  8  7  2  0
 10  9  1  0
 10 11  1  0
 12 11  1  0
 13 12  1  1
 13 14  1  0
 14  7  1  0
 15 13  1  0
 15 16  2  0
 17 18  1  0
 18 19  1  0
 19 20  1  1
 21 19  1  0
 21 22  1  6
 22 15  1  0
 23 21  1  0
 24 23  2  0
 25 23  1  0
M  END
$$$$
