MMI.pdb
     RDKit          3D

 25 24  0  0  1  0  0  0  0  0999 V2000
   24.8903  -20.9412   -9.7752 C   0  0  0  0  0  0  0  0  0  0  0  0
   25.9883  -21.9543  -10.7891 S   0  0  0  0  0  0  0  0  0  0  0  0
   27.1135  -20.8456  -11.7022 C   0  0  0  0  0  0  0  0  0  0  0  0
   26.2739  -20.1055  -12.7248 C   0  0  0  0  0  0  0  0  0  0  0  0
   25.9729  -21.0587  -13.8497 C   0  0  2  0  0  0  0  0  0  0  0  0
   27.1585  -21.3628  -14.6245 N   0  0  0  0  0  0  0  0  0  0  0  0
   24.9571  -20.5012  -14.7914 C   0  0  0  0  0  0  0  0  0  0  0  0
   25.1957  -19.4931  -15.5273 O   0  0  0  0  0  0  0  0  0  0  0  0
   19.8239  -22.5346  -20.1102 C   0  0  0  0  0  0  0  0  0  0  0  0
   20.9142  -22.8463  -18.6978 S   0  0  0  0  0  0  0  0  0  0  0  0
   21.2560  -21.2844  -17.7969 C   0  0  0  0  0  0  0  0  0  0  0  0
   22.2766  -21.6227  -16.7550 C   0  0  0  0  0  0  0  0  0  0  0  0
   22.6691  -20.5060  -15.8476 C   0  0  2  0  0  0  0  0  0  0  0  0
   23.6598  -21.0653  -14.9215 N   0  0  0  0  0  0  0  0  0  0  0  0
   21.4781  -20.0733  -15.0685 C   0  0  0  0  0  0  0  0  0  0  0  0
   21.0385  -20.6566  -14.0591 O   0  0  0  0  0  0  0  0  0  0  0  0
   19.0750  -16.5140  -12.0257 C   0  0  0  0  0  0  0  0  0  0  0  0
   18.8162  -16.3393  -13.5168 C   0  0  0  0  0  0  0  0  0  0  0  0
   19.9191  -16.9408  -14.3224 C   0  0  2  0  0  0  0  0  0  0  0  0
   20.3728  -16.0605  -15.4553 C   0  0  0  0  0  0  0  0  0  0  0  0
   19.6381  -18.3652  -14.7404 C   0  0  2  0  0  0  0  0  0  0  0  0
   20.7570  -18.9122  -15.4722 N   0  0  0  0  0  0  0  0  0  0  0  0
   18.3528  -18.5490  -15.4347 C   0  0  0  0  0  0  0  0  0  0  0  0
   18.3101  -18.5472  -16.6943 O   0  0  0  0  0  0  0  0  0  0  0  0
   17.1393  -18.7313  -14.7913 O   0  0  0  0  0  0  0  0  0  0  0  0
  1  2  1  0
  3  2  1  0
  3  4  1  0
  5  6  1  6
  5  4  1  0
  7  5  1  0
  8  7  2  0
 10  9  1  0
 10 11  1  0
 12 11  1  0
 13 12  1  6
 13 14  1  0
 14  7  1  0
 15 13  1  0
 15 16  2  0
 17 18  1  0
 18 19  1  0
 19 20  1  6
 21 19  1  0
 21 22  1  6
 22 15  1  0
 23 21  1  0
 24 23  2  0
 25 23  1  0
M  END
$$$$
