MMI.pdb
     RDKit          3D

 25 24  0  0  1  0  0  0  0  0999 V2000
   26.0641  -18.5373  -18.8746 C   0  0  0  0  0  0  0  0  0  0  0  0
   27.4478  -17.7328  -18.0390 S   0  0  0  0  0  0  0  0  0  0  0  0
   28.2647  -18.9619  -16.9663 C   0  0  0  0  0  0  0  0  0  0  0  0
   27.1672  -19.7567  -16.2864 C   0  0  0  0  0  0  0  0  0  0  0  0
   27.8208  -20.8428  -15.4751 C   0  0  2  0  0  0  0  0  0  0  0  0
   28.1884  -21.9769  -16.2978 N   0  0  0  0  0  0  0  0  0  0  0  0
   26.9189  -21.3485  -14.3979 C   0  0  0  0  0  0  0  0  0  0  0  0
   26.3998  -22.5078  -14.4368 O   0  0  0  0  0  0  0  0  0  0  0  0
   25.8065  -20.4849   -6.6905 C   0  0  0  0  0  0  0  0  0  0  0  0
   26.4814  -19.9954   -8.2986 S   0  0  0  0  0  0  0  0  0  0  0  0
   25.5936  -20.8573   -9.6539 C   0  0  0  0  0  0  0  0  0  0  0  0
   26.2879  -20.4624  -10.9201 C   0  0  0  0  0  0  0  0  0  0  0  0
   25.7756  -21.1031  -12.1657 C   0  0  2  0  0  0  0  0  0  0  0  0
   26.5858  -20.5624  -13.2626 N   0  0  0  0  0  0  0  0  0  0  0  0
   24.3597  -20.6965  -12.3725 C   0  0  0  0  0  0  0  0  0  0  0  0
   23.4587  -20.7980  -11.5180 O   0  0  0  0  0  0  0  0  0  0  0  0
   23.4920  -16.6368  -16.0294 C   0  0  0  0  0  0  0  0  0  0  0  0
   23.4991  -17.5798  -14.8329 C   0  0  0  0  0  0  0  0  0  0  0  0
   22.5961  -18.7445  -15.0678 C   0  0  2  0  0  0  0  0  0  0  0  0
   21.2114  -18.3427  -15.4986 C   0  0  0  0  0  0  0  0  0  0  0  0
   22.6093  -19.7422  -13.9334 C   0  0  2  0  0  0  0  0  0  0  0  0
   23.9614  -20.1467  -13.6256 N   0  0  0  0  0  0  0  0  0  0  0  0
   21.6972  -20.8827  -14.1208 C   0  0  0  0  0  0  0  0  0  0  0  0
   22.0600  -21.8742  -14.8091 O   0  0  0  0  0  0  0  0  0  0  0  0
   20.4234  -20.9581  -13.5809 O   0  0  0  0  0  0  0  0  0  0  0  0
  1  2  1  0
  3  2  1  0
  3  4  1  0
  5  6  1  6
  5  4  1  0
  7  5  1  0
  8  7  2  0
 10  9  1  0
 10 11  1  0
 12 11  1  0
 13 12  1  1
 13 14  1  0
 14  7  1  0
 15 13  1  0
 15 16  2  0
 17 18  1  0
 18 19  1  0
 19 20  1  1
 21 19  1  0
 21 22  1  6
 22 15  1  0
 23 21  1  0
 24 23  2  0
 25 23  1  0
M  END
$$$$
