MMI.pdb
     RDKit          3D

 25 24  0  0  1  0  0  0  0  0999 V2000
   15.5816   -6.6733   -7.4753 C   0  0  0  0  0  0  0  0  0  0  0  0
   13.7931   -6.6201   -7.7166 S   0  0  0  0  0  0  0  0  0  0  0  0
   13.3533   -7.8168   -9.0218 C   0  0  0  0  0  0  0  0  0  0  0  0
   14.5857   -8.0053   -9.8845 C   0  0  0  0  0  0  0  0  0  0  0  0
   14.2206   -8.9331  -11.0118 C   0  0  2  0  0  0  0  0  0  0  0  0
   14.0416  -10.2936  -10.5477 N   0  0  0  0  0  0  0  0  0  0  0  0
   15.2730   -8.9592  -12.0707 C   0  0  0  0  0  0  0  0  0  0  0  0
   16.0737   -9.9366  -12.2070 O   0  0  0  0  0  0  0  0  0  0  0  0
   16.8104   -4.1565  -17.2046 C   0  0  0  0  0  0  0  0  0  0  0  0
   15.8119   -5.6488  -17.4437 S   0  0  0  0  0  0  0  0  0  0  0  0
   16.5147   -7.0484  -16.4871 C   0  0  0  0  0  0  0  0  0  0  0  0
   15.8325   -7.0227  -15.1547 C   0  0  0  0  0  0  0  0  0  0  0  0
   16.3260   -8.0146  -14.1561 C   0  0  2  0  0  0  0  0  0  0  0  0
   15.4432   -7.8907  -12.9911 N   0  0  0  0  0  0  0  0  0  0  0  0
   17.7084   -7.6456  -13.7491 C   0  0  0  0  0  0  0  0  0  0  0  0
   17.9916   -6.8676  -12.8181 O   0  0  0  0  0  0  0  0  0  0  0  0
   23.1385  -10.3593  -13.5383 C   0  0  0  0  0  0  0  0  0  0  0  0
   22.3916   -9.0322  -13.5815 C   0  0  0  0  0  0  0  0  0  0  0  0
   20.9756   -9.2320  -14.0084 C   0  0  2  0  0  0  0  0  0  0  0  0
   20.8421  -10.1051  -15.2267 C   0  0  0  0  0  0  0  0  0  0  0  0
   20.1980   -7.9402  -14.1037 C   0  0  2  0  0  0  0  0  0  0  0  0
   18.8196   -8.1990  -14.4492 N   0  0  0  0  0  0  0  0  0  0  0  0
   20.8234   -6.9202  -14.9617 C   0  0  0  0  0  0  0  0  0  0  0  0
   20.4776   -6.8128  -16.1689 O   0  0  0  0  0  0  0  0  0  0  0  0
   21.7986   -6.0340  -14.5336 O   0  0  0  0  0  0  0  0  0  0  0  0
  1  2  1  0
  3  2  1  0
  3  4  1  0
  5  6  1  1
  5  4  1  0
  7  5  1  0
  8  7  2  0
 10  9  1  0
 10 11  1  0
 12 11  1  0
 13 12  1  6
 13 14  1  0
 14  7  1  0
 15 13  1  0
 15 16  2  0
 17 18  1  0
 18 19  1  0
 19 20  1  6
 21 19  1  0
 21 22  1  6
 22 15  1  0
 23 21  1  0
 24 23  2  0
 25 23  1  0
M  END
$$$$
