HTQ.pdb
     RDKit          3D

 27 27  0  0  1  0  0  0  0  0999 V2000
   23.3653  -26.4480  -17.2696 N   0  0  0  0  0  0  0  0  0  0  0  0
   23.1385  -26.0437  -15.9130 C   0  0  1  0  0  0  0  0  0  0  0  0
   23.8003  -24.7015  -15.6691 C   0  0  0  0  0  0  0  0  0  0  0  0
   25.2635  -24.8956  -15.8437 C   0  0  0  0  0  0  0  0  0  0  0  0
   26.0542  -24.3444  -16.8218 C   0  0  0  0  0  0  0  0  0  0  0  0
   27.3429  -24.7381  -16.6754 N   0  0  0  0  0  0  0  0  0  0  0  0
   27.3475  -25.5377  -15.5994 C   0  0  0  0  0  0  0  0  0  0  0  0
   26.1097  -25.6459  -15.0848 N   0  0  0  0  0  0  0  0  0  0  0  0
   21.6997  -26.0208  -15.5527 C   0  0  0  0  0  0  0  0  0  0  0  0
   20.9290  -25.4044  -16.3421 O   0  0  0  0  0  0  0  0  0  0  0  0
   19.6770  -28.6055  -12.6499 C   0  0  0  0  0  0  0  0  0  0  0  0
   19.1908  -28.0300  -13.9422 C   0  0  1  0  0  0  0  0  0  0  0  0
   17.7991  -27.9102  -13.8593 O   0  0  0  0  0  0  0  0  0  0  0  0
   19.7323  -26.6474  -14.2135 C   0  0  2  0  0  0  0  0  0  0  0  0
   21.1493  -26.6249  -14.4184 N   0  0  0  0  0  0  0  0  0  0  0  0
   19.2995  -25.7874  -13.0692 C   0  0  0  0  0  0  0  0  0  0  0  0
   20.2090  -25.5101  -12.2338 O   0  0  0  0  0  0  0  0  0  0  0  0
   20.0350  -24.4364   -8.4354 N   0  0  0  0  0  0  0  0  0  0  0  0
   18.8869  -25.2492   -8.2596 C   0  0  0  0  0  0  0  0  0  0  0  0
   18.6133  -25.7710   -7.1460 O   0  0  0  0  0  0  0  0  0  0  0  0
   17.9970  -25.4682   -9.4653 C   0  0  0  0  0  0  0  0  0  0  0  0
   18.6158  -24.7379  -10.6249 C   0  0  0  0  0  0  0  0  0  0  0  0
   17.6728  -24.4654  -11.7683 C   0  0  2  0  0  0  0  0  0  0  0  0
   17.9954  -25.3126  -12.9110 N   0  0  0  0  0  0  0  0  0  0  0  0
   17.7016  -23.0585  -12.1753 C   0  0  0  0  0  0  0  0  0  0  0  0
   18.7737  -22.4192  -12.1948 O   0  0  0  0  0  0  0  0  0  0  0  0
   16.5530  -22.3443  -12.5637 O   0  0  0  0  0  0  0  0  0  0  0  0
  2  3  1  0
  2  1  1  6
  3  4  1  0
  4  5  2  0
  4  8  1  0
  5  6  1  0
  6  7  1  0
  8  7  2  0
  9 10  2  0
  9  2  1  0
 12 11  1  1
 12 14  1  0
 13 12  1  0
 14 16  1  0
 14 15  1  1
 15  9  1  0
 16 24  1  0
 17 16  2  0
 19 21  1  0
 19 18  1  0
 20 19  2  0
 23 22  1  1
 22 21  1  0
 24 23  1  0
 25 27  1  0
 25 23  1  0
 26 25  2  0
M  END
$$$$
