HTQ.pdb
     RDKit          3D

 27 27  0  0  1  0  0  0  0  0999 V2000
   27.0911  -18.1116  -18.4726 N   0  0  0  0  0  0  0  0  0  0  0  0
   26.0146  -17.7357  -17.6036 C   0  0  1  0  0  0  0  0  0  0  0  0
   25.0103  -16.9026  -18.3757 C   0  0  0  0  0  0  0  0  0  0  0  0
   25.7085  -15.6643  -18.8095 C   0  0  0  0  0  0  0  0  0  0  0  0
   26.1851  -15.3879  -20.0674 C   0  0  0  0  0  0  0  0  0  0  0  0
   26.7664  -14.1639  -20.1018 N   0  0  0  0  0  0  0  0  0  0  0  0
   26.6476  -13.6817  -18.8566 C   0  0  0  0  0  0  0  0  0  0  0  0
   26.0158  -14.5662  -18.0648 N   0  0  0  0  0  0  0  0  0  0  0  0
   25.3730  -18.9005  -16.9461 C   0  0  0  0  0  0  0  0  0  0  0  0
   25.1872  -19.9236  -17.6643 O   0  0  0  0  0  0  0  0  0  0  0  0
   26.6062  -20.8494  -14.0489 C   0  0  0  0  0  0  0  0  0  0  0  0
   25.1503  -20.6034  -13.8087 C   0  0  1  0  0  0  0  0  0  0  0  0
   25.0410  -19.5779  -12.8630 O   0  0  0  0  0  0  0  0  0  0  0  0
   24.4190  -20.1372  -15.0442 C   0  0  2  0  0  0  0  0  0  0  0  0
   24.9674  -18.9410  -15.6088 N   0  0  0  0  0  0  0  0  0  0  0  0
   22.9817  -19.9889  -14.6589 C   0  0  0  0  0  0  0  0  0  0  0  0
   22.6055  -18.8002  -14.4411 O   0  0  0  0  0  0  0  0  0  0  0  0
   18.5561  -17.9142  -14.4135 N   0  0  0  0  0  0  0  0  0  0  0  0
   18.0168  -18.9338  -15.2377 C   0  0  0  0  0  0  0  0  0  0  0  0
   17.2645  -18.6645  -16.2118 O   0  0  0  0  0  0  0  0  0  0  0  0
   18.3797  -20.3655  -14.9028 C   0  0  0  0  0  0  0  0  0  0  0  0
   19.8261  -20.5632  -15.2629 C   0  0  0  0  0  0  0  0  0  0  0  0
   20.7330  -20.8286  -14.0891 C   0  0  2  0  0  0  0  0  0  0  0  0
   22.0994  -21.0655  -14.5411 N   0  0  0  0  0  0  0  0  0  0  0  0
   20.2738  -21.9688  -13.2922 C   0  0  0  0  0  0  0  0  0  0  0  0
   20.7691  -23.1034  -13.4527 O   0  0  0  0  0  0  0  0  0  0  0  0
   19.2674  -21.8704  -12.3136 O   0  0  0  0  0  0  0  0  0  0  0  0
  2  3  1  0
  2  1  1  6
  3  4  1  0
  4  5  2  0
  4  8  1  0
  5  6  1  0
  6  7  1  0
  8  7  2  0
  9 10  2  0
  9  2  1  0
 12 11  1  6
 12 14  1  0
 13 12  1  0
 14 16  1  0
 14 15  1  1
 15  9  1  0
 16 24  1  0
 17 16  2  0
 19 21  1  0
 19 18  1  0
 20 19  2  0
 23 22  1  6
 22 21  1  0
 24 23  1  0
 25 27  1  0
 25 23  1  0
 26 25  2  0
M  END
$$$$
