HTQ.pdb
     RDKit          3D

 27 27  0  0  1  0  0  0  0  0999 V2000
   15.2158  -10.7350  -13.4740 N   0  0  0  0  0  0  0  0  0  0  0  0
   16.2059   -9.7804  -13.0697 C   0  0  1  0  0  0  0  0  0  0  0  0
   17.0727   -9.4177  -14.2596 C   0  0  0  0  0  0  0  0  0  0  0  0
   17.7586  -10.6612  -14.6982 C   0  0  0  0  0  0  0  0  0  0  0  0
   18.9881  -11.1108  -14.2837 C   0  0  0  0  0  0  0  0  0  0  0  0
   19.3006  -12.2815  -14.8912 N   0  0  0  0  0  0  0  0  0  0  0  0
   18.2566  -12.5561  -15.6861 C   0  0  0  0  0  0  0  0  0  0  0  0
   17.3198  -11.5965  -15.5856 N   0  0  0  0  0  0  0  0  0  0  0  0
   15.6179   -8.5776  -12.4308 C   0  0  0  0  0  0  0  0  0  0  0  0
   14.5225   -8.1636  -12.9058 O   0  0  0  0  0  0  0  0  0  0  0  0
   14.5863   -8.0447   -8.7950 C   0  0  0  0  0  0  0  0  0  0  0  0
   15.4096   -6.8824   -9.2519 C   0  0  1  0  0  0  0  0  0  0  0  0
   16.7130   -7.0702   -8.7788 O   0  0  0  0  0  0  0  0  0  0  0  0
   15.5018   -6.7789  -10.7550 C   0  0  2  0  0  0  0  0  0  0  0  0
   16.1847   -7.8841  -11.3573 N   0  0  0  0  0  0  0  0  0  0  0  0
   16.1511   -5.4654  -11.0535 C   0  0  0  0  0  0  0  0  0  0  0  0
   17.4044   -5.5140  -11.2240 O   0  0  0  0  0  0  0  0  0  0  0  0
   14.2229   -0.6164  -14.1131 N   0  0  0  0  0  0  0  0  0  0  0  0
   14.8781   -1.7125  -14.7288 C   0  0  0  0  0  0  0  0  0  0  0  0
   14.8380   -1.8881  -15.9758 O   0  0  0  0  0  0  0  0  0  0  0  0
   15.6316   -2.6691  -13.8285 C   0  0  0  0  0  0  0  0  0  0  0  0
   15.4739   -2.1815  -12.4149 C   0  0  0  0  0  0  0  0  0  0  0  0
   16.1796   -3.0203  -11.3809 C   0  0  2  0  0  0  0  0  0  0  0  0
   15.4498   -4.2606  -11.1429 N   0  0  0  0  0  0  0  0  0  0  0  0
   16.3494   -2.2992  -10.1172 C   0  0  0  0  0  0  0  0  0  0  0  0
   15.7195   -2.6410   -9.0950 O   0  0  0  0  0  0  0  0  0  0  0  0
   17.2124   -1.1978   -9.9676 O   0  0  0  0  0  0  0  0  0  0  0  0
  2  3  1  0
  2  1  1  6
  3  4  1  0
  4  5  2  0
  4  8  1  0
  5  6  1  0
  6  7  1  0
  8  7  2  0
  9 10  2  0
  9  2  1  0
 12 11  1  6
 12 14  1  0
 13 12  1  0
 14 16  1  0
 14 15  1  1
 15  9  1  0
 16 24  1  0
 17 16  2  0
 19 21  1  0
 19 18  1  0
 20 19  2  0
 23 22  1  6
 22 21  1  0
 24 23  1  0
 25 27  1  0
 25 23  1  0
 26 25  2  0
M  END
$$$$
