HTQ.pdb
     RDKit          3D

 27 27  0  0  1  0  0  0  0  0999 V2000
   24.4205  -16.8370  -18.5808 N   0  0  0  0  0  0  0  0  0  0  0  0
   23.5146  -16.6316  -17.4890 C   0  0  1  0  0  0  0  0  0  0  0  0
   22.4073  -15.6908  -17.9222 C   0  0  0  0  0  0  0  0  0  0  0  0
   23.0389  -14.3799  -18.2255 C   0  0  0  0  0  0  0  0  0  0  0  0
   24.0703  -13.7870  -17.5396 C   0  0  0  0  0  0  0  0  0  0  0  0
   24.3922  -12.5933  -18.0953 N   0  0  0  0  0  0  0  0  0  0  0  0
   23.5537  -12.4488  -19.1312 C   0  0  0  0  0  0  0  0  0  0  0  0
   22.7329  -13.5098  -19.2274 N   0  0  0  0  0  0  0  0  0  0  0  0
   22.9752  -17.9010  -16.9428 C   0  0  0  0  0  0  0  0  0  0  0  0
   22.3522  -18.6452  -17.7522 O   0  0  0  0  0  0  0  0  0  0  0  0
   24.8993  -20.6272  -15.3831 C   0  0  0  0  0  0  0  0  0  0  0  0
   23.6749  -20.4566  -14.5408 C   0  0  1  0  0  0  0  0  0  0  0  0
   24.0536  -19.7978  -13.3658 O   0  0  0  0  0  0  0  0  0  0  0  0
   22.6197  -19.6016  -15.1996 C   0  0  2  0  0  0  0  0  0  0  0  0
   23.1077  -18.3214  -15.6160 N   0  0  0  0  0  0  0  0  0  0  0  0
   21.4855  -19.5010  -14.2304 C   0  0  0  0  0  0  0  0  0  0  0  0
   21.4983  -18.4702  -13.4960 O   0  0  0  0  0  0  0  0  0  0  0  0
   16.1554  -18.6235  -12.7407 N   0  0  0  0  0  0  0  0  0  0  0  0
   16.3766  -18.7656  -14.1338 C   0  0  0  0  0  0  0  0  0  0  0  0
   15.4285  -18.7041  -14.9611 O   0  0  0  0  0  0  0  0  0  0  0  0
   17.8014  -18.9951  -14.5932 C   0  0  0  0  0  0  0  0  0  0  0  0
   18.6781  -18.9937  -13.3716 C   0  0  0  0  0  0  0  0  0  0  0  0
   19.4197  -20.2833  -13.1317 C   0  0  2  0  0  0  0  0  0  0  0  0
   20.4747  -20.4593  -14.1234 N   0  0  0  0  0  0  0  0  0  0  0  0
   18.5225  -21.4410  -13.1572 C   0  0  0  0  0  0  0  0  0  0  0  0
   18.5270  -22.2337  -14.1216 O   0  0  0  0  0  0  0  0  0  0  0  0
   17.6144  -21.7359  -12.1234 O   0  0  0  0  0  0  0  0  0  0  0  0
  2  3  1  0
  2  1  1  6
  3  4  1  0
  4  5  2  0
  4  8  1  0
  5  6  1  0
  6  7  1  0
  8  7  2  0
  9 10  2  0
  9  2  1  0
 12 11  1  6
 12 14  1  0
 13 12  1  0
 14 16  1  0
 14 15  1  1
 15  9  1  0
 16 24  1  0
 17 16  2  0
 19 21  1  0
 19 18  1  0
 20 19  2  0
 23 22  1  6
 22 21  1  0
 24 23  1  0
 25 27  1  0
 25 23  1  0
 26 25  2  0
M  END
$$$$
