HTQ.pdb
     RDKit          3D

 27 27  0  0  1  0  0  0  0  0999 V2000
   17.8128  -13.4939  -15.5509 N   0  0  0  0  0  0  0  0  0  0  0  0
   17.3096  -12.1517  -15.5648 C   0  0  1  0  0  0  0  0  0  0  0  0
   15.9450  -12.1175  -14.9047 C   0  0  0  0  0  0  0  0  0  0  0  0
   15.0187  -12.8916  -15.7718 C   0  0  0  0  0  0  0  0  0  0  0  0
   14.3977  -12.4471  -16.9131 C   0  0  0  0  0  0  0  0  0  0  0  0
   13.6227  -13.4219  -17.4482 N   0  0  0  0  0  0  0  0  0  0  0  0
   13.7665  -14.4752  -16.6315 C   0  0  0  0  0  0  0  0  0  0  0  0
   14.6002  -14.1786  -15.6188 N   0  0  0  0  0  0  0  0  0  0  0  0
   18.2445  -11.1807  -14.9453 C   0  0  0  0  0  0  0  0  0  0  0  0
   18.6257  -11.4354  -13.7676 O   0  0  0  0  0  0  0  0  0  0  0  0
   21.7655  -10.3506  -15.6649 C   0  0  0  0  0  0  0  0  0  0  0  0
   20.9873   -9.0731  -15.6592 C   0  0  1  0  0  0  0  0  0  0  0  0
   20.6706   -8.7601  -16.9857 O   0  0  0  0  0  0  0  0  0  0  0  0
   19.6799   -9.1818  -14.9126 C   0  0  2  0  0  0  0  0  0  0  0  0
   18.7233  -10.0233  -15.5663 N   0  0  0  0  0  0  0  0  0  0  0  0
   19.1830   -7.7851  -14.7163 C   0  0  0  0  0  0  0  0  0  0  0  0
   18.4266   -7.3518  -15.6339 O   0  0  0  0  0  0  0  0  0  0  0  0
   18.2581   -4.5738   -9.5570 N   0  0  0  0  0  0  0  0  0  0  0  0
   17.9592   -5.9381   -9.7998 C   0  0  0  0  0  0  0  0  0  0  0  0
   17.5143   -6.6872   -8.8898 O   0  0  0  0  0  0  0  0  0  0  0  0
   18.1956   -6.4647  -11.2000 C   0  0  0  0  0  0  0  0  0  0  0  0
   18.7072   -5.3230  -12.0340 C   0  0  0  0  0  0  0  0  0  0  0  0
   18.9398   -5.6618  -13.4838 C   0  0  2  0  0  0  0  0  0  0  0  0
   19.5141   -6.9965  -13.6118 N   0  0  0  0  0  0  0  0  0  0  0  0
   19.8137   -4.6854  -14.1385 C   0  0  0  0  0  0  0  0  0  0  0  0
   20.9715   -4.9950  -14.4878 O   0  0  0  0  0  0  0  0  0  0  0  0
   19.4218   -3.3622  -14.4139 O   0  0  0  0  0  0  0  0  0  0  0  0
  2  3  1  0
  2  1  1  1
  3  4  1  0
  4  5  2  0
  4  8  1  0
  5  6  1  0
  6  7  1  0
  8  7  2  0
  9 10  2  0
  9  2  1  0
 12 11  1  6
 12 14  1  0
 13 12  1  0
 14 16  1  0
 14 15  1  6
 15  9  1  0
 16 24  1  0
 17 16  2  0
 19 21  1  0
 19 18  1  0
 20 19  2  0
 23 22  1  1
 22 21  1  0
 24 23  1  0
 25 27  1  0
 25 23  1  0
 26 25  2  0
M  END
$$$$
