HTQ.pdb
     RDKit          3D

 27 27  0  0  1  0  0  0  0  0999 V2000
   22.2176   -9.5152  -17.0381 N   0  0  0  0  0  0  0  0  0  0  0  0
   21.8776   -9.4690  -15.6462 C   0  0  1  0  0  0  0  0  0  0  0  0
   23.1464   -9.4027  -14.8188 C   0  0  0  0  0  0  0  0  0  0  0  0
   23.9036  -10.6557  -15.0755 C   0  0  0  0  0  0  0  0  0  0  0  0
   23.5647  -11.6546  -15.9547 C   0  0  0  0  0  0  0  0  0  0  0  0
   24.4856  -12.6488  -15.9294 N   0  0  0  0  0  0  0  0  0  0  0  0
   25.3991  -12.2607  -15.0282 C   0  0  0  0  0  0  0  0  0  0  0  0
   25.0691  -11.0672  -14.5036 N   0  0  0  0  0  0  0  0  0  0  0  0
   20.9484   -8.3602  -15.3178 C   0  0  0  0  0  0  0  0  0  0  0  0
   21.1679   -7.2521  -15.8845 O   0  0  0  0  0  0  0  0  0  0  0  0
   17.4962   -7.7455  -16.2142 C   0  0  0  0  0  0  0  0  0  0  0  0
   17.5791   -7.6056  -14.7272 C   0  0  1  0  0  0  0  0  0  0  0  0
   17.1682   -8.8173  -14.1608 O   0  0  0  0  0  0  0  0  0  0  0  0
   18.9831   -7.3484  -14.2359 C   0  0  2  0  0  0  0  0  0  0  0  0
   19.8656   -8.4576  -14.4389 N   0  0  0  0  0  0  0  0  0  0  0  0
   18.8669   -6.9571  -12.7973 C   0  0  0  0  0  0  0  0  0  0  0  0
   19.4030   -7.7602  -11.9790 O   0  0  0  0  0  0  0  0  0  0  0  0
   16.3601   -1.8234  -10.4112 N   0  0  0  0  0  0  0  0  0  0  0  0
   16.7425   -2.4204   -9.1835 C   0  0  0  0  0  0  0  0  0  0  0  0
   16.5107   -1.8612   -8.0786 O   0  0  0  0  0  0  0  0  0  0  0  0
   17.4432   -3.7614   -9.2493 C   0  0  0  0  0  0  0  0  0  0  0  0
   17.4966   -4.1753  -10.6938 C   0  0  0  0  0  0  0  0  0  0  0  0
   18.0960   -5.5370  -10.9331 C   0  0  2  0  0  0  0  0  0  0  0  0
   18.2204   -5.7976  -12.3628 N   0  0  0  0  0  0  0  0  0  0  0  0
   17.3047   -6.5988  -10.3066 C   0  0  0  0  0  0  0  0  0  0  0  0
   16.5264   -7.3019  -10.9836 O   0  0  0  0  0  0  0  0  0  0  0  0
   17.3629   -6.8954   -8.9323 O   0  0  0  0  0  0  0  0  0  0  0  0
  2  3  1  0
  2  1  1  6
  3  4  1  0
  4  5  2  0
  4  8  1  0
  5  6  1  0
  6  7  1  0
  8  7  2  0
  9 10  2  0
  9  2  1  0
 12 11  1  6
 12 14  1  0
 13 12  1  0
 14 16  1  0
 14 15  1  1
 15  9  1  0
 16 24  1  0
 17 16  2  0
 19 21  1  0
 19 18  1  0
 20 19  2  0
 23 22  1  6
 22 21  1  0
 24 23  1  0
 25 27  1  0
 25 23  1  0
 26 25  2  0
M  END
$$$$
