HTQ.pdb
     RDKit          3D

 27 27  0  0  1  0  0  0  0  0999 V2000
   17.6013  -13.5403  -17.4988 N   0  0  0  0  0  0  0  0  0  0  0  0
   18.9352  -13.4712  -16.9781 C   0  0  1  0  0  0  0  0  0  0  0  0
   19.7207  -14.6830  -17.4400 C   0  0  0  0  0  0  0  0  0  0  0  0
   19.0178  -15.8854  -16.9212 C   0  0  0  0  0  0  0  0  0  0  0  0
   18.1604  -15.9371  -15.8497 C   0  0  0  0  0  0  0  0  0  0  0  0
   17.7035  -17.1992  -15.6614 N   0  0  0  0  0  0  0  0  0  0  0  0
   18.2829  -17.9314  -16.6233 C   0  0  0  0  0  0  0  0  0  0  0  0
   19.0758  -17.1625  -17.3907 N   0  0  0  0  0  0  0  0  0  0  0  0
   19.6236  -12.2041  -17.3266 C   0  0  0  0  0  0  0  0  0  0  0  0
   20.8526  -12.1315  -17.0414 O   0  0  0  0  0  0  0  0  0  0  0  0
   20.0881  -10.6297  -20.7050 C   0  0  0  0  0  0  0  0  0  0  0  0
   19.6140   -9.5702  -19.7614 C   0  0  1  0  0  0  0  0  0  0  0  0
   18.2434   -9.3889  -19.9767 O   0  0  0  0  0  0  0  0  0  0  0  0
   19.7808   -9.9540  -18.3110 C   0  0  2  0  0  0  0  0  0  0  0  0
   19.0142  -11.1048  -17.9386 N   0  0  0  0  0  0  0  0  0  0  0  0
   19.4337   -8.7425  -17.5062 C   0  0  0  0  0  0  0  0  0  0  0  0
   18.2672   -8.7420  -17.0148 O   0  0  0  0  0  0  0  0  0  0  0  0
   22.8788   -5.4166  -13.8898 N   0  0  0  0  0  0  0  0  0  0  0  0
   21.9341   -6.2887  -13.2924 C   0  0  0  0  0  0  0  0  0  0  0  0
   22.0169   -6.6185  -12.0793 O   0  0  0  0  0  0  0  0  0  0  0  0
   20.8163   -6.8118  -14.1702 C   0  0  0  0  0  0  0  0  0  0  0  0
   20.9407   -6.1424  -15.5108 C   0  0  0  0  0  0  0  0  0  0  0  0
   19.8781   -6.5315  -16.5059 C   0  0  2  0  0  0  0  0  0  0  0  0
   20.3127   -7.6771  -17.2972 N   0  0  0  0  0  0  0  0  0  0  0  0
   19.5324   -5.4211  -17.3966 C   0  0  0  0  0  0  0  0  0  0  0  0
   18.7573   -4.5170  -17.0220 O   0  0  0  0  0  0  0  0  0  0  0  0
   20.0356   -5.2963  -18.7048 O   0  0  0  0  0  0  0  0  0  0  0  0
  2  3  1  0
  2  1  1  6
  3  4  1  0
  4  5  2  0
  4  8  1  0
  5  6  1  0
  6  7  1  0
  8  7  2  0
  9 10  2  0
  9  2  1  0
 12 11  1  6
 12 14  1  0
 13 12  1  0
 14 16  1  0
 14 15  1  1
 15  9  1  0
 16 24  1  0
 17 16  2  0
 19 21  1  0
 19 18  1  0
 20 19  2  0
 23 22  1  1
 22 21  1  0
 24 23  1  0
 25 27  1  0
 25 23  1  0
 26 25  2  0
M  END
$$$$
