HTQ.pdb
     RDKit          3D

 27 27  0  0  1  0  0  0  0  0999 V2000
   25.7634  -17.6906  -19.4557 N   0  0  0  0  0  0  0  0  0  0  0  0
   24.3547  -17.4898  -19.6297 C   0  0  1  0  0  0  0  0  0  0  0  0
   23.7917  -18.5937  -20.5035 C   0  0  0  0  0  0  0  0  0  0  0  0
   24.3091  -18.3715  -21.8790 C   0  0  0  0  0  0  0  0  0  0  0  0
   23.6321  -17.8016  -22.9290 C   0  0  0  0  0  0  0  0  0  0  0  0
   24.4126  -17.7586  -24.0364 N   0  0  0  0  0  0  0  0  0  0  0  0
   25.5794  -18.3058  -23.6670 C   0  0  0  0  0  0  0  0  0  0  0  0
   25.5389  -18.6806  -22.3761 N   0  0  0  0  0  0  0  0  0  0  0  0
   23.6258  -17.3821  -18.3421 C   0  0  0  0  0  0  0  0  0  0  0  0
   24.1688  -17.9245  -17.3381 O   0  0  0  0  0  0  0  0  0  0  0  0
   20.4414  -15.2409  -15.2958 C   0  0  0  0  0  0  0  0  0  0  0  0
   21.1602  -15.2973  -16.6064 C   0  0  1  0  0  0  0  0  0  0  0  0
   22.1984  -14.3601  -16.5646 O   0  0  0  0  0  0  0  0  0  0  0  0
   21.7953  -16.6403  -16.8739 C   0  0  2  0  0  0  0  0  0  0  0  0
   22.4003  -16.7322  -18.1686 N   0  0  0  0  0  0  0  0  0  0  0  0
   20.7294  -17.6669  -16.6592 C   0  0  0  0  0  0  0  0  0  0  0  0
   20.0164  -17.9190  -17.6742 O   0  0  0  0  0  0  0  0  0  0  0  0
   18.6949  -22.6537  -13.7283 N   0  0  0  0  0  0  0  0  0  0  0  0
   19.9273  -22.6785  -14.4284 C   0  0  0  0  0  0  0  0  0  0  0  0
   20.4548  -23.7622  -14.7955 O   0  0  0  0  0  0  0  0  0  0  0  0
   20.5898  -21.3483  -14.7204 C   0  0  0  0  0  0  0  0  0  0  0  0
   19.6552  -20.2647  -14.2587 C   0  0  0  0  0  0  0  0  0  0  0  0
   19.3695  -19.2033  -15.2894 C   0  0  2  0  0  0  0  0  0  0  0  0
   20.5157  -18.3139  -15.4398 N   0  0  0  0  0  0  0  0  0  0  0  0
   18.1798  -18.4192  -14.9493 C   0  0  0  0  0  0  0  0  0  0  0  0
   18.2846  -17.2681  -14.4779 O   0  0  0  0  0  0  0  0  0  0  0  0
   16.8668  -18.8943  -15.1248 O   0  0  0  0  0  0  0  0  0  0  0  0
  2  3  1  0
  2  1  1  1
  3  4  1  0
  4  5  2  0
  4  8  1  0
  5  6  1  0
  6  7  1  0
  8  7  2  0
  9 10  2  0
  9  2  1  0
 12 11  1  1
 12 14  1  0
 13 12  1  0
 14 16  1  0
 14 15  1  6
 15  9  1  0
 16 24  1  0
 17 16  2  0
 19 21  1  0
 19 18  1  0
 20 19  2  0
 23 22  1  1
 22 21  1  0
 24 23  1  0
 25 27  1  0
 25 23  1  0
 26 25  2  0
M  END
$$$$
