HTQ.pdb
     RDKit          3D

 27 27  0  0  1  0  0  0  0  0999 V2000
   21.9943   -5.4221  -16.5350 N   0  0  0  0  0  0  0  0  0  0  0  0
   21.2184   -6.1006  -17.5314 C   0  0  1  0  0  0  0  0  0  0  0  0
   21.8920   -5.9541  -18.8818 C   0  0  0  0  0  0  0  0  0  0  0  0
   21.9337   -4.5020  -19.1961 C   0  0  0  0  0  0  0  0  0  0  0  0
   20.8595   -3.6523  -19.2965 C   0  0  0  0  0  0  0  0  0  0  0  0
   21.2686   -2.3955  -19.5969 N   0  0  0  0  0  0  0  0  0  0  0  0
   22.6043   -2.4701  -19.6824 C   0  0  0  0  0  0  0  0  0  0  0  0
   23.0244   -3.7255  -19.4454 N   0  0  0  0  0  0  0  0  0  0  0  0
   20.9668   -7.5232  -17.1940 C   0  0  0  0  0  0  0  0  0  0  0  0
   20.9083   -8.3322  -18.1630 O   0  0  0  0  0  0  0  0  0  0  0  0
   22.9196   -9.7873  -14.7128 C   0  0  0  0  0  0  0  0  0  0  0  0
   21.4457   -9.9334  -14.5028 C   0  0  1  0  0  0  0  0  0  0  0  0
   21.0939   -9.1590  -13.3918 O   0  0  0  0  0  0  0  0  0  0  0  0
   20.6304   -9.4230  -15.6661 C   0  0  2  0  0  0  0  0  0  0  0  0
   20.7932   -8.0194  -15.8986 N   0  0  0  0  0  0  0  0  0  0  0  0
   19.2104   -9.8030  -15.3915 C   0  0  0  0  0  0  0  0  0  0  0  0
   18.4105   -8.8303  -15.2654 O   0  0  0  0  0  0  0  0  0  0  0  0
   15.3289  -10.3389  -18.5282 N   0  0  0  0  0  0  0  0  0  0  0  0
   14.4981  -11.0101  -17.5960 C   0  0  0  0  0  0  0  0  0  0  0  0
   13.2902  -11.2612  -17.8514 O   0  0  0  0  0  0  0  0  0  0  0  0
   15.1187  -11.4162  -16.2756 C   0  0  0  0  0  0  0  0  0  0  0  0
   16.5725  -11.0348  -16.3209 C   0  0  0  0  0  0  0  0  0  0  0  0
   17.3540  -11.3987  -15.0850 C   0  0  2  0  0  0  0  0  0  0  0  0
   18.7736  -11.1250  -15.2779 N   0  0  0  0  0  0  0  0  0  0  0  0
   17.1695  -12.8046  -14.7175 C   0  0  0  0  0  0  0  0  0  0  0  0
   16.0651  -13.2208  -14.3108 O   0  0  0  0  0  0  0  0  0  0  0  0
   18.1971  -13.7631  -14.7943 O   0  0  0  0  0  0  0  0  0  0  0  0
  2  3  1  0
  2  1  1  1
  3  4  1  0
  4  5  2  0
  4  8  1  0
  5  6  1  0
  6  7  1  0
  8  7  2  0
  9 10  2  0
  9  2  1  0
 12 11  1  6
 12 14  1  0
 13 12  1  0
 14 16  1  0
 14 15  1  1
 15  9  1  0
 16 24  1  0
 17 16  2  0
 19 21  1  0
 19 18  1  0
 20 19  2  0
 23 22  1  6
 22 21  1  0
 24 23  1  0
 25 27  1  0
 25 23  1  0
 26 25  2  0
M  END
$$$$
