HTQ.pdb
     RDKit          3D

 27 27  0  0  1  0  0  0  0  0999 V2000
   40.1081  -21.1878  -19.0313 N   0  0  0  0  0  0  0  0  0  0  0  0
   40.2938  -22.6048  -19.1441 C   0  0  1  0  0  0  0  0  0  0  0  0
   41.7179  -22.9591  -18.7629 C   0  0  0  0  0  0  0  0  0  0  0  0
   42.6090  -22.3616  -19.7915 C   0  0  0  0  0  0  0  0  0  0  0  0
   42.6983  -22.7260  -21.1125 C   0  0  0  0  0  0  0  0  0  0  0  0
   43.6164  -21.9665  -21.7586 N   0  0  0  0  0  0  0  0  0  0  0  0
   44.0969  -21.1276  -20.8299 C   0  0  0  0  0  0  0  0  0  0  0  0
   43.5059  -21.3477  -19.6421 N   0  0  0  0  0  0  0  0  0  0  0  0
   39.3046  -23.3790  -18.3549 C   0  0  0  0  0  0  0  0  0  0  0  0
   39.4346  -23.3473  -17.0983 O   0  0  0  0  0  0  0  0  0  0  0  0
   35.4554  -23.1161  -18.3046 C   0  0  0  0  0  0  0  0  0  0  0  0
   35.8751  -24.5433  -18.4610 C   0  0  1  0  0  0  0  0  0  0  0  0
   35.7814  -24.8695  -19.8185 O   0  0  0  0  0  0  0  0  0  0  0  0
   37.3078  -24.7854  -18.0520 C   0  0  2  0  0  0  0  0  0  0  0  0
   38.2568  -24.1278  -18.8990 N   0  0  0  0  0  0  0  0  0  0  0  0
   37.4962  -26.2684  -18.0144 C   0  0  0  0  0  0  0  0  0  0  0  0
   38.0254  -26.7675  -19.0502 O   0  0  0  0  0  0  0  0  0  0  0  0
   39.7960  -32.2405  -16.0407 N   0  0  0  0  0  0  0  0  0  0  0  0
   39.4977  -30.8590  -15.9292 C   0  0  0  0  0  0  0  0  0  0  0  0
   40.3763  -29.9774  -16.1249 O   0  0  0  0  0  0  0  0  0  0  0  0
   38.0776  -30.4800  -15.5644 C   0  0  0  0  0  0  0  0  0  0  0  0
   37.9621  -28.9854  -15.6822 C   0  0  0  0  0  0  0  0  0  0  0  0
   37.3648  -28.5040  -16.9792 C   0  0  2  0  0  0  0  0  0  0  0  0
   37.1245  -27.0662  -16.9296 N   0  0  0  0  0  0  0  0  0  0  0  0
   36.1160  -29.2008  -17.2962 C   0  0  0  0  0  0  0  0  0  0  0  0
   35.0163  -28.7508  -16.9133 O   0  0  0  0  0  0  0  0  0  0  0  0
   36.0665  -30.3968  -18.0361 O   0  0  0  0  0  0  0  0  0  0  0  0
  2  3  1  0
  2  1  1  1
  3  4  1  0
  4  5  2  0
  4  8  1  0
  5  6  1  0
  6  7  1  0
  8  7  2  0
  9 10  2  0
  9  2  1  0
 12 11  1  6
 12 14  1  0
 13 12  1  0
 14 16  1  0
 14 15  1  6
 15  9  1  0
 16 24  1  0
 17 16  2  0
 19 21  1  0
 19 18  1  0
 20 19  2  0
 23 22  1  1
 22 21  1  0
 24 23  1  0
 25 27  1  0
 25 23  1  0
 26 25  2  0
M  END
$$$$
