HTQ.pdb
     RDKit          3D

 27 27  0  0  1  0  0  0  0  0999 V2000
   28.7793  -22.1607  -15.3221 N   0  0  0  0  0  0  0  0  0  0  0  0
   27.5586  -21.9995  -16.0563 C   0  0  1  0  0  0  0  0  0  0  0  0
   26.7988  -23.3116  -16.0662 C   0  0  0  0  0  0  0  0  0  0  0  0
   27.7039  -24.3384  -16.6454 C   0  0  0  0  0  0  0  0  0  0  0  0
   28.9951  -24.1482  -17.0724 C   0  0  0  0  0  0  0  0  0  0  0  0
   29.5199  -25.3056  -17.5438 N   0  0  0  0  0  0  0  0  0  0  0  0
   28.5458  -26.2163  -17.4066 C   0  0  0  0  0  0  0  0  0  0  0  0
   27.4471  -25.6570  -16.8693 N   0  0  0  0  0  0  0  0  0  0  0  0
   26.7237  -20.8845  -15.5460 C   0  0  0  0  0  0  0  0  0  0  0  0
   26.4571  -20.8972  -14.3108 O   0  0  0  0  0  0  0  0  0  0  0  0
   27.4100  -17.2383  -15.3825 C   0  0  0  0  0  0  0  0  0  0  0  0
   26.0525  -17.4117  -15.9865 C   0  0  1  0  0  0  0  0  0  0  0  0
   26.1820  -17.2778  -17.3733 O   0  0  0  0  0  0  0  0  0  0  0  0
   25.4640  -18.7785  -15.7333 C   0  0  2  0  0  0  0  0  0  0  0  0
   26.2212  -19.8393  -16.3267 N   0  0  0  0  0  0  0  0  0  0  0  0
   24.0516  -18.7324  -16.2221 C   0  0  0  0  0  0  0  0  0  0  0  0
   23.8413  -19.3430  -17.3106 O   0  0  0  0  0  0  0  0  0  0  0  0
   18.2022  -18.1445  -14.2457 N   0  0  0  0  0  0  0  0  0  0  0  0
   18.3687  -19.3081  -15.0382 C   0  0  0  0  0  0  0  0  0  0  0  0
   17.4227  -20.1189  -15.2251 O   0  0  0  0  0  0  0  0  0  0  0  0
   19.7320  -19.5419  -15.6550 C   0  0  0  0  0  0  0  0  0  0  0  0
   20.6492  -18.4619  -15.1517 C   0  0  0  0  0  0  0  0  0  0  0  0
   21.6925  -18.0146  -16.1427 C   0  0  2  0  0  0  0  0  0  0  0  0
   23.0226  -18.0718  -15.5467 N   0  0  0  0  0  0  0  0  0  0  0  0
   21.4318  -16.6597  -16.6347 C   0  0  0  0  0  0  0  0  0  0  0  0
   21.9833  -15.6704  -16.1098 O   0  0  0  0  0  0  0  0  0  0  0  0
   20.5634  -16.3823  -17.7067 O   0  0  0  0  0  0  0  0  0  0  0  0
  2  3  1  0
  2  1  1  1
  3  4  1  0
  4  5  2  0
  4  8  1  0
  5  6  1  0
  6  7  1  0
  8  7  2  0
  9 10  2  0
  9  2  1  0
 12 11  1  1
 12 14  1  0
 13 12  1  0
 14 16  1  0
 14 15  1  6
 15  9  1  0
 16 24  1  0
 17 16  2  0
 19 21  1  0
 19 18  1  0
 20 19  2  0
 23 22  1  1
 22 21  1  0
 24 23  1  0
 25 27  1  0
 25 23  1  0
 26 25  2  0
M  END
$$$$
