HTQ.pdb
     RDKit          3D

 27 27  0  0  1  0  0  0  0  0999 V2000
   20.4427  -15.8893  -18.0019 N   0  0  0  0  0  0  0  0  0  0  0  0
   20.4883  -15.1438  -16.7782 C   0  0  1  0  0  0  0  0  0  0  0  0
   21.7941  -15.4287  -16.0622 C   0  0  0  0  0  0  0  0  0  0  0  0
   21.8222  -16.8845  -15.7635 C   0  0  0  0  0  0  0  0  0  0  0  0
   20.9520  -17.5740  -14.9553 C   0  0  0  0  0  0  0  0  0  0  0  0
   21.2775  -18.8891  -14.9119 N   0  0  0  0  0  0  0  0  0  0  0  0
   22.3559  -19.0118  -15.6987 C   0  0  0  0  0  0  0  0  0  0  0  0
   22.6997  -17.8207  -16.2199 N   0  0  0  0  0  0  0  0  0  0  0  0
   20.2794  -13.6895  -16.9828 C   0  0  0  0  0  0  0  0  0  0  0  0
   21.0429  -13.1200  -17.8133 O   0  0  0  0  0  0  0  0  0  0  0  0
   17.3421  -12.0393  -18.4340 C   0  0  0  0  0  0  0  0  0  0  0  0
   17.6798  -11.2934  -17.1821 C   0  0  1  0  0  0  0  0  0  0  0  0
   16.8169  -11.7380  -16.1744 O   0  0  0  0  0  0  0  0  0  0  0  0
   19.0858  -11.5559  -16.6997 C   0  0  2  0  0  0  0  0  0  0  0  0
   19.3114  -12.9207  -16.3296 N   0  0  0  0  0  0  0  0  0  0  0  0
   19.3362  -10.6026  -15.5751 C   0  0  0  0  0  0  0  0  0  0  0  0
   19.3117  -11.1190  -14.4198 O   0  0  0  0  0  0  0  0  0  0  0  0
   22.7720   -5.6600  -15.5683 N   0  0  0  0  0  0  0  0  0  0  0  0
   22.3503   -5.5442  -14.2198 C   0  0  0  0  0  0  0  0  0  0  0  0
   22.8539   -4.6895  -13.4431 O   0  0  0  0  0  0  0  0  0  0  0  0
   21.2672   -6.4900  -13.7447 C   0  0  0  0  0  0  0  0  0  0  0  0
   20.9352   -7.4103  -14.8866 C   0  0  0  0  0  0  0  0  0  0  0  0
   19.8280   -8.3910  -14.5986 C   0  0  2  0  0  0  0  0  0  0  0  0
   19.5813   -9.2397  -15.7590 N   0  0  0  0  0  0  0  0  0  0  0  0
   18.5877   -7.7148  -14.2112 C   0  0  0  0  0  0  0  0  0  0  0  0
   18.4551   -7.2235  -13.0712 O   0  0  0  0  0  0  0  0  0  0  0  0
   17.4845   -7.5736  -15.0733 O   0  0  0  0  0  0  0  0  0  0  0  0
  2  3  1  0
  2  1  1  6
  3  4  1  0
  4  5  2  0
  4  8  1  0
  5  6  1  0
  6  7  1  0
  8  7  2  0
  9 10  2  0
  9  2  1  0
 12 11  1  6
 12 14  1  0
 13 12  1  0
 14 16  1  0
 14 15  1  1
 15  9  1  0
 16 24  1  0
 17 16  2  0
 19 21  1  0
 19 18  1  0
 20 19  2  0
 23 22  1  6
 22 21  1  0
 24 23  1  0
 25 27  1  0
 25 23  1  0
 26 25  2  0
M  END
$$$$
