HTQ.pdb
     RDKit          3D

 27 27  0  0  1  0  0  0  0  0999 V2000
   19.0153  -14.1830  -19.8344 N   0  0  0  0  0  0  0  0  0  0  0  0
   18.3317  -13.5260  -18.7591 C   0  0  1  0  0  0  0  0  0  0  0  0
   18.8879  -14.0130  -17.4353 C   0  0  0  0  0  0  0  0  0  0  0  0
   18.4507  -15.4237  -17.2680 C   0  0  0  0  0  0  0  0  0  0  0  0
   19.1601  -16.5492  -17.6084 C   0  0  0  0  0  0  0  0  0  0  0  0
   18.4540  -17.6683  -17.3148 N   0  0  0  0  0  0  0  0  0  0  0  0
   17.3009  -17.2303  -16.7897 C   0  0  0  0  0  0  0  0  0  0  0  0
   17.2781  -15.8862  -16.7523 N   0  0  0  0  0  0  0  0  0  0  0  0
   18.3803  -12.0471  -18.8652 C   0  0  0  0  0  0  0  0  0  0  0  0
   19.4320  -11.5500  -19.3591 O   0  0  0  0  0  0  0  0  0  0  0  0
   15.0240   -9.2761  -18.5654 C   0  0  0  0  0  0  0  0  0  0  0  0
   16.2942   -9.1514  -19.3456 C   0  0  1  0  0  0  0  0  0  0  0  0
   16.5735   -7.7881  -19.4915 O   0  0  0  0  0  0  0  0  0  0  0  0
   17.4806   -9.7671  -18.6442 C   0  0  2  0  0  0  0  0  0  0  0  0
   17.3585  -11.1822  -18.4624 N   0  0  0  0  0  0  0  0  0  0  0  0
   17.6431   -9.0299  -17.3533 C   0  0  0  0  0  0  0  0  0  0  0  0
   17.0041   -9.5161  -16.3748 O   0  0  0  0  0  0  0  0  0  0  0  0
   22.5354   -5.7173  -14.4858 N   0  0  0  0  0  0  0  0  0  0  0  0
   21.7221   -6.6766  -13.8317 C   0  0  0  0  0  0  0  0  0  0  0  0
   22.2138   -7.5356  -13.0520 O   0  0  0  0  0  0  0  0  0  0  0  0
   20.2333   -6.6310  -14.1057 C   0  0  0  0  0  0  0  0  0  0  0  0
   20.0015   -7.2465  -15.4578 C   0  0  0  0  0  0  0  0  0  0  0  0
   18.5614   -7.2595  -15.9012 C   0  0  2  0  0  0  0  0  0  0  0  0
   18.4348   -7.8878  -17.2114 N   0  0  0  0  0  0  0  0  0  0  0  0
   17.9924   -5.9104  -15.9456 C   0  0  0  0  0  0  0  0  0  0  0  0
   17.7477   -5.3539  -17.0360 O   0  0  0  0  0  0  0  0  0  0  0  0
   17.6883   -5.1633  -14.7925 O   0  0  0  0  0  0  0  0  0  0  0  0
  2  3  1  0
  2  1  1  6
  3  4  1  0
  4  5  2  0
  4  8  1  0
  5  6  1  0
  6  7  1  0
  8  7  2  0
  9 10  2  0
  9  2  1  0
 12 11  1  1
 12 14  1  0
 13 12  1  0
 14 16  1  0
 14 15  1  1
 15  9  1  0
 16 24  1  0
 17 16  2  0
 19 21  1  0
 19 18  1  0
 20 19  2  0
 23 22  1  6
 22 21  1  0
 24 23  1  0
 25 27  1  0
 25 23  1  0
 26 25  2  0
M  END
$$$$
