HTQ.pdb
     RDKit          3D

 27 27  0  0  1  0  0  0  0  0999 V2000
   20.5456  -13.8398  -16.7971 N   0  0  0  0  0  0  0  0  0  0  0  0
   20.0513  -12.5126  -17.0192 C   0  0  1  0  0  0  0  0  0  0  0  0
   18.5403  -12.5091  -16.8932 C   0  0  0  0  0  0  0  0  0  0  0  0
   18.0102  -13.4148  -17.9456 C   0  0  0  0  0  0  0  0  0  0  0  0
   17.8419  -13.1182  -19.2759 C   0  0  0  0  0  0  0  0  0  0  0  0
   17.3348  -14.1829  -19.9442 N   0  0  0  0  0  0  0  0  0  0  0  0
   17.1892  -15.1429  -19.0200 C   0  0  0  0  0  0  0  0  0  0  0  0
   17.5887  -14.7031  -17.8136 N   0  0  0  0  0  0  0  0  0  0  0  0
   20.6798  -11.5081  -16.1266 C   0  0  0  0  0  0  0  0  0  0  0  0
   20.3972  -11.5886  -14.8975 O   0  0  0  0  0  0  0  0  0  0  0  0
   24.1825  -10.9089  -15.1492 C   0  0  0  0  0  0  0  0  0  0  0  0
   23.6200   -9.5925  -15.5835 C   0  0  1  0  0  0  0  0  0  0  0  0
   24.0475   -9.3574  -16.8949 O   0  0  0  0  0  0  0  0  0  0  0  0
   22.1108   -9.5744  -15.6068 C   0  0  2  0  0  0  0  0  0  0  0  0
   21.5483  -10.4965  -16.5470 N   0  0  0  0  0  0  0  0  0  0  0  0
   21.7049   -8.1596  -15.8704 C   0  0  0  0  0  0  0  0  0  0  0  0
   21.0146   -7.9866  -16.9171 O   0  0  0  0  0  0  0  0  0  0  0  0
   17.3859   -5.9550  -15.0145 N   0  0  0  0  0  0  0  0  0  0  0  0
   17.8527   -4.6341  -15.2317 C   0  0  0  0  0  0  0  0  0  0  0  0
   17.0599   -3.6568  -15.2927 O   0  0  0  0  0  0  0  0  0  0  0  0
   19.3465   -4.4399  -15.3885 C   0  0  0  0  0  0  0  0  0  0  0  0
   19.9991   -5.7840  -15.2200 C   0  0  0  0  0  0  0  0  0  0  0  0
   21.5032   -5.7653  -15.3105 C   0  0  2  0  0  0  0  0  0  0  0  0
   22.0488   -7.0906  -15.0395 N   0  0  0  0  0  0  0  0  0  0  0  0
   22.0929   -4.7924  -14.3877 C   0  0  0  0  0  0  0  0  0  0  0  0
   22.5953   -5.1591  -13.3054 O   0  0  0  0  0  0  0  0  0  0  0  0
   22.1348   -3.4101  -14.6477 O   0  0  0  0  0  0  0  0  0  0  0  0
  2  3  1  0
  2  1  1  1
  3  4  1  0
  4  5  2  0
  4  8  1  0
  5  6  1  0
  6  7  1  0
  8  7  2  0
  9 10  2  0
  9  2  1  0
 12 11  1  6
 12 14  1  0
 13 12  1  0
 14 16  1  0
 14 15  1  6
 15  9  1  0
 16 24  1  0
 17 16  2  0
 19 21  1  0
 19 18  1  0
 20 19  2  0
 23 22  1  1
 22 21  1  0
 24 23  1  0
 25 27  1  0
 25 23  1  0
 26 25  2  0
M  END
$$$$
