YMR.pdb
     RDKit          3D

 32 32  0  0  1  0  0  0  0  0999 V2000
   30.6602  -24.5961  -17.0756 O   0  0  0  0  0  0  0  0  0  0  0  0
   29.3034  -24.6996  -16.7848 C   0  0  0  0  0  0  0  0  0  0  0  0
   28.8199  -25.7922  -16.1276 C   0  0  0  0  0  0  0  0  0  0  0  0
   27.4868  -25.9289  -15.8234 C   0  0  0  0  0  0  0  0  0  0  0  0
   26.6268  -24.9416  -16.1908 C   0  0  0  0  0  0  0  0  0  0  0  0
   25.1853  -25.0532  -15.8799 C   0  0  0  0  0  0  0  0  0  0  0  0
   24.6733  -26.2584  -16.6412 C   0  0  2  0  0  0  0  0  0  0  0  0
   24.6565  -25.9722  -18.0587 N   0  0  0  0  0  0  0  0  0  0  0  0
   23.3248  -26.6896  -16.1957 C   0  0  0  0  0  0  0  0  0  0  0  0
   22.3313  -26.1371  -16.7432 O   0  0  0  0  0  0  0  0  0  0  0  0
   27.0923  -23.8333  -16.8530 C   0  0  0  0  0  0  0  0  0  0  0  0
   28.4317  -23.6806  -17.1668 C   0  0  0  0  0  0  0  0  0  0  0  0
   21.3993  -32.5924  -13.8700 C   0  0  0  0  0  0  0  0  0  0  0  0
   20.4056  -31.4456  -12.8763 S   0  0  0  0  0  0  0  0  0  0  0  0
   20.3857  -29.7978  -13.6405 C   0  0  0  0  0  0  0  0  0  0  0  0
   21.7604  -29.4074  -14.1003 C   0  0  0  0  0  0  0  0  0  0  0  0
   21.8038  -28.0793  -14.7995 C   0  0  2  0  0  0  0  0  0  0  0  0
   23.1365  -27.6838  -15.1934 N   0  0  0  0  0  0  0  0  0  0  0  0
   21.2659  -27.0579  -13.8754 C   0  0  0  0  0  0  0  0  0  0  0  0
   21.9231  -26.7774  -12.8449 O   0  0  0  0  0  0  0  0  0  0  0  0
   15.2525  -23.6182  -11.0472 N   0  0  0  0  0  0  0  0  0  0  0  0
   15.4107  -22.2766  -11.4569 C   0  0  0  0  0  0  0  0  0  0  0  0
   14.8918  -21.3482  -10.7195 N   0  0  0  0  0  0  0  0  0  0  0  0
   16.1084  -21.9132  -12.6340 N   0  0  0  0  0  0  0  0  0  0  0  0
   16.6677  -22.8800  -13.5528 C   0  0  0  0  0  0  0  0  0  0  0  0
   17.7449  -23.6495  -12.8257 C   0  0  0  0  0  0  0  0  0  0  0  0
   18.3945  -24.6892  -13.6716 C   0  0  0  0  0  0  0  0  0  0  0  0
   19.5462  -25.4070  -13.0623 C   0  0  2  0  0  0  0  0  0  0  0  0
   20.0453  -26.3606  -14.0692 N   0  0  0  0  0  0  0  0  0  0  0  0
   19.1715  -26.2222  -11.8610 C   0  0  0  0  0  0  0  0  0  0  0  0
   18.6590  -27.5033  -11.9723 O   0  0  0  0  0  0  0  0  0  0  0  0
   19.3028  -25.7849  -10.6792 O   0  0  0  0  0  0  0  0  0  0  0  0
  2  1  1  0
  3  2  2  0
  4  3  1  0
  5 11  1  0
  5  4  2  0
  6  5  1  0
  7  6  1  0
  7  8  1  6
  9  7  1  0
  9 18  1  0
 10  9  2  0
 11 12  2  0
 12  2  1  0
 13 14  1  0
 15 14  1  0
 16 15  1  0
 17 18  1  0
 17 16  1  1
 19 17  1  0
 20 19  2  0
 21 22  1  0
 22 23  2  0
 24 22  1  0
 24 25  1  0
 25 26  1  0
 27 26  1  0
 28 27  1  6
 28 29  1  0
 28 30  1  0
 29 19  1  0
 30 31  1  0
 32 30  2  0
M  END
$$$$
