YMR.pdb
     RDKit          3D

 32 32  0  0  1  0  0  0  0  0999 V2000
   15.7315  -23.5744  -13.2654 O   0  0  0  0  0  0  0  0  0  0  0  0
   17.0224  -23.0806  -13.4265 C   0  0  0  0  0  0  0  0  0  0  0  0
   18.0674  -23.6510  -12.7616 C   0  0  0  0  0  0  0  0  0  0  0  0
   19.3552  -23.1907  -12.8960 C   0  0  0  0  0  0  0  0  0  0  0  0
   19.5902  -22.1337  -13.7186 C   0  0  0  0  0  0  0  0  0  0  0  0
   20.9630  -21.6110  -13.8891 C   0  0  0  0  0  0  0  0  0  0  0  0
   21.3693  -21.0257  -12.5524 C   0  0  2  0  0  0  0  0  0  0  0  0
   20.5393  -19.8820  -12.2452 N   0  0  0  0  0  0  0  0  0  0  0  0
   22.8016  -20.6392  -12.5055 C   0  0  0  0  0  0  0  0  0  0  0  0
   23.1208  -19.5391  -13.0347 O   0  0  0  0  0  0  0  0  0  0  0  0
   18.5529  -21.5447  -14.3974 C   0  0  0  0  0  0  0  0  0  0  0  0
   17.2504  -21.9963  -14.2728 C   0  0  0  0  0  0  0  0  0  0  0  0
   28.4764  -21.0269   -8.8523 C   0  0  0  0  0  0  0  0  0  0  0  0
   26.8835  -20.1951   -8.6055 S   0  0  0  0  0  0  0  0  0  0  0  0
   25.5430  -21.1526   -9.3711 C   0  0  0  0  0  0  0  0  0  0  0  0
   25.9511  -21.6495  -10.7276 C   0  0  0  0  0  0  0  0  0  0  0  0
   25.1707  -21.0316  -11.8518 C   0  0  2  0  0  0  0  0  0  0  0  0
   23.7916  -21.4603  -11.8939 N   0  0  0  0  0  0  0  0  0  0  0  0
   25.8195  -21.4152  -13.1241 C   0  0  0  0  0  0  0  0  0  0  0  0
   25.8188  -22.6245  -13.4557 O   0  0  0  0  0  0  0  0  0  0  0  0
   30.5761  -20.1792  -19.1102 N   0  0  0  0  0  0  0  0  0  0  0  0
   29.5692  -19.7370  -19.9952 C   0  0  0  0  0  0  0  0  0  0  0  0
   29.6875  -20.0310  -21.2499 N   0  0  0  0  0  0  0  0  0  0  0  0
   28.4461  -18.9901  -19.5647 N   0  0  0  0  0  0  0  0  0  0  0  0
   28.1973  -18.6634  -18.1779 C   0  0  0  0  0  0  0  0  0  0  0  0
   27.9110  -19.9483  -17.4374 C   0  0  0  0  0  0  0  0  0  0  0  0
   27.2872  -19.7288  -16.1028 C   0  0  0  0  0  0  0  0  0  0  0  0
   26.9643  -20.9512  -15.3191 C   0  0  2  0  0  0  0  0  0  0  0  0
   26.4514  -20.5055  -14.0112 N   0  0  0  0  0  0  0  0  0  0  0  0
   28.1612  -21.8072  -15.0314 C   0  0  0  0  0  0  0  0  0  0  0  0
   28.5104  -22.8777  -15.8367 O   0  0  0  0  0  0  0  0  0  0  0  0
   28.9184  -21.5990  -14.0372 O   0  0  0  0  0  0  0  0  0  0  0  0
  2  1  1  0
  3  2  2  0
  4  3  1  0
  5 11  1  0
  5  4  2  0
  6  5  1  0
  7  6  1  0
  7  8  1  6
  9  7  1  0
  9 18  1  0
 10  9  2  0
 11 12  2  0
 12  2  1  0
 13 14  1  0
 15 14  1  0
 16 15  1  0
 17 18  1  0
 17 16  1  1
 19 17  1  0
 20 19  2  0
 21 22  1  0
 22 23  2  0
 24 22  1  0
 24 25  1  0
 25 26  1  0
 27 26  1  0
 28 27  1  6
 28 29  1  0
 28 30  1  0
 29 19  1  0
 30 31  1  0
 32 30  2  0
M  END
$$$$
