YMR.pdb
     RDKit          3D

 32 32  0  0  1  0  0  0  0  0999 V2000
   30.0946  -15.5356  -18.1678 O   0  0  0  0  0  0  0  0  0  0  0  0
   29.1830  -16.4239  -17.6054 C   0  0  0  0  0  0  0  0  0  0  0  0
   28.5881  -17.3806  -18.3736 C   0  0  0  0  0  0  0  0  0  0  0  0
   27.6837  -18.2748  -17.8532 C   0  0  0  0  0  0  0  0  0  0  0  0
   27.3753  -18.1996  -16.5309 C   0  0  0  0  0  0  0  0  0  0  0  0
   26.4070  -19.1452  -15.9350 C   0  0  0  0  0  0  0  0  0  0  0  0
   27.1911  -20.0152  -14.9745 C   0  0  2  0  0  0  0  0  0  0  0  0
   28.0748  -20.8891  -15.7141 N   0  0  0  0  0  0  0  0  0  0  0  0
   26.3181  -20.8166  -14.0808 C   0  0  0  0  0  0  0  0  0  0  0  0
   26.0146  -21.9806  -14.4615 O   0  0  0  0  0  0  0  0  0  0  0  0
   27.9626  -17.2442  -15.7396 C   0  0  0  0  0  0  0  0  0  0  0  0
   28.8752  -16.3365  -16.2483 C   0  0  0  0  0  0  0  0  0  0  0  0
   27.5628  -20.9211   -7.2781 C   0  0  0  0  0  0  0  0  0  0  0  0
   25.9855  -20.6197   -8.1215 S   0  0  0  0  0  0  0  0  0  0  0  0
   26.1043  -21.0854   -9.8733 C   0  0  0  0  0  0  0  0  0  0  0  0
   24.8571  -20.6974  -10.6132 C   0  0  0  0  0  0  0  0  0  0  0  0
   24.8801  -21.0757  -12.0661 C   0  0  2  0  0  0  0  0  0  0  0  0
   25.8315  -20.3126  -12.8408 N   0  0  0  0  0  0  0  0  0  0  0  0
   23.5295  -20.8422  -12.6211 C   0  0  0  0  0  0  0  0  0  0  0  0
   23.2027  -19.6712  -12.9282 O   0  0  0  0  0  0  0  0  0  0  0  0
   17.9064  -27.3308  -12.7244 N   0  0  0  0  0  0  0  0  0  0  0  0
   19.0833  -26.9405  -12.0496 C   0  0  0  0  0  0  0  0  0  0  0  0
   19.7493  -27.8474  -11.4103 N   0  0  0  0  0  0  0  0  0  0  0  0
   19.5564  -25.6062  -12.0459 N   0  0  0  0  0  0  0  0  0  0  0  0
   18.9016  -24.5323  -12.7598 C   0  0  0  0  0  0  0  0  0  0  0  0
   19.6583  -23.2549  -12.4826 C   0  0  0  0  0  0  0  0  0  0  0  0
   20.5322  -22.8346  -13.6132 C   0  0  0  0  0  0  0  0  0  0  0  0
   21.2545  -21.5455  -13.4417 C   0  0  2  0  0  0  0  0  0  0  0  0
   22.5615  -21.8573  -12.8362 N   0  0  0  0  0  0  0  0  0  0  0  0
   20.5700  -20.6004  -12.5002 C   0  0  0  0  0  0  0  0  0  0  0  0
   19.5097  -19.8047  -12.8987 O   0  0  0  0  0  0  0  0  0  0  0  0
   20.9232  -20.4775  -11.2898 O   0  0  0  0  0  0  0  0  0  0  0  0
  2  1  1  0
  3  2  2  0
  4  3  1  0
  5 11  1  0
  5  4  2  0
  6  5  1  0
  7  6  1  0
  7  8  1  6
  9  7  1  0
  9 18  1  0
 10  9  2  0
 11 12  2  0
 12  2  1  0
 13 14  1  0
 15 14  1  0
 16 15  1  0
 17 18  1  0
 17 16  1  1
 19 17  1  0
 20 19  2  0
 21 22  1  0
 22 23  2  0
 24 22  1  0
 24 25  1  0
 25 26  1  0
 27 26  1  0
 28 27  1  1
 28 29  1  0
 28 30  1  0
 29 19  1  0
 30 31  1  0
 32 30  2  0
M  END
$$$$
