YMR.pdb
     RDKit          3D

 32 32  0  0  1  0  0  0  0  0999 V2000
   28.3573  -17.4932  -18.2073 O   0  0  0  0  0  0  0  0  0  0  0  0
   27.7665  -18.0280  -17.0665 C   0  0  0  0  0  0  0  0  0  0  0  0
   26.8021  -18.9860  -17.1734 C   0  0  0  0  0  0  0  0  0  0  0  0
   26.1967  -19.5370  -16.0697 C   0  0  0  0  0  0  0  0  0  0  0  0
   26.5742  -19.1109  -14.8347 C   0  0  0  0  0  0  0  0  0  0  0  0
   25.9458  -19.6813  -13.6236 C   0  0  0  0  0  0  0  0  0  0  0  0
   26.9609  -20.6285  -13.0180 C   0  0  2  0  0  0  0  0  0  0  0  0
   27.0807  -21.8111  -13.8417 N   0  0  0  0  0  0  0  0  0  0  0  0
   26.6275  -21.0140  -11.6240 C   0  0  0  0  0  0  0  0  0  0  0  0
   25.7710  -21.9271  -11.4662 O   0  0  0  0  0  0  0  0  0  0  0  0
   27.5431  -18.1476  -14.7044 C   0  0  0  0  0  0  0  0  0  0  0  0
   28.1623  -17.5828  -15.8059 C   0  0  0  0  0  0  0  0  0  0  0  0
   27.2884  -19.5289   -3.8155 C   0  0  0  0  0  0  0  0  0  0  0  0
   27.9737  -19.2840   -5.4770 S   0  0  0  0  0  0  0  0  0  0  0  0
   26.9601  -20.1454   -6.7141 C   0  0  0  0  0  0  0  0  0  0  0  0
   27.5310  -19.9635   -8.0905 C   0  0  0  0  0  0  0  0  0  0  0  0
   26.7277  -20.6359   -9.1661 C   0  0  2  0  0  0  0  0  0  0  0  0
   27.2364  -20.3926  -10.4964 N   0  0  0  0  0  0  0  0  0  0  0  0
   25.3433  -20.1214   -9.0927 C   0  0  0  0  0  0  0  0  0  0  0  0
   25.1240  -18.9398   -9.4506 O   0  0  0  0  0  0  0  0  0  0  0  0
   21.5928  -21.3861  -15.3955 N   0  0  0  0  0  0  0  0  0  0  0  0
   20.6803  -21.5371  -14.3291 C   0  0  0  0  0  0  0  0  0  0  0  0
   19.4812  -21.9388  -14.6044 N   0  0  0  0  0  0  0  0  0  0  0  0
   21.0251  -21.2669  -12.9829 N   0  0  0  0  0  0  0  0  0  0  0  0
   22.3643  -20.9160  -12.5641 C   0  0  0  0  0  0  0  0  0  0  0  0
   22.5072  -21.2722  -11.1033 C   0  0  0  0  0  0  0  0  0  0  0  0
   22.6281  -20.0800  -10.2187 C   0  0  0  0  0  0  0  0  0  0  0  0
   22.8556  -20.3535   -8.7743 C   0  0  2  0  0  0  0  0  0  0  0  0
   24.2280  -20.8742   -8.6419 N   0  0  0  0  0  0  0  0  0  0  0  0
   21.9496  -21.4111   -8.2188 C   0  0  0  0  0  0  0  0  0  0  0  0
   22.4322  -22.6208   -7.7498 O   0  0  0  0  0  0  0  0  0  0  0  0
   20.6941  -21.2569   -8.1476 O   0  0  0  0  0  0  0  0  0  0  0  0
  2  1  1  0
  3  2  2  0
  4  3  1  0
  5 11  1  0
  5  4  2  0
  6  5  1  0
  7  6  1  0
  7  8  1  6
  9  7  1  0
  9 18  1  0
 10  9  2  0
 11 12  2  0
 12  2  1  0
 13 14  1  0
 15 14  1  0
 16 15  1  0
 17 18  1  0
 17 16  1  1
 19 17  1  0
 20 19  2  0
 21 22  1  0
 22 23  2  0
 24 22  1  0
 24 25  1  0
 25 26  1  0
 27 26  1  0
 28 27  1  6
 28 29  1  0
 28 30  1  0
 29 19  1  0
 30 31  1  0
 32 30  2  0
M  END
$$$$
