YMR.pdb
     RDKit          3D

 32 32  0  0  1  0  0  0  0  0999 V2000
   15.8311  -22.4759  -11.5826 O   0  0  0  0  0  0  0  0  0  0  0  0
   17.1743  -22.3807  -11.9335 C   0  0  0  0  0  0  0  0  0  0  0  0
   17.5368  -22.2157  -13.2376 C   0  0  0  0  0  0  0  0  0  0  0  0
   18.8526  -22.1175  -13.6215 C   0  0  0  0  0  0  0  0  0  0  0  0
   19.8198  -22.1875  -12.6681 C   0  0  0  0  0  0  0  0  0  0  0  0
   21.2466  -22.0851  -13.0430 C   0  0  0  0  0  0  0  0  0  0  0  0
   21.7170  -20.7230  -12.5764 C   0  0  2  0  0  0  0  0  0  0  0  0
   21.0750  -19.6885  -13.3568 N   0  0  0  0  0  0  0  0  0  0  0  0
   23.1916  -20.5687  -12.6466 C   0  0  0  0  0  0  0  0  0  0  0  0
   23.6689  -20.0489  -13.6926 O   0  0  0  0  0  0  0  0  0  0  0  0
   19.4769  -22.3534  -11.3495 C   0  0  0  0  0  0  0  0  0  0  0  0
   18.1566  -22.4539  -10.9467 C   0  0  0  0  0  0  0  0  0  0  0  0
   27.2329  -20.0114   -8.0525 C   0  0  0  0  0  0  0  0  0  0  0  0
   28.2936  -20.0272   -9.5238 S   0  0  0  0  0  0  0  0  0  0  0  0
   27.7324  -21.2963  -10.6962 C   0  0  0  0  0  0  0  0  0  0  0  0
   26.2471  -21.4909  -10.5997 C   0  0  0  0  0  0  0  0  0  0  0  0
   25.4828  -20.8310  -11.7110 C   0  0  2  0  0  0  0  0  0  0  0  0
   24.0511  -20.9833  -11.5894 N   0  0  0  0  0  0  0  0  0  0  0  0
   25.9122  -21.4419  -12.9874 C   0  0  0  0  0  0  0  0  0  0  0  0
   25.4903  -22.5872  -13.2747 O   0  0  0  0  0  0  0  0  0  0  0  0
   23.6931  -17.5382  -16.2972 N   0  0  0  0  0  0  0  0  0  0  0  0
   25.0049  -17.4126  -16.8030 C   0  0  0  0  0  0  0  0  0  0  0  0
   25.6696  -16.3400  -16.5157 N   0  0  0  0  0  0  0  0  0  0  0  0
   25.6138  -18.4069  -17.6061 N   0  0  0  0  0  0  0  0  0  0  0  0
   25.0232  -19.7062  -17.8404 C   0  0  0  0  0  0  0  0  0  0  0  0
   25.3284  -20.5820  -16.6484 C   0  0  0  0  0  0  0  0  0  0  0  0
   26.7760  -20.6121  -16.2988 C   0  0  0  0  0  0  0  0  0  0  0  0
   27.1620  -21.5048  -15.1732 C   0  0  2  0  0  0  0  0  0  0  0  0
   26.7775  -20.8212  -13.9254 N   0  0  0  0  0  0  0  0  0  0  0  0
   28.6393  -21.7442  -15.0831 C   0  0  0  0  0  0  0  0  0  0  0  0
   29.1719  -23.0157  -14.9575 O   0  0  0  0  0  0  0  0  0  0  0  0
   29.4811  -20.7980  -15.1168 O   0  0  0  0  0  0  0  0  0  0  0  0
  2  1  1  0
  3  2  2  0
  4  3  1  0
  5 11  1  0
  5  4  2  0
  6  5  1  0
  7  6  1  0
  7  8  1  6
  9  7  1  0
  9 18  1  0
 10  9  2  0
 11 12  2  0
 12  2  1  0
 13 14  1  0
 15 14  1  0
 16 15  1  0
 17 18  1  0
 17 16  1  1
 19 17  1  0
 20 19  2  0
 21 22  1  0
 22 23  2  0
 24 22  1  0
 24 25  1  0
 25 26  1  0
 27 26  1  0
 28 27  1  6
 28 29  1  0
 28 30  1  0
 29 19  1  0
 30 31  1  0
 32 30  2  0
M  END
$$$$
