YMR.pdb
     RDKit          3D

 32 32  0  0  1  0  0  0  0  0999 V2000
   27.7159  -19.1670   -5.0060 O   0  0  0  0  0  0  0  0  0  0  0  0
   27.4879  -19.5952   -6.3103 C   0  0  0  0  0  0  0  0  0  0  0  0
   27.0801  -20.8730   -6.5557 C   0  0  0  0  0  0  0  0  0  0  0  0
   26.8450  -21.3310   -7.8298 C   0  0  0  0  0  0  0  0  0  0  0  0
   27.0260  -20.4803   -8.8752 C   0  0  0  0  0  0  0  0  0  0  0  0
   26.7822  -20.9371  -10.2604 C   0  0  0  0  0  0  0  0  0  0  0  0
   25.6200  -20.1192  -10.7845 C   0  0  2  0  0  0  0  0  0  0  0  0
   24.3718  -20.7598  -10.4338 N   0  0  0  0  0  0  0  0  0  0  0  0
   25.6838  -19.9038  -12.2517 C   0  0  0  0  0  0  0  0  0  0  0  0
   25.2717  -20.8393  -12.9914 O   0  0  0  0  0  0  0  0  0  0  0  0
   27.4361  -19.1899   -8.6506 C   0  0  0  0  0  0  0  0  0  0  0  0
   27.6770  -18.7134   -7.3736 C   0  0  0  0  0  0  0  0  0  0  0  0
   27.5413  -15.2289  -18.4357 C   0  0  0  0  0  0  0  0  0  0  0  0
   27.2738  -15.3566  -16.6462 S   0  0  0  0  0  0  0  0  0  0  0  0
   26.9541  -17.0815  -16.1745 C   0  0  0  0  0  0  0  0  0  0  0  0
   26.7214  -17.1948  -14.6958 C   0  0  0  0  0  0  0  0  0  0  0  0
   26.3282  -18.5753  -14.2552 C   0  0  2  0  0  0  0  0  0  0  0  0
   26.1855  -18.6994  -12.8227 N   0  0  0  0  0  0  0  0  0  0  0  0
   27.3777  -19.5153  -14.7045 C   0  0  0  0  0  0  0  0  0  0  0  0
   28.2423  -19.8878  -13.8762 O   0  0  0  0  0  0  0  0  0  0  0  0
   25.8449  -25.9057  -15.5603 N   0  0  0  0  0  0  0  0  0  0  0  0
   25.1979  -25.2176  -16.6093 C   0  0  0  0  0  0  0  0  0  0  0  0
   23.9250  -25.3951  -16.7617 N   0  0  0  0  0  0  0  0  0  0  0  0
   25.8839  -24.3497  -17.4927 N   0  0  0  0  0  0  0  0  0  0  0  0
   27.2043  -23.8259  -17.2210 C   0  0  0  0  0  0  0  0  0  0  0  0
   27.1120  -22.9251  -16.0122 C   0  0  0  0  0  0  0  0  0  0  0  0
   28.3874  -22.2175  -15.7101 C   0  0  0  0  0  0  0  0  0  0  0  0
   28.5984  -20.9183  -16.4031 C   0  0  2  0  0  0  0  0  0  0  0  0
   27.4818  -20.0357  -16.0206 N   0  0  0  0  0  0  0  0  0  0  0  0
   28.5550  -21.0270  -17.8978 C   0  0  0  0  0  0  0  0  0  0  0  0
   29.5526  -21.6609  -18.6184 O   0  0  0  0  0  0  0  0  0  0  0  0
   27.6046  -20.5457  -18.5836 O   0  0  0  0  0  0  0  0  0  0  0  0
  2  1  1  0
  3  2  2  0
  4  3  1  0
  5 11  1  0
  5  4  2  0
  6  5  1  0
  7  6  1  0
  7  8  1  6
  9  7  1  0
  9 18  1  0
 10  9  2  0
 11 12  2  0
 12  2  1  0
 13 14  1  0
 15 14  1  0
 16 15  1  0
 17 18  1  0
 17 16  1  1
 19 17  1  0
 20 19  2  0
 21 22  1  0
 22 23  2  0
 24 22  1  0
 24 25  1  0
 25 26  1  0
 27 26  1  0
 28 27  1  1
 28 29  1  0
 28 30  1  0
 29 19  1  0
 30 31  1  0
 32 30  2  0
M  END
$$$$
