YMR.pdb
     RDKit          3D

 32 32  0  0  1  0  0  0  0  0999 V2000
   25.6449  -12.6988  -21.0020 O   0  0  0  0  0  0  0  0  0  0  0  0
   25.1677  -13.8235  -20.3359 C   0  0  0  0  0  0  0  0  0  0  0  0
   25.2976  -13.9310  -18.9828 C   0  0  0  0  0  0  0  0  0  0  0  0
   24.8385  -15.0261  -18.2912 C   0  0  0  0  0  0  0  0  0  0  0  0
   24.2366  -16.0313  -18.9816 C   0  0  0  0  0  0  0  0  0  0  0  0
   23.7292  -17.2253  -18.2717 C   0  0  0  0  0  0  0  0  0  0  0  0
   24.9459  -17.9914  -17.7951 C   0  0  2  0  0  0  0  0  0  0  0  0
   25.5882  -18.6392  -18.9173 N   0  0  0  0  0  0  0  0  0  0  0  0
   24.6211  -18.9938  -16.7498 C   0  0  0  0  0  0  0  0  0  0  0  0
   24.1348  -20.0928  -17.1344 O   0  0  0  0  0  0  0  0  0  0  0  0
   24.0955  -15.9435  -20.3440 C   0  0  0  0  0  0  0  0  0  0  0  0
   24.5524  -14.8474  -21.0550 C   0  0  0  0  0  0  0  0  0  0  0  0
   25.3053  -21.4536   -9.2168 C   0  0  0  0  0  0  0  0  0  0  0  0
   25.6886  -20.1853  -10.4557 S   0  0  0  0  0  0  0  0  0  0  0  0
   24.8382  -20.5489  -12.0192 C   0  0  0  0  0  0  0  0  0  0  0  0
   25.0611  -19.4481  -13.0152 C   0  0  0  0  0  0  0  0  0  0  0  0
   24.5310  -19.7624  -14.3844 C   0  0  2  0  0  0  0  0  0  0  0  0
   24.8407  -18.7469  -15.3644 N   0  0  0  0  0  0  0  0  0  0  0  0
   23.0607  -19.8876  -14.2881 C   0  0  0  0  0  0  0  0  0  0  0  0
   22.3764  -18.8421  -14.1833 O   0  0  0  0  0  0  0  0  0  0  0  0
   21.0436  -27.0895  -11.7333 N   0  0  0  0  0  0  0  0  0  0  0  0
   19.9277  -26.3077  -11.3646 C   0  0  0  0  0  0  0  0  0  0  0  0
   19.2111  -26.7018  -10.3616 N   0  0  0  0  0  0  0  0  0  0  0  0
   19.5666  -25.1203  -12.0458 N   0  0  0  0  0  0  0  0  0  0  0  0
   20.4221  -24.4729  -13.0157 C   0  0  0  0  0  0  0  0  0  0  0  0
   19.6860  -23.2733  -13.5636 C   0  0  0  0  0  0  0  0  0  0  0  0
   20.4603  -22.5332  -14.5986 C   0  0  0  0  0  0  0  0  0  0  0  0
   20.8832  -21.1525  -14.2411 C   0  0  2  0  0  0  0  0  0  0  0  0
   22.3552  -21.1187  -14.3061 N   0  0  0  0  0  0  0  0  0  0  0  0
   20.5153  -20.7610  -12.8413 C   0  0  0  0  0  0  0  0  0  0  0  0
   19.3453  -20.0805  -12.5515 O   0  0  0  0  0  0  0  0  0  0  0  0
   21.2534  -21.0307  -11.8476 O   0  0  0  0  0  0  0  0  0  0  0  0
  2  1  1  0
  3  2  2  0
  4  3  1  0
  5 11  1  0
  5  4  2  0
  6  5  1  0
  7  6  1  0
  7  8  1  6
  9  7  1  0
  9 18  1  0
 10  9  2  0
 11 12  2  0
 12  2  1  0
 13 14  1  0
 15 14  1  0
 16 15  1  0
 17 18  1  0
 17 16  1  1
 19 17  1  0
 20 19  2  0
 21 22  1  0
 22 23  2  0
 24 22  1  0
 24 25  1  0
 25 26  1  0
 27 26  1  0
 28 27  1  1
 28 29  1  0
 28 30  1  0
 29 19  1  0
 30 31  1  0
 32 30  2  0
M  END
$$$$
