YMR.pdb
     RDKit          3D

 32 32  0  0  1  0  0  0  0  0999 V2000
   28.6515  -14.5936  -17.7065 O   0  0  0  0  0  0  0  0  0  0  0  0
   27.9612  -15.6093  -17.0520 C   0  0  0  0  0  0  0  0  0  0  0  0
   27.6757  -15.5041  -15.7228 C   0  0  0  0  0  0  0  0  0  0  0  0
   26.9960  -16.4864  -15.0434 C   0  0  0  0  0  0  0  0  0  0  0  0
   26.5978  -17.5958  -15.7215 C   0  0  0  0  0  0  0  0  0  0  0  0
   25.8635  -18.6736  -15.0243 C   0  0  0  0  0  0  0  0  0  0  0  0
   26.8959  -19.4646  -14.2479 C   0  0  2  0  0  0  0  0  0  0  0  0
   27.6438  -20.3126  -15.1496 N   0  0  0  0  0  0  0  0  0  0  0  0
   26.2974  -20.2822  -13.1634 C   0  0  0  0  0  0  0  0  0  0  0  0
   25.8283  -21.4096  -13.4814 O   0  0  0  0  0  0  0  0  0  0  0  0
   26.8748  -17.7219  -17.0598 C   0  0  0  0  0  0  0  0  0  0  0  0
   27.5583  -16.7418  -17.7584 C   0  0  0  0  0  0  0  0  0  0  0  0
   27.4946  -19.8336   -6.6873 C   0  0  0  0  0  0  0  0  0  0  0  0
   25.8095  -20.5047   -6.6831 S   0  0  0  0  0  0  0  0  0  0  0  0
   25.3586  -21.0962   -8.3405 C   0  0  0  0  0  0  0  0  0  0  0  0
   25.9191  -20.1919   -9.3994 C   0  0  0  0  0  0  0  0  0  0  0  0
   25.6147  -20.6460  -10.7979 C   0  0  2  0  0  0  0  0  0  0  0  0
   26.2440  -19.8329  -11.8129 N   0  0  0  0  0  0  0  0  0  0  0  0
   24.1497  -20.5846  -10.9901 C   0  0  0  0  0  0  0  0  0  0  0  0
   23.6320  -19.4849  -11.2986 O   0  0  0  0  0  0  0  0  0  0  0  0
   17.9173  -24.6245   -7.5933 N   0  0  0  0  0  0  0  0  0  0  0  0
   17.1699  -24.2970   -8.7451 C   0  0  0  0  0  0  0  0  0  0  0  0
   15.8936  -24.1259   -8.6161 N   0  0  0  0  0  0  0  0  0  0  0  0
   17.7594  -24.1515  -10.0240 N   0  0  0  0  0  0  0  0  0  0  0  0
   19.1824  -24.2640  -10.2570 C   0  0  0  0  0  0  0  0  0  0  0  0
   19.7277  -22.8779  -10.5072 C   0  0  0  0  0  0  0  0  0  0  0  0
   21.1996  -22.8598  -10.7351 C   0  0  0  0  0  0  0  0  0  0  0  0
   21.8130  -21.5239  -10.9636 C   0  0  2  0  0  0  0  0  0  0  0  0
   23.2728  -21.6915  -10.8506 N   0  0  0  0  0  0  0  0  0  0  0  0
   21.4257  -20.5068   -9.9324 C   0  0  0  0  0  0  0  0  0  0  0  0
   20.4745  -19.5325  -10.1814 O   0  0  0  0  0  0  0  0  0  0  0  0
   21.9464  -20.4824   -8.7777 O   0  0  0  0  0  0  0  0  0  0  0  0
  2  1  1  0
  3  2  2  0
  4  3  1  0
  5 11  1  0
  5  4  2  0
  6  5  1  0
  7  6  1  0
  7  8  1  6
  9  7  1  0
  9 18  1  0
 10  9  2  0
 11 12  2  0
 12  2  1  0
 13 14  1  0
 15 14  1  0
 16 15  1  0
 17 18  1  0
 17 16  1  1
 19 17  1  0
 20 19  2  0
 21 22  1  0
 22 23  2  0
 24 22  1  0
 24 25  1  0
 25 26  1  0
 27 26  1  0
 28 27  1  1
 28 29  1  0
 28 30  1  0
 29 19  1  0
 30 31  1  0
 32 30  2  0
M  END
$$$$
