YMR.pdb
     RDKit          3D

 32 32  0  0  1  0  0  0  0  0999 V2000
   15.1224  -13.6374  -20.6236 O   0  0  0  0  0  0  0  0  0  0  0  0
   15.8643  -13.2097  -19.5268 C   0  0  0  0  0  0  0  0  0  0  0  0
   16.4246  -11.9666  -19.5150 C   0  0  0  0  0  0  0  0  0  0  0  0
   17.1632  -11.5101  -18.4499 C   0  0  0  0  0  0  0  0  0  0  0  0
   17.3381  -12.3266  -17.3765 C   0  0  0  0  0  0  0  0  0  0  0  0
   18.1261  -11.8699  -16.2115 C   0  0  0  0  0  0  0  0  0  0  0  0
   19.5624  -12.2686  -16.4809 C   0  0  2  0  0  0  0  0  0  0  0  0
   19.6996  -13.7047  -16.3809 N   0  0  0  0  0  0  0  0  0  0  0  0
   20.5248  -11.6032  -15.5677 C   0  0  0  0  0  0  0  0  0  0  0  0
   20.4110  -11.8427  -14.3341 O   0  0  0  0  0  0  0  0  0  0  0  0
   16.7828  -13.5817  -17.3676 C   0  0  0  0  0  0  0  0  0  0  0  0
   16.0364  -14.0562  -18.4323 C   0  0  0  0  0  0  0  0  0  0  0  0
   26.9323  -10.6049  -15.8089 C   0  0  0  0  0  0  0  0  0  0  0  0
   26.3646   -8.9945  -15.1971 S   0  0  0  0  0  0  0  0  0  0  0  0
   24.6598   -9.1152  -14.5816 C   0  0  0  0  0  0  0  0  0  0  0  0
   23.8044   -9.9000  -15.5333 C   0  0  0  0  0  0  0  0  0  0  0  0
   22.3670   -9.9938  -15.1092 C   0  0  2  0  0  0  0  0  0  0  0  0
   21.5423  -10.7268  -16.0421 N   0  0  0  0  0  0  0  0  0  0  0  0
   21.8339   -8.6195  -14.9922 C   0  0  0  0  0  0  0  0  0  0  0  0
   21.4985   -8.0163  -16.0390 O   0  0  0  0  0  0  0  0  0  0  0  0
   16.0209   -5.0158   -9.3632 N   0  0  0  0  0  0  0  0  0  0  0  0
   16.3340   -4.1009  -10.3915 C   0  0  0  0  0  0  0  0  0  0  0  0
   15.7045   -2.9703  -10.4149 N   0  0  0  0  0  0  0  0  0  0  0  0
   17.3012   -4.3724  -11.3890 N   0  0  0  0  0  0  0  0  0  0  0  0
   18.0781   -5.5917  -11.4269 C   0  0  0  0  0  0  0  0  0  0  0  0
   19.1151   -5.4534  -12.5163 C   0  0  0  0  0  0  0  0  0  0  0  0
   19.9470   -6.6763  -12.6920 C   0  0  0  0  0  0  0  0  0  0  0  0
   21.0141   -6.6026  -13.7258 C   0  0  2  0  0  0  0  0  0  0  0  0
   21.6702   -7.9217  -13.7674 N   0  0  0  0  0  0  0  0  0  0  0  0
   22.0891   -5.6088  -13.4018 C   0  0  0  0  0  0  0  0  0  0  0  0
   22.1281   -4.3525  -13.9818 O   0  0  0  0  0  0  0  0  0  0  0  0
   23.0198   -5.8629  -12.5807 O   0  0  0  0  0  0  0  0  0  0  0  0
  2  1  1  0
  3  2  2  0
  4  3  1  0
  5 11  1  0
  5  4  2  0
  6  5  1  0
  7  6  1  0
  7  8  1  1
  9  7  1  0
  9 18  1  0
 10  9  2  0
 11 12  2  0
 12  2  1  0
 13 14  1  0
 15 14  1  0
 16 15  1  0
 17 18  1  0
 17 16  1  6
 19 17  1  0
 20 19  2  0
 21 22  1  0
 22 23  2  0
 24 22  1  0
 24 25  1  0
 25 26  1  0
 27 26  1  0
 28 27  1  1
 28 29  1  0
 28 30  1  0
 29 19  1  0
 30 31  1  0
 32 30  2  0
M  END
$$$$
