YMR.pdb
     RDKit          3D

 32 32  0  0  1  0  0  0  0  0999 V2000
   29.9866  -19.6991   -3.5433 O   0  0  0  0  0  0  0  0  0  0  0  0
   29.0562  -19.8309   -4.5697 C   0  0  0  0  0  0  0  0  0  0  0  0
   28.2091  -20.8990   -4.6003 C   0  0  0  0  0  0  0  0  0  0  0  0
   27.2778  -21.0623   -5.5974 C   0  0  0  0  0  0  0  0  0  0  0  0
   27.2021  -20.1274   -6.5821 C   0  0  0  0  0  0  0  0  0  0  0  0
   26.2120  -20.2689   -7.6715 C   0  0  0  0  0  0  0  0  0  0  0  0
   26.8242  -21.2088   -8.6894 C   0  0  2  0  0  0  0  0  0  0  0  0
   28.2292  -21.3954   -8.4020 N   0  0  0  0  0  0  0  0  0  0  0  0
   26.6515  -20.7357  -10.0856 C   0  0  0  0  0  0  0  0  0  0  0  0
   27.4892  -19.8978  -10.5196 O   0  0  0  0  0  0  0  0  0  0  0  0
   28.0453  -19.0445   -6.5706 C   0  0  0  0  0  0  0  0  0  0  0  0
   28.9885  -18.8656   -5.5736 C   0  0  0  0  0  0  0  0  0  0  0  0
   26.9817  -18.4380  -15.0159 C   0  0  0  0  0  0  0  0  0  0  0  0
   27.5197  -20.1703  -15.0076 S   0  0  0  0  0  0  0  0  0  0  0  0
   26.1108  -21.2701  -14.6830 C   0  0  0  0  0  0  0  0  0  0  0  0
   26.1226  -21.7445  -13.2588 C   0  0  0  0  0  0  0  0  0  0  0  0
   25.5097  -20.7680  -12.2968 C   0  0  2  0  0  0  0  0  0  0  0  0
   25.5916  -21.1949  -10.9189 N   0  0  0  0  0  0  0  0  0  0  0  0
   24.0836  -20.6080  -12.6536 C   0  0  0  0  0  0  0  0  0  0  0  0
   23.2634  -21.4612  -12.2393 O   0  0  0  0  0  0  0  0  0  0  0  0
   19.2739  -14.1253  -16.8654 N   0  0  0  0  0  0  0  0  0  0  0  0
   18.4433  -15.2030  -16.4893 C   0  0  0  0  0  0  0  0  0  0  0  0
   17.1786  -15.1185  -16.7502 N   0  0  0  0  0  0  0  0  0  0  0  0
   18.9383  -16.3610  -15.8425 N   0  0  0  0  0  0  0  0  0  0  0  0
   20.2895  -16.4693  -15.3382 C   0  0  0  0  0  0  0  0  0  0  0  0
   20.5039  -17.8902  -14.8729 C   0  0  0  0  0  0  0  0  0  0  0  0
   21.8671  -18.1267  -14.3215 C   0  0  0  0  0  0  0  0  0  0  0  0
   22.1363  -19.4925  -13.7971 C   0  0  2  0  0  0  0  0  0  0  0  0
   23.5652  -19.5467  -13.4402 N   0  0  0  0  0  0  0  0  0  0  0  0
   21.9154  -20.5739  -14.8117 C   0  0  0  0  0  0  0  0  0  0  0  0
   20.7439  -21.3100  -14.8588 O   0  0  0  0  0  0  0  0  0  0  0  0
   22.7868  -20.8740  -15.6810 O   0  0  0  0  0  0  0  0  0  0  0  0
  2  1  1  0
  3  2  2  0
  4  3  1  0
  5 11  1  0
  5  4  2  0
  6  5  1  0
  7  6  1  0
  7  8  1  1
  9  7  1  0
  9 18  1  0
 10  9  2  0
 11 12  2  0
 12  2  1  0
 13 14  1  0
 15 14  1  0
 16 15  1  0
 17 18  1  0
 17 16  1  6
 19 17  1  0
 20 19  2  0
 21 22  1  0
 22 23  2  0
 24 22  1  0
 24 25  1  0
 25 26  1  0
 27 26  1  0
 28 27  1  6
 28 29  1  0
 28 30  1  0
 29 19  1  0
 30 31  1  0
 32 30  2  0
M  END
$$$$
