YMR.pdb
     RDKit          3D

 32 32  0  0  1  0  0  0  0  0999 V2000
   27.1939  -20.9961  -26.8238 O   0  0  0  0  0  0  0  0  0  0  0  0
   26.5234  -20.7807  -25.6236 C   0  0  0  0  0  0  0  0  0  0  0  0
   26.2663  -19.5121  -25.1948 C   0  0  0  0  0  0  0  0  0  0  0  0
   25.6068  -19.2609  -24.0157 C   0  0  0  0  0  0  0  0  0  0  0  0
   25.1997  -20.3129  -23.2562 C   0  0  0  0  0  0  0  0  0  0  0  0
   24.4864  -20.0818  -21.9816 C   0  0  0  0  0  0  0  0  0  0  0  0
   25.5416  -20.0678  -20.8949 C   0  0  2  0  0  0  0  0  0  0  0  0
   25.5817  -21.3533  -20.2337 N   0  0  0  0  0  0  0  0  0  0  0  0
   25.3244  -18.9914  -19.8963 C   0  0  0  0  0  0  0  0  0  0  0  0
   24.6333  -19.2769  -18.8800 O   0  0  0  0  0  0  0  0  0  0  0  0
   25.4481  -21.5980  -23.6691 C   0  0  0  0  0  0  0  0  0  0  0  0
   26.1111  -21.8677  -24.8539 C   0  0  0  0  0  0  0  0  0  0  0  0
   26.4520  -14.1468  -14.8591 C   0  0  0  0  0  0  0  0  0  0  0  0
   26.6341  -15.4541  -16.1034 S   0  0  0  0  0  0  0  0  0  0  0  0
   26.6323  -14.7430  -17.7750 C   0  0  0  0  0  0  0  0  0  0  0  0
   26.8558  -15.8094  -18.8076 C   0  0  0  0  0  0  0  0  0  0  0  0
   25.6528  -16.6763  -19.0438 C   0  0  2  0  0  0  0  0  0  0  0  0
   25.8639  -17.6833  -20.0583 N   0  0  0  0  0  0  0  0  0  0  0  0
   24.5381  -15.8049  -19.4736 C   0  0  0  0  0  0  0  0  0  0  0  0
   24.5380  -15.3689  -20.6493 O   0  0  0  0  0  0  0  0  0  0  0  0
   16.1494  -15.8352  -17.0801 N   0  0  0  0  0  0  0  0  0  0  0  0
   16.4959  -15.0067  -18.1691 C   0  0  0  0  0  0  0  0  0  0  0  0
   15.5691  -14.2740  -18.6974 N   0  0  0  0  0  0  0  0  0  0  0  0
   17.8070  -14.9492  -18.7001 N   0  0  0  0  0  0  0  0  0  0  0  0
   18.9048  -15.7374  -18.1848 C   0  0  0  0  0  0  0  0  0  0  0  0
   20.1151  -15.4779  -19.0502 C   0  0  0  0  0  0  0  0  0  0  0  0
   21.1919  -14.7306  -18.3427 C   0  0  0  0  0  0  0  0  0  0  0  0
   22.4318  -14.4693  -19.1217 C   0  0  2  0  0  0  0  0  0  0  0  0
   23.4525  -15.4195  -18.6448 N   0  0  0  0  0  0  0  0  0  0  0  0
   22.9971  -13.0986  -18.8989 C   0  0  0  0  0  0  0  0  0  0  0  0
   23.0945  -12.1684  -19.9195 O   0  0  0  0  0  0  0  0  0  0  0  0
   23.4163  -12.7158  -17.7663 O   0  0  0  0  0  0  0  0  0  0  0  0
  2  1  1  0
  3  2  2  0
  4  3  1  0
  5 11  1  0
  5  4  2  0
  6  5  1  0
  7  6  1  0
  7  8  1  1
  9  7  1  0
  9 18  1  0
 10  9  2  0
 11 12  2  0
 12  2  1  0
 13 14  1  0
 15 14  1  0
 16 15  1  0
 17 18  1  0
 17 16  1  6
 19 17  1  0
 20 19  2  0
 21 22  1  0
 22 23  2  0
 24 22  1  0
 24 25  1  0
 25 26  1  0
 27 26  1  0
 28 27  1  1
 28 29  1  0
 28 30  1  0
 29 19  1  0
 30 31  1  0
 32 30  2  0
M  END
$$$$
