YMR.pdb
     RDKit          3D

 32 32  0  0  1  0  0  0  0  0999 V2000
   15.7618  -24.0069  -14.1203 O   0  0  0  0  0  0  0  0  0  0  0  0
   16.9276  -23.2574  -14.2446 C   0  0  0  0  0  0  0  0  0  0  0  0
   18.1435  -23.8736  -14.2814 C   0  0  0  0  0  0  0  0  0  0  0  0
   19.3155  -23.1666  -14.4035 C   0  0  0  0  0  0  0  0  0  0  0  0
   19.2562  -21.8108  -14.4900 C   0  0  0  0  0  0  0  0  0  0  0  0
   20.4964  -21.0162  -14.6230 C   0  0  0  0  0  0  0  0  0  0  0  0
   21.2062  -21.1003  -13.2876 C   0  0  2  0  0  0  0  0  0  0  0  0
   20.5194  -20.2799  -12.3146 N   0  0  0  0  0  0  0  0  0  0  0  0
   22.6335  -20.7015  -13.3689 C   0  0  0  0  0  0  0  0  0  0  0  0
   22.8845  -19.4684  -13.4616 O   0  0  0  0  0  0  0  0  0  0  0  0
   18.0429  -21.1703  -14.4550 C   0  0  0  0  0  0  0  0  0  0  0  0
   16.8536  -21.8678  -14.3325 C   0  0  0  0  0  0  0  0  0  0  0  0
   25.5759  -19.1229  -10.8159 C   0  0  0  0  0  0  0  0  0  0  0  0
   26.6856  -20.5458  -10.6319 S   0  0  0  0  0  0  0  0  0  0  0  0
   25.9107  -22.0451  -11.3038 C   0  0  0  0  0  0  0  0  0  0  0  0
   26.0514  -22.0937  -12.7976 C   0  0  0  0  0  0  0  0  0  0  0  0
   25.0614  -21.2273  -13.5212 C   0  0  2  0  0  0  0  0  0  0  0  0
   23.6922  -21.6539  -13.3452 N   0  0  0  0  0  0  0  0  0  0  0  0
   25.3838  -21.2708  -14.9638 C   0  0  0  0  0  0  0  0  0  0  0  0
   24.9715  -22.2427  -15.6403 O   0  0  0  0  0  0  0  0  0  0  0  0
   26.6959  -14.8674  -14.3962 N   0  0  0  0  0  0  0  0  0  0  0  0
   26.5421  -14.8650  -15.7994 C   0  0  0  0  0  0  0  0  0  0  0  0
   26.0944  -13.7891  -16.3623 N   0  0  0  0  0  0  0  0  0  0  0  0
   26.8557  -15.9859  -16.6054 N   0  0  0  0  0  0  0  0  0  0  0  0
   27.4132  -17.2107  -16.0754 C   0  0  0  0  0  0  0  0  0  0  0  0
   27.6094  -18.1720  -17.2237 C   0  0  0  0  0  0  0  0  0  0  0  0
   26.3689  -18.9125  -17.5863 C   0  0  0  0  0  0  0  0  0  0  0  0
   26.2831  -20.3213  -17.1163 C   0  0  2  0  0  0  0  0  0  0  0  0
   26.1346  -20.2816  -15.6505 N   0  0  0  0  0  0  0  0  0  0  0  0
   27.5236  -21.1172  -17.3915 C   0  0  0  0  0  0  0  0  0  0  0  0
   27.8035  -21.6326  -18.6454 O   0  0  0  0  0  0  0  0  0  0  0  0
   28.3833  -21.3619  -16.4936 O   0  0  0  0  0  0  0  0  0  0  0  0
  2  1  1  0
  3  2  2  0
  4  3  1  0
  5 11  1  0
  5  4  2  0
  6  5  1  0
  7  6  1  0
  7  8  1  1
  9  7  1  0
  9 18  1  0
 10  9  2  0
 11 12  2  0
 12  2  1  0
 13 14  1  0
 15 14  1  0
 16 15  1  0
 17 18  1  0
 17 16  1  1
 19 17  1  0
 20 19  2  0
 21 22  1  0
 22 23  2  0
 24 22  1  0
 24 25  1  0
 25 26  1  0
 27 26  1  0
 28 27  1  1
 28 29  1  0
 28 30  1  0
 29 19  1  0
 30 31  1  0
 32 30  2  0
M  END
$$$$
