YMR.pdb
     RDKit          3D

 32 32  0  0  1  0  0  0  0  0999 V2000
   34.8733  -23.9615  -13.4169 O   0  0  0  0  0  0  0  0  0  0  0  0
   33.7029  -23.2432  -13.1924 C   0  0  0  0  0  0  0  0  0  0  0  0
   33.2191  -23.0904  -11.9266 C   0  0  0  0  0  0  0  0  0  0  0  0
   32.0671  -22.3879  -11.6666 C   0  0  0  0  0  0  0  0  0  0  0  0
   31.3918  -21.8296  -12.7065 C   0  0  0  0  0  0  0  0  0  0  0  0
   30.1486  -21.0658  -12.4656 C   0  0  0  0  0  0  0  0  0  0  0  0
   29.0833  -22.0808  -12.1061 C   0  0  2  0  0  0  0  0  0  0  0  0
   28.6886  -22.8167  -13.2868 N   0  0  0  0  0  0  0  0  0  0  0  0
   27.8915  -21.4636  -11.4723 C   0  0  0  0  0  0  0  0  0  0  0  0
   26.8597  -21.3329  -12.1867 O   0  0  0  0  0  0  0  0  0  0  0  0
   31.8611  -21.9713  -13.9885 C   0  0  0  0  0  0  0  0  0  0  0  0
   33.0196  -22.6756  -14.2670 C   0  0  0  0  0  0  0  0  0  0  0  0
   27.3379  -18.6519   -5.5329 C   0  0  0  0  0  0  0  0  0  0  0  0
   25.8174  -19.6405   -5.5612 S   0  0  0  0  0  0  0  0  0  0  0  0
   25.5294  -20.3131   -7.2239 C   0  0  0  0  0  0  0  0  0  0  0  0
   26.8091  -20.3637   -8.0069 C   0  0  0  0  0  0  0  0  0  0  0  0
   26.6565  -20.9856   -9.3650 C   0  0  2  0  0  0  0  0  0  0  0  0
   27.8902  -21.0294  -10.1158 N   0  0  0  0  0  0  0  0  0  0  0  0
   25.6729  -20.1859  -10.1265 C   0  0  0  0  0  0  0  0  0  0  0  0
   25.8640  -18.9518  -10.2399 O   0  0  0  0  0  0  0  0  0  0  0  0
   23.3435  -21.1684  -17.9256 N   0  0  0  0  0  0  0  0  0  0  0  0
   22.7603  -21.7990  -16.8054 C   0  0  0  0  0  0  0  0  0  0  0  0
   22.3411  -23.0160  -16.9399 N   0  0  0  0  0  0  0  0  0  0  0  0
   22.6176  -21.1549  -15.5528 N   0  0  0  0  0  0  0  0  0  0  0  0
   23.0446  -19.7947  -15.3091 C   0  0  0  0  0  0  0  0  0  0  0  0
   22.7871  -19.4756  -13.8555 C   0  0  0  0  0  0  0  0  0  0  0  0
   23.7263  -20.1666  -12.9287 C   0  0  0  0  0  0  0  0  0  0  0  0
   23.5785  -19.8462  -11.4836 C   0  0  2  0  0  0  0  0  0  0  0  0
   24.5129  -20.7168  -10.7481 N   0  0  0  0  0  0  0  0  0  0  0  0
   22.2120  -20.1459  -10.9441 C   0  0  0  0  0  0  0  0  0  0  0  0
   21.1576  -19.2591  -11.0784 O   0  0  0  0  0  0  0  0  0  0  0  0
   21.9466  -21.2254  -10.3365 O   0  0  0  0  0  0  0  0  0  0  0  0
  2  1  1  0
  3  2  2  0
  4  3  1  0
  5 11  1  0
  5  4  2  0
  6  5  1  0
  7  6  1  0
  7  8  1  6
  9  7  1  0
  9 18  1  0
 10  9  2  0
 11 12  2  0
 12  2  1  0
 13 14  1  0
 15 14  1  0
 16 15  1  0
 17 18  1  0
 17 16  1  1
 19 17  1  0
 20 19  2  0
 21 22  1  0
 22 23  2  0
 24 22  1  0
 24 25  1  0
 25 26  1  0
 27 26  1  0
 28 27  1  6
 28 29  1  0
 28 30  1  0
 29 19  1  0
 30 31  1  0
 32 30  2  0
M  END
$$$$
