GVH.pdb
     RDKit          3D

 22 22  0  0  1  0  0  0  0  0999 V2000
   13.6790  -11.1464    3.0252 N   0  0  0  0  0  0  0  0  0  0  0  0
   14.3150  -11.4122    4.2877 C   0  0  0  0  0  0  0  0  0  0  0  0
   15.3915  -12.4533    4.1089 C   0  0  0  0  0  0  0  0  0  0  0  0
   15.5658  -12.9404    2.9914 O   0  0  0  0  0  0  0  0  0  0  0  0
   18.4144  -12.3578    7.1720 C   0  0  0  0  0  0  0  0  0  0  0  0
   18.5565  -12.9530    5.7952 C   0  0  2  0  0  0  0  0  0  0  0  0
   18.9045  -11.8248    4.8516 C   0  0  0  0  0  0  0  0  0  0  0  0
   17.2764  -13.6348    5.4015 C   0  0  2  0  0  0  0  0  0  0  0  0
   16.1380  -12.8130    5.2219 N   0  0  0  0  0  0  0  0  0  0  0  0
   17.0167  -14.9118    6.0880 C   0  0  0  0  0  0  0  0  0  0  0  0
   16.1586  -14.9370    7.0020 O   0  0  0  0  0  0  0  0  0  0  0  0
   17.6568  -16.1163    5.8002 N   0  0  0  0  0  0  0  0  0  0  0  0
   17.4278  -17.3770    6.4709 C   0  0  1  0  0  0  0  0  0  0  0  0
   17.6642  -18.5702    5.6691 C   0  0  0  0  0  0  0  0  0  0  0  0
   16.6129  -18.7820    4.6556 C   0  0  0  0  0  0  0  0  0  0  0  0
   15.4522  -18.0602    4.4117 C   0  0  0  0  0  0  0  0  0  0  0  0
   14.7491  -18.6210    3.4121 N   0  0  0  0  0  0  0  0  0  0  0  0
   15.4361  -19.6995    3.0010 C   0  0  0  0  0  0  0  0  0  0  0  0
   16.5348  -19.7942    3.7343 N   0  0  0  0  0  0  0  0  0  0  0  0
   18.2387  -17.3642    7.6841 C   0  0  0  0  0  0  0  0  0  0  0  0
   18.0380  -18.2848    8.6821 O   0  0  0  0  0  0  0  0  0  0  0  0
   19.1330  -16.5066    7.8364 O   0  0  0  0  0  0  0  0  0  0  0  0
  2  1  1  0
  3  9  1  0
  3  2  1  0
  4  3  2  0
  6  5  1  1
  6  8  1  0
  7  6  1  0
  8  9  1  1
  8 10  1  0
 10 12  1  0
 10 11  2  0
 12 13  1  0
 13 14  1  6
 14 15  1  0
 15 16  2  0
 17 16  1  0
 18 17  1  0
 19 18  2  0
 19 15  1  0
 20 13  1  0
 20 21  1  0
 22 20  2  0
M  END
$$$$
