GVH.pdb
     RDKit          3D

 22 22  0  0  1  0  0  0  0  0999 V2000
   28.0812  -19.3386  -16.9481 N   0  0  0  0  0  0  0  0  0  0  0  0
   27.3460  -18.7667  -15.8521 C   0  0  0  0  0  0  0  0  0  0  0  0
   26.3810  -19.7843  -15.2971 C   0  0  0  0  0  0  0  0  0  0  0  0
   26.0011  -20.7008  -16.0266 O   0  0  0  0  0  0  0  0  0  0  0  0
   27.0361  -21.1396  -11.7969 C   0  0  0  0  0  0  0  0  0  0  0  0
   25.6030  -20.6770  -11.7496 C   0  0  2  0  0  0  0  0  0  0  0  0
   24.7993  -21.7710  -11.0853 C   0  0  0  0  0  0  0  0  0  0  0  0
   25.1143  -20.3927  -13.1420 C   0  0  2  0  0  0  0  0  0  0  0  0
   25.9662  -19.6356  -13.9814 N   0  0  0  0  0  0  0  0  0  0  0  0
   23.6847  -20.0518  -13.2405 C   0  0  0  0  0  0  0  0  0  0  0  0
   23.2910  -18.9700  -12.7436 O   0  0  0  0  0  0  0  0  0  0  0  0
   22.7160  -20.8461  -13.8521 N   0  0  0  0  0  0  0  0  0  0  0  0
   21.3062  -20.5380  -13.9469 C   0  0  1  0  0  0  0  0  0  0  0  0
   20.8029  -20.2931  -15.2920 C   0  0  0  0  0  0  0  0  0  0  0  0
   21.3861  -19.0800  -15.8966 C   0  0  0  0  0  0  0  0  0  0  0  0
   22.4089  -18.9515  -16.8266 C   0  0  0  0  0  0  0  0  0  0  0  0
   22.6558  -17.6543  -17.0802 N   0  0  0  0  0  0  0  0  0  0  0  0
   21.8074  -16.9349  -16.3273 C   0  0  0  0  0  0  0  0  0  0  0  0
   21.0590  -17.7757  -15.6296 N   0  0  0  0  0  0  0  0  0  0  0  0
   20.5904  -21.6237  -13.2847 C   0  0  0  0  0  0  0  0  0  0  0  0
   19.3354  -21.4324  -12.7628 O   0  0  0  0  0  0  0  0  0  0  0  0
   21.1136  -22.7521  -13.1786 O   0  0  0  0  0  0  0  0  0  0  0  0
  2  1  1  0
  3  9  1  0
  3  2  1  0
  4  3  2  0
  6  5  1  6
  6  8  1  0
  7  6  1  0
  8  9  1  1
  8 10  1  0
 10 12  1  0
 10 11  2  0
 12 13  1  0
 13 14  1  6
 14 15  1  0
 15 16  2  0
 17 16  1  0
 18 17  1  0
 19 18  2  0
 19 15  1  0
 20 13  1  0
 20 21  1  0
 22 20  2  0
M  END
$$$$
