GVH.pdb
     RDKit          3D

 22 22  0  0  1  0  0  0  0  0999 V2000
   26.0006  -33.8689  -13.2223 N   0  0  0  0  0  0  0  0  0  0  0  0
   25.7496  -34.5136  -11.9612 C   0  0  0  0  0  0  0  0  0  0  0  0
   26.3908  -33.7247  -10.8470 C   0  0  0  0  0  0  0  0  0  0  0  0
   27.0695  -32.7378  -11.1335 O   0  0  0  0  0  0  0  0  0  0  0  0
   24.4979  -32.0017   -8.4763 C   0  0  0  0  0  0  0  0  0  0  0  0
   25.1951  -32.9898   -7.5776 C   0  0  2  0  0  0  0  0  0  0  0  0
   25.5777  -32.2553   -6.3134 C   0  0  0  0  0  0  0  0  0  0  0  0
   26.3975  -33.5553   -8.2798 C   0  0  2  0  0  0  0  0  0  0  0  0
   26.1822  -34.1541   -9.5442 N   0  0  0  0  0  0  0  0  0  0  0  0
   27.3456  -34.2707   -7.4088 C   0  0  0  0  0  0  0  0  0  0  0  0
   27.0638  -35.4379   -7.0474 O   0  0  0  0  0  0  0  0  0  0  0  0
   28.5522  -33.7486   -6.9451 N   0  0  0  0  0  0  0  0  0  0  0  0
   29.4950  -34.4315   -6.0871 C   0  0  1  0  0  0  0  0  0  0  0  0
   30.7921  -33.7858   -5.9351 C   0  0  0  0  0  0  0  0  0  0  0  0
   31.7535  -34.6262   -5.1958 C   0  0  0  0  0  0  0  0  0  0  0  0
   31.5778  -35.8685   -4.6014 C   0  0  0  0  0  0  0  0  0  0  0  0
   32.7100  -36.2654   -3.9940 N   0  0  0  0  0  0  0  0  0  0  0  0
   33.6218  -35.2977   -4.1843 C   0  0  0  0  0  0  0  0  0  0  0  0
   33.0577  -34.3314   -4.8928 N   0  0  0  0  0  0  0  0  0  0  0  0
   28.8305  -34.6321   -4.8034 C   0  0  0  0  0  0  0  0  0  0  0  0
   28.7814  -35.8712   -4.2152 O   0  0  0  0  0  0  0  0  0  0  0  0
   28.2889  -33.6726   -4.2165 O   0  0  0  0  0  0  0  0  0  0  0  0
  2  1  1  0
  3  9  1  0
  3  2  1  0
  4  3  2  0
  6  5  1  6
  6  8  1  0
  7  6  1  0
  8  9  1  6
  8 10  1  0
 10 12  1  0
 10 11  2  0
 12 13  1  0
 13 14  1  1
 14 15  1  0
 15 16  2  0
 17 16  1  0
 18 17  1  0
 19 18  2  0
 19 15  1  0
 20 13  1  0
 20 21  1  0
 22 20  2  0
M  END
$$$$
