GVH.pdb
     RDKit          3D

 22 22  0  0  1  0  0  0  0  0999 V2000
   28.1939  -18.6346  -17.4084 N   0  0  0  0  0  0  0  0  0  0  0  0
   26.8329  -18.6868  -17.8709 C   0  0  0  0  0  0  0  0  0  0  0  0
   25.9115  -18.1341  -16.8124 C   0  0  0  0  0  0  0  0  0  0  0  0
   26.3107  -17.2110  -16.1017 O   0  0  0  0  0  0  0  0  0  0  0  0
   21.7785  -18.0978  -17.7193 C   0  0  0  0  0  0  0  0  0  0  0  0
   22.5376  -17.3816  -16.6326 C   0  0  2  0  0  0  0  0  0  0  0  0
   23.2623  -16.2236  -17.2788 C   0  0  0  0  0  0  0  0  0  0  0  0
   23.4902  -18.3337  -15.9657 C   0  0  2  0  0  0  0  0  0  0  0  0
   24.6496  -18.6983  -16.6913 N   0  0  0  0  0  0  0  0  0  0  0  0
   22.8507  -19.4350  -15.2256 C   0  0  0  0  0  0  0  0  0  0  0  0
   22.7249  -20.5455  -15.7941 O   0  0  0  0  0  0  0  0  0  0  0  0
   22.3657  -19.3435  -13.9218 N   0  0  0  0  0  0  0  0  0  0  0  0
   21.8155  -20.4328  -13.1458 C   0  0  1  0  0  0  0  0  0  0  0  0
   22.1794  -20.4492  -11.7351 C   0  0  0  0  0  0  0  0  0  0  0  0
   23.6187  -20.7018  -11.5303 C   0  0  0  0  0  0  0  0  0  0  0  0
   24.6147  -20.9814  -12.4562 C   0  0  0  0  0  0  0  0  0  0  0  0
   25.7910  -21.1841  -11.8371 N   0  0  0  0  0  0  0  0  0  0  0  0
   25.5750  -21.0406  -10.5192 C   0  0  0  0  0  0  0  0  0  0  0  0
   24.2942  -20.7563  -10.3386 N   0  0  0  0  0  0  0  0  0  0  0  0
   20.3691  -20.4000  -13.3368 C   0  0  0  0  0  0  0  0  0  0  0  0
   19.5766  -21.4481  -12.9403 O   0  0  0  0  0  0  0  0  0  0  0  0
   19.8254  -19.4115  -13.8713 O   0  0  0  0  0  0  0  0  0  0  0  0
  2  1  1  0
  3  9  1  0
  3  2  1  0
  4  3  2  0
  6  5  1  6
  6  8  1  0
  7  6  1  0
  8  9  1  6
  8 10  1  0
 10 12  1  0
 10 11  2  0
 12 13  1  0
 13 14  1  1
 14 15  1  0
 15 16  2  0
 17 16  1  0
 18 17  1  0
 19 18  2  0
 19 15  1  0
 20 13  1  0
 20 21  1  0
 22 20  2  0
M  END
$$$$
