GVH.pdb
     RDKit          3D

 22 22  0  0  1  0  0  0  0  0999 V2000
   23.6658  -10.3309  -16.7427 N   0  0  0  0  0  0  0  0  0  0  0  0
   22.7085   -9.3390  -17.1534 C   0  0  0  0  0  0  0  0  0  0  0  0
   21.9129   -8.8713  -15.9605 C   0  0  0  0  0  0  0  0  0  0  0  0
   21.6686   -9.6738  -15.0589 O   0  0  0  0  0  0  0  0  0  0  0  0
   22.6405   -5.6585  -14.0351 C   0  0  0  0  0  0  0  0  0  0  0  0
   21.2501   -5.4736  -14.5854 C   0  0  2  0  0  0  0  0  0  0  0  0
   20.4099   -4.8627  -13.4878 C   0  0  0  0  0  0  0  0  0  0  0  0
   20.7016   -6.7982  -15.0363 C   0  0  2  0  0  0  0  0  0  0  0  0
   21.4924   -7.5492  -15.9386 N   0  0  0  0  0  0  0  0  0  0  0  0
   19.2570   -6.8064  -15.3236 C   0  0  0  0  0  0  0  0  0  0  0  0
   18.8629   -6.3603  -16.4272 O   0  0  0  0  0  0  0  0  0  0  0  0
   18.2739   -7.2781  -14.4549 N   0  0  0  0  0  0  0  0  0  0  0  0
   16.8558   -7.3334  -14.7326 C   0  0  1  0  0  0  0  0  0  0  0  0
   16.1325   -8.4321  -14.1063 C   0  0  0  0  0  0  0  0  0  0  0  0
   16.3412   -9.7130  -14.8084 C   0  0  0  0  0  0  0  0  0  0  0  0
   17.0701   -9.9911  -15.9569 C   0  0  0  0  0  0  0  0  0  0  0  0
   16.9648  -11.2923  -16.2790 N   0  0  0  0  0  0  0  0  0  0  0  0
   16.1763  -11.8666  -15.3556 C   0  0  0  0  0  0  0  0  0  0  0  0
   15.8087  -10.9353  -14.4888 N   0  0  0  0  0  0  0  0  0  0  0  0
   16.3017   -6.0343  -14.3649 C   0  0  0  0  0  0  0  0  0  0  0  0
   15.1575   -5.5577  -14.9544 O   0  0  0  0  0  0  0  0  0  0  0  0
   16.8661   -5.3286  -13.5035 O   0  0  0  0  0  0  0  0  0  0  0  0
  2  1  1  0
  3  9  1  0
  3  2  1  0
  4  3  2  0
  6  5  1  1
  6  8  1  0
  7  6  1  0
  8  9  1  6
  8 10  1  0
 10 12  1  0
 10 11  2  0
 12 13  1  0
 13 14  1  1
 14 15  1  0
 15 16  2  0
 17 16  1  0
 18 17  1  0
 19 18  2  0
 19 15  1  0
 20 13  1  0
 20 21  1  0
 22 20  2  0
M  END
$$$$
