GVH.pdb
     RDKit          3D

 22 22  0  0  1  0  0  0  0  0999 V2000
   13.3256  -25.7666    9.1361 N   0  0  0  0  0  0  0  0  0  0  0  0
   14.4471  -25.6394    8.2445 C   0  0  0  0  0  0  0  0  0  0  0  0
   15.7340  -25.7896    9.0167 C   0  0  0  0  0  0  0  0  0  0  0  0
   15.7031  -25.6978   10.2444 O   0  0  0  0  0  0  0  0  0  0  0  0
   18.0811  -28.6770    8.5080 C   0  0  0  0  0  0  0  0  0  0  0  0
   18.9206  -27.4715    8.1734 C   0  0  2  0  0  0  0  0  0  0  0  0
   20.2747  -27.6752    8.8130 C   0  0  0  0  0  0  0  0  0  0  0  0
   18.2467  -26.2267    8.6783 C   0  0  2  0  0  0  0  0  0  0  0  0
   16.8978  -26.0257    8.2991 N   0  0  0  0  0  0  0  0  0  0  0  0
   19.0838  -25.0150    8.6558 C   0  0  0  0  0  0  0  0  0  0  0  0
   19.5537  -24.6316    7.5583 O   0  0  0  0  0  0  0  0  0  0  0  0
   19.4020  -24.2448    9.7735 N   0  0  0  0  0  0  0  0  0  0  0  0
   20.2571  -23.0786    9.7812 C   0  0  1  0  0  0  0  0  0  0  0  0
   19.9114  -22.0492   10.7525 C   0  0  0  0  0  0  0  0  0  0  0  0
   18.7295  -21.2663   10.3431 C   0  0  0  0  0  0  0  0  0  0  0  0
   17.9825  -21.3261    9.1743 C   0  0  0  0  0  0  0  0  0  0  0  0
   17.0046  -20.4033    9.1917 N   0  0  0  0  0  0  0  0  0  0  0  0
   17.1044  -19.7422   10.3566 C   0  0  0  0  0  0  0  0  0  0  0  0
   18.1214  -20.2511   11.0352 N   0  0  0  0  0  0  0  0  0  0  0  0
   21.6245  -23.5576    9.9557 C   0  0  0  0  0  0  0  0  0  0  0  0
   21.8857  -24.8789   10.2200 O   0  0  0  0  0  0  0  0  0  0  0  0
   22.5861  -22.7662    9.8699 O   0  0  0  0  0  0  0  0  0  0  0  0
  2  1  1  0
  3  9  1  0
  3  2  1  0
  4  3  2  0
  6  5  1  1
  6  8  1  0
  7  6  1  0
  8  9  1  6
  8 10  1  0
 10 12  1  0
 10 11  2  0
 12 13  1  0
 13 14  1  1
 14 15  1  0
 15 16  2  0
 17 16  1  0
 18 17  1  0
 19 18  2  0
 19 15  1  0
 20 13  1  0
 20 21  1  0
 22 20  2  0
M  END
$$$$
