GVH.pdb
     RDKit          3D

 22 22  0  0  1  0  0  0  0  0999 V2000
   17.9587  -14.7258  -17.2127 N   0  0  0  0  0  0  0  0  0  0  0  0
   18.0439  -13.3166  -17.4884 C   0  0  0  0  0  0  0  0  0  0  0  0
   19.1162  -12.6917  -16.6314 C   0  0  0  0  0  0  0  0  0  0  0  0
   19.5987  -13.3515  -15.7103 O   0  0  0  0  0  0  0  0  0  0  0  0
   21.5113   -9.6010  -18.4018 C   0  0  0  0  0  0  0  0  0  0  0  0
   21.7632  -10.3569  -17.1231 C   0  0  2  0  0  0  0  0  0  0  0  0
   22.3675  -11.6897  -17.5005 C   0  0  0  0  0  0  0  0  0  0  0  0
   20.4744  -10.5225  -16.3680 C   0  0  2  0  0  0  0  0  0  0  0  0
   19.5085  -11.3938  -16.9261 N   0  0  0  0  0  0  0  0  0  0  0  0
   19.9296   -9.2819  -15.7904 C   0  0  0  0  0  0  0  0  0  0  0  0
   19.0790   -8.6375  -16.4488 O   0  0  0  0  0  0  0  0  0  0  0  0
   20.2871   -8.7558  -14.5499 N   0  0  0  0  0  0  0  0  0  0  0  0
   19.7532   -7.5495  -13.9573 C   0  0  1  0  0  0  0  0  0  0  0  0
   19.5496   -7.5917  -12.5153 C   0  0  0  0  0  0  0  0  0  0  0  0
   18.4441   -8.4904  -12.1313 C   0  0  0  0  0  0  0  0  0  0  0  0
   17.6337   -9.2942  -12.9218 C   0  0  0  0  0  0  0  0  0  0  0  0
   16.7178   -9.9273  -12.1679 N   0  0  0  0  0  0  0  0  0  0  0  0
   16.9201   -9.5465  -10.8958 C   0  0  0  0  0  0  0  0  0  0  0  0
   17.9378   -8.6994  -10.8745 N   0  0  0  0  0  0  0  0  0  0  0  0
   20.6362   -6.4571  -14.3529 C   0  0  0  0  0  0  0  0  0  0  0  0
   20.2651   -5.1467  -14.1822 O   0  0  0  0  0  0  0  0  0  0  0  0
   21.7510   -6.6989  -14.8601 O   0  0  0  0  0  0  0  0  0  0  0  0
  2  1  1  0
  3  9  1  0
  3  2  1  0
  4  3  2  0
  6  5  1  6
  6  8  1  0
  7  6  1  0
  8  9  1  6
  8 10  1  0
 10 12  1  0
 10 11  2  0
 12 13  1  0
 13 14  1  1
 14 15  1  0
 15 16  2  0
 17 16  1  0
 18 17  1  0
 19 18  2  0
 19 15  1  0
 20 13  1  0
 20 21  1  0
 22 20  2  0
M  END
$$$$
