GVH.pdb
     RDKit          3D

 22 22  0  0  1  0  0  0  0  0999 V2000
   24.2270  -15.3224  -18.7360 N   0  0  0  0  0  0  0  0  0  0  0  0
   24.5684  -13.9631  -19.0599 C   0  0  0  0  0  0  0  0  0  0  0  0
   24.3454  -13.0795  -17.8581 C   0  0  0  0  0  0  0  0  0  0  0  0
   23.6503  -13.5008  -16.9330 O   0  0  0  0  0  0  0  0  0  0  0  0
   27.0406  -11.3437  -15.8865 C   0  0  0  0  0  0  0  0  0  0  0  0
   26.2244  -10.2139  -16.4589 C   0  0  2  0  0  0  0  0  0  0  0  0
   26.0483   -9.1871  -15.3641 C   0  0  0  0  0  0  0  0  0  0  0  0
   24.9043  -10.7382  -16.9497 C   0  0  2  0  0  0  0  0  0  0  0  0
   24.9397  -11.8257  -17.8550 N   0  0  0  0  0  0  0  0  0  0  0  0
   23.9032   -9.7040  -17.2623 C   0  0  0  0  0  0  0  0  0  0  0  0
   24.0698   -8.9986  -18.2855 O   0  0  0  0  0  0  0  0  0  0  0  0
   22.7650   -9.4403  -16.5018 N   0  0  0  0  0  0  0  0  0  0  0  0
   21.7795   -8.4192  -16.7806 C   0  0  1  0  0  0  0  0  0  0  0  0
   20.4830   -8.6025  -16.1417 C   0  0  0  0  0  0  0  0  0  0  0  0
   19.4877   -7.6141  -16.5996 C   0  0  0  0  0  0  0  0  0  0  0  0
   19.2810   -7.0777  -17.8634 C   0  0  0  0  0  0  0  0  0  0  0  0
   18.2860   -6.1737  -17.8352 N   0  0  0  0  0  0  0  0  0  0  0  0
   17.8411   -6.1134  -16.5693 C   0  0  0  0  0  0  0  0  0  0  0  0
   18.5498   -6.9626  -15.8410 N   0  0  0  0  0  0  0  0  0  0  0  0
   22.3857   -7.1390  -16.4295 C   0  0  0  0  0  0  0  0  0  0  0  0
   22.8963   -6.9153  -15.1753 O   0  0  0  0  0  0  0  0  0  0  0  0
   22.4472   -6.2183  -17.2703 O   0  0  0  0  0  0  0  0  0  0  0  0
  2  1  1  0
  3  9  1  0
  3  2  1  0
  4  3  2  0
  6  5  1  1
  6  8  1  0
  7  6  1  0
  8  9  1  6
  8 10  1  0
 10 12  1  0
 10 11  2  0
 12 13  1  0
 13 14  1  1
 14 15  1  0
 15 16  2  0
 17 16  1  0
 18 17  1  0
 19 18  2  0
 19 15  1  0
 20 13  1  0
 20 21  1  0
 22 20  2  0
M  END
$$$$
