GVH.pdb
     RDKit          3D

 22 22  0  0  1  0  0  0  0  0999 V2000
   17.3895  -14.5009  -16.5224 N   0  0  0  0  0  0  0  0  0  0  0  0
   17.5743  -13.1578  -17.0027 C   0  0  0  0  0  0  0  0  0  0  0  0
   18.8200  -12.5638  -16.3940 C   0  0  0  0  0  0  0  0  0  0  0  0
   19.3670  -13.1578  -15.4642 O   0  0  0  0  0  0  0  0  0  0  0  0
   22.0452  -11.5918  -17.8824 C   0  0  0  0  0  0  0  0  0  0  0  0
   21.4455  -10.2642  -17.4979 C   0  0  2  0  0  0  0  0  0  0  0  0
   22.5527   -9.4274  -16.8994 C   0  0  0  0  0  0  0  0  0  0  0  0
   20.3195  -10.4774  -16.5256 C   0  0  2  0  0  0  0  0  0  0  0  0
   19.2911  -11.3680  -16.9166 N   0  0  0  0  0  0  0  0  0  0  0  0
   19.8569   -9.2613  -15.8354 C   0  0  0  0  0  0  0  0  0  0  0  0
   19.1012   -8.4731  -16.4518 O   0  0  0  0  0  0  0  0  0  0  0  0
   20.1949   -8.9080  -14.5298 N   0  0  0  0  0  0  0  0  0  0  0  0
   19.7103   -7.7478  -13.8153 C   0  0  1  0  0  0  0  0  0  0  0  0
   19.5744   -7.9062  -12.3734 C   0  0  0  0  0  0  0  0  0  0  0  0
   18.3663   -8.6687  -12.0045 C   0  0  0  0  0  0  0  0  0  0  0  0
   17.3596   -9.1865  -12.8083 C   0  0  0  0  0  0  0  0  0  0  0  0
   16.4170   -9.7839  -12.0580 N   0  0  0  0  0  0  0  0  0  0  0  0
   16.7959   -9.6622  -10.7752 C   0  0  0  0  0  0  0  0  0  0  0  0
   17.9450   -9.0047  -10.7439 N   0  0  0  0  0  0  0  0  0  0  0  0
   20.5922   -6.6382  -14.1626 C   0  0  0  0  0  0  0  0  0  0  0  0
   21.8200   -6.8592  -14.7350 O   0  0  0  0  0  0  0  0  0  0  0  0
   20.2425   -5.4606  -13.9399 O   0  0  0  0  0  0  0  0  0  0  0  0
  2  1  1  0
  3  9  1  0
  3  2  1  0
  4  3  2  0
  6  5  1  1
  6  8  1  0
  7  6  1  0
  8  9  1  6
  8 10  1  0
 10 12  1  0
 10 11  2  0
 12 13  1  0
 13 14  1  1
 14 15  1  0
 15 16  2  0
 17 16  1  0
 18 17  1  0
 19 18  2  0
 19 15  1  0
 20 13  1  0
 20 21  1  0
 22 20  2  0
M  END
$$$$
