GVH.pdb
     RDKit          3D

 22 22  0  0  1  0  0  0  0  0999 V2000
   18.2862  -10.9481    3.1217 N   0  0  0  0  0  0  0  0  0  0  0  0
   16.9844  -11.4684    3.4436 C   0  0  0  0  0  0  0  0  0  0  0  0
   17.0204  -12.1355    4.7958 C   0  0  0  0  0  0  0  0  0  0  0  0
   18.0982  -12.2244    5.3848 O   0  0  0  0  0  0  0  0  0  0  0  0
   14.9068  -11.0866    7.6225 C   0  0  0  0  0  0  0  0  0  0  0  0
   14.4667  -12.5094    7.3945 C   0  0  2  0  0  0  0  0  0  0  0  0
   14.3170  -13.1565    8.7520 C   0  0  0  0  0  0  0  0  0  0  0  0
   15.4786  -13.2245    6.5441 C   0  0  2  0  0  0  0  0  0  0  0  0
   15.8272  -12.6198    5.3126 N   0  0  0  0  0  0  0  0  0  0  0  0
   15.3235  -14.6883    6.4936 C   0  0  0  0  0  0  0  0  0  0  0  0
   14.4289  -15.1712    5.7596 O   0  0  0  0  0  0  0  0  0  0  0  0
   16.1035  -15.5978    7.2065 N   0  0  0  0  0  0  0  0  0  0  0  0
   15.9549  -17.0361    7.1877 C   0  0  1  0  0  0  0  0  0  0  0  0
   16.9206  -17.7595    6.3711 C   0  0  0  0  0  0  0  0  0  0  0  0
   16.5275  -17.8087    4.9497 C   0  0  0  0  0  0  0  0  0  0  0  0
   15.5613  -18.5807    4.3187 C   0  0  0  0  0  0  0  0  0  0  0  0
   15.5555  -18.3407    2.9957 N   0  0  0  0  0  0  0  0  0  0  0  0
   16.5057  -17.4223    2.7555 C   0  0  0  0  0  0  0  0  0  0  0  0
   17.0786  -17.1088    3.9076 N   0  0  0  0  0  0  0  0  0  0  0  0
   15.9720  -17.4814    8.5774 C   0  0  0  0  0  0  0  0  0  0  0  0
   15.6672  -18.7773    8.9116 O   0  0  0  0  0  0  0  0  0  0  0  0
   16.2633  -16.6834    9.4922 O   0  0  0  0  0  0  0  0  0  0  0  0
  2  1  1  0
  3  9  1  0
  3  2  1  0
  4  3  2  0
  6  5  1  1
  6  8  1  0
  7  6  1  0
  8  9  1  6
  8 10  1  0
 10 12  1  0
 10 11  2  0
 12 13  1  0
 13 14  1  6
 14 15  1  0
 15 16  2  0
 17 16  1  0
 18 17  1  0
 19 18  2  0
 19 15  1  0
 20 13  1  0
 20 21  1  0
 22 20  2  0
M  END
$$$$
