GVH.pdb
     RDKit          3D

 22 22  0  0  1  0  0  0  0  0999 V2000
   18.9621  -14.7696  -16.7602 N   0  0  0  0  0  0  0  0  0  0  0  0
   18.6826  -13.8740  -15.6699 C   0  0  0  0  0  0  0  0  0  0  0  0
   18.6929  -12.4487  -16.1633 C   0  0  0  0  0  0  0  0  0  0  0  0
   19.3309  -12.1781  -17.1812 O   0  0  0  0  0  0  0  0  0  0  0  0
   15.5930  -10.2516  -16.7889 C   0  0  0  0  0  0  0  0  0  0  0  0
   16.3213   -9.6550  -15.6125 C   0  0  2  0  0  0  0  0  0  0  0  0
   16.2197   -8.1522  -15.7363 C   0  0  0  0  0  0  0  0  0  0  0  0
   17.7506  -10.1193  -15.6108 C   0  0  2  0  0  0  0  0  0  0  0  0
   17.9770  -11.5060  -15.4394 N   0  0  0  0  0  0  0  0  0  0  0  0
   18.6866   -9.2442  -14.8845 C   0  0  0  0  0  0  0  0  0  0  0  0
   18.7384   -9.3284  -13.6345 O   0  0  0  0  0  0  0  0  0  0  0  0
   19.5355   -8.3138  -15.4824 N   0  0  0  0  0  0  0  0  0  0  0  0
   20.5725   -7.5617  -14.8115 C   0  0  1  0  0  0  0  0  0  0  0  0
   21.9328   -8.0416  -15.0162 C   0  0  0  0  0  0  0  0  0  0  0  0
   22.2893   -8.1233  -16.4457 C   0  0  0  0  0  0  0  0  0  0  0  0
   21.5498   -7.7795  -17.5694 C   0  0  0  0  0  0  0  0  0  0  0  0
   22.2411   -8.0510  -18.6903 N   0  0  0  0  0  0  0  0  0  0  0  0
   23.4218   -8.5677  -18.3123 C   0  0  0  0  0  0  0  0  0  0  0  0
   23.4500   -8.6103  -16.9889 N   0  0  0  0  0  0  0  0  0  0  0  0
   20.4169   -6.1693  -15.2199 C   0  0  0  0  0  0  0  0  0  0  0  0
   21.1231   -5.1658  -14.6051 O   0  0  0  0  0  0  0  0  0  0  0  0
   19.6300   -5.8659  -16.1404 O   0  0  0  0  0  0  0  0  0  0  0  0
  2  1  1  0
  3  9  1  0
  3  2  1  0
  4  3  2  0
  6  5  1  6
  6  8  1  0
  7  6  1  0
  8  9  1  1
  8 10  1  0
 10 12  1  0
 10 11  2  0
 12 13  1  0
 13 14  1  6
 14 15  1  0
 15 16  2  0
 17 16  1  0
 18 17  1  0
 19 18  2  0
 19 15  1  0
 20 13  1  0
 20 21  1  0
 22 20  2  0
M  END
$$$$
