GVH.pdb
     RDKit          3D

 22 22  0  0  1  0  0  0  0  0999 V2000
   35.0796  -26.4675  -19.0209 N   0  0  0  0  0  0  0  0  0  0  0  0
   35.1088  -27.8766  -18.7338 C   0  0  0  0  0  0  0  0  0  0  0  0
   33.8148  -28.5150  -19.1732 C   0  0  0  0  0  0  0  0  0  0  0  0
   32.9324  -27.7999  -19.6493 O   0  0  0  0  0  0  0  0  0  0  0  0
   33.2409  -30.9391  -21.7745 C   0  0  0  0  0  0  0  0  0  0  0  0
   32.9777  -31.7390  -20.5251 C   0  0  2  0  0  0  0  0  0  0  0  0
   31.8197  -32.6644  -20.8195 C   0  0  0  0  0  0  0  0  0  0  0  0
   32.6741  -30.8115  -19.3822 C   0  0  2  0  0  0  0  0  0  0  0  0
   33.6823  -29.8873  -19.0176 N   0  0  0  0  0  0  0  0  0  0  0  0
   31.9642  -31.4324  -18.2508 C   0  0  0  0  0  0  0  0  0  0  0  0
   32.5537  -32.3174  -17.5864 O   0  0  0  0  0  0  0  0  0  0  0  0
   30.6681  -31.1113  -17.8498 N   0  0  0  0  0  0  0  0  0  0  0  0
   29.9397  -31.7331  -16.7662 C   0  0  1  0  0  0  0  0  0  0  0  0
   28.6494  -31.1357  -16.4488 C   0  0  0  0  0  0  0  0  0  0  0  0
   27.9521  -31.8515  -15.3632 C   0  0  0  0  0  0  0  0  0  0  0  0
   28.3334  -32.9815  -14.6523 C   0  0  0  0  0  0  0  0  0  0  0  0
   27.3802  -33.3275  -13.7694 N   0  0  0  0  0  0  0  0  0  0  0  0
   26.3817  -32.4380  -13.8954 C   0  0  0  0  0  0  0  0  0  0  0  0
   26.7191  -31.5679  -14.8351 N   0  0  0  0  0  0  0  0  0  0  0  0
   29.8201  -33.1499  -17.0949 C   0  0  0  0  0  0  0  0  0  0  0  0
   30.2915  -34.1185  -16.2444 O   0  0  0  0  0  0  0  0  0  0  0  0
   29.2856  -33.5064  -18.1653 O   0  0  0  0  0  0  0  0  0  0  0  0
  2  1  1  0
  3  9  1  0
  3  2  1  0
  4  3  2  0
  6  5  1  6
  6  8  1  0
  7  6  1  0
  8  9  1  1
  8 10  1  0
 10 12  1  0
 10 11  2  0
 12 13  1  0
 13 14  1  6
 14 15  1  0
 15 16  2  0
 17 16  1  0
 18 17  1  0
 19 18  2  0
 19 15  1  0
 20 13  1  0
 20 21  1  0
 22 20  2  0
M  END
$$$$
