WSL.pdb
     RDKit          3D

 29 30  0  0  1  0  0  0  0  0999 V2000
   24.8349  -20.8287   -8.8125 N   0  0  0  0  0  0  0  0  0  0  0  0
   26.1805  -20.5002   -9.1849 C   0  0  1  0  0  0  0  0  0  0  0  0
   27.1568  -21.2339   -8.3268 C   0  0  0  0  0  0  0  0  0  0  0  0
   26.9359  -20.8765   -6.9093 C   0  0  0  0  0  0  0  0  0  0  0  0
   25.8054  -21.2142   -6.1721 C   0  0  0  0  0  0  0  0  0  0  0  0
   25.9656  -20.7579   -4.9183 N   0  0  0  0  0  0  0  0  0  0  0  0
   27.1745  -20.1367   -4.8444 C   0  0  0  0  0  0  0  0  0  0  0  0
   27.8029  -19.5014   -3.7969 C   0  0  0  0  0  0  0  0  0  0  0  0
   29.0410  -18.9266   -3.9607 C   0  0  0  0  0  0  0  0  0  0  0  0
   29.6500  -18.9980   -5.2073 C   0  0  0  0  0  0  0  0  0  0  0  0
   29.0451  -19.6269   -6.2718 C   0  0  0  0  0  0  0  0  0  0  0  0
   27.8042  -20.1986   -6.0887 C   0  0  0  0  0  0  0  0  0  0  0  0
   26.3805  -20.8720  -10.6268 C   0  0  0  0  0  0  0  0  0  0  0  0
   27.2905  -21.6801  -10.9056 O   0  0  0  0  0  0  0  0  0  0  0  0
   23.5946  -21.0401  -13.5584 O   0  0  0  0  0  0  0  0  0  0  0  0
   24.9006  -21.5060  -13.6900 C   0  0  0  0  0  0  0  0  0  0  0  0
   25.8878  -20.5693  -13.0188 C   0  0  2  0  0  0  0  0  0  0  0  0
   25.5633  -20.3251  -11.6508 N   0  0  0  0  0  0  0  0  0  0  0  0
   25.9249  -19.2987  -13.8194 C   0  0  0  0  0  0  0  0  0  0  0  0
   25.1563  -18.3914  -13.4833 O   0  0  0  0  0  0  0  0  0  0  0  0
   29.6085  -16.5748  -18.0044 C   0  0  0  0  0  0  0  0  0  0  0  0
   28.3213  -16.5329  -17.1790 C   0  0  2  0  0  0  0  0  0  0  0  0
   28.2595  -15.2327  -16.4576 C   0  0  0  0  0  0  0  0  0  0  0  0
   28.2470  -17.7465  -16.3111 C   0  0  0  0  0  0  0  0  0  0  0  0
   26.9030  -17.8793  -15.6795 C   0  0  2  0  0  0  0  0  0  0  0  0
   26.7929  -19.1193  -14.9169 N   0  0  0  0  0  0  0  0  0  0  0  0
   25.8526  -17.8781  -16.7111 C   0  0  0  0  0  0  0  0  0  0  0  0
   25.3408  -19.1307  -17.1160 O   0  0  0  0  0  0  0  0  0  0  0  0
   25.3497  -16.9014  -17.2815 O   0  0  0  0  0  0  0  0  0  0  0  0
  2  1  1  1
  2  3  1  0
  2 13  1  0
  3  4  1  0
  4 12  1  0
  5  4  2  0
  5  6  1  0
  6  7  1  0
  7  8  1  0
  8  9  2  0
 10  9  1  0
 11 10  2  0
 12  7  2  0
 12 11  1  0
 13 18  1  0
 13 14  2  0
 16 15  1  0
 17 16  1  6
 18 17  1  0
 19 17  1  0
 19 20  2  0
 22 21  1  1
 23 22  1  0
 25 24  1  6
 24 22  1  0
 25 26  1  0
 26 19  1  0
 27 25  1  0
 28 27  1  0
 29 27  2  0
M  END
$$$$
