WSL.pdb
     RDKit          3D

 29 30  0  0  1  0  0  0  0  0999 V2000
   24.0351  -21.8912  -15.0349 N   0  0  0  0  0  0  0  0  0  0  0  0
   23.8389  -21.6055  -13.6430 C   0  0  1  0  0  0  0  0  0  0  0  0
   22.7786  -22.4863  -13.0706 C   0  0  0  0  0  0  0  0  0  0  0  0
   21.4904  -21.7610  -13.0504 C   0  0  0  0  0  0  0  0  0  0  0  0
   20.4446  -21.9752  -13.9424 C   0  0  0  0  0  0  0  0  0  0  0  0
   19.4257  -21.1678  -13.6022 N   0  0  0  0  0  0  0  0  0  0  0  0
   19.8034  -20.4447  -12.5125 C   0  0  0  0  0  0  0  0  0  0  0  0
   19.1351  -19.4830  -11.7886 C   0  0  0  0  0  0  0  0  0  0  0  0
   19.7304  -18.8693  -10.7119 C   0  0  0  0  0  0  0  0  0  0  0  0
   21.0243  -19.2378  -10.3655 C   0  0  0  0  0  0  0  0  0  0  0  0
   21.7159  -20.1962  -11.0712 C   0  0  0  0  0  0  0  0  0  0  0  0
   21.1025  -20.8017  -12.1470 C   0  0  0  0  0  0  0  0  0  0  0  0
   25.1384  -21.8282  -12.9227 C   0  0  0  0  0  0  0  0  0  0  0  0
   25.7807  -22.8686  -13.1753 O   0  0  0  0  0  0  0  0  0  0  0  0
   27.3897  -18.7764  -11.5893 O   0  0  0  0  0  0  0  0  0  0  0  0
   27.9182  -20.0589  -11.7149 C   0  0  0  0  0  0  0  0  0  0  0  0
   26.8910  -21.1141  -11.3495 C   0  0  2  0  0  0  0  0  0  0  0  0
   25.6304  -20.8884  -11.9792 N   0  0  0  0  0  0  0  0  0  0  0  0
   26.7717  -21.1331   -9.8521 C   0  0  0  0  0  0  0  0  0  0  0  0
   25.6333  -21.1470   -9.3718 O   0  0  0  0  0  0  0  0  0  0  0  0
   30.5212  -20.4805   -4.9177 C   0  0  0  0  0  0  0  0  0  0  0  0
   29.1157  -20.7337   -5.4658 C   0  0  2  0  0  0  0  0  0  0  0  0
   28.4965  -21.8460   -4.6951 C   0  0  0  0  0  0  0  0  0  0  0  0
   29.1884  -20.9459   -6.9428 C   0  0  0  0  0  0  0  0  0  0  0  0
   27.8278  -20.9927   -7.5507 C   0  0  2  0  0  0  0  0  0  0  0  0
   27.8975  -21.1355   -9.0019 N   0  0  0  0  0  0  0  0  0  0  0  0
   27.0898  -19.7562   -7.2445 C   0  0  0  0  0  0  0  0  0  0  0  0
   26.1600  -19.8027   -6.1823 O   0  0  0  0  0  0  0  0  0  0  0  0
   27.1802  -18.6584   -7.8092 O   0  0  0  0  0  0  0  0  0  0  0  0
  2  1  1  6
  2  3  1  0
  2 13  1  0
  3  4  1  0
  4 12  1  0
  5  4  2  0
  5  6  1  0
  6  7  1  0
  7  8  1  0
  8  9  2  0
 10  9  1  0
 11 10  2  0
 12  7  2  0
 12 11  1  0
 13 18  1  0
 13 14  2  0
 16 15  1  0
 17 16  1  1
 18 17  1  0
 19 17  1  0
 19 20  2  0
 22 21  1  1
 23 22  1  0
 25 24  1  6
 24 22  1  0
 25 26  1  0
 26 19  1  0
 27 25  1  0
 28 27  1  0
 29 27  2  0
M  END
$$$$
