WSL.pdb
     RDKit          3D

 29 30  0  0  1  0  0  0  0  0999 V2000
   25.8481  -19.8441  -15.2889 N   0  0  0  0  0  0  0  0  0  0  0  0
   26.0794  -20.7824  -14.2290 C   0  0  1  0  0  0  0  0  0  0  0  0
   27.4295  -21.4044  -14.3637 C   0  0  0  0  0  0  0  0  0  0  0  0
   27.4904  -22.1887  -15.6155 C   0  0  0  0  0  0  0  0  0  0  0  0
   28.4105  -21.9817  -16.6382 C   0  0  0  0  0  0  0  0  0  0  0  0
   28.1915  -22.8977  -17.5967 N   0  0  0  0  0  0  0  0  0  0  0  0
   27.1505  -23.6819  -17.2038 C   0  0  0  0  0  0  0  0  0  0  0  0
   26.5356  -24.7468  -17.8232 C   0  0  0  0  0  0  0  0  0  0  0  0
   25.4757  -25.3918  -17.2309 C   0  0  0  0  0  0  0  0  0  0  0  0
   25.0336  -24.9483  -15.9908 C   0  0  0  0  0  0  0  0  0  0  0  0
   25.6296  -23.8866  -15.3487 C   0  0  0  0  0  0  0  0  0  0  0  0
   26.6918  -23.2528  -15.9572 C   0  0  0  0  0  0  0  0  0  0  0  0
   25.9749  -20.0562  -12.9180 C   0  0  0  0  0  0  0  0  0  0  0  0
   26.6536  -19.0197  -12.7634 O   0  0  0  0  0  0  0  0  0  0  0  0
   23.1671  -21.0929   -9.9356 O   0  0  0  0  0  0  0  0  0  0  0  0
   23.6954  -19.8076  -10.0306 C   0  0  0  0  0  0  0  0  0  0  0  0
   25.0876  -19.8297  -10.6337 C   0  0  2  0  0  0  0  0  0  0  0  0
   25.1314  -20.5275  -11.8778 N   0  0  0  0  0  0  0  0  0  0  0  0
   26.0129  -20.4387   -9.6190 C   0  0  0  0  0  0  0  0  0  0  0  0
   26.2254  -21.6534   -9.6989 O   0  0  0  0  0  0  0  0  0  0  0  0
   29.3591  -18.6755   -4.7543 C   0  0  0  0  0  0  0  0  0  0  0  0
   29.0361  -19.8194   -5.7171 C   0  0  2  0  0  0  0  0  0  0  0  0
   30.2838  -20.5856   -5.9832 C   0  0  0  0  0  0  0  0  0  0  0  0
   28.3543  -19.2725   -6.9287 C   0  0  0  0  0  0  0  0  0  0  0  0
   27.3853  -20.2542   -7.4943 C   0  0  2  0  0  0  0  0  0  0  0  0
   26.6299  -19.6787   -8.6031 N   0  0  0  0  0  0  0  0  0  0  0  0
   26.4299  -20.6820   -6.4590 C   0  0  0  0  0  0  0  0  0  0  0  0
   26.8353  -21.7214   -5.5929 O   0  0  0  0  0  0  0  0  0  0  0  0
   25.2938  -20.2396   -6.2450 O   0  0  0  0  0  0  0  0  0  0  0  0
  2  1  1  6
  2  3  1  0
  2 13  1  0
  3  4  1  0
  4 12  1  0
  5  4  2  0
  5  6  1  0
  6  7  1  0
  7  8  1  0
  8  9  2  0
 10  9  1  0
 11 10  2  0
 12  7  2  0
 12 11  1  0
 13 18  1  0
 13 14  2  0
 16 15  1  0
 17 16  1  1
 18 17  1  0
 19 17  1  0
 19 20  2  0
 22 21  1  1
 23 22  1  0
 25 24  1  1
 24 22  1  0
 25 26  1  0
 26 19  1  0
 27 25  1  0
 28 27  1  0
 29 27  2  0
M  END
$$$$
