WSL.pdb
     RDKit          3D

 29 30  0  0  1  0  0  0  0  0999 V2000
   28.1594  -21.7455  -14.3368 N   0  0  0  0  0  0  0  0  0  0  0  0
   26.9946  -21.7107  -13.5006 C   0  0  1  0  0  0  0  0  0  0  0  0
   26.9382  -20.4329  -12.7315 C   0  0  0  0  0  0  0  0  0  0  0  0
   27.8189  -20.5286  -11.5478 C   0  0  0  0  0  0  0  0  0  0  0  0
   29.2085  -20.5758  -11.5937 C   0  0  0  0  0  0  0  0  0  0  0  0
   29.6725  -20.6240  -10.3334 N   0  0  0  0  0  0  0  0  0  0  0  0
   28.6057  -20.6089   -9.4880 C   0  0  0  0  0  0  0  0  0  0  0  0
   28.5398  -20.6497   -8.1134 C   0  0  0  0  0  0  0  0  0  0  0  0
   27.3280  -20.6338   -7.4641 C   0  0  0  0  0  0  0  0  0  0  0  0
   26.1656  -20.5760   -8.2226 C   0  0  0  0  0  0  0  0  0  0  0  0
   26.2018  -20.5341   -9.5980 C   0  0  0  0  0  0  0  0  0  0  0  0
   27.4259  -20.5496  -10.2317 C   0  0  0  0  0  0  0  0  0  0  0  0
   25.7779  -21.8417  -14.3722 C   0  0  0  0  0  0  0  0  0  0  0  0
   25.7033  -21.1235  -15.3908 O   0  0  0  0  0  0  0  0  0  0  0  0
   23.3182  -25.0843  -13.8845 O   0  0  0  0  0  0  0  0  0  0  0  0
   23.3534  -24.4626  -15.1304 C   0  0  0  0  0  0  0  0  0  0  0  0
   23.6934  -22.9897  -14.9994 C   0  0  2  0  0  0  0  0  0  0  0  0
   24.7367  -22.7533  -14.0549 N   0  0  0  0  0  0  0  0  0  0  0  0
   22.4313  -22.2630  -14.6308 C   0  0  0  0  0  0  0  0  0  0  0  0
   21.3940  -22.5900  -15.2174 O   0  0  0  0  0  0  0  0  0  0  0  0
   21.0080  -21.8653  -10.7110 C   0  0  0  0  0  0  0  0  0  0  0  0
   21.9563  -20.6883  -10.9459 C   0  0  2  0  0  0  0  0  0  0  0  0
   22.2462  -20.0409   -9.6376 C   0  0  0  0  0  0  0  0  0  0  0  0
   21.3813  -19.7865  -11.9888 C   0  0  0  0  0  0  0  0  0  0  0  0
   21.1988  -20.5031  -13.2835 C   0  0  2  0  0  0  0  0  0  0  0  0
   22.4007  -21.2430  -13.6567 N   0  0  0  0  0  0  0  0  0  0  0  0
   20.8959  -19.5441  -14.3587 C   0  0  0  0  0  0  0  0  0  0  0  0
   21.9307  -19.2478  -15.2732 O   0  0  0  0  0  0  0  0  0  0  0  0
   19.8298  -18.9514  -14.5693 O   0  0  0  0  0  0  0  0  0  0  0  0
  2  1  1  6
  2  3  1  0
  2 13  1  0
  3  4  1  0
  4 12  1  0
  5  4  2  0
  5  6  1  0
  6  7  1  0
  7  8  1  0
  8  9  2  0
 10  9  1  0
 11 10  2  0
 12  7  2  0
 12 11  1  0
 13 18  1  0
 13 14  2  0
 16 15  1  0
 17 16  1  1
 18 17  1  0
 19 17  1  0
 19 20  2  0
 22 21  1  1
 23 22  1  0
 25 24  1  1
 24 22  1  0
 25 26  1  0
 26 19  1  0
 27 25  1  0
 28 27  1  0
 29 27  2  0
M  END
$$$$
