WSL.pdb
     RDKit          3D

 29 30  0  0  1  0  0  0  0  0999 V2000
   23.0787  -20.1058  -13.8874 N   0  0  0  0  0  0  0  0  0  0  0  0
   21.8672  -19.9322  -13.1397 C   0  0  1  0  0  0  0  0  0  0  0  0
   20.6759  -20.1138  -14.0204 C   0  0  0  0  0  0  0  0  0  0  0  0
   20.5633  -18.9645  -14.9437 C   0  0  0  0  0  0  0  0  0  0  0  0
   20.9223  -18.9875  -16.2875 C   0  0  0  0  0  0  0  0  0  0  0  0
   20.6507  -17.7835  -16.8190 N   0  0  0  0  0  0  0  0  0  0  0  0
   20.1271  -16.9961  -15.8398 C   0  0  0  0  0  0  0  0  0  0  0  0
   19.6964  -15.6886  -15.8635 C   0  0  0  0  0  0  0  0  0  0  0  0
   19.2054  -15.0866  -14.7292 C   0  0  0  0  0  0  0  0  0  0  0  0
   19.1514  -15.8237  -13.5529 C   0  0  0  0  0  0  0  0  0  0  0  0
   19.5749  -17.1324  -13.5003 C   0  0  0  0  0  0  0  0  0  0  0  0
   20.0631  -17.7199  -14.6479 C   0  0  0  0  0  0  0  0  0  0  0  0
   21.8444  -20.9419  -12.0273 C   0  0  0  0  0  0  0  0  0  0  0  0
   22.4094  -22.0391  -12.2166 O   0  0  0  0  0  0  0  0  0  0  0  0
   20.9906  -19.8205   -8.1489 O   0  0  0  0  0  0  0  0  0  0  0  0
   21.7284  -20.9701   -8.4213 C   0  0  0  0  0  0  0  0  0  0  0  0
   21.2875  -21.6092   -9.7250 C   0  0  2  0  0  0  0  0  0  0  0  0
   21.2010  -20.6658  -10.7923 N   0  0  0  0  0  0  0  0  0  0  0  0
   19.9727  -22.2913   -9.4748 C   0  0  0  0  0  0  0  0  0  0  0  0
   18.9454  -21.6224   -9.6306 O   0  0  0  0  0  0  0  0  0  0  0  0
   17.8026  -27.9313   -7.9319 C   0  0  0  0  0  0  0  0  0  0  0  0
   17.5300  -26.4699   -8.2924 C   0  0  2  0  0  0  0  0  0  0  0  0
   16.5192  -26.4285   -9.3838 C   0  0  0  0  0  0  0  0  0  0  0  0
   18.8215  -25.7827   -8.5944 C   0  0  0  0  0  0  0  0  0  0  0  0
   18.6344  -24.3089   -8.7196 C   0  0  2  0  0  0  0  0  0  0  0  0
   19.8829  -23.6418   -9.0769 N   0  0  0  0  0  0  0  0  0  0  0  0
   18.1594  -23.7452   -7.4451 C   0  0  0  0  0  0  0  0  0  0  0  0
   19.1124  -23.5752   -6.4166 O   0  0  0  0  0  0  0  0  0  0  0  0
   17.0092  -23.3939   -7.1521 O   0  0  0  0  0  0  0  0  0  0  0  0
  2  1  1  6
  2  3  1  0
  2 13  1  0
  3  4  1  0
  4 12  1  0
  5  4  2  0
  5  6  1  0
  6  7  1  0
  7  8  1  0
  8  9  2  0
 10  9  1  0
 11 10  2  0
 12  7  2  0
 12 11  1  0
 13 18  1  0
 13 14  2  0
 16 15  1  0
 17 16  1  1
 18 17  1  0
 19 17  1  0
 19 20  2  0
 22 21  1  6
 23 22  1  0
 25 24  1  1
 24 22  1  0
 25 26  1  0
 26 19  1  0
 27 25  1  0
 28 27  1  0
 29 27  2  0
M  END
$$$$
