WSL.pdb
     RDKit          3D

 29 30  0  0  1  0  0  0  0  0999 V2000
   27.1347  -22.5517  -12.6354 N   0  0  0  0  0  0  0  0  0  0  0  0
   26.2973  -21.5084  -12.1181 C   0  0  1  0  0  0  0  0  0  0  0  0
   27.0998  -20.2817  -11.8373 C   0  0  0  0  0  0  0  0  0  0  0  0
   28.0150  -20.5376  -10.7046 C   0  0  0  0  0  0  0  0  0  0  0  0
   29.2680  -21.1317  -10.8149 C   0  0  0  0  0  0  0  0  0  0  0  0
   29.8276  -21.1698   -9.5937 N   0  0  0  0  0  0  0  0  0  0  0  0
   28.9550  -20.6125   -8.7100 C   0  0  0  0  0  0  0  0  0  0  0  0
   29.0445  -20.4192   -7.3497 C   0  0  0  0  0  0  0  0  0  0  0  0
   28.0155  -19.8335   -6.6509 C   0  0  0  0  0  0  0  0  0  0  0  0
   26.8783  -19.4383   -7.3443 C   0  0  0  0  0  0  0  0  0  0  0  0
   26.7620  -19.6190   -8.7039 C   0  0  0  0  0  0  0  0  0  0  0  0
   27.8043  -20.2069   -9.3881 C   0  0  0  0  0  0  0  0  0  0  0  0
   25.2309  -21.2058  -13.1322 C   0  0  0  0  0  0  0  0  0  0  0  0
   25.5335  -21.2707  -14.3418 O   0  0  0  0  0  0  0  0  0  0  0  0
   21.7119  -22.3639  -15.2470 O   0  0  0  0  0  0  0  0  0  0  0  0
   22.7075  -22.3291  -14.2736 C   0  0  0  0  0  0  0  0  0  0  0  0
   22.8466  -20.9395  -13.6802 C   0  0  2  0  0  0  0  0  0  0  0  0
   23.9136  -20.8545  -12.7363 N   0  0  0  0  0  0  0  0  0  0  0  0
   21.5260  -20.5740  -13.0645 C   0  0  0  0  0  0  0  0  0  0  0  0
   21.2264  -21.1168  -11.9956 O   0  0  0  0  0  0  0  0  0  0  0  0
   19.5732  -16.7410  -11.9597 C   0  0  0  0  0  0  0  0  0  0  0  0
   19.5195  -16.9160  -13.4784 C   0  0  2  0  0  0  0  0  0  0  0  0
   19.0153  -15.6548  -14.0863 C   0  0  0  0  0  0  0  0  0  0  0  0
   18.7326  -18.1417  -13.8104 C   0  0  0  0  0  0  0  0  0  0  0  0
   19.3069  -19.3492  -13.1508 C   0  0  2  0  0  0  0  0  0  0  0  0
   20.6416  -19.6501  -13.6601 N   0  0  0  0  0  0  0  0  0  0  0  0
   18.4471  -20.5196  -13.3924 C   0  0  0  0  0  0  0  0  0  0  0  0
   17.3781  -20.7346  -12.4947 O   0  0  0  0  0  0  0  0  0  0  0  0
   18.5418  -21.3571  -14.2989 O   0  0  0  0  0  0  0  0  0  0  0  0
  2  1  1  6
  2  3  1  0
  2 13  1  0
  3  4  1  0
  4 12  1  0
  5  4  2  0
  5  6  1  0
  6  7  1  0
  7  8  1  0
  8  9  2  0
 10  9  1  0
 11 10  2  0
 12  7  2  0
 12 11  1  0
 13 18  1  0
 13 14  2  0
 16 15  1  0
 17 16  1  1
 18 17  1  0
 19 17  1  0
 19 20  2  0
 22 21  1  1
 23 22  1  0
 25 24  1  6
 24 22  1  0
 25 26  1  0
 26 19  1  0
 27 25  1  0
 28 27  1  0
 29 27  2  0
M  END
$$$$
