WSL.pdb
     RDKit          3D

 29 30  0  0  1  0  0  0  0  0999 V2000
   21.6207  -18.5856  -15.0080 N   0  0  0  0  0  0  0  0  0  0  0  0
   21.7242  -20.0143  -15.0807 C   0  0  1  0  0  0  0  0  0  0  0  0
   23.1556  -20.4367  -15.1005 C   0  0  0  0  0  0  0  0  0  0  0  0
   23.8170  -19.8875  -16.3034 C   0  0  0  0  0  0  0  0  0  0  0  0
   24.6686  -18.7874  -16.3088 C   0  0  0  0  0  0  0  0  0  0  0  0
   25.1085  -18.5987  -17.5644 N   0  0  0  0  0  0  0  0  0  0  0  0
   24.5532  -19.5562  -18.3567 C   0  0  0  0  0  0  0  0  0  0  0  0
   24.6742  -19.7953  -19.7072 C   0  0  0  0  0  0  0  0  0  0  0  0
   23.9984  -20.8338  -20.3033 C   0  0  0  0  0  0  0  0  0  0  0  0
   23.1874  -21.6412  -19.5159 C   0  0  0  0  0  0  0  0  0  0  0  0
   23.0481  -21.4254  -18.1635 C   0  0  0  0  0  0  0  0  0  0  0  0
   23.7342  -20.3802  -17.5829 C   0  0  0  0  0  0  0  0  0  0  0  0
   21.0292  -20.6041  -13.8864 C   0  0  0  0  0  0  0  0  0  0  0  0
   20.8137  -19.8629  -12.9052 O   0  0  0  0  0  0  0  0  0  0  0  0
   17.7782  -22.0598  -13.6663 O   0  0  0  0  0  0  0  0  0  0  0  0
   18.5708  -21.8667  -12.5374 C   0  0  0  0  0  0  0  0  0  0  0  0
   19.9460  -22.4813  -12.7206 C   0  0  2  0  0  0  0  0  0  0  0  0
   20.6254  -21.9650  -13.8644 N   0  0  0  0  0  0  0  0  0  0  0  0
   19.7710  -23.9712  -12.8003 C   0  0  0  0  0  0  0  0  0  0  0  0
   19.6422  -24.4700  -13.9235 O   0  0  0  0  0  0  0  0  0  0  0  0
   19.8066  -28.8977   -8.9994 C   0  0  0  0  0  0  0  0  0  0  0  0
   19.7862  -28.3507  -10.4278 C   0  0  2  0  0  0  0  0  0  0  0  0
   20.7809  -29.1020  -11.2406 C   0  0  0  0  0  0  0  0  0  0  0  0
   19.9785  -26.8695  -10.3960 C   0  0  0  0  0  0  0  0  0  0  0  0
   19.5870  -26.2447  -11.6919 C   0  0  2  0  0  0  0  0  0  0  0  0
   19.7506  -24.7945  -11.6550 N   0  0  0  0  0  0  0  0  0  0  0  0
   18.1773  -26.5416  -11.9957 C   0  0  0  0  0  0  0  0  0  0  0  0
   17.9106  -27.6844  -12.7817 O   0  0  0  0  0  0  0  0  0  0  0  0
   17.1748  -25.9060  -11.6445 O   0  0  0  0  0  0  0  0  0  0  0  0
  2  1  1  1
  2  3  1  0
  2 13  1  0
  3  4  1  0
  4 12  1  0
  5  4  2  0
  5  6  1  0
  6  7  1  0
  7  8  1  0
  8  9  2  0
 10  9  1  0
 11 10  2  0
 12  7  2  0
 12 11  1  0
 13 18  1  0
 13 14  2  0
 16 15  1  0
 17 16  1  6
 18 17  1  0
 19 17  1  0
 19 20  2  0
 22 21  1  1
 23 22  1  0
 25 24  1  1
 24 22  1  0
 25 26  1  0
 26 19  1  0
 27 25  1  0
 28 27  1  0
 29 27  2  0
M  END
$$$$
