WSL.pdb
     RDKit          3D

 29 30  0  0  1  0  0  0  0  0999 V2000
   24.9415  -19.2187  -10.1965 N   0  0  0  0  0  0  0  0  0  0  0  0
   26.1873  -19.8478  -10.5276 C   0  0  1  0  0  0  0  0  0  0  0  0
   26.3483  -21.1243   -9.7712 C   0  0  0  0  0  0  0  0  0  0  0  0
   26.3729  -20.8402   -8.3204 C   0  0  0  0  0  0  0  0  0  0  0  0
   25.2631  -20.8885   -7.4830 C   0  0  0  0  0  0  0  0  0  0  0  0
   25.6647  -20.6094   -6.2313 N   0  0  0  0  0  0  0  0  0  0  0  0
   27.0069  -20.3842   -6.2569 C   0  0  0  0  0  0  0  0  0  0  0  0
   27.8888  -20.0564   -5.2517 C   0  0  0  0  0  0  0  0  0  0  0  0
   29.2236  -19.8637   -5.5190 C   0  0  0  0  0  0  0  0  0  0  0  0
   29.6693  -20.0058   -6.8271 C   0  0  0  0  0  0  0  0  0  0  0  0
   28.8101  -20.3331   -7.8515 C   0  0  0  0  0  0  0  0  0  0  0  0
   27.4753  -20.5237   -7.5645 C   0  0  0  0  0  0  0  0  0  0  0  0
   26.2070  -20.1183  -12.0053 C   0  0  0  0  0  0  0  0  0  0  0  0
   25.2956  -20.8226  -12.4871 O   0  0  0  0  0  0  0  0  0  0  0  0
   29.3191  -18.7462  -14.1912 O   0  0  0  0  0  0  0  0  0  0  0  0
   28.2052  -18.9723  -14.9962 C   0  0  0  0  0  0  0  0  0  0  0  0
   27.1418  -19.7595  -14.2534 C   0  0  2  0  0  0  0  0  0  0  0  0
   27.2292  -19.5928  -12.8388 N   0  0  0  0  0  0  0  0  0  0  0  0
   27.2794  -21.2005  -14.6553 C   0  0  0  0  0  0  0  0  0  0  0  0
   27.8640  -21.9567  -13.8722 O   0  0  0  0  0  0  0  0  0  0  0  0
   23.1407  -24.6305  -14.3638 C   0  0  0  0  0  0  0  0  0  0  0  0
   24.4638  -24.5740  -15.1293 C   0  0  2  0  0  0  0  0  0  0  0  0
   25.3627  -25.6390  -14.6073 C   0  0  0  0  0  0  0  0  0  0  0  0
   25.0162  -23.1874  -15.0663 C   0  0  0  0  0  0  0  0  0  0  0  0
   26.1460  -23.0106  -16.0230 C   0  0  2  0  0  0  0  0  0  0  0  0
   26.7709  -21.6998  -15.8728 N   0  0  0  0  0  0  0  0  0  0  0  0
   25.6649  -23.1355  -17.4088 C   0  0  0  0  0  0  0  0  0  0  0  0
   26.2790  -24.1132  -18.2223 O   0  0  0  0  0  0  0  0  0  0  0  0
   24.7735  -22.4809  -17.9649 O   0  0  0  0  0  0  0  0  0  0  0  0
  2  1  1  1
  2  3  1  0
  2 13  1  0
  3  4  1  0
  4 12  1  0
  5  4  2  0
  5  6  1  0
  6  7  1  0
  7  8  1  0
  8  9  2  0
 10  9  1  0
 11 10  2  0
 12  7  2  0
 12 11  1  0
 13 18  1  0
 13 14  2  0
 16 15  1  0
 17 16  1  6
 18 17  1  0
 19 17  1  0
 19 20  2  0
 22 21  1  1
 23 22  1  0
 25 24  1  1
 24 22  1  0
 25 26  1  0
 26 19  1  0
 27 25  1  0
 28 27  1  0
 29 27  2  0
M  END
$$$$
