WSL.pdb
     RDKit          3D

 29 30  0  0  1  0  0  0  0  0999 V2000
   15.7375  -17.4878    3.8764 N   0  0  0  0  0  0  0  0  0  0  0  0
   16.0684  -18.6003    4.7191 C   0  0  1  0  0  0  0  0  0  0  0  0
   17.0227  -19.5167    4.0283 C   0  0  0  0  0  0  0  0  0  0  0  0
   16.2817  -20.3891    3.0925 C   0  0  0  0  0  0  0  0  0  0  0  0
   15.3747  -19.9404    2.1379 C   0  0  0  0  0  0  0  0  0  0  0  0
   14.9254  -21.0027    1.4483 N   0  0  0  0  0  0  0  0  0  0  0  0
   15.5281  -22.1171    1.9461 C   0  0  0  0  0  0  0  0  0  0  0  0
   15.4072  -23.4435    1.5974 C   0  0  0  0  0  0  0  0  0  0  0  0
   16.1206  -24.4150    2.2589 C   0  0  0  0  0  0  0  0  0  0  0  0
   16.9694  -24.0333    3.2904 C   0  0  0  0  0  0  0  0  0  0  0  0
   17.1100  -22.7148    3.6599 C   0  0  0  0  0  0  0  0  0  0  0  0
   16.3876  -21.7544    2.9845 C   0  0  0  0  0  0  0  0  0  0  0  0
   16.6838  -18.0738    5.9844 C   0  0  0  0  0  0  0  0  0  0  0  0
   17.0414  -16.8779    6.0118 O   0  0  0  0  0  0  0  0  0  0  0  0
   16.7594  -20.3282    9.5438 O   0  0  0  0  0  0  0  0  0  0  0  0
   16.7174  -18.9362    9.5658 C   0  0  0  0  0  0  0  0  0  0  0  0
   17.3736  -18.3476    8.3308 C   0  0  2  0  0  0  0  0  0  0  0  0
   16.8584  -18.9047    7.1222 N   0  0  0  0  0  0  0  0  0  0  0  0
   18.8551  -18.5619    8.4575 C   0  0  0  0  0  0  0  0  0  0  0  0
   19.3502  -19.5025    7.8274 O   0  0  0  0  0  0  0  0  0  0  0  0
   22.9731  -16.2295    8.0310 C   0  0  0  0  0  0  0  0  0  0  0  0
   21.9967  -15.7155    9.0903 C   0  0  2  0  0  0  0  0  0  0  0  0
   22.5167  -14.4324    9.6359 C   0  0  0  0  0  0  0  0  0  0  0  0
   21.7531  -16.7859   10.1036 C   0  0  0  0  0  0  0  0  0  0  0  0
   21.0965  -17.9747    9.4884 C   0  0  2  0  0  0  0  0  0  0  0  0
   19.6747  -17.7377    9.2569 N   0  0  0  0  0  0  0  0  0  0  0  0
   21.2305  -19.1451   10.3715 C   0  0  0  0  0  0  0  0  0  0  0  0
   22.3459  -19.9870   10.1667 O   0  0  0  0  0  0  0  0  0  0  0  0
   20.4765  -19.4941   11.2891 O   0  0  0  0  0  0  0  0  0  0  0  0
  2  1  1  6
  2  3  1  0
  2 13  1  0
  3  4  1  0
  4 12  1  0
  5  4  2  0
  5  6  1  0
  6  7  1  0
  7  8  1  0
  8  9  2  0
 10  9  1  0
 11 10  2  0
 12  7  2  0
 12 11  1  0
 13 18  1  0
 13 14  2  0
 16 15  1  0
 17 16  1  1
 18 17  1  0
 19 17  1  0
 19 20  2  0
 22 21  1  6
 23 22  1  0
 25 24  1  1
 24 22  1  0
 25 26  1  0
 26 19  1  0
 27 25  1  0
 28 27  1  0
 29 27  2  0
M  END
$$$$
