WSL.pdb
     RDKit          3D

 29 30  0  0  1  0  0  0  0  0999 V2000
   26.0001  -17.3356  -16.8451 N   0  0  0  0  0  0  0  0  0  0  0  0
   26.4856  -18.3462  -15.9505 C   0  0  1  0  0  0  0  0  0  0  0  0
   26.7396  -17.7711  -14.5969 C   0  0  0  0  0  0  0  0  0  0  0  0
   27.7521  -18.5878  -13.8942 C   0  0  0  0  0  0  0  0  0  0  0  0
   29.1102  -18.6007  -14.1953 C   0  0  0  0  0  0  0  0  0  0  0  0
   29.7272  -19.4268  -13.3335 N   0  0  0  0  0  0  0  0  0  0  0  0
   28.7885  -19.9393  -12.4915 C   0  0  0  0  0  0  0  0  0  0  0  0
   28.8992  -20.8292  -11.4468 C   0  0  0  0  0  0  0  0  0  0  0  0
   27.7920  -21.2181  -10.7306 C   0  0  0  0  0  0  0  0  0  0  0  0
   26.5534  -20.6954  -11.0811 C   0  0  0  0  0  0  0  0  0  0  0  0
   26.4135  -19.8041  -12.1206 C   0  0  0  0  0  0  0  0  0  0  0  0
   27.5350  -19.4246  -12.8267 C   0  0  0  0  0  0  0  0  0  0  0  0
   25.4578  -19.4384  -15.8619 C   0  0  0  0  0  0  0  0  0  0  0  0
   24.2594  -19.1105  -15.7388 O   0  0  0  0  0  0  0  0  0  0  0  0
   26.3906  -23.5394  -15.2862 O   0  0  0  0  0  0  0  0  0  0  0  0
   25.3645  -23.1983  -16.1640 C   0  0  0  0  0  0  0  0  0  0  0  0
   24.8195  -21.8151  -15.8603 C   0  0  2  0  0  0  0  0  0  0  0  0
   25.8288  -20.8078  -15.9151 N   0  0  0  0  0  0  0  0  0  0  0  0
   24.1603  -21.8724  -14.5116 C   0  0  0  0  0  0  0  0  0  0  0  0
   24.7395  -21.3187  -13.5709 O   0  0  0  0  0  0  0  0  0  0  0  0
   19.9711  -22.3345  -11.5032 C   0  0  0  0  0  0  0  0  0  0  0  0
   21.1234  -21.3708  -11.2144 C   0  0  2  0  0  0  0  0  0  0  0  0
   20.5570  -20.0774  -10.7443 C   0  0  0  0  0  0  0  0  0  0  0  0
   22.0083  -21.2795  -12.4145 C   0  0  0  0  0  0  0  0  0  0  0  0
   22.2707  -22.6264  -12.9976 C   0  0  2  0  0  0  0  0  0  0  0  0
   22.9283  -22.5254  -14.2970 N   0  0  0  0  0  0  0  0  0  0  0  0
   21.0065  -23.3594  -13.1769 C   0  0  0  0  0  0  0  0  0  0  0  0
   20.2909  -23.1338  -14.3735 O   0  0  0  0  0  0  0  0  0  0  0  0
   20.4785  -24.1642  -12.3986 O   0  0  0  0  0  0  0  0  0  0  0  0
  2  1  1  6
  2  3  1  0
  2 13  1  0
  3  4  1  0
  4 12  1  0
  5  4  2  0
  5  6  1  0
  6  7  1  0
  7  8  1  0
  8  9  2  0
 10  9  1  0
 11 10  2  0
 12  7  2  0
 12 11  1  0
 13 18  1  0
 13 14  2  0
 16 15  1  0
 17 16  1  1
 18 17  1  0
 19 17  1  0
 19 20  2  0
 22 21  1  6
 23 22  1  0
 25 24  1  6
 24 22  1  0
 25 26  1  0
 26 19  1  0
 27 25  1  0
 28 27  1  0
 29 27  2  0
M  END
$$$$
