WSL.pdb
     RDKit          3D

 29 30  0  0  1  0  0  0  0  0999 V2000
   24.4411  -18.7687  -10.6686 N   0  0  0  0  0  0  0  0  0  0  0  0
   24.9208  -19.7842  -11.5607 C   0  0  1  0  0  0  0  0  0  0  0  0
   25.0707  -21.0847  -10.8439 C   0  0  0  0  0  0  0  0  0  0  0  0
   26.2178  -21.0081   -9.9143 C   0  0  0  0  0  0  0  0  0  0  0  0
   26.1205  -20.7337   -8.5539 C   0  0  0  0  0  0  0  0  0  0  0  0
   27.3543  -20.7803   -8.0233 N   0  0  0  0  0  0  0  0  0  0  0  0
   28.2332  -21.0782   -9.0191 C   0  0  0  0  0  0  0  0  0  0  0  0
   29.6013  -21.2320   -9.0025 C   0  0  0  0  0  0  0  0  0  0  0  0
   30.2923  -21.5277  -10.1537 C   0  0  0  0  0  0  0  0  0  0  0  0
   29.5829  -21.6691  -11.3398 C   0  0  0  0  0  0  0  0  0  0  0  0
   28.2151  -21.5210  -11.3855 C   0  0  0  0  0  0  0  0  0  0  0  0
   27.5390  -21.2258  -10.2211 C   0  0  0  0  0  0  0  0  0  0  0  0
   23.9408  -19.9283  -12.6903 C   0  0  0  0  0  0  0  0  0  0  0  0
   22.7320  -19.7284  -12.4501 O   0  0  0  0  0  0  0  0  0  0  0  0
   25.1844  -21.2175  -16.4101 O   0  0  0  0  0  0  0  0  0  0  0  0
   24.1104  -20.3308  -16.4314 C   0  0  0  0  0  0  0  0  0  0  0  0
   23.4328  -20.2569  -15.0757 C   0  0  2  0  0  0  0  0  0  0  0  0
   24.3673  -20.2818  -13.9975 N   0  0  0  0  0  0  0  0  0  0  0  0
   22.4551  -21.3945  -14.9937 C   0  0  0  0  0  0  0  0  0  0  0  0
   22.8427  -22.4412  -14.4636 O   0  0  0  0  0  0  0  0  0  0  0  0
   17.0034  -22.7568  -13.2966 C   0  0  0  0  0  0  0  0  0  0  0  0
   18.1934  -23.2080  -14.1453 C   0  0  2  0  0  0  0  0  0  0  0  0
   18.8025  -24.4092  -13.5123 C   0  0  0  0  0  0  0  0  0  0  0  0
   19.1227  -22.0566  -14.3512 C   0  0  0  0  0  0  0  0  0  0  0  0
   20.1462  -22.3659  -15.3902 C   0  0  2  0  0  0  0  0  0  0  0  0
   21.1391  -21.3006  -15.4935 N   0  0  0  0  0  0  0  0  0  0  0  0
   19.5049  -22.5269  -16.7056 C   0  0  0  0  0  0  0  0  0  0  0  0
   19.2204  -23.8433  -17.1310 O   0  0  0  0  0  0  0  0  0  0  0  0
   19.1761  -21.6396  -17.5036 O   0  0  0  0  0  0  0  0  0  0  0  0
  2  1  1  1
  2  3  1  0
  2 13  1  0
  3  4  1  0
  4 12  1  0
  5  4  2  0
  5  6  1  0
  6  7  1  0
  7  8  1  0
  8  9  2  0
 10  9  1  0
 11 10  2  0
 12  7  2  0
 12 11  1  0
 13 18  1  0
 13 14  2  0
 16 15  1  0
 17 16  1  6
 18 17  1  0
 19 17  1  0
 19 20  2  0
 22 21  1  1
 23 22  1  0
 25 24  1  1
 24 22  1  0
 25 26  1  0
 26 19  1  0
 27 25  1  0
 28 27  1  0
 29 27  2  0
M  END
$$$$
