TWR.pdb
     RDKit          3D

 33 34  0  0  1  0  0  0  0  0999 V2000
    7.9382  -15.2702   16.5188 C   0  0  0  0  0  0  0  0  0  0  0  0
    8.3633  -15.2100   17.9744 C   0  0  1  0  0  0  0  0  0  0  0  0
    9.7789  -15.1485   18.0458 O   0  0  0  0  0  0  0  0  0  0  0  0
    7.7059  -14.1080   18.7516 C   0  0  2  0  0  0  0  0  0  0  0  0
    7.9881  -12.8521   18.0904 N   0  0  0  0  0  0  0  0  0  0  0  0
    8.1286  -14.0647   20.1751 C   0  0  0  0  0  0  0  0  0  0  0  0
    9.1786  -13.4817   20.4840 O   0  0  0  0  0  0  0  0  0  0  0  0
    7.3270  -14.6878   21.1772 N   0  0  0  0  0  0  0  0  0  0  0  0
    7.6745  -14.7646   22.5678 C   0  0  1  0  0  0  0  0  0  0  0  0
    6.5748  -15.2119   23.4972 C   0  0  0  0  0  0  0  0  0  0  0  0
    6.8265  -15.0225   24.9191 C   0  0  0  0  0  0  0  0  0  0  0  0
    7.1407  -15.9764   25.8394 C   0  0  0  0  0  0  0  0  0  0  0  0
    7.3164  -15.3824   27.0576 N   0  0  0  0  0  0  0  0  0  0  0  0
    7.1198  -14.0705   26.9209 C   0  0  0  0  0  0  0  0  0  0  0  0
    7.1673  -13.0317   27.8478 C   0  0  0  0  0  0  0  0  0  0  0  0
    6.9127  -11.7208   27.4932 C   0  0  0  0  0  0  0  0  0  0  0  0
    6.6053  -11.4841   26.1627 C   0  0  0  0  0  0  0  0  0  0  0  0
    6.5565  -12.5035   25.2435 C   0  0  0  0  0  0  0  0  0  0  0  0
    6.8140  -13.8078   25.6111 C   0  0  0  0  0  0  0  0  0  0  0  0
    8.7472  -15.8365   22.7457 C   0  0  0  0  0  0  0  0  0  0  0  0
    8.4954  -17.0017   22.3484 O   0  0  0  0  0  0  0  0  0  0  0  0
   16.5082  -17.0416   24.9849 N   0  0  0  0  0  0  0  0  0  0  0  0
   16.8157  -16.3707   23.7663 C   0  0  0  0  0  0  0  0  0  0  0  0
   18.0622  -16.2875   23.3227 N   0  0  0  0  0  0  0  0  0  0  0  0
   15.7954  -15.7543   22.9688 N   0  0  0  0  0  0  0  0  0  0  0  0
   14.7271  -16.4781   22.3714 C   0  0  0  0  0  0  0  0  0  0  0  0
   13.5342  -16.6885   23.2667 C   0  0  0  0  0  0  0  0  0  0  0  0
   12.3951  -15.7397   23.1038 C   0  0  0  0  0  0  0  0  0  0  0  0
   11.1021  -16.3180   23.6547 C   0  0  2  0  0  0  0  0  0  0  0  0
    9.9776  -15.5500   23.3356 N   0  0  0  0  0  0  0  0  0  0  0  0
   11.2528  -16.9949   24.9502 C   0  0  0  0  0  0  0  0  0  0  0  0
   10.4864  -16.8154   26.0414 O   0  0  0  0  0  0  0  0  0  0  0  0
   12.2193  -17.8428   25.0066 O   0  0  0  0  0  0  0  0  0  0  0  0
  2  1  1  6
  3  2  1  0
  4  5  1  6
  4  2  1  0
  6  4  1  0
  7  6  2  0
  8  6  1  0
  9 20  1  0
  9  8  1  0
  9 10  1  1
 11 10  1  0
 12 11  2  0
 13 14  1  0
 13 12  1  0
 14 19  2  0
 15 16  2  0
 15 14  1  0
 16 17  1  0
 17 18  2  0
 19 18  1  0
 19 11  1  0
 20 21  2  0
 23 22  1  0
 23 25  1  0
 24 23  2  0
 26 25  1  0
 26 27  1  0
 27 28  1  0
 29 28  1  1
 30 20  1  0
 30 29  1  0
 31 29  1  0
 31 32  1  0
 33 31  2  0
M  END
$$$$
