TWR.pdb
     RDKit          3D

 33 34  0  0  1  0  0  0  0  0999 V2000
    7.7475  -19.1297   20.5493 C   0  0  0  0  0  0  0  0  0  0  0  0
    6.5346  -18.2701   20.2441 C   0  0  1  0  0  0  0  0  0  0  0  0
    5.5226  -19.0784   19.6650 O   0  0  0  0  0  0  0  0  0  0  0  0
    6.0342  -17.4895   21.4234 C   0  0  2  0  0  0  0  0  0  0  0  0
    4.8065  -16.8246   21.0429 N   0  0  0  0  0  0  0  0  0  0  0  0
    7.0271  -16.5136   21.9419 C   0  0  0  0  0  0  0  0  0  0  0  0
    7.2695  -15.4846   21.2936 O   0  0  0  0  0  0  0  0  0  0  0  0
    7.6923  -16.7609   23.1793 N   0  0  0  0  0  0  0  0  0  0  0  0
    8.7372  -15.9395   23.7215 C   0  0  1  0  0  0  0  0  0  0  0  0
    8.7423  -15.7860   25.2214 C   0  0  0  0  0  0  0  0  0  0  0  0
    7.6270  -15.0411   25.7890 C   0  0  0  0  0  0  0  0  0  0  0  0
    6.3974  -15.5197   26.1275 C   0  0  0  0  0  0  0  0  0  0  0  0
    5.6477  -14.5011   26.6454 N   0  0  0  0  0  0  0  0  0  0  0  0
    6.3837  -13.3891   26.6404 C   0  0  0  0  0  0  0  0  0  0  0  0
    6.0898  -12.0895   27.0466 C   0  0  0  0  0  0  0  0  0  0  0  0
    7.0084  -11.0629   26.9405 C   0  0  0  0  0  0  0  0  0  0  0  0
    8.2458  -11.3872   26.4073 C   0  0  0  0  0  0  0  0  0  0  0  0
    8.5425  -12.6664   26.0046 C   0  0  0  0  0  0  0  0  0  0  0  0
    7.6160  -13.6822   26.1172 C   0  0  0  0  0  0  0  0  0  0  0  0
   10.0817  -16.6008   23.4280 C   0  0  0  0  0  0  0  0  0  0  0  0
   10.2328  -17.8074   23.7445 O   0  0  0  0  0  0  0  0  0  0  0  0
    7.8558  -13.7400   18.3376 N   0  0  0  0  0  0  0  0  0  0  0  0
    9.1895  -13.6568   17.8435 C   0  0  0  0  0  0  0  0  0  0  0  0
    9.4352  -13.3800   16.5705 N   0  0  0  0  0  0  0  0  0  0  0  0
   10.3223  -13.8710   18.6965 N   0  0  0  0  0  0  0  0  0  0  0  0
   10.6061  -15.1170   19.3202 C   0  0  0  0  0  0  0  0  0  0  0  0
   11.9136  -15.1613   20.0666 C   0  0  0  0  0  0  0  0  0  0  0  0
   12.2591  -16.4449   20.7428 C   0  0  0  0  0  0  0  0  0  0  0  0
   12.3432  -16.2777   22.2510 C   0  0  2  0  0  0  0  0  0  0  0  0
   11.1275  -15.8991   22.8298 N   0  0  0  0  0  0  0  0  0  0  0  0
   13.6359  -15.7653   22.7258 C   0  0  0  0  0  0  0  0  0  0  0  0
   13.8264  -14.7942   23.6373 O   0  0  0  0  0  0  0  0  0  0  0  0
   14.6659  -16.3311   22.2014 O   0  0  0  0  0  0  0  0  0  0  0  0
  2  1  1  1
  3  2  1  0
  4  5  1  6
  4  2  1  0
  6  4  1  0
  7  6  2  0
  8  6  1  0
  9 20  1  0
  9  8  1  0
  9 10  1  1
 11 10  1  0
 12 11  2  0
 13 14  1  0
 13 12  1  0
 14 19  2  0
 15 16  2  0
 15 14  1  0
 16 17  1  0
 17 18  2  0
 19 18  1  0
 19 11  1  0
 20 21  2  0
 23 22  1  0
 23 25  1  0
 24 23  2  0
 26 25  1  0
 26 27  1  0
 27 28  1  0
 29 28  1  6
 30 20  1  0
 30 29  1  0
 31 29  1  0
 31 32  1  0
 33 31  2  0
M  END
$$$$
