TWR.pdb
     RDKit          3D

 33 34  0  0  1  0  0  0  0  0999 V2000
    8.3467  -14.8705   16.3399 C   0  0  0  0  0  0  0  0  0  0  0  0
    8.5966  -14.9884   17.8322 C   0  0  1  0  0  0  0  0  0  0  0  0
    9.9607  -15.3093   18.0537 O   0  0  0  0  0  0  0  0  0  0  0  0
    8.1605  -13.7856   18.6154 C   0  0  2  0  0  0  0  0  0  0  0  0
    8.7200  -12.6064   17.9904 N   0  0  0  0  0  0  0  0  0  0  0  0
    8.5379  -13.8548   20.0506 C   0  0  0  0  0  0  0  0  0  0  0  0
    9.6857  -13.5378   20.3973 O   0  0  0  0  0  0  0  0  0  0  0  0
    7.5822  -14.2801   21.0205 N   0  0  0  0  0  0  0  0  0  0  0  0
    7.8683  -14.4823   22.4125 C   0  0  1  0  0  0  0  0  0  0  0  0
    6.6805  -14.7814   23.2917 C   0  0  0  0  0  0  0  0  0  0  0  0
    6.9215  -14.7289   24.7270 C   0  0  0  0  0  0  0  0  0  0  0  0
    7.1729  -15.7738   25.5640 C   0  0  0  0  0  0  0  0  0  0  0  0
    7.3618  -15.2971   26.8309 N   0  0  0  0  0  0  0  0  0  0  0  0
    7.2352  -13.9698   26.8067 C   0  0  0  0  0  0  0  0  0  0  0  0
    7.3232  -13.0187   27.8207 C   0  0  0  0  0  0  0  0  0  0  0  0
    7.1417  -11.6706   27.5788 C   0  0  0  0  0  0  0  0  0  0  0  0
    6.8659  -11.3041   26.2710 C   0  0  0  0  0  0  0  0  0  0  0  0
    6.7774  -12.2365   25.2663 C   0  0  0  0  0  0  0  0  0  0  0  0
    6.9619  -13.5794   25.5218 C   0  0  0  0  0  0  0  0  0  0  0  0
    8.7394  -15.7280   22.5572 C   0  0  0  0  0  0  0  0  0  0  0  0
    8.3594  -16.7877   21.9989 O   0  0  0  0  0  0  0  0  0  0  0  0
   15.1522  -13.8469   19.3569 N   0  0  0  0  0  0  0  0  0  0  0  0
   14.0830  -14.5879   18.7761 C   0  0  0  0  0  0  0  0  0  0  0  0
   13.9919  -14.7497   17.4634 N   0  0  0  0  0  0  0  0  0  0  0  0
   13.0588  -15.1875   19.5813 N   0  0  0  0  0  0  0  0  0  0  0  0
   13.2735  -15.6315   20.9151 C   0  0  0  0  0  0  0  0  0  0  0  0
   12.0598  -16.2240   21.5818 C   0  0  0  0  0  0  0  0  0  0  0  0
   12.1886  -16.5729   23.0261 C   0  0  0  0  0  0  0  0  0  0  0  0
   10.8296  -16.6980   23.6947 C   0  0  2  0  0  0  0  0  0  0  0  0
    9.9256  -15.7106   23.2896 N   0  0  0  0  0  0  0  0  0  0  0  0
   10.8851  -17.1975   25.0756 C   0  0  0  0  0  0  0  0  0  0  0  0
   10.1415  -16.7700   26.1122 O   0  0  0  0  0  0  0  0  0  0  0  0
   11.7350  -18.1432   25.2733 O   0  0  0  0  0  0  0  0  0  0  0  0
  2  1  1  6
  3  2  1  0
  4  5  1  6
  4  2  1  0
  6  4  1  0
  7  6  2  0
  8  6  1  0
  9 20  1  0
  9  8  1  0
  9 10  1  1
 11 10  1  0
 12 11  2  0
 13 14  1  0
 13 12  1  0
 14 19  2  0
 15 16  2  0
 15 14  1  0
 16 17  1  0
 17 18  2  0
 19 18  1  0
 19 11  1  0
 20 21  2  0
 23 22  1  0
 23 25  1  0
 24 23  2  0
 26 25  1  0
 26 27  1  0
 27 28  1  0
 29 28  1  1
 30 20  1  0
 30 29  1  0
 31 29  1  0
 31 32  1  0
 33 31  2  0
M  END
$$$$
