TWR.pdb
     RDKit          3D

 33 34  0  0  1  0  0  0  0  0999 V2000
    7.1764  -15.6006   16.4432 C   0  0  0  0  0  0  0  0  0  0  0  0
    7.7593  -15.6357   17.8440 C   0  0  1  0  0  0  0  0  0  0  0  0
    9.1108  -16.0621   17.7774 O   0  0  0  0  0  0  0  0  0  0  0  0
    7.6057  -14.3466   18.5957 C   0  0  2  0  0  0  0  0  0  0  0  0
    8.1810  -13.2832   17.8004 N   0  0  0  0  0  0  0  0  0  0  0  0
    8.2141  -14.3843   19.9505 C   0  0  0  0  0  0  0  0  0  0  0  0
    9.4194  -14.1264   20.0872 O   0  0  0  0  0  0  0  0  0  0  0  0
    7.4127  -14.7120   21.0842 N   0  0  0  0  0  0  0  0  0  0  0  0
    7.8783  -14.7016   22.4419 C   0  0  1  0  0  0  0  0  0  0  0  0
    6.8086  -14.7026   23.5045 C   0  0  0  0  0  0  0  0  0  0  0  0
    7.2668  -14.4830   24.8694 C   0  0  0  0  0  0  0  0  0  0  0  0
    7.6299  -15.4255   25.7834 C   0  0  0  0  0  0  0  0  0  0  0  0
    8.0161  -14.8040   26.9377 N   0  0  0  0  0  0  0  0  0  0  0  0
    7.9040  -13.4863   26.7668 C   0  0  0  0  0  0  0  0  0  0  0  0
    8.1579  -12.4219   27.6288 C   0  0  0  0  0  0  0  0  0  0  0  0
    7.9586  -11.1083   27.2499 C   0  0  0  0  0  0  0  0  0  0  0  0
    7.4908  -10.8955   25.9628 C   0  0  0  0  0  0  0  0  0  0  0  0
    7.2382  -11.9402   25.1076 C   0  0  0  0  0  0  0  0  0  0  0  0
    7.4426  -13.2470   25.4987 C   0  0  0  0  0  0  0  0  0  0  0  0
    8.6428  -15.9965   22.7070 C   0  0  0  0  0  0  0  0  0  0  0  0
    8.0201  -17.0841   22.6161 O   0  0  0  0  0  0  0  0  0  0  0  0
   15.5027  -13.2191   20.7201 N   0  0  0  0  0  0  0  0  0  0  0  0
   14.4554  -13.5871   19.8270 C   0  0  0  0  0  0  0  0  0  0  0  0
   14.1369  -12.8255   18.7896 N   0  0  0  0  0  0  0  0  0  0  0  0
   13.6988  -14.7915   20.0107 N   0  0  0  0  0  0  0  0  0  0  0  0
   13.7260  -15.5561   21.2093 C   0  0  0  0  0  0  0  0  0  0  0  0
   12.3758  -16.0244   21.6852 C   0  0  0  0  0  0  0  0  0  0  0  0
   12.3271  -16.6948   23.0166 C   0  0  0  0  0  0  0  0  0  0  0  0
   10.8979  -16.9826   23.4460 C   0  0  2  0  0  0  0  0  0  0  0  0
    9.9949  -15.9917   23.0471 N   0  0  0  0  0  0  0  0  0  0  0  0
   10.7884  -17.6755   24.7371 C   0  0  0  0  0  0  0  0  0  0  0  0
   10.6142  -17.1018   25.9415 O   0  0  0  0  0  0  0  0  0  0  0  0
   10.8627  -18.9584   24.6688 O   0  0  0  0  0  0  0  0  0  0  0  0
  2  1  1  6
  3  2  1  0
  4  5  1  6
  4  2  1  0
  6  4  1  0
  7  6  2  0
  8  6  1  0
  9 20  1  0
  9  8  1  0
  9 10  1  1
 11 10  1  0
 12 11  2  0
 13 14  1  0
 13 12  1  0
 14 19  2  0
 15 16  2  0
 15 14  1  0
 16 17  1  0
 17 18  2  0
 19 18  1  0
 19 11  1  0
 20 21  2  0
 23 22  1  0
 23 25  1  0
 24 23  2  0
 26 25  1  0
 26 27  1  0
 27 28  1  0
 29 28  1  1
 30 20  1  0
 30 29  1  0
 31 29  1  0
 31 32  1  0
 33 31  2  0
M  END
$$$$
