TWR.pdb
     RDKit          3D

 33 34  0  0  1  0  0  0  0  0999 V2000
    5.7431  -14.9016   19.1176 C   0  0  0  0  0  0  0  0  0  0  0  0
    6.5550  -14.6446   20.3738 C   0  0  1  0  0  0  0  0  0  0  0  0
    5.6751  -14.4947   21.4766 O   0  0  0  0  0  0  0  0  0  0  0  0
    7.6169  -15.6731   20.6287 C   0  0  2  0  0  0  0  0  0  0  0  0
    6.9710  -16.9437   20.8789 N   0  0  0  0  0  0  0  0  0  0  0  0
    8.5248  -15.3104   21.7472 C   0  0  0  0  0  0  0  0  0  0  0  0
    9.2165  -14.2843   21.6656 O   0  0  0  0  0  0  0  0  0  0  0  0
    8.5949  -16.1380   22.9071 N   0  0  0  0  0  0  0  0  0  0  0  0
    9.3722  -15.8388   24.0761 C   0  0  1  0  0  0  0  0  0  0  0  0
    8.6717  -16.0268   25.3979 C   0  0  0  0  0  0  0  0  0  0  0  0
    7.5491  -15.1357   25.6560 C   0  0  0  0  0  0  0  0  0  0  0  0
    6.2265  -15.4592   25.6968 C   0  0  0  0  0  0  0  0  0  0  0  0
    5.5004  -14.3387   25.9885 N   0  0  0  0  0  0  0  0  0  0  0  0
    6.3423  -13.3148   26.1334 C   0  0  0  0  0  0  0  0  0  0  0  0
    6.1155  -11.9707   26.4205 C   0  0  0  0  0  0  0  0  0  0  0  0
    7.1475  -11.0569   26.5142 C   0  0  0  0  0  0  0  0  0  0  0  0
    8.4293  -11.5418   26.3080 C   0  0  0  0  0  0  0  0  0  0  0  0
    8.6604  -12.8657   26.0245 C   0  0  0  0  0  0  0  0  0  0  0  0
    7.6205  -13.7675   25.9349 C   0  0  0  0  0  0  0  0  0  0  0  0
   10.5403  -16.8192   24.1511 C   0  0  0  0  0  0  0  0  0  0  0  0
   10.3239  -17.9683   24.6112 O   0  0  0  0  0  0  0  0  0  0  0  0
   15.2164  -13.5327   19.5369 N   0  0  0  0  0  0  0  0  0  0  0  0
   15.5742  -14.8979   19.3419 C   0  0  0  0  0  0  0  0  0  0  0  0
   16.8438  -15.2718   19.2645 N   0  0  0  0  0  0  0  0  0  0  0  0
   14.5813  -15.9253   19.2176 N   0  0  0  0  0  0  0  0  0  0  0  0
   13.5584  -16.1437   20.1809 C   0  0  0  0  0  0  0  0  0  0  0  0
   13.9397  -17.0773   21.2998 C   0  0  0  0  0  0  0  0  0  0  0  0
   14.0142  -16.4911   22.6692 C   0  0  0  0  0  0  0  0  0  0  0  0
   13.0311  -17.1578   23.6173 C   0  0  2  0  0  0  0  0  0  0  0  0
   11.8214  -16.4651   23.7298 N   0  0  0  0  0  0  0  0  0  0  0  0
   13.6638  -17.8305   24.7603 C   0  0  0  0  0  0  0  0  0  0  0  0
   13.6094  -17.4433   26.0477 O   0  0  0  0  0  0  0  0  0  0  0  0
   14.3195  -18.8971   24.4631 O   0  0  0  0  0  0  0  0  0  0  0  0
  2  1  1  6
  3  2  1  0
  4  5  1  1
  4  2  1  0
  6  4  1  0
  7  6  2  0
  8  6  1  0
  9 20  1  0
  9  8  1  0
  9 10  1  1
 11 10  1  0
 12 11  2  0
 13 14  1  0
 13 12  1  0
 14 19  2  0
 15 16  2  0
 15 14  1  0
 16 17  1  0
 17 18  2  0
 19 18  1  0
 19 11  1  0
 20 21  2  0
 23 22  1  0
 23 25  1  0
 24 23  2  0
 26 25  1  0
 26 27  1  0
 27 28  1  0
 29 28  1  1
 30 20  1  0
 30 29  1  0
 31 29  1  0
 31 32  1  0
 33 31  2  0
M  END
$$$$
