TWR.pdb
     RDKit          3D

 33 34  0  0  1  0  0  0  0  0999 V2000
    8.1524  -15.1121   16.4050 C   0  0  0  0  0  0  0  0  0  0  0  0
    8.5520  -15.1943   17.8668 C   0  0  1  0  0  0  0  0  0  0  0  0
    9.9337  -15.5034   17.9570 O   0  0  0  0  0  0  0  0  0  0  0  0
    8.1883  -13.9758   18.6628 C   0  0  2  0  0  0  0  0  0  0  0  0
    8.8121  -12.8249   18.0462 N   0  0  0  0  0  0  0  0  0  0  0  0
    8.5665  -14.0799   20.0957 C   0  0  0  0  0  0  0  0  0  0  0  0
    9.7192  -13.7869   20.4470 O   0  0  0  0  0  0  0  0  0  0  0  0
    7.6060  -14.5111   21.0582 N   0  0  0  0  0  0  0  0  0  0  0  0
    7.8687  -14.6608   22.4614 C   0  0  1  0  0  0  0  0  0  0  0  0
    6.6634  -14.9022   23.3345 C   0  0  0  0  0  0  0  0  0  0  0  0
    6.8832  -14.7861   24.7695 C   0  0  0  0  0  0  0  0  0  0  0  0
    7.0037  -15.7975   25.6740 C   0  0  0  0  0  0  0  0  0  0  0  0
    7.2212  -15.2654   26.9140 N   0  0  0  0  0  0  0  0  0  0  0  0
    7.2410  -13.9364   26.8066 C   0  0  0  0  0  0  0  0  0  0  0  0
    7.4146  -12.9386   27.7630 C   0  0  0  0  0  0  0  0  0  0  0  0
    7.3861  -11.5966   27.4358 C   0  0  0  0  0  0  0  0  0  0  0  0
    7.1753  -11.2853   26.1019 C   0  0  0  0  0  0  0  0  0  0  0  0
    7.0032  -12.2638   25.1535 C   0  0  0  0  0  0  0  0  0  0  0  0
    7.0351  -13.6001   25.4941 C   0  0  0  0  0  0  0  0  0  0  0  0
    8.7145  -15.9149   22.6698 C   0  0  0  0  0  0  0  0  0  0  0  0
    8.2573  -17.0142   22.2682 O   0  0  0  0  0  0  0  0  0  0  0  0
   11.5363  -15.7054   19.2348 N   0  0  0  0  0  0  0  0  0  0  0  0
   12.5085  -14.6711   19.3566 C   0  0  0  0  0  0  0  0  0  0  0  0
   12.3710  -13.5190   18.7151 N   0  0  0  0  0  0  0  0  0  0  0  0
   13.6772  -14.8296   20.1727 N   0  0  0  0  0  0  0  0  0  0  0  0
   13.6922  -15.5852   21.3772 C   0  0  0  0  0  0  0  0  0  0  0  0
   12.3323  -15.8510   21.9678 C   0  0  0  0  0  0  0  0  0  0  0  0
   12.2953  -16.5591   23.2798 C   0  0  0  0  0  0  0  0  0  0  0  0
   10.8691  -16.8322   23.7281 C   0  0  2  0  0  0  0  0  0  0  0  0
    9.9613  -15.8619   23.2916 N   0  0  0  0  0  0  0  0  0  0  0  0
   10.7678  -17.4696   25.0483 C   0  0  0  0  0  0  0  0  0  0  0  0
   11.4931  -18.5125   25.4916 O   0  0  0  0  0  0  0  0  0  0  0  0
    9.8938  -16.9461   25.8344 O   0  0  0  0  0  0  0  0  0  0  0  0
  2  1  1  6
  3  2  1  0
  4  5  1  6
  4  2  1  0
  6  4  1  0
  7  6  2  0
  8  6  1  0
  9 20  1  0
  9  8  1  0
  9 10  1  1
 11 10  1  0
 12 11  2  0
 13 14  1  0
 13 12  1  0
 14 19  2  0
 15 16  2  0
 15 14  1  0
 16 17  1  0
 17 18  2  0
 19 18  1  0
 19 11  1  0
 20 21  2  0
 23 22  1  0
 23 25  1  0
 24 23  2  0
 26 25  1  0
 26 27  1  0
 27 28  1  0
 29 28  1  1
 30 20  1  0
 30 29  1  0
 31 29  1  0
 31 32  1  0
 33 31  2  0
M  END
$$$$
