TWR.pdb
     RDKit          3D

 33 34  0  0  1  0  0  0  0  0999 V2000
    7.8829  -17.0786   19.8004 C   0  0  0  0  0  0  0  0  0  0  0  0
    8.1515  -15.6727   19.2958 C   0  0  1  0  0  0  0  0  0  0  0  0
    7.5041  -15.4930   18.0462 O   0  0  0  0  0  0  0  0  0  0  0  0
    7.7961  -14.5983   20.2806 C   0  0  2  0  0  0  0  0  0  0  0  0
    7.7541  -13.3328   19.5801 N   0  0  0  0  0  0  0  0  0  0  0  0
    8.7273  -14.5341   21.4363 C   0  0  0  0  0  0  0  0  0  0  0  0
    9.7625  -13.8565   21.3510 O   0  0  0  0  0  0  0  0  0  0  0  0
    8.4271  -15.2459   22.6356 N   0  0  0  0  0  0  0  0  0  0  0  0
    9.3767  -15.5315   23.6734 C   0  0  1  0  0  0  0  0  0  0  0  0
    9.0726  -14.9373   25.0253 C   0  0  0  0  0  0  0  0  0  0  0  0
    7.6795  -14.5902   25.2695 C   0  0  0  0  0  0  0  0  0  0  0  0
    6.6011  -15.4220   25.2419 C   0  0  0  0  0  0  0  0  0  0  0  0
    5.4765  -14.7070   25.5453 N   0  0  0  0  0  0  0  0  0  0  0  0
    5.8275  -13.4394   25.7649 C   0  0  0  0  0  0  0  0  0  0  0  0
    5.0686  -12.3184   26.0934 C   0  0  0  0  0  0  0  0  0  0  0  0
    5.6390  -11.0719   26.2657 C   0  0  0  0  0  0  0  0  0  0  0  0
    7.0118  -10.9864   26.0956 C   0  0  0  0  0  0  0  0  0  0  0  0
    7.7663  -12.0874   25.7715 C   0  0  0  0  0  0  0  0  0  0  0  0
    7.1837  -13.3264   25.6035 C   0  0  0  0  0  0  0  0  0  0  0  0
    9.3748  -17.0352   23.9382 C   0  0  0  0  0  0  0  0  0  0  0  0
    8.3877  -17.5327   24.5359 O   0  0  0  0  0  0  0  0  0  0  0  0
   16.8162  -16.0897   23.1307 N   0  0  0  0  0  0  0  0  0  0  0  0
   16.8648  -16.7928   21.8924 C   0  0  0  0  0  0  0  0  0  0  0  0
   17.9920  -17.3351   21.4533 N   0  0  0  0  0  0  0  0  0  0  0  0
   15.7020  -16.9424   21.0664 N   0  0  0  0  0  0  0  0  0  0  0  0
   14.4094  -16.4887   21.4474 C   0  0  0  0  0  0  0  0  0  0  0  0
   13.9228  -17.0204   22.7701 C   0  0  0  0  0  0  0  0  0  0  0  0
   12.5292  -16.6659   23.1661 C   0  0  0  0  0  0  0  0  0  0  0  0
   11.8087  -17.8472   23.7945 C   0  0  2  0  0  0  0  0  0  0  0  0
   10.4335  -17.8501   23.5395 N   0  0  0  0  0  0  0  0  0  0  0  0
   12.3728  -18.2773   25.0814 C   0  0  0  0  0  0  0  0  0  0  0  0
   13.1632  -19.3456   25.2921 O   0  0  0  0  0  0  0  0  0  0  0  0
   12.0655  -17.5291   26.0822 O   0  0  0  0  0  0  0  0  0  0  0  0
  2  1  1  1
  3  2  1  0
  4  5  1  6
  4  2  1  0
  6  4  1  0
  7  6  2  0
  8  6  1  0
  9 20  1  0
  9  8  1  0
  9 10  1  1
 11 10  1  0
 12 11  2  0
 13 14  1  0
 13 12  1  0
 14 19  2  0
 15 16  2  0
 15 14  1  0
 16 17  1  0
 17 18  2  0
 19 18  1  0
 19 11  1  0
 20 21  2  0
 23 22  1  0
 23 25  1  0
 24 23  2  0
 26 25  1  0
 26 27  1  0
 27 28  1  0
 29 28  1  1
 30 20  1  0
 30 29  1  0
 31 29  1  0
 31 32  1  0
 33 31  2  0
M  END
$$$$
