TWR.pdb
     RDKit          3D

 33 34  0  0  1  0  0  0  0  0999 V2000
    6.3619  -22.6809   21.1756 C   0  0  0  0  0  0  0  0  0  0  0  0
    7.0646  -21.3690   21.4728 C   0  0  1  0  0  0  0  0  0  0  0  0
    8.3883  -21.4223   20.9652 O   0  0  0  0  0  0  0  0  0  0  0  0
    6.3184  -20.1602   20.9906 C   0  0  2  0  0  0  0  0  0  0  0  0
    6.0643  -20.3157   19.5745 N   0  0  0  0  0  0  0  0  0  0  0  0
    7.0312  -18.8860   21.2648 C   0  0  0  0  0  0  0  0  0  0  0  0
    7.9156  -18.4999   20.4859 O   0  0  0  0  0  0  0  0  0  0  0  0
    6.6949  -18.1130   22.4157 N   0  0  0  0  0  0  0  0  0  0  0  0
    7.3923  -16.9309   22.8358 C   0  0  1  0  0  0  0  0  0  0  0  0
    6.6547  -16.0408   23.8039 C   0  0  0  0  0  0  0  0  0  0  0  0
    7.2030  -14.7037   23.9839 C   0  0  0  0  0  0  0  0  0  0  0  0
    7.8207  -13.9286   23.0494 C   0  0  0  0  0  0  0  0  0  0  0  0
    8.1695  -12.7354   23.6174 N   0  0  0  0  0  0  0  0  0  0  0  0
    7.7813  -12.7444   24.8931 C   0  0  0  0  0  0  0  0  0  0  0  0
    7.9061  -11.7895   25.8995 C   0  0  0  0  0  0  0  0  0  0  0  0
    7.4386  -12.0095   27.1808 C   0  0  0  0  0  0  0  0  0  0  0  0
    6.8347  -13.2335   27.4217 C   0  0  0  0  0  0  0  0  0  0  0  0
    6.7083  -14.1798   26.4343 C   0  0  0  0  0  0  0  0  0  0  0  0
    7.1788  -13.9464   25.1588 C   0  0  0  0  0  0  0  0  0  0  0  0
    8.6371  -17.3481   23.6154 C   0  0  0  0  0  0  0  0  0  0  0  0
    8.5037  -18.1784   24.5491 O   0  0  0  0  0  0  0  0  0  0  0  0
   15.1228  -14.4614   18.9704 N   0  0  0  0  0  0  0  0  0  0  0  0
   15.4607  -14.1111   20.3094 C   0  0  0  0  0  0  0  0  0  0  0  0
   16.3836  -13.1953   20.5687 N   0  0  0  0  0  0  0  0  0  0  0  0
   14.8227  -14.7330   21.4334 N   0  0  0  0  0  0  0  0  0  0  0  0
   13.8234  -15.7367   21.3076 C   0  0  0  0  0  0  0  0  0  0  0  0
   13.2064  -16.1741   22.6103 C   0  0  0  0  0  0  0  0  0  0  0  0
   12.1668  -17.2409   22.5376 C   0  0  0  0  0  0  0  0  0  0  0  0
   11.1983  -17.1587   23.7059 C   0  0  2  0  0  0  0  0  0  0  0  0
    9.8960  -16.8286   23.3170 N   0  0  0  0  0  0  0  0  0  0  0  0
   11.8006  -16.6581   24.9492 C   0  0  0  0  0  0  0  0  0  0  0  0
   12.3525  -17.3998   25.9268 O   0  0  0  0  0  0  0  0  0  0  0  0
   11.7882  -15.3778   25.0773 O   0  0  0  0  0  0  0  0  0  0  0  0
  2  1  1  6
  3  2  1  0
  4  5  1  6
  4  2  1  0
  6  4  1  0
  7  6  2  0
  8  6  1  0
  9 20  1  0
  9  8  1  0
  9 10  1  1
 11 10  1  0
 12 11  2  0
 13 14  1  0
 13 12  1  0
 14 19  2  0
 15 16  2  0
 15 14  1  0
 16 17  1  0
 17 18  2  0
 19 18  1  0
 19 11  1  0
 20 21  2  0
 23 22  1  0
 23 25  1  0
 24 23  2  0
 26 25  1  0
 26 27  1  0
 27 28  1  0
 29 28  1  6
 30 20  1  0
 30 29  1  0
 31 29  1  0
 31 32  1  0
 33 31  2  0
M  END
$$$$
