TWR.pdb
     RDKit          3D

 33 34  0  0  1  0  0  0  0  0999 V2000
    6.1182  -18.9589   19.4450 C   0  0  0  0  0  0  0  0  0  0  0  0
    7.2068  -18.2198   20.2013 C   0  0  1  0  0  0  0  0  0  0  0  0
    8.4066  -18.2531   19.4449 O   0  0  0  0  0  0  0  0  0  0  0  0
    6.8252  -16.8255   20.6019 C   0  0  2  0  0  0  0  0  0  0  0  0
    6.4424  -16.0972   19.4115 N   0  0  0  0  0  0  0  0  0  0  0  0
    7.9025  -16.1131   21.3360 C   0  0  0  0  0  0  0  0  0  0  0  0
    8.6319  -15.3148   20.7290 O   0  0  0  0  0  0  0  0  0  0  0  0
    8.0909  -16.3462   22.7308 N   0  0  0  0  0  0  0  0  0  0  0  0
    9.0862  -15.6998   23.5381 C   0  0  1  0  0  0  0  0  0  0  0  0
    8.8287  -15.6974   25.0236 C   0  0  0  0  0  0  0  0  0  0  0  0
    7.6844  -14.9150   25.4702 C   0  0  0  0  0  0  0  0  0  0  0  0
    6.4122  -15.3536   25.6815 C   0  0  0  0  0  0  0  0  0  0  0  0
    5.6450  -14.3091   26.1154 N   0  0  0  0  0  0  0  0  0  0  0  0
    6.4116  -13.2201   26.1823 C   0  0  0  0  0  0  0  0  0  0  0  0
    6.1178  -11.9093   26.5511 C   0  0  0  0  0  0  0  0  0  0  0  0
    7.0737  -10.9119   26.5366 C   0  0  0  0  0  0  0  0  0  0  0  0
    8.3489  -11.2774   26.1353 C   0  0  0  0  0  0  0  0  0  0  0  0
    8.6458  -12.5678   25.7703 C   0  0  0  0  0  0  0  0  0  0  0  0
    7.6817  -13.5541   25.7904 C   0  0  0  0  0  0  0  0  0  0  0  0
   10.3983  -16.4696   23.4068 C   0  0  0  0  0  0  0  0  0  0  0  0
   10.4046  -17.6899   23.7064 O   0  0  0  0  0  0  0  0  0  0  0  0
   17.2728  -15.3916   18.9070 N   0  0  0  0  0  0  0  0  0  0  0  0
   16.4297  -14.2548   18.7436 C   0  0  0  0  0  0  0  0  0  0  0  0
   16.7647  -13.2612   17.9323 N   0  0  0  0  0  0  0  0  0  0  0  0
   15.1868  -14.1324   19.4487 N   0  0  0  0  0  0  0  0  0  0  0  0
   14.3309  -15.2350   19.7202 C   0  0  0  0  0  0  0  0  0  0  0  0
   14.5265  -15.8618   21.0758 C   0  0  0  0  0  0  0  0  0  0  0  0
   13.8023  -15.2336   22.2182 C   0  0  0  0  0  0  0  0  0  0  0  0
   12.9138  -16.2358   22.9364 C   0  0  2  0  0  0  0  0  0  0  0  0
   11.5698  -15.8508   22.9725 N   0  0  0  0  0  0  0  0  0  0  0  0
   13.5687  -16.9190   24.0606 C   0  0  0  0  0  0  0  0  0  0  0  0
   13.0831  -17.0539   25.3081 O   0  0  0  0  0  0  0  0  0  0  0  0
   14.7151  -17.4343   23.7847 O   0  0  0  0  0  0  0  0  0  0  0  0
  2  1  1  6
  3  2  1  0
  4  5  1  6
  4  2  1  0
  6  4  1  0
  7  6  2  0
  8  6  1  0
  9 20  1  0
  9  8  1  0
  9 10  1  1
 11 10  1  0
 12 11  2  0
 13 14  1  0
 13 12  1  0
 14 19  2  0
 15 16  2  0
 15 14  1  0
 16 17  1  0
 17 18  2  0
 19 18  1  0
 19 11  1  0
 20 21  2  0
 23 22  1  0
 23 25  1  0
 24 23  2  0
 26 25  1  0
 26 27  1  0
 27 28  1  0
 29 28  1  1
 30 20  1  0
 30 29  1  0
 31 29  1  0
 31 32  1  0
 33 31  2  0
M  END
$$$$
