TWR.pdb
     RDKit          3D

 33 34  0  0  1  0  0  0  0  0999 V2000
    8.6256  -18.3447   19.8911 C   0  0  0  0  0  0  0  0  0  0  0  0
    7.9551  -17.0975   19.3449 C   0  0  1  0  0  0  0  0  0  0  0  0
    7.0910  -17.4599   18.2796 O   0  0  0  0  0  0  0  0  0  0  0  0
    7.2573  -16.2787   20.3904 C   0  0  2  0  0  0  0  0  0  0  0  0
    6.5133  -15.2296   19.7270 N   0  0  0  0  0  0  0  0  0  0  0  0
    8.1844  -15.7121   21.4035 C   0  0  0  0  0  0  0  0  0  0  0  0
    8.9928  -14.8330   21.0693 O   0  0  0  0  0  0  0  0  0  0  0  0
    8.1393  -16.1766   22.7516 N   0  0  0  0  0  0  0  0  0  0  0  0
    9.0518  -15.7734   23.7836 C   0  0  1  0  0  0  0  0  0  0  0  0
    8.5573  -15.9340   25.1989 C   0  0  0  0  0  0  0  0  0  0  0  0
    7.4362  -15.0869   25.5816 C   0  0  0  0  0  0  0  0  0  0  0  0
    6.1357  -15.4573   25.7456 C   0  0  0  0  0  0  0  0  0  0  0  0
    5.4046  -14.3674   26.1273 N   0  0  0  0  0  0  0  0  0  0  0  0
    6.2219  -13.3169   26.2080 C   0  0  0  0  0  0  0  0  0  0  0  0
    5.9795  -11.9860   26.5404 C   0  0  0  0  0  0  0  0  0  0  0  0
    6.9844  -11.0380   26.5496 C   0  0  0  0  0  0  0  0  0  0  0  0
    8.2553  -11.4744   26.2103 C   0  0  0  0  0  0  0  0  0  0  0  0
    8.5017  -12.7850   25.8813 C   0  0  0  0  0  0  0  0  0  0  0  0
    7.4889  -13.7214   25.8772 C   0  0  0  0  0  0  0  0  0  0  0  0
   10.2800  -16.6790   23.7321 C   0  0  0  0  0  0  0  0  0  0  0  0
   10.1308  -17.8990   23.9934 O   0  0  0  0  0  0  0  0  0  0  0  0
   18.1872  -16.6125   23.5514 N   0  0  0  0  0  0  0  0  0  0  0  0
   18.2747  -17.0309   22.1923 C   0  0  0  0  0  0  0  0  0  0  0  0
   19.2984  -17.7539   21.7599 N   0  0  0  0  0  0  0  0  0  0  0  0
   17.2652  -16.6877   21.2332 N   0  0  0  0  0  0  0  0  0  0  0  0
   16.1199  -15.9067   21.5500 C   0  0  0  0  0  0  0  0  0  0  0  0
   15.0922  -16.6143   22.3938 C   0  0  0  0  0  0  0  0  0  0  0  0
   13.8590  -15.8481   22.7353 C   0  0  0  0  0  0  0  0  0  0  0  0
   12.8320  -16.7237   23.4342 C   0  0  2  0  0  0  0  0  0  0  0  0
   11.5425  -16.1826   23.4105 N   0  0  0  0  0  0  0  0  0  0  0  0
   13.3589  -17.4553   24.5945 C   0  0  0  0  0  0  0  0  0  0  0  0
   13.8911  -18.6910   24.5877 O   0  0  0  0  0  0  0  0  0  0  0  0
   13.2959  -16.8158   25.7094 O   0  0  0  0  0  0  0  0  0  0  0  0
  2  1  1  1
  3  2  1  0
  4  5  1  6
  4  2  1  0
  6  4  1  0
  7  6  2  0
  8  6  1  0
  9 20  1  0
  9  8  1  0
  9 10  1  1
 11 10  1  0
 12 11  2  0
 13 14  1  0
 13 12  1  0
 14 19  2  0
 15 16  2  0
 15 14  1  0
 16 17  1  0
 17 18  2  0
 19 18  1  0
 19 11  1  0
 20 21  2  0
 23 22  1  0
 23 25  1  0
 24 23  2  0
 26 25  1  0
 26 27  1  0
 27 28  1  0
 29 28  1  1
 30 20  1  0
 30 29  1  0
 31 29  1  0
 31 32  1  0
 33 31  2  0
M  END
$$$$
