TWR.pdb
     RDKit          3D

 33 34  0  0  1  0  0  0  0  0999 V2000
    6.7363  -15.1446   17.9062 C   0  0  0  0  0  0  0  0  0  0  0  0
    7.6600  -15.3156   19.0982 C   0  0  1  0  0  0  0  0  0  0  0  0
    8.9790  -15.5601   18.6362 O   0  0  0  0  0  0  0  0  0  0  0  0
    7.6011  -14.1802   20.0769 C   0  0  2  0  0  0  0  0  0  0  0  0
    7.8234  -12.9449   19.3567 N   0  0  0  0  0  0  0  0  0  0  0  0
    8.5678  -14.3230   21.1960 C   0  0  0  0  0  0  0  0  0  0  0  0
    9.6690  -13.7567   21.1291 O   0  0  0  0  0  0  0  0  0  0  0  0
    8.2259  -15.1043   22.3395 N   0  0  0  0  0  0  0  0  0  0  0  0
    9.1530  -15.5060   23.3591 C   0  0  1  0  0  0  0  0  0  0  0  0
    8.5611  -15.7663   24.7211 C   0  0  0  0  0  0  0  0  0  0  0  0
    7.4951  -14.8646   25.1350 C   0  0  0  0  0  0  0  0  0  0  0  0
    6.1520  -15.0793   25.0596 C   0  0  0  0  0  0  0  0  0  0  0  0
    5.4960  -13.9945   25.5704 N   0  0  0  0  0  0  0  0  0  0  0  0
    6.4021  -13.1005   25.9677 C   0  0  0  0  0  0  0  0  0  0  0  0
    6.2599  -11.8386   26.5402 C   0  0  0  0  0  0  0  0  0  0  0  0
    7.3499  -11.0559   26.8692 C   0  0  0  0  0  0  0  0  0  0  0  0
    8.6016  -11.5873   26.6017 C   0  0  0  0  0  0  0  0  0  0  0  0
    8.7493  -12.8307   26.0372 C   0  0  0  0  0  0  0  0  0  0  0  0
    7.6522  -13.6021   25.7147 C   0  0  0  0  0  0  0  0  0  0  0  0
    9.7543  -16.8545   22.9700 C   0  0  0  0  0  0  0  0  0  0  0  0
    8.9780  -17.7603   22.5752 O   0  0  0  0  0  0  0  0  0  0  0  0
   14.7360  -14.3248   21.9426 N   0  0  0  0  0  0  0  0  0  0  0  0
   14.3456  -14.5102   20.5850 C   0  0  0  0  0  0  0  0  0  0  0  0
   13.9781  -13.4850   19.8290 N   0  0  0  0  0  0  0  0  0  0  0  0
   14.3291  -15.8094   19.9778 N   0  0  0  0  0  0  0  0  0  0  0  0
   13.4556  -16.8531   20.3896 C   0  0  0  0  0  0  0  0  0  0  0  0
   13.6521  -17.3112   21.8110 C   0  0  0  0  0  0  0  0  0  0  0  0
   12.9116  -18.5355   22.2317 C   0  0  0  0  0  0  0  0  0  0  0  0
   11.8970  -18.2290   23.3210 C   0  0  2  0  0  0  0  0  0  0  0  0
   11.1254  -17.0947   23.0488 N   0  0  0  0  0  0  0  0  0  0  0  0
   12.3535  -18.5654   24.6766 C   0  0  0  0  0  0  0  0  0  0  0  0
   12.8979  -19.7305   25.0721 O   0  0  0  0  0  0  0  0  0  0  0  0
   12.2101  -17.6248   25.5430 O   0  0  0  0  0  0  0  0  0  0  0  0
  2  1  1  6
  3  2  1  0
  4  5  1  6
  4  2  1  0
  6  4  1  0
  7  6  2  0
  8  6  1  0
  9 20  1  0
  9  8  1  0
  9 10  1  1
 11 10  1  0
 12 11  2  0
 13 14  1  0
 13 12  1  0
 14 19  2  0
 15 16  2  0
 15 14  1  0
 16 17  1  0
 17 18  2  0
 19 18  1  0
 19 11  1  0
 20 21  2  0
 23 22  1  0
 23 25  1  0
 24 23  2  0
 26 25  1  0
 26 27  1  0
 27 28  1  0
 29 28  1  6
 30 20  1  0
 30 29  1  0
 31 29  1  0
 31 32  1  0
 33 31  2  0
M  END
$$$$
