TWR.pdb
     RDKit          3D

 33 34  0  0  1  0  0  0  0  0999 V2000
    6.6827  -16.1306   18.6445 C   0  0  0  0  0  0  0  0  0  0  0  0
    7.4867  -15.5943   19.8146 C   0  0  1  0  0  0  0  0  0  0  0  0
    6.6238  -14.8827   20.6876 O   0  0  0  0  0  0  0  0  0  0  0  0
    8.2836  -16.6431   20.5324 C   0  0  2  0  0  0  0  0  0  0  0  0
    7.3694  -17.6437   21.0393 N   0  0  0  0  0  0  0  0  0  0  0  0
    9.1250  -16.0913   21.6253 C   0  0  0  0  0  0  0  0  0  0  0  0
   10.0113  -15.2661   21.3579 O   0  0  0  0  0  0  0  0  0  0  0  0
    8.9092  -16.5080   22.9725 N   0  0  0  0  0  0  0  0  0  0  0  0
    9.6922  -16.0753   24.0949 C   0  0  1  0  0  0  0  0  0  0  0  0
    9.0230  -16.1763   25.4422 C   0  0  0  0  0  0  0  0  0  0  0  0
    7.8516  -15.3329   25.6361 C   0  0  0  0  0  0  0  0  0  0  0  0
    6.5432  -15.7100   25.5966 C   0  0  0  0  0  0  0  0  0  0  0  0
    5.7560  -14.6216   25.8486 N   0  0  0  0  0  0  0  0  0  0  0  0
    6.5453  -13.5654   26.0475 C   0  0  0  0  0  0  0  0  0  0  0  0
    6.2472  -12.2334   26.3256 C   0  0  0  0  0  0  0  0  0  0  0  0
    7.2336  -11.2791   26.4844 C   0  0  0  0  0  0  0  0  0  0  0  0
    8.5441  -11.7105   26.3534 C   0  0  0  0  0  0  0  0  0  0  0  0
    8.8455  -13.0222   26.0790 C   0  0  0  0  0  0  0  0  0  0  0  0
    7.8505  -13.9648   25.9240 C   0  0  0  0  0  0  0  0  0  0  0  0
   10.9033  -16.9953   24.2306 C   0  0  0  0  0  0  0  0  0  0  0  0
   10.7109  -18.1817   24.5972 O   0  0  0  0  0  0  0  0  0  0  0  0
   16.7780  -13.4669   19.4148 N   0  0  0  0  0  0  0  0  0  0  0  0
   15.5344  -14.0420   19.0240 C   0  0  0  0  0  0  0  0  0  0  0  0
   15.0515  -13.8704   17.8013 N   0  0  0  0  0  0  0  0  0  0  0  0
   14.7500  -14.8268   19.9326 N   0  0  0  0  0  0  0  0  0  0  0  0
   15.2021  -15.2097   21.2253 C   0  0  0  0  0  0  0  0  0  0  0  0
   14.2195  -16.0344   22.0146 C   0  0  0  0  0  0  0  0  0  0  0  0
   14.5632  -16.3089   23.4396 C   0  0  0  0  0  0  0  0  0  0  0  0
   13.4692  -17.1008   24.1365 C   0  0  2  0  0  0  0  0  0  0  0  0
   12.1964  -16.5472   23.9641 N   0  0  0  0  0  0  0  0  0  0  0  0
   13.8927  -17.7266   25.3967 C   0  0  0  0  0  0  0  0  0  0  0  0
   13.9933  -17.1243   26.5956 O   0  0  0  0  0  0  0  0  0  0  0  0
   14.1800  -18.9778   25.3078 O   0  0  0  0  0  0  0  0  0  0  0  0
  2  1  1  6
  3  2  1  0
  4  5  1  1
  4  2  1  0
  6  4  1  0
  7  6  2  0
  8  6  1  0
  9 20  1  0
  9  8  1  0
  9 10  1  1
 11 10  1  0
 12 11  2  0
 13 14  1  0
 13 12  1  0
 14 19  2  0
 15 16  2  0
 15 14  1  0
 16 17  1  0
 17 18  2  0
 19 18  1  0
 19 11  1  0
 20 21  2  0
 23 22  1  0
 23 25  1  0
 24 23  2  0
 26 25  1  0
 26 27  1  0
 27 28  1  0
 29 28  1  1
 30 20  1  0
 30 29  1  0
 31 29  1  0
 31 32  1  0
 33 31  2  0
M  END
$$$$
