TWR.pdb
     RDKit          3D

 33 34  0  0  1  0  0  0  0  0999 V2000
    9.8315  -18.2788   18.9226 C   0  0  0  0  0  0  0  0  0  0  0  0
   10.2774  -17.9959   20.3454 C   0  0  1  0  0  0  0  0  0  0  0  0
   11.6864  -17.8320   20.3698 O   0  0  0  0  0  0  0  0  0  0  0  0
    9.5594  -16.8455   20.9869 C   0  0  2  0  0  0  0  0  0  0  0  0
    9.7775  -15.6643   20.1800 N   0  0  0  0  0  0  0  0  0  0  0  0
    9.9734  -16.6103   22.3942 C   0  0  0  0  0  0  0  0  0  0  0  0
   10.9048  -15.8278   22.6353 O   0  0  0  0  0  0  0  0  0  0  0  0
    9.2988  -17.2794   23.4583 N   0  0  0  0  0  0  0  0  0  0  0  0
    9.6043  -17.1110   24.8506 C   0  0  1  0  0  0  0  0  0  0  0  0
    8.4258  -16.8620   25.7575 C   0  0  0  0  0  0  0  0  0  0  0  0
    7.6550  -15.6571   25.4836 C   0  0  0  0  0  0  0  0  0  0  0  0
    6.5746  -15.5330   24.6633 C   0  0  0  0  0  0  0  0  0  0  0  0
    6.1315  -14.2406   24.6994 N   0  0  0  0  0  0  0  0  0  0  0  0
    6.9130  -13.5483   25.5290 C   0  0  0  0  0  0  0  0  0  0  0  0
    6.8958  -12.2070   25.9048 C   0  0  0  0  0  0  0  0  0  0  0  0
    7.8224  -11.6801   26.7837 C   0  0  0  0  0  0  0  0  0  0  0  0
    8.7779  -12.5535   27.2788 C   0  0  0  0  0  0  0  0  0  0  0  0
    8.8010  -13.8770   26.9126 C   0  0  0  0  0  0  0  0  0  0  0  0
    7.8688  -14.3902   26.0348 C   0  0  0  0  0  0  0  0  0  0  0  0
   10.1928  -18.4152   25.3837 C   0  0  0  0  0  0  0  0  0  0  0  0
    9.8153  -19.4947   24.8632 O   0  0  0  0  0  0  0  0  0  0  0  0
   14.2435  -22.1832   32.3606 N   0  0  0  0  0  0  0  0  0  0  0  0
   14.6662  -20.8227   32.3491 C   0  0  0  0  0  0  0  0  0  0  0  0
   15.6683  -20.4075   33.1114 N   0  0  0  0  0  0  0  0  0  0  0  0
   14.0275  -19.8436   31.5182 N   0  0  0  0  0  0  0  0  0  0  0  0
   14.1498  -19.8218   30.1017 C   0  0  0  0  0  0  0  0  0  0  0  0
   12.8457  -19.9440   29.3577 C   0  0  0  0  0  0  0  0  0  0  0  0
   12.5507  -18.8943   28.3403 C   0  0  0  0  0  0  0  0  0  0  0  0
   11.2652  -19.1918   27.5861 C   0  0  2  0  0  0  0  0  0  0  0  0
   11.1218  -18.4280   26.4233 N   0  0  0  0  0  0  0  0  0  0  0  0
   10.1275  -19.5308   28.4521 C   0  0  0  0  0  0  0  0  0  0  0  0
    9.2692  -18.6654   29.0219 O   0  0  0  0  0  0  0  0  0  0  0  0
    9.9618  -20.7904   28.6566 O   0  0  0  0  0  0  0  0  0  0  0  0
  2  1  1  6
  3  2  1  0
  4  5  1  6
  4  2  1  0
  6  4  1  0
  7  6  2  0
  8  6  1  0
  9 20  1  0
  9  8  1  0
  9 10  1  1
 11 10  1  0
 12 11  2  0
 13 14  1  0
 13 12  1  0
 14 19  2  0
 15 16  2  0
 15 14  1  0
 16 17  1  0
 17 18  2  0
 19 18  1  0
 19 11  1  0
 20 21  2  0
 23 22  1  0
 23 25  1  0
 24 23  2  0
 26 25  1  0
 26 27  1  0
 27 28  1  0
 29 28  1  1
 30 20  1  0
 30 29  1  0
 31 29  1  0
 31 32  1  0
 33 31  2  0
M  END
$$$$
