NNG.pdb
     RDKit          3D

 21 20  0  0  1  0  0  0  0  0999 V2000
   13.4372  -11.5161  -13.9684 N   0  0  0  0  0  0  0  0  0  0  0  0
   14.2395  -10.5641  -14.6409 C   0  0  0  0  0  0  0  0  0  0  0  0
   13.9051  -10.2968  -15.8457 O   0  0  0  0  0  0  0  0  0  0  0  0
   15.4019   -9.8816  -14.0601 C   0  0  0  0  0  0  0  0  0  0  0  0
   16.6466  -10.2607  -14.8258 C   0  0  2  0  0  0  0  0  0  0  0  0
   17.0098  -11.6383  -14.6433 N   0  0  0  0  0  0  0  0  0  0  0  0
   17.8039   -9.4100  -14.3913 C   0  0  0  0  0  0  0  0  0  0  0  0
   18.6689   -9.8584  -13.6020 O   0  0  0  0  0  0  0  0  0  0  0  0
   21.3545   -5.5098  -14.1090 N   0  0  0  0  0  0  0  0  0  0  0  0
   21.5019   -6.9011  -14.3586 C   0  0  0  0  0  0  0  0  0  0  0  0
   22.6748   -7.3500  -14.3660 O   0  0  0  0  0  0  0  0  0  0  0  0
   20.3744   -7.7856  -14.5966 C   0  0  0  0  0  0  0  0  0  0  0  0
   19.0159   -7.1996  -14.5757 C   0  0  2  0  0  0  0  0  0  0  0  0
   17.9296   -8.0854  -14.8733 N   0  0  0  0  0  0  0  0  0  0  0  0
   18.9008   -5.8462  -15.1840 C   0  0  0  0  0  0  0  0  0  0  0  0
   19.1247   -5.7587  -16.4171 O   0  0  0  0  0  0  0  0  0  0  0  0
   18.5685   -4.6685  -14.4858 N   0  0  0  0  0  0  0  0  0  0  0  0
   18.2524   -3.4255  -15.2098 C   0  0  0  0  0  0  0  0  0  0  0  0
   17.9872   -2.3213  -14.2978 C   0  0  0  0  0  0  0  0  0  0  0  0
   17.7584   -1.1801  -14.7437 O   0  0  0  0  0  0  0  0  0  0  0  0
   17.9836   -2.5139  -12.9308 O   0  0  0  0  0  0  0  0  0  0  0  0
  2  3  2  0
  2  1  1  0
  4  2  1  0
  5  6  1  1
  5  4  1  0
  7  5  1  0
  7  8  2  0
  9 10  1  0
 10 12  1  0
 11 10  2  0
 13 12  1  6
 13 14  1  0
 13 15  1  0
 14  7  1  0
 15 16  2  0
 15 17  1  0
 17 18  1  0
 19 21  1  0
 19 18  1  0
 20 19  2  0
M  END
$$$$
