NNG.pdb
     RDKit          3D

 21 20  0  0  1  0  0  0  0  0999 V2000
   16.1669  -10.6351  -16.1245 N   0  0  0  0  0  0  0  0  0  0  0  0
   16.9570  -11.2309  -15.1130 C   0  0  0  0  0  0  0  0  0  0  0  0
   16.5316  -12.3436  -14.6487 O   0  0  0  0  0  0  0  0  0  0  0  0
   18.2013  -10.6680  -14.5752 C   0  0  0  0  0  0  0  0  0  0  0  0
   18.4895   -9.3455  -15.2440 C   0  0  2  0  0  0  0  0  0  0  0  0
   18.7870   -9.4862  -16.6421 N   0  0  0  0  0  0  0  0  0  0  0  0
   19.6559   -8.6715  -14.5828 C   0  0  0  0  0  0  0  0  0  0  0  0
   19.6635   -8.4708  -13.3451 O   0  0  0  0  0  0  0  0  0  0  0  0
   22.2488  -10.3196  -14.1164 N   0  0  0  0  0  0  0  0  0  0  0  0
   23.3211   -9.5662  -14.6663 C   0  0  0  0  0  0  0  0  0  0  0  0
   24.3946  -10.1842  -14.8734 O   0  0  0  0  0  0  0  0  0  0  0  0
   23.2133   -8.1527  -14.9837 C   0  0  0  0  0  0  0  0  0  0  0  0
   21.8851   -7.5126  -14.8589 C   0  0  2  0  0  0  0  0  0  0  0  0
   20.7651   -8.2549  -15.3566 N   0  0  0  0  0  0  0  0  0  0  0  0
   21.8529   -6.0564  -15.1644 C   0  0  0  0  0  0  0  0  0  0  0  0
   22.7864   -5.6058  -15.8741 O   0  0  0  0  0  0  0  0  0  0  0  0
   20.8667   -5.1552  -14.7168 N   0  0  0  0  0  0  0  0  0  0  0  0
   20.8871   -3.7439  -15.1376 C   0  0  0  0  0  0  0  0  0  0  0  0
   19.8048   -2.9827  -14.5287 C   0  0  0  0  0  0  0  0  0  0  0  0
   19.7149   -1.7547  -14.7225 O   0  0  0  0  0  0  0  0  0  0  0  0
   18.8632   -3.6005  -13.7303 O   0  0  0  0  0  0  0  0  0  0  0  0
  2  3  2  0
  2  1  1  0
  4  2  1  0
  5  6  1  6
  5  4  1  0
  7  5  1  0
  7  8  2  0
  9 10  1  0
 10 12  1  0
 11 10  2  0
 13 12  1  6
 13 14  1  0
 13 15  1  0
 14  7  1  0
 15 16  2  0
 15 17  1  0
 17 18  1  0
 19 21  1  0
 19 18  1  0
 20 19  2  0
M  END
$$$$
