NNG.pdb
     RDKit          3D

 21 20  0  0  1  0  0  0  0  0999 V2000
   27.1939  -16.9989  -17.1472 N   0  0  0  0  0  0  0  0  0  0  0  0
   26.1384  -17.0396  -18.0889 C   0  0  0  0  0  0  0  0  0  0  0  0
   26.2724  -16.2915  -19.1171 O   0  0  0  0  0  0  0  0  0  0  0  0
   24.9300  -17.8633  -17.9645 C   0  0  0  0  0  0  0  0  0  0  0  0
   24.9844  -18.6511  -16.6777 C   0  0  2  0  0  0  0  0  0  0  0  0
   25.6433  -19.9179  -16.8323 N   0  0  0  0  0  0  0  0  0  0  0  0
   23.5973  -18.9046  -16.1641 C   0  0  0  0  0  0  0  0  0  0  0  0
   23.2433  -20.0555  -15.8142 O   0  0  0  0  0  0  0  0  0  0  0  0
   19.0769  -20.0632  -14.2043 N   0  0  0  0  0  0  0  0  0  0  0  0
   19.8713  -18.9683  -13.7686 C   0  0  0  0  0  0  0  0  0  0  0  0
   19.3577  -18.2062  -12.9128 O   0  0  0  0  0  0  0  0  0  0  0  0
   21.2120  -18.7159  -14.2680 C   0  0  0  0  0  0  0  0  0  0  0  0
   21.3517  -17.9396  -15.5199 C   0  0  2  0  0  0  0  0  0  0  0  0
   22.6713  -17.8386  -16.0690 N   0  0  0  0  0  0  0  0  0  0  0  0
   20.5546  -16.6843  -15.5788 C   0  0  0  0  0  0  0  0  0  0  0  0
   20.8591  -15.7811  -14.7604 O   0  0  0  0  0  0  0  0  0  0  0  0
   19.4921  -16.4391  -16.4709 N   0  0  0  0  0  0  0  0  0  0  0  0
   18.2293  -15.8479  -15.9964 C   0  0  0  0  0  0  0  0  0  0  0  0
   18.3758  -14.4304  -15.6950 C   0  0  0  0  0  0  0  0  0  0  0  0
   19.1068  -14.0609  -14.7555 O   0  0  0  0  0  0  0  0  0  0  0  0
   17.7133  -13.4738  -16.4378 O   0  0  0  0  0  0  0  0  0  0  0  0
  2  3  2  0
  2  1  1  0
  4  2  1  0
  5  6  1  6
  5  4  1  0
  7  5  1  0
  7  8  2  0
  9 10  1  0
 10 12  1  0
 11 10  2  0
 13 12  1  1
 13 14  1  0
 13 15  1  0
 14  7  1  0
 15 16  2  0
 15 17  1  0
 17 18  1  0
 19 21  1  0
 19 18  1  0
 20 19  2  0
M  END
$$$$
