NNG.pdb
     RDKit          3D

 21 20  0  0  1  0  0  0  0  0999 V2000
   16.5361  -14.3054  -17.4379 N   0  0  0  0  0  0  0  0  0  0  0  0
   15.8840  -13.5830  -16.4107 C   0  0  0  0  0  0  0  0  0  0  0  0
   14.6408  -13.8337  -16.2483 O   0  0  0  0  0  0  0  0  0  0  0  0
   16.5258  -12.5891  -15.5421 C   0  0  0  0  0  0  0  0  0  0  0  0
   17.9839  -12.4598  -15.9116 C   0  0  2  0  0  0  0  0  0  0  0  0
   18.7580  -13.6030  -15.5156 N   0  0  0  0  0  0  0  0  0  0  0  0
   18.5789  -11.2442  -15.2635 C   0  0  0  0  0  0  0  0  0  0  0  0
   18.6099  -11.1333  -14.0148 O   0  0  0  0  0  0  0  0  0  0  0  0
   21.1111   -6.5921  -14.6815 N   0  0  0  0  0  0  0  0  0  0  0  0
   21.7360   -7.4992  -15.5796 C   0  0  0  0  0  0  0  0  0  0  0  0
   22.8956   -7.2040  -15.9608 O   0  0  0  0  0  0  0  0  0  0  0  0
   21.0935   -8.7137  -16.0513 C   0  0  0  0  0  0  0  0  0  0  0  0
   19.7304   -9.0137  -15.5600 C   0  0  2  0  0  0  0  0  0  0  0  0
   19.1146  -10.2061  -16.0623 N   0  0  0  0  0  0  0  0  0  0  0  0
   18.8220   -7.8395  -15.4566 C   0  0  0  0  0  0  0  0  0  0  0  0
   18.3242   -7.4125  -16.5281 O   0  0  0  0  0  0  0  0  0  0  0  0
   18.4873   -7.1755  -14.2598 N   0  0  0  0  0  0  0  0  0  0  0  0
   17.5407   -6.0472  -14.2619 C   0  0  0  0  0  0  0  0  0  0  0  0
   18.1296   -4.8487  -14.8434 C   0  0  0  0  0  0  0  0  0  0  0  0
   17.6042   -4.3098  -15.8369 O   0  0  0  0  0  0  0  0  0  0  0  0
   19.2733   -4.2886  -14.3105 O   0  0  0  0  0  0  0  0  0  0  0  0
  2  3  2  0
  2  1  1  0
  4  2  1  0
  5  6  1  1
  5  4  1  0
  7  5  1  0
  7  8  2  0
  9 10  1  0
 10 12  1  0
 11 10  2  0
 13 12  1  6
 13 14  1  0
 13 15  1  0
 14  7  1  0
 15 16  2  0
 15 17  1  0
 17 18  1  0
 19 21  1  0
 19 18  1  0
 20 19  2  0
M  END
$$$$
