NNG.pdb
     RDKit          3D

 21 20  0  0  1  0  0  0  0  0999 V2000
   24.9815  -12.5073  -16.1120 N   0  0  0  0  0  0  0  0  0  0  0  0
   25.1141  -11.3951  -16.9767 C   0  0  0  0  0  0  0  0  0  0  0  0
   26.1190  -11.4132  -17.7670 O   0  0  0  0  0  0  0  0  0  0  0  0
   24.1965  -10.2505  -17.0235 C   0  0  0  0  0  0  0  0  0  0  0  0
   23.1122  -10.4281  -15.9881 C   0  0  2  0  0  0  0  0  0  0  0  0
   22.2006  -11.4879  -16.3184 N   0  0  0  0  0  0  0  0  0  0  0  0
   22.3224   -9.1608  -15.8393 C   0  0  0  0  0  0  0  0  0  0  0  0
   22.1117   -8.4167  -16.8264 O   0  0  0  0  0  0  0  0  0  0  0  0
   19.1401   -9.5094  -15.6496 N   0  0  0  0  0  0  0  0  0  0  0  0
   18.7667   -8.8583  -14.4427 C   0  0  0  0  0  0  0  0  0  0  0  0
   17.6268   -9.1259  -13.9887 O   0  0  0  0  0  0  0  0  0  0  0  0
   19.6358   -7.9260  -13.7456 C   0  0  0  0  0  0  0  0  0  0  0  0
   20.9703   -7.6554  -14.3246 C   0  0  2  0  0  0  0  0  0  0  0  0
   21.8046   -8.7932  -14.5746 N   0  0  0  0  0  0  0  0  0  0  0  0
   21.6789   -6.4757  -13.7581 C   0  0  0  0  0  0  0  0  0  0  0  0
   22.4363   -6.6868  -12.7783 O   0  0  0  0  0  0  0  0  0  0  0  0
   21.5599   -5.1538  -14.2307 N   0  0  0  0  0  0  0  0  0  0  0  0
   22.3181   -4.0573  -13.6047 C   0  0  0  0  0  0  0  0  0  0  0  0
   22.0019   -2.7691  -14.2065 C   0  0  0  0  0  0  0  0  0  0  0  0
   21.2108   -2.7026  -15.1674 O   0  0  0  0  0  0  0  0  0  0  0  0
   22.5673   -1.6038  -13.7290 O   0  0  0  0  0  0  0  0  0  0  0  0
  2  3  2  0
  2  1  1  0
  4  2  1  0
  5  6  1  6
  5  4  1  0
  7  5  1  0
  7  8  2  0
  9 10  1  0
 10 12  1  0
 11 10  2  0
 13 12  1  1
 13 14  1  0
 13 15  1  0
 14  7  1  0
 15 16  2  0
 15 17  1  0
 17 18  1  0
 19 21  1  0
 19 18  1  0
 20 19  2  0
M  END
$$$$
