NNG.pdb
     RDKit          3D

 21 20  0  0  1  0  0  0  0  0999 V2000
   14.2056  -12.1065  -14.3567 N   0  0  0  0  0  0  0  0  0  0  0  0
   13.5815  -11.0209  -13.6976 C   0  0  0  0  0  0  0  0  0  0  0  0
   12.3087  -11.0826  -13.5928 O   0  0  0  0  0  0  0  0  0  0  0  0
   14.2827   -9.8576  -13.1414 C   0  0  0  0  0  0  0  0  0  0  0  0
   15.7593   -9.9677  -13.4364 C   0  0  2  0  0  0  0  0  0  0  0  0
   16.4147  -10.9500  -12.6188 N   0  0  0  0  0  0  0  0  0  0  0  0
   16.4343   -8.6464  -13.2124 C   0  0  0  0  0  0  0  0  0  0  0  0
   16.0793   -7.6280  -13.8522 O   0  0  0  0  0  0  0  0  0  0  0  0
   15.8422   -6.6667  -10.4698 N   0  0  0  0  0  0  0  0  0  0  0  0
   17.1297   -6.6112   -9.8706 C   0  0  0  0  0  0  0  0  0  0  0  0
   17.1746   -6.2609   -8.6655 O   0  0  0  0  0  0  0  0  0  0  0  0
   18.3504   -6.9367  -10.5878 C   0  0  0  0  0  0  0  0  0  0  0  0
   18.2347   -7.3465  -12.0049 C   0  0  2  0  0  0  0  0  0  0  0  0
   17.4842   -8.5381  -12.2696 N   0  0  0  0  0  0  0  0  0  0  0  0
   19.4782   -7.2017  -12.8094 C   0  0  0  0  0  0  0  0  0  0  0  0
   20.4037   -8.0179  -12.5733 O   0  0  0  0  0  0  0  0  0  0  0  0
   19.6938   -6.2245  -13.8011 N   0  0  0  0  0  0  0  0  0  0  0  0
   20.9362   -6.2131  -14.5921 C   0  0  0  0  0  0  0  0  0  0  0  0
   21.8546   -5.1766  -14.1408 C   0  0  0  0  0  0  0  0  0  0  0  0
   21.5319   -4.4145  -13.2088 O   0  0  0  0  0  0  0  0  0  0  0  0
   23.0923   -5.0176  -14.7313 O   0  0  0  0  0  0  0  0  0  0  0  0
  2  3  2  0
  2  1  1  0
  4  2  1  0
  5  6  1  1
  5  4  1  0
  7  5  1  0
  7  8  2  0
  9 10  1  0
 10 12  1  0
 11 10  2  0
 13 12  1  1
 13 14  1  0
 13 15  1  0
 14  7  1  0
 15 16  2  0
 15 17  1  0
 17 18  1  0
 19 21  1  0
 19 18  1  0
 20 19  2  0
M  END
$$$$
