NNG.pdb
     RDKit          3D

 21 20  0  0  1  0  0  0  0  0999 V2000
   13.9436  -12.4702  -10.4933 N   0  0  0  0  0  0  0  0  0  0  0  0
   13.9656  -11.4808  -11.5047 C   0  0  0  0  0  0  0  0  0  0  0  0
   14.0663  -11.9062  -12.7061 O   0  0  0  0  0  0  0  0  0  0  0  0
   13.8832  -10.0343  -11.2697 C   0  0  0  0  0  0  0  0  0  0  0  0
   13.7383   -9.7690   -9.7906 C   0  0  2  0  0  0  0  0  0  0  0  0
   12.5233  -10.3100   -9.2483 N   0  0  0  0  0  0  0  0  0  0  0  0
   13.7535   -8.2924   -9.5231 C   0  0  0  0  0  0  0  0  0  0  0  0
   12.7007   -7.6859   -9.2130 O   0  0  0  0  0  0  0  0  0  0  0  0
   15.5035   -3.4034   -8.4790 N   0  0  0  0  0  0  0  0  0  0  0  0
   14.6678   -4.2820   -7.7376 C   0  0  0  0  0  0  0  0  0  0  0  0
   14.1086   -3.8020   -6.7208 O   0  0  0  0  0  0  0  0  0  0  0  0
   14.4510   -5.6693   -8.1102 C   0  0  0  0  0  0  0  0  0  0  0  0
   15.1153   -6.1715   -9.3333 C   0  0  2  0  0  0  0  0  0  0  0  0
   14.9652   -7.5677   -9.6185 N   0  0  0  0  0  0  0  0  0  0  0  0
   16.4780   -5.6277   -9.5824 C   0  0  0  0  0  0  0  0  0  0  0  0
   17.4307   -6.1942   -8.9910 O   0  0  0  0  0  0  0  0  0  0  0  0
   16.7744   -4.5333  -10.4187 N   0  0  0  0  0  0  0  0  0  0  0  0
   16.7533   -4.6759  -11.8845 C   0  0  0  0  0  0  0  0  0  0  0  0
   17.5312   -5.8251  -12.3269 C   0  0  0  0  0  0  0  0  0  0  0  0
   17.0402   -6.9699  -12.2828 O   0  0  0  0  0  0  0  0  0  0  0  0
   18.8187   -5.6718  -12.8007 O   0  0  0  0  0  0  0  0  0  0  0  0
  2  3  2  0
  2  1  1  0
  4  2  1  0
  5  6  1  6
  5  4  1  0
  7  5  1  0
  7  8  2  0
  9 10  1  0
 10 12  1  0
 11 10  2  0
 13 12  1  1
 13 14  1  0
 13 15  1  0
 14  7  1  0
 15 16  2  0
 15 17  1  0
 17 18  1  0
 19 21  1  0
 19 18  1  0
 20 19  2  0
M  END
$$$$
