NNG.pdb
     RDKit          3D

 21 20  0  0  1  0  0  0  0  0999 V2000
   25.0813  -20.7928   -8.0103 N   0  0  0  0  0  0  0  0  0  0  0  0
   26.3480  -20.3051   -8.4102 C   0  0  0  0  0  0  0  0  0  0  0  0
   27.2108  -20.1501   -7.4795 O   0  0  0  0  0  0  0  0  0  0  0  0
   26.7257  -19.9732   -9.7891 C   0  0  0  0  0  0  0  0  0  0  0  0
   25.5238  -20.1153  -10.6916 C   0  0  2  0  0  0  0  0  0  0  0  0
   25.0014  -21.4531  -10.7101 N   0  0  0  0  0  0  0  0  0  0  0  0
   25.8812  -19.7328  -12.0979 C   0  0  0  0  0  0  0  0  0  0  0  0
   26.4597  -18.6470  -12.3400 O   0  0  0  0  0  0  0  0  0  0  0  0
   28.5227  -20.4105  -14.4029 N   0  0  0  0  0  0  0  0  0  0  0  0
   27.7824  -21.2732  -15.2560 C   0  0  0  0  0  0  0  0  0  0  0  0
   28.4304  -22.1732  -15.8452 O   0  0  0  0  0  0  0  0  0  0  0  0
   26.3493  -21.1467  -15.4576 C   0  0  0  0  0  0  0  0  0  0  0  0
   25.5986  -20.2440  -14.5572 C   0  0  2  0  0  0  0  0  0  0  0  0
   25.5667  -20.6015  -13.1700 N   0  0  0  0  0  0  0  0  0  0  0  0
   24.3087  -19.7376  -15.0998 C   0  0  0  0  0  0  0  0  0  0  0  0
   24.3114  -19.3456  -16.2934 O   0  0  0  0  0  0  0  0  0  0  0  0
   23.0999  -19.6610  -14.3801 N   0  0  0  0  0  0  0  0  0  0  0  0
   21.8701  -19.1646  -15.0208 C   0  0  0  0  0  0  0  0  0  0  0  0
   21.0690  -20.2512  -15.5676 C   0  0  0  0  0  0  0  0  0  0  0  0
   19.9127  -20.0331  -15.9786 O   0  0  0  0  0  0  0  0  0  0  0  0
   21.5697  -21.5356  -15.6415 O   0  0  0  0  0  0  0  0  0  0  0  0
  2  3  2  0
  2  1  1  0
  4  2  1  0
  5  6  1  6
  5  4  1  0
  7  5  1  0
  7  8  2  0
  9 10  1  0
 10 12  1  0
 11 10  2  0
 13 12  1  6
 13 14  1  0
 13 15  1  0
 14  7  1  0
 15 16  2  0
 15 17  1  0
 17 18  1  0
 19 21  1  0
 19 18  1  0
 20 19  2  0
M  END
$$$$
