NNG.pdb
     RDKit          3D

 21 20  0  0  1  0  0  0  0  0999 V2000
   22.1474  -19.1283  -17.0537 N   0  0  0  0  0  0  0  0  0  0  0  0
   22.3590  -17.7621  -17.3557 C   0  0  0  0  0  0  0  0  0  0  0  0
   21.9244  -17.3626  -18.4898 O   0  0  0  0  0  0  0  0  0  0  0  0
   23.0288  -16.7986  -16.4741 C   0  0  0  0  0  0  0  0  0  0  0  0
   24.3746  -16.4334  -17.0526 C   0  0  2  0  0  0  0  0  0  0  0  0
   25.3980  -17.3826  -16.7141 N   0  0  0  0  0  0  0  0  0  0  0  0
   24.8051  -15.0841  -16.5567 C   0  0  0  0  0  0  0  0  0  0  0  0
   24.4877  -14.6913  -15.4089 O   0  0  0  0  0  0  0  0  0  0  0  0
   27.4627  -10.6287  -15.8457 N   0  0  0  0  0  0  0  0  0  0  0  0
   27.5550  -11.8744  -15.1677 C   0  0  0  0  0  0  0  0  0  0  0  0
   28.1510  -11.8702  -14.0624 O   0  0  0  0  0  0  0  0  0  0  0  0
   26.9993  -13.1070  -15.6991 C   0  0  0  0  0  0  0  0  0  0  0  0
   26.2276  -13.0339  -16.9594 C   0  0  2  0  0  0  0  0  0  0  0  0
   25.5792  -14.2383  -17.3863 N   0  0  0  0  0  0  0  0  0  0  0  0
   26.8698  -12.2518  -18.0506 C   0  0  0  0  0  0  0  0  0  0  0  0
   28.1138  -12.3725  -18.1774 O   0  0  0  0  0  0  0  0  0  0  0  0
   26.1938  -11.3914  -18.9382 N   0  0  0  0  0  0  0  0  0  0  0  0
   25.7221  -10.0685  -18.4948 C   0  0  0  0  0  0  0  0  0  0  0  0
   26.8282   -9.1975  -18.1216 C   0  0  0  0  0  0  0  0  0  0  0  0
   26.8828   -8.7080  -16.9766 O   0  0  0  0  0  0  0  0  0  0  0  0
   27.8316   -8.8980  -19.0211 O   0  0  0  0  0  0  0  0  0  0  0  0
  2  3  2  0
  2  1  1  0
  4  2  1  0
  5  6  1  1
  5  4  1  0
  7  5  1  0
  7  8  2  0
  9 10  1  0
 10 12  1  0
 11 10  2  0
 13 12  1  1
 13 14  1  0
 13 15  1  0
 14  7  1  0
 15 16  2  0
 15 17  1  0
 17 18  1  0
 19 21  1  0
 19 18  1  0
 20 19  2  0
M  END
$$$$
