NNG.pdb
     RDKit          3D

 21 20  0  0  1  0  0  0  0  0999 V2000
   27.9789  -20.3710  -18.1714 N   0  0  0  0  0  0  0  0  0  0  0  0
   26.7333  -19.8805  -17.7129 C   0  0  0  0  0  0  0  0  0  0  0  0
   26.1755  -18.9912  -18.4427 O   0  0  0  0  0  0  0  0  0  0  0  0
   26.0576  -20.3149  -16.4845 C   0  0  0  0  0  0  0  0  0  0  0  0
   26.9267  -21.3094  -15.7531 C   0  0  2  0  0  0  0  0  0  0  0  0
   26.9672  -22.5903  -16.4016 N   0  0  0  0  0  0  0  0  0  0  0  0
   26.4236  -21.5092  -14.3534 C   0  0  0  0  0  0  0  0  0  0  0  0
   25.5229  -22.3467  -14.1090 O   0  0  0  0  0  0  0  0  0  0  0  0
   30.0027  -20.4731  -11.2302 N   0  0  0  0  0  0  0  0  0  0  0  0
   28.7773  -21.0915  -10.8619 C   0  0  0  0  0  0  0  0  0  0  0  0
   28.8404  -22.2913  -10.4964 O   0  0  0  0  0  0  0  0  0  0  0  0
   27.5006  -20.3991  -10.8955 C   0  0  0  0  0  0  0  0  0  0  0  0
   26.5208  -20.7995  -11.9294 C   0  0  2  0  0  0  0  0  0  0  0  0
   26.9664  -20.7489  -13.2903 N   0  0  0  0  0  0  0  0  0  0  0  0
   25.1328  -20.3097  -11.7098 C   0  0  0  0  0  0  0  0  0  0  0  0
   24.8128  -19.2386  -12.2830 O   0  0  0  0  0  0  0  0  0  0  0  0
   24.1639  -20.9486  -10.9109 N   0  0  0  0  0  0  0  0  0  0  0  0
   22.8272  -20.3577  -10.7284 C   0  0  0  0  0  0  0  0  0  0  0  0
   21.8736  -20.8661  -11.7049 C   0  0  0  0  0  0  0  0  0  0  0  0
   22.2547  -21.6230  -12.6190 O   0  0  0  0  0  0  0  0  0  0  0  0
   20.5380  -20.5232  -11.6391 O   0  0  0  0  0  0  0  0  0  0  0  0
  2  3  2  0
  2  1  1  0
  4  2  1  0
  5  6  1  6
  5  4  1  0
  7  5  1  0
  7  8  2  0
  9 10  1  0
 10 12  1  0
 11 10  2  0
 13 12  1  1
 13 14  1  0
 13 15  1  0
 14  7  1  0
 15 16  2  0
 15 17  1  0
 17 18  1  0
 19 21  1  0
 19 18  1  0
 20 19  2  0
M  END
$$$$
