NNG.pdb
     RDKit          3D

 21 20  0  0  1  0  0  0  0  0999 V2000
   21.0815   -9.5400  -22.0465 N   0  0  0  0  0  0  0  0  0  0  0  0
   21.6197   -8.6630  -21.0751 C   0  0  0  0  0  0  0  0  0  0  0  0
   22.8921   -8.6744  -20.9499 O   0  0  0  0  0  0  0  0  0  0  0  0
   20.8319   -7.7645  -20.2229 C   0  0  0  0  0  0  0  0  0  0  0  0
   20.9863   -8.1727  -18.7776 C   0  0  2  0  0  0  0  0  0  0  0  0
   20.2795   -9.3838  -18.4667 N   0  0  0  0  0  0  0  0  0  0  0  0
   20.4772   -7.0885  -17.8737 C   0  0  0  0  0  0  0  0  0  0  0  0
   19.2711   -6.7463  -17.8984 O   0  0  0  0  0  0  0  0  0  0  0  0
   19.6234   -7.6575  -14.8251 N   0  0  0  0  0  0  0  0  0  0  0  0
   20.4330   -6.7819  -14.0518 C   0  0  0  0  0  0  0  0  0  0  0  0
   20.4860   -7.0079  -12.8177 O   0  0  0  0  0  0  0  0  0  0  0  0
   21.1735   -5.6733  -14.6290 C   0  0  0  0  0  0  0  0  0  0  0  0
   20.9930   -5.3937  -16.0707 C   0  0  2  0  0  0  0  0  0  0  0  0
   21.3607   -6.4394  -16.9787 N   0  0  0  0  0  0  0  0  0  0  0  0
   21.3859   -4.0253  -16.5043 C   0  0  0  0  0  0  0  0  0  0  0  0
   22.6130   -3.8151  -16.6727 O   0  0  0  0  0  0  0  0  0  0  0  0
   20.4938   -2.9589  -16.7318 N   0  0  0  0  0  0  0  0  0  0  0  0
   20.9779   -1.6665  -17.2464 C   0  0  0  0  0  0  0  0  0  0  0  0
   21.5107   -0.8265  -16.1825 C   0  0  0  0  0  0  0  0  0  0  0  0
   21.5300   -1.2398  -15.0067 O   0  0  0  0  0  0  0  0  0  0  0  0
   22.0017    0.4353  -16.4518 O   0  0  0  0  0  0  0  0  0  0  0  0
  2  3  2  0
  2  1  1  0
  4  2  1  0
  5  6  1  6
  5  4  1  0
  7  5  1  0
  7  8  2  0
  9 10  1  0
 10 12  1  0
 11 10  2  0
 13 12  1  1
 13 14  1  0
 13 15  1  0
 14  7  1  0
 15 16  2  0
 15 17  1  0
 17 18  1  0
 19 21  1  0
 19 18  1  0
 20 19  2  0
M  END
$$$$
