NNG.pdb
     RDKit          3D

 21 20  0  0  1  0  0  0  0  0999 V2000
   29.0896  -18.2155  -16.6060 N   0  0  0  0  0  0  0  0  0  0  0  0
   27.8545  -17.6707  -16.1816 C   0  0  0  0  0  0  0  0  0  0  0  0
   27.6697  -16.4310  -16.4343 O   0  0  0  0  0  0  0  0  0  0  0  0
   26.7988  -18.4173  -15.4870 C   0  0  0  0  0  0  0  0  0  0  0  0
   27.2969  -19.8015  -15.1478 C   0  0  2  0  0  0  0  0  0  0  0  0
   27.7509  -20.5243  -16.3031 N   0  0  0  0  0  0  0  0  0  0  0  0
   26.2078  -20.6005  -14.4940 C   0  0  0  0  0  0  0  0  0  0  0  0
   25.3992  -21.2668  -15.1829 O   0  0  0  0  0  0  0  0  0  0  0  0
   25.6747  -19.4441  -10.1464 N   0  0  0  0  0  0  0  0  0  0  0  0
   25.6983  -20.8531   -9.9622 C   0  0  0  0  0  0  0  0  0  0  0  0
   26.0086  -21.2655   -8.8173 O   0  0  0  0  0  0  0  0  0  0  0  0
   25.3848  -21.7947  -11.0232 C   0  0  0  0  0  0  0  0  0  0  0  0
   25.0320  -21.2499  -12.3528 C   0  0  2  0  0  0  0  0  0  0  0  0
   26.0844  -20.6091  -13.0842 N   0  0  0  0  0  0  0  0  0  0  0  0
   23.7143  -20.5621  -12.4260 C   0  0  0  0  0  0  0  0  0  0  0  0
   23.6011  -19.4856  -11.7882 O   0  0  0  0  0  0  0  0  0  0  0  0
   22.5953  -21.0268  -13.1450 N   0  0  0  0  0  0  0  0  0  0  0  0
   21.3293  -20.2742  -13.1403 C   0  0  0  0  0  0  0  0  0  0  0  0
   20.2363  -21.0585  -12.5819 C   0  0  0  0  0  0  0  0  0  0  0  0
   20.4313  -22.2331  -12.2132 O   0  0  0  0  0  0  0  0  0  0  0  0
   18.9714  -20.5217  -12.4502 O   0  0  0  0  0  0  0  0  0  0  0  0
  2  3  2  0
  2  1  1  0
  4  2  1  0
  5  6  1  6
  5  4  1  0
  7  5  1  0
  7  8  2  0
  9 10  1  0
 10 12  1  0
 11 10  2  0
 13 12  1  1
 13 14  1  0
 13 15  1  0
 14  7  1  0
 15 16  2  0
 15 17  1  0
 17 18  1  0
 19 21  1  0
 19 18  1  0
 20 19  2  0
M  END
$$$$
