NNG.pdb
     RDKit          3D

 21 20  0  0  1  0  0  0  0  0999 V2000
   16.4654  -12.7189  -15.1708 N   0  0  0  0  0  0  0  0  0  0  0  0
   17.8323  -12.8068  -14.8156 C   0  0  0  0  0  0  0  0  0  0  0  0
   18.1354  -13.7103  -13.9633 O   0  0  0  0  0  0  0  0  0  0  0  0
   18.8977  -11.9490  -15.3482 C   0  0  0  0  0  0  0  0  0  0  0  0
   18.3118  -10.9666  -16.3336 C   0  0  2  0  0  0  0  0  0  0  0  0
   17.7826  -11.6076  -17.5050 N   0  0  0  0  0  0  0  0  0  0  0  0
   19.3569   -9.9823  -16.7704 C   0  0  0  0  0  0  0  0  0  0  0  0
   19.8638  -10.0506  -17.9153 O   0  0  0  0  0  0  0  0  0  0  0  0
   20.7913   -5.0042  -18.6626 N   0  0  0  0  0  0  0  0  0  0  0  0
   21.2670   -6.1410  -17.9545 C   0  0  0  0  0  0  0  0  0  0  0  0
   22.4906   -6.1565  -17.6725 O   0  0  0  0  0  0  0  0  0  0  0  0
   20.4078   -7.2449  -17.5625 C   0  0  0  0  0  0  0  0  0  0  0  0
   20.6394   -7.8694  -16.2412 C   0  0  2  0  0  0  0  0  0  0  0  0
   19.7811   -8.9609  -15.8874 N   0  0  0  0  0  0  0  0  0  0  0  0
   20.9271   -6.9186  -15.1332 C   0  0  0  0  0  0  0  0  0  0  0  0
   19.9526   -6.2715  -14.6749 O   0  0  0  0  0  0  0  0  0  0  0  0
   22.1981   -6.6891  -14.5703 N   0  0  0  0  0  0  0  0  0  0  0  0
   22.3925   -5.6523  -13.5425 C   0  0  0  0  0  0  0  0  0  0  0  0
   22.1602   -4.3156  -14.0725 C   0  0  0  0  0  0  0  0  0  0  0  0
   21.8789   -4.1581  -15.2765 O   0  0  0  0  0  0  0  0  0  0  0  0
   22.2459   -3.2038  -13.2588 O   0  0  0  0  0  0  0  0  0  0  0  0
  2  3  2  0
  2  1  1  0
  4  2  1  0
  5  6  1  6
  5  4  1  0
  7  5  1  0
  7  8  2  0
  9 10  1  0
 10 12  1  0
 11 10  2  0
 13 12  1  6
 13 14  1  0
 13 15  1  0
 14  7  1  0
 15 16  2  0
 15 17  1  0
 17 18  1  0
 19 21  1  0
 19 18  1  0
 20 19  2  0
M  END
$$$$
