NNG.pdb
     RDKit          3D

 21 20  0  0  1  0  0  0  0  0999 V2000
   15.9048  -11.9554  -16.0330 N   0  0  0  0  0  0  0  0  0  0  0  0
   16.3441  -11.0654  -15.0245 C   0  0  0  0  0  0  0  0  0  0  0  0
   15.4357  -10.5816  -14.2660 O   0  0  0  0  0  0  0  0  0  0  0  0
   17.7398  -10.6709  -14.7989 C   0  0  0  0  0  0  0  0  0  0  0  0
   18.6262  -11.3369  -15.8236 C   0  0  2  0  0  0  0  0  0  0  0  0
   18.6943  -12.7615  -15.6534 N   0  0  0  0  0  0  0  0  0  0  0  0
   20.0205  -10.7884  -15.7403 C   0  0  0  0  0  0  0  0  0  0  0  0
   20.7776  -11.1022  -14.7913 O   0  0  0  0  0  0  0  0  0  0  0  0
   24.4956   -8.2185  -17.0803 N   0  0  0  0  0  0  0  0  0  0  0  0
   24.0241   -9.2212  -17.9703 C   0  0  0  0  0  0  0  0  0  0  0  0
   24.8310   -9.6209  -18.8455 O   0  0  0  0  0  0  0  0  0  0  0  0
   22.6834   -9.7759  -17.8978 C   0  0  0  0  0  0  0  0  0  0  0  0
   21.8120   -9.3422  -16.7833 C   0  0  2  0  0  0  0  0  0  0  0  0
   20.4957   -9.9067  -16.7401 N   0  0  0  0  0  0  0  0  0  0  0  0
   21.8792   -7.8923  -16.4545 C   0  0  0  0  0  0  0  0  0  0  0  0
   21.2597   -7.1094  -17.2170 O   0  0  0  0  0  0  0  0  0  0  0  0
   22.5830   -7.3389  -15.3666 N   0  0  0  0  0  0  0  0  0  0  0  0
   22.4338   -5.9161  -15.0164 C   0  0  0  0  0  0  0  0  0  0  0  0
   21.4766   -5.7231  -13.9356 C   0  0  0  0  0  0  0  0  0  0  0  0
   20.2573   -5.6479  -14.1831 O   0  0  0  0  0  0  0  0  0  0  0  0
   21.8964   -5.6202  -12.6245 O   0  0  0  0  0  0  0  0  0  0  0  0
  2  3  2  0
  2  1  1  0
  4  2  1  0
  5  6  1  1
  5  4  1  0
  7  5  1  0
  7  8  2  0
  9 10  1  0
 10 12  1  0
 11 10  2  0
 13 12  1  6
 13 14  1  0
 13 15  1  0
 14  7  1  0
 15 16  2  0
 15 17  1  0
 17 18  1  0
 19 21  1  0
 19 18  1  0
 20 19  2  0
M  END
$$$$
