VNT.pdb
     RDKit          3D

 23 22  0  0  1  0  0  0  0  0999 V2000
    8.1499  -12.6114   20.8020 C   0  0  0  0  0  0  0  0  0  0  0  0
    7.7572  -13.4638   19.6076 C   0  0  1  0  0  0  0  0  0  0  0  0
    8.1483  -12.7752   18.3428 C   0  0  0  0  0  0  0  0  0  0  0  0
    8.2997  -14.8678   19.7381 C   0  0  2  0  0  0  0  0  0  0  0  0
    7.9348  -15.5617   18.5322 N   0  0  0  0  0  0  0  0  0  0  0  0
    7.7534  -15.5818   20.9043 C   0  0  0  0  0  0  0  0  0  0  0  0
    6.9649  -16.5631   20.7677 O   0  0  0  0  0  0  0  0  0  0  0  0
    7.7766  -17.5710   25.6420 N   0  0  0  0  0  0  0  0  0  0  0  0
    8.6912  -17.9633   24.6343 C   0  0  0  0  0  0  0  0  0  0  0  0
    9.4620  -18.9258   24.8788 O   0  0  0  0  0  0  0  0  0  0  0  0
    8.7868  -17.3028   23.3139 C   0  0  0  0  0  0  0  0  0  0  0  0
    8.2266  -15.8986   23.4020 C   0  0  2  0  0  0  0  0  0  0  0  0
    8.1123  -15.1706   22.1947 N   0  0  0  0  0  0  0  0  0  0  0  0
    8.6687  -15.1426   24.5797 C   0  0  0  0  0  0  0  0  0  0  0  0
    9.8774  -14.9644   24.8811 O   0  0  0  0  0  0  0  0  0  0  0  0
    6.5781  -11.7738   25.8646 C   0  0  0  0  0  0  0  0  0  0  0  0
    6.9339  -12.7994   26.9235 C   0  0  1  0  0  0  0  0  0  0  0  0
    5.8594  -13.6891   26.9873 O   0  0  0  0  0  0  0  0  0  0  0  0
    8.1430  -13.6186   26.5192 C   0  0  2  0  0  0  0  0  0  0  0  0
    7.7134  -14.5466   25.4768 N   0  0  0  0  0  0  0  0  0  0  0  0
    8.5154  -14.4658   27.7091 C   0  0  0  0  0  0  0  0  0  0  0  0
    9.0664  -13.8250   28.8070 O   0  0  0  0  0  0  0  0  0  0  0  0
    8.3368  -15.7178   27.7167 O   0  0  0  0  0  0  0  0  0  0  0  0
  2  1  1  1
  2  3  1  0
  4  2  1  0
  4  5  1  6
  6  4  1  0
  6  7  2  0
  8  9  1  0
  9 11  1  0
 10  9  2  0
 12 11  1  6
 12 13  1  0
 13  6  1  0
 14 12  1  0
 15 14  2  0
 17 16  1  6
 17 18  1  0
 19 20  1  6
 19 17  1  0
 20 14  1  0
 21 19  1  0
 22 21  1  0
 23 21  2  0
M  END
$$$$
