VNT.pdb
     RDKit          3D

 23 22  0  0  1  0  0  0  0  0999 V2000
    8.2156  -12.4389   20.9228 C   0  0  0  0  0  0  0  0  0  0  0  0
    7.6083  -13.4256   19.9405 C   0  0  1  0  0  0  0  0  0  0  0  0
    7.6228  -12.8462   18.5654 C   0  0  0  0  0  0  0  0  0  0  0  0
    8.2722  -14.7786   20.0463 C   0  0  2  0  0  0  0  0  0  0  0  0
    7.6617  -15.6138   19.0470 N   0  0  0  0  0  0  0  0  0  0  0  0
    8.1033  -15.3921   21.3742 C   0  0  0  0  0  0  0  0  0  0  0  0
    6.9933  -15.8789   21.7402 O   0  0  0  0  0  0  0  0  0  0  0  0
   10.3794  -18.7873   21.8727 N   0  0  0  0  0  0  0  0  0  0  0  0
    9.6671  -18.2660   22.9802 C   0  0  0  0  0  0  0  0  0  0  0  0
    8.5604  -18.7877   23.2691 O   0  0  0  0  0  0  0  0  0  0  0  0
   10.1550  -17.1441   23.8123 C   0  0  0  0  0  0  0  0  0  0  0  0
    9.2916  -15.9218   23.5811 C   0  0  2  0  0  0  0  0  0  0  0  0
    9.1922  -15.4412   22.2545 N   0  0  0  0  0  0  0  0  0  0  0  0
    9.3832  -14.9066   24.6370 C   0  0  0  0  0  0  0  0  0  0  0  0
   10.4235  -14.2400   24.8756 O   0  0  0  0  0  0  0  0  0  0  0  0
    6.7301  -11.9854   25.7135 C   0  0  0  0  0  0  0  0  0  0  0  0
    7.0121  -13.0248   26.7811 C   0  0  1  0  0  0  0  0  0  0  0  0
    6.0685  -14.0388   26.6029 O   0  0  0  0  0  0  0  0  0  0  0  0
    8.3708  -13.6669   26.5861 C   0  0  2  0  0  0  0  0  0  0  0  0
    8.2530  -14.6112   25.4784 N   0  0  0  0  0  0  0  0  0  0  0  0
    8.6446  -14.4940   27.8164 C   0  0  0  0  0  0  0  0  0  0  0  0
    8.9166  -13.8204   28.9961 O   0  0  0  0  0  0  0  0  0  0  0  0
    8.6301  -15.7582   27.7851 O   0  0  0  0  0  0  0  0  0  0  0  0
  2  1  1  1
  2  3  1  0
  4  2  1  0
  4  5  1  6
  6  4  1  0
  6  7  2  0
  8  9  1  0
  9 11  1  0
 10  9  2  0
 12 11  1  6
 12 13  1  0
 13  6  1  0
 14 12  1  0
 15 14  2  0
 17 16  1  6
 17 18  1  0
 19 20  1  6
 19 17  1  0
 20 14  1  0
 21 19  1  0
 22 21  1  0
 23 21  2  0
M  END
$$$$
