VNT.pdb
     RDKit          3D

 23 22  0  0  1  0  0  0  0  0999 V2000
    8.4214  -12.5646   20.7192 C   0  0  0  0  0  0  0  0  0  0  0  0
    7.7569  -13.5069   19.7303 C   0  0  1  0  0  0  0  0  0  0  0  0
    7.7681  -12.9011   18.3666 C   0  0  0  0  0  0  0  0  0  0  0  0
    8.3688  -14.8867   19.7968 C   0  0  2  0  0  0  0  0  0  0  0  0
    7.7124  -15.6750   18.7886 N   0  0  0  0  0  0  0  0  0  0  0  0
    8.1944  -15.5227   21.1134 C   0  0  0  0  0  0  0  0  0  0  0  0
    7.0522  -15.8768   21.5293 O   0  0  0  0  0  0  0  0  0  0  0  0
   10.6866  -18.9979   21.7189 N   0  0  0  0  0  0  0  0  0  0  0  0
    9.9552  -18.4940   22.8220 C   0  0  0  0  0  0  0  0  0  0  0  0
    8.9099  -19.1024   23.1649 O   0  0  0  0  0  0  0  0  0  0  0  0
   10.3551  -17.2939   23.5894 C   0  0  0  0  0  0  0  0  0  0  0  0
    9.4139  -16.1494   23.2774 C   0  0  2  0  0  0  0  0  0  0  0  0
    9.3141  -15.7437   21.9260 N   0  0  0  0  0  0  0  0  0  0  0  0
    9.4075  -15.0791   24.2816 C   0  0  0  0  0  0  0  0  0  0  0  0
   10.3571  -14.2696   24.4445 O   0  0  0  0  0  0  0  0  0  0  0  0
    6.6044  -12.1707   27.1314 C   0  0  0  0  0  0  0  0  0  0  0  0
    6.7676  -13.4476   26.3298 C   0  0  1  0  0  0  0  0  0  0  0  0
    6.2015  -13.2016   25.0771 O   0  0  0  0  0  0  0  0  0  0  0  0
    8.2285  -13.7658   26.0831 C   0  0  2  0  0  0  0  0  0  0  0  0
    8.2797  -14.8936   25.1570 N   0  0  0  0  0  0  0  0  0  0  0  0
    8.7936  -14.2669   27.3877 C   0  0  0  0  0  0  0  0  0  0  0  0
    9.0440  -13.3334   28.3804 O   0  0  0  0  0  0  0  0  0  0  0  0
    9.0355  -15.4931   27.5809 O   0  0  0  0  0  0  0  0  0  0  0  0
  2  1  1  1
  2  3  1  0
  4  2  1  0
  4  5  1  6
  6  4  1  0
  6  7  2  0
  8  9  1  0
  9 11  1  0
 10  9  2  0
 12 11  1  6
 12 13  1  0
 13  6  1  0
 14 12  1  0
 15 14  2  0
 17 16  1  1
 17 18  1  0
 19 20  1  6
 19 17  1  0
 20 14  1  0
 21 19  1  0
 22 21  1  0
 23 21  2  0
M  END
$$$$
