VNT.pdb
     RDKit          3D

 23 22  0  0  1  0  0  0  0  0999 V2000
    8.3947  -12.6550   21.0303 C   0  0  0  0  0  0  0  0  0  0  0  0
    7.5727  -13.4797   20.0548 C   0  0  1  0  0  0  0  0  0  0  0  0
    7.3993  -12.7291   18.7767 C   0  0  0  0  0  0  0  0  0  0  0  0
    8.1565  -14.8626   19.8831 C   0  0  2  0  0  0  0  0  0  0  0  0
    7.3440  -15.5315   18.9028 N   0  0  0  0  0  0  0  0  0  0  0  0
    8.1596  -15.6375   21.1352 C   0  0  0  0  0  0  0  0  0  0  0  0
    7.0872  -16.0878   21.6354 O   0  0  0  0  0  0  0  0  0  0  0  0
    9.9739  -17.8103   25.4707 N   0  0  0  0  0  0  0  0  0  0  0  0
   10.5444  -18.4026   24.3176 C   0  0  0  0  0  0  0  0  0  0  0  0
   11.1764  -19.4801   24.4586 O   0  0  0  0  0  0  0  0  0  0  0  0
   10.4358  -17.8225   22.9609 C   0  0  0  0  0  0  0  0  0  0  0  0
    9.6502  -16.5292   23.0183 C   0  0  2  0  0  0  0  0  0  0  0  0
    9.3734  -15.8850   21.7898 N   0  0  0  0  0  0  0  0  0  0  0  0
    9.9983  -15.6582   24.1471 C   0  0  0  0  0  0  0  0  0  0  0  0
   11.0696  -15.0018   24.2173 O   0  0  0  0  0  0  0  0  0  0  0  0
    6.9903  -14.1143   26.6920 C   0  0  0  0  0  0  0  0  0  0  0  0
    8.3560  -13.5255   26.3954 C   0  0  1  0  0  0  0  0  0  0  0  0
    8.6672  -12.6906   27.4708 O   0  0  0  0  0  0  0  0  0  0  0  0
    9.4274  -14.5966   26.3624 C   0  0  2  0  0  0  0  0  0  0  0  0
    9.1043  -15.5042   25.2650 N   0  0  0  0  0  0  0  0  0  0  0  0
    9.2819  -15.4003   27.6295 C   0  0  0  0  0  0  0  0  0  0  0  0
    9.7212  -14.8237   28.8102 O   0  0  0  0  0  0  0  0  0  0  0  0
    8.7792  -16.5608   27.6275 O   0  0  0  0  0  0  0  0  0  0  0  0
  2  1  1  1
  2  3  1  0
  4  2  1  0
  4  5  1  6
  6  4  1  0
  6  7  2  0
  8  9  1  0
  9 11  1  0
 10  9  2  0
 12 11  1  6
 12 13  1  0
 13  6  1  0
 14 12  1  0
 15 14  2  0
 17 16  1  1
 17 18  1  0
 19 20  1  6
 19 17  1  0
 20 14  1  0
 21 19  1  0
 22 21  1  0
 23 21  2  0
M  END
$$$$
