VNT.pdb
     RDKit          3D

 23 22  0  0  1  0  0  0  0  0999 V2000
    8.3801  -18.5038   16.4437 C   0  0  0  0  0  0  0  0  0  0  0  0
    8.9470  -17.8023   17.6660 C   0  0  1  0  0  0  0  0  0  0  0  0
    9.4206  -18.8130   18.6565 C   0  0  0  0  0  0  0  0  0  0  0  0
    9.9937  -16.7856   17.2745 C   0  0  2  0  0  0  0  0  0  0  0  0
   11.1177  -17.5280   16.7705 N   0  0  0  0  0  0  0  0  0  0  0  0
   10.4221  -15.9466   18.4062 C   0  0  0  0  0  0  0  0  0  0  0  0
   11.5795  -16.0560   18.9080 O   0  0  0  0  0  0  0  0  0  0  0  0
    6.4032  -12.7365   19.1780 N   0  0  0  0  0  0  0  0  0  0  0  0
    7.3537  -13.3032   20.0620 C   0  0  0  0  0  0  0  0  0  0  0  0
    6.9595  -14.1850   20.8666 O   0  0  0  0  0  0  0  0  0  0  0  0
    8.7808  -12.9138   20.0881 C   0  0  0  0  0  0  0  0  0  0  0  0
    9.6504  -14.1533   20.0650 C   0  0  2  0  0  0  0  0  0  0  0  0
    9.5336  -15.0049   18.9415 N   0  0  0  0  0  0  0  0  0  0  0  0
    9.8032  -14.8108   21.3682 C   0  0  0  0  0  0  0  0  0  0  0  0
   10.0639  -14.1948   22.4341 O   0  0  0  0  0  0  0  0  0  0  0  0
    7.6464  -18.0359   22.6908 C   0  0  0  0  0  0  0  0  0  0  0  0
    9.1500  -18.2270   22.7379 C   0  0  1  0  0  0  0  0  0  0  0  0
    9.5083  -18.8326   21.5315 O   0  0  0  0  0  0  0  0  0  0  0  0
    9.8777  -16.8984   22.7812 C   0  0  2  0  0  0  0  0  0  0  0  0
    9.6567  -16.2371   21.4982 N   0  0  0  0  0  0  0  0  0  0  0  0
   11.3515  -17.2086   22.8462 C   0  0  0  0  0  0  0  0  0  0  0  0
   11.8662  -17.6319   24.0608 O   0  0  0  0  0  0  0  0  0  0  0  0
   12.1017  -17.0898   21.8350 O   0  0  0  0  0  0  0  0  0  0  0  0
  2  1  1  6
  2  3  1  0
  4  2  1  0
  4  5  1  1
  6  4  1  0
  6  7  2  0
  8  9  1  0
  9 11  1  0
 10  9  2  0
 12 11  1  1
 12 13  1  0
 13  6  1  0
 14 12  1  0
 15 14  2  0
 17 16  1  6
 17 18  1  0
 19 20  1  6
 19 17  1  0
 20 14  1  0
 21 19  1  0
 22 21  1  0
 23 21  2  0
M  END
$$$$
