VNT.pdb
     RDKit          3D

 23 22  0  0  1  0  0  0  0  0999 V2000
    8.4245  -12.5617   21.1543 C   0  0  0  0  0  0  0  0  0  0  0  0
    7.6799  -13.4114   20.1389 C   0  0  1  0  0  0  0  0  0  0  0  0
    7.8482  -12.8336   18.7734 C   0  0  0  0  0  0  0  0  0  0  0  0
    8.0793  -14.8645   20.2468 C   0  0  2  0  0  0  0  0  0  0  0  0
    7.4319  -15.5490   19.1600 N   0  0  0  0  0  0  0  0  0  0  0  0
    7.6738  -15.4718   21.5255 C   0  0  0  0  0  0  0  0  0  0  0  0
    6.4536  -15.5955   21.8400 O   0  0  0  0  0  0  0  0  0  0  0  0
    6.8630  -18.4575   25.7885 N   0  0  0  0  0  0  0  0  0  0  0  0
    8.1222  -18.4527   25.1402 C   0  0  0  0  0  0  0  0  0  0  0  0
    9.1244  -18.8381   25.7939 O   0  0  0  0  0  0  0  0  0  0  0  0
    8.3195  -18.0199   23.7392 C   0  0  0  0  0  0  0  0  0  0  0  0
    8.5460  -16.5233   23.6927 C   0  0  2  0  0  0  0  0  0  0  0  0
    8.6562  -15.9249   22.4157 N   0  0  0  0  0  0  0  0  0  0  0  0
    9.4496  -16.0145   24.7312 C   0  0  0  0  0  0  0  0  0  0  0  0
   10.6828  -15.8357   24.5565 O   0  0  0  0  0  0  0  0  0  0  0  0
    8.7539  -13.9085   29.0133 C   0  0  0  0  0  0  0  0  0  0  0  0
    9.0103  -13.7960   27.5229 C   0  0  1  0  0  0  0  0  0  0  0  0
    9.8218  -12.6733   27.3463 O   0  0  0  0  0  0  0  0  0  0  0  0
    9.8010  -14.9802   27.0044 C   0  0  2  0  0  0  0  0  0  0  0  0
    8.9561  -15.6823   26.0423 N   0  0  0  0  0  0  0  0  0  0  0  0
    9.9892  -15.9230   28.1655 C   0  0  0  0  0  0  0  0  0  0  0  0
   10.8312  -15.5212   29.1897 O   0  0  0  0  0  0  0  0  0  0  0  0
    9.4052  -17.0438   28.2140 O   0  0  0  0  0  0  0  0  0  0  0  0
  2  1  1  1
  2  3  1  0
  4  2  1  0
  4  5  1  6
  6  4  1  0
  6  7  2  0
  8  9  1  0
  9 11  1  0
 10  9  2  0
 12 11  1  6
 12 13  1  0
 13  6  1  0
 14 12  1  0
 15 14  2  0
 17 16  1  1
 17 18  1  0
 19 20  1  6
 19 17  1  0
 20 14  1  0
 21 19  1  0
 22 21  1  0
 23 21  2  0
M  END
$$$$
