VNT.pdb
     RDKit          3D

 23 22  0  0  1  0  0  0  0  0999 V2000
    8.3502  -12.4166   20.8806 C   0  0  0  0  0  0  0  0  0  0  0  0
    7.6087  -13.3998   19.9912 C   0  0  1  0  0  0  0  0  0  0  0  0
    7.5622  -12.8826   18.5922 C   0  0  0  0  0  0  0  0  0  0  0  0
    8.1866  -14.7902   20.1155 C   0  0  2  0  0  0  0  0  0  0  0  0
    7.4543  -15.6217   19.1984 N   0  0  0  0  0  0  0  0  0  0  0  0
    8.0693  -15.3345   21.4786 C   0  0  0  0  0  0  0  0  0  0  0  0
    6.9470  -15.6634   21.9638 O   0  0  0  0  0  0  0  0  0  0  0  0
    9.3509  -19.1362   22.9137 N   0  0  0  0  0  0  0  0  0  0  0  0
   10.2617  -18.0542   22.8393 C   0  0  0  0  0  0  0  0  0  0  0  0
   11.0113  -17.9815   21.8327 O   0  0  0  0  0  0  0  0  0  0  0  0
   10.3769  -17.0087   23.8797 C   0  0  0  0  0  0  0  0  0  0  0  0
    9.3826  -15.9002   23.6042 C   0  0  2  0  0  0  0  0  0  0  0  0
    9.2221  -15.4947   22.2586 N   0  0  0  0  0  0  0  0  0  0  0  0
    9.3689  -14.8339   24.6125 C   0  0  0  0  0  0  0  0  0  0  0  0
   10.3206  -14.0302   24.7910 O   0  0  0  0  0  0  0  0  0  0  0  0
    6.3739  -12.2437   25.5580 C   0  0  0  0  0  0  0  0  0  0  0  0
    6.8109  -13.1472   26.6949 C   0  0  1  0  0  0  0  0  0  0  0  0
    6.0079  -14.2875   26.6231 O   0  0  0  0  0  0  0  0  0  0  0  0
    8.2394  -13.6187   26.5120 C   0  0  2  0  0  0  0  0  0  0  0  0
    8.2310  -14.6459   25.4741 N   0  0  0  0  0  0  0  0  0  0  0  0
    8.6376  -14.3142   27.7887 C   0  0  0  0  0  0  0  0  0  0  0  0
    8.8335  -13.5298   28.9137 O   0  0  0  0  0  0  0  0  0  0  0  0
    8.7910  -15.5684   27.8434 O   0  0  0  0  0  0  0  0  0  0  0  0
  2  1  1  1
  2  3  1  0
  4  2  1  0
  4  5  1  6
  6  4  1  0
  6  7  2  0
  8  9  1  0
  9 11  1  0
 10  9  2  0
 12 11  1  6
 12 13  1  0
 13  6  1  0
 14 12  1  0
 15 14  2  0
 17 16  1  6
 17 18  1  0
 19 20  1  6
 19 17  1  0
 20 14  1  0
 21 19  1  0
 22 21  1  0
 23 21  2  0
M  END
$$$$
