VNT.pdb
     RDKit          3D

 23 22  0  0  1  0  0  0  0  0999 V2000
    8.3556  -12.0514   20.1184 C   0  0  0  0  0  0  0  0  0  0  0  0
    7.5213  -13.3066   19.9288 C   0  0  1  0  0  0  0  0  0  0  0  0
    7.1632  -13.4648   18.4888 C   0  0  0  0  0  0  0  0  0  0  0  0
    8.2060  -14.5120   20.5296 C   0  0  2  0  0  0  0  0  0  0  0  0
    7.2611  -15.5945   20.4649 N   0  0  0  0  0  0  0  0  0  0  0  0
    8.6150  -14.2951   21.9274 C   0  0  0  0  0  0  0  0  0  0  0  0
    9.7000  -13.7089   22.2144 O   0  0  0  0  0  0  0  0  0  0  0  0
    8.4894  -13.0513   26.9828 N   0  0  0  0  0  0  0  0  0  0  0  0
    7.2677  -13.5768   26.4958 C   0  0  0  0  0  0  0  0  0  0  0  0
    6.4233  -13.9819   27.3343 O   0  0  0  0  0  0  0  0  0  0  0  0
    6.9341  -13.6735   25.0576 C   0  0  0  0  0  0  0  0  0  0  0  0
    7.9046  -14.6097   24.3686 C   0  0  2  0  0  0  0  0  0  0  0  0
    7.7881  -14.7445   22.9653 N   0  0  0  0  0  0  0  0  0  0  0  0
    8.2001  -15.8359   25.1189 C   0  0  0  0  0  0  0  0  0  0  0  0
    7.3179  -16.5557   25.6547 O   0  0  0  0  0  0  0  0  0  0  0  0
    9.9391  -18.6865   23.5657 C   0  0  0  0  0  0  0  0  0  0  0  0
   10.7090  -18.3456   24.8269 C   0  0  1  0  0  0  0  0  0  0  0  0
   11.7079  -17.4462   24.4480 O   0  0  0  0  0  0  0  0  0  0  0  0
    9.8372  -17.6176   25.8302 C   0  0  2  0  0  0  0  0  0  0  0  0
    9.5553  -16.2930   25.2840 N   0  0  0  0  0  0  0  0  0  0  0  0
   10.6789  -17.3947   27.0608 C   0  0  0  0  0  0  0  0  0  0  0  0
   10.9665  -18.4958   27.8508 O   0  0  0  0  0  0  0  0  0  0  0  0
   11.1122  -16.2480   27.3718 O   0  0  0  0  0  0  0  0  0  0  0  0
  2  1  1  6
  2  3  1  0
  4  2  1  0
  4  5  1  1
  6  4  1  0
  6  7  2  0
  8  9  1  0
  9 11  1  0
 10  9  2  0
 12 11  1  1
 12 13  1  0
 13  6  1  0
 14 12  1  0
 15 14  2  0
 17 16  1  6
 17 18  1  0
 19 20  1  6
 19 17  1  0
 20 14  1  0
 21 19  1  0
 22 21  1  0
 23 21  2  0
M  END
$$$$
