VNT.pdb
     RDKit          3D

 23 22  0  0  1  0  0  0  0  0999 V2000
    9.0924  -12.2386   19.6232 C   0  0  0  0  0  0  0  0  0  0  0  0
    8.3462  -13.2852   18.8138 C   0  0  1  0  0  0  0  0  0  0  0  0
    7.4190  -12.6178   17.8539 C   0  0  0  0  0  0  0  0  0  0  0  0
    9.3036  -14.2602   18.1692 C   0  0  2  0  0  0  0  0  0  0  0  0
    8.5164  -15.0938   17.3007 N   0  0  0  0  0  0  0  0  0  0  0  0
   10.0093  -15.0982   19.1531 C   0  0  0  0  0  0  0  0  0  0  0  0
    9.4730  -16.1358   19.6419 O   0  0  0  0  0  0  0  0  0  0  0  0
   14.3793  -14.1348   18.0555 N   0  0  0  0  0  0  0  0  0  0  0  0
   13.9778  -15.2396   18.8455 C   0  0  0  0  0  0  0  0  0  0  0  0
   13.8867  -16.3624   18.2874 O   0  0  0  0  0  0  0  0  0  0  0  0
   13.6615  -15.1425   20.2875 C   0  0  0  0  0  0  0  0  0  0  0  0
   12.1751  -15.3389   20.5000 C   0  0  2  0  0  0  0  0  0  0  0  0
   11.3026  -14.7439   19.5590 N   0  0  0  0  0  0  0  0  0  0  0  0
   11.7518  -15.2883   21.9044 C   0  0  0  0  0  0  0  0  0  0  0  0
   12.4076  -14.7116   22.8104 O   0  0  0  0  0  0  0  0  0  0  0  0
    8.4049  -14.1109   23.4558 C   0  0  0  0  0  0  0  0  0  0  0  0
    8.6551  -15.5688   23.7901 C   0  0  1  0  0  0  0  0  0  0  0  0
    8.0439  -16.3152   22.7804 O   0  0  0  0  0  0  0  0  0  0  0  0
   10.1316  -15.9056   23.7359 C   0  0  2  0  0  0  0  0  0  0  0  0
   10.5267  -15.9132   22.3301 N   0  0  0  0  0  0  0  0  0  0  0  0
   10.2746  -17.3258   24.2206 C   0  0  0  0  0  0  0  0  0  0  0  0
   10.1113  -17.5618   25.5760 O   0  0  0  0  0  0  0  0  0  0  0  0
   10.5349  -18.2765   23.4281 O   0  0  0  0  0  0  0  0  0  0  0  0
  2  1  1  6
  2  3  1  0
  4  2  1  0
  4  5  1  6
  6  4  1  0
  6  7  2  0
  8  9  1  0
  9 11  1  0
 10  9  2  0
 12 11  1  1
 12 13  1  0
 13  6  1  0
 14 12  1  0
 15 14  2  0
 17 16  1  6
 17 18  1  0
 19 20  1  6
 19 17  1  0
 20 14  1  0
 21 19  1  0
 22 21  1  0
 23 21  2  0
M  END
$$$$
