VNT.pdb
     RDKit          3D

 23 22  0  0  1  0  0  0  0  0999 V2000
    8.2883  -12.7511   19.1775 C   0  0  0  0  0  0  0  0  0  0  0  0
    8.3067  -13.4544   20.5238 C   0  0  1  0  0  0  0  0  0  0  0  0
    7.1137  -13.0496   21.3237 C   0  0  0  0  0  0  0  0  0  0  0  0
    8.4583  -14.9483   20.3563 C   0  0  2  0  0  0  0  0  0  0  0  0
    7.4802  -15.3527   19.3824 N   0  0  0  0  0  0  0  0  0  0  0  0
    8.2405  -15.6858   21.6120 C   0  0  0  0  0  0  0  0  0  0  0  0
    7.0754  -15.9773   22.0128 O   0  0  0  0  0  0  0  0  0  0  0  0
   11.1052  -18.8477   21.6136 N   0  0  0  0  0  0  0  0  0  0  0  0
   11.0241  -18.4195   22.9611 C   0  0  0  0  0  0  0  0  0  0  0  0
   12.0983  -18.2314   23.5865 O   0  0  0  0  0  0  0  0  0  0  0  0
    9.7467  -18.1826   23.6690 C   0  0  0  0  0  0  0  0  0  0  0  0
    9.4157  -16.7051   23.6475 C   0  0  2  0  0  0  0  0  0  0  0  0
    9.3437  -16.0764   22.3824 N   0  0  0  0  0  0  0  0  0  0  0  0
   10.0376  -15.9289   24.7266 C   0  0  0  0  0  0  0  0  0  0  0  0
   11.1332  -15.3215   24.6072 O   0  0  0  0  0  0  0  0  0  0  0  0
    9.3976  -13.1040   28.6188 C   0  0  0  0  0  0  0  0  0  0  0  0
    8.8731  -14.1011   27.6037 C   0  0  1  0  0  0  0  0  0  0  0  0
    8.4010  -13.3524   26.5234 O   0  0  0  0  0  0  0  0  0  0  0  0
    9.9835  -14.9787   27.0622 C   0  0  2  0  0  0  0  0  0  0  0  0
    9.4063  -15.8179   26.0158 N   0  0  0  0  0  0  0  0  0  0  0  0
   10.3861  -15.9119   28.1755 C   0  0  0  0  0  0  0  0  0  0  0  0
   11.1737  -15.3972   29.1923 O   0  0  0  0  0  0  0  0  0  0  0  0
   10.0245  -17.1238   28.1914 O   0  0  0  0  0  0  0  0  0  0  0  0
  2  1  1  6
  2  3  1  0
  4  2  1  0
  4  5  1  6
  6  4  1  0
  6  7  2  0
  8  9  1  0
  9 11  1  0
 10  9  2  0
 12 11  1  6
 12 13  1  0
 13  6  1  0
 14 12  1  0
 15 14  2  0
 17 16  1  1
 17 18  1  0
 19 20  1  6
 19 17  1  0
 20 14  1  0
 21 19  1  0
 22 21  1  0
 23 21  2  0
M  END
$$$$
