VNT.pdb
     RDKit          3D

 23 22  0  0  1  0  0  0  0  0999 V2000
    8.7251  -12.7841   20.6263 C   0  0  0  0  0  0  0  0  0  0  0  0
    7.7941  -13.5815   19.7292 C   0  0  1  0  0  0  0  0  0  0  0  0
    7.2864  -12.7139   18.6263 C   0  0  0  0  0  0  0  0  0  0  0  0
    8.4521  -14.8569   19.2570 C   0  0  2  0  0  0  0  0  0  0  0  0
    7.5114  -15.5035   18.3820 N   0  0  0  0  0  0  0  0  0  0  0  0
    8.7990  -15.7615   20.3659 C   0  0  0  0  0  0  0  0  0  0  0  0
    7.9145  -16.4422   20.9638 O   0  0  0  0  0  0  0  0  0  0  0  0
   11.7583  -19.3338   20.4425 N   0  0  0  0  0  0  0  0  0  0  0  0
   12.1405  -17.9701   20.4525 C   0  0  0  0  0  0  0  0  0  0  0  0
   12.5246  -17.4567   19.3712 O   0  0  0  0  0  0  0  0  0  0  0  0
   12.1114  -17.1210   21.6637 C   0  0  0  0  0  0  0  0  0  0  0  0
   10.7191  -16.5595   21.8622 C   0  0  2  0  0  0  0  0  0  0  0  0
   10.1355  -15.8754   20.7703 N   0  0  0  0  0  0  0  0  0  0  0  0
   10.4802  -15.9878   23.1926 C   0  0  0  0  0  0  0  0  0  0  0  0
   11.2598  -15.1740   23.7526 O   0  0  0  0  0  0  0  0  0  0  0  0
    7.4448  -14.0595   24.5418 C   0  0  0  0  0  0  0  0  0  0  0  0
    7.6513  -15.3218   25.3564 C   0  0  1  0  0  0  0  0  0  0  0  0
    6.8778  -16.3135   24.7493 O   0  0  0  0  0  0  0  0  0  0  0  0
    9.0881  -15.7987   25.2871 C   0  0  2  0  0  0  0  0  0  0  0  0
    9.3054  -16.3379   23.9475 N   0  0  0  0  0  0  0  0  0  0  0  0
    9.2081  -16.9652   26.2344 C   0  0  0  0  0  0  0  0  0  0  0  0
    9.1884  -16.6943   27.5930 O   0  0  0  0  0  0  0  0  0  0  0  0
    9.3239  -18.1531   25.8161 O   0  0  0  0  0  0  0  0  0  0  0  0
  2  1  1  6
  2  3  1  0
  4  2  1  0
  4  5  1  6
  6  4  1  0
  6  7  2  0
  8  9  1  0
  9 11  1  0
 10  9  2  0
 12 11  1  6
 12 13  1  0
 13  6  1  0
 14 12  1  0
 15 14  2  0
 17 16  1  6
 17 18  1  0
 19 20  1  6
 19 17  1  0
 20 14  1  0
 21 19  1  0
 22 21  1  0
 23 21  2  0
M  END
$$$$
