VNT.pdb
     RDKit          3D

 23 22  0  0  1  0  0  0  0  0999 V2000
    8.0680  -12.4698   20.5454 C   0  0  0  0  0  0  0  0  0  0  0  0
    7.6625  -13.4574   19.4648 C   0  0  1  0  0  0  0  0  0  0  0  0
    7.8566  -12.8439   18.1185 C   0  0  0  0  0  0  0  0  0  0  0  0
    8.3658  -14.7823   19.6456 C   0  0  2  0  0  0  0  0  0  0  0  0
    7.9491  -15.6198   18.5530 N   0  0  0  0  0  0  0  0  0  0  0  0
    8.0315  -15.4333   20.9234 C   0  0  0  0  0  0  0  0  0  0  0  0
    6.9635  -16.0983   21.0659 O   0  0  0  0  0  0  0  0  0  0  0  0
   11.7745  -17.7924   24.2224 N   0  0  0  0  0  0  0  0  0  0  0  0
   10.8332  -17.2195   23.3326 C   0  0  0  0  0  0  0  0  0  0  0  0
   11.2641  -16.6971   22.2735 O   0  0  0  0  0  0  0  0  0  0  0  0
    9.3751  -17.2038   23.5828 C   0  0  0  0  0  0  0  0  0  0  0  0
    8.8269  -15.8153   23.3285 C   0  0  2  0  0  0  0  0  0  0  0  0
    8.9120  -15.3179   22.0070 N   0  0  0  0  0  0  0  0  0  0  0  0
    9.0897  -14.8533   24.4053 C   0  0  0  0  0  0  0  0  0  0  0  0
   10.1147  -14.1251   24.4554 O   0  0  0  0  0  0  0  0  0  0  0  0
    6.8503  -11.8997   25.6676 C   0  0  0  0  0  0  0  0  0  0  0  0
    7.0812  -12.9464   26.7404 C   0  0  1  0  0  0  0  0  0  0  0  0
    6.0667  -13.8944   26.5910 O   0  0  0  0  0  0  0  0  0  0  0  0
    8.3884  -13.6825   26.5261 C   0  0  2  0  0  0  0  0  0  0  0  0
    8.1595  -14.6872   25.4914 N   0  0  0  0  0  0  0  0  0  0  0  0
    8.6752  -14.4437   27.7953 C   0  0  0  0  0  0  0  0  0  0  0  0
    9.0259  -13.7119   28.9182 O   0  0  0  0  0  0  0  0  0  0  0  0
    8.6022  -15.7053   27.8456 O   0  0  0  0  0  0  0  0  0  0  0  0
  2  1  1  1
  2  3  1  0
  4  2  1  0
  4  5  1  6
  6  4  1  0
  6  7  2  0
  8  9  1  0
  9 11  1  0
 10  9  2  0
 12 11  1  6
 12 13  1  0
 13  6  1  0
 14 12  1  0
 15 14  2  0
 17 16  1  6
 17 18  1  0
 19 20  1  6
 19 17  1  0
 20 14  1  0
 21 19  1  0
 22 21  1  0
 23 21  2  0
M  END
$$$$
