VNT.pdb
     RDKit          3D

 23 22  0  0  1  0  0  0  0  0999 V2000
    6.7995  -12.8479   19.7286 C   0  0  0  0  0  0  0  0  0  0  0  0
    8.2509  -13.0924   19.3528 C   0  0  1  0  0  0  0  0  0  0  0  0
    9.1464  -12.3045   20.2494 C   0  0  0  0  0  0  0  0  0  0  0  0
    8.5625  -14.5703   19.3146 C   0  0  2  0  0  0  0  0  0  0  0  0
    7.7033  -15.1444   18.3141 N   0  0  0  0  0  0  0  0  0  0  0  0
    8.3281  -15.2340   20.6080 C   0  0  0  0  0  0  0  0  0  0  0  0
    7.2070  -15.7492   20.8920 O   0  0  0  0  0  0  0  0  0  0  0  0
    9.0110  -18.4952   24.6841 N   0  0  0  0  0  0  0  0  0  0  0  0
   10.1533  -17.7739   24.2591 C   0  0  0  0  0  0  0  0  0  0  0  0
   11.0993  -17.6321   25.0748 O   0  0  0  0  0  0  0  0  0  0  0  0
   10.2916  -17.1808   22.9107 C   0  0  0  0  0  0  0  0  0  0  0  0
    9.4359  -15.9356   22.8088 C   0  0  2  0  0  0  0  0  0  0  0  0
    9.3658  -15.3000   21.5470 N   0  0  0  0  0  0  0  0  0  0  0  0
    9.5072  -15.0537   23.9798 C   0  0  0  0  0  0  0  0  0  0  0  0
   10.5273  -14.3847   24.2883 O   0  0  0  0  0  0  0  0  0  0  0  0
    6.7118  -12.3680   25.2431 C   0  0  0  0  0  0  0  0  0  0  0  0
    7.0490  -13.4597   26.2402 C   0  0  1  0  0  0  0  0  0  0  0  0
    6.1665  -14.5118   25.9861 O   0  0  0  0  0  0  0  0  0  0  0  0
    8.4434  -14.0078   26.0132 C   0  0  2  0  0  0  0  0  0  0  0  0
    8.3789  -14.9029   24.8612 N   0  0  0  0  0  0  0  0  0  0  0  0
    8.7715  -14.8751   27.2018 C   0  0  0  0  0  0  0  0  0  0  0  0
    8.9907  -14.2451   28.4160 O   0  0  0  0  0  0  0  0  0  0  0  0
    8.8475  -16.1339   27.1063 O   0  0  0  0  0  0  0  0  0  0  0  0
  2  1  1  1
  2  3  1  0
  4  2  1  0
  4  5  1  6
  6  4  1  0
  6  7  2  0
  8  9  1  0
  9 11  1  0
 10  9  2  0
 12 11  1  6
 12 13  1  0
 13  6  1  0
 14 12  1  0
 15 14  2  0
 17 16  1  6
 17 18  1  0
 19 20  1  6
 19 17  1  0
 20 14  1  0
 21 19  1  0
 22 21  1  0
 23 21  2  0
M  END
$$$$
