GHC.pdb
     RDKit          3D

 21 21  0  0  1  0  0  0  0  0999 V2000
    7.3928  -19.1417   21.1444 N   0  0  0  0  0  0  0  0  0  0  0  0
    6.7553  -18.0270   21.7810 C   0  0  0  0  0  0  0  0  0  0  0  0
    7.6811  -16.8917   21.8382 C   0  0  0  0  0  0  0  0  0  0  0  0
    8.8402  -16.9666   21.4156 O   0  0  0  0  0  0  0  0  0  0  0  0
    7.2325  -15.6551   22.4006 N   0  0  0  0  0  0  0  0  0  0  0  0
    8.0248  -14.4653   22.3779 C   0  0  1  0  0  0  0  0  0  0  0  0
    7.5554  -13.3372   21.5653 C   0  0  0  0  0  0  0  0  0  0  0  0
    7.5923  -13.4357   20.1182 C   0  0  0  0  0  0  0  0  0  0  0  0
    8.4523  -12.8370   19.2483 C   0  0  0  0  0  0  0  0  0  0  0  0
    8.0835  -13.2776   18.0068 N   0  0  0  0  0  0  0  0  0  0  0  0
    7.0386  -14.1131   18.1222 C   0  0  0  0  0  0  0  0  0  0  0  0
    6.7164  -14.2270   19.4188 N   0  0  0  0  0  0  0  0  0  0  0  0
    8.2291  -14.0578   23.8178 C   0  0  0  0  0  0  0  0  0  0  0  0
    8.1763  -12.8524   24.1874 O   0  0  0  0  0  0  0  0  0  0  0  0
    8.4925  -15.0076   24.8402 N   0  0  0  0  0  0  0  0  0  0  0  0
    8.5865  -14.6176   26.2322 C   0  0  1  0  0  0  0  0  0  0  0  0
    7.2211  -14.0882   26.6879 C   0  0  0  0  0  0  0  0  0  0  0  0
    7.3241  -12.2912   26.7628 S   0  0  0  0  0  0  0  0  0  0  0  0
    8.8860  -15.8279   27.0465 C   0  0  0  0  0  0  0  0  0  0  0  0
    8.8595  -16.9781   26.5368 O   0  0  0  0  0  0  0  0  0  0  0  0
    9.2065  -15.7497   28.3954 O   0  0  0  0  0  0  0  0  0  0  0  0
  1  2  1  0
  3  4  2  0
  3  2  1  0
  5  3  1  0
  6 13  1  0
  6  5  1  0
  6  7  1  6
  8  7  1  0
  9  8  2  0
 10 11  1  0
 10  9  1  0
 11 12  2  0
 12  8  1  0
 13 15  1  0
 14 13  2  0
 15 16  1  0
 16 17  1  1
 17 18  1  0
 19 21  1  0
 19 16  1  0
 20 19  2  0
M  END
$$$$
