GHC.pdb
     RDKit          3D

 21 21  0  0  1  0  0  0  0  0999 V2000
   12.4710  -17.4351   19.8026 N   0  0  0  0  0  0  0  0  0  0  0  0
   11.5861  -17.7699   20.8792 C   0  0  0  0  0  0  0  0  0  0  0  0
   11.2329  -16.5590   21.6265 C   0  0  0  0  0  0  0  0  0  0  0  0
   11.9144  -15.5294   21.5702 O   0  0  0  0  0  0  0  0  0  0  0  0
   10.0623  -16.5650   22.4490 N   0  0  0  0  0  0  0  0  0  0  0  0
    9.6448  -15.4253   23.2043 C   0  0  1  0  0  0  0  0  0  0  0  0
    8.2683  -14.9474   23.0314 C   0  0  0  0  0  0  0  0  0  0  0  0
    7.8301  -14.4902   21.7260 C   0  0  0  0  0  0  0  0  0  0  0  0
    6.9027  -15.0472   20.8988 C   0  0  0  0  0  0  0  0  0  0  0  0
    6.8361  -14.2187   19.8122 N   0  0  0  0  0  0  0  0  0  0  0  0
    7.6921  -13.1973   19.9770 C   0  0  0  0  0  0  0  0  0  0  0  0
    8.3187  -13.3429   21.1535 N   0  0  0  0  0  0  0  0  0  0  0  0
    9.9401  -15.7379   24.6522 C   0  0  0  0  0  0  0  0  0  0  0  0
   10.3592  -16.8694   25.0217 O   0  0  0  0  0  0  0  0  0  0  0  0
    9.7635  -14.7766   25.6825 N   0  0  0  0  0  0  0  0  0  0  0  0
   10.2715  -14.9970   27.0211 C   0  0  1  0  0  0  0  0  0  0  0  0
    9.9318  -13.7750   27.8834 C   0  0  0  0  0  0  0  0  0  0  0  0
   10.7274  -13.9927   29.4850 S   0  0  0  0  0  0  0  0  0  0  0  0
    9.5638  -16.1663   27.6123 C   0  0  0  0  0  0  0  0  0  0  0  0
    8.3540  -16.3946   27.3518 O   0  0  0  0  0  0  0  0  0  0  0  0
   10.1960  -17.0549   28.4719 O   0  0  0  0  0  0  0  0  0  0  0  0
  1  2  1  0
  3  4  2  0
  3  2  1  0
  5  3  1  0
  6 13  1  0
  6  5  1  0
  6  7  1  1
  8  7  1  0
  9  8  2  0
 10 11  1  0
 10  9  1  0
 11 12  2  0
 12  8  1  0
 13 15  1  0
 14 13  2  0
 15 16  1  0
 16 17  1  1
 17 18  1  0
 19 21  1  0
 19 16  1  0
 20 19  2  0
M  END
$$$$
