GHC.pdb
     RDKit          3D

 21 21  0  0  1  0  0  0  0  0999 V2000
    4.9483  -18.8900   19.9733 N   0  0  0  0  0  0  0  0  0  0  0  0
    4.7683  -17.7564   20.8316 C   0  0  0  0  0  0  0  0  0  0  0  0
    6.0745  -17.2333   21.2438 C   0  0  0  0  0  0  0  0  0  0  0  0
    7.0959  -17.9292   21.2288 O   0  0  0  0  0  0  0  0  0  0  0  0
    6.1745  -15.8739   21.6780 N   0  0  0  0  0  0  0  0  0  0  0  0
    7.4258  -15.2494   21.9751 C   0  0  1  0  0  0  0  0  0  0  0  0
    7.6735  -13.9067   21.4376 C   0  0  0  0  0  0  0  0  0  0  0  0
    7.8458  -13.7308   20.0077 C   0  0  0  0  0  0  0  0  0  0  0  0
    7.1696  -12.8997   19.1671 C   0  0  0  0  0  0  0  0  0  0  0  0
    7.7312  -13.0893   17.9341 N   0  0  0  0  0  0  0  0  0  0  0  0
    8.7121  -14.0017   18.0264 C   0  0  0  0  0  0  0  0  0  0  0  0
    8.8023  -14.4133   19.2993 N   0  0  0  0  0  0  0  0  0  0  0  0
    7.5726  -15.2753   23.4780 C   0  0  0  0  0  0  0  0  0  0  0  0
    6.6068  -15.0242   24.2504 O   0  0  0  0  0  0  0  0  0  0  0  0
    8.8065  -15.5839   24.1100 N   0  0  0  0  0  0  0  0  0  0  0  0
    8.8680  -15.9766   25.5030 C   0  0  1  0  0  0  0  0  0  0  0  0
    8.0698  -17.2737   25.6840 C   0  0  0  0  0  0  0  0  0  0  0  0
    8.2125  -17.7721   27.4093 S   0  0  0  0  0  0  0  0  0  0  0  0
   10.2846  -16.2765   25.8509 C   0  0  0  0  0  0  0  0  0  0  0  0
   11.1580  -16.4198   24.9564 O   0  0  0  0  0  0  0  0  0  0  0  0
   10.7093  -16.4120   27.1660 O   0  0  0  0  0  0  0  0  0  0  0  0
  1  2  1  0
  3  4  2  0
  3  2  1  0
  5  3  1  0
  6 13  1  0
  6  5  1  0
  6  7  1  1
  8  7  1  0
  9  8  2  0
 10 11  1  0
 10  9  1  0
 11 12  2  0
 12  8  1  0
 13 15  1  0
 14 13  2  0
 15 16  1  0
 16 17  1  6
 17 18  1  0
 19 21  1  0
 19 16  1  0
 20 19  2  0
M  END
$$$$
