GHC.pdb
     RDKit          3D

 21 21  0  0  1  0  0  0  0  0999 V2000
   11.6247  -17.0196   20.0038 N   0  0  0  0  0  0  0  0  0  0  0  0
   10.5987  -17.4575   20.9036 C   0  0  0  0  0  0  0  0  0  0  0  0
   10.3963  -16.4532   21.9524 C   0  0  0  0  0  0  0  0  0  0  0  0
   11.2184  -15.5567   22.1717 O   0  0  0  0  0  0  0  0  0  0  0  0
    9.2101  -16.5091   22.7502 N   0  0  0  0  0  0  0  0  0  0  0  0
    8.8616  -15.4862   23.6863 C   0  0  1  0  0  0  0  0  0  0  0  0
    7.4386  -15.2541   23.9591 C   0  0  0  0  0  0  0  0  0  0  0  0
    7.0492  -14.1785   24.8516 C   0  0  0  0  0  0  0  0  0  0  0  0
    7.5121  -12.8983   24.8907 C   0  0  0  0  0  0  0  0  0  0  0  0
    6.8041  -12.2829   25.8865 N   0  0  0  0  0  0  0  0  0  0  0  0
    5.9439  -13.1595   26.4294 C   0  0  0  0  0  0  0  0  0  0  0  0
    6.0765  -14.3391   25.8060 N   0  0  0  0  0  0  0  0  0  0  0  0
    9.6222  -15.7885   24.9556 C   0  0  0  0  0  0  0  0  0  0  0  0
    9.8995  -16.9685   25.3062 O   0  0  0  0  0  0  0  0  0  0  0  0
   10.0700  -14.7619   25.8290 N   0  0  0  0  0  0  0  0  0  0  0  0
   10.6263  -15.0636   27.1321 C   0  0  1  0  0  0  0  0  0  0  0  0
   10.2720  -13.9229   28.0941 C   0  0  0  0  0  0  0  0  0  0  0  0
   10.9052  -14.3594   29.7231 S   0  0  0  0  0  0  0  0  0  0  0  0
    9.9774  -16.2988   27.6524 C   0  0  0  0  0  0  0  0  0  0  0  0
   10.6612  -17.2435   28.1251 O   0  0  0  0  0  0  0  0  0  0  0  0
    8.5993  -16.4693   27.6425 O   0  0  0  0  0  0  0  0  0  0  0  0
  1  2  1  0
  3  4  2  0
  3  2  1  0
  5  3  1  0
  6 13  1  0
  6  5  1  0
  6  7  1  1
  8  7  1  0
  9  8  2  0
 10 11  1  0
 10  9  1  0
 11 12  2  0
 12  8  1  0
 13 15  1  0
 14 13  2  0
 15 16  1  0
 16 17  1  1
 17 18  1  0
 19 21  1  0
 19 16  1  0
 20 19  2  0
M  END
$$$$
