GHC.pdb
     RDKit          3D

 21 21  0  0  1  0  0  0  0  0999 V2000
   12.5465  -17.2023   20.2703 N   0  0  0  0  0  0  0  0  0  0  0  0
   11.2217  -17.4404   20.7627 C   0  0  0  0  0  0  0  0  0  0  0  0
   10.6741  -16.2053   21.3319 C   0  0  0  0  0  0  0  0  0  0  0  0
   11.3502  -15.1768   21.4442 O   0  0  0  0  0  0  0  0  0  0  0  0
    9.3132  -16.1856   21.7730 N   0  0  0  0  0  0  0  0  0  0  0  0
    8.7022  -15.0224   22.3366 C   0  0  1  0  0  0  0  0  0  0  0  0
    7.5223  -14.4664   21.6643 C   0  0  0  0  0  0  0  0  0  0  0  0
    7.6120  -14.0798   20.2687 C   0  0  0  0  0  0  0  0  0  0  0  0
    8.0823  -12.9169   19.7386 C   0  0  0  0  0  0  0  0  0  0  0  0
    7.9802  -13.0647   18.3824 N   0  0  0  0  0  0  0  0  0  0  0  0
    7.4673  -14.2738   18.1028 C   0  0  0  0  0  0  0  0  0  0  0  0
    7.2313  -14.9206   19.2534 N   0  0  0  0  0  0  0  0  0  0  0  0
    8.4082  -15.3492   23.7816 C   0  0  0  0  0  0  0  0  0  0  0  0
    8.5397  -16.5153   24.2454 O   0  0  0  0  0  0  0  0  0  0  0  0
    7.9665  -14.3628   24.7030 N   0  0  0  0  0  0  0  0  0  0  0  0
    7.7444  -14.6750   26.1000 C   0  0  1  0  0  0  0  0  0  0  0  0
    7.2116  -13.4215   26.8053 C   0  0  0  0  0  0  0  0  0  0  0  0
    5.7274  -12.8885   25.9345 S   0  0  0  0  0  0  0  0  0  0  0  0
    6.6858  -15.7182   26.1922 C   0  0  0  0  0  0  0  0  0  0  0  0
    5.9902  -16.0299   25.1909 O   0  0  0  0  0  0  0  0  0  0  0  0
    6.4150  -16.3931   27.3752 O   0  0  0  0  0  0  0  0  0  0  0  0
  1  2  1  0
  3  4  2  0
  3  2  1  0
  5  3  1  0
  6 13  1  0
  6  5  1  0
  6  7  1  6
  8  7  1  0
  9  8  2  0
 10 11  1  0
 10  9  1  0
 11 12  2  0
 12  8  1  0
 13 15  1  0
 14 13  2  0
 15 16  1  0
 16 17  1  1
 17 18  1  0
 19 21  1  0
 19 16  1  0
 20 19  2  0
M  END
$$$$
