GHC.pdb
     RDKit          3D

 21 21  0  0  1  0  0  0  0  0999 V2000
    7.2831  -20.1454   18.7459 N   0  0  0  0  0  0  0  0  0  0  0  0
    7.7534  -20.1032   20.0991 C   0  0  0  0  0  0  0  0  0  0  0  0
    7.2675  -18.8858   20.7559 C   0  0  0  0  0  0  0  0  0  0  0  0
    7.6149  -17.7577   20.3894 O   0  0  0  0  0  0  0  0  0  0  0  0
    6.3618  -19.0029   21.8571 N   0  0  0  0  0  0  0  0  0  0  0  0
    5.8311  -17.8664   22.5432 C   0  0  1  0  0  0  0  0  0  0  0  0
    4.3752  -17.7704   22.6993 C   0  0  0  0  0  0  0  0  0  0  0  0
    3.5098  -18.4608   21.7615 C   0  0  0  0  0  0  0  0  0  0  0  0
    3.5730  -18.4762   20.4012 C   0  0  0  0  0  0  0  0  0  0  0  0
    2.5557  -19.2964   19.9963 N   0  0  0  0  0  0  0  0  0  0  0  0
    1.9015  -19.7605   21.0732 C   0  0  0  0  0  0  0  0  0  0  0  0
    2.4731  -19.2578   22.1771 N   0  0  0  0  0  0  0  0  0  0  0  0
    6.5322  -17.8057   23.8797 C   0  0  0  0  0  0  0  0  0  0  0  0
    6.2500  -16.9323   24.7456 O   0  0  0  0  0  0  0  0  0  0  0  0
    7.5501  -18.7281   24.2399 N   0  0  0  0  0  0  0  0  0  0  0  0
    8.1889  -18.6839   25.5393 C   0  0  1  0  0  0  0  0  0  0  0  0
    7.6120  -19.8074   26.4094 C   0  0  0  0  0  0  0  0  0  0  0  0
    6.4745  -19.0609   27.5902 S   0  0  0  0  0  0  0  0  0  0  0  0
    9.6417  -18.9606   25.3653 C   0  0  0  0  0  0  0  0  0  0  0  0
   10.1309  -19.1779   24.2265 O   0  0  0  0  0  0  0  0  0  0  0  0
   10.5212  -18.9927   26.4394 O   0  0  0  0  0  0  0  0  0  0  0  0
  1  2  1  0
  3  4  2  0
  3  2  1  0
  5  3  1  0
  6 13  1  0
  6  5  1  0
  6  7  1  1
  8  7  1  0
  9  8  2  0
 10 11  1  0
 10  9  1  0
 11 12  2  0
 12  8  1  0
 13 15  1  0
 14 13  2  0
 15 16  1  0
 16 17  1  1
 17 18  1  0
 19 21  1  0
 19 16  1  0
 20 19  2  0
M  END
$$$$
