GHC.pdb
     RDKit          3D

 21 21  0  0  1  0  0  0  0  0999 V2000
   14.1688  -14.1317   16.3460 N   0  0  0  0  0  0  0  0  0  0  0  0
   13.6379  -15.3047   16.9755 C   0  0  0  0  0  0  0  0  0  0  0  0
   13.1073  -14.9613   18.2984 C   0  0  0  0  0  0  0  0  0  0  0  0
   13.5675  -14.0315   18.9702 O   0  0  0  0  0  0  0  0  0  0  0  0
   12.0218  -15.7247   18.8328 N   0  0  0  0  0  0  0  0  0  0  0  0
   11.3680  -15.3828   20.0573 C   0  0  1  0  0  0  0  0  0  0  0  0
    9.9016  -15.3295   20.0670 C   0  0  0  0  0  0  0  0  0  0  0  0
    9.2204  -14.2847   19.3258 C   0  0  0  0  0  0  0  0  0  0  0  0
    9.7615  -13.2879   18.5720 C   0  0  0  0  0  0  0  0  0  0  0  0
    8.6976  -12.5943   18.0633 N   0  0  0  0  0  0  0  0  0  0  0  0
    7.5546  -13.1522   18.4938 C   0  0  0  0  0  0  0  0  0  0  0  0
    7.8518  -14.1998   19.2762 N   0  0  0  0  0  0  0  0  0  0  0  0
   11.8900  -16.3381   21.1042 C   0  0  0  0  0  0  0  0  0  0  0  0
   12.0924  -17.5588   20.8566 O   0  0  0  0  0  0  0  0  0  0  0  0
   12.1837  -15.9183   22.4288 N   0  0  0  0  0  0  0  0  0  0  0  0
   12.6856  -16.8435   23.4241 C   0  0  1  0  0  0  0  0  0  0  0  0
   13.3727  -16.0429   24.5374 C   0  0  0  0  0  0  0  0  0  0  0  0
   14.8235  -15.2453   23.8273 S   0  0  0  0  0  0  0  0  0  0  0  0
   11.5304  -17.5543   24.0387 C   0  0  0  0  0  0  0  0  0  0  0  0
   10.3464  -17.2596   23.7309 O   0  0  0  0  0  0  0  0  0  0  0  0
   11.6991  -18.5679   24.9728 O   0  0  0  0  0  0  0  0  0  0  0  0
  1  2  1  0
  3  4  2  0
  3  2  1  0
  5  3  1  0
  6 13  1  0
  6  5  1  0
  6  7  1  6
  8  7  1  0
  9  8  2  0
 10 11  1  0
 10  9  1  0
 11 12  2  0
 12  8  1  0
 13 15  1  0
 14 13  2  0
 15 16  1  0
 16 17  1  1
 17 18  1  0
 19 21  1  0
 19 16  1  0
 20 19  2  0
M  END
$$$$
