GHC.pdb
     RDKit          3D

 21 21  0  0  1  0  0  0  0  0999 V2000
    8.2831  -17.3033   18.7493 N   0  0  0  0  0  0  0  0  0  0  0  0
    8.9127  -17.5633   20.0103 C   0  0  0  0  0  0  0  0  0  0  0  0
    8.0265  -17.1493   21.1024 C   0  0  0  0  0  0  0  0  0  0  0  0
    6.9735  -16.5351   20.8977 O   0  0  0  0  0  0  0  0  0  0  0  0
    8.3884  -17.4643   22.4502 N   0  0  0  0  0  0  0  0  0  0  0  0
    7.5315  -17.1932   23.5621 C   0  0  1  0  0  0  0  0  0  0  0  0
    7.1207  -18.3188   24.4091 C   0  0  0  0  0  0  0  0  0  0  0  0
    6.1838  -19.2976   23.8904 C   0  0  0  0  0  0  0  0  0  0  0  0
    5.0545  -19.0873   23.1588 C   0  0  0  0  0  0  0  0  0  0  0  0
    4.5508  -20.3319   22.8961 N   0  0  0  0  0  0  0  0  0  0  0  0
    5.3474  -21.2611   23.4487 C   0  0  0  0  0  0  0  0  0  0  0  0
    6.3645  -20.6460   24.0692 N   0  0  0  0  0  0  0  0  0  0  0  0
    8.2087  -16.1138   24.3730 C   0  0  0  0  0  0  0  0  0  0  0  0
    9.4649  -16.0191   24.4466 O   0  0  0  0  0  0  0  0  0  0  0  0
    7.4711  -15.1421   25.1001 N   0  0  0  0  0  0  0  0  0  0  0  0
    8.1316  -14.1102   25.8730 C   0  0  1  0  0  0  0  0  0  0  0  0
    7.0791  -13.0988   26.3438 C   0  0  0  0  0  0  0  0  0  0  0  0
    7.9328  -11.7975   27.2512 S   0  0  0  0  0  0  0  0  0  0  0  0
    8.7233  -14.7320   27.0898 C   0  0  0  0  0  0  0  0  0  0  0  0
    9.6823  -14.1891   27.6974 O   0  0  0  0  0  0  0  0  0  0  0  0
    8.2520  -15.9299   27.6106 O   0  0  0  0  0  0  0  0  0  0  0  0
  1  2  1  0
  3  4  2  0
  3  2  1  0
  5  3  1  0
  6 13  1  0
  6  5  1  0
  6  7  1  1
  8  7  1  0
  9  8  2  0
 10 11  1  0
 10  9  1  0
 11 12  2  0
 12  8  1  0
 13 15  1  0
 14 13  2  0
 15 16  1  0
 16 17  1  1
 17 18  1  0
 19 21  1  0
 19 16  1  0
 20 19  2  0
M  END
$$$$
