GHC.pdb
     RDKit          3D

 21 21  0  0  1  0  0  0  0  0999 V2000
    8.8150  -19.7160   18.1137 N   0  0  0  0  0  0  0  0  0  0  0  0
    8.3205  -19.1201   19.3197 C   0  0  0  0  0  0  0  0  0  0  0  0
    9.1732  -17.9901   19.7011 C   0  0  0  0  0  0  0  0  0  0  0  0
   10.3452  -17.8931   19.3207 O   0  0  0  0  0  0  0  0  0  0  0  0
    8.6353  -16.9642   20.5407 N   0  0  0  0  0  0  0  0  0  0  0  0
    9.3972  -15.8271   20.9533 C   0  0  1  0  0  0  0  0  0  0  0  0
    8.7248  -14.5237   20.9993 C   0  0  0  0  0  0  0  0  0  0  0  0
    8.1721  -13.9622   19.7809 C   0  0  0  0  0  0  0  0  0  0  0  0
    8.6415  -12.9233   19.0359 C   0  0  0  0  0  0  0  0  0  0  0  0
    7.7818  -12.8137   17.9773 N   0  0  0  0  0  0  0  0  0  0  0  0
    6.8275  -13.7529   18.0786 C   0  0  0  0  0  0  0  0  0  0  0  0
    7.0475  -14.4761   19.1861 N   0  0  0  0  0  0  0  0  0  0  0  0
   10.0048  -16.1794   22.2904 C   0  0  0  0  0  0  0  0  0  0  0  0
    9.2962  -16.4785   23.2908 O   0  0  0  0  0  0  0  0  0  0  0  0
   11.4094  -16.1947   22.5000 N   0  0  0  0  0  0  0  0  0  0  0  0
   11.9862  -16.6701   23.7409 C   0  0  1  0  0  0  0  0  0  0  0  0
   12.0211  -18.2032   23.7114 C   0  0  0  0  0  0  0  0  0  0  0  0
   12.3450  -18.7791   25.3873 S   0  0  0  0  0  0  0  0  0  0  0  0
   13.3957  -16.1969   23.8227 C   0  0  0  0  0  0  0  0  0  0  0  0
   13.9773  -15.7078   22.8196 O   0  0  0  0  0  0  0  0  0  0  0  0
   14.1324  -16.2704   24.9975 O   0  0  0  0  0  0  0  0  0  0  0  0
  1  2  1  0
  3  4  2  0
  3  2  1  0
  5  3  1  0
  6 13  1  0
  6  5  1  0
  6  7  1  1
  8  7  1  0
  9  8  2  0
 10 11  1  0
 10  9  1  0
 11 12  2  0
 12  8  1  0
 13 15  1  0
 14 13  2  0
 15 16  1  0
 16 17  1  6
 17 18  1  0
 19 21  1  0
 19 16  1  0
 20 19  2  0
M  END
$$$$
