GHC.pdb
     RDKit          3D

 21 21  0  0  1  0  0  0  0  0999 V2000
   12.5036  -20.0033   17.7472 N   0  0  0  0  0  0  0  0  0  0  0  0
   11.1276  -19.8586   18.1209 C   0  0  0  0  0  0  0  0  0  0  0  0
   10.9090  -18.5326   18.7069 C   0  0  0  0  0  0  0  0  0  0  0  0
   11.8387  -17.8463   19.1455 O   0  0  0  0  0  0  0  0  0  0  0  0
    9.5781  -18.0123   18.7753 N   0  0  0  0  0  0  0  0  0  0  0  0
    9.2687  -16.7662   19.4041 C   0  0  1  0  0  0  0  0  0  0  0  0
    8.1596  -15.9739   18.8606 C   0  0  0  0  0  0  0  0  0  0  0  0
    7.8614  -14.6754   19.4351 C   0  0  0  0  0  0  0  0  0  0  0  0
    6.8448  -14.3314   20.2735 C   0  0  0  0  0  0  0  0  0  0  0  0
    7.0277  -13.0031   20.5455 N   0  0  0  0  0  0  0  0  0  0  0  0
    8.1160  -12.5604   19.8953 C   0  0  0  0  0  0  0  0  0  0  0  0
    8.6492  -13.5765   19.2016 N   0  0  0  0  0  0  0  0  0  0  0  0
    9.0640  -17.0643   20.8706 C   0  0  0  0  0  0  0  0  0  0  0  0
    8.5029  -18.1224   21.2677 O   0  0  0  0  0  0  0  0  0  0  0  0
    9.4914  -16.1708   21.8885 N   0  0  0  0  0  0  0  0  0  0  0  0
    9.2719  -16.4581   23.2913 C   0  0  1  0  0  0  0  0  0  0  0  0
   10.1751  -15.5433   24.1277 C   0  0  0  0  0  0  0  0  0  0  0  0
   11.8837  -16.0223   23.8167 S   0  0  0  0  0  0  0  0  0  0  0  0
    7.8624  -16.1195   23.6317 C   0  0  0  0  0  0  0  0  0  0  0  0
    7.1039  -15.5700   22.7913 O   0  0  0  0  0  0  0  0  0  0  0  0
    7.3188  -16.3900   24.8806 O   0  0  0  0  0  0  0  0  0  0  0  0
  1  2  1  0
  3  4  2  0
  3  2  1  0
  5  3  1  0
  6 13  1  0
  6  5  1  0
  6  7  1  6
  8  7  1  0
  9  8  2  0
 10 11  1  0
 10  9  1  0
 11 12  2  0
 12  8  1  0
 13 15  1  0
 14 13  2  0
 15 16  1  0
 16 17  1  1
 17 18  1  0
 19 21  1  0
 19 16  1  0
 20 19  2  0
M  END
$$$$
