GHC.pdb
     RDKit          3D

 21 21  0  0  1  0  0  0  0  0999 V2000
   11.2090  -16.2706   13.6254 N   0  0  0  0  0  0  0  0  0  0  0  0
   10.7022  -16.7200   14.8885 C   0  0  0  0  0  0  0  0  0  0  0  0
   11.2106  -15.8604   15.9618 C   0  0  0  0  0  0  0  0  0  0  0  0
   12.0667  -14.9922   15.7590 O   0  0  0  0  0  0  0  0  0  0  0  0
   10.7022  -16.0285   17.2884 N   0  0  0  0  0  0  0  0  0  0  0  0
   11.0843  -15.1803   18.3739 C   0  0  1  0  0  0  0  0  0  0  0  0
   10.1412  -15.0122   19.4854 C   0  0  0  0  0  0  0  0  0  0  0  0
    8.8626  -14.3696   19.2457 C   0  0  0  0  0  0  0  0  0  0  0  0
    7.6566  -14.9481   18.9900 C   0  0  0  0  0  0  0  0  0  0  0  0
    6.7708  -13.9122   18.8719 N   0  0  0  0  0  0  0  0  0  0  0  0
    7.4182  -12.7493   19.0504 C   0  0  0  0  0  0  0  0  0  0  0  0
    8.7135  -13.0061   19.2833 N   0  0  0  0  0  0  0  0  0  0  0  0
   12.4232  -15.6821   18.8605 C   0  0  0  0  0  0  0  0  0  0  0  0
   12.7115  -16.9105   18.8812 O   0  0  0  0  0  0  0  0  0  0  0  0
   13.4361  -14.8008   19.3231 N   0  0  0  0  0  0  0  0  0  0  0  0
   14.7473  -15.2850   19.7038 C   0  0  1  0  0  0  0  0  0  0  0  0
   15.7784  -14.1849   19.4230 C   0  0  0  0  0  0  0  0  0  0  0  0
   15.7727  -13.8641   17.6504 S   0  0  0  0  0  0  0  0  0  0  0  0
   14.7549  -15.5343   21.1719 C   0  0  0  0  0  0  0  0  0  0  0  0
   15.7839  -15.9662   21.7534 O   0  0  0  0  0  0  0  0  0  0  0  0
   13.6387  -15.3053   21.9657 O   0  0  0  0  0  0  0  0  0  0  0  0
  1  2  1  0
  3  4  2  0
  3  2  1  0
  5  3  1  0
  6 13  1  0
  6  5  1  0
  6  7  1  1
  8  7  1  0
  9  8  2  0
 10 11  1  0
 10  9  1  0
 11 12  2  0
 12  8  1  0
 13 15  1  0
 14 13  2  0
 15 16  1  0
 16 17  1  1
 17 18  1  0
 19 21  1  0
 19 16  1  0
 20 19  2  0
M  END
$$$$
