GHC.pdb
     RDKit          3D

 21 21  0  0  1  0  0  0  0  0999 V2000
    4.0118  -18.3289   21.3740 N   0  0  0  0  0  0  0  0  0  0  0  0
    4.8807  -17.2384   21.0424 C   0  0  0  0  0  0  0  0  0  0  0  0
    6.2693  -17.6014   21.3413 C   0  0  0  0  0  0  0  0  0  0  0  0
    6.5825  -18.7273   21.7438 O   0  0  0  0  0  0  0  0  0  0  0  0
    7.2984  -16.6238   21.1626 N   0  0  0  0  0  0  0  0  0  0  0  0
    8.6645  -16.8710   21.5043 C   0  0  1  0  0  0  0  0  0  0  0  0
    9.6712  -16.7773   20.4408 C   0  0  0  0  0  0  0  0  0  0  0  0
    9.7832  -17.8475   19.4676 C   0  0  0  0  0  0  0  0  0  0  0  0
    9.9967  -19.1746   19.6861 C   0  0  0  0  0  0  0  0  0  0  0  0
    9.9872  -19.7561   18.4478 N   0  0  0  0  0  0  0  0  0  0  0  0
    9.7751  -18.8143   17.5144 C   0  0  0  0  0  0  0  0  0  0  0  0
    9.6456  -17.6253   18.1206 N   0  0  0  0  0  0  0  0  0  0  0  0
    8.9930  -15.9491   22.6547 C   0  0  0  0  0  0  0  0  0  0  0  0
    9.6789  -14.9014   22.4994 O   0  0  0  0  0  0  0  0  0  0  0  0
    8.5491  -16.2077   23.9787 N   0  0  0  0  0  0  0  0  0  0  0  0
    8.9397  -15.3626   25.0886 C   0  0  1  0  0  0  0  0  0  0  0  0
    7.6771  -14.9236   25.8405 C   0  0  0  0  0  0  0  0  0  0  0  0
    6.7851  -13.7641   24.7892 S   0  0  0  0  0  0  0  0  0  0  0  0
    9.7604  -16.1683   26.0345 C   0  0  0  0  0  0  0  0  0  0  0  0
   10.2348  -15.6578   27.0823 O   0  0  0  0  0  0  0  0  0  0  0  0
   10.0411  -17.5098   25.8110 O   0  0  0  0  0  0  0  0  0  0  0  0
  1  2  1  0
  3  4  2  0
  3  2  1  0
  5  3  1  0
  6 13  1  0
  6  5  1  0
  6  7  1  6
  8  7  1  0
  9  8  2  0
 10 11  1  0
 10  9  1  0
 11 12  2  0
 12  8  1  0
 13 15  1  0
 14 13  2  0
 15 16  1  0
 16 17  1  1
 17 18  1  0
 19 21  1  0
 19 16  1  0
 20 19  2  0
M  END
$$$$
