GHC.pdb
     RDKit          3D

 21 21  0  0  1  0  0  0  0  0999 V2000
    7.3745  -12.9576   18.7610 N   0  0  0  0  0  0  0  0  0  0  0  0
    8.3526  -13.5337   19.6359 C   0  0  0  0  0  0  0  0  0  0  0  0
    7.6893  -14.1211   20.8040 C   0  0  0  0  0  0  0  0  0  0  0  0
    6.4590  -14.1395   20.9213 O   0  0  0  0  0  0  0  0  0  0  0  0
    8.4882  -14.6925   21.8442 N   0  0  0  0  0  0  0  0  0  0  0  0
    7.9282  -15.4558   22.9155 C   0  0  1  0  0  0  0  0  0  0  0  0
    8.1422  -16.9074   22.9161 C   0  0  0  0  0  0  0  0  0  0  0  0
    7.6169  -17.7059   24.0076 C   0  0  0  0  0  0  0  0  0  0  0  0
    7.8699  -17.5921   25.3409 C   0  0  0  0  0  0  0  0  0  0  0  0
    7.1076  -18.5560   25.9422 N   0  0  0  0  0  0  0  0  0  0  0  0
    6.4183  -19.2279   25.0060 C   0  0  0  0  0  0  0  0  0  0  0  0
    6.7163  -18.7204   23.8012 N   0  0  0  0  0  0  0  0  0  0  0  0
    8.4240  -14.8268   24.1960 C   0  0  0  0  0  0  0  0  0  0  0  0
    9.6435  -14.5630   24.3850 O   0  0  0  0  0  0  0  0  0  0  0  0
    7.5467  -14.4952   25.2624 N   0  0  0  0  0  0  0  0  0  0  0  0
    8.0019  -13.7424   26.4133 C   0  0  1  0  0  0  0  0  0  0  0  0
    6.7805  -13.1545   27.1308 C   0  0  0  0  0  0  0  0  0  0  0  0
    5.8838  -12.1351   25.9468 S   0  0  0  0  0  0  0  0  0  0  0  0
    8.6647  -14.6787   27.3628 C   0  0  0  0  0  0  0  0  0  0  0  0
    8.7370  -15.9109   27.1179 O   0  0  0  0  0  0  0  0  0  0  0  0
    9.2307  -14.2444   28.5541 O   0  0  0  0  0  0  0  0  0  0  0  0
  1  2  1  0
  3  4  2  0
  3  2  1  0
  5  3  1  0
  6 13  1  0
  6  5  1  0
  6  7  1  6
  8  7  1  0
  9  8  2  0
 10 11  1  0
 10  9  1  0
 11 12  2  0
 12  8  1  0
 13 15  1  0
 14 13  2  0
 15 16  1  0
 16 17  1  1
 17 18  1  0
 19 21  1  0
 19 16  1  0
 20 19  2  0
M  END
$$$$
