HAR.pdb
     RDKit          3D

 27 27  0  0  1  0  0  0  0  0999 V2000
    9.6859  -12.5558   19.0327 N   0  0  0  0  0  0  0  0  0  0  0  0
    8.9024  -13.6906   19.4727 C   0  0  1  0  0  0  0  0  0  0  0  0
    9.2231  -14.8970   18.6311 C   0  0  0  0  0  0  0  0  0  0  0  0
    8.8140  -14.6414   17.2334 C   0  0  0  0  0  0  0  0  0  0  0  0
    8.3336  -13.4847   16.6642 C   0  0  0  0  0  0  0  0  0  0  0  0
    8.0824  -13.6894   15.3461 N   0  0  0  0  0  0  0  0  0  0  0  0
    8.4062  -14.9669   15.1029 C   0  0  0  0  0  0  0  0  0  0  0  0
    8.8502  -15.5468   16.2450 N   0  0  0  0  0  0  0  0  0  0  0  0
    9.0695  -13.9513   20.9234 C   0  0  0  0  0  0  0  0  0  0  0  0
   10.2108  -14.1449   21.4177 O   0  0  0  0  0  0  0  0  0  0  0  0
    6.8199  -13.9697   23.9955 C   0  0  0  0  0  0  0  0  0  0  0  0
    8.0735  -14.2608   23.2362 C   0  0  2  0  0  0  0  0  0  0  0  0
    7.9768  -13.9988   21.8331 N   0  0  0  0  0  0  0  0  0  0  0  0
    8.6281  -15.6194   23.5253 C   0  0  0  0  0  0  0  0  0  0  0  0
    8.0100  -16.6359   23.1351 O   0  0  0  0  0  0  0  0  0  0  0  0
   13.7795  -15.8120   19.0278 N   0  0  0  0  0  0  0  0  0  0  0  0
   13.4946  -15.3016   20.3103 C   0  0  0  0  0  0  0  0  0  0  0  0
   14.2172  -14.3161   20.7864 N   0  0  0  0  0  0  0  0  0  0  0  0
   12.4294  -15.8395   21.1055 N   0  0  0  0  0  0  0  0  0  0  0  0
   12.6638  -17.1225   21.7172 C   0  0  0  0  0  0  0  0  0  0  0  0
   11.4366  -17.5770   22.4964 C   0  0  0  0  0  0  0  0  0  0  0  0
   11.6210  -17.4569   23.9677 C   0  0  0  0  0  0  0  0  0  0  0  0
   10.3582  -17.0904   24.6523 C   0  0  2  0  0  0  0  0  0  0  0  0
    9.8400  -15.8013   24.2320 N   0  0  0  0  0  0  0  0  0  0  0  0
   10.4741  -17.2147   26.0981 C   0  0  0  0  0  0  0  0  0  0  0  0
   10.8770  -18.3445   26.5470 O   0  0  0  0  0  0  0  0  0  0  0  0
   10.2050  -16.2651   27.0538 O   0  0  0  0  0  0  0  0  0  0  0  0
  2  1  1  6
  2  9  1  0
  3  2  1  0
  3  4  1  0
  4  5  2  0
  4  8  1  0
  5  6  1  0
  6  7  1  0
  8  7  2  0
  9 10  2  0
 12 11  1  6
 12 14  1  0
 13 12  1  0
 13  9  1  0
 14 15  2  0
 17 18  2  0
 17 16  1  0
 19 20  1  0
 19 17  1  0
 20 21  1  0
 21 22  1  0
 23 22  1  6
 23 25  1  0
 24 23  1  0
 24 14  1  0
 25 26  2  0
 25 27  1  0
M  END
$$$$
