HAR.pdb
     RDKit          3D

 27 27  0  0  1  0  0  0  0  0999 V2000
   10.6802  -15.1378   15.5126 N   0  0  0  0  0  0  0  0  0  0  0  0
    9.4496  -15.2631   16.2643 C   0  0  1  0  0  0  0  0  0  0  0  0
    8.9298  -16.6731   16.1729 C   0  0  0  0  0  0  0  0  0  0  0  0
    8.3279  -16.8874   14.8395 C   0  0  0  0  0  0  0  0  0  0  0  0
    8.2922  -16.0426   13.7541 C   0  0  0  0  0  0  0  0  0  0  0  0
    7.6373  -16.6401   12.7263 N   0  0  0  0  0  0  0  0  0  0  0  0
    7.2704  -17.8483   13.1753 C   0  0  0  0  0  0  0  0  0  0  0  0
    7.6876  -18.0014   14.4561 N   0  0  0  0  0  0  0  0  0  0  0  0
    9.6074  -14.8074   17.6670 C   0  0  0  0  0  0  0  0  0  0  0  0
   10.6028  -15.1592   18.3525 O   0  0  0  0  0  0  0  0  0  0  0  0
    7.5864  -12.6785   20.1072 C   0  0  0  0  0  0  0  0  0  0  0  0
    8.7118  -13.5700   19.6928 C   0  0  2  0  0  0  0  0  0  0  0  0
    8.6666  -13.9614   18.3175 N   0  0  0  0  0  0  0  0  0  0  0  0
    8.9010  -14.7353   20.6111 C   0  0  0  0  0  0  0  0  0  0  0  0
    8.2691  -15.7959   20.4030 O   0  0  0  0  0  0  0  0  0  0  0  0
   14.6143  -13.8575   20.7263 N   0  0  0  0  0  0  0  0  0  0  0  0
   14.8434  -15.0731   20.0508 C   0  0  0  0  0  0  0  0  0  0  0  0
   15.4100  -15.0559   18.8681 N   0  0  0  0  0  0  0  0  0  0  0  0
   14.4685  -16.3293   20.6318 N   0  0  0  0  0  0  0  0  0  0  0  0
   13.7455  -16.2756   21.8766 C   0  0  0  0  0  0  0  0  0  0  0  0
   12.2539  -16.1004   21.6231 C   0  0  0  0  0  0  0  0  0  0  0  0
   11.4695  -16.0124   22.8841 C   0  0  0  0  0  0  0  0  0  0  0  0
   10.0271  -15.7940   22.6206 C   0  0  2  0  0  0  0  0  0  0  0  0
    9.7780  -14.6834   21.7199 N   0  0  0  0  0  0  0  0  0  0  0  0
    9.2612  -15.7096   23.8558 C   0  0  0  0  0  0  0  0  0  0  0  0
    8.6752  -14.5959   24.0933 O   0  0  0  0  0  0  0  0  0  0  0  0
    9.0831  -16.6822   24.8097 O   0  0  0  0  0  0  0  0  0  0  0  0
  2  1  1  1
  2  9  1  0
  3  2  1  0
  3  4  1  0
  4  5  2  0
  4  8  1  0
  5  6  1  0
  6  7  1  0
  8  7  2  0
  9 10  2  0
 12 11  1  1
 12 14  1  0
 13 12  1  0
 13  9  1  0
 14 15  2  0
 17 18  2  0
 17 16  1  0
 19 20  1  0
 19 17  1  0
 20 21  1  0
 21 22  1  0
 23 22  1  1
 23 25  1  0
 24 23  1  0
 24 14  1  0
 25 26  2  0
 25 27  1  0
M  END
$$$$
