HAR.pdb
     RDKit          3D

 27 27  0  0  1  0  0  0  0  0999 V2000
    9.4314  -12.8072   17.5115 N   0  0  0  0  0  0  0  0  0  0  0  0
    8.7569  -13.9451   18.0995 C   0  0  1  0  0  0  0  0  0  0  0  0
    9.1278  -15.2035   17.3609 C   0  0  0  0  0  0  0  0  0  0  0  0
    8.7402  -15.0695   15.9403 C   0  0  0  0  0  0  0  0  0  0  0  0
    7.5236  -15.3070   15.3433 C   0  0  0  0  0  0  0  0  0  0  0  0
    7.6065  -15.0554   14.0121 N   0  0  0  0  0  0  0  0  0  0  0  0
    8.8687  -14.6644   13.7884 C   0  0  0  0  0  0  0  0  0  0  0  0
    9.5586  -14.6718   14.9554 N   0  0  0  0  0  0  0  0  0  0  0  0
    9.0107  -14.0482   19.5573 C   0  0  0  0  0  0  0  0  0  0  0  0
   10.1832  -14.0071   20.0134 O   0  0  0  0  0  0  0  0  0  0  0  0
    6.9031  -14.3515   22.7191 C   0  0  0  0  0  0  0  0  0  0  0  0
    8.1561  -14.4540   21.9114 C   0  0  2  0  0  0  0  0  0  0  0  0
    7.9705  -14.1968   20.5163 N   0  0  0  0  0  0  0  0  0  0  0  0
    8.9092  -15.7216   22.1620 C   0  0  0  0  0  0  0  0  0  0  0  0
    9.2318  -16.4508   21.1968 O   0  0  0  0  0  0  0  0  0  0  0  0
   15.4268  -14.0209   20.2249 N   0  0  0  0  0  0  0  0  0  0  0  0
   14.5883  -14.8509   19.4538 C   0  0  0  0  0  0  0  0  0  0  0  0
   14.8133  -14.9773   18.1680 N   0  0  0  0  0  0  0  0  0  0  0  0
   13.4929  -15.5602   20.0483 N   0  0  0  0  0  0  0  0  0  0  0  0
   13.1943  -15.2528   21.4237 C   0  0  0  0  0  0  0  0  0  0  0  0
   12.0277  -16.0967   21.9204 C   0  0  0  0  0  0  0  0  0  0  0  0
   11.6994  -15.8293   23.3465 C   0  0  0  0  0  0  0  0  0  0  0  0
   10.5754  -16.6721   23.8196 C   0  0  2  0  0  0  0  0  0  0  0  0
    9.2753  -16.1328   23.4652 N   0  0  0  0  0  0  0  0  0  0  0  0
   10.6963  -16.9846   25.2363 C   0  0  0  0  0  0  0  0  0  0  0  0
   10.0145  -16.2617   26.0443 O   0  0  0  0  0  0  0  0  0  0  0  0
   11.4554  -17.9670   25.8248 O   0  0  0  0  0  0  0  0  0  0  0  0
  2  1  1  6
  2  9  1  0
  3  2  1  0
  3  4  1  0
  4  5  2  0
  4  8  1  0
  5  6  1  0
  6  7  1  0
  8  7  2  0
  9 10  2  0
 12 11  1  1
 12 14  1  0
 13 12  1  0
 13  9  1  0
 14 15  2  0
 17 18  2  0
 17 16  1  0
 19 20  1  0
 19 17  1  0
 20 21  1  0
 21 22  1  0
 23 22  1  1
 23 25  1  0
 24 23  1  0
 24 14  1  0
 25 26  2  0
 25 27  1  0
M  END
$$$$
