HAR.pdb
     RDKit          3D

 27 27  0  0  1  0  0  0  0  0999 V2000
    8.2858  -12.9074   17.8634 N   0  0  0  0  0  0  0  0  0  0  0  0
    7.3292  -13.3963   18.8337 C   0  0  1  0  0  0  0  0  0  0  0  0
    6.5276  -14.5263   18.2444 C   0  0  0  0  0  0  0  0  0  0  0  0
    7.4476  -15.5693   17.7425 C   0  0  0  0  0  0  0  0  0  0  0  0
    8.8233  -15.5921   17.7458 C   0  0  0  0  0  0  0  0  0  0  0  0
    9.2665  -16.7465   17.1860 N   0  0  0  0  0  0  0  0  0  0  0  0
    8.1693  -17.4331   16.8386 C   0  0  0  0  0  0  0  0  0  0  0  0
    7.0649  -16.7222   17.1748 N   0  0  0  0  0  0  0  0  0  0  0  0
    7.9789  -13.7699   20.1137 C   0  0  0  0  0  0  0  0  0  0  0  0
    9.1679  -14.1827   20.1384 O   0  0  0  0  0  0  0  0  0  0  0  0
    7.0304  -13.6589   23.8064 C   0  0  0  0  0  0  0  0  0  0  0  0
    7.9067  -13.9848   22.6407 C   0  0  2  0  0  0  0  0  0  0  0  0
    7.3179  -13.6889   21.3708 N   0  0  0  0  0  0  0  0  0  0  0  0
    8.4654  -15.3709   22.7007 C   0  0  0  0  0  0  0  0  0  0  0  0
    7.8000  -16.3266   22.2410 O   0  0  0  0  0  0  0  0  0  0  0  0
   16.2412  -19.1119   21.4980 N   0  0  0  0  0  0  0  0  0  0  0  0
   15.6236  -19.9797   22.4211 C   0  0  0  0  0  0  0  0  0  0  0  0
   16.2523  -21.0646   22.8053 N   0  0  0  0  0  0  0  0  0  0  0  0
   14.3200  -19.6992   22.9486 N   0  0  0  0  0  0  0  0  0  0  0  0
   13.6190  -18.5779   22.3772 C   0  0  0  0  0  0  0  0  0  0  0  0
   12.2303  -18.4458   22.9885 C   0  0  0  0  0  0  0  0  0  0  0  0
   11.6787  -17.0707   22.8545 C   0  0  0  0  0  0  0  0  0  0  0  0
   10.3015  -16.9753   23.3947 C   0  0  2  0  0  0  0  0  0  0  0  0
    9.7332  -15.6460   23.2648 N   0  0  0  0  0  0  0  0  0  0  0  0
   10.2170  -17.5019   24.7493 C   0  0  0  0  0  0  0  0  0  0  0  0
   10.5818  -18.7181   24.9167 O   0  0  0  0  0  0  0  0  0  0  0  0
    9.7926  -16.8545   25.8844 O   0  0  0  0  0  0  0  0  0  0  0  0
  2  1  1  6
  2  9  1  0
  3  2  1  0
  3  4  1  0
  4  5  2  0
  4  8  1  0
  5  6  1  0
  6  7  1  0
  8  7  2  0
  9 10  2  0
 12 11  1  1
 12 14  1  0
 13 12  1  0
 13  9  1  0
 14 15  2  0
 17 18  2  0
 17 16  1  0
 19 20  1  0
 19 17  1  0
 20 21  1  0
 21 22  1  0
 23 22  1  1
 23 25  1  0
 24 23  1  0
 24 14  1  0
 25 26  2  0
 25 27  1  0
M  END
$$$$
