HAR.pdb
     RDKit          3D

 27 27  0  0  1  0  0  0  0  0999 V2000
   10.1240  -15.6890   17.9224 N   0  0  0  0  0  0  0  0  0  0  0  0
   10.9400  -14.6851   18.5718 C   0  0  1  0  0  0  0  0  0  0  0  0
   10.1957  -14.0893   19.7371 C   0  0  0  0  0  0  0  0  0  0  0  0
    8.9050  -13.5434   19.2659 C   0  0  0  0  0  0  0  0  0  0  0  0
    8.6629  -12.4709   18.4388 C   0  0  0  0  0  0  0  0  0  0  0  0
    7.3258  -12.3174   18.2625 N   0  0  0  0  0  0  0  0  0  0  0  0
    6.7452  -13.2907   18.9776 C   0  0  0  0  0  0  0  0  0  0  0  0
    7.6999  -14.0358   19.5871 N   0  0  0  0  0  0  0  0  0  0  0  0
   12.2690  -15.2168   18.9606 C   0  0  0  0  0  0  0  0  0  0  0  0
   12.3686  -16.1996   19.7409 O   0  0  0  0  0  0  0  0  0  0  0  0
   15.8688  -14.6517   17.8817 C   0  0  0  0  0  0  0  0  0  0  0  0
   14.8000  -15.1592   18.7943 C   0  0  2  0  0  0  0  0  0  0  0  0
   13.4925  -14.6652   18.4889 N   0  0  0  0  0  0  0  0  0  0  0  0
   15.1453  -15.0014   20.2410 C   0  0  0  0  0  0  0  0  0  0  0  0
   14.9783  -13.8935   20.7997 O   0  0  0  0  0  0  0  0  0  0  0  0
   14.6128  -22.1248   23.1783 N   0  0  0  0  0  0  0  0  0  0  0  0
   13.6298  -21.1148   23.1934 C   0  0  0  0  0  0  0  0  0  0  0  0
   12.5134  -21.2926   22.5285 N   0  0  0  0  0  0  0  0  0  0  0  0
   13.8269  -19.8956   23.9220 N   0  0  0  0  0  0  0  0  0  0  0  0
   15.1251  -19.2807   23.8138 C   0  0  0  0  0  0  0  0  0  0  0  0
   15.0060  -17.8739   23.2423 C   0  0  0  0  0  0  0  0  0  0  0  0
   16.3297  -17.2186   23.0648 C   0  0  0  0  0  0  0  0  0  0  0  0
   16.2122  -15.9273   22.3462 C   0  0  2  0  0  0  0  0  0  0  0  0
   15.6601  -16.0704   21.0114 N   0  0  0  0  0  0  0  0  0  0  0  0
   17.4631  -15.1829   22.3692 C   0  0  0  0  0  0  0  0  0  0  0  0
   18.0758  -15.0545   21.2519 O   0  0  0  0  0  0  0  0  0  0  0  0
   18.0774  -14.5928   23.4472 O   0  0  0  0  0  0  0  0  0  0  0  0
  2  1  1  1
  2  9  1  0
  3  2  1  0
  3  4  1  0
  4  5  2  0
  4  8  1  0
  5  6  1  0
  6  7  1  0
  8  7  2  0
  9 10  2  0
 12 11  1  6
 12 14  1  0
 13 12  1  0
 13  9  1  0
 14 15  2  0
 17 18  2  0
 17 16  1  0
 19 20  1  0
 19 17  1  0
 20 21  1  0
 21 22  1  0
 23 22  1  6
 23 25  1  0
 24 23  1  0
 24 14  1  0
 25 26  2  0
 25 27  1  0
M  END
$$$$
