HAR.pdb
     RDKit          3D

 27 27  0  0  1  0  0  0  0  0999 V2000
   10.2963  -14.9046   14.8137 N   0  0  0  0  0  0  0  0  0  0  0  0
    9.2825  -15.4477   15.6928 C   0  0  1  0  0  0  0  0  0  0  0  0
    9.2690  -16.9503   15.5992 C   0  0  0  0  0  0  0  0  0  0  0  0
    8.9752  -17.3513   14.2067 C   0  0  0  0  0  0  0  0  0  0  0  0
    8.0587  -16.8274   13.3244 C   0  0  0  0  0  0  0  0  0  0  0  0
    8.1205  -17.4957   12.1446 N   0  0  0  0  0  0  0  0  0  0  0  0
    9.0708  -18.4280   12.2981 C   0  0  0  0  0  0  0  0  0  0  0  0
    9.5910  -18.3431   13.5471 N   0  0  0  0  0  0  0  0  0  0  0  0
    9.4427  -14.9684   17.0873 C   0  0  0  0  0  0  0  0  0  0  0  0
   10.4519  -15.2881   17.7684 O   0  0  0  0  0  0  0  0  0  0  0  0
    7.4513  -12.7733   19.4912 C   0  0  0  0  0  0  0  0  0  0  0  0
    8.5334  -13.7290   19.1057 C   0  0  2  0  0  0  0  0  0  0  0  0
    8.4892  -14.1343   17.7344 N   0  0  0  0  0  0  0  0  0  0  0  0
    8.6448  -14.8914   20.0402 C   0  0  0  0  0  0  0  0  0  0  0  0
    8.2175  -16.0135   19.6856 O   0  0  0  0  0  0  0  0  0  0  0  0
   16.1999  -16.4194   20.9796 N   0  0  0  0  0  0  0  0  0  0  0  0
   15.9146  -15.4850   21.9955 C   0  0  0  0  0  0  0  0  0  0  0  0
   16.9018  -14.8641   22.5954 N   0  0  0  0  0  0  0  0  0  0  0  0
   14.5647  -15.1998   22.3863 N   0  0  0  0  0  0  0  0  0  0  0  0
   13.5345  -16.0133   21.7929 C   0  0  0  0  0  0  0  0  0  0  0  0
   12.1622  -15.6020   22.3102 C   0  0  0  0  0  0  0  0  0  0  0  0
   11.0586  -16.3514   21.6517 C   0  0  0  0  0  0  0  0  0  0  0  0
    9.7277  -15.8832   22.1068 C   0  0  2  0  0  0  0  0  0  0  0  0
    9.2221  -14.7690   21.3260 N   0  0  0  0  0  0  0  0  0  0  0  0
    9.7073  -15.6309   23.5405 C   0  0  0  0  0  0  0  0  0  0  0  0
    9.9964  -16.6192   24.3019 O   0  0  0  0  0  0  0  0  0  0  0  0
    9.4154  -14.4554   24.1891 O   0  0  0  0  0  0  0  0  0  0  0  0
  2  1  1  6
  2  9  1  0
  3  2  1  0
  3  4  1  0
  4  5  2  0
  4  8  1  0
  5  6  1  0
  6  7  1  0
  8  7  2  0
  9 10  2  0
 12 11  1  1
 12 14  1  0
 13 12  1  0
 13  9  1  0
 14 15  2  0
 17 18  2  0
 17 16  1  0
 19 20  1  0
 19 17  1  0
 20 21  1  0
 21 22  1  0
 23 22  1  6
 23 25  1  0
 24 23  1  0
 24 14  1  0
 25 26  2  0
 25 27  1  0
M  END
$$$$
