HAR.pdb
     RDKit          3D

 27 27  0  0  1  0  0  0  0  0999 V2000
   10.7158  -14.9038   19.1034 N   0  0  0  0  0  0  0  0  0  0  0  0
    9.5127  -15.1110   19.8812 C   0  0  1  0  0  0  0  0  0  0  0  0
    8.4002  -15.5988   18.9916 C   0  0  0  0  0  0  0  0  0  0  0  0
    8.1251  -14.5847   17.9513 C   0  0  0  0  0  0  0  0  0  0  0  0
    8.7460  -13.3779   17.7257 C   0  0  0  0  0  0  0  0  0  0  0  0
    8.1770  -12.7590   16.6600 N   0  0  0  0  0  0  0  0  0  0  0  0
    7.2092  -13.5802   16.2299 C   0  0  0  0  0  0  0  0  0  0  0  0
    7.1752  -14.6880   17.0106 N   0  0  0  0  0  0  0  0  0  0  0  0
    9.7478  -16.0089   21.0382 C   0  0  0  0  0  0  0  0  0  0  0  0
    8.8175  -16.2878   21.8390 O   0  0  0  0  0  0  0  0  0  0  0  0
   12.7132  -17.9478   22.4578 C   0  0  0  0  0  0  0  0  0  0  0  0
   11.3162  -17.4177   22.4498 C   0  0  2  0  0  0  0  0  0  0  0  0
   11.0110  -16.6019   21.3148 N   0  0  0  0  0  0  0  0  0  0  0  0
   10.9327  -16.7655   23.7400 C   0  0  0  0  0  0  0  0  0  0  0  0
   11.5003  -15.7061   24.0904 O   0  0  0  0  0  0  0  0  0  0  0  0
    7.1146  -20.2519   23.7826 N   0  0  0  0  0  0  0  0  0  0  0  0
    6.1451  -20.5375   24.7651 C   0  0  0  0  0  0  0  0  0  0  0  0
    5.7257  -21.7708   24.9169 N   0  0  0  0  0  0  0  0  0  0  0  0
    5.6077  -19.5048   25.6024 N   0  0  0  0  0  0  0  0  0  0  0  0
    6.1370  -18.1784   25.4130 C   0  0  0  0  0  0  0  0  0  0  0  0
    7.4579  -18.0175   26.1539 C   0  0  0  0  0  0  0  0  0  0  0  0
    8.0408  -16.6589   25.9879 C   0  0  0  0  0  0  0  0  0  0  0  0
    9.5152  -16.7071   25.8411 C   0  0  2  0  0  0  0  0  0  0  0  0
    9.9402  -17.3077   24.5899 N   0  0  0  0  0  0  0  0  0  0  0  0
   10.1528  -17.3040   27.0059 C   0  0  0  0  0  0  0  0  0  0  0  0
    9.9776  -16.7072   28.1254 O   0  0  0  0  0  0  0  0  0  0  0  0
   10.9261  -18.4383   27.0595 O   0  0  0  0  0  0  0  0  0  0  0  0
  2  1  1  6
  2  9  1  0
  3  2  1  0
  3  4  1  0
  4  5  2  0
  4  8  1  0
  5  6  1  0
  6  7  1  0
  8  7  2  0
  9 10  2  0
 12 11  1  1
 12 14  1  0
 13 12  1  0
 13  9  1  0
 14 15  2  0
 17 18  2  0
 17 16  1  0
 19 20  1  0
 19 17  1  0
 20 21  1  0
 21 22  1  0
 23 22  1  1
 23 25  1  0
 24 23  1  0
 24 14  1  0
 25 26  2  0
 25 27  1  0
M  END
$$$$
