HAR.pdb
     RDKit          3D

 27 27  0  0  1  0  0  0  0  0999 V2000
    7.4405  -12.8775   19.0398 N   0  0  0  0  0  0  0  0  0  0  0  0
    7.6329  -14.2884   18.7798 C   0  0  1  0  0  0  0  0  0  0  0  0
    8.7667  -14.4847   17.8089 C   0  0  0  0  0  0  0  0  0  0  0  0
    8.2277  -14.5490   16.4336 C   0  0  0  0  0  0  0  0  0  0  0  0
    8.0525  -13.5366   15.5186 C   0  0  0  0  0  0  0  0  0  0  0  0
    7.5270  -14.0376   14.3718 N   0  0  0  0  0  0  0  0  0  0  0  0
    7.3786  -15.3534   14.5780 C   0  0  0  0  0  0  0  0  0  0  0  0
    7.8025  -15.6667   15.8270 N   0  0  0  0  0  0  0  0  0  0  0  0
    7.8182  -15.0630   20.0312 C   0  0  0  0  0  0  0  0  0  0  0  0
    8.2024  -14.4992   21.0891 O   0  0  0  0  0  0  0  0  0  0  0  0
    7.0697  -18.6040   21.2006 C   0  0  0  0  0  0  0  0  0  0  0  0
    7.7050  -17.2553   21.3031 C   0  0  2  0  0  0  0  0  0  0  0  0
    7.5795  -16.4627   20.1187 N   0  0  0  0  0  0  0  0  0  0  0  0
    9.1126  -17.3105   21.8055 C   0  0  0  0  0  0  0  0  0  0  0  0
    9.3731  -17.9550   22.8468 O   0  0  0  0  0  0  0  0  0  0  0  0
   16.7179  -13.5685   18.9337 N   0  0  0  0  0  0  0  0  0  0  0  0
   17.0659  -14.2707   20.1052 C   0  0  0  0  0  0  0  0  0  0  0  0
   18.3100  -14.2550   20.5200 N   0  0  0  0  0  0  0  0  0  0  0  0
   16.0854  -15.0025   20.8530 N   0  0  0  0  0  0  0  0  0  0  0  0
   14.7243  -14.9203   20.3882 C   0  0  0  0  0  0  0  0  0  0  0  0
   13.7832  -15.6224   21.3583 C   0  0  0  0  0  0  0  0  0  0  0  0
   12.3707  -15.6067   20.8918 C   0  0  0  0  0  0  0  0  0  0  0  0
   11.5308  -16.5658   21.6483 C   0  0  2  0  0  0  0  0  0  0  0  0
   10.1741  -16.6536   21.1399 N   0  0  0  0  0  0  0  0  0  0  0  0
   11.5880  -16.3172   23.0816 C   0  0  0  0  0  0  0  0  0  0  0  0
   10.8102  -15.4079   23.5383 O   0  0  0  0  0  0  0  0  0  0  0  0
   12.3769  -16.9400   24.0181 O   0  0  0  0  0  0  0  0  0  0  0  0
  2  1  1  1
  2  9  1  0
  3  2  1  0
  3  4  1  0
  4  5  2  0
  4  8  1  0
  5  6  1  0
  6  7  1  0
  8  7  2  0
  9 10  2  0
 12 11  1  6
 12 14  1  0
 13 12  1  0
 13  9  1  0
 14 15  2  0
 17 18  2  0
 17 16  1  0
 19 20  1  0
 19 17  1  0
 20 21  1  0
 21 22  1  0
 23 22  1  6
 23 25  1  0
 24 23  1  0
 24 14  1  0
 25 26  2  0
 25 27  1  0
M  END
$$$$
