HAR.pdb
     RDKit          3D

 27 27  0  0  1  0  0  0  0  0999 V2000
    9.9493  -15.8737   15.5709 N   0  0  0  0  0  0  0  0  0  0  0  0
    8.9018  -15.9215   16.5687 C   0  0  1  0  0  0  0  0  0  0  0  0
    8.7111  -17.3353   17.0499 C   0  0  0  0  0  0  0  0  0  0  0  0
    7.8724  -18.0731   16.0811 C   0  0  0  0  0  0  0  0  0  0  0  0
    6.6810  -17.7028   15.5013 C   0  0  0  0  0  0  0  0  0  0  0  0
    6.2513  -18.6819   14.6653 N   0  0  0  0  0  0  0  0  0  0  0  0
    7.1734  -19.6523   14.7288 C   0  0  0  0  0  0  0  0  0  0  0  0
    8.1576  -19.2862   15.5863 N   0  0  0  0  0  0  0  0  0  0  0  0
    9.1518  -14.9732   17.6816 C   0  0  0  0  0  0  0  0  0  0  0  0
   10.2924  -14.8783   18.2055 O   0  0  0  0  0  0  0  0  0  0  0  0
    7.1285  -12.3477   19.5694 C   0  0  0  0  0  0  0  0  0  0  0  0
    8.3141  -13.2205   19.3136 C   0  0  2  0  0  0  0  0  0  0  0  0
    8.1432  -14.1264   18.2195 N   0  0  0  0  0  0  0  0  0  0  0  0
    8.8119  -13.9042   20.5472 C   0  0  0  0  0  0  0  0  0  0  0  0
    9.1955  -13.2190   21.5222 O   0  0  0  0  0  0  0  0  0  0  0  0
    8.8461  -22.4509   20.4122 N   0  0  0  0  0  0  0  0  0  0  0  0
    9.7501  -21.7734   19.5694 C   0  0  0  0  0  0  0  0  0  0  0  0
   10.4112  -22.4477   18.6593 N   0  0  0  0  0  0  0  0  0  0  0  0
    9.9612  -20.3600   19.6877 N   0  0  0  0  0  0  0  0  0  0  0  0
    9.2488  -19.6862   20.7430 C   0  0  0  0  0  0  0  0  0  0  0  0
    9.6228  -18.2104   20.7850 C   0  0  0  0  0  0  0  0  0  0  0  0
    8.8669  -17.4618   21.8248 C   0  0  0  0  0  0  0  0  0  0  0  0
    9.2485  -16.0297   21.8583 C   0  0  2  0  0  0  0  0  0  0  0  0
    8.8662  -15.3138   20.6549 N   0  0  0  0  0  0  0  0  0  0  0  0
   10.6516  -15.8545   22.2047 C   0  0  0  0  0  0  0  0  0  0  0  0
   11.0279  -16.3275   23.3338 O   0  0  0  0  0  0  0  0  0  0  0  0
   11.6355  -15.2412   21.4675 O   0  0  0  0  0  0  0  0  0  0  0  0
  2  1  1  6
  2  9  1  0
  3  2  1  0
  3  4  1  0
  4  5  2  0
  4  8  1  0
  5  6  1  0
  6  7  1  0
  8  7  2  0
  9 10  2  0
 12 11  1  1
 12 14  1  0
 13 12  1  0
 13  9  1  0
 14 15  2  0
 17 18  2  0
 17 16  1  0
 19 20  1  0
 19 17  1  0
 20 21  1  0
 21 22  1  0
 23 22  1  6
 23 25  1  0
 24 23  1  0
 24 14  1  0
 25 26  2  0
 25 27  1  0
M  END
$$$$
