HAR.pdb
     RDKit          3D

 27 27  0  0  1  0  0  0  0  0999 V2000
    9.5669  -13.6694   21.2986 N   0  0  0  0  0  0  0  0  0  0  0  0
    8.2484  -13.6999   21.8953 C   0  0  1  0  0  0  0  0  0  0  0  0
    7.3837  -14.7077   21.1858 C   0  0  0  0  0  0  0  0  0  0  0  0
    7.3109  -14.3650   19.7493 C   0  0  0  0  0  0  0  0  0  0  0  0
    7.9583  -13.3670   19.0581 C   0  0  0  0  0  0  0  0  0  0  0  0
    7.6039  -13.4087   17.7485 N   0  0  0  0  0  0  0  0  0  0  0  0
    6.7416  -14.4279   17.6319 C   0  0  0  0  0  0  0  0  0  0  0  0
    6.5618  -15.0098   18.8431 N   0  0  0  0  0  0  0  0  0  0  0  0
    8.3070  -13.9343   23.3588 C   0  0  0  0  0  0  0  0  0  0  0  0
    9.1074  -14.7743   23.8470 O   0  0  0  0  0  0  0  0  0  0  0  0
    6.6656  -12.4073   26.4451 C   0  0  0  0  0  0  0  0  0  0  0  0
    7.5508  -13.3622   25.7120 C   0  0  2  0  0  0  0  0  0  0  0  0
    7.4821  -13.2417   24.2881 N   0  0  0  0  0  0  0  0  0  0  0  0
    7.3912  -14.7762   26.1727 C   0  0  0  0  0  0  0  0  0  0  0  0
    6.5296  -15.5085   25.6352 O   0  0  0  0  0  0  0  0  0  0  0  0
   12.2676  -19.4032   22.2753 N   0  0  0  0  0  0  0  0  0  0  0  0
   12.0974  -20.2768   23.3682 C   0  0  0  0  0  0  0  0  0  0  0  0
   12.5358  -21.5098   23.2816 N   0  0  0  0  0  0  0  0  0  0  0  0
   11.4535  -19.8433   24.5740 N   0  0  0  0  0  0  0  0  0  0  0  0
   10.9025  -18.5123   24.5698 C   0  0  0  0  0  0  0  0  0  0  0  0
   10.1445  -18.2420   25.8629 C   0  0  0  0  0  0  0  0  0  0  0  0
    9.5467  -16.8802   25.8973 C   0  0  0  0  0  0  0  0  0  0  0  0
    8.8039  -16.6370   27.1569 C   0  0  2  0  0  0  0  0  0  0  0  0
    8.1871  -15.3240   27.2060 N   0  0  0  0  0  0  0  0  0  0  0  0
    9.6192  -16.9283   28.3273 C   0  0  0  0  0  0  0  0  0  0  0  0
   10.1563  -15.9263   28.9170 O   0  0  0  0  0  0  0  0  0  0  0  0
    9.8889  -18.1534   28.8877 O   0  0  0  0  0  0  0  0  0  0  0  0
  2  1  1  6
  2  9  1  0
  3  2  1  0
  3  4  1  0
  4  5  2  0
  4  8  1  0
  5  6  1  0
  6  7  1  0
  8  7  2  0
  9 10  2  0
 12 11  1  1
 12 14  1  0
 13 12  1  0
 13  9  1  0
 14 15  2  0
 17 18  2  0
 17 16  1  0
 19 20  1  0
 19 17  1  0
 20 21  1  0
 21 22  1  0
 23 22  1  6
 23 25  1  0
 24 23  1  0
 24 14  1  0
 25 26  2  0
 25 27  1  0
M  END
$$$$
