ARW.pdb
     RDKit          3D

 31 32  0  0  1  0  0  0  0  0999 V2000
   30.0816  -22.8543  -17.3856 C   0  0  0  0  0  0  0  0  0  0  0  0
   29.8121  -22.8512  -15.8996 C   0  0  2  0  0  0  0  0  0  0  0  0
   29.7585  -24.2239  -15.4582 N   0  0  0  0  0  0  0  0  0  0  0  0
   28.5106  -22.1827  -15.6554 C   0  0  0  0  0  0  0  0  0  0  0  0
   28.2853  -20.9968  -15.9526 O   0  0  0  0  0  0  0  0  0  0  0  0
   25.6913  -26.9332  -17.4939 N   0  0  0  0  0  0  0  0  0  0  0  0
   24.4542  -26.7559  -16.8469 C   0  0  0  0  0  0  0  0  0  0  0  0
   23.7137  -27.7677  -16.5660 N   0  0  0  0  0  0  0  0  0  0  0  0
   24.0384  -25.4395  -16.5097 N   0  0  0  0  0  0  0  0  0  0  0  0
   24.3472  -24.2961  -17.3196 C   0  0  0  0  0  0  0  0  0  0  0  0
   25.4691  -23.4978  -16.7016 C   0  0  0  0  0  0  0  0  0  0  0  0
   25.0879  -23.1144  -15.3041 C   0  0  0  0  0  0  0  0  0  0  0  0
   26.2191  -22.3394  -14.6128 C   0  0  2  0  0  0  0  0  0  0  0  0
   27.4547  -22.9163  -15.0522 N   0  0  0  0  0  0  0  0  0  0  0  0
   26.0277  -22.2715  -13.1672 C   0  0  0  0  0  0  0  0  0  0  0  0
   25.6217  -23.3242  -12.5898 O   0  0  0  0  0  0  0  0  0  0  0  0
   22.8290  -27.6899  -16.0362 N   0  0  0  0  0  0  0  0  0  0  0  0
   26.2502  -21.1424  -12.3358 C   0  0  1  0  0  0  0  0  0  0  0  0
   25.8255  -21.1143  -10.9374 C   0  0  0  0  0  0  0  0  0  0  0  0
   26.9440  -20.6699  -10.0468 C   0  0  0  0  0  0  0  0  0  0  0  0
   26.5762  -20.4554   -8.6327 C   0  0  0  0  0  0  0  0  0  0  0  0
   25.2676  -20.5572   -8.1278 N   0  0  0  0  0  0  0  0  0  0  0  0
   25.3045  -20.3391   -6.8140 C   0  0  0  0  0  0  0  0  0  0  0  0
   26.5547  -20.0969   -6.4072 C   0  0  0  0  0  0  0  0  0  0  0  0
   27.0999  -19.8087   -5.1630 C   0  0  0  0  0  0  0  0  0  0  0  0
   28.4462  -19.5807   -4.9970 C   0  0  0  0  0  0  0  0  0  0  0  0
   29.2459  -19.6476   -6.1171 C   0  0  0  0  0  0  0  0  0  0  0  0
   28.6908  -19.9362   -7.3535 C   0  0  0  0  0  0  0  0  0  0  0  0
   27.3539  -20.1675   -7.5387 C   0  0  0  0  0  0  0  0  0  0  0  0
   24.5789  -20.3581  -10.8441 O   0  0  0  0  0  0  0  0  0  0  0  0
   24.3170  -19.2815  -11.4304 O   0  0  0  0  0  0  0  0  0  0  0  0
  2  1  1  6
  3  2  1  0
  4  2  1  0
  4  5  2  0
  7  6  1  0
  8  7  2  0
  9  7  1  0
 10 11  1  0
 10  9  1  0
 11 12  1  0
 13 12  1  6
 13 14  1  0
 14  4  1  0
 15 13  1  0
 16 15  2  0
 17 15  1  0
 18 29  1  0
 18 17  1  0
 18 19  1  1
 20 19  1  0
 21 20  2  0
 22 21  1  0
 23 22  1  0
 23 28  2  0
 24 23  1  0
 25 24  2  0
 25 26  1  0
 26 27  2  0
 27 28  1  0
 28 20  1  0
 29 31  1  0
 30 29  2  0
M  END
$$$$
