ARW.pdb
     RDKit          3D

 31 32  0  0  1  0  0  0  0  0999 V2000
   26.5308  -24.9510  -17.8901 C   0  0  0  0  0  0  0  0  0  0  0  0
   27.5920  -23.9002  -17.6659 C   0  0  2  0  0  0  0  0  0  0  0  0
   28.8273  -24.5794  -17.3583 N   0  0  0  0  0  0  0  0  0  0  0  0
   27.1791  -23.0452  -16.5262 C   0  0  0  0  0  0  0  0  0  0  0  0
   27.0674  -23.4660  -15.3618 O   0  0  0  0  0  0  0  0  0  0  0  0
   29.7161  -17.7621  -19.3488 N   0  0  0  0  0  0  0  0  0  0  0  0
   28.3191  -17.8710  -19.4783 C   0  0  0  0  0  0  0  0  0  0  0  0
   27.7935  -18.2373  -20.5921 N   0  0  0  0  0  0  0  0  0  0  0  0
   27.5001  -17.5692  -18.3568 N   0  0  0  0  0  0  0  0  0  0  0  0
   28.0106  -17.5044  -17.0174 C   0  0  0  0  0  0  0  0  0  0  0  0
   27.9646  -18.8658  -16.3675 C   0  0  0  0  0  0  0  0  0  0  0  0
   26.5460  -19.3476  -16.3353 C   0  0  0  0  0  0  0  0  0  0  0  0
   26.4528  -20.7606  -15.7414 C   0  0  2  0  0  0  0  0  0  0  0  0
   26.8917  -21.6733  -16.7549 N   0  0  0  0  0  0  0  0  0  0  0  0
   25.1344  -21.0265  -15.1742 C   0  0  0  0  0  0  0  0  0  0  0  0
   24.1988  -21.2872  -15.9885 O   0  0  0  0  0  0  0  0  0  0  0  0
   26.7745  -18.3562  -20.7233 N   0  0  0  0  0  0  0  0  0  0  0  0
   24.7887  -21.0233  -13.7972 C   0  0  2  0  0  0  0  0  0  0  0  0
   23.4345  -21.3257  -13.3377 C   0  0  0  0  0  0  0  0  0  0  0  0
   23.4572  -21.9474  -11.9758 C   0  0  0  0  0  0  0  0  0  0  0  0
   24.1466  -21.1589  -10.9346 C   0  0  0  0  0  0  0  0  0  0  0  0
   23.4940  -20.3411   -9.9949 N   0  0  0  0  0  0  0  0  0  0  0  0
   24.4119  -19.8106   -9.1882 C   0  0  0  0  0  0  0  0  0  0  0  0
   25.6380  -20.2206   -9.5285 C   0  0  0  0  0  0  0  0  0  0  0  0
   26.8981  -19.9474   -9.0132 C   0  0  0  0  0  0  0  0  0  0  0  0
   28.0374  -20.4937   -9.5568 C   0  0  0  0  0  0  0  0  0  0  0  0
   27.8872  -21.3299  -10.6416 C   0  0  0  0  0  0  0  0  0  0  0  0
   26.6248  -21.5955  -11.1472 C   0  0  0  0  0  0  0  0  0  0  0  0
   25.4791  -21.0627  -10.6192 C   0  0  0  0  0  0  0  0  0  0  0  0
   22.6114  -20.1288  -13.4934 O   0  0  0  0  0  0  0  0  0  0  0  0
   21.3588  -20.0861  -13.5176 O   0  0  0  0  0  0  0  0  0  0  0  0
  2  1  1  1
  3  2  1  0
  4  2  1  0
  4  5  2  0
  7  6  1  0
  8  7  2  0
  9  7  1  0
 10 11  1  0
 10  9  1  0
 11 12  1  0
 13 12  1  6
 13 14  1  0
 14  4  1  0
 15 13  1  0
 16 15  2  0
 17 15  1  0
 18 29  1  0
 18 17  1  0
 18 19  1  6
 20 19  1  0
 21 20  2  0
 22 21  1  0
 23 22  1  0
 23 28  2  0
 24 23  1  0
 25 24  2  0
 25 26  1  0
 26 27  2  0
 27 28  1  0
 28 20  1  0
 29 31  1  0
 30 29  2  0
M  END
$$$$
