ARW.pdb
     RDKit          3D

 31 32  0  0  1  0  0  0  0  0999 V2000
   30.2796  -21.4964  -14.3488 C   0  0  0  0  0  0  0  0  0  0  0  0
   28.8547  -21.5800  -14.8423 C   0  0  2  0  0  0  0  0  0  0  0  0
   28.8422  -21.1697  -16.2255 N   0  0  0  0  0  0  0  0  0  0  0  0
   28.0168  -20.6658  -14.0283 C   0  0  0  0  0  0  0  0  0  0  0  0
   28.0014  -19.4325  -14.1843 O   0  0  0  0  0  0  0  0  0  0  0  0
   20.1806  -19.0387  -12.3077 N   0  0  0  0  0  0  0  0  0  0  0  0
   20.3009  -20.4384  -12.3901 C   0  0  0  0  0  0  0  0  0  0  0  0
   19.3990  -21.2017  -11.8852 N   0  0  0  0  0  0  0  0  0  0  0  0
   21.4361  -20.9927  -13.0409 N   0  0  0  0  0  0  0  0  0  0  0  0
   22.5337  -20.1927  -13.5035 C   0  0  0  0  0  0  0  0  0  0  0  0
   23.6800  -20.2504  -12.5235 C   0  0  0  0  0  0  0  0  0  0  0  0
   24.9695  -20.3484  -13.2805 C   0  0  0  0  0  0  0  0  0  0  0  0
   26.1664  -20.4665  -12.3257 C   0  0  2  0  0  0  0  0  0  0  0  0
   27.1827  -21.2059  -13.0136 N   0  0  0  0  0  0  0  0  0  0  0  0
   25.7722  -20.9902  -11.0213 C   0  0  0  0  0  0  0  0  0  0  0  0
   25.5719  -22.2390  -10.9385 O   0  0  0  0  0  0  0  0  0  0  0  0
   19.4278  -22.2330  -11.9567 N   0  0  0  0  0  0  0  0  0  0  0  0
   25.5885  -20.2419   -9.8289 C   0  0  2  0  0  0  0  0  0  0  0  0
   25.2458  -20.8797   -8.5591 C   0  0  0  0  0  0  0  0  0  0  0  0
   25.7891  -20.0982   -7.4034 C   0  0  0  0  0  0  0  0  0  0  0  0
   27.2569  -20.1434   -7.2465 C   0  0  0  0  0  0  0  0  0  0  0  0
   28.1501  -20.5689   -8.2459 N   0  0  0  0  0  0  0  0  0  0  0  0
   29.3925  -20.4465   -7.7810 C   0  0  0  0  0  0  0  0  0  0  0  0
   29.3881  -19.9666   -6.5332 C   0  0  0  0  0  0  0  0  0  0  0  0
   30.4049  -19.6768   -5.6331 C   0  0  0  0  0  0  0  0  0  0  0  0
   30.1411  -19.1923   -4.3731 C   0  0  0  0  0  0  0  0  0  0  0  0
   28.8208  -19.0019   -4.0280 C   0  0  0  0  0  0  0  0  0  0  0  0
   27.8145  -19.2943   -4.9345 C   0  0  0  0  0  0  0  0  0  0  0  0
   28.0569  -19.7757   -6.1933 C   0  0  0  0  0  0  0  0  0  0  0  0
   23.8100  -21.1493   -8.5455 O   0  0  0  0  0  0  0  0  0  0  0  0
   22.9642  -20.7136   -9.3617 O   0  0  0  0  0  0  0  0  0  0  0  0
  2  1  1  1
  3  2  1  0
  4  2  1  0
  4  5  2  0
  7  6  1  0
  8  7  2  0
  9  7  1  0
 10 11  1  0
 10  9  1  0
 11 12  1  0
 13 12  1  6
 13 14  1  0
 14  4  1  0
 15 13  1  0
 16 15  2  0
 17 15  1  0
 18 29  1  0
 18 17  1  0
 18 19  1  1
 20 19  1  0
 21 20  2  0
 22 21  1  0
 23 22  1  0
 23 28  2  0
 24 23  1  0
 25 24  2  0
 25 26  1  0
 26 27  2  0
 27 28  1  0
 28 20  1  0
 29 31  1  0
 30 29  2  0
M  END
$$$$
