ARW.pdb
     RDKit          3D

 31 32  0  0  1  0  0  0  0  0999 V2000
   28.1585  -20.4823  -17.0179 C   0  0  0  0  0  0  0  0  0  0  0  0
   28.3584  -21.0104  -15.6172 C   0  0  2  0  0  0  0  0  0  0  0  0
   28.0902  -22.4280  -15.6379 N   0  0  0  0  0  0  0  0  0  0  0  0
   27.4075  -20.3215  -14.7108 C   0  0  0  0  0  0  0  0  0  0  0  0
   27.4251  -19.0955  -14.5061 O   0  0  0  0  0  0  0  0  0  0  0  0
   20.1102  -22.3805  -11.5161 N   0  0  0  0  0  0  0  0  0  0  0  0
   19.8860  -20.9918  -11.5578 C   0  0  0  0  0  0  0  0  0  0  0  0
   19.0603  -20.4393  -10.7429 N   0  0  0  0  0  0  0  0  0  0  0  0
   20.5880  -20.2116  -12.5159 N   0  0  0  0  0  0  0  0  0  0  0  0
   21.6445  -20.7443  -13.3275 C   0  0  0  0  0  0  0  0  0  0  0  0
   22.9902  -20.3902  -12.7430 C   0  0  0  0  0  0  0  0  0  0  0  0
   24.0695  -20.9357  -13.6279 C   0  0  0  0  0  0  0  0  0  0  0  0
   25.4612  -20.5314  -13.1200 C   0  0  2  0  0  0  0  0  0  0  0  0
   26.4189  -21.0825  -14.0321 N   0  0  0  0  0  0  0  0  0  0  0  0
   25.6493  -20.8779  -11.7145 C   0  0  0  0  0  0  0  0  0  0  0  0
   25.5928  -22.1073  -11.4117 O   0  0  0  0  0  0  0  0  0  0  0  0
   18.8568  -19.4254  -10.7467 N   0  0  0  0  0  0  0  0  0  0  0  0
   25.8902  -19.9758  -10.6451 C   0  0  2  0  0  0  0  0  0  0  0  0
   26.1131  -20.4385   -9.2766 C   0  0  0  0  0  0  0  0  0  0  0  0
   27.0753  -19.5438   -8.5587 C   0  0  0  0  0  0  0  0  0  0  0  0
   28.1459  -20.2376   -7.8146 C   0  0  0  0  0  0  0  0  0  0  0  0
   28.8226  -21.3805   -8.2769 N   0  0  0  0  0  0  0  0  0  0  0  0
   29.7446  -21.7176   -7.3763 C   0  0  0  0  0  0  0  0  0  0  0  0
   29.7278  -20.8734   -6.3398 C   0  0  0  0  0  0  0  0  0  0  0  0
   30.4708  -20.8068   -5.1686 C   0  0  0  0  0  0  0  0  0  0  0  0
   30.2534  -19.8279   -4.2271 C   0  0  0  0  0  0  0  0  0  0  0  0
   29.2634  -18.9050   -4.4855 C   0  0  0  0  0  0  0  0  0  0  0  0
   28.5284  -18.9812   -5.6577 C   0  0  0  0  0  0  0  0  0  0  0  0
   28.7308  -19.9469   -6.6072 C   0  0  0  0  0  0  0  0  0  0  0  0
   24.8158  -20.6458   -8.6376 O   0  0  0  0  0  0  0  0  0  0  0  0
   24.6169  -21.1381   -7.5020 O   0  0  0  0  0  0  0  0  0  0  0  0
  2  1  1  6
  3  2  1  0
  4  2  1  0
  4  5  2  0
  7  6  1  0
  8  7  2  0
  9  7  1  0
 10 11  1  0
 10  9  1  0
 11 12  1  0
 13 12  1  6
 13 14  1  0
 14  4  1  0
 15 13  1  0
 16 15  2  0
 17 15  1  0
 18 29  1  0
 18 17  1  0
 18 19  1  6
 20 19  1  0
 21 20  2  0
 22 21  1  0
 23 22  1  0
 23 28  2  0
 24 23  1  0
 25 24  2  0
 25 26  1  0
 26 27  2  0
 27 28  1  0
 28 20  1  0
 29 31  1  0
 30 29  2  0
M  END
$$$$
