ARW.pdb
     RDKit          3D

 31 32  0  0  1  0  0  0  0  0999 V2000
   30.3719  -22.3442  -17.5731 C   0  0  0  0  0  0  0  0  0  0  0  0
   28.9978  -22.8017  -17.1448 C   0  0  2  0  0  0  0  0  0  0  0  0
   28.1205  -22.6900  -18.2849 N   0  0  0  0  0  0  0  0  0  0  0  0
   28.5266  -21.9228  -16.0467 C   0  0  0  0  0  0  0  0  0  0  0  0
   29.1288  -21.7966  -14.9664 O   0  0  0  0  0  0  0  0  0  0  0  0
   27.6198  -14.9201  -16.8325 N   0  0  0  0  0  0  0  0  0  0  0  0
   27.8933  -15.5041  -18.0833 C   0  0  0  0  0  0  0  0  0  0  0  0
   28.8173  -15.0272  -18.8381 N   0  0  0  0  0  0  0  0  0  0  0  0
   27.1305  -16.6296  -18.4969 N   0  0  0  0  0  0  0  0  0  0  0  0
   26.2465  -17.3354  -17.6143 C   0  0  0  0  0  0  0  0  0  0  0  0
   27.0198  -18.3086  -16.7583 C   0  0  0  0  0  0  0  0  0  0  0  0
   26.0561  -19.1697  -15.9998 C   0  0  0  0  0  0  0  0  0  0  0  0
   26.7881  -20.2839  -15.2377 C   0  0  2  0  0  0  0  0  0  0  0  0
   27.3288  -21.1790  -16.2172 N   0  0  0  0  0  0  0  0  0  0  0  0
   25.9396  -20.8941  -14.2186 C   0  0  0  0  0  0  0  0  0  0  0  0
   24.8394  -21.3898  -14.6062 O   0  0  0  0  0  0  0  0  0  0  0  0
   29.0228  -15.3979  -19.7815 N   0  0  0  0  0  0  0  0  0  0  0  0
   26.2201  -20.9906  -12.8302 C   0  0  2  0  0  0  0  0  0  0  0  0
   25.2602  -21.5551  -11.8834 C   0  0  0  0  0  0  0  0  0  0  0  0
   25.9499  -22.0384  -10.6455 C   0  0  0  0  0  0  0  0  0  0  0  0
   26.2360  -20.9984   -9.6367 C   0  0  0  0  0  0  0  0  0  0  0  0
   25.3672  -19.9391   -9.3192 N   0  0  0  0  0  0  0  0  0  0  0  0
   25.9216  -19.2161   -8.3472 C   0  0  0  0  0  0  0  0  0  0  0  0
   27.1069  -19.7236   -7.9941 C   0  0  0  0  0  0  0  0  0  0  0  0
   28.0554  -19.3348   -7.0574 C   0  0  0  0  0  0  0  0  0  0  0  0
   29.2301  -20.0291   -6.8844 C   0  0  0  0  0  0  0  0  0  0  0  0
   29.4387  -21.1351   -7.6793 C   0  0  0  0  0  0  0  0  0  0  0  0
   28.4851  -21.5139   -8.6104 C   0  0  0  0  0  0  0  0  0  0  0  0
   27.3094  -20.8369   -8.7964 C   0  0  0  0  0  0  0  0  0  0  0  0
   24.1751  -20.5958  -11.6919 O   0  0  0  0  0  0  0  0  0  0  0  0
   23.0091  -20.8582  -11.3138 O   0  0  0  0  0  0  0  0  0  0  0  0
  2  1  1  6
  3  2  1  0
  4  2  1  0
  4  5  2  0
  7  6  1  0
  8  7  2  0
  9  7  1  0
 10 11  1  0
 10  9  1  0
 11 12  1  0
 13 12  1  6
 13 14  1  0
 14  4  1  0
 15 13  1  0
 16 15  2  0
 17 15  1  0
 18 29  1  0
 18 17  1  0
 18 19  1  6
 20 19  1  0
 21 20  2  0
 22 21  1  0
 23 22  1  0
 23 28  2  0
 24 23  1  0
 25 24  2  0
 25 26  1  0
 26 27  2  0
 27 28  1  0
 28 20  1  0
 29 31  1  0
 30 29  2  0
M  END
$$$$
