ARW.pdb
     RDKit          3D

 31 32  0  0  1  0  0  0  0  0999 V2000
   19.5074  -20.4638  -12.1826 C   0  0  0  0  0  0  0  0  0  0  0  0
   20.6366  -20.4399  -13.1852 C   0  0  2  0  0  0  0  0  0  0  0  0
   20.2169  -21.1961  -14.3403 N   0  0  0  0  0  0  0  0  0  0  0  0
   21.8313  -21.0663  -12.5683 C   0  0  0  0  0  0  0  0  0  0  0  0
   21.7932  -21.7103  -11.5056 O   0  0  0  0  0  0  0  0  0  0  0  0
   25.1801  -23.4189  -17.8176 N   0  0  0  0  0  0  0  0  0  0  0  0
   25.2013  -24.6736  -17.1806 C   0  0  0  0  0  0  0  0  0  0  0  0
   24.7243  -25.7119  -17.7682 N   0  0  0  0  0  0  0  0  0  0  0  0
   25.7592  -24.7724  -15.8773 N   0  0  0  0  0  0  0  0  0  0  0  0
   26.3086  -23.6450  -15.1802 C   0  0  0  0  0  0  0  0  0  0  0  0
   25.4900  -23.3330  -13.9512 C   0  0  0  0  0  0  0  0  0  0  0  0
   25.1677  -21.8696  -13.9337 C   0  0  0  0  0  0  0  0  0  0  0  0
   24.3113  -21.5043  -12.7125 C   0  0  2  0  0  0  0  0  0  0  0  0
   23.0928  -20.9358  -13.2075 N   0  0  0  0  0  0  0  0  0  0  0  0
   25.0503  -20.6880  -11.7543 C   0  0  0  0  0  0  0  0  0  0  0  0
   25.3753  -19.5196  -12.1226 O   0  0  0  0  0  0  0  0  0  0  0  0
   24.7806  -26.6634  -17.3667 N   0  0  0  0  0  0  0  0  0  0  0  0
   25.4456  -21.0689  -10.4449 C   0  0  2  0  0  0  0  0  0  0  0  0
   26.4112  -20.2916   -9.6703 C   0  0  0  0  0  0  0  0  0  0  0  0
   26.1550  -20.4296   -8.2017 C   0  0  0  0  0  0  0  0  0  0  0  0
   27.0416  -19.6330   -7.3297 C   0  0  0  0  0  0  0  0  0  0  0  0
   27.1733  -18.2344   -7.3955 N   0  0  0  0  0  0  0  0  0  0  0  0
   28.0232  -17.8458   -6.4461 C   0  0  0  0  0  0  0  0  0  0  0  0
   28.4697  -18.8955   -5.7491 C   0  0  0  0  0  0  0  0  0  0  0  0
   29.3585  -19.0112   -4.6884 C   0  0  0  0  0  0  0  0  0  0  0  0
   29.6742  -20.2313   -4.1373 C   0  0  0  0  0  0  0  0  0  0  0  0
   29.0742  -21.3480   -4.6774 C   0  0  0  0  0  0  0  0  0  0  0  0
   28.1887  -21.2204   -5.7355 C   0  0  0  0  0  0  0  0  0  0  0  0
   27.8608  -20.0151   -6.2965 C   0  0  0  0  0  0  0  0  0  0  0  0
   27.7564  -20.6273  -10.1310 O   0  0  0  0  0  0  0  0  0  0  0  0
   28.1993  -21.7783  -10.3560 O   0  0  0  0  0  0  0  0  0  0  0  0
  2  1  1  1
  3  2  1  0
  4  2  1  0
  4  5  2  0
  7  6  1  0
  8  7  2  0
  9  7  1  0
 10 11  1  0
 10  9  1  0
 11 12  1  0
 13 12  1  6
 13 14  1  0
 14  4  1  0
 15 13  1  0
 16 15  2  0
 17 15  1  0
 18 29  1  0
 18 17  1  0
 18 19  1  1
 20 19  1  0
 21 20  2  0
 22 21  1  0
 23 22  1  0
 23 28  2  0
 24 23  1  0
 25 24  2  0
 25 26  1  0
 26 27  2  0
 27 28  1  0
 28 20  1  0
 29 31  1  0
 30 29  2  0
M  END
$$$$
