ARW.pdb
     RDKit          3D

 31 32  0  0  1  0  0  0  0  0999 V2000
   23.0299  -25.0449  -14.6265 C   0  0  0  0  0  0  0  0  0  0  0  0
   24.0354  -24.3737  -15.5316 C   0  0  2  0  0  0  0  0  0  0  0  0
   24.6578  -25.3977  -16.3354 N   0  0  0  0  0  0  0  0  0  0  0  0
   25.0507  -23.6940  -14.6904 C   0  0  0  0  0  0  0  0  0  0  0  0
   25.9612  -24.2975  -14.0969 O   0  0  0  0  0  0  0  0  0  0  0  0
   27.2977  -15.7977  -16.5016 N   0  0  0  0  0  0  0  0  0  0  0  0
   27.6389  -17.1085  -16.8833 C   0  0  0  0  0  0  0  0  0  0  0  0
   28.0691  -17.3518  -18.0693 N   0  0  0  0  0  0  0  0  0  0  0  0
   27.4998  -18.1578  -15.9350 N   0  0  0  0  0  0  0  0  0  0  0  0
   27.1071  -17.9278  -14.5742 C   0  0  0  0  0  0  0  0  0  0  0  0
   27.0173  -19.2331  -13.8219 C   0  0  0  0  0  0  0  0  0  0  0  0
   26.0488  -20.1379  -14.5211 C   0  0  0  0  0  0  0  0  0  0  0  0
   25.9734  -21.5086  -13.8329 C   0  0  2  0  0  0  0  0  0  0  0  0
   24.9980  -22.2826  -14.5416 N   0  0  0  0  0  0  0  0  0  0  0  0
   25.7628  -21.3841  -12.3938 C   0  0  0  0  0  0  0  0  0  0  0  0
   24.5659  -21.2628  -11.9952 O   0  0  0  0  0  0  0  0  0  0  0  0
   28.2853  -18.3052  -18.4068 N   0  0  0  0  0  0  0  0  0  0  0  0
   26.7651  -21.3846  -11.3883 C   0  0  2  0  0  0  0  0  0  0  0  0
   26.4598  -21.0872   -9.9901 C   0  0  0  0  0  0  0  0  0  0  0  0
   27.7143  -20.8667   -9.2032 C   0  0  0  0  0  0  0  0  0  0  0  0
   27.5177  -20.3324   -7.8405 C   0  0  0  0  0  0  0  0  0  0  0  0
   26.2908  -19.8592   -7.3420 N   0  0  0  0  0  0  0  0  0  0  0  0
   26.4656  -19.4888   -6.0742 C   0  0  0  0  0  0  0  0  0  0  0  0
   27.7319  -19.6833   -5.6924 C   0  0  0  0  0  0  0  0  0  0  0  0
   28.4004  -19.4511   -4.4976 C   0  0  0  0  0  0  0  0  0  0  0  0
   29.7395  -19.7287   -4.3507 C   0  0  0  0  0  0  0  0  0  0  0  0
   30.4046  -20.2501   -5.4390 C   0  0  0  0  0  0  0  0  0  0  0  0
   29.7271  -20.4779   -6.6261 C   0  0  0  0  0  0  0  0  0  0  0  0
   28.3945  -20.2095   -6.7914 C   0  0  0  0  0  0  0  0  0  0  0  0
   25.4676  -20.0157   -9.9475 O   0  0  0  0  0  0  0  0  0  0  0  0
   25.5336  -18.9173  -10.5479 O   0  0  0  0  0  0  0  0  0  0  0  0
  2  1  1  1
  3  2  1  0
  4  2  1  0
  4  5  2  0
  7  6  1  0
  8  7  2  0
  9  7  1  0
 10 11  1  0
 10  9  1  0
 11 12  1  0
 13 12  1  6
 13 14  1  0
 14  4  1  0
 15 13  1  0
 16 15  2  0
 17 15  1  0
 18 29  1  0
 18 17  1  0
 18 19  1  6
 20 19  1  0
 21 20  2  0
 22 21  1  0
 23 22  1  0
 23 28  2  0
 24 23  1  0
 25 24  2  0
 25 26  1  0
 26 27  2  0
 27 28  1  0
 28 20  1  0
 29 31  1  0
 30 29  2  0
M  END
$$$$
