ARW.pdb
     RDKit          3D

 31 32  0  0  1  0  0  0  0  0999 V2000
   21.8482  -17.0269  -12.7010 C   0  0  0  0  0  0  0  0  0  0  0  0
   22.2740  -17.9582  -13.8111 C   0  0  2  0  0  0  0  0  0  0  0  0
   21.0838  -18.4007  -14.4965 N   0  0  0  0  0  0  0  0  0  0  0  0
   22.9818  -19.1163  -13.2126 C   0  0  0  0  0  0  0  0  0  0  0  0
   22.4169  -19.9759  -12.5145 O   0  0  0  0  0  0  0  0  0  0  0  0
   27.8396  -21.7540  -17.5402 N   0  0  0  0  0  0  0  0  0  0  0  0
   27.1875  -22.9068  -17.0646 C   0  0  0  0  0  0  0  0  0  0  0  0
   26.5906  -23.7017  -17.8788 N   0  0  0  0  0  0  0  0  0  0  0  0
   27.2006  -23.1767  -15.6694 N   0  0  0  0  0  0  0  0  0  0  0  0
   27.8800  -22.3394  -14.7228 C   0  0  0  0  0  0  0  0  0  0  0  0
   26.9525  -21.9543  -13.5962 C   0  0  0  0  0  0  0  0  0  0  0  0
   26.1830  -20.7301  -13.9894 C   0  0  0  0  0  0  0  0  0  0  0  0
   25.1648  -20.3427  -12.9072 C   0  0  2  0  0  0  0  0  0  0  0  0
   24.3760  -19.2698  -13.4357 N   0  0  0  0  0  0  0  0  0  0  0  0
   25.8079  -20.0857  -11.6221 C   0  0  0  0  0  0  0  0  0  0  0  0
   26.3330  -18.9438  -11.4589 O   0  0  0  0  0  0  0  0  0  0  0  0
   26.1796  -24.6047  -17.5867 N   0  0  0  0  0  0  0  0  0  0  0  0
   25.9072  -20.9872  -10.5298 C   0  0  2  0  0  0  0  0  0  0  0  0
   26.7408  -20.7021   -9.3635 C   0  0  0  0  0  0  0  0  0  0  0  0
   26.0278  -19.8021   -8.4026 C   0  0  0  0  0  0  0  0  0  0  0  0
   26.8929  -19.1140   -7.4232 C   0  0  0  0  0  0  0  0  0  0  0  0
   27.2788  -17.7647   -7.5138 N   0  0  0  0  0  0  0  0  0  0  0  0
   28.0237  -17.4669   -6.4503 C   0  0  0  0  0  0  0  0  0  0  0  0
   28.1619  -18.5314   -5.6534 C   0  0  0  0  0  0  0  0  0  0  0  0
   28.8377  -18.7293   -4.4566 C   0  0  0  0  0  0  0  0  0  0  0  0
   28.8416  -19.9483   -3.8195 C   0  0  0  0  0  0  0  0  0  0  0  0
   28.1461  -20.9790   -4.4133 C   0  0  0  0  0  0  0  0  0  0  0  0
   27.4751  -20.7698   -5.6075 C   0  0  0  0  0  0  0  0  0  0  0  0
   27.4583  -19.5639   -6.2559 C   0  0  0  0  0  0  0  0  0  0  0  0
   27.2376  -21.9663   -8.8255 O   0  0  0  0  0  0  0  0  0  0  0  0
   26.5879  -23.0323   -8.7124 O   0  0  0  0  0  0  0  0  0  0  0  0
  2  1  1  1
  3  2  1  0
  4  2  1  0
  4  5  2  0
  7  6  1  0
  8  7  2  0
  9  7  1  0
 10 11  1  0
 10  9  1  0
 11 12  1  0
 13 12  1  6
 13 14  1  0
 14  4  1  0
 15 13  1  0
 16 15  2  0
 17 15  1  0
 18 29  1  0
 18 17  1  0
 18 19  1  1
 20 19  1  0
 21 20  2  0
 22 21  1  0
 23 22  1  0
 23 28  2  0
 24 23  1  0
 25 24  2  0
 25 26  1  0
 26 27  2  0
 27 28  1  0
 28 20  1  0
 29 31  1  0
 30 29  2  0
M  END
$$$$
