ARW.pdb
     RDKit          3D

 31 32  0  0  1  0  0  0  0  0999 V2000
   29.2792  -22.6070  -16.2741 C   0  0  0  0  0  0  0  0  0  0  0  0
   27.7957  -22.3440  -16.3790 C   0  0  2  0  0  0  0  0  0  0  0  0
   27.5020  -22.0160  -17.7531 N   0  0  0  0  0  0  0  0  0  0  0  0
   27.4530  -21.2034  -15.4947 C   0  0  0  0  0  0  0  0  0  0  0  0
   27.5924  -20.0141  -15.8287 O   0  0  0  0  0  0  0  0  0  0  0  0
   21.3108  -22.6168  -13.4942 N   0  0  0  0  0  0  0  0  0  0  0  0
   21.0557  -21.2708  -13.1726 C   0  0  0  0  0  0  0  0  0  0  0  0
   20.1891  -20.9674  -12.2738 N   0  0  0  0  0  0  0  0  0  0  0  0
   21.7728  -20.2534  -13.8585 N   0  0  0  0  0  0  0  0  0  0  0  0
   22.8450  -20.5379  -14.7687 C   0  0  0  0  0  0  0  0  0  0  0  0
   24.0555  -21.0394  -14.0196 C   0  0  0  0  0  0  0  0  0  0  0  0
   25.0933  -19.9591  -13.9829 C   0  0  0  0  0  0  0  0  0  0  0  0
   26.3913  -20.4580  -13.3314 C   0  0  2  0  0  0  0  0  0  0  0  0
   26.9383  -21.4608  -14.1963 N   0  0  0  0  0  0  0  0  0  0  0  0
   26.1839  -20.8600  -11.9435 C   0  0  0  0  0  0  0  0  0  0  0  0
   25.7629  -22.0383  -11.7418 O   0  0  0  0  0  0  0  0  0  0  0  0
   19.9721  -19.9925  -12.0053 N   0  0  0  0  0  0  0  0  0  0  0  0
   26.4058  -20.0637  -10.7892 C   0  0  2  0  0  0  0  0  0  0  0  0
   26.3216  -20.6166   -9.4388 C   0  0  0  0  0  0  0  0  0  0  0  0
   27.3856  -20.0406   -8.5569 C   0  0  0  0  0  0  0  0  0  0  0  0
   27.2746  -20.3884   -7.1259 C   0  0  0  0  0  0  0  0  0  0  0  0
   26.4100  -21.3712   -6.6118 N   0  0  0  0  0  0  0  0  0  0  0  0
   26.5942  -21.4476   -5.2946 C   0  0  0  0  0  0  0  0  0  0  0  0
   27.5269  -20.5778   -4.8938 C   0  0  0  0  0  0  0  0  0  0  0  0
   28.0565  -20.2746   -3.6465 C   0  0  0  0  0  0  0  0  0  0  0  0
   29.0215  -19.3080   -3.4844 C   0  0  0  0  0  0  0  0  0  0  0  0
   29.4508  -18.6419   -4.6116 C   0  0  0  0  0  0  0  0  0  0  0  0
   28.9153  -18.9529   -5.8512 C   0  0  0  0  0  0  0  0  0  0  0  0
   27.9554  -19.9125   -6.0330 C   0  0  0  0  0  0  0  0  0  0  0  0
   24.9448  -20.4876   -8.9674 O   0  0  0  0  0  0  0  0  0  0  0  0
   24.1423  -19.5697   -9.2590 O   0  0  0  0  0  0  0  0  0  0  0  0
  2  1  1  6
  3  2  1  0
  4  2  1  0
  4  5  2  0
  7  6  1  0
  8  7  2  0
  9  7  1  0
 10 11  1  0
 10  9  1  0
 11 12  1  0
 13 12  1  6
 13 14  1  0
 14  4  1  0
 15 13  1  0
 16 15  2  0
 17 15  1  0
 18 29  1  0
 18 17  1  0
 18 19  1  6
 20 19  1  0
 21 20  2  0
 22 21  1  0
 23 22  1  0
 23 28  2  0
 24 23  1  0
 25 24  2  0
 25 26  1  0
 26 27  2  0
 27 28  1  0
 28 20  1  0
 29 31  1  0
 30 29  2  0
M  END
$$$$
