QMF.pdb
     RDKit          3D

 29 29  0  0  1  0  0  0  0  0999 V2000
   24.7942  -15.6264  -16.8010 N   0  0  0  0  0  0  0  0  0  0  0  0
   25.5308  -16.2599  -17.8322 C   0  0  0  0  0  0  0  0  0  0  0  0
   25.9616  -15.6161  -18.8209 O   0  0  0  0  0  0  0  0  0  0  0  0
   25.8076  -17.7030  -17.7615 C   0  0  0  0  0  0  0  0  0  0  0  0
   27.2586  -17.9654  -17.3323 C   0  0  0  0  0  0  0  0  0  0  0  0
   27.2204  -18.0564  -15.8211 C   0  0  2  0  0  0  0  0  0  0  0  0
   28.6002  -18.0976  -15.3745 N   0  0  0  0  0  0  0  0  0  0  0  0
   26.5223  -19.2345  -15.3238 C   0  0  0  0  0  0  0  0  0  0  0  0
   26.4459  -20.2666  -16.0283 O   0  0  0  0  0  0  0  0  0  0  0  0
   26.1238  -19.8171   -9.0099 C   0  0  0  0  0  0  0  0  0  0  0  0
   25.9394  -21.5487   -9.5032 S   0  0  0  0  0  0  0  0  0  0  0  0
   25.2794  -21.5856  -11.1834 C   0  0  0  0  0  0  0  0  0  0  0  0
   25.8265  -20.4645  -11.9983 C   0  0  0  0  0  0  0  0  0  0  0  0
   25.3464  -20.4120  -13.4093 C   0  0  2  0  0  0  0  0  0  0  0  0
   25.9239  -19.2272  -14.0435 N   0  0  0  0  0  0  0  0  0  0  0  0
   23.8572  -20.3396  -13.5211 C   0  0  0  0  0  0  0  0  0  0  0  0
   23.2565  -19.3202  -13.0969 O   0  0  0  0  0  0  0  0  0  0  0  0
   23.1277  -21.3910  -14.0909 N   0  0  0  0  0  0  0  0  0  0  0  0
   21.6987  -21.2934  -14.2087 C   0  0  1  0  0  0  0  0  0  0  0  0
   21.1766  -22.2271  -15.3100 C   0  0  0  0  0  0  0  0  0  0  0  0
   21.4838  -23.6347  -14.9823 C   0  0  0  0  0  0  0  0  0  0  0  0
   20.5942  -24.4358  -14.3060 C   0  0  0  0  0  0  0  0  0  0  0  0
   20.9812  -25.7400  -14.0451 C   0  0  0  0  0  0  0  0  0  0  0  0
   22.1899  -26.2468  -14.4282 C   0  0  0  0  0  0  0  0  0  0  0  0
   23.0566  -25.4066  -15.1073 C   0  0  0  0  0  0  0  0  0  0  0  0
   22.7256  -24.1168  -15.3890 C   0  0  0  0  0  0  0  0  0  0  0  0
   20.9796  -21.6207  -12.9671 C   0  0  0  0  0  0  0  0  0  0  0  0
   21.7095  -22.0441  -11.8714 O   0  0  0  0  0  0  0  0  0  0  0  0
   19.7344  -21.5352  -12.8521 O   0  0  0  0  0  0  0  0  0  0  0  0
  2  1  1  0
  2  3  2  0
  4  2  1  0
  5  6  1  0
  5  4  1  0
  6  8  1  0
  6  7  1  6
  8  9  2  0
  8 15  1  0
 11 10  1  0
 12 11  1  0
 14 13  1  1
 13 12  1  0
 14 16  1  0
 15 14  1  0
 16 17  2  0
 18 16  1  0
 18 19  1  0
 19 27  1  0
 19 20  1  6
 21 20  1  0
 22 21  2  0
 23 22  1  0
 24 25  1  0
 24 23  2  0
 25 26  2  0
 26 21  1  0
 27 28  1  0
 29 27  2  0
M  END
$$$$
