QMF.pdb
     RDKit          3D

 29 29  0  0  1  0  0  0  0  0999 V2000
   25.7029  -15.9666  -17.6961 N   0  0  0  0  0  0  0  0  0  0  0  0
   26.5681  -17.0787  -17.8438 C   0  0  0  0  0  0  0  0  0  0  0  0
   26.8697  -17.5289  -18.9769 O   0  0  0  0  0  0  0  0  0  0  0  0
   27.1360  -17.7345  -16.6557 C   0  0  0  0  0  0  0  0  0  0  0  0
   26.7197  -17.0036  -15.3709 C   0  0  0  0  0  0  0  0  0  0  0  0
   27.4222  -17.7356  -14.2466 C   0  0  2  0  0  0  0  0  0  0  0  0
   28.3811  -18.6282  -14.8702 N   0  0  0  0  0  0  0  0  0  0  0  0
   26.5236  -18.5136  -13.4041 C   0  0  0  0  0  0  0  0  0  0  0  0
   25.4789  -17.9951  -12.9490 O   0  0  0  0  0  0  0  0  0  0  0  0
   25.3544  -24.1905  -14.8663 C   0  0  0  0  0  0  0  0  0  0  0  0
   24.7375  -24.5136  -13.1957 S   0  0  0  0  0  0  0  0  0  0  0  0
   24.9655  -23.0152  -12.2144 C   0  0  0  0  0  0  0  0  0  0  0  0
   25.7924  -22.0158  -12.9477 C   0  0  0  0  0  0  0  0  0  0  0  0
   25.9663  -20.7058  -12.2562 C   0  0  2  0  0  0  0  0  0  0  0  0
   26.8188  -19.8596  -13.0907 N   0  0  0  0  0  0  0  0  0  0  0  0
   26.5914  -20.8334  -10.9040 C   0  0  0  0  0  0  0  0  0  0  0  0
   27.8442  -20.8624  -10.8048 O   0  0  0  0  0  0  0  0  0  0  0  0
   25.7995  -20.9208   -9.7518 N   0  0  0  0  0  0  0  0  0  0  0  0
   26.4188  -20.9699   -8.4559 C   0  0  1  0  0  0  0  0  0  0  0  0
   27.3587  -19.7728   -8.2541 C   0  0  0  0  0  0  0  0  0  0  0  0
   27.9326  -19.7905   -6.8926 C   0  0  0  0  0  0  0  0  0  0  0  0
   28.7349  -20.8172   -6.4538 C   0  0  0  0  0  0  0  0  0  0  0  0
   29.2190  -20.7394   -5.1583 C   0  0  0  0  0  0  0  0  0  0  0  0
   28.9330  -19.7002   -4.3197 C   0  0  0  0  0  0  0  0  0  0  0  0
   28.1212  -18.6865   -4.8011 C   0  0  0  0  0  0  0  0  0  0  0  0
   27.6193  -18.7142   -6.0659 C   0  0  0  0  0  0  0  0  0  0  0  0
   25.4577  -20.9765   -7.3414 C   0  0  0  0  0  0  0  0  0  0  0  0
   24.1674  -20.5385   -7.5776 O   0  0  0  0  0  0  0  0  0  0  0  0
   25.7506  -21.3600   -6.1846 O   0  0  0  0  0  0  0  0  0  0  0  0
  2  1  1  0
  2  3  2  0
  4  2  1  0
  5  6  1  0
  5  4  1  0
  6  8  1  0
  6  7  1  6
  8  9  2  0
  8 15  1  0
 11 10  1  0
 12 11  1  0
 14 13  1  6
 13 12  1  0
 14 16  1  0
 15 14  1  0
 16 17  2  0
 18 16  1  0
 18 19  1  0
 19 27  1  0
 19 20  1  1
 21 20  1  0
 22 21  2  0
 23 22  1  0
 24 25  1  0
 24 23  2  0
 25 26  2  0
 26 21  1  0
 27 28  1  0
 29 27  2  0
M  END
$$$$
