QMF.pdb
     RDKit          3D

 29 29  0  0  1  0  0  0  0  0999 V2000
   27.9987  -17.5805  -15.4152 N   0  0  0  0  0  0  0  0  0  0  0  0
   28.0324  -18.2887  -16.6418 C   0  0  0  0  0  0  0  0  0  0  0  0
   28.7733  -17.9252  -17.5886 O   0  0  0  0  0  0  0  0  0  0  0  0
   27.1882  -19.4786  -16.8300 C   0  0  0  0  0  0  0  0  0  0  0  0
   26.4108  -19.8111  -15.5481 C   0  0  0  0  0  0  0  0  0  0  0  0
   27.1236  -21.0027  -14.9434 C   0  0  2  0  0  0  0  0  0  0  0  0
   27.1982  -22.0113  -15.9837 N   0  0  0  0  0  0  0  0  0  0  0  0
   26.4443  -21.5632  -13.7829 C   0  0  0  0  0  0  0  0  0  0  0  0
   25.5410  -22.4171  -13.9322 O   0  0  0  0  0  0  0  0  0  0  0  0
   27.9258  -19.6998   -7.0909 C   0  0  0  0  0  0  0  0  0  0  0  0
   26.3018  -19.3721   -7.8193 S   0  0  0  0  0  0  0  0  0  0  0  0
   25.8554  -20.7843   -8.8521 C   0  0  0  0  0  0  0  0  0  0  0  0
   26.6432  -20.7926  -10.1170 C   0  0  0  0  0  0  0  0  0  0  0  0
   25.8960  -21.2411  -11.3272 C   0  0  2  0  0  0  0  0  0  0  0  0
   26.7953  -21.1514  -12.4773 N   0  0  0  0  0  0  0  0  0  0  0  0
   24.6779  -20.4194  -11.6040 C   0  0  0  0  0  0  0  0  0  0  0  0
   24.7667  -19.1655  -11.5997 O   0  0  0  0  0  0  0  0  0  0  0  0
   23.4445  -21.0292  -11.8667 N   0  0  0  0  0  0  0  0  0  0  0  0
   22.2791  -20.2219  -12.1023 C   0  0  1  0  0  0  0  0  0  0  0  0
   22.5010  -19.2767  -13.2917 C   0  0  0  0  0  0  0  0  0  0  0  0
   22.6375  -20.0470  -14.5452 C   0  0  0  0  0  0  0  0  0  0  0  0
   21.7119  -20.9902  -14.9247 C   0  0  0  0  0  0  0  0  0  0  0  0
   21.9353  -21.6596  -16.1167 C   0  0  0  0  0  0  0  0  0  0  0  0
   23.0200  -21.4201  -16.9110 C   0  0  0  0  0  0  0  0  0  0  0  0
   23.9282  -20.4620  -16.4922 C   0  0  0  0  0  0  0  0  0  0  0  0
   23.7560  -19.7757  -15.3295 C   0  0  0  0  0  0  0  0  0  0  0  0
   21.0629  -21.0048  -12.3742 C   0  0  0  0  0  0  0  0  0  0  0  0
   21.1707  -22.3794  -12.4808 O   0  0  0  0  0  0  0  0  0  0  0  0
   19.9303  -20.4868  -12.5152 O   0  0  0  0  0  0  0  0  0  0  0  0
  2  1  1  0
  2  3  2  0
  4  2  1  0
  5  6  1  0
  5  4  1  0
  6  8  1  0
  6  7  1  6
  8  9  2  0
  8 15  1  0
 11 10  1  0
 12 11  1  0
 14 13  1  1
 13 12  1  0
 14 16  1  0
 15 14  1  0
 16 17  2  0
 18 16  1  0
 18 19  1  0
 19 27  1  0
 19 20  1  6
 21 20  1  0
 22 21  2  0
 23 22  1  0
 24 25  1  0
 24 23  2  0
 25 26  2  0
 26 21  1  0
 27 28  1  0
 29 27  2  0
M  END
$$$$
