QMF.pdb
     RDKit          3D

 29 29  0  0  1  0  0  0  0  0999 V2000
   20.3077  -21.2405  -12.9190 N   0  0  0  0  0  0  0  0  0  0  0  0
   20.0398  -20.7069  -14.2038 C   0  0  0  0  0  0  0  0  0  0  0  0
   19.0407  -19.9755  -14.4148 O   0  0  0  0  0  0  0  0  0  0  0  0
   20.9398  -21.0047  -15.3287 C   0  0  0  0  0  0  0  0  0  0  0  0
   22.1035  -21.9012  -14.8809 C   0  0  0  0  0  0  0  0  0  0  0  0
   23.1046  -20.9669  -14.2341 C   0  0  2  0  0  0  0  0  0  0  0  0
   23.7867  -20.2797  -15.3147 N   0  0  0  0  0  0  0  0  0  0  0  0
   24.0896  -21.6487  -13.4050 C   0  0  0  0  0  0  0  0  0  0  0  0
   24.2608  -22.8839  -13.5159 O   0  0  0  0  0  0  0  0  0  0  0  0
   30.7814  -19.6315  -11.2202 C   0  0  0  0  0  0  0  0  0  0  0  0
   29.6982  -21.0511  -11.5151 S   0  0  0  0  0  0  0  0  0  0  0  0
   28.1063  -20.4300  -12.0981 C   0  0  0  0  0  0  0  0  0  0  0  0
   27.1704  -21.5509  -12.3949 C   0  0  0  0  0  0  0  0  0  0  0  0
   25.8932  -21.5322  -11.6250 C   0  0  2  0  0  0  0  0  0  0  0  0
   24.8622  -20.9266  -12.4674 N   0  0  0  0  0  0  0  0  0  0  0  0
   25.9873  -20.7586  -10.3491 C   0  0  0  0  0  0  0  0  0  0  0  0
   25.9453  -19.5028  -10.3855 O   0  0  0  0  0  0  0  0  0  0  0  0
   26.1213  -21.4154   -9.1190 N   0  0  0  0  0  0  0  0  0  0  0  0
   26.1445  -20.6575   -7.8982 C   0  0  1  0  0  0  0  0  0  0  0  0
   26.4589  -21.5633   -6.6991 C   0  0  0  0  0  0  0  0  0  0  0  0
   27.6925  -21.1136   -6.0215 C   0  0  0  0  0  0  0  0  0  0  0  0
   28.7867  -21.9343   -5.8809 C   0  0  0  0  0  0  0  0  0  0  0  0
   29.8922  -21.4168   -5.2261 C   0  0  0  0  0  0  0  0  0  0  0  0
   29.9321  -20.1467   -4.7261 C   0  0  0  0  0  0  0  0  0  0  0  0
   28.8089  -19.3529   -4.8891 C   0  0  0  0  0  0  0  0  0  0  0  0
   27.6966  -19.8125   -5.5246 C   0  0  0  0  0  0  0  0  0  0  0  0
   27.1277  -19.5624   -7.9011 C   0  0  0  0  0  0  0  0  0  0  0  0
   26.8042  -18.3809   -7.2592 O   0  0  0  0  0  0  0  0  0  0  0  0
   28.2472  -19.6464   -8.4583 O   0  0  0  0  0  0  0  0  0  0  0  0
  2  1  1  0
  2  3  2  0
  4  2  1  0
  5  6  1  0
  5  4  1  0
  6  8  1  0
  6  7  1  6
  8  9  2  0
  8 15  1  0
 11 10  1  0
 12 11  1  0
 14 13  1  6
 13 12  1  0
 14 16  1  0
 15 14  1  0
 16 17  2  0
 18 16  1  0
 18 19  1  0
 19 27  1  0
 19 20  1  1
 21 20  1  0
 22 21  2  0
 23 22  1  0
 24 25  1  0
 24 23  2  0
 25 26  2  0
 26 21  1  0
 27 28  1  0
 29 27  2  0
M  END
$$$$
