QMF.pdb
     RDKit          3D

 29 29  0  0  1  0  0  0  0  0999 V2000
   20.5420  -23.3286  -15.2495 N   0  0  0  0  0  0  0  0  0  0  0  0
   21.0747  -24.2111  -14.2777 C   0  0  0  0  0  0  0  0  0  0  0  0
   20.6864  -24.1832  -13.0835 O   0  0  0  0  0  0  0  0  0  0  0  0
   22.1064  -25.1892  -14.6560 C   0  0  0  0  0  0  0  0  0  0  0  0
   23.4564  -24.8437  -14.0107 C   0  0  0  0  0  0  0  0  0  0  0  0
   23.9469  -23.6108  -14.7408 C   0  0  2  0  0  0  0  0  0  0  0  0
   24.2997  -24.0376  -16.0818 N   0  0  0  0  0  0  0  0  0  0  0  0
   25.1062  -22.9854  -14.1184 C   0  0  0  0  0  0  0  0  0  0  0  0
   26.2302  -23.5328  -14.1853 O   0  0  0  0  0  0  0  0  0  0  0  0
   26.0146  -17.2509  -15.1362 C   0  0  0  0  0  0  0  0  0  0  0  0
   27.0786  -17.1162  -13.6784 S   0  0  0  0  0  0  0  0  0  0  0  0
   27.1596  -18.7393  -12.8916 C   0  0  0  0  0  0  0  0  0  0  0  0
   26.1057  -19.6468  -13.4267 C   0  0  0  0  0  0  0  0  0  0  0  0
   26.1051  -21.0248  -12.8562 C   0  0  2  0  0  0  0  0  0  0  0  0
   24.9773  -21.7562  -13.4329 N   0  0  0  0  0  0  0  0  0  0  0  0
   25.9794  -21.0441  -11.3665 C   0  0  0  0  0  0  0  0  0  0  0  0
   24.8412  -20.9420  -10.8429 O   0  0  0  0  0  0  0  0  0  0  0  0
   27.1115  -21.1739  -10.5517 N   0  0  0  0  0  0  0  0  0  0  0  0
   26.9959  -21.0090   -9.1288 C   0  0  1  0  0  0  0  0  0  0  0  0
   28.3436  -20.6038   -8.5148 C   0  0  0  0  0  0  0  0  0  0  0  0
   28.1907  -20.3250   -7.0718 C   0  0  0  0  0  0  0  0  0  0  0  0
   28.2632  -21.3204   -6.1261 C   0  0  0  0  0  0  0  0  0  0  0  0
   28.1026  -20.9534   -4.8001 C   0  0  0  0  0  0  0  0  0  0  0  0
   27.8795  -19.6645   -4.4081 C   0  0  0  0  0  0  0  0  0  0  0  0
   27.8136  -18.6922   -5.3923 C   0  0  0  0  0  0  0  0  0  0  0  0
   27.9646  -18.9993   -6.7096 C   0  0  0  0  0  0  0  0  0  0  0  0
   26.0015  -20.0001   -8.7297 C   0  0  0  0  0  0  0  0  0  0  0  0
   25.0456  -20.3477   -7.7926 O   0  0  0  0  0  0  0  0  0  0  0  0
   25.9766  -18.8379   -9.1982 O   0  0  0  0  0  0  0  0  0  0  0  0
  2  1  1  0
  2  3  2  0
  4  2  1  0
  5  6  1  0
  5  4  1  0
  6  8  1  0
  6  7  1  6
  8  9  2  0
  8 15  1  0
 11 10  1  0
 12 11  1  0
 14 13  1  6
 13 12  1  0
 14 16  1  0
 15 14  1  0
 16 17  2  0
 18 16  1  0
 18 19  1  0
 19 27  1  0
 19 20  1  6
 21 20  1  0
 22 21  2  0
 23 22  1  0
 24 25  1  0
 24 23  2  0
 25 26  2  0
 26 21  1  0
 27 28  1  0
 29 27  2  0
M  END
$$$$
