QMF.pdb
     RDKit          3D

 29 29  0  0  1  0  0  0  0  0999 V2000
   15.1251  -24.2479    1.4435 N   0  0  0  0  0  0  0  0  0  0  0  0
   16.1858  -23.7323    2.2284 C   0  0  0  0  0  0  0  0  0  0  0  0
   17.0926  -24.4774    2.6759 O   0  0  0  0  0  0  0  0  0  0  0  0
   16.2441  -22.2952    2.5371 C   0  0  0  0  0  0  0  0  0  0  0  0
   14.8401  -21.7298    2.7964 C   0  0  0  0  0  0  0  0  0  0  0  0
   14.5499  -22.0269    4.2527 C   0  0  2  0  0  0  0  0  0  0  0  0
   13.1754  -22.4873    4.3147 N   0  0  0  0  0  0  0  0  0  0  0  0
   14.7066  -20.8724    5.1275 C   0  0  0  0  0  0  0  0  0  0  0  0
   13.9264  -19.8980    5.0317 O   0  0  0  0  0  0  0  0  0  0  0  0
   16.4619  -22.1408   11.0848 C   0  0  0  0  0  0  0  0  0  0  0  0
   16.9525  -20.4044   10.9446 S   0  0  0  0  0  0  0  0  0  0  0  0
   16.0883  -19.6902    9.5293 C   0  0  0  0  0  0  0  0  0  0  0  0
   16.5968  -20.2585    8.2491 C   0  0  0  0  0  0  0  0  0  0  0  0
   15.9506  -19.7234    7.0160 C   0  0  2  0  0  0  0  0  0  0  0  0
   15.7385  -20.8377    6.0925 N   0  0  0  0  0  0  0  0  0  0  0  0
   16.7704  -18.6788    6.3289 C   0  0  0  0  0  0  0  0  0  0  0  0
   17.6633  -19.0316    5.5174 O   0  0  0  0  0  0  0  0  0  0  0  0
   16.5552  -17.3174    6.5789 N   0  0  0  0  0  0  0  0  0  0  0  0
   17.4240  -16.3330    5.9943 C   0  0  1  0  0  0  0  0  0  0  0  0
   16.6873  -15.5262    4.9156 C   0  0  0  0  0  0  0  0  0  0  0  0
   17.6087  -14.5714    4.2654 C   0  0  0  0  0  0  0  0  0  0  0  0
   17.7674  -13.2851    4.7243 C   0  0  0  0  0  0  0  0  0  0  0  0
   18.6535  -12.4688    4.0408 C   0  0  0  0  0  0  0  0  0  0  0  0
   19.3600  -12.8886    2.9502 C   0  0  0  0  0  0  0  0  0  0  0  0
   19.1710  -14.1917    2.5207 C   0  0  0  0  0  0  0  0  0  0  0  0
   18.3123  -15.0349    3.1564 C   0  0  0  0  0  0  0  0  0  0  0  0
   17.9749  -15.3777    6.9689 C   0  0  0  0  0  0  0  0  0  0  0  0
   19.3192  -15.0609    6.8978 O   0  0  0  0  0  0  0  0  0  0  0  0
   17.2851  -14.8352    7.8638 O   0  0  0  0  0  0  0  0  0  0  0  0
  2  1  1  0
  2  3  2  0
  4  2  1  0
  5  6  1  0
  5  4  1  0
  6  8  1  0
  6  7  1  6
  8  9  2  0
  8 15  1  0
 11 10  1  0
 12 11  1  0
 14 13  1  1
 13 12  1  0
 14 16  1  0
 15 14  1  0
 16 17  2  0
 18 16  1  0
 18 19  1  0
 19 27  1  0
 19 20  1  6
 21 20  1  0
 22 21  2  0
 23 22  1  0
 24 25  1  0
 24 23  2  0
 25 26  2  0
 26 21  1  0
 27 28  1  0
 29 27  2  0
M  END
$$$$
