QMF.pdb
     RDKit          3D

 29 29  0  0  1  0  0  0  0  0999 V2000
   25.7081  -17.6536  -17.1333 N   0  0  0  0  0  0  0  0  0  0  0  0
   27.1004  -17.7845  -17.3600 C   0  0  0  0  0  0  0  0  0  0  0  0
   27.6335  -17.3737  -18.4206 O   0  0  0  0  0  0  0  0  0  0  0  0
   27.9577  -18.4127  -16.3429 C   0  0  0  0  0  0  0  0  0  0  0  0
   27.2087  -18.5695  -15.0115 C   0  0  0  0  0  0  0  0  0  0  0  0
   27.6885  -19.8843  -14.4330 C   0  0  2  0  0  0  0  0  0  0  0  0
   28.1969  -20.6644  -15.5457 N   0  0  0  0  0  0  0  0  0  0  0  0
   26.6434  -20.6417  -13.7571 C   0  0  0  0  0  0  0  0  0  0  0  0
   25.9334  -21.4484  -14.3994 O   0  0  0  0  0  0  0  0  0  0  0  0
   26.1911  -20.1618   -7.4207 C   0  0  0  0  0  0  0  0  0  0  0  0
   27.2371  -21.5180   -8.0056 S   0  0  0  0  0  0  0  0  0  0  0  0
   26.9230  -21.7481   -9.7687 C   0  0  0  0  0  0  0  0  0  0  0  0
   25.6624  -21.0687  -10.1809 C   0  0  0  0  0  0  0  0  0  0  0  0
   25.3463  -21.1461  -11.6364 C   0  0  2  0  0  0  0  0  0  0  0  0
   26.4183  -20.4758  -12.3718 N   0  0  0  0  0  0  0  0  0  0  0  0
   24.0445  -20.5016  -11.9902 C   0  0  0  0  0  0  0  0  0  0  0  0
   23.9444  -19.2494  -11.9441 O   0  0  0  0  0  0  0  0  0  0  0  0
   22.9400  -21.2748  -12.3706 N   0  0  0  0  0  0  0  0  0  0  0  0
   21.7085  -20.6348  -12.7433 C   0  0  1  0  0  0  0  0  0  0  0  0
   21.9282  -19.6690  -13.9165 C   0  0  0  0  0  0  0  0  0  0  0  0
   22.4197  -20.4005  -15.1025 C   0  0  0  0  0  0  0  0  0  0  0  0
   23.7523  -20.4296  -15.4396 C   0  0  0  0  0  0  0  0  0  0  0  0
   24.1081  -21.1413  -16.5735 C   0  0  0  0  0  0  0  0  0  0  0  0
   23.2002  -21.8011  -17.3514 C   0  0  0  0  0  0  0  0  0  0  0  0
   21.8680  -21.7467  -16.9766 C   0  0  0  0  0  0  0  0  0  0  0  0
   21.4651  -21.0615  -15.8718 C   0  0  0  0  0  0  0  0  0  0  0  0
   20.6470  -21.5769  -13.1326 C   0  0  0  0  0  0  0  0  0  0  0  0
   19.3888  -21.0768  -13.4142 O   0  0  0  0  0  0  0  0  0  0  0  0
   20.8261  -22.8143  -13.2216 O   0  0  0  0  0  0  0  0  0  0  0  0
  2  1  1  0
  2  3  2  0
  4  2  1  0
  5  6  1  0
  5  4  1  0
  6  8  1  0
  6  7  1  6
  8  9  2  0
  8 15  1  0
 11 10  1  0
 12 11  1  0
 14 13  1  1
 13 12  1  0
 14 16  1  0
 15 14  1  0
 16 17  2  0
 18 16  1  0
 18 19  1  0
 19 27  1  0
 19 20  1  6
 21 20  1  0
 22 21  2  0
 23 22  1  0
 24 25  1  0
 24 23  2  0
 25 26  2  0
 26 21  1  0
 27 28  1  0
 29 27  2  0
M  END
$$$$
