QMF.pdb
     RDKit          3D

 29 29  0  0  1  0  0  0  0  0999 V2000
   22.9516  -18.6649  -14.4126 N   0  0  0  0  0  0  0  0  0  0  0  0
   22.4035  -19.9151  -14.7917 C   0  0  0  0  0  0  0  0  0  0  0  0
   21.9299  -20.1023  -15.9399 O   0  0  0  0  0  0  0  0  0  0  0  0
   22.3795  -21.0312  -13.8337 C   0  0  0  0  0  0  0  0  0  0  0  0
   22.9637  -20.6067  -12.4784 C   0  0  0  0  0  0  0  0  0  0  0  0
   24.4657  -20.7197  -12.6352 C   0  0  2  0  0  0  0  0  0  0  0  0
   24.6987  -21.6458  -13.7275 N   0  0  0  0  0  0  0  0  0  0  0  0
   25.1429  -21.2092  -11.4417 C   0  0  0  0  0  0  0  0  0  0  0  0
   24.5037  -21.8346  -10.5655 O   0  0  0  0  0  0  0  0  0  0  0  0
   31.3429  -21.7735  -11.6922 C   0  0  0  0  0  0  0  0  0  0  0  0
   31.3351  -21.9959   -9.8961 S   0  0  0  0  0  0  0  0  0  0  0  0
   29.6257  -21.8870   -9.3252 C   0  0  0  0  0  0  0  0  0  0  0  0
   28.7109  -21.5169  -10.4417 C   0  0  0  0  0  0  0  0  0  0  0  0
   27.2693  -21.4143  -10.0738 C   0  0  2  0  0  0  0  0  0  0  0  0
   26.5262  -20.9848  -11.2582 N   0  0  0  0  0  0  0  0  0  0  0  0
   27.0130  -20.4425   -8.9668 C   0  0  0  0  0  0  0  0  0  0  0  0
   26.4609  -19.3436   -9.2273 O   0  0  0  0  0  0  0  0  0  0  0  0
   27.3799  -20.7421   -7.6486 N   0  0  0  0  0  0  0  0  0  0  0  0
   27.1237  -19.7954   -6.5982 C   0  0  1  0  0  0  0  0  0  0  0  0
   26.9509  -20.5093   -5.2499 C   0  0  0  0  0  0  0  0  0  0  0  0
   28.1043  -20.2340   -4.3682 C   0  0  0  0  0  0  0  0  0  0  0  0
   28.4672  -18.9538   -4.0221 C   0  0  0  0  0  0  0  0  0  0  0  0
   29.5667  -18.8046   -3.1930 C   0  0  0  0  0  0  0  0  0  0  0  0
   30.2874  -19.8625   -2.7175 C   0  0  0  0  0  0  0  0  0  0  0  0
   29.8884  -21.1354   -3.0901 C   0  0  0  0  0  0  0  0  0  0  0  0
   28.8153  -21.3374   -3.9026 C   0  0  0  0  0  0  0  0  0  0  0  0
   28.1850  -18.7885   -6.4382 C   0  0  0  0  0  0  0  0  0  0  0  0
   27.8876  -17.6134   -5.7725 O   0  0  0  0  0  0  0  0  0  0  0  0
   29.3491  -18.9424   -6.8768 O   0  0  0  0  0  0  0  0  0  0  0  0
  2  1  1  0
  2  3  2  0
  4  2  1  0
  5  6  1  0
  5  4  1  0
  6  8  1  0
  6  7  1  6
  8  9  2  0
  8 15  1  0
 11 10  1  0
 12 11  1  0
 14 13  1  6
 13 12  1  0
 14 16  1  0
 15 14  1  0
 16 17  2  0
 18 16  1  0
 18 19  1  0
 19 27  1  0
 19 20  1  1
 21 20  1  0
 22 21  2  0
 23 22  1  0
 24 25  1  0
 24 23  2  0
 25 26  2  0
 26 21  1  0
 27 28  1  0
 29 27  2  0
M  END
$$$$
