QMF.pdb
     RDKit          3D

 29 29  0  0  1  0  0  0  0  0999 V2000
   29.8420  -17.3989  -18.6408 N   0  0  0  0  0  0  0  0  0  0  0  0
   29.0898  -17.2719  -17.4470 C   0  0  0  0  0  0  0  0  0  0  0  0
   29.4459  -16.4942  -16.5272 O   0  0  0  0  0  0  0  0  0  0  0  0
   27.8615  -18.0599  -17.2616 C   0  0  0  0  0  0  0  0  0  0  0  0
   27.1803  -17.7136  -15.9296 C   0  0  0  0  0  0  0  0  0  0  0  0
   27.5527  -18.8363  -14.9840 C   0  0  2  0  0  0  0  0  0  0  0  0
   27.5803  -20.0517  -15.7759 N   0  0  0  0  0  0  0  0  0  0  0  0
   26.6163  -19.0065  -13.8809 C   0  0  0  0  0  0  0  0  0  0  0  0
   25.7456  -18.1363  -13.6528 O   0  0  0  0  0  0  0  0  0  0  0  0
   21.9531  -20.1768  -12.9590 C   0  0  0  0  0  0  0  0  0  0  0  0
   22.6217  -20.5750  -11.3250 S   0  0  0  0  0  0  0  0  0  0  0  0
   23.7657  -21.9597  -11.5097 C   0  0  0  0  0  0  0  0  0  0  0  0
   24.8886  -21.6081  -12.4239 C   0  0  0  0  0  0  0  0  0  0  0  0
   25.7159  -20.4437  -11.9946 C   0  0  2  0  0  0  0  0  0  0  0  0
   26.6787  -20.1527  -13.0565 N   0  0  0  0  0  0  0  0  0  0  0  0
   26.4624  -20.6901  -10.7229 C   0  0  0  0  0  0  0  0  0  0  0  0
   27.2074  -21.6985  -10.6314 O   0  0  0  0  0  0  0  0  0  0  0  0
   26.3409  -19.8134   -9.6372 N   0  0  0  0  0  0  0  0  0  0  0  0
   26.8014  -20.2127   -8.3357 C   0  0  1  0  0  0  0  0  0  0  0  0
   27.3133  -19.0019   -7.5424 C   0  0  0  0  0  0  0  0  0  0  0  0
   28.1222  -19.4454   -6.3881 C   0  0  0  0  0  0  0  0  0  0  0  0
   29.3747  -19.9908   -6.5431 C   0  0  0  0  0  0  0  0  0  0  0  0
   30.0483  -20.3778   -5.3963 C   0  0  0  0  0  0  0  0  0  0  0  0
   29.5226  -20.2392   -4.1437 C   0  0  0  0  0  0  0  0  0  0  0  0
   28.2582  -19.6851   -4.0316 C   0  0  0  0  0  0  0  0  0  0  0  0
   27.5535  -19.2883   -5.1264 C   0  0  0  0  0  0  0  0  0  0  0  0
   25.7703  -20.8767   -7.5221 C   0  0  0  0  0  0  0  0  0  0  0  0
   26.1727  -21.7445   -6.5233 O   0  0  0  0  0  0  0  0  0  0  0  0
   24.5415  -20.6953   -7.6896 O   0  0  0  0  0  0  0  0  0  0  0  0
  2  1  1  0
  2  3  2  0
  4  2  1  0
  5  6  1  0
  5  4  1  0
  6  8  1  0
  6  7  1  6
  8  9  2  0
  8 15  1  0
 11 10  1  0
 12 11  1  0
 14 13  1  6
 13 12  1  0
 14 16  1  0
 15 14  1  0
 16 17  2  0
 18 16  1  0
 18 19  1  0
 19 27  1  0
 19 20  1  1
 21 20  1  0
 22 21  2  0
 23 22  1  0
 24 25  1  0
 24 23  2  0
 25 26  2  0
 26 21  1  0
 27 28  1  0
 29 27  2  0
M  END
$$$$
