QMF.pdb
     RDKit          3D

 29 29  0  0  1  0  0  0  0  0999 V2000
   34.7461  -28.2860  -20.1258 N   0  0  0  0  0  0  0  0  0  0  0  0
   35.8372  -29.1553  -19.8791 C   0  0  0  0  0  0  0  0  0  0  0  0
   37.0108  -28.8416  -20.1985 O   0  0  0  0  0  0  0  0  0  0  0  0
   35.6112  -30.4587  -19.2355 C   0  0  0  0  0  0  0  0  0  0  0  0
   34.1207  -30.6737  -18.9348 C   0  0  0  0  0  0  0  0  0  0  0  0
   33.9255  -30.1985  -17.5102 C   0  0  2  0  0  0  0  0  0  0  0  0
   34.3394  -31.2910  -16.6498 N   0  0  0  0  0  0  0  0  0  0  0  0
   32.5487  -29.8395  -17.1970 C   0  0  0  0  0  0  0  0  0  0  0  0
   31.8362  -30.6089  -16.5131 O   0  0  0  0  0  0  0  0  0  0  0  0
   32.7964  -23.7971  -16.4588 C   0  0  0  0  0  0  0  0  0  0  0  0
   31.2112  -24.3711  -15.8007 S   0  0  0  0  0  0  0  0  0  0  0  0
   31.2016  -26.1757  -15.8562 C   0  0  0  0  0  0  0  0  0  0  0  0
   30.7089  -26.6681  -17.1735 C   0  0  0  0  0  0  0  0  0  0  0  0
   30.6590  -28.1516  -17.3184 C   0  0  2  0  0  0  0  0  0  0  0  0
   32.0013  -28.6216  -17.6601 N   0  0  0  0  0  0  0  0  0  0  0  0
   29.7061  -28.6071  -18.3767 C   0  0  0  0  0  0  0  0  0  0  0  0
   30.1071  -28.7101  -19.5636 O   0  0  0  0  0  0  0  0  0  0  0  0
   28.3773  -28.9186  -18.0611 N   0  0  0  0  0  0  0  0  0  0  0  0
   27.4453  -29.2360  -19.1079 C   0  0  1  0  0  0  0  0  0  0  0  0
   27.8019  -30.5751  -19.7690 C   0  0  0  0  0  0  0  0  0  0  0  0
   26.8455  -30.8878  -20.8511 C   0  0  0  0  0  0  0  0  0  0  0  0
   26.9907  -30.3800  -22.1206 C   0  0  0  0  0  0  0  0  0  0  0  0
   26.0366  -30.7317  -23.0612 C   0  0  0  0  0  0  0  0  0  0  0  0
   24.9793  -31.5479  -22.7773 C   0  0  0  0  0  0  0  0  0  0  0  0
   24.8700  -32.0380  -21.4865 C   0  0  0  0  0  0  0  0  0  0  0  0
   25.7801  -31.7233  -20.5245 C   0  0  0  0  0  0  0  0  0  0  0  0
   26.0491  -29.3211  -18.6504 C   0  0  0  0  0  0  0  0  0  0  0  0
   25.8050  -29.6123  -17.3206 O   0  0  0  0  0  0  0  0  0  0  0  0
   25.0664  -29.1430  -19.4078 O   0  0  0  0  0  0  0  0  0  0  0  0
  2  1  1  0
  2  3  2  0
  4  2  1  0
  5  6  1  0
  5  4  1  0
  6  8  1  0
  6  7  1  1
  8  9  2  0
  8 15  1  0
 11 10  1  0
 12 11  1  0
 14 13  1  6
 13 12  1  0
 14 16  1  0
 15 14  1  0
 16 17  2  0
 18 16  1  0
 18 19  1  0
 19 27  1  0
 19 20  1  1
 21 20  1  0
 22 21  2  0
 23 22  1  0
 24 25  1  0
 24 23  2  0
 25 26  2  0
 26 21  1  0
 27 28  1  0
 29 27  2  0
M  END
$$$$
