QMF.pdb
     RDKit          3D

 29 29  0  0  1  0  0  0  0  0999 V2000
   26.1534  -25.7652  -15.5929 N   0  0  0  0  0  0  0  0  0  0  0  0
   26.0627  -24.7043  -16.5276 C   0  0  0  0  0  0  0  0  0  0  0  0
   26.4878  -23.5538  -16.2569 O   0  0  0  0  0  0  0  0  0  0  0  0
   25.4607  -24.9354  -17.8498 C   0  0  0  0  0  0  0  0  0  0  0  0
   25.1269  -26.4208  -18.0513 C   0  0  0  0  0  0  0  0  0  0  0  0
   26.3544  -27.0238  -18.7017 C   0  0  2  0  0  0  0  0  0  0  0  0
   26.2421  -26.7570  -20.1234 N   0  0  0  0  0  0  0  0  0  0  0  0
   26.4799  -28.4604  -18.4940 C   0  0  0  0  0  0  0  0  0  0  0  0
   25.7928  -29.2580  -19.1715 O   0  0  0  0  0  0  0  0  0  0  0  0
   31.0094  -28.7223  -17.4536 C   0  0  0  0  0  0  0  0  0  0  0  0
   31.1763  -30.3276  -18.2726 S   0  0  0  0  0  0  0  0  0  0  0  0
   29.7505  -31.3386  -17.8200 C   0  0  0  0  0  0  0  0  0  0  0  0
   28.9114  -30.6534  -16.7969 C   0  0  0  0  0  0  0  0  0  0  0  0
   27.5009  -30.3915  -17.2045 C   0  0  2  0  0  0  0  0  0  0  0  0
   27.3763  -28.9705  -17.5277 N   0  0  0  0  0  0  0  0  0  0  0  0
   26.5085  -30.7311  -16.1390 C   0  0  0  0  0  0  0  0  0  0  0  0
   26.1944  -29.8596  -15.2893 O   0  0  0  0  0  0  0  0  0  0  0  0
   25.9277  -32.0044  -16.0778 N   0  0  0  0  0  0  0  0  0  0  0  0
   24.9601  -32.3049  -15.0587 C   0  0  1  0  0  0  0  0  0  0  0  0
   23.5547  -32.4380  -15.6623 C   0  0  0  0  0  0  0  0  0  0  0  0
   23.5603  -33.4109  -16.7744 C   0  0  0  0  0  0  0  0  0  0  0  0
   23.6708  -33.0161  -18.0868 C   0  0  0  0  0  0  0  0  0  0  0  0
   23.6620  -34.0076  -19.0541 C   0  0  0  0  0  0  0  0  0  0  0  0
   23.5500  -35.3355  -18.7555 C   0  0  0  0  0  0  0  0  0  0  0  0
   23.4411  -35.6905  -17.4212 C   0  0  0  0  0  0  0  0  0  0  0  0
   23.4444  -34.7559  -16.4318 C   0  0  0  0  0  0  0  0  0  0  0  0
   25.2475  -33.5435  -14.3175 C   0  0  0  0  0  0  0  0  0  0  0  0
   26.3351  -34.3068  -14.7008 O   0  0  0  0  0  0  0  0  0  0  0  0
   24.5535  -33.9432  -13.3534 O   0  0  0  0  0  0  0  0  0  0  0  0
  2  1  1  0
  2  3  2  0
  4  2  1  0
  5  6  1  0
  5  4  1  0
  6  8  1  0
  6  7  1  6
  8  9  2  0
  8 15  1  0
 11 10  1  0
 12 11  1  0
 14 13  1  1
 13 12  1  0
 14 16  1  0
 15 14  1  0
 16 17  2  0
 18 16  1  0
 18 19  1  0
 19 27  1  0
 19 20  1  6
 21 20  1  0
 22 21  2  0
 23 22  1  0
 24 25  1  0
 24 23  2  0
 25 26  2  0
 26 21  1  0
 27 28  1  0
 29 27  2  0
M  END
$$$$
