QMF.pdb
     RDKit          3D

 29 29  0  0  1  0  0  0  0  0999 V2000
   27.2733  -19.3827  -17.2066 N   0  0  0  0  0  0  0  0  0  0  0  0
   28.0438  -20.1436  -18.1201 C   0  0  0  0  0  0  0  0  0  0  0  0
   29.1204  -19.7042  -18.5949 O   0  0  0  0  0  0  0  0  0  0  0  0
   27.5897  -21.4803  -18.5339 C   0  0  0  0  0  0  0  0  0  0  0  0
   26.3599  -21.9192  -17.7257 C   0  0  0  0  0  0  0  0  0  0  0  0
   26.9125  -22.5801  -16.4802 C   0  0  2  0  0  0  0  0  0  0  0  0
   27.0637  -23.9889  -16.7923 N   0  0  0  0  0  0  0  0  0  0  0  0
   26.0520  -22.4394  -15.3130 C   0  0  0  0  0  0  0  0  0  0  0  0
   25.0989  -23.2310  -15.1329 O   0  0  0  0  0  0  0  0  0  0  0  0
   24.4743  -21.0899   -8.3827 C   0  0  0  0  0  0  0  0  0  0  0  0
   25.2555  -21.6003   -9.9334 S   0  0  0  0  0  0  0  0  0  0  0  0
   25.5921  -20.1170  -10.9063 C   0  0  0  0  0  0  0  0  0  0  0  0
   26.2911  -20.4577  -12.1774 C   0  0  0  0  0  0  0  0  0  0  0  0
   25.4729  -21.2140  -13.1688 C   0  0  2  0  0  0  0  0  0  0  0  0
   26.2815  -21.4104  -14.3718 N   0  0  0  0  0  0  0  0  0  0  0  0
   24.2099  -20.5094  -13.5481 C   0  0  0  0  0  0  0  0  0  0  0  0
   24.2671  -19.3262  -13.9689 O   0  0  0  0  0  0  0  0  0  0  0  0
   22.9692  -21.1507  -13.4399 N   0  0  0  0  0  0  0  0  0  0  0  0
   21.7605  -20.4326  -13.7372 C   0  0  1  0  0  0  0  0  0  0  0  0
   21.5228  -20.3672  -15.2526 C   0  0  0  0  0  0  0  0  0  0  0  0
   21.2691  -21.7183  -15.7944 C   0  0  0  0  0  0  0  0  0  0  0  0
   22.2910  -22.5441  -16.1996 C   0  0  0  0  0  0  0  0  0  0  0  0
   21.9453  -23.7901  -16.6964 C   0  0  0  0  0  0  0  0  0  0  0  0
   20.6521  -24.2175  -16.7954 C   0  0  0  0  0  0  0  0  0  0  0  0
   19.6529  -23.3549  -16.3762 C   0  0  0  0  0  0  0  0  0  0  0  0
   19.9382  -22.1199  -15.8804 C   0  0  0  0  0  0  0  0  0  0  0  0
   20.5588  -21.0177  -13.1211 C   0  0  0  0  0  0  0  0  0  0  0  0
   19.3450  -20.3799  -13.3019 O   0  0  0  0  0  0  0  0  0  0  0  0
   20.5798  -22.0682  -12.4378 O   0  0  0  0  0  0  0  0  0  0  0  0
  2  1  1  0
  2  3  2  0
  4  2  1  0
  5  6  1  0
  5  4  1  0
  6  8  1  0
  6  7  1  6
  8  9  2  0
  8 15  1  0
 11 10  1  0
 12 11  1  0
 14 13  1  1
 13 12  1  0
 14 16  1  0
 15 14  1  0
 16 17  2  0
 18 16  1  0
 18 19  1  0
 19 27  1  0
 19 20  1  6
 21 20  1  0
 22 21  2  0
 23 22  1  0
 24 25  1  0
 24 23  2  0
 25 26  2  0
 26 21  1  0
 27 28  1  0
 29 27  2  0
M  END
$$$$
