QMF.pdb
     RDKit          3D

 29 29  0  0  1  0  0  0  0  0999 V2000
   27.6248  -17.3163  -14.5853 N   0  0  0  0  0  0  0  0  0  0  0  0
   28.1632  -17.8167  -15.7965 C   0  0  0  0  0  0  0  0  0  0  0  0
   29.0127  -17.1663  -16.4546 O   0  0  0  0  0  0  0  0  0  0  0  0
   27.7303  -19.1250  -16.3114 C   0  0  0  0  0  0  0  0  0  0  0  0
   26.7006  -19.7728  -15.3742 C   0  0  0  0  0  0  0  0  0  0  0  0
   27.4801  -20.7815  -14.5567 C   0  0  2  0  0  0  0  0  0  0  0  0
   27.8855  -21.8311  -15.4728 N   0  0  0  0  0  0  0  0  0  0  0  0
   26.7123  -21.3694  -13.4669 C   0  0  0  0  0  0  0  0  0  0  0  0
   25.7990  -22.1904  -13.7100 O   0  0  0  0  0  0  0  0  0  0  0  0
   28.3486  -19.6407   -7.6037 C   0  0  0  0  0  0  0  0  0  0  0  0
   26.7470  -20.3029   -7.0822 S   0  0  0  0  0  0  0  0  0  0  0  0
   25.8078  -20.7303   -8.5639 C   0  0  0  0  0  0  0  0  0  0  0  0
   26.6810  -20.7247   -9.7713 C   0  0  0  0  0  0  0  0  0  0  0  0
   26.0061  -21.1091  -11.0445 C   0  0  2  0  0  0  0  0  0  0  0  0
   26.9878  -21.0211  -12.1252 N   0  0  0  0  0  0  0  0  0  0  0  0
   24.8417  -20.2334  -11.3802 C   0  0  0  0  0  0  0  0  0  0  0  0
   25.0492  -19.0709  -11.8110 O   0  0  0  0  0  0  0  0  0  0  0  0
   23.5279  -20.6925  -11.2203 N   0  0  0  0  0  0  0  0  0  0  0  0
   22.5228  -20.3467  -12.1874 C   0  0  1  0  0  0  0  0  0  0  0  0
   22.9436  -20.7918  -13.5953 C   0  0  0  0  0  0  0  0  0  0  0  0
   21.9339  -20.3776  -14.5913 C   0  0  0  0  0  0  0  0  0  0  0  0
   21.2115  -19.2155  -14.4560 C   0  0  0  0  0  0  0  0  0  0  0  0
   20.2864  -18.9208  -15.4440 C   0  0  0  0  0  0  0  0  0  0  0  0
   20.0718  -19.7273  -16.5248 C   0  0  0  0  0  0  0  0  0  0  0  0
   20.8204  -20.8884  -16.6231 C   0  0  0  0  0  0  0  0  0  0  0  0
   21.7423  -21.2248  -15.6800 C   0  0  0  0  0  0  0  0  0  0  0  0
   21.2045  -20.9379  -11.9070 C   0  0  0  0  0  0  0  0  0  0  0  0
   21.1277  -22.2961  -11.6583 O   0  0  0  0  0  0  0  0  0  0  0  0
   20.1440  -20.2703  -11.8825 O   0  0  0  0  0  0  0  0  0  0  0  0
  2  1  1  0
  2  3  2  0
  4  2  1  0
  5  6  1  0
  5  4  1  0
  6  8  1  0
  6  7  1  6
  8  9  2  0
  8 15  1  0
 11 10  1  0
 12 11  1  0
 14 13  1  1
 13 12  1  0
 14 16  1  0
 15 14  1  0
 16 17  2  0
 18 16  1  0
 18 19  1  0
 19 27  1  0
 19 20  1  6
 21 20  1  0
 22 21  2  0
 23 22  1  0
 24 25  1  0
 24 23  2  0
 25 26  2  0
 26 21  1  0
 27 28  1  0
 29 27  2  0
M  END
$$$$
