QMF.pdb
     RDKit          3D

 29 29  0  0  1  0  0  0  0  0999 V2000
   26.1255  -17.5471  -17.8790 N   0  0  0  0  0  0  0  0  0  0  0  0
   27.5173  -17.3008  -17.7821 C   0  0  0  0  0  0  0  0  0  0  0  0
   28.1535  -16.7560  -18.7181 O   0  0  0  0  0  0  0  0  0  0  0  0
   28.2515  -17.6844  -16.5664 C   0  0  0  0  0  0  0  0  0  0  0  0
   27.2873  -18.1359  -15.4597 C   0  0  0  0  0  0  0  0  0  0  0  0
   27.8704  -19.4253  -14.9203 C   0  0  2  0  0  0  0  0  0  0  0  0
   28.3954  -20.1510  -16.0617 N   0  0  0  0  0  0  0  0  0  0  0  0
   26.8987  -20.2620  -14.2285 C   0  0  0  0  0  0  0  0  0  0  0  0
   26.0461  -20.9080  -14.8791 O   0  0  0  0  0  0  0  0  0  0  0  0
   26.0069  -19.7347   -7.5211 C   0  0  0  0  0  0  0  0  0  0  0  0
   25.8468  -21.4833   -7.9597 S   0  0  0  0  0  0  0  0  0  0  0  0
   25.2605  -21.5822   -9.6645 C   0  0  0  0  0  0  0  0  0  0  0  0
   26.2482  -20.9834  -10.6059 C   0  0  0  0  0  0  0  0  0  0  0  0
   25.8350  -20.9751  -12.0389 C   0  0  2  0  0  0  0  0  0  0  0  0
   26.9059  -20.3546  -12.8183 N   0  0  0  0  0  0  0  0  0  0  0  0
   24.5662  -20.2220  -12.2804 C   0  0  0  0  0  0  0  0  0  0  0  0
   24.5861  -18.9651  -12.2793 O   0  0  0  0  0  0  0  0  0  0  0  0
   23.3609  -20.8990  -12.5066 N   0  0  0  0  0  0  0  0  0  0  0  0
   22.1315  -20.1624  -12.6125 C   0  0  1  0  0  0  0  0  0  0  0  0
   22.1887  -19.1698  -13.7824 C   0  0  0  0  0  0  0  0  0  0  0  0
   22.2414  -19.8920  -15.0704 C   0  0  0  0  0  0  0  0  0  0  0  0
   21.1301  -20.4902  -15.6159 C   0  0  0  0  0  0  0  0  0  0  0  0
   21.2877  -21.1455  -16.8261 C   0  0  0  0  0  0  0  0  0  0  0  0
   22.4833  -21.2162  -17.4821 C   0  0  0  0  0  0  0  0  0  0  0  0
   23.5778  -20.6002  -16.8984 C   0  0  0  0  0  0  0  0  0  0  0  0
   23.4773  -19.9432  -15.7106 C   0  0  0  0  0  0  0  0  0  0  0  0
   20.9470  -21.0141  -12.8064 C   0  0  0  0  0  0  0  0  0  0  0  0
   21.1231  -22.3831  -12.8924 O   0  0  0  0  0  0  0  0  0  0  0  0
   19.7825  -20.5598  -12.8984 O   0  0  0  0  0  0  0  0  0  0  0  0
  2  1  1  0
  2  3  2  0
  4  2  1  0
  5  6  1  0
  5  4  1  0
  6  8  1  0
  6  7  1  6
  8  9  2  0
  8 15  1  0
 11 10  1  0
 12 11  1  0
 14 13  1  1
 13 12  1  0
 14 16  1  0
 15 14  1  0
 16 17  2  0
 18 16  1  0
 18 19  1  0
 19 27  1  0
 19 20  1  6
 21 20  1  0
 22 21  2  0
 23 22  1  0
 24 25  1  0
 24 23  2  0
 25 26  2  0
 26 21  1  0
 27 28  1  0
 29 27  2  0
M  END
$$$$
