QMF.pdb
     RDKit          3D

 29 29  0  0  1  0  0  0  0  0999 V2000
   26.3576  -18.6836  -19.1663 N   0  0  0  0  0  0  0  0  0  0  0  0
   27.5014  -18.2898  -18.4288 C   0  0  0  0  0  0  0  0  0  0  0  0
   28.6436  -18.2708  -18.9509 O   0  0  0  0  0  0  0  0  0  0  0  0
   27.3689  -17.8909  -17.0191 C   0  0  0  0  0  0  0  0  0  0  0  0
   26.8556  -19.0573  -16.1622 C   0  0  0  0  0  0  0  0  0  0  0  0
   28.0971  -19.7374  -15.6241 C   0  0  2  0  0  0  0  0  0  0  0  0
   28.6254  -20.5485  -16.7049 N   0  0  0  0  0  0  0  0  0  0  0  0
   27.8436  -20.5881  -14.4688 C   0  0  0  0  0  0  0  0  0  0  0  0
   27.1056  -21.5937  -14.5759 O   0  0  0  0  0  0  0  0  0  0  0  0
   31.6411  -21.3846   -9.2027 C   0  0  0  0  0  0  0  0  0  0  0  0
   32.1569  -21.7056  -10.9075 S   0  0  0  0  0  0  0  0  0  0  0  0
   30.6778  -21.7490  -11.9420 C   0  0  0  0  0  0  0  0  0  0  0  0
   29.5238  -21.1051  -11.2534 C   0  0  0  0  0  0  0  0  0  0  0  0
   28.2441  -21.1106  -12.0191 C   0  0  2  0  0  0  0  0  0  0  0  0
   28.4257  -20.2898  -13.2161 N   0  0  0  0  0  0  0  0  0  0  0  0
   27.0890  -20.5720  -11.2374 C   0  0  0  0  0  0  0  0  0  0  0  0
   26.9571  -19.3283  -11.1111 O   0  0  0  0  0  0  0  0  0  0  0  0
   26.1567  -21.4346  -10.6467 N   0  0  0  0  0  0  0  0  0  0  0  0
   25.0654  -20.8981   -9.8808 C   0  0  1  0  0  0  0  0  0  0  0  0
   25.4386  -19.5359   -9.2788 C   0  0  0  0  0  0  0  0  0  0  0  0
   26.1642  -19.7158   -8.0043 C   0  0  0  0  0  0  0  0  0  0  0  0
   26.0685  -20.8736   -7.2690 C   0  0  0  0  0  0  0  0  0  0  0  0
   26.7865  -20.9393   -6.0862 C   0  0  0  0  0  0  0  0  0  0  0  0
   27.5695  -19.9156   -5.6349 C   0  0  0  0  0  0  0  0  0  0  0  0
   27.6383  -18.7669   -6.4056 C   0  0  0  0  0  0  0  0  0  0  0  0
   26.9529  -18.6508   -7.5758 C   0  0  0  0  0  0  0  0  0  0  0  0
   23.8289  -20.7195  -10.6587 C   0  0  0  0  0  0  0  0  0  0  0  0
   22.6735  -20.3567   -9.9910 O   0  0  0  0  0  0  0  0  0  0  0  0
   23.7697  -20.8806  -11.9003 O   0  0  0  0  0  0  0  0  0  0  0  0
  2  1  1  0
  2  3  2  0
  4  2  1  0
  5  6  1  0
  5  4  1  0
  6  8  1  0
  6  7  1  6
  8  9  2  0
  8 15  1  0
 11 10  1  0
 12 11  1  0
 14 13  1  1
 13 12  1  0
 14 16  1  0
 15 14  1  0
 16 17  2  0
 18 16  1  0
 18 19  1  0
 19 27  1  0
 19 20  1  6
 21 20  1  0
 22 21  2  0
 23 22  1  0
 24 25  1  0
 24 23  2  0
 25 26  2  0
 26 21  1  0
 27 28  1  0
 29 27  2  0
M  END
$$$$
