QMF.pdb
     RDKit          3D

 29 29  0  0  1  0  0  0  0  0999 V2000
   17.7725  -11.5748  -20.0785 N   0  0  0  0  0  0  0  0  0  0  0  0
   17.1117  -12.7704  -19.7028 C   0  0  0  0  0  0  0  0  0  0  0  0
   16.3671  -13.3876  -20.5042 O   0  0  0  0  0  0  0  0  0  0  0  0
   17.2889  -13.3170  -18.3486 C   0  0  0  0  0  0  0  0  0  0  0  0
   18.1857  -12.4048  -17.4991 C   0  0  0  0  0  0  0  0  0  0  0  0
   19.3650  -13.2645  -17.0945 C   0  0  2  0  0  0  0  0  0  0  0  0
   18.8258  -14.3702  -16.3252 N   0  0  0  0  0  0  0  0  0  0  0  0
   20.3533  -12.5596  -16.2889 C   0  0  0  0  0  0  0  0  0  0  0  0
   20.1119  -12.2864  -15.0912 O   0  0  0  0  0  0  0  0  0  0  0  0
   28.0470  -11.5992  -15.4297 C   0  0  0  0  0  0  0  0  0  0  0  0
   26.6619  -12.3200  -16.3448 S   0  0  0  0  0  0  0  0  0  0  0  0
   25.1409  -11.5360  -15.7686 C   0  0  0  0  0  0  0  0  0  0  0  0
   23.9449  -12.1539  -16.4076 C   0  0  0  0  0  0  0  0  0  0  0  0
   22.6456  -11.4904  -16.0977 C   0  0  2  0  0  0  0  0  0  0  0  0
   21.5935  -12.1761  -16.8475 N   0  0  0  0  0  0  0  0  0  0  0  0
   22.6257  -10.0396  -16.4585 C   0  0  0  0  0  0  0  0  0  0  0  0
   22.4769   -9.7059  -17.6613 O   0  0  0  0  0  0  0  0  0  0  0  0
   22.7707   -9.0527  -15.4750 N   0  0  0  0  0  0  0  0  0  0  0  0
   22.7437   -7.6633  -15.8414 C   0  0  1  0  0  0  0  0  0  0  0  0
   22.1788   -6.8081  -14.6982 C   0  0  0  0  0  0  0  0  0  0  0  0
   22.0115   -5.4067  -15.1357 C   0  0  0  0  0  0  0  0  0  0  0  0
   22.9845   -4.4577  -14.9275 C   0  0  0  0  0  0  0  0  0  0  0  0
   22.7268   -3.1717  -15.3730 C   0  0  0  0  0  0  0  0  0  0  0  0
   21.5646   -2.8212  -15.9985 C   0  0  0  0  0  0  0  0  0  0  0  0
   20.6107   -3.8072  -16.1885 C   0  0  0  0  0  0  0  0  0  0  0  0
   20.8137   -5.0864  -15.7700 C   0  0  0  0  0  0  0  0  0  0  0  0
   24.0646   -7.1197  -16.1958 C   0  0  0  0  0  0  0  0  0  0  0  0
   24.2081   -6.4656  -17.4058 O   0  0  0  0  0  0  0  0  0  0  0  0
   25.0699   -7.2205  -15.4540 O   0  0  0  0  0  0  0  0  0  0  0  0
  2  1  1  0
  2  3  2  0
  4  2  1  0
  5  6  1  0
  5  4  1  0
  6  8  1  0
  6  7  1  1
  8  9  2  0
  8 15  1  0
 11 10  1  0
 12 11  1  0
 14 13  1  6
 13 12  1  0
 14 16  1  0
 15 14  1  0
 16 17  2  0
 18 16  1  0
 18 19  1  0
 19 27  1  0
 19 20  1  1
 21 20  1  0
 22 21  2  0
 23 22  1  0
 24 25  1  0
 24 23  2  0
 25 26  2  0
 26 21  1  0
 27 28  1  0
 29 27  2  0
M  END
$$$$
