QMF.pdb
     RDKit          3D

 29 29  0  0  1  0  0  0  0  0999 V2000
   20.6663  -21.2753  -14.2660 N   0  0  0  0  0  0  0  0  0  0  0  0
   21.1709  -19.9676  -14.4719 C   0  0  0  0  0  0  0  0  0  0  0  0
   20.6691  -19.1985  -15.3289 O   0  0  0  0  0  0  0  0  0  0  0  0
   22.3072  -19.4812  -13.6742 C   0  0  0  0  0  0  0  0  0  0  0  0
   22.8415  -20.5828  -12.7474 C   0  0  0  0  0  0  0  0  0  0  0  0
   24.3356  -20.3495  -12.6657 C   0  0  2  0  0  0  0  0  0  0  0  0
   24.9199  -21.0030  -13.8218 N   0  0  0  0  0  0  0  0  0  0  0  0
   24.9457  -20.8849  -11.4558 C   0  0  0  0  0  0  0  0  0  0  0  0
   24.3120  -21.6851  -10.7309 O   0  0  0  0  0  0  0  0  0  0  0  0
   31.3795  -21.7561  -10.0662 C   0  0  0  0  0  0  0  0  0  0  0  0
   30.5848  -22.1314  -11.6484 S   0  0  0  0  0  0  0  0  0  0  0  0
   28.7967  -22.0796  -11.4037 C   0  0  0  0  0  0  0  0  0  0  0  0
   28.4329  -21.1326  -10.3123 C   0  0  0  0  0  0  0  0  0  0  0  0
   26.9840  -21.0956   -9.9606 C   0  0  2  0  0  0  0  0  0  0  0  0
   26.2568  -20.5087  -11.0859 N   0  0  0  0  0  0  0  0  0  0  0  0
   26.6977  -20.2931   -8.7320 C   0  0  0  0  0  0  0  0  0  0  0  0
   26.2654  -19.1187   -8.8502 O   0  0  0  0  0  0  0  0  0  0  0  0
   26.9053  -20.8336   -7.4564 N   0  0  0  0  0  0  0  0  0  0  0  0
   27.4403  -20.0118   -6.4059 C   0  0  1  0  0  0  0  0  0  0  0  0
   27.1263  -20.6133   -5.0285 C   0  0  0  0  0  0  0  0  0  0  0  0
   27.8136  -19.8530   -3.9641 C   0  0  0  0  0  0  0  0  0  0  0  0
   29.0000  -20.2790   -3.4150 C   0  0  0  0  0  0  0  0  0  0  0  0
   29.5602  -19.4949   -2.4200 C   0  0  0  0  0  0  0  0  0  0  0  0
   28.9872  -18.3380   -1.9752 C   0  0  0  0  0  0  0  0  0  0  0  0
   27.7925  -17.9445   -2.5549 C   0  0  0  0  0  0  0  0  0  0  0  0
   27.1998  -18.6784   -3.5360 C   0  0  0  0  0  0  0  0  0  0  0  0
   28.8972  -19.8207   -6.4887 C   0  0  0  0  0  0  0  0  0  0  0  0
   29.4211  -18.5806   -6.1722 O   0  0  0  0  0  0  0  0  0  0  0  0
   29.6900  -20.7283   -6.8333 O   0  0  0  0  0  0  0  0  0  0  0  0
  2  1  1  0
  2  3  2  0
  4  2  1  0
  5  6  1  0
  5  4  1  0
  6  8  1  0
  6  7  1  6
  8  9  2  0
  8 15  1  0
 11 10  1  0
 12 11  1  0
 14 13  1  6
 13 12  1  0
 14 16  1  0
 15 14  1  0
 16 17  2  0
 18 16  1  0
 18 19  1  0
 19 27  1  0
 19 20  1  1
 21 20  1  0
 22 21  2  0
 23 22  1  0
 24 25  1  0
 24 23  2  0
 25 26  2  0
 26 21  1  0
 27 28  1  0
 29 27  2  0
M  END
$$$$
