MFN.pdb
     RDKit          3D

 28 28  0  0  1  0  0  0  0  0999 V2000
    8.6273  -11.9329   19.0399 C   0  0  0  0  0  0  0  0  0  0  0  0
    7.6587  -13.1423   18.1110 S   0  0  0  0  0  0  0  0  0  0  0  0
    7.7282  -14.7205   19.0009 C   0  0  0  0  0  0  0  0  0  0  0  0
    9.1865  -15.0682   19.2101 C   0  0  0  0  0  0  0  0  0  0  0  0
    9.3349  -16.3046   20.0692 C   0  0  2  0  0  0  0  0  0  0  0  0
    8.2168  -17.1863   19.9773 N   0  0  0  0  0  0  0  0  0  0  0  0
    9.4915  -15.8304   21.4753 C   0  0  0  0  0  0  0  0  0  0  0  0
   10.6003  -15.3987   21.9047 O   0  0  0  0  0  0  0  0  0  0  0  0
    8.4283  -15.8365   22.3906 N   0  0  0  0  0  0  0  0  0  0  0  0
    8.5548  -15.2628   23.7561 C   0  0  1  0  0  0  0  0  0  0  0  0
    7.3823  -14.3626   23.8909 C   0  0  0  0  0  0  0  0  0  0  0  0
    7.2045  -13.6552   25.1557 C   0  0  0  0  0  0  0  0  0  0  0  0
    7.9427  -12.5361   25.4498 C   0  0  0  0  0  0  0  0  0  0  0  0
    7.8041  -11.8405   26.6404 C   0  0  0  0  0  0  0  0  0  0  0  0
    6.8983  -12.2695   27.5788 C   0  0  0  0  0  0  0  0  0  0  0  0
    6.1428  -13.3824   27.3221 C   0  0  0  0  0  0  0  0  0  0  0  0
    6.2912  -14.0710   26.1244 C   0  0  0  0  0  0  0  0  0  0  0  0
    8.6926  -16.3591   24.7179 C   0  0  0  0  0  0  0  0  0  0  0  0
    8.2575  -17.5146   24.3651 O   0  0  0  0  0  0  0  0  0  0  0  0
   10.8459  -19.0972   24.6941 N   0  0  0  0  0  0  0  0  0  0  0  0
   11.8112  -18.0653   24.7495 C   0  0  0  0  0  0  0  0  0  0  0  0
   12.8214  -18.1271   24.0093 O   0  0  0  0  0  0  0  0  0  0  0  0
   11.6129  -16.9077   25.6940 C   0  0  0  0  0  0  0  0  0  0  0  0
   10.3072  -17.2000   26.4046 C   0  0  2  0  0  0  0  0  0  0  0  0
    9.2672  -16.2809   26.0092 N   0  0  0  0  0  0  0  0  0  0  0  0
   10.4667  -17.1578   27.8728 C   0  0  0  0  0  0  0  0  0  0  0  0
   10.3019  -18.1139   28.6582 O   0  0  0  0  0  0  0  0  0  0  0  0
   10.8405  -15.9253   28.4460 O   0  0  0  0  0  0  0  0  0  0  0  0
  2  1  1  0
  2  3  1  0
  4  3  1  0
  5  4  1  0
  5  6  1  1
  7  5  1  0
  8  7  2  0
  9  7  1  0
 10  9  1  0
 10 11  1  1
 11 12  1  0
 12 17  2  0
 13 12  1  0
 13 14  2  0
 14 15  1  0
 15 16  2  0
 17 16  1  0
 18 25  1  0
 18 10  1  0
 19 18  2  0
 20 21  1  0
 21 22  2  0
 23 21  1  0
 24 23  1  6
 24 26  1  0
 24 25  1  0
 26 28  1  0
 27 26  2  0
M  END
$$$$
