MFN.pdb
     RDKit          3D

 28 28  0  0  1  0  0  0  0  0999 V2000
    8.3322  -11.7308   18.7378 C   0  0  0  0  0  0  0  0  0  0  0  0
    7.7296  -12.9811   17.5813 S   0  0  0  0  0  0  0  0  0  0  0  0
    8.0986  -14.6143   18.2772 C   0  0  0  0  0  0  0  0  0  0  0  0
    8.3521  -14.4377   19.7589 C   0  0  0  0  0  0  0  0  0  0  0  0
    8.7333  -15.7502   20.4076 C   0  0  2  0  0  0  0  0  0  0  0  0
    7.6598  -16.6898   20.4403 N   0  0  0  0  0  0  0  0  0  0  0  0
    9.1668  -15.4283   21.7987 C   0  0  0  0  0  0  0  0  0  0  0  0
   10.2365  -14.7916   22.0239 O   0  0  0  0  0  0  0  0  0  0  0  0
    8.4198  -15.8095   22.9232 N   0  0  0  0  0  0  0  0  0  0  0  0
    8.6938  -15.2644   24.2787 C   0  0  1  0  0  0  0  0  0  0  0  0
    7.3547  -14.9186   24.8177 C   0  0  0  0  0  0  0  0  0  0  0  0
    7.2848  -13.9481   25.9062 C   0  0  0  0  0  0  0  0  0  0  0  0
    6.4483  -12.8623   25.8328 C   0  0  0  0  0  0  0  0  0  0  0  0
    6.3572  -11.9189   26.8439 C   0  0  0  0  0  0  0  0  0  0  0  0
    7.1251  -12.0548   27.9739 C   0  0  0  0  0  0  0  0  0  0  0  0
    7.9721  -13.1251   28.0845 C   0  0  0  0  0  0  0  0  0  0  0  0
    8.0543  -14.0642   27.0637 C   0  0  0  0  0  0  0  0  0  0  0  0
    9.5038  -16.2325   25.0221 C   0  0  0  0  0  0  0  0  0  0  0  0
    9.1131  -17.4557   25.0217 O   0  0  0  0  0  0  0  0  0  0  0  0
   13.8683  -15.4728   24.3215 N   0  0  0  0  0  0  0  0  0  0  0  0
   13.3141  -16.6634   24.8460 C   0  0  0  0  0  0  0  0  0  0  0  0
   13.1384  -17.6466   24.0879 O   0  0  0  0  0  0  0  0  0  0  0  0
   12.9443  -16.7348   26.3053 C   0  0  0  0  0  0  0  0  0  0  0  0
   11.4600  -17.0378   26.3198 C   0  0  2  0  0  0  0  0  0  0  0  0
   10.6900  -15.9609   25.7452 N   0  0  0  0  0  0  0  0  0  0  0  0
   10.9750  -17.3116   27.6883 C   0  0  0  0  0  0  0  0  0  0  0  0
   10.8321  -18.4382   28.2062 O   0  0  0  0  0  0  0  0  0  0  0  0
   10.6414  -16.2002   28.4889 O   0  0  0  0  0  0  0  0  0  0  0  0
  2  1  1  0
  2  3  1  0
  4  3  1  0
  5  4  1  0
  5  6  1  1
  7  5  1  0
  8  7  2  0
  9  7  1  0
 10  9  1  0
 10 11  1  1
 11 12  1  0
 12 17  2  0
 13 12  1  0
 13 14  2  0
 14 15  1  0
 15 16  2  0
 17 16  1  0
 18 25  1  0
 18 10  1  0
 19 18  2  0
 20 21  1  0
 21 22  2  0
 23 21  1  0
 24 23  1  1
 24 26  1  0
 24 25  1  0
 26 28  1  0
 27 26  2  0
M  END
$$$$
