MFN.pdb
     RDKit          3D

 28 28  0  0  1  0  0  0  0  0999 V2000
    8.4199  -12.0605   18.6551 C   0  0  0  0  0  0  0  0  0  0  0  0
    7.8370  -13.3351   17.5152 S   0  0  0  0  0  0  0  0  0  0  0  0
    8.0892  -14.9495   18.3011 C   0  0  0  0  0  0  0  0  0  0  0  0
    8.5726  -14.7040   19.7143 C   0  0  0  0  0  0  0  0  0  0  0  0
    8.8647  -16.0070   20.4252 C   0  0  2  0  0  0  0  0  0  0  0  0
    7.7383  -16.8817   20.4738 N   0  0  0  0  0  0  0  0  0  0  0  0
    9.2892  -15.6509   21.8108 C   0  0  0  0  0  0  0  0  0  0  0  0
   10.4209  -15.1344   22.0401 O   0  0  0  0  0  0  0  0  0  0  0  0
    8.4651  -15.8666   22.9254 N   0  0  0  0  0  0  0  0  0  0  0  0
    8.7228  -15.2196   24.2386 C   0  0  1  0  0  0  0  0  0  0  0  0
    7.3982  -14.7024   24.6642 C   0  0  0  0  0  0  0  0  0  0  0  0
    7.3427  -13.8615   25.8565 C   0  0  0  0  0  0  0  0  0  0  0  0
    6.6910  -12.6536   25.8401 C   0  0  0  0  0  0  0  0  0  0  0  0
    6.6199  -11.8273   26.9504 C   0  0  0  0  0  0  0  0  0  0  0  0
    7.2181  -12.2112   28.1251 C   0  0  0  0  0  0  0  0  0  0  0  0
    7.8779  -13.4098   28.1812 C   0  0  0  0  0  0  0  0  0  0  0  0
    7.9420  -14.2294   27.0610 C   0  0  0  0  0  0  0  0  0  0  0  0
    9.3979  -16.1807   25.1141 C   0  0  0  0  0  0  0  0  0  0  0  0
    8.8952  -17.3592   25.1989 O   0  0  0  0  0  0  0  0  0  0  0  0
   12.7387  -18.0016   24.3334 N   0  0  0  0  0  0  0  0  0  0  0  0
   13.0462  -16.8983   25.1629 C   0  0  0  0  0  0  0  0  0  0  0  0
   13.6225  -15.8996   24.6703 O   0  0  0  0  0  0  0  0  0  0  0  0
   12.6770  -16.9371   26.6237 C   0  0  0  0  0  0  0  0  0  0  0  0
   11.1643  -17.0158   26.6444 C   0  0  2  0  0  0  0  0  0  0  0  0
   10.5640  -15.9475   25.8819 N   0  0  0  0  0  0  0  0  0  0  0  0
   10.6380  -16.9887   28.0247 C   0  0  0  0  0  0  0  0  0  0  0  0
   10.3024  -17.9811   28.7033 O   0  0  0  0  0  0  0  0  0  0  0  0
   10.5003  -15.7268   28.6380 O   0  0  0  0  0  0  0  0  0  0  0  0
  2  1  1  0
  2  3  1  0
  4  3  1  0
  5  4  1  0
  5  6  1  1
  7  5  1  0
  8  7  2  0
  9  7  1  0
 10  9  1  0
 10 11  1  1
 11 12  1  0
 12 17  2  0
 13 12  1  0
 13 14  2  0
 14 15  1  0
 15 16  2  0
 17 16  1  0
 18 25  1  0
 18 10  1  0
 19 18  2  0
 20 21  1  0
 21 22  2  0
 23 21  1  0
 24 23  1  1
 24 26  1  0
 24 25  1  0
 26 28  1  0
 27 26  2  0
M  END
$$$$
