MFN.pdb
     RDKit          3D

 28 28  0  0  1  0  0  0  0  0999 V2000
    8.0732  -11.6696   19.2509 C   0  0  0  0  0  0  0  0  0  0  0  0
    7.6979  -13.0635   18.1646 S   0  0  0  0  0  0  0  0  0  0  0  0
    7.2693  -14.4860   19.2040 C   0  0  0  0  0  0  0  0  0  0  0  0
    7.7991  -14.2165   20.5960 C   0  0  0  0  0  0  0  0  0  0  0  0
    7.5441  -15.3916   21.5141 C   0  0  2  0  0  0  0  0  0  0  0  0
    6.1560  -15.6669   21.6967 N   0  0  0  0  0  0  0  0  0  0  0  0
    8.1696  -15.0516   22.8255 C   0  0  0  0  0  0  0  0  0  0  0  0
    8.1960  -13.8615   23.2534 O   0  0  0  0  0  0  0  0  0  0  0  0
    8.7573  -16.0233   23.6493 N   0  0  0  0  0  0  0  0  0  0  0  0
    9.6178  -15.6653   24.8073 C   0  0  1  0  0  0  0  0  0  0  0  0
    8.7082  -15.7252   25.9787 C   0  0  0  0  0  0  0  0  0  0  0  0
    9.2155  -15.2536   27.2640 C   0  0  0  0  0  0  0  0  0  0  0  0
    9.7209  -16.1317   28.1899 C   0  0  0  0  0  0  0  0  0  0  0  0
   10.2082  -15.7220   29.4209 C   0  0  0  0  0  0  0  0  0  0  0  0
   10.1948  -14.3890   29.7498 C   0  0  0  0  0  0  0  0  0  0  0  0
    9.6984  -13.4818   28.8521 C   0  0  0  0  0  0  0  0  0  0  0  0
    9.2128  -13.9053   27.6210 C   0  0  0  0  0  0  0  0  0  0  0  0
   10.7955  -16.5365   24.8075 C   0  0  0  0  0  0  0  0  0  0  0  0
   10.5939  -17.8046   24.8022 O   0  0  0  0  0  0  0  0  0  0  0  0
   13.6015  -16.5540   22.1287 N   0  0  0  0  0  0  0  0  0  0  0  0
   14.3858  -15.8764   23.0907 C   0  0  0  0  0  0  0  0  0  0  0  0
   14.9345  -14.7914   22.7839 O   0  0  0  0  0  0  0  0  0  0  0  0
   14.5504  -16.4651   24.4683 C   0  0  0  0  0  0  0  0  0  0  0  0
   13.2123  -17.1004   24.7862 C   0  0  2  0  0  0  0  0  0  0  0  0
   12.1496  -16.1241   24.8068 N   0  0  0  0  0  0  0  0  0  0  0  0
   13.2447  -17.8174   26.0776 C   0  0  0  0  0  0  0  0  0  0  0  0
   13.2445  -19.0561   26.2311 O   0  0  0  0  0  0  0  0  0  0  0  0
   13.2798  -17.0345   27.2494 O   0  0  0  0  0  0  0  0  0  0  0  0
  2  1  1  0
  2  3  1  0
  4  3  1  0
  5  4  1  0
  5  6  1  1
  7  5  1  0
  8  7  2  0
  9  7  1  0
 10  9  1  0
 10 11  1  1
 11 12  1  0
 12 17  2  0
 13 12  1  0
 13 14  2  0
 14 15  1  0
 15 16  2  0
 17 16  1  0
 18 25  1  0
 18 10  1  0
 19 18  2  0
 20 21  1  0
 21 22  2  0
 23 21  1  0
 24 23  1  1
 24 26  1  0
 24 25  1  0
 26 28  1  0
 27 26  2  0
M  END
$$$$
