MFN.pdb
     RDKit          3D

 28 28  0  0  1  0  0  0  0  0999 V2000
    7.9700  -11.6851   19.6151 C   0  0  0  0  0  0  0  0  0  0  0  0
    7.4129  -13.0844   18.6174 S   0  0  0  0  0  0  0  0  0  0  0  0
    7.1458  -14.4939   19.7263 C   0  0  0  0  0  0  0  0  0  0  0  0
    8.0363  -14.3045   20.9356 C   0  0  0  0  0  0  0  0  0  0  0  0
    8.4737  -15.6361   21.5051 C   0  0  2  0  0  0  0  0  0  0  0  0
    7.3938  -16.5534   21.6739 N   0  0  0  0  0  0  0  0  0  0  0  0
    9.1046  -15.3482   22.8264 C   0  0  0  0  0  0  0  0  0  0  0  0
   10.0959  -14.5687   22.9265 O   0  0  0  0  0  0  0  0  0  0  0  0
    8.6381  -15.9198   24.0196 N   0  0  0  0  0  0  0  0  0  0  0  0
    9.3489  -15.7444   25.3133 C   0  0  1  0  0  0  0  0  0  0  0  0
    8.2653  -15.5547   26.3098 C   0  0  0  0  0  0  0  0  0  0  0  0
    7.5268  -14.2954   26.2864 C   0  0  0  0  0  0  0  0  0  0  0  0
    8.1243  -13.1184   26.6628 C   0  0  0  0  0  0  0  0  0  0  0  0
    7.4549  -11.9048   26.6568 C   0  0  0  0  0  0  0  0  0  0  0  0
    6.1408  -11.8533   26.2626 C   0  0  0  0  0  0  0  0  0  0  0  0
    5.5098  -13.0067   25.8795 C   0  0  0  0  0  0  0  0  0  0  0  0
    6.1919  -14.2172   25.8899 C   0  0  0  0  0  0  0  0  0  0  0  0
   10.2672  -16.8698   25.5038 C   0  0  0  0  0  0  0  0  0  0  0  0
   10.6484  -17.1265   26.7028 O   0  0  0  0  0  0  0  0  0  0  0  0
    9.4556  -20.2909   22.6883 N   0  0  0  0  0  0  0  0  0  0  0  0
   10.2335  -20.3606   23.8671 C   0  0  0  0  0  0  0  0  0  0  0  0
    9.7166  -20.8027   24.9205 O   0  0  0  0  0  0  0  0  0  0  0  0
   11.6699  -19.9049   23.8414 C   0  0  0  0  0  0  0  0  0  0  0  0
   11.7339  -18.7524   24.8225 C   0  0  2  0  0  0  0  0  0  0  0  0
   10.7809  -17.7192   24.4947 N   0  0  0  0  0  0  0  0  0  0  0  0
   13.0891  -18.1673   24.8854 C   0  0  0  0  0  0  0  0  0  0  0  0
   13.9916  -18.4871   25.6862 O   0  0  0  0  0  0  0  0  0  0  0  0
   13.3977  -17.1531   23.9562 O   0  0  0  0  0  0  0  0  0  0  0  0
  2  1  1  0
  2  3  1  0
  4  3  1  0
  5  4  1  0
  5  6  1  1
  7  5  1  0
  8  7  2  0
  9  7  1  0
 10  9  1  0
 10 11  1  1
 11 12  1  0
 12 17  2  0
 13 12  1  0
 13 14  2  0
 14 15  1  0
 15 16  2  0
 17 16  1  0
 18 25  1  0
 18 10  1  0
 19 18  2  0
 20 21  1  0
 21 22  2  0
 23 21  1  0
 24 23  1  6
 24 26  1  0
 24 25  1  0
 26 28  1  0
 27 26  2  0
M  END
$$$$
