MFN.pdb
     RDKit          3D

 28 28  0  0  1  0  0  0  0  0999 V2000
    8.7522  -11.7520   19.2876 C   0  0  0  0  0  0  0  0  0  0  0  0
    7.7649  -12.7632   18.1622 S   0  0  0  0  0  0  0  0  0  0  0  0
    7.8617  -14.4849   18.7225 C   0  0  0  0  0  0  0  0  0  0  0  0
    8.5357  -14.4916   20.0778 C   0  0  0  0  0  0  0  0  0  0  0  0
    8.6579  -15.8988   20.6196 C   0  0  2  0  0  0  0  0  0  0  0  0
    7.4409  -16.6386   20.5325 N   0  0  0  0  0  0  0  0  0  0  0  0
    9.0720  -15.7715   22.0475 C   0  0  0  0  0  0  0  0  0  0  0  0
   10.2162  -15.3349   22.3646 O   0  0  0  0  0  0  0  0  0  0  0  0
    8.2239  -16.1250   23.1077 N   0  0  0  0  0  0  0  0  0  0  0  0
    8.5478  -15.8040   24.5225 C   0  0  1  0  0  0  0  0  0  0  0  0
    7.2440  -15.4331   25.1271 C   0  0  0  0  0  0  0  0  0  0  0  0
    7.1161  -14.1030   25.7155 C   0  0  0  0  0  0  0  0  0  0  0  0
    8.1569  -13.5315   26.4041 C   0  0  0  0  0  0  0  0  0  0  0  0
    8.0717  -12.2732   26.9788 C   0  0  0  0  0  0  0  0  0  0  0  0
    6.9095  -11.5506   26.8680 C   0  0  0  0  0  0  0  0  0  0  0  0
    5.8486  -12.0869   26.1882 C   0  0  0  0  0  0  0  0  0  0  0  0
    5.9466  -13.3496   25.6165 C   0  0  0  0  0  0  0  0  0  0  0  0
    9.2796  -16.9307   25.1066 C   0  0  0  0  0  0  0  0  0  0  0  0
    8.7112  -18.0819   25.0830 O   0  0  0  0  0  0  0  0  0  0  0  0
   13.6391  -20.3465   25.7539 N   0  0  0  0  0  0  0  0  0  0  0  0
   13.2269  -19.3025   26.6141 C   0  0  0  0  0  0  0  0  0  0  0  0
   13.2946  -19.4650   27.8556 O   0  0  0  0  0  0  0  0  0  0  0  0
   12.7144  -18.0117   26.0288 C   0  0  0  0  0  0  0  0  0  0  0  0
   11.2066  -18.0982   26.1474 C   0  0  2  0  0  0  0  0  0  0  0  0
   10.5655  -16.8863   25.6965 N   0  0  0  0  0  0  0  0  0  0  0  0
   10.7866  -18.3884   27.5338 C   0  0  0  0  0  0  0  0  0  0  0  0
   10.5974  -17.5471   28.4363 O   0  0  0  0  0  0  0  0  0  0  0  0
   10.5780  -19.7403   27.8750 O   0  0  0  0  0  0  0  0  0  0  0  0
  2  1  1  0
  2  3  1  0
  4  3  1  0
  5  4  1  0
  5  6  1  1
  7  5  1  0
  8  7  2  0
  9  7  1  0
 10  9  1  0
 10 11  1  1
 11 12  1  0
 12 17  2  0
 13 12  1  0
 13 14  2  0
 14 15  1  0
 15 16  2  0
 17 16  1  0
 18 25  1  0
 18 10  1  0
 19 18  2  0
 20 21  1  0
 21 22  2  0
 23 21  1  0
 24 23  1  1
 24 26  1  0
 24 25  1  0
 26 28  1  0
 27 26  2  0
M  END
$$$$
