MFN.pdb
     RDKit          3D

 28 28  0  0  1  0  0  0  0  0999 V2000
    8.0808  -11.9631   18.5814 C   0  0  0  0  0  0  0  0  0  0  0  0
    7.5978  -13.3393   17.5152 S   0  0  0  0  0  0  0  0  0  0  0  0
    8.2509  -14.8675   18.2401 C   0  0  0  0  0  0  0  0  0  0  0  0
    8.2208  -14.7134   19.7456 C   0  0  0  0  0  0  0  0  0  0  0  0
    8.7636  -15.9478   20.4315 C   0  0  2  0  0  0  0  0  0  0  0  0
    7.8147  -17.0113   20.5006 N   0  0  0  0  0  0  0  0  0  0  0  0
    9.1585  -15.5314   21.8089 C   0  0  0  0  0  0  0  0  0  0  0  0
   10.2183  -14.8733   22.0191 O   0  0  0  0  0  0  0  0  0  0  0  0
    8.3842  -15.8429   22.9365 N   0  0  0  0  0  0  0  0  0  0  0  0
    8.6819  -15.2839   24.2813 C   0  0  1  0  0  0  0  0  0  0  0  0
    7.3809  -14.7528   24.7592 C   0  0  0  0  0  0  0  0  0  0  0  0
    7.3593  -14.0390   26.0327 C   0  0  0  0  0  0  0  0  0  0  0  0
    7.2937  -12.6686   26.0741 C   0  0  0  0  0  0  0  0  0  0  0  0
    7.2745  -11.9566   27.2630 C   0  0  0  0  0  0  0  0  0  0  0  0
    7.3224  -12.6274   28.4600 C   0  0  0  0  0  0  0  0  0  0  0  0
    7.3883  -13.9952   28.4601 C   0  0  0  0  0  0  0  0  0  0  0  0
    7.4069  -14.6975   27.2613 C   0  0  0  0  0  0  0  0  0  0  0  0
    9.3394  -16.3161   25.0867 C   0  0  0  0  0  0  0  0  0  0  0  0
    8.7769  -17.4689   25.1454 O   0  0  0  0  0  0  0  0  0  0  0  0
   11.9266  -18.2629   24.1619 N   0  0  0  0  0  0  0  0  0  0  0  0
   12.8442  -17.5391   24.9581 C   0  0  0  0  0  0  0  0  0  0  0  0
   13.8612  -17.0374   24.4232 O   0  0  0  0  0  0  0  0  0  0  0  0
   12.5875  -17.3798   26.4347 C   0  0  0  0  0  0  0  0  0  0  0  0
   11.0808  -17.2883   26.5637 C   0  0  2  0  0  0  0  0  0  0  0  0
   10.5474  -16.1781   25.8114 N   0  0  0  0  0  0  0  0  0  0  0  0
   10.6628  -17.1697   27.9758 C   0  0  0  0  0  0  0  0  0  0  0  0
   10.5346  -18.1103   28.7862 O   0  0  0  0  0  0  0  0  0  0  0  0
   10.3818  -15.8754   28.4589 O   0  0  0  0  0  0  0  0  0  0  0  0
  2  1  1  0
  2  3  1  0
  4  3  1  0
  5  4  1  0
  5  6  1  1
  7  5  1  0
  8  7  2  0
  9  7  1  0
 10  9  1  0
 10 11  1  1
 11 12  1  0
 12 17  2  0
 13 12  1  0
 13 14  2  0
 14 15  1  0
 15 16  2  0
 17 16  1  0
 18 25  1  0
 18 10  1  0
 19 18  2  0
 20 21  1  0
 21 22  2  0
 23 21  1  0
 24 23  1  1
 24 26  1  0
 24 25  1  0
 26 28  1  0
 27 26  2  0
M  END
$$$$
