MFN.pdb
     RDKit          3D

 28 28  0  0  1  0  0  0  0  0999 V2000
    6.4673  -12.4217   18.5186 C   0  0  0  0  0  0  0  0  0  0  0  0
    8.1261  -13.0102   18.9262 S   0  0  0  0  0  0  0  0  0  0  0  0
    8.2630  -14.7315   18.3731 C   0  0  0  0  0  0  0  0  0  0  0  0
    9.5834  -15.2741   18.8766 C   0  0  0  0  0  0  0  0  0  0  0  0
    9.3694  -16.3624   19.9055 C   0  0  2  0  0  0  0  0  0  0  0  0
    8.0792  -16.9658   19.8204 N   0  0  0  0  0  0  0  0  0  0  0  0
    9.5428  -15.7245   21.2433 C   0  0  0  0  0  0  0  0  0  0  0  0
   10.5737  -15.0455   21.5201 O   0  0  0  0  0  0  0  0  0  0  0  0
    8.5817  -15.8405   22.2586 N   0  0  0  0  0  0  0  0  0  0  0  0
    8.7533  -15.2004   23.5892 C   0  0  1  0  0  0  0  0  0  0  0  0
    7.4785  -14.4760   23.8201 C   0  0  0  0  0  0  0  0  0  0  0  0
    7.3123  -13.7702   25.0874 C   0  0  0  0  0  0  0  0  0  0  0  0
    7.9900  -12.6039   25.3413 C   0  0  0  0  0  0  0  0  0  0  0  0
    7.8603  -11.9080   26.5328 C   0  0  0  0  0  0  0  0  0  0  0  0
    7.0264  -12.3853   27.5135 C   0  0  0  0  0  0  0  0  0  0  0  0
    6.3328  -13.5461   27.2976 C   0  0  0  0  0  0  0  0  0  0  0  0
    6.4714  -14.2346   26.0986 C   0  0  0  0  0  0  0  0  0  0  0  0
    9.1456  -16.2256   24.5593 C   0  0  0  0  0  0  0  0  0  0  0  0
    8.4541  -17.3072   24.5900 O   0  0  0  0  0  0  0  0  0  0  0  0
   13.1669  -16.9620   24.0810 N   0  0  0  0  0  0  0  0  0  0  0  0
   12.3292  -17.8533   24.7906 C   0  0  0  0  0  0  0  0  0  0  0  0
   11.8396  -18.8430   24.1963 O   0  0  0  0  0  0  0  0  0  0  0  0
   12.0378  -17.6030   26.2480 C   0  0  0  0  0  0  0  0  0  0  0  0
   10.5575  -17.2855   26.3036 C   0  0  2  0  0  0  0  0  0  0  0  0
   10.2234  -16.1527   25.4740 N   0  0  0  0  0  0  0  0  0  0  0  0
   10.1087  -17.0290   27.6876 C   0  0  0  0  0  0  0  0  0  0  0  0
   10.2163  -17.8131   28.6528 O   0  0  0  0  0  0  0  0  0  0  0  0
    9.5020  -15.7835   27.9487 O   0  0  0  0  0  0  0  0  0  0  0  0
  2  1  1  0
  2  3  1  0
  4  3  1  0
  5  4  1  0
  5  6  1  1
  7  5  1  0
  8  7  2  0
  9  7  1  0
 10  9  1  0
 10 11  1  1
 11 12  1  0
 12 17  2  0
 13 12  1  0
 13 14  2  0
 14 15  1  0
 15 16  2  0
 17 16  1  0
 18 25  1  0
 18 10  1  0
 19 18  2  0
 20 21  1  0
 21 22  2  0
 23 21  1  0
 24 23  1  1
 24 26  1  0
 24 25  1  0
 26 28  1  0
 27 26  2  0
M  END
$$$$
