MFN.pdb
     RDKit          3D

 28 28  0  0  1  0  0  0  0  0999 V2000
    6.9764  -12.3164   17.8490 C   0  0  0  0  0  0  0  0  0  0  0  0
    8.2272  -12.5670   19.1282 S   0  0  0  0  0  0  0  0  0  0  0  0
    7.7296  -13.9953   20.1282 C   0  0  0  0  0  0  0  0  0  0  0  0
    8.7347  -14.1457   21.2498 C   0  0  0  0  0  0  0  0  0  0  0  0
    8.7637  -15.5661   21.7699 C   0  0  2  0  0  0  0  0  0  0  0  0
    7.5074  -16.2315   21.6477 N   0  0  0  0  0  0  0  0  0  0  0  0
    9.1564  -15.4859   23.2073 C   0  0  0  0  0  0  0  0  0  0  0  0
   10.2329  -14.9263   23.5652 O   0  0  0  0  0  0  0  0  0  0  0  0
    8.3616  -16.0211   24.2319 N   0  0  0  0  0  0  0  0  0  0  0  0
    8.7888  -16.0075   25.6555 C   0  0  1  0  0  0  0  0  0  0  0  0
    7.5714  -15.6080   26.4049 C   0  0  0  0  0  0  0  0  0  0  0  0
    7.2464  -14.1863   26.4746 C   0  0  0  0  0  0  0  0  0  0  0  0
    5.9854  -13.7338   26.1761 C   0  0  0  0  0  0  0  0  0  0  0  0
    5.6405  -12.3925   26.2279 C   0  0  0  0  0  0  0  0  0  0  0  0
    6.5815  -11.4604   26.5895 C   0  0  0  0  0  0  0  0  0  0  0  0
    7.8511  -11.8727   26.8949 C   0  0  0  0  0  0  0  0  0  0  0  0
    8.1843  -13.2206   26.8392 C   0  0  0  0  0  0  0  0  0  0  0  0
    9.3999  -17.2994   25.9776 C   0  0  0  0  0  0  0  0  0  0  0  0
    9.3359  -17.6971   27.1968 O   0  0  0  0  0  0  0  0  0  0  0  0
    9.5867  -20.1129   22.3706 N   0  0  0  0  0  0  0  0  0  0  0  0
    9.6957  -20.4886   23.7295 C   0  0  0  0  0  0  0  0  0  0  0  0
    8.6915  -20.9481   24.3235 O   0  0  0  0  0  0  0  0  0  0  0  0
   11.0139  -20.3331   24.4434 C   0  0  0  0  0  0  0  0  0  0  0  0
   10.7423  -19.3443   25.5585 C   0  0  2  0  0  0  0  0  0  0  0  0
   10.0564  -18.1701   25.0751 N   0  0  0  0  0  0  0  0  0  0  0  0
   11.9888  -18.9383   26.2399 C   0  0  0  0  0  0  0  0  0  0  0  0
   12.4118  -17.7706   26.3649 O   0  0  0  0  0  0  0  0  0  0  0  0
   12.7781  -19.9610   26.8042 O   0  0  0  0  0  0  0  0  0  0  0  0
  2  1  1  0
  2  3  1  0
  4  3  1  0
  5  4  1  0
  5  6  1  1
  7  5  1  0
  8  7  2  0
  9  7  1  0
 10  9  1  0
 10 11  1  1
 11 12  1  0
 12 17  2  0
 13 12  1  0
 13 14  2  0
 14 15  1  0
 15 16  2  0
 17 16  1  0
 18 25  1  0
 18 10  1  0
 19 18  2  0
 20 21  1  0
 21 22  2  0
 23 21  1  0
 24 23  1  6
 24 26  1  0
 24 25  1  0
 26 28  1  0
 27 26  2  0
M  END
$$$$
