MMS.pdb
     RDKit          3D

 23 22  0  0  1  0  0  0  0  0999 V2000
    8.5408  -11.4481   20.0108 C   0  0  0  0  0  0  0  0  0  0  0  0
    7.9040  -12.4769   18.6532 S   0  0  0  0  0  0  0  0  0  0  0  0
    8.2360  -14.2199   19.0150 C   0  0  0  0  0  0  0  0  0  0  0  0
    7.8011  -14.6045   20.4096 C   0  0  0  0  0  0  0  0  0  0  0  0
    8.5885  -15.7362   20.9837 C   0  0  2  0  0  0  0  0  0  0  0  0
    7.8287  -16.9534   21.0611 N   0  0  0  0  0  0  0  0  0  0  0  0
    9.0291  -15.3403   22.3462 C   0  0  0  0  0  0  0  0  0  0  0  0
   10.1450  -14.7566   22.5004 O   0  0  0  0  0  0  0  0  0  0  0  0
    6.3367  -11.6875   26.6029 C   0  0  0  0  0  0  0  0  0  0  0  0
    7.0819  -12.8588   27.7572 S   0  0  0  0  0  0  0  0  0  0  0  0
    8.1242  -14.0337   26.8675 C   0  0  0  0  0  0  0  0  0  0  0  0
    7.5518  -14.3620   25.4829 C   0  0  0  0  0  0  0  0  0  0  0  0
    8.5856  -15.2390   24.8068 C   0  0  2  0  0  0  0  0  0  0  0  0
    8.2069  -15.6124   23.4781 N   0  0  0  0  0  0  0  0  0  0  0  0
    8.9384  -16.4143   25.6532 C   0  0  0  0  0  0  0  0  0  0  0  0
    8.0184  -17.1750   26.0269 O   0  0  0  0  0  0  0  0  0  0  0  0
   12.9786  -17.5150   26.3634 O   0  0  0  0  0  0  0  0  0  0  0  0
   11.9414  -18.4364   26.2269 C   0  0  0  0  0  0  0  0  0  0  0  0
   10.6492  -17.8691   26.8060 C   0  0  2  0  0  0  0  0  0  0  0  0
   10.2598  -16.7062   26.0498 N   0  0  0  0  0  0  0  0  0  0  0  0
   10.7874  -17.5971   28.2463 C   0  0  0  0  0  0  0  0  0  0  0  0
   11.0663  -18.5968   29.1678 O   0  0  0  0  0  0  0  0  0  0  0  0
   10.6535  -16.4269   28.6898 O   0  0  0  0  0  0  0  0  0  0  0  0
  1  2  1  0
  2  3  1  0
  4  5  1  0
  4  3  1  0
  5  7  1  0
  5  6  1  1
  7  8  2  0
  9 10  1  0
 10 11  1  0
 11 12  1  0
 13 12  1  1
 13 15  1  0
 14  7  1  0
 14 13  1  0
 15 20  1  0
 16 15  2  0
 18 17  1  0
 19 18  1  6
 20 19  1  0
 21 19  1  0
 22 21  1  0
 23 21  2  0
M  END
$$$$
