MMS.pdb
     RDKit          3D

 23 22  0  0  1  0  0  0  0  0999 V2000
   10.9694  -14.5774   28.0021 C   0  0  0  0  0  0  0  0  0  0  0  0
   11.6901  -16.0942   28.6998 S   0  0  0  0  0  0  0  0  0  0  0  0
   10.4997  -17.4500   28.5449 C   0  0  0  0  0  0  0  0  0  0  0  0
    9.8562  -17.4891   27.1788 C   0  0  0  0  0  0  0  0  0  0  0  0
    8.4037  -17.8343   27.2188 C   0  0  2  0  0  0  0  0  0  0  0  0
    8.1755  -19.2505   27.3022 N   0  0  0  0  0  0  0  0  0  0  0  0
    7.7747  -17.3036   25.9817 C   0  0  0  0  0  0  0  0  0  0  0  0
    7.3339  -18.1092   25.1062 O   0  0  0  0  0  0  0  0  0  0  0  0
    5.4705  -11.6103   26.4799 C   0  0  0  0  0  0  0  0  0  0  0  0
    7.1167  -11.4616   25.7538 S   0  0  0  0  0  0  0  0  0  0  0  0
    7.7588  -13.0931   25.3245 C   0  0  0  0  0  0  0  0  0  0  0  0
    6.6950  -13.9558   24.6340 C   0  0  0  0  0  0  0  0  0  0  0  0
    7.3033  -15.3374   24.5075 C   0  0  2  0  0  0  0  0  0  0  0  0
    7.6646  -15.8980   25.7738 N   0  0  0  0  0  0  0  0  0  0  0  0
    8.4322  -15.3472   23.5341 C   0  0  0  0  0  0  0  0  0  0  0  0
    8.1954  -15.0336   22.3464 O   0  0  0  0  0  0  0  0  0  0  0  0
   12.2997  -16.0222   24.8871 O   0  0  0  0  0  0  0  0  0  0  0  0
   12.1229  -15.2337   23.7512 C   0  0  0  0  0  0  0  0  0  0  0  0
   10.8756  -15.6726   22.9905 C   0  0  2  0  0  0  0  0  0  0  0  0
    9.7517  -15.6926   23.8917 N   0  0  0  0  0  0  0  0  0  0  0  0
   11.0924  -16.9627   22.3149 C   0  0  0  0  0  0  0  0  0  0  0  0
   12.0871  -17.1457   21.3644 O   0  0  0  0  0  0  0  0  0  0  0  0
   10.3667  -17.9544   22.5865 O   0  0  0  0  0  0  0  0  0  0  0  0
  1  2  1  0
  2  3  1  0
  4  5  1  0
  4  3  1  0
  5  7  1  0
  5  6  1  6
  7  8  2  0
  9 10  1  0
 10 11  1  0
 11 12  1  0
 13 12  1  1
 13 15  1  0
 14  7  1  0
 14 13  1  0
 15 20  1  0
 16 15  2  0
 18 17  1  0
 19 18  1  1
 20 19  1  0
 21 19  1  0
 22 21  1  0
 23 21  2  0
M  END
$$$$
