MMS.pdb
     RDKit          3D

 23 22  0  0  1  0  0  0  0  0999 V2000
    7.6194  -20.2637   20.6033 C   0  0  0  0  0  0  0  0  0  0  0  0
    6.7740  -19.3608   19.2703 S   0  0  0  0  0  0  0  0  0  0  0  0
    7.4204  -17.6712   19.1869 C   0  0  0  0  0  0  0  0  0  0  0  0
    7.9348  -17.1920   20.5239 C   0  0  0  0  0  0  0  0  0  0  0  0
    8.5332  -15.8247   20.4719 C   0  0  2  0  0  0  0  0  0  0  0  0
    9.6719  -15.7538   19.5982 N   0  0  0  0  0  0  0  0  0  0  0  0
    8.9436  -15.4538   21.8508 C   0  0  0  0  0  0  0  0  0  0  0  0
   10.0979  -15.7731   22.2696 O   0  0  0  0  0  0  0  0  0  0  0  0
    5.2295  -12.0989   26.5676 C   0  0  0  0  0  0  0  0  0  0  0  0
    6.9844  -11.9252   26.9542 S   0  0  0  0  0  0  0  0  0  0  0  0
    7.9389  -13.2022   26.1078 C   0  0  0  0  0  0  0  0  0  0  0  0
    7.4099  -13.4580   24.6910 C   0  0  0  0  0  0  0  0  0  0  0  0
    8.3548  -14.4690   24.0745 C   0  0  2  0  0  0  0  0  0  0  0  0
    8.0495  -14.7434   22.7034 N   0  0  0  0  0  0  0  0  0  0  0  0
    8.4407  -15.7068   24.9007 C   0  0  0  0  0  0  0  0  0  0  0  0
    7.4217  -16.4251   25.0026 O   0  0  0  0  0  0  0  0  0  0  0  0
   11.9358  -17.7173   25.2785 O   0  0  0  0  0  0  0  0  0  0  0  0
   10.6689  -18.2774   25.4353 C   0  0  0  0  0  0  0  0  0  0  0  0
    9.7808  -17.3549   26.2644 C   0  0  2  0  0  0  0  0  0  0  0  0
    9.6167  -16.1031   25.5703 N   0  0  0  0  0  0  0  0  0  0  0  0
   10.3127  -17.1899   27.6273 C   0  0  0  0  0  0  0  0  0  0  0  0
   10.5699  -15.9423   28.1785 O   0  0  0  0  0  0  0  0  0  0  0  0
   10.5537  -18.1962   28.3438 O   0  0  0  0  0  0  0  0  0  0  0  0
  1  2  1  0
  2  3  1  0
  4  5  1  0
  4  3  1  0
  5  7  1  0
  5  6  1  6
  7  8  2  0
  9 10  1  0
 10 11  1  0
 11 12  1  0
 13 12  1  1
 13 15  1  0
 14  7  1  0
 14 13  1  0
 15 20  1  0
 16 15  2  0
 18 17  1  0
 19 18  1  6
 20 19  1  0
 21 19  1  0
 22 21  1  0
 23 21  2  0
M  END
$$$$
