MMS.pdb
     RDKit          3D

 23 22  0  0  1  0  0  0  0  0999 V2000
    8.8748  -11.9490   19.2135 C   0  0  0  0  0  0  0  0  0  0  0  0
    7.4186  -12.3272   20.2350 S   0  0  0  0  0  0  0  0  0  0  0  0
    7.1674  -14.1200   20.2807 C   0  0  0  0  0  0  0  0  0  0  0  0
    8.4574  -14.8806   20.0829 C   0  0  0  0  0  0  0  0  0  0  0  0
    8.5918  -16.0623   20.9862 C   0  0  2  0  0  0  0  0  0  0  0  0
    7.3260  -16.6700   21.2915 N   0  0  0  0  0  0  0  0  0  0  0  0
    9.2369  -15.6041   22.2437 C   0  0  0  0  0  0  0  0  0  0  0  0
   10.4278  -15.1673   22.2154 O   0  0  0  0  0  0  0  0  0  0  0  0
    5.9871  -11.5901   25.9073 C   0  0  0  0  0  0  0  0  0  0  0  0
    6.7391  -12.8965   26.9009 S   0  0  0  0  0  0  0  0  0  0  0  0
    7.2805  -14.2533   25.8406 C   0  0  0  0  0  0  0  0  0  0  0  0
    8.6946  -14.0158   25.2960 C   0  0  0  0  0  0  0  0  0  0  0  0
    9.1476  -15.3464   24.7311 C   0  0  2  0  0  0  0  0  0  0  0  0
    8.5269  -15.6529   23.4784 N   0  0  0  0  0  0  0  0  0  0  0  0
    8.9926  -16.4420   25.7300 C   0  0  0  0  0  0  0  0  0  0  0  0
    7.8397  -16.8556   25.9842 O   0  0  0  0  0  0  0  0  0  0  0  0
   11.0194  -19.3830   25.0982 O   0  0  0  0  0  0  0  0  0  0  0  0
    9.9165  -19.4030   25.9506 C   0  0  0  0  0  0  0  0  0  0  0  0
   10.0576  -18.3291   27.0247 C   0  0  2  0  0  0  0  0  0  0  0  0
   10.0850  -17.0317   26.3989 N   0  0  0  0  0  0  0  0  0  0  0  0
   11.2324  -18.5806   27.8757 C   0  0  0  0  0  0  0  0  0  0  0  0
   12.2555  -17.6542   28.0225 O   0  0  0  0  0  0  0  0  0  0  0  0
   11.3430  -19.6644   28.5057 O   0  0  0  0  0  0  0  0  0  0  0  0
  1  2  1  0
  2  3  1  0
  4  5  1  0
  4  3  1  0
  5  7  1  0
  5  6  1  1
  7  8  2  0
  9 10  1  0
 10 11  1  0
 11 12  1  0
 13 12  1  1
 13 15  1  0
 14  7  1  0
 14 13  1  0
 15 20  1  0
 16 15  2  0
 18 17  1  0
 19 18  1  6
 20 19  1  0
 21 19  1  0
 22 21  1  0
 23 21  2  0
M  END
$$$$
