MMS.pdb
     RDKit          3D

 23 22  0  0  1  0  0  0  0  0999 V2000
   10.9032  -13.5640   27.8796 C   0  0  0  0  0  0  0  0  0  0  0  0
    9.6703  -14.2090   29.0506 S   0  0  0  0  0  0  0  0  0  0  0  0
    9.1922  -15.8841   28.5558 C   0  0  0  0  0  0  0  0  0  0  0  0
    9.1191  -16.0350   27.0546 C   0  0  0  0  0  0  0  0  0  0  0  0
    7.9783  -16.8852   26.6004 C   0  0  2  0  0  0  0  0  0  0  0  0
    8.0373  -18.2182   27.1337 N   0  0  0  0  0  0  0  0  0  0  0  0
    8.0158  -16.9437   25.1163 C   0  0  0  0  0  0  0  0  0  0  0  0
    8.1848  -18.0593   24.5360 O   0  0  0  0  0  0  0  0  0  0  0  0
    7.8751  -11.7087   20.3451 C   0  0  0  0  0  0  0  0  0  0  0  0
    7.0605  -13.2433   19.8545 S   0  0  0  0  0  0  0  0  0  0  0  0
    7.7435  -14.6352   20.7788 C   0  0  0  0  0  0  0  0  0  0  0  0
    7.5832  -14.4424   22.2920 C   0  0  0  0  0  0  0  0  0  0  0  0
    8.0504  -15.7374   22.9243 C   0  0  2  0  0  0  0  0  0  0  0  0
    7.8637  -15.7562   24.3431 N   0  0  0  0  0  0  0  0  0  0  0  0
    9.4498  -16.0623   22.5266 C   0  0  0  0  0  0  0  0  0  0  0  0
   10.3726  -15.3311   22.9490 O   0  0  0  0  0  0  0  0  0  0  0  0
   10.2303  -19.6139   20.6027 O   0  0  0  0  0  0  0  0  0  0  0  0
   11.2799  -19.0081   21.2916 C   0  0  0  0  0  0  0  0  0  0  0  0
   11.1158  -17.4915   21.2801 C   0  0  2  0  0  0  0  0  0  0  0  0
    9.7787  -17.1550   21.6981 N   0  0  0  0  0  0  0  0  0  0  0  0
   11.4642  -16.9299   19.9645 C   0  0  0  0  0  0  0  0  0  0  0  0
   12.7204  -17.0913   19.3967 O   0  0  0  0  0  0  0  0  0  0  0  0
   10.6151  -16.2749   19.3059 O   0  0  0  0  0  0  0  0  0  0  0  0
  1  2  1  0
  2  3  1  0
  4  5  1  0
  4  3  1  0
  5  7  1  0
  5  6  1  1
  7  8  2  0
  9 10  1  0
 10 11  1  0
 11 12  1  0
 13 12  1  1
 13 15  1  0
 14  7  1  0
 14 13  1  0
 15 20  1  0
 16 15  2  0
 18 17  1  0
 19 18  1  6
 20 19  1  0
 21 19  1  0
 22 21  1  0
 23 21  2  0
M  END
$$$$
