MMS.pdb
     RDKit          3D

 23 22  0  0  1  0  0  0  0  0999 V2000
    9.0972  -12.1867   20.3827 C   0  0  0  0  0  0  0  0  0  0  0  0
    7.8750  -12.6856   19.1320 S   0  0  0  0  0  0  0  0  0  0  0  0
    7.3739  -14.3995   19.4333 C   0  0  0  0  0  0  0  0  0  0  0  0
    8.5415  -15.3551   19.3596 C   0  0  0  0  0  0  0  0  0  0  0  0
    8.4877  -16.4353   20.3895 C   0  0  2  0  0  0  0  0  0  0  0  0
    7.1919  -17.0504   20.4765 N   0  0  0  0  0  0  0  0  0  0  0  0
    8.8385  -15.8325   21.7014 C   0  0  0  0  0  0  0  0  0  0  0  0
   10.0415  -15.5097   21.9425 O   0  0  0  0  0  0  0  0  0  0  0  0
    7.2221  -11.7509   28.0558 C   0  0  0  0  0  0  0  0  0  0  0  0
    6.4194  -12.6054   26.6828 S   0  0  0  0  0  0  0  0  0  0  0  0
    7.5545  -13.7961   25.9400 C   0  0  0  0  0  0  0  0  0  0  0  0
    7.0066  -14.3522   24.6197 C   0  0  0  0  0  0  0  0  0  0  0  0
    8.1409  -15.1455   24.0042 C   0  0  2  0  0  0  0  0  0  0  0  0
    7.8331  -15.6160   22.6881 N   0  0  0  0  0  0  0  0  0  0  0  0
    8.5948  -16.2379   24.9112 C   0  0  0  0  0  0  0  0  0  0  0  0
    7.7558  -17.0871   25.2849 O   0  0  0  0  0  0  0  0  0  0  0  0
   12.6636  -17.1749   25.2819 O   0  0  0  0  0  0  0  0  0  0  0  0
   11.6140  -18.0884   25.3662 C   0  0  0  0  0  0  0  0  0  0  0  0
   10.4362  -17.4744   26.1164 C   0  0  2  0  0  0  0  0  0  0  0  0
    9.9247  -16.3566   25.3648 N   0  0  0  0  0  0  0  0  0  0  0  0
   10.8129  -17.1156   27.4936 C   0  0  0  0  0  0  0  0  0  0  0  0
   11.2912  -18.0510   28.4007 O   0  0  0  0  0  0  0  0  0  0  0  0
   10.7091  -15.9270   27.8939 O   0  0  0  0  0  0  0  0  0  0  0  0
  1  2  1  0
  2  3  1  0
  4  5  1  0
  4  3  1  0
  5  7  1  0
  5  6  1  1
  7  8  2  0
  9 10  1  0
 10 11  1  0
 11 12  1  0
 13 12  1  1
 13 15  1  0
 14  7  1  0
 14 13  1  0
 15 20  1  0
 16 15  2  0
 18 17  1  0
 19 18  1  6
 20 19  1  0
 21 19  1  0
 22 21  1  0
 23 21  2  0
M  END
$$$$
