MMS.pdb
     RDKit          3D

 23 22  0  0  1  0  0  0  0  0999 V2000
    5.0741  -21.5495   21.5100 C   0  0  0  0  0  0  0  0  0  0  0  0
    5.8633  -20.7344   22.9311 S   0  0  0  0  0  0  0  0  0  0  0  0
    5.8984  -18.9454   22.6527 C   0  0  0  0  0  0  0  0  0  0  0  0
    6.4185  -18.5933   21.2789 C   0  0  0  0  0  0  0  0  0  0  0  0
    6.4724  -17.1224   21.0258 C   0  0  2  0  0  0  0  0  0  0  0  0
    7.0563  -16.8028   19.7524 N   0  0  0  0  0  0  0  0  0  0  0  0
    7.2782  -16.5026   22.1093 C   0  0  0  0  0  0  0  0  0  0  0  0
    8.5443  -16.4985   22.0264 O   0  0  0  0  0  0  0  0  0  0  0  0
    7.8029  -11.6070   28.2185 C   0  0  0  0  0  0  0  0  0  0  0  0
    6.6570  -12.3294   27.0249 S   0  0  0  0  0  0  0  0  0  0  0  0
    7.4940  -13.5898   26.0406 C   0  0  0  0  0  0  0  0  0  0  0  0
    6.5631  -14.1890   24.9790 C   0  0  0  0  0  0  0  0  0  0  0  0
    7.3712  -15.2639   24.2815 C   0  0  2  0  0  0  0  0  0  0  0  0
    6.6380  -15.9144   23.2387 N   0  0  0  0  0  0  0  0  0  0  0  0
    7.9526  -16.2271   25.2594 C   0  0  0  0  0  0  0  0  0  0  0  0
    7.1835  -16.7851   26.0729 O   0  0  0  0  0  0  0  0  0  0  0  0
   12.0673  -17.1632   25.1817 O   0  0  0  0  0  0  0  0  0  0  0  0
   11.1226  -18.1526   25.4498 C   0  0  0  0  0  0  0  0  0  0  0  0
    9.9089  -17.5503   26.1506 C   0  0  2  0  0  0  0  0  0  0  0  0
    9.3275  -16.5370   25.3074 N   0  0  0  0  0  0  0  0  0  0  0  0
   10.2632  -17.0491   27.4889 C   0  0  0  0  0  0  0  0  0  0  0  0
   10.7914  -17.8715   28.4744 O   0  0  0  0  0  0  0  0  0  0  0  0
   10.0931  -15.8369   27.7813 O   0  0  0  0  0  0  0  0  0  0  0  0
  1  2  1  0
  2  3  1  0
  4  5  1  0
  4  3  1  0
  5  7  1  0
  5  6  1  6
  7  8  2  0
  9 10  1  0
 10 11  1  0
 11 12  1  0
 13 12  1  1
 13 15  1  0
 14  7  1  0
 14 13  1  0
 15 20  1  0
 16 15  2  0
 18 17  1  0
 19 18  1  6
 20 19  1  0
 21 19  1  0
 22 21  1  0
 23 21  2  0
M  END
$$$$
