MMS.pdb
     RDKit          3D

 23 22  0  0  1  0  0  0  0  0999 V2000
    7.8370  -12.0920   26.5076 C   0  0  0  0  0  0  0  0  0  0  0  0
    6.5374  -13.3640   26.5268 S   0  0  0  0  0  0  0  0  0  0  0  0
    7.0816  -14.7620   27.5411 C   0  0  0  0  0  0  0  0  0  0  0  0
    7.6904  -15.8659   26.7089 C   0  0  0  0  0  0  0  0  0  0  0  0
    6.7316  -16.4713   25.7370 C   0  0  2  0  0  0  0  0  0  0  0  0
    6.2850  -17.7755   26.1424 N   0  0  0  0  0  0  0  0  0  0  0  0
    7.4163  -16.5693   24.4220 C   0  0  0  0  0  0  0  0  0  0  0  0
    7.9398  -17.6691   24.0671 O   0  0  0  0  0  0  0  0  0  0  0  0
    7.3126  -11.6372   20.0869 C   0  0  0  0  0  0  0  0  0  0  0  0
    7.5107  -13.1054   19.0550 S   0  0  0  0  0  0  0  0  0  0  0  0
    7.8240  -14.5542   20.0851 C   0  0  0  0  0  0  0  0  0  0  0  0
    8.0750  -14.1649   21.5473 C   0  0  0  0  0  0  0  0  0  0  0  0
    8.1826  -15.4701   22.3087 C   0  0  2  0  0  0  0  0  0  0  0  0
    7.4881  -15.4369   23.5596 N   0  0  0  0  0  0  0  0  0  0  0  0
    9.6029  -15.8992   22.4536 C   0  0  0  0  0  0  0  0  0  0  0  0
   10.2930  -15.3747   23.3555 O   0  0  0  0  0  0  0  0  0  0  0  0
   12.8699  -19.3277   21.9532 O   0  0  0  0  0  0  0  0  0  0  0  0
   11.5619  -18.8478   21.9067 C   0  0  0  0  0  0  0  0  0  0  0  0
   11.5597  -17.3304   21.7503 C   0  0  2  0  0  0  0  0  0  0  0  0
   10.2012  -16.8679   21.6217 N   0  0  0  0  0  0  0  0  0  0  0  0
   12.4171  -16.9110   20.6293 C   0  0  0  0  0  0  0  0  0  0  0  0
   13.8014  -16.9990   20.6795 O   0  0  0  0  0  0  0  0  0  0  0  0
   11.9077  -16.4519   19.5741 O   0  0  0  0  0  0  0  0  0  0  0  0
  1  2  1  0
  2  3  1  0
  4  5  1  0
  4  3  1  0
  5  7  1  0
  5  6  1  1
  7  8  2  0
  9 10  1  0
 10 11  1  0
 11 12  1  0
 13 12  1  1
 13 15  1  0
 14  7  1  0
 14 13  1  0
 15 20  1  0
 16 15  2  0
 18 17  1  0
 19 18  1  6
 20 19  1  0
 21 19  1  0
 22 21  1  0
 23 21  2  0
M  END
$$$$
