MMS.pdb
     RDKit          3D

 23 22  0  0  1  0  0  0  0  0999 V2000
   11.0413  -15.5740   28.2159 C   0  0  0  0  0  0  0  0  0  0  0  0
    9.8760  -16.4021   29.3398 S   0  0  0  0  0  0  0  0  0  0  0  0
    9.8735  -18.1803   28.9974 C   0  0  0  0  0  0  0  0  0  0  0  0
    9.5878  -18.4797   27.5446 C   0  0  0  0  0  0  0  0  0  0  0  0
    8.1441  -18.7437   27.2680 C   0  0  2  0  0  0  0  0  0  0  0  0
    7.8960  -20.1065   26.8855 N   0  0  0  0  0  0  0  0  0  0  0  0
    7.7165  -17.8364   26.1719 C   0  0  0  0  0  0  0  0  0  0  0  0
    7.6900  -18.2635   24.9775 O   0  0  0  0  0  0  0  0  0  0  0  0
    6.3808  -10.4293   23.8058 C   0  0  0  0  0  0  0  0  0  0  0  0
    6.2594  -11.5454   25.2198 S   0  0  0  0  0  0  0  0  0  0  0  0
    6.9510  -13.1593   24.8017 C   0  0  0  0  0  0  0  0  0  0  0  0
    6.8889  -14.1265   25.9906 C   0  0  0  0  0  0  0  0  0  0  0  0
    7.3180  -15.4744   25.4483 C   0  0  2  0  0  0  0  0  0  0  0  0
    7.3372  -16.4920   26.4546 N   0  0  0  0  0  0  0  0  0  0  0  0
    8.6082  -15.3766   24.7082 C   0  0  0  0  0  0  0  0  0  0  0  0
    9.6016  -14.9059   25.3053 O   0  0  0  0  0  0  0  0  0  0  0  0
    9.6551  -17.9817   21.9289 O   0  0  0  0  0  0  0  0  0  0  0  0
   10.5864  -17.1066   22.4858 C   0  0  0  0  0  0  0  0  0  0  0  0
    9.9870  -15.7103   22.6203 C   0  0  2  0  0  0  0  0  0  0  0  0
    8.7584  -15.7906   23.3686 N   0  0  0  0  0  0  0  0  0  0  0  0
    9.8156  -15.0770   21.3023 C   0  0  0  0  0  0  0  0  0  0  0  0
    8.5760  -14.6689   20.8296 O   0  0  0  0  0  0  0  0  0  0  0  0
   10.8086  -14.8849   20.5533 O   0  0  0  0  0  0  0  0  0  0  0  0
  1  2  1  0
  2  3  1  0
  4  5  1  0
  4  3  1  0
  5  7  1  0
  5  6  1  6
  7  8  2  0
  9 10  1  0
 10 11  1  0
 11 12  1  0
 13 12  1  1
 13 15  1  0
 14  7  1  0
 14 13  1  0
 15 20  1  0
 16 15  2  0
 18 17  1  0
 19 18  1  6
 20 19  1  0
 21 19  1  0
 22 21  1  0
 23 21  2  0
M  END
$$$$
