MMS.pdb
     RDKit          3D

 23 22  0  0  1  0  0  0  0  0999 V2000
    6.7197  -11.6008   27.3416 C   0  0  0  0  0  0  0  0  0  0  0  0
    7.5441  -12.9307   28.2682 S   0  0  0  0  0  0  0  0  0  0  0  0
    6.9178  -14.5330   27.7027 C   0  0  0  0  0  0  0  0  0  0  0  0
    7.3828  -14.8644   26.3042 C   0  0  0  0  0  0  0  0  0  0  0  0
    6.8456  -16.1610   25.7939 C   0  0  2  0  0  0  0  0  0  0  0  0
    7.3032  -17.2874   26.5599 N   0  0  0  0  0  0  0  0  0  0  0  0
    7.2833  -16.3120   24.3821 C   0  0  0  0  0  0  0  0  0  0  0  0
    7.8393  -17.3896   24.0090 O   0  0  0  0  0  0  0  0  0  0  0  0
    8.4665  -13.0283   17.3090 C   0  0  0  0  0  0  0  0  0  0  0  0
    7.7321  -12.7515   18.9349 S   0  0  0  0  0  0  0  0  0  0  0  0
    8.1039  -14.1365   20.0311 C   0  0  0  0  0  0  0  0  0  0  0  0
    7.5008  -13.9312   21.4264 C   0  0  0  0  0  0  0  0  0  0  0  0
    7.7201  -15.2349   22.1662 C   0  0  2  0  0  0  0  0  0  0  0  0
    7.0827  -15.2550   23.4474 N   0  0  0  0  0  0  0  0  0  0  0  0
    9.1684  -15.5799   22.2417 C   0  0  0  0  0  0  0  0  0  0  0  0
    9.9000  -14.9092   23.0031 O   0  0  0  0  0  0  0  0  0  0  0  0
   10.4930  -19.1053   20.6467 O   0  0  0  0  0  0  0  0  0  0  0  0
   11.2911  -18.4867   21.6078 C   0  0  0  0  0  0  0  0  0  0  0  0
   11.1474  -16.9705   21.5196 C   0  0  2  0  0  0  0  0  0  0  0  0
    9.7485  -16.6263   21.4956 N   0  0  0  0  0  0  0  0  0  0  0  0
   11.8904  -16.4330   20.3678 C   0  0  0  0  0  0  0  0  0  0  0  0
   13.2662  -16.5678   20.2427 O   0  0  0  0  0  0  0  0  0  0  0  0
   11.2859  -15.8242   19.4471 O   0  0  0  0  0  0  0  0  0  0  0  0
  1  2  1  0
  2  3  1  0
  4  5  1  0
  4  3  1  0
  5  7  1  0
  5  6  1  1
  7  8  2  0
  9 10  1  0
 10 11  1  0
 11 12  1  0
 13 12  1  1
 13 15  1  0
 14  7  1  0
 14 13  1  0
 15 20  1  0
 16 15  2  0
 18 17  1  0
 19 18  1  6
 20 19  1  0
 21 19  1  0
 22 21  1  0
 23 21  2  0
M  END
$$$$
