MMS.pdb
     RDKit          3D

 23 22  0  0  1  0  0  0  0  0999 V2000
    6.5058  -12.3312   19.3889 C   0  0  0  0  0  0  0  0  0  0  0  0
    8.3220  -12.3068   19.3012 S   0  0  0  0  0  0  0  0  0  0  0  0
    8.9601  -13.9714   19.6195 C   0  0  0  0  0  0  0  0  0  0  0  0
    7.8512  -14.9765   19.8243 C   0  0  0  0  0  0  0  0  0  0  0  0
    8.2632  -16.1522   20.6479 C   0  0  2  0  0  0  0  0  0  0  0  0
    7.2269  -17.1422   20.7532 N   0  0  0  0  0  0  0  0  0  0  0  0
    8.6152  -15.6581   22.0041 C   0  0  0  0  0  0  0  0  0  0  0  0
    9.7581  -15.1466   22.2089 O   0  0  0  0  0  0  0  0  0  0  0  0
    6.4635  -11.6762   26.2656 C   0  0  0  0  0  0  0  0  0  0  0  0
    7.9045  -12.7282   26.5420 S   0  0  0  0  0  0  0  0  0  0  0  0
    7.4128  -14.4648   26.5700 C   0  0  0  0  0  0  0  0  0  0  0  0
    6.8420  -14.9129   25.2187 C   0  0  0  0  0  0  0  0  0  0  0  0
    8.0226  -15.4334   24.4248 C   0  0  2  0  0  0  0  0  0  0  0  0
    7.6784  -15.7560   23.0736 N   0  0  0  0  0  0  0  0  0  0  0  0
    8.6961  -16.5615   25.1290 C   0  0  0  0  0  0  0  0  0  0  0  0
    8.0473  -17.6134   25.3223 O   0  0  0  0  0  0  0  0  0  0  0  0
   12.8799  -16.7593   25.5513 O   0  0  0  0  0  0  0  0  0  0  0  0
   12.0251  -17.8570   25.4642 C   0  0  0  0  0  0  0  0  0  0  0  0
   10.7301  -17.5815   26.2219 C   0  0  2  0  0  0  0  0  0  0  0  0
   10.0288  -16.4958   25.5852 N   0  0  0  0  0  0  0  0  0  0  0  0
   10.9924  -17.3363   27.6497 C   0  0  0  0  0  0  0  0  0  0  0  0
   11.6859  -18.2393   28.4435 O   0  0  0  0  0  0  0  0  0  0  0  0
   10.5863  -16.2800   28.2002 O   0  0  0  0  0  0  0  0  0  0  0  0
  1  2  1  0
  2  3  1  0
  4  5  1  0
  4  3  1  0
  5  7  1  0
  5  6  1  1
  7  8  2  0
  9 10  1  0
 10 11  1  0
 11 12  1  0
 13 12  1  1
 13 15  1  0
 14  7  1  0
 14 13  1  0
 15 20  1  0
 16 15  2  0
 18 17  1  0
 19 18  1  6
 20 19  1  0
 21 19  1  0
 22 21  1  0
 23 21  2  0
M  END
$$$$
