MMS.pdb
     RDKit          3D

 23 22  0  0  1  0  0  0  0  0999 V2000
    7.0681  -20.9016   28.6327 C   0  0  0  0  0  0  0  0  0  0  0  0
    7.6169  -21.9467   27.2495 S   0  0  0  0  0  0  0  0  0  0  0  0
    6.9844  -21.2655   25.6954 C   0  0  0  0  0  0  0  0  0  0  0  0
    6.3735  -19.8964   25.8811 C   0  0  0  0  0  0  0  0  0  0  0  0
    5.8138  -19.3226   24.6210 C   0  0  2  0  0  0  0  0  0  0  0  0
    5.8302  -20.2608   23.5327 N   0  0  0  0  0  0  0  0  0  0  0  0
    6.6275  -18.1327   24.2610 C   0  0  0  0  0  0  0  0  0  0  0  0
    7.4549  -18.2048   23.3018 O   0  0  0  0  0  0  0  0  0  0  0  0
    6.0183  -12.0715   26.9985 C   0  0  0  0  0  0  0  0  0  0  0  0
    7.5706  -11.9343   26.0868 S   0  0  0  0  0  0  0  0  0  0  0  0
    7.8889  -13.4532   25.1650 C   0  0  0  0  0  0  0  0  0  0  0  0
    6.9186  -14.5716   25.5654 C   0  0  0  0  0  0  0  0  0  0  0  0
    7.3419  -15.7891   24.7694 C   0  0  2  0  0  0  0  0  0  0  0  0
    6.4842  -16.9141   24.9860 N   0  0  0  0  0  0  0  0  0  0  0  0
    8.7793  -16.1132   24.9954 C   0  0  0  0  0  0  0  0  0  0  0  0
    9.1527  -16.3786   26.1594 O   0  0  0  0  0  0  0  0  0  0  0  0
   11.7632  -15.6735   22.0147 O   0  0  0  0  0  0  0  0  0  0  0  0
   11.6548  -16.8862   22.6936 C   0  0  0  0  0  0  0  0  0  0  0  0
   11.0679  -16.6643   24.0840 C   0  0  2  0  0  0  0  0  0  0  0  0
    9.7340  -16.1345   23.9578 N   0  0  0  0  0  0  0  0  0  0  0  0
   11.9481  -15.8139   24.9023 C   0  0  0  0  0  0  0  0  0  0  0  0
   13.2772  -16.1340   25.1421 O   0  0  0  0  0  0  0  0  0  0  0  0
   11.5102  -14.7522   25.4170 O   0  0  0  0  0  0  0  0  0  0  0  0
  1  2  1  0
  2  3  1  0
  4  5  1  0
  4  3  1  0
  5  7  1  0
  5  6  1  6
  7  8  2  0
  9 10  1  0
 10 11  1  0
 11 12  1  0
 13 12  1  1
 13 15  1  0
 14  7  1  0
 14 13  1  0
 15 20  1  0
 16 15  2  0
 18 17  1  0
 19 18  1  6
 20 19  1  0
 21 19  1  0
 22 21  1  0
 23 21  2  0
M  END
$$$$
