MMS.pdb
     RDKit          3D

 23 22  0  0  1  0  0  0  0  0999 V2000
    8.7471  -20.9528   20.9543 C   0  0  0  0  0  0  0  0  0  0  0  0
    7.4564  -19.7242   20.5914 S   0  0  0  0  0  0  0  0  0  0  0  0
    8.1742  -18.0630   20.6574 C   0  0  0  0  0  0  0  0  0  0  0  0
    7.1286  -16.9845   20.4984 C   0  0  0  0  0  0  0  0  0  0  0  0
    7.7053  -15.6096   20.4118 C   0  0  2  0  0  0  0  0  0  0  0  0
    8.6566  -15.4768   19.3430 N   0  0  0  0  0  0  0  0  0  0  0  0
    8.3708  -15.3118   21.7064 C   0  0  0  0  0  0  0  0  0  0  0  0
    9.6258  -15.4615   21.8163 O   0  0  0  0  0  0  0  0  0  0  0  0
    5.5907  -11.8633   26.6497 C   0  0  0  0  0  0  0  0  0  0  0  0
    7.1598  -12.3730   27.3829 S   0  0  0  0  0  0  0  0  0  0  0  0
    8.1269  -13.3214   26.1897 C   0  0  0  0  0  0  0  0  0  0  0  0
    7.2909  -13.7066   24.9627 C   0  0  0  0  0  0  0  0  0  0  0  0
    8.2128  -14.5153   24.0733 C   0  0  2  0  0  0  0  0  0  0  0  0
    7.6084  -14.8604   22.8227 N   0  0  0  0  0  0  0  0  0  0  0  0
    8.7585  -15.7017   24.7921 C   0  0  0  0  0  0  0  0  0  0  0  0
    7.9950  -16.6688   25.0080 O   0  0  0  0  0  0  0  0  0  0  0  0
   12.7747  -18.0994   26.0929 O   0  0  0  0  0  0  0  0  0  0  0  0
   12.1680  -17.0038   25.4807 C   0  0  0  0  0  0  0  0  0  0  0  0
   10.6865  -16.9493   25.8402 C   0  0  2  0  0  0  0  0  0  0  0  0
   10.0940  -15.7823   25.2378 N   0  0  0  0  0  0  0  0  0  0  0  0
   10.4917  -17.0038   27.2985 C   0  0  0  0  0  0  0  0  0  0  0  0
   10.7315  -18.1539   28.0377 O   0  0  0  0  0  0  0  0  0  0  0  0
   10.0943  -15.9885   27.9270 O   0  0  0  0  0  0  0  0  0  0  0  0
  1  2  1  0
  2  3  1  0
  4  5  1  0
  4  3  1  0
  5  7  1  0
  5  6  1  6
  7  8  2  0
  9 10  1  0
 10 11  1  0
 11 12  1  0
 13 12  1  1
 13 15  1  0
 14  7  1  0
 14 13  1  0
 15 20  1  0
 16 15  2  0
 18 17  1  0
 19 18  1  1
 20 19  1  0
 21 19  1  0
 22 21  1  0
 23 21  2  0
M  END
$$$$
