MMS.pdb
     RDKit          3D

 23 22  0  0  1  0  0  0  0  0999 V2000
    9.5848  -19.7817   20.8165 C   0  0  0  0  0  0  0  0  0  0  0  0
    9.0269  -19.6230   19.0930 S   0  0  0  0  0  0  0  0  0  0  0  0
    8.6782  -17.8828   18.7333 C   0  0  0  0  0  0  0  0  0  0  0  0
    9.1188  -16.9707   19.8539 C   0  0  0  0  0  0  0  0  0  0  0  0
    8.0308  -16.0768   20.3515 C   0  0  2  0  0  0  0  0  0  0  0  0
    7.6426  -15.0887   19.3830 N   0  0  0  0  0  0  0  0  0  0  0  0
    8.5225  -15.3999   21.5793 C   0  0  0  0  0  0  0  0  0  0  0  0
    9.7666  -15.2039   21.7328 O   0  0  0  0  0  0  0  0  0  0  0  0
    7.4546  -11.6457   28.3438 C   0  0  0  0  0  0  0  0  0  0  0  0
    6.6240  -12.1666   26.8278 S   0  0  0  0  0  0  0  0  0  0  0  0
    7.5858  -13.4496   25.9989 C   0  0  0  0  0  0  0  0  0  0  0  0
    6.9435  -13.8687   24.6706 C   0  0  0  0  0  0  0  0  0  0  0  0
    8.0332  -14.5751   23.8905 C   0  0  2  0  0  0  0  0  0  0  0  0
    7.6062  -14.9711   22.5831 N   0  0  0  0  0  0  0  0  0  0  0  0
    8.6138  -15.7054   24.6699 C   0  0  0  0  0  0  0  0  0  0  0  0
    7.9120  -16.7249   24.8508 O   0  0  0  0  0  0  0  0  0  0  0  0
   12.1602  -16.9991   24.1178 O   0  0  0  0  0  0  0  0  0  0  0  0
   12.0241  -16.8288   25.4946 C   0  0  0  0  0  0  0  0  0  0  0  0
   10.5488  -16.7845   25.8797 C   0  0  2  0  0  0  0  0  0  0  0  0
    9.9160  -15.6766   25.2104 N   0  0  0  0  0  0  0  0  0  0  0  0
   10.3828  -16.7421   27.3420 C   0  0  0  0  0  0  0  0  0  0  0  0
   10.8694  -17.7407   28.1742 O   0  0  0  0  0  0  0  0  0  0  0  0
    9.7830  -15.7798   27.8879 O   0  0  0  0  0  0  0  0  0  0  0  0
  1  2  1  0
  2  3  1  0
  4  5  1  0
  4  3  1  0
  5  7  1  0
  5  6  1  6
  7  8  2  0
  9 10  1  0
 10 11  1  0
 11 12  1  0
 13 12  1  1
 13 15  1  0
 14  7  1  0
 14 13  1  0
 15 20  1  0
 16 15  2  0
 18 17  1  0
 19 18  1  1
 20 19  1  0
 21 19  1  0
 22 21  1  0
 23 21  2  0
M  END
$$$$
