MMS.pdb
     RDKit          3D

 23 22  0  0  1  0  0  0  0  0999 V2000
    8.1163  -11.3978   19.4416 C   0  0  0  0  0  0  0  0  0  0  0  0
    7.4450  -12.6355   18.2908 S   0  0  0  0  0  0  0  0  0  0  0  0
    7.4815  -14.2667   19.0763 C   0  0  0  0  0  0  0  0  0  0  0  0
    8.2323  -14.2506   20.3869 C   0  0  0  0  0  0  0  0  0  0  0  0
    8.1901  -15.5572   21.1090 C   0  0  2  0  0  0  0  0  0  0  0  0
    6.8570  -16.0810   21.2240 N   0  0  0  0  0  0  0  0  0  0  0  0
    8.7580  -15.3470   22.4657 C   0  0  0  0  0  0  0  0  0  0  0  0
    9.9903  -15.0741   22.5952 O   0  0  0  0  0  0  0  0  0  0  0  0
    6.9833  -11.5975   27.5983 C   0  0  0  0  0  0  0  0  0  0  0  0
    6.0271  -12.2729   26.2239 S   0  0  0  0  0  0  0  0  0  0  0  0
    7.0793  -13.3010   25.1778 C   0  0  0  0  0  0  0  0  0  0  0  0
    7.4633  -14.6115   25.8761 C   0  0  0  0  0  0  0  0  0  0  0  0
    8.4408  -15.3023   24.9474 C   0  0  2  0  0  0  0  0  0  0  0  0
    7.9279  -15.4506   23.6196 N   0  0  0  0  0  0  0  0  0  0  0  0
    8.9195  -16.5911   25.5236 C   0  0  0  0  0  0  0  0  0  0  0  0
    8.0719  -17.3872   25.9845 O   0  0  0  0  0  0  0  0  0  0  0  0
   13.0338  -17.5565   25.5861 O   0  0  0  0  0  0  0  0  0  0  0  0
   12.0844  -18.5513   25.3574 C   0  0  0  0  0  0  0  0  0  0  0  0
   10.7781  -18.2102   26.0676 C   0  0  2  0  0  0  0  0  0  0  0  0
   10.2819  -16.9519   25.5713 N   0  0  0  0  0  0  0  0  0  0  0  0
   10.9498  -18.2228   27.5297 C   0  0  0  0  0  0  0  0  0  0  0  0
   11.3161  -19.3670   28.2250 O   0  0  0  0  0  0  0  0  0  0  0  0
   10.7652  -17.1753   28.2024 O   0  0  0  0  0  0  0  0  0  0  0  0
  1  2  1  0
  2  3  1  0
  4  5  1  0
  4  3  1  0
  5  7  1  0
  5  6  1  1
  7  8  2  0
  9 10  1  0
 10 11  1  0
 11 12  1  0
 13 12  1  1
 13 15  1  0
 14  7  1  0
 14 13  1  0
 15 20  1  0
 16 15  2  0
 18 17  1  0
 19 18  1  6
 20 19  1  0
 21 19  1  0
 22 21  1  0
 23 21  2  0
M  END
$$$$
