YTG.pdb
     RDKit          3D

 24 24  0  0  1  0  0  0  0  0999 V2000
   20.2745  -22.6550   -7.3262 O   0  0  0  0  0  0  0  0  0  0  0  0
   21.2058  -22.0361   -8.1756 C   0  0  0  0  0  0  0  0  0  0  0  0
   22.3038  -21.3684   -7.6748 C   0  0  0  0  0  0  0  0  0  0  0  0
   23.2344  -20.7517   -8.4756 C   0  0  0  0  0  0  0  0  0  0  0  0
   23.0884  -20.7866   -9.8491 C   0  0  0  0  0  0  0  0  0  0  0  0
   24.0325  -20.1148  -10.7657 C   0  0  0  0  0  0  0  0  0  0  0  0
   24.9862  -21.0714  -11.3737 C   0  0  2  0  0  0  0  0  0  0  0  0
   26.0094  -21.3373  -10.3252 N   0  0  0  0  0  0  0  0  0  0  0  0
   25.7281  -20.6194  -12.5600 C   0  0  0  0  0  0  0  0  0  0  0  0
   26.6737  -19.7832  -12.3875 O   0  0  0  0  0  0  0  0  0  0  0  0
   22.0047  -21.4451  -10.3644 C   0  0  0  0  0  0  0  0  0  0  0  0
   21.0804  -22.0583   -9.5470 C   0  0  0  0  0  0  0  0  0  0  0  0
   27.9364  -21.1357  -16.7819 C   0  0  0  0  0  0  0  0  0  0  0  0
   27.0250  -21.6976  -15.7171 C   0  0  1  0  0  0  0  0  0  0  0  0
   27.8028  -22.4238  -14.8230 O   0  0  0  0  0  0  0  0  0  0  0  0
   26.2105  -20.6397  -15.0611 C   0  0  2  0  0  0  0  0  0  0  0  0
   25.4849  -21.0404  -13.8999 N   0  0  0  0  0  0  0  0  0  0  0  0
   25.3887  -19.8357  -16.0226 C   0  0  0  0  0  0  0  0  0  0  0  0
   24.2008  -20.1934  -16.1956 O   0  0  0  0  0  0  0  0  0  0  0  0
   25.9003  -18.7281  -16.7112 N   0  0  0  0  0  0  0  0  0  0  0  0
   24.9750  -17.9785  -17.5650 C   0  0  0  0  0  0  0  0  0  0  0  0
   24.9367  -18.5575  -18.9323 C   0  0  0  0  0  0  0  0  0  0  0  0
   25.6466  -19.5546  -19.1935 O   0  0  0  0  0  0  0  0  0  0  0  0
   24.1251  -17.9917  -19.8876 O   0  0  0  0  0  0  0  0  0  0  0  0
  2 12  2  0
  2  1  1  0
  3  2  1  0
  4  5  1  0
  4  3  2  0
  5 11  2  0
  6  5  1  0
  7  8  1  1
  7  6  1  0
  9  7  1  0
 10  9  2  0
 11 12  1  0
 14 13  1  6
 15 14  1  0
 16 17  1  1
 16 14  1  0
 17  9  1  0
 18 16  1  0
 19 18  2  0
 20 18  1  0
 21 20  1  0
 22 24  1  0
 22 21  1  0
 23 22  2  0
M  END
$$$$
