YTG.pdb
     RDKit          3D

 24 24  0  0  1  0  0  0  0  0999 V2000
   28.3148  -15.1442  -20.7567 O   0  0  0  0  0  0  0  0  0  0  0  0
   27.4837  -16.1399  -20.2187 C   0  0  0  0  0  0  0  0  0  0  0  0
   27.9947  -17.3417  -19.7754 C   0  0  0  0  0  0  0  0  0  0  0  0
   27.2118  -18.3378  -19.2439 C   0  0  0  0  0  0  0  0  0  0  0  0
   25.8465  -18.1537  -19.1367 C   0  0  0  0  0  0  0  0  0  0  0  0
   24.9434  -19.1964  -18.6078 C   0  0  0  0  0  0  0  0  0  0  0  0
   24.7159  -19.0427  -17.1522 C   0  0  2  0  0  0  0  0  0  0  0  0
   26.0230  -19.3496  -16.5084 N   0  0  0  0  0  0  0  0  0  0  0  0
   23.7340  -19.9406  -16.5263 C   0  0  0  0  0  0  0  0  0  0  0  0
   24.1287  -21.0984  -16.1700 O   0  0  0  0  0  0  0  0  0  0  0  0
   25.3213  -16.9668  -19.5714 C   0  0  0  0  0  0  0  0  0  0  0  0
   26.1208  -15.9781  -20.1022 C   0  0  0  0  0  0  0  0  0  0  0  0
   23.2284  -21.0247  -13.8919 C   0  0  0  0  0  0  0  0  0  0  0  0
   21.7923  -20.5954  -14.0756 C   0  0  1  0  0  0  0  0  0  0  0  0
   21.5788  -19.4612  -13.3010 O   0  0  0  0  0  0  0  0  0  0  0  0
   21.4445  -20.4008  -15.5088 C   0  0  2  0  0  0  0  0  0  0  0  0
   22.3662  -19.6275  -16.2756 N   0  0  0  0  0  0  0  0  0  0  0  0
   20.0157  -20.0053  -15.7288 C   0  0  0  0  0  0  0  0  0  0  0  0
   19.7758  -18.7827  -15.8582 O   0  0  0  0  0  0  0  0  0  0  0  0
   18.9742  -20.9401  -15.7915 N   0  0  0  0  0  0  0  0  0  0  0  0
   17.6187  -20.4262  -16.0045 C   0  0  0  0  0  0  0  0  0  0  0  0
   16.9610  -20.1271  -14.7067 C   0  0  0  0  0  0  0  0  0  0  0  0
   17.6234  -20.2251  -13.6494 O   0  0  0  0  0  0  0  0  0  0  0  0
   15.6390  -19.7484  -14.6859 O   0  0  0  0  0  0  0  0  0  0  0  0
  2 12  2  0
  2  1  1  0
  3  2  1  0
  4  5  1  0
  4  3  2  0
  5 11  2  0
  6  5  1  0
  7  8  1  1
  7  6  1  0
  9  7  1  0
 10  9  2  0
 11 12  1  0
 14 13  1  6
 15 14  1  0
 16 17  1  1
 16 14  1  0
 17  9  1  0
 18 16  1  0
 19 18  2  0
 20 18  1  0
 21 20  1  0
 22 24  1  0
 22 21  1  0
 23 22  2  0
M  END
$$$$
