YTG.pdb
     RDKit          3D

 24 24  0  0  1  0  0  0  0  0999 V2000
   17.1310  -16.6796  -19.5500 O   0  0  0  0  0  0  0  0  0  0  0  0
   17.5050  -15.5420  -18.8166 C   0  0  0  0  0  0  0  0  0  0  0  0
   17.5011  -15.5416  -17.4374 C   0  0  0  0  0  0  0  0  0  0  0  0
   17.8605  -14.4476  -16.6881 C   0  0  0  0  0  0  0  0  0  0  0  0
   18.2478  -13.2810  -17.3192 C   0  0  0  0  0  0  0  0  0  0  0  0
   18.6124  -12.0582  -16.5745 C   0  0  0  0  0  0  0  0  0  0  0  0
   20.0681  -11.7902  -16.6328 C   0  0  2  0  0  0  0  0  0  0  0  0
   20.7063  -12.8711  -15.8319 N   0  0  0  0  0  0  0  0  0  0  0  0
   20.5424  -10.5234  -16.0563 C   0  0  0  0  0  0  0  0  0  0  0  0
   20.3335  -10.3187  -14.8163 O   0  0  0  0  0  0  0  0  0  0  0  0
   18.2581  -13.2628  -18.6878 C   0  0  0  0  0  0  0  0  0  0  0  0
   17.8946  -14.3690  -19.4244 C   0  0  0  0  0  0  0  0  0  0  0  0
   23.5841   -9.5044  -14.9691 C   0  0  0  0  0  0  0  0  0  0  0  0
   23.2442   -8.3632  -15.8977 C   0  0  1  0  0  0  0  0  0  0  0  0
   24.0436   -8.4752  -17.0292 O   0  0  0  0  0  0  0  0  0  0  0  0
   21.7907   -8.3082  -16.2095 C   0  0  2  0  0  0  0  0  0  0  0  0
   21.2264   -9.4941  -16.7667 N   0  0  0  0  0  0  0  0  0  0  0  0
   21.3818   -7.0622  -16.9352 C   0  0  0  0  0  0  0  0  0  0  0  0
   21.0961   -7.1772  -18.1494 O   0  0  0  0  0  0  0  0  0  0  0  0
   21.3131   -5.8111  -16.3087 N   0  0  0  0  0  0  0  0  0  0  0  0
   20.8694   -4.6743  -17.1196 C   0  0  0  0  0  0  0  0  0  0  0  0
   22.0219   -4.0405  -17.8098 C   0  0  0  0  0  0  0  0  0  0  0  0
   23.1599   -4.5474  -17.6894 O   0  0  0  0  0  0  0  0  0  0  0  0
   21.8226   -2.9105  -18.5679 O   0  0  0  0  0  0  0  0  0  0  0  0
  2 12  2  0
  2  1  1  0
  3  2  1  0
  4  5  1  0
  4  3  2  0
  5 11  2  0
  6  5  1  0
  7  8  1  1
  7  6  1  0
  9  7  1  0
 10  9  2  0
 11 12  1  0
 14 13  1  1
 15 14  1  0
 16 17  1  6
 16 14  1  0
 17  9  1  0
 18 16  1  0
 19 18  2  0
 20 18  1  0
 21 20  1  0
 22 24  1  0
 22 21  1  0
 23 22  2  0
M  END
$$$$
