YTG.pdb
     RDKit          3D

 24 24  0  0  1  0  0  0  0  0999 V2000
   29.3446  -14.6772  -18.1723 O   0  0  0  0  0  0  0  0  0  0  0  0
   28.6575  -15.7548  -17.5906 C   0  0  0  0  0  0  0  0  0  0  0  0
   28.1580  -15.6813  -16.3072 C   0  0  0  0  0  0  0  0  0  0  0  0
   27.4814  -16.7154  -15.7068 C   0  0  0  0  0  0  0  0  0  0  0  0
   27.2778  -17.8947  -16.3974 C   0  0  0  0  0  0  0  0  0  0  0  0
   26.5900  -19.0572  -15.7990 C   0  0  0  0  0  0  0  0  0  0  0  0
   27.3041  -19.5662  -14.6051 C   0  0  2  0  0  0  0  0  0  0  0  0
   28.4689  -20.3302  -15.1311 N   0  0  0  0  0  0  0  0  0  0  0  0
   26.5729  -20.4929  -13.7284 C   0  0  0  0  0  0  0  0  0  0  0  0
   26.6170  -21.7354  -14.0067 O   0  0  0  0  0  0  0  0  0  0  0  0
   27.7664  -17.9859  -17.6728 C   0  0  0  0  0  0  0  0  0  0  0  0
   28.4430  -16.9392  -18.2602 C   0  0  0  0  0  0  0  0  0  0  0  0
   26.5578  -21.0896   -9.9940 C   0  0  0  0  0  0  0  0  0  0  0  0
   25.1009  -20.9897  -10.3785 C   0  0  1  0  0  0  0  0  0  0  0  0
   24.5586  -19.8861   -9.7305 O   0  0  0  0  0  0  0  0  0  0  0  0
   24.9116  -20.9554  -11.8535 C   0  0  2  0  0  0  0  0  0  0  0  0
   25.8142  -20.1228  -12.5797 N   0  0  0  0  0  0  0  0  0  0  0  0
   23.4823  -20.7797  -12.2688 C   0  0  0  0  0  0  0  0  0  0  0  0
   23.1052  -19.6157  -12.5372 O   0  0  0  0  0  0  0  0  0  0  0  0
   22.5853  -21.8518  -12.3615 N   0  0  0  0  0  0  0  0  0  0  0  0
   21.2098  -21.5474  -12.7643 C   0  0  0  0  0  0  0  0  0  0  0  0
   20.3072  -21.5395  -11.5848 C   0  0  0  0  0  0  0  0  0  0  0  0
   20.7916  -21.7127  -10.4438 O   0  0  0  0  0  0  0  0  0  0  0  0
   18.9577  -21.3428  -11.7627 O   0  0  0  0  0  0  0  0  0  0  0  0
  2 12  2  0
  2  1  1  0
  3  2  1  0
  4  5  1  0
  4  3  2  0
  5 11  2  0
  6  5  1  0
  7  8  1  6
  7  6  1  0
  9  7  1  0
 10  9  2  0
 11 12  1  0
 14 13  1  6
 15 14  1  0
 16 17  1  1
 16 14  1  0
 17  9  1  0
 18 16  1  0
 19 18  2  0
 20 18  1  0
 21 20  1  0
 22 24  1  0
 22 21  1  0
 23 22  2  0
M  END
$$$$
