YTG.pdb
     RDKit          3D

 24 24  0  0  1  0  0  0  0  0999 V2000
   17.4189  -17.0008  -18.6684 O   0  0  0  0  0  0  0  0  0  0  0  0
   18.2077  -17.7891  -17.8152 C   0  0  0  0  0  0  0  0  0  0  0  0
   18.9257  -17.2305  -16.7786 C   0  0  0  0  0  0  0  0  0  0  0  0
   19.7074  -17.9707  -15.9250 C   0  0  0  0  0  0  0  0  0  0  0  0
   19.7965  -19.3397  -16.0895 C   0  0  0  0  0  0  0  0  0  0  0  0
   20.6457  -20.1896  -15.2298 C   0  0  0  0  0  0  0  0  0  0  0  0
   22.0325  -20.2812  -15.7422 C   0  0  2  0  0  0  0  0  0  0  0  0
   21.9768  -21.2426  -16.8778 N   0  0  0  0  0  0  0  0  0  0  0  0
   23.0567  -20.7980  -14.8223 C   0  0  0  0  0  0  0  0  0  0  0  0
   22.9809  -22.0210  -14.4738 O   0  0  0  0  0  0  0  0  0  0  0  0
   19.0904  -19.9119  -17.1131 C   0  0  0  0  0  0  0  0  0  0  0  0
   18.3111  -19.1549  -17.9604 C   0  0  0  0  0  0  0  0  0  0  0  0
   27.4381  -20.8720  -12.6058 C   0  0  0  0  0  0  0  0  0  0  0  0
   26.5150  -20.2532  -13.6283 C   0  0  1  0  0  0  0  0  0  0  0  0
   26.8829  -20.7251  -14.8829 O   0  0  0  0  0  0  0  0  0  0  0  0
   25.0824  -20.4936  -13.3081 C   0  0  2  0  0  0  0  0  0  0  0  0
   24.1413  -20.0466  -14.2828 N   0  0  0  0  0  0  0  0  0  0  0  0
   24.7101  -20.1091  -11.9082 C   0  0  0  0  0  0  0  0  0  0  0  0
   24.4452  -18.9027  -11.6993 O   0  0  0  0  0  0  0  0  0  0  0  0
   24.6526  -21.0367  -10.8600 N   0  0  0  0  0  0  0  0  0  0  0  0
   24.4030  -20.5174   -9.5128 C   0  0  0  0  0  0  0  0  0  0  0  0
   25.1791  -21.2823   -8.5034 C   0  0  0  0  0  0  0  0  0  0  0  0
   25.9219  -22.2154   -8.8829 O   0  0  0  0  0  0  0  0  0  0  0  0
   25.0707  -20.9554   -7.1720 O   0  0  0  0  0  0  0  0  0  0  0  0
  2 12  2  0
  2  1  1  0
  3  2  1  0
  4  5  1  0
  4  3  2  0
  5 11  2  0
  6  5  1  0
  7  8  1  6
  7  6  1  0
  9  7  1  0
 10  9  2  0
 11 12  1  0
 14 13  1  1
 15 14  1  0
 16 17  1  6
 16 14  1  0
 17  9  1  0
 18 16  1  0
 19 18  2  0
 20 18  1  0
 21 20  1  0
 22 24  1  0
 22 21  1  0
 23 22  2  0
M  END
$$$$
