YTG.pdb
     RDKit          3D

 24 24  0  0  1  0  0  0  0  0999 V2000
   13.6466    0.8561  -16.8933 O   0  0  0  0  0  0  0  0  0  0  0  0
   14.5670   -0.1815  -16.6745 C   0  0  0  0  0  0  0  0  0  0  0  0
   14.6404   -1.2686  -17.5201 C   0  0  0  0  0  0  0  0  0  0  0  0
   15.5277   -2.3013  -17.3366 C   0  0  0  0  0  0  0  0  0  0  0  0
   16.3982   -2.2754  -16.2638 C   0  0  0  0  0  0  0  0  0  0  0  0
   17.3525   -3.3691  -15.9885 C   0  0  0  0  0  0  0  0  0  0  0  0
   18.3784   -3.4865  -17.0506 C   0  0  2  0  0  0  0  0  0  0  0  0
   17.6931   -4.1429  -18.1980 N   0  0  0  0  0  0  0  0  0  0  0  0
   19.5594   -4.3117  -16.7567 C   0  0  0  0  0  0  0  0  0  0  0  0
   19.5235   -5.5414  -17.0879 O   0  0  0  0  0  0  0  0  0  0  0  0
   16.3401   -1.2041  -15.4139 C   0  0  0  0  0  0  0  0  0  0  0  0
   15.4438   -0.1766  -15.6123 C   0  0  0  0  0  0  0  0  0  0  0  0
   23.1434   -2.7648  -14.7567 C   0  0  0  0  0  0  0  0  0  0  0  0
   23.2044   -3.8555  -15.7992 C   0  0  1  0  0  0  0  0  0  0  0  0
   24.3081   -4.6542  -15.5236 O   0  0  0  0  0  0  0  0  0  0  0  0
   21.9323   -4.6219  -15.8837 C   0  0  2  0  0  0  0  0  0  0  0  0
   20.7559   -3.8538  -16.1317 N   0  0  0  0  0  0  0  0  0  0  0  0
   21.7626   -5.6222  -14.7806 C   0  0  0  0  0  0  0  0  0  0  0  0
   21.3288   -5.1957  -13.6856 O   0  0  0  0  0  0  0  0  0  0  0  0
   22.0676   -6.9803  -14.9389 N   0  0  0  0  0  0  0  0  0  0  0  0
   21.8107   -7.8664  -13.8005 C   0  0  0  0  0  0  0  0  0  0  0  0
   20.6867   -8.7907  -14.0982 C   0  0  0  0  0  0  0  0  0  0  0  0
   20.0841   -8.6876  -15.1903 O   0  0  0  0  0  0  0  0  0  0  0  0
   20.3261   -9.7425  -13.1733 O   0  0  0  0  0  0  0  0  0  0  0  0
  2 12  2  0
  2  1  1  0
  3  2  1  0
  4  5  1  0
  4  3  2  0
  5 11  2  0
  6  5  1  0
  7  8  1  6
  7  6  1  0
  9  7  1  0
 10  9  2  0
 11 12  1  0
 14 13  1  1
 15 14  1  0
 16 17  1  1
 16 14  1  0
 17  9  1  0
 18 16  1  0
 19 18  2  0
 20 18  1  0
 21 20  1  0
 22 24  1  0
 22 21  1  0
 23 22  2  0
M  END
$$$$
