YTG.pdb
     RDKit          3D

 24 24  0  0  1  0  0  0  0  0999 V2000
   29.0266  -20.0702   -3.4366 O   0  0  0  0  0  0  0  0  0  0  0  0
   28.5386  -19.8688   -4.7378 C   0  0  0  0  0  0  0  0  0  0  0  0
   27.3816  -20.4789   -5.1750 C   0  0  0  0  0  0  0  0  0  0  0  0
   26.8755  -20.3048   -6.4404 C   0  0  0  0  0  0  0  0  0  0  0  0
   27.5356  -19.4863   -7.3367 C   0  0  0  0  0  0  0  0  0  0  0  0
   27.0655  -19.2835   -8.7225 C   0  0  0  0  0  0  0  0  0  0  0  0
   26.6599  -20.5579   -9.3595 C   0  0  2  0  0  0  0  0  0  0  0  0
   27.9232  -21.3138   -9.5821 N   0  0  0  0  0  0  0  0  0  0  0  0
   26.0000  -20.4742  -10.6708 C   0  0  0  0  0  0  0  0  0  0  0  0
   26.6251  -19.8910  -11.6154 O   0  0  0  0  0  0  0  0  0  0  0  0
   28.6858  -18.8719   -6.9203 C   0  0  0  0  0  0  0  0  0  0  0  0
   29.1799  -19.0574   -5.6475 C   0  0  0  0  0  0  0  0  0  0  0  0
   25.6136  -22.1935  -13.5392 C   0  0  0  0  0  0  0  0  0  0  0  0
   24.1641  -21.9323  -13.2057 C   0  0  1  0  0  0  0  0  0  0  0  0
   23.5942  -23.1305  -12.7917 O   0  0  0  0  0  0  0  0  0  0  0  0
   24.0061  -20.8343  -12.2146 C   0  0  2  0  0  0  0  0  0  0  0  0
   24.7115  -20.9965  -10.9852 N   0  0  0  0  0  0  0  0  0  0  0  0
   22.5843  -20.3989  -12.0266 C   0  0  0  0  0  0  0  0  0  0  0  0
   22.0749  -20.5866  -10.8977 O   0  0  0  0  0  0  0  0  0  0  0  0
   21.8343  -19.8055  -13.0502 N   0  0  0  0  0  0  0  0  0  0  0  0
   20.4430  -19.4563  -12.7513 C   0  0  0  0  0  0  0  0  0  0  0  0
   19.5313  -20.5679  -13.1248 C   0  0  0  0  0  0  0  0  0  0  0  0
   19.4882  -21.5907  -12.4047 O   0  0  0  0  0  0  0  0  0  0  0  0
   18.7508  -20.4574  -14.2517 O   0  0  0  0  0  0  0  0  0  0  0  0
  2 12  2  0
  2  1  1  0
  3  2  1  0
  4  5  1  0
  4  3  2  0
  5 11  2  0
  6  5  1  0
  7  8  1  6
  7  6  1  0
  9  7  1  0
 10  9  2  0
 11 12  1  0
 14 13  1  1
 15 14  1  0
 16 17  1  1
 16 14  1  0
 17  9  1  0
 18 16  1  0
 19 18  2  0
 20 18  1  0
 21 20  1  0
 22 24  1  0
 22 21  1  0
 23 22  2  0
M  END
$$$$
