YTG.pdb
     RDKit          3D

 24 24  0  0  1  0  0  0  0  0999 V2000
   28.3279  -20.2862   -3.8426 O   0  0  0  0  0  0  0  0  0  0  0  0
   28.0601  -20.1436   -5.2136 C   0  0  0  0  0  0  0  0  0  0  0  0
   29.0510  -19.7976   -6.1082 C   0  0  0  0  0  0  0  0  0  0  0  0
   28.8252  -19.6492   -7.4552 C   0  0  0  0  0  0  0  0  0  0  0  0
   27.5564  -19.8499   -7.9643 C   0  0  0  0  0  0  0  0  0  0  0  0
   27.2375  -19.6727   -9.3959 C   0  0  0  0  0  0  0  0  0  0  0  0
   26.7294  -20.9228  -10.0068 C   0  0  2  0  0  0  0  0  0  0  0  0
   27.9365  -21.7427  -10.3031 N   0  0  0  0  0  0  0  0  0  0  0  0
   25.9985  -20.8021  -11.2770 C   0  0  0  0  0  0  0  0  0  0  0  0
   26.6605  -20.4771  -12.3159 O   0  0  0  0  0  0  0  0  0  0  0  0
   26.5600  -20.1943   -7.0912 C   0  0  0  0  0  0  0  0  0  0  0  0
   26.8036  -20.3388   -5.7429 C   0  0  0  0  0  0  0  0  0  0  0  0
   25.5113  -22.3110  -13.9540 C   0  0  0  0  0  0  0  0  0  0  0  0
   24.0573  -22.0725  -13.6233 C   0  0  1  0  0  0  0  0  0  0  0  0
   23.5202  -23.2659  -13.1549 O   0  0  0  0  0  0  0  0  0  0  0  0
   23.8762  -20.9373  -12.6792 C   0  0  2  0  0  0  0  0  0  0  0  0
   24.6014  -21.0227  -11.4535 N   0  0  0  0  0  0  0  0  0  0  0  0
   22.4436  -20.5390  -12.4912 C   0  0  0  0  0  0  0  0  0  0  0  0
   21.9591  -20.6769  -11.3442 O   0  0  0  0  0  0  0  0  0  0  0  0
   21.6574  -20.0318  -13.5338 N   0  0  0  0  0  0  0  0  0  0  0  0
   20.3060  -19.5753  -13.1988 C   0  0  0  0  0  0  0  0  0  0  0  0
   19.3456  -20.7077  -13.2350 C   0  0  0  0  0  0  0  0  0  0  0  0
   19.7550  -21.8457  -13.5576 O   0  0  0  0  0  0  0  0  0  0  0  0
   18.0259  -20.4904  -12.9148 O   0  0  0  0  0  0  0  0  0  0  0  0
  2 12  2  0
  2  1  1  0
  3  2  1  0
  4  5  1  0
  4  3  2  0
  5 11  2  0
  6  5  1  0
  7  8  1  6
  7  6  1  0
  9  7  1  0
 10  9  2  0
 11 12  1  0
 14 13  1  1
 15 14  1  0
 16 17  1  1
 16 14  1  0
 17  9  1  0
 18 16  1  0
 19 18  2  0
 20 18  1  0
 21 20  1  0
 22 24  1  0
 22 21  1  0
 23 22  2  0
M  END
$$$$
