YTG.pdb
     RDKit          3D

 24 24  0  0  1  0  0  0  0  0999 V2000
   21.0010  -17.8810  -15.4067 O   0  0  0  0  0  0  0  0  0  0  0  0
   20.9736  -16.4984  -15.6501 C   0  0  0  0  0  0  0  0  0  0  0  0
   21.2969  -15.5878  -14.6660 C   0  0  0  0  0  0  0  0  0  0  0  0
   21.2808  -14.2291  -14.8686 C   0  0  0  0  0  0  0  0  0  0  0  0
   20.9283  -13.7240  -16.1054 C   0  0  0  0  0  0  0  0  0  0  0  0
   20.8565  -12.2742  -16.3805 C   0  0  0  0  0  0  0  0  0  0  0  0
   19.6991  -11.6415  -15.7065 C   0  0  2  0  0  0  0  0  0  0  0  0
   18.4919  -12.1995  -16.3761 N   0  0  0  0  0  0  0  0  0  0  0  0
   19.5795  -10.1794  -15.8060 C   0  0  0  0  0  0  0  0  0  0  0  0
   19.3259   -9.6796  -16.9501 O   0  0  0  0  0  0  0  0  0  0  0  0
   20.6045  -14.6128  -17.0948 C   0  0  0  0  0  0  0  0  0  0  0  0
   20.6256  -15.9728  -16.8748 C   0  0  0  0  0  0  0  0  0  0  0  0
   17.0994   -7.9842  -15.2435 C   0  0  0  0  0  0  0  0  0  0  0  0
   18.1884   -7.3459  -14.4147 C   0  0  1  0  0  0  0  0  0  0  0  0
   17.8793   -7.5398  -13.0735 O   0  0  0  0  0  0  0  0  0  0  0  0
   19.5397   -7.8466  -14.7835 C   0  0  2  0  0  0  0  0  0  0  0  0
   19.7191   -9.2608  -14.7250 N   0  0  0  0  0  0  0  0  0  0  0  0
   20.6567   -7.0827  -14.1392 C   0  0  0  0  0  0  0  0  0  0  0  0
   21.3565   -7.6948  -13.2997 O   0  0  0  0  0  0  0  0  0  0  0  0
   20.9291   -5.7426  -14.4431 N   0  0  0  0  0  0  0  0  0  0  0  0
   22.0021   -5.0854  -13.6922 C   0  0  0  0  0  0  0  0  0  0  0  0
   22.1072   -3.6533  -14.0720 C   0  0  0  0  0  0  0  0  0  0  0  0
   21.4330   -3.2259  -15.0359 O   0  0  0  0  0  0  0  0  0  0  0  0
   22.9406   -2.8211  -13.3618 O   0  0  0  0  0  0  0  0  0  0  0  0
  2 12  2  0
  2  1  1  0
  3  2  1  0
  4  5  1  0
  4  3  2  0
  5 11  2  0
  6  5  1  0
  7  8  1  6
  7  6  1  0
  9  7  1  0
 10  9  2  0
 11 12  1  0
 14 13  1  6
 15 14  1  0
 16 17  1  1
 16 14  1  0
 17  9  1  0
 18 16  1  0
 19 18  2  0
 20 18  1  0
 21 20  1  0
 22 24  1  0
 22 21  1  0
 23 22  2  0
M  END
$$$$
