YTG.pdb
     RDKit          3D

 24 24  0  0  1  0  0  0  0  0999 V2000
   29.6014  -19.7350   -3.8069 O   0  0  0  0  0  0  0  0  0  0  0  0
   28.6899  -19.8520   -4.8686 C   0  0  0  0  0  0  0  0  0  0  0  0
   28.5004  -21.0497   -5.5257 C   0  0  0  0  0  0  0  0  0  0  0  0
   27.6178  -21.2005   -6.5677 C   0  0  0  0  0  0  0  0  0  0  0  0
   26.8729  -20.1191   -6.9978 C   0  0  0  0  0  0  0  0  0  0  0  0
   25.9328  -20.2036   -8.1344 C   0  0  0  0  0  0  0  0  0  0  0  0
   26.5960  -20.6975   -9.3634 C   0  0  2  0  0  0  0  0  0  0  0  0
   27.8863  -19.9591   -9.4461 N   0  0  0  0  0  0  0  0  0  0  0  0
   25.9085  -20.4587  -10.6410 C   0  0  0  0  0  0  0  0  0  0  0  0
   25.6937  -19.2508  -10.9845 O   0  0  0  0  0  0  0  0  0  0  0  0
   27.0474  -18.9221   -6.3573 C   0  0  0  0  0  0  0  0  0  0  0  0
   27.9371  -18.7880   -5.3138 C   0  0  0  0  0  0  0  0  0  0  0  0
   26.5661  -20.6705  -14.1559 C   0  0  0  0  0  0  0  0  0  0  0  0
   25.3102  -21.4958  -14.0085 C   0  0  1  0  0  0  0  0  0  0  0  0
   25.6393  -22.8266  -14.2380 O   0  0  0  0  0  0  0  0  0  0  0  0
   24.6445  -21.2740  -12.6968 C   0  0  2  0  0  0  0  0  0  0  0  0
   25.4597  -21.4679  -11.5422 N   0  0  0  0  0  0  0  0  0  0  0  0
   23.3021  -21.9318  -12.5890 C   0  0  0  0  0  0  0  0  0  0  0  0
   23.2373  -22.9898  -11.9215 O   0  0  0  0  0  0  0  0  0  0  0  0
   22.1536  -21.4088  -13.1972 N   0  0  0  0  0  0  0  0  0  0  0  0
   20.9022  -22.1518  -13.0264 C   0  0  0  0  0  0  0  0  0  0  0  0
   19.7733  -21.4334  -13.6711 C   0  0  0  0  0  0  0  0  0  0  0  0
   19.9936  -20.3487  -14.2553 O   0  0  0  0  0  0  0  0  0  0  0  0
   18.5075  -21.9685  -13.6170 O   0  0  0  0  0  0  0  0  0  0  0  0
  2 12  2  0
  2  1  1  0
  3  2  1  0
  4  5  1  0
  4  3  2  0
  5 11  2  0
  6  5  1  0
  7  8  1  6
  7  6  1  0
  9  7  1  0
 10  9  2  0
 11 12  1  0
 14 13  1  1
 15 14  1  0
 16 17  1  1
 16 14  1  0
 17  9  1  0
 18 16  1  0
 19 18  2  0
 20 18  1  0
 21 20  1  0
 22 24  1  0
 22 21  1  0
 23 22  2  0
M  END
$$$$
