YTG.pdb
     RDKit          3D

 24 24  0  0  1  0  0  0  0  0999 V2000
   25.2943  -20.6879   -8.6300 O   0  0  0  0  0  0  0  0  0  0  0  0
   25.8960  -20.4393   -9.8741 C   0  0  0  0  0  0  0  0  0  0  0  0
   26.1879  -19.1567  -10.2888 C   0  0  0  0  0  0  0  0  0  0  0  0
   26.7758  -18.8765  -11.4986 C   0  0  0  0  0  0  0  0  0  0  0  0
   27.1002  -19.9079  -12.3589 C   0  0  0  0  0  0  0  0  0  0  0  0
   27.7012  -19.6744  -13.6882 C   0  0  0  0  0  0  0  0  0  0  0  0
   27.0163  -20.4510  -14.7474 C   0  0  2  0  0  0  0  0  0  0  0  0
   28.0965  -21.1668  -15.4808 N   0  0  0  0  0  0  0  0  0  0  0  0
   26.2703  -19.6921  -15.7621 C   0  0  0  0  0  0  0  0  0  0  0  0
   26.9358  -19.1189  -16.6850 O   0  0  0  0  0  0  0  0  0  0  0  0
   26.8181  -21.1878  -11.9641 C   0  0  0  0  0  0  0  0  0  0  0  0
   26.2280  -21.4514  -10.7472 C   0  0  0  0  0  0  0  0  0  0  0  0
   22.1204  -20.3288  -16.7905 C   0  0  0  0  0  0  0  0  0  0  0  0
   23.1808  -19.6506  -17.6247 C   0  0  1  0  0  0  0  0  0  0  0  0
   22.5438  -18.9186  -18.6199 O   0  0  0  0  0  0  0  0  0  0  0  0
   24.1071  -18.8325  -16.7968 C   0  0  2  0  0  0  0  0  0  0  0  0
   24.8536  -19.5417  -15.8093 N   0  0  0  0  0  0  0  0  0  0  0  0
   23.4873  -17.5713  -16.2755 C   0  0  0  0  0  0  0  0  0  0  0  0
   23.1068  -17.5738  -15.0820 O   0  0  0  0  0  0  0  0  0  0  0  0
   23.3282  -16.4253  -17.0653 N   0  0  0  0  0  0  0  0  0  0  0  0
   22.6831  -15.2642  -16.4467 C   0  0  0  0  0  0  0  0  0  0  0  0
   21.2396  -15.2192  -16.7937 C   0  0  0  0  0  0  0  0  0  0  0  0
   20.7165  -16.2052  -17.3601 O   0  0  0  0  0  0  0  0  0  0  0  0
   20.5017  -14.0994  -16.4889 O   0  0  0  0  0  0  0  0  0  0  0  0
  2 12  2  0
  2  1  1  0
  3  2  1  0
  4  5  1  0
  4  3  2  0
  5 11  2  0
  6  5  1  0
  7  8  1  6
  7  6  1  0
  9  7  1  0
 10  9  2  0
 11 12  1  0
 14 13  1  1
 15 14  1  0
 16 17  1  1
 16 14  1  0
 17  9  1  0
 18 16  1  0
 19 18  2  0
 20 18  1  0
 21 20  1  0
 22 24  1  0
 22 21  1  0
 23 22  2  0
M  END
$$$$
