YTG.pdb
     RDKit          3D

 24 24  0  0  1  0  0  0  0  0999 V2000
   27.2287  -17.9037  -15.4276 O   0  0  0  0  0  0  0  0  0  0  0  0
   26.6471  -16.6504  -15.6778 C   0  0  0  0  0  0  0  0  0  0  0  0
   26.3478  -16.2390  -16.9597 C   0  0  0  0  0  0  0  0  0  0  0  0
   25.7790  -15.0205  -17.2414 C   0  0  0  0  0  0  0  0  0  0  0  0
   25.4828  -14.1473  -16.2123 C   0  0  0  0  0  0  0  0  0  0  0  0
   24.9037  -12.8088  -16.4480 C   0  0  0  0  0  0  0  0  0  0  0  0
   23.4486  -12.7807  -16.1717 C   0  0  2  0  0  0  0  0  0  0  0  0
   22.8436  -13.7633  -17.1127 N   0  0  0  0  0  0  0  0  0  0  0  0
   22.7445  -11.5107  -16.4024 C   0  0  0  0  0  0  0  0  0  0  0  0
   22.4665  -11.1943  -17.6047 O   0  0  0  0  0  0  0  0  0  0  0  0
   25.7726  -14.5387  -14.9331 C   0  0  0  0  0  0  0  0  0  0  0  0
   26.3432  -15.7644  -14.6679 C   0  0  0  0  0  0  0  0  0  0  0  0
   19.4794  -10.2489  -14.5599 C   0  0  0  0  0  0  0  0  0  0  0  0
   20.1144   -9.5754  -15.7531 C   0  0  1  0  0  0  0  0  0  0  0  0
   19.4413   -8.3812  -15.9830 O   0  0  0  0  0  0  0  0  0  0  0  0
   21.5814   -9.3982  -15.5817 C   0  0  2  0  0  0  0  0  0  0  0  0
   22.3365  -10.5934  -15.3904 N   0  0  0  0  0  0  0  0  0  0  0  0
   21.9434   -8.3102  -14.6166 C   0  0  0  0  0  0  0  0  0  0  0  0
   22.3623   -8.6631  -13.4901 O   0  0  0  0  0  0  0  0  0  0  0  0
   21.8286   -6.9504  -14.9334 N   0  0  0  0  0  0  0  0  0  0  0  0
   22.2058   -5.9829  -13.8996 C   0  0  0  0  0  0  0  0  0  0  0  0
   22.0093   -4.5930  -14.3850 C   0  0  0  0  0  0  0  0  0  0  0  0
   22.2744   -3.6366  -13.6224 O   0  0  0  0  0  0  0  0  0  0  0  0
   21.5410   -4.3780  -15.6600 O   0  0  0  0  0  0  0  0  0  0  0  0
  2 12  2  0
  2  1  1  0
  3  2  1  0
  4  5  1  0
  4  3  2  0
  5 11  2  0
  6  5  1  0
  7  8  1  6
  7  6  1  0
  9  7  1  0
 10  9  2  0
 11 12  1  0
 14 13  1  1
 15 14  1  0
 16 17  1  1
 16 14  1  0
 17  9  1  0
 18 16  1  0
 19 18  2  0
 20 18  1  0
 21 20  1  0
 22 24  1  0
 22 21  1  0
 23 22  2  0
M  END
$$$$
