YTG.pdb
     RDKit          3D

 24 24  0  0  1  0  0  0  0  0999 V2000
   26.4801  -17.7597  -15.5644 O   0  0  0  0  0  0  0  0  0  0  0  0
   26.0359  -16.4367  -15.7202 C   0  0  0  0  0  0  0  0  0  0  0  0
   25.4881  -15.7329  -14.6682 C   0  0  0  0  0  0  0  0  0  0  0  0
   25.0434  -14.4382  -14.7844 C   0  0  0  0  0  0  0  0  0  0  0  0
   25.1370  -13.7871  -15.9995 C   0  0  0  0  0  0  0  0  0  0  0  0
   24.6460  -12.4085  -16.2021 C   0  0  0  0  0  0  0  0  0  0  0  0
   23.1670  -12.3380  -16.1605 C   0  0  2  0  0  0  0  0  0  0  0  0
   22.6959  -13.1192  -17.3373 N   0  0  0  0  0  0  0  0  0  0  0  0
   22.5532  -11.0075  -16.2840 C   0  0  0  0  0  0  0  0  0  0  0  0
   22.5433  -10.4613  -17.4350 O   0  0  0  0  0  0  0  0  0  0  0  0
   25.6783  -14.4699  -17.0552 C   0  0  0  0  0  0  0  0  0  0  0  0
   26.1195  -15.7683  -16.9215 C   0  0  0  0  0  0  0  0  0  0  0  0
   19.2909  -10.0480  -16.4597 C   0  0  0  0  0  0  0  0  0  0  0  0
   19.7766   -9.1167  -15.3749 C   0  0  1  0  0  0  0  0  0  0  0  0
   19.2203   -9.5305  -14.1703 O   0  0  0  0  0  0  0  0  0  0  0  0
   21.2610   -9.0278  -15.3356 C   0  0  2  0  0  0  0  0  0  0  0  0
   21.9579  -10.2674  -15.2211 N   0  0  0  0  0  0  0  0  0  0  0  0
   21.7722   -7.9744  -14.3999 C   0  0  0  0  0  0  0  0  0  0  0  0
   22.2678   -8.3647  -13.3177 O   0  0  0  0  0  0  0  0  0  0  0  0
   21.7115   -6.6067  -14.6965 N   0  0  0  0  0  0  0  0  0  0  0  0
   22.2555   -5.6765  -13.7036 C   0  0  0  0  0  0  0  0  0  0  0  0
   22.1724   -4.2772  -14.1946 C   0  0  0  0  0  0  0  0  0  0  0  0
   21.7163   -4.0576  -15.3393 O   0  0  0  0  0  0  0  0  0  0  0  0
   22.5962   -3.2473  -13.3877 O   0  0  0  0  0  0  0  0  0  0  0  0
  2 12  2  0
  2  1  1  0
  3  2  1  0
  4  5  1  0
  4  3  2  0
  5 11  2  0
  6  5  1  0
  7  8  1  6
  7  6  1  0
  9  7  1  0
 10  9  2  0
 11 12  1  0
 14 13  1  6
 15 14  1  0
 16 17  1  1
 16 14  1  0
 17  9  1  0
 18 16  1  0
 19 18  2  0
 20 18  1  0
 21 20  1  0
 22 24  1  0
 22 21  1  0
 23 22  2  0
M  END
$$$$
