IDI.pdb
     RDKit          3D

 25 24  0  0  1  0  0  0  0  0999 V2000
   19.0242  -16.8279  -18.1801 C   0  0  0  0  0  0  0  0  0  0  0  0
   17.9198  -15.8398  -17.8523 C   0  0  0  0  0  0  0  0  0  0  0  0
   18.3954  -14.6651  -17.0921 C   0  0  2  0  0  0  0  0  0  0  0  0
   19.0131  -15.0162  -15.7578 C   0  0  0  0  0  0  0  0  0  0  0  0
   17.2564  -13.7065  -16.8237 C   0  0  2  0  0  0  0  0  0  0  0  0
   16.5996  -13.3856  -18.1080 N   0  0  0  0  0  0  0  0  0  0  0  0
   17.6684  -12.4356  -16.1986 C   0  0  0  0  0  0  0  0  0  0  0  0
   18.0740  -12.4697  -14.9918 O   0  0  0  0  0  0  0  0  0  0  0  0
   17.6380  -11.2013  -16.8725 N   0  0  0  0  0  0  0  0  0  0  0  0
   17.9859   -9.9607  -16.1664 C   0  0  1  0  0  0  0  0  0  0  0  0
   18.3110   -8.8860  -17.1447 C   0  0  0  0  0  0  0  0  0  0  0  0
   18.5580   -7.5589  -16.5742 C   0  0  0  0  0  0  0  0  0  0  0  0
   19.2861   -7.3829  -15.5798 O   0  0  0  0  0  0  0  0  0  0  0  0
   16.9079   -9.5940  -15.2299 C   0  0  0  0  0  0  0  0  0  0  0  0
   15.6795   -9.6682  -15.5789 O   0  0  0  0  0  0  0  0  0  0  0  0
   17.9599   -6.4507  -17.1608 O   0  0  0  0  0  0  0  0  0  0  0  0
   13.9092  -10.9466  -10.9252 C   0  0  0  0  0  0  0  0  0  0  0  0
   14.2374   -9.6581  -11.6908 C   0  0  0  0  0  0  0  0  0  0  0  0
   15.6406   -9.7820  -12.1697 C   0  0  2  0  0  0  0  0  0  0  0  0
   16.6602   -9.7977  -11.0816 C   0  0  0  0  0  0  0  0  0  0  0  0
   15.9627   -8.6436  -13.1212 C   0  0  2  0  0  0  0  0  0  0  0  0
   17.1097   -9.1472  -13.9003 N   0  0  0  0  0  0  0  0  0  0  0  0
   16.3907   -7.4216  -12.4320 C   0  0  0  0  0  0  0  0  0  0  0  0
   17.6954   -6.9369  -12.3947 O   0  0  0  0  0  0  0  0  0  0  0  0
   15.5368   -6.7097  -11.7998 O   0  0  0  0  0  0  0  0  0  0  0  0
  2  1  1  0
  3  2  1  0
  3  5  1  0
  3  4  1  1
  5  6  1  6
  7  5  1  0
  7  8  2  0
  9  7  1  0
 10  9  1  0
 10 11  1  6
 12 16  1  0
 12 11  1  0
 13 12  2  0
 14 10  1  0
 15 14  2  0
 18 17  1  0
 19 18  1  0
 19 20  1  1
 21 19  1  0
 21 22  1  6
 22 14  1  0
 23 24  1  0
 23 21  1  0
 25 23  2  0
M  END
$$$$
