IDI.pdb
     RDKit          3D

 25 24  0  0  1  0  0  0  0  0999 V2000
   26.3968  -20.0059   -8.4844 C   0  0  0  0  0  0  0  0  0  0  0  0
   26.4805  -20.9605   -9.6613 C   0  0  0  0  0  0  0  0  0  0  0  0
   25.4762  -20.6834  -10.7093 C   0  0  2  0  0  0  0  0  0  0  0  0
   24.0496  -20.8770  -10.2481 C   0  0  0  0  0  0  0  0  0  0  0  0
   25.6900  -21.5851  -11.9050 C   0  0  2  0  0  0  0  0  0  0  0  0
   27.0267  -21.3071  -12.4702 N   0  0  0  0  0  0  0  0  0  0  0  0
   24.6992  -21.4072  -12.9832 C   0  0  0  0  0  0  0  0  0  0  0  0
   24.9216  -20.5036  -13.8528 O   0  0  0  0  0  0  0  0  0  0  0  0
   23.5344  -22.1877  -13.0942 N   0  0  0  0  0  0  0  0  0  0  0  0
   22.6346  -22.0200  -14.2435 C   0  0  1  0  0  0  0  0  0  0  0  0
   21.8795  -23.2790  -14.4935 C   0  0  0  0  0  0  0  0  0  0  0  0
   20.8768  -23.2190  -15.5606 C   0  0  0  0  0  0  0  0  0  0  0  0
   19.6629  -23.3969  -15.3491 O   0  0  0  0  0  0  0  0  0  0  0  0
   21.7658  -20.8469  -14.0370 C   0  0  0  0  0  0  0  0  0  0  0  0
   21.1880  -20.6456  -12.9136 O   0  0  0  0  0  0  0  0  0  0  0  0
   21.2901  -22.9536  -16.8601 O   0  0  0  0  0  0  0  0  0  0  0  0
   21.1156  -16.8467  -17.9271 C   0  0  0  0  0  0  0  0  0  0  0  0
   20.6904  -18.0339  -17.0532 C   0  0  0  0  0  0  0  0  0  0  0  0
   20.9552  -17.6507  -15.6401 C   0  0  2  0  0  0  0  0  0  0  0  0
   22.3768  -17.3008  -15.3562 C   0  0  0  0  0  0  0  0  0  0  0  0
   20.5379  -18.7786  -14.7135 C   0  0  2  0  0  0  0  0  0  0  0  0
   21.4969  -19.8581  -15.0158 N   0  0  0  0  0  0  0  0  0  0  0  0
   19.1900  -19.2847  -14.9941 C   0  0  0  0  0  0  0  0  0  0  0  0
   18.8984  -20.3984  -15.7771 O   0  0  0  0  0  0  0  0  0  0  0  0
   18.1680  -18.6913  -14.5054 O   0  0  0  0  0  0  0  0  0  0  0  0
  2  1  1  0
  3  2  1  0
  3  5  1  0
  3  4  1  1
  5  6  1  6
  7  5  1  0
  7  8  2  0
  9  7  1  0
 10  9  1  0
 10 11  1  1
 12 16  1  0
 12 11  1  0
 13 12  2  0
 14 10  1  0
 15 14  2  0
 18 17  1  0
 19 18  1  0
 19 20  1  6
 21 19  1  0
 21 22  1  6
 22 14  1  0
 23 24  1  0
 23 21  1  0
 25 23  2  0
M  END
$$$$
