IDI.pdb
     RDKit          3D

 25 24  0  0  1  0  0  0  0  0999 V2000
   18.1909  -12.2870  -18.7768 C   0  0  0  0  0  0  0  0  0  0  0  0
   17.7798  -12.3416  -17.3169 C   0  0  0  0  0  0  0  0  0  0  0  0
   17.7906  -11.0186  -16.6583 C   0  0  2  0  0  0  0  0  0  0  0  0
   19.1521  -10.3619  -16.6398 C   0  0  0  0  0  0  0  0  0  0  0  0
   17.3254  -11.1331  -15.2234 C   0  0  2  0  0  0  0  0  0  0  0  0
   15.9489  -11.6707  -15.2171 N   0  0  0  0  0  0  0  0  0  0  0  0
   17.3133   -9.8555  -14.4865 C   0  0  0  0  0  0  0  0  0  0  0  0
   16.6323   -8.8948  -14.9718 O   0  0  0  0  0  0  0  0  0  0  0  0
   18.0096   -9.6560  -13.2807 N   0  0  0  0  0  0  0  0  0  0  0  0
   18.1323   -8.3086  -12.7079 C   0  0  1  0  0  0  0  0  0  0  0  0
   17.7095   -8.3164  -11.2800 C   0  0  0  0  0  0  0  0  0  0  0  0
   16.2647   -8.3845  -11.0441 C   0  0  0  0  0  0  0  0  0  0  0  0
   15.4323   -8.3277  -11.9682 O   0  0  0  0  0  0  0  0  0  0  0  0
   19.4999   -7.7967  -12.9112 C   0  0  0  0  0  0  0  0  0  0  0  0
   20.5170   -8.4567  -12.5034 O   0  0  0  0  0  0  0  0  0  0  0  0
   15.7996   -8.5177   -9.7418 O   0  0  0  0  0  0  0  0  0  0  0  0
   23.0327   -6.4829  -17.0984 C   0  0  0  0  0  0  0  0  0  0  0  0
   22.8394   -6.0876  -15.6286 C   0  0  0  0  0  0  0  0  0  0  0  0
   21.4709   -6.5216  -15.2378 C   0  0  2  0  0  0  0  0  0  0  0  0
   20.3784   -5.8990  -16.0394 C   0  0  0  0  0  0  0  0  0  0  0  0
   21.2325   -6.2145  -13.7702 C   0  0  2  0  0  0  0  0  0  0  0  0
   19.8183   -6.5767  -13.5580 N   0  0  0  0  0  0  0  0  0  0  0  0
   21.3841   -4.7915  -13.4483 C   0  0  0  0  0  0  0  0  0  0  0  0
   22.5855   -4.1655  -13.1267 O   0  0  0  0  0  0  0  0  0  0  0  0
   20.3625   -4.0220  -13.4481 O   0  0  0  0  0  0  0  0  0  0  0  0
  2  1  1  0
  3  2  1  0
  3  5  1  0
  3  4  1  1
  5  6  1  6
  7  5  1  0
  7  8  2  0
  9  7  1  0
 10  9  1  0
 10 11  1  1
 12 16  1  0
 12 11  1  0
 13 12  2  0
 14 10  1  0
 15 14  2  0
 18 17  1  0
 19 18  1  0
 19 20  1  6
 21 19  1  0
 21 22  1  6
 22 14  1  0
 23 24  1  0
 23 21  1  0
 25 23  2  0
M  END
$$$$
