IDI.pdb
     RDKit          3D

 25 24  0  0  1  0  0  0  0  0999 V2000
   12.4905  -12.8994  -15.0247 C   0  0  0  0  0  0  0  0  0  0  0  0
   13.9236  -12.4513  -15.2458 C   0  0  0  0  0  0  0  0  0  0  0  0
   14.4187  -11.5408  -14.1922 C   0  0  2  0  0  0  0  0  0  0  0  0
   13.6196  -10.2634  -14.0703 C   0  0  0  0  0  0  0  0  0  0  0  0
   15.8560  -11.1502  -14.4569 C   0  0  2  0  0  0  0  0  0  0  0  0
   16.6856  -12.3730  -14.4426 N   0  0  0  0  0  0  0  0  0  0  0  0
   16.4207  -10.2114  -13.4693 C   0  0  0  0  0  0  0  0  0  0  0  0
   16.6598  -10.6518  -12.2983 O   0  0  0  0  0  0  0  0  0  0  0  0
   16.7084   -8.8663  -13.7632 N   0  0  0  0  0  0  0  0  0  0  0  0
   17.2618   -7.9818  -12.7288 C   0  0  1  0  0  0  0  0  0  0  0  0
   18.2767   -7.0681  -13.3226 C   0  0  0  0  0  0  0  0  0  0  0  0
   19.4916   -7.7105  -13.8317 C   0  0  0  0  0  0  0  0  0  0  0  0
   20.2824   -8.3266  -13.0935 O   0  0  0  0  0  0  0  0  0  0  0  0
   16.1710   -7.2737  -12.0342 C   0  0  0  0  0  0  0  0  0  0  0  0
   15.2164   -6.7307  -12.6902 O   0  0  0  0  0  0  0  0  0  0  0  0
   19.7774   -7.6328  -15.1889 O   0  0  0  0  0  0  0  0  0  0  0  0
   12.4414   -8.0678   -7.6521 C   0  0  0  0  0  0  0  0  0  0  0  0
   13.0958   -6.9231   -8.4364 C   0  0  0  0  0  0  0  0  0  0  0  0
   14.2840   -7.4927   -9.1274 C   0  0  2  0  0  0  0  0  0  0  0  0
   15.3471   -7.9911   -8.2079 C   0  0  0  0  0  0  0  0  0  0  0  0
   14.8900   -6.4525  -10.0524 C   0  0  2  0  0  0  0  0  0  0  0  0
   16.0657   -7.1326  -10.6281 N   0  0  0  0  0  0  0  0  0  0  0  0
   15.3648   -5.2592   -9.3435 C   0  0  0  0  0  0  0  0  0  0  0  0
   14.5746   -4.1688   -8.9902 O   0  0  0  0  0  0  0  0  0  0  0  0
   16.5934   -5.1635   -9.0014 O   0  0  0  0  0  0  0  0  0  0  0  0
  2  1  1  0
  3  2  1  0
  3  5  1  0
  3  4  1  6
  5  6  1  1
  7  5  1  0
  7  8  2  0
  9  7  1  0
 10  9  1  0
 10 11  1  6
 12 16  1  0
 12 11  1  0
 13 12  2  0
 14 10  1  0
 15 14  2  0
 18 17  1  0
 19 18  1  0
 19 20  1  1
 21 19  1  0
 21 22  1  1
 22 14  1  0
 23 24  1  0
 23 21  1  0
 25 23  2  0
M  END
$$$$
