IDI.pdb
     RDKit          3D

 25 24  0  0  1  0  0  0  0  0999 V2000
   29.7119  -17.4864  -17.1083 C   0  0  0  0  0  0  0  0  0  0  0  0
   28.8174  -18.6896  -16.8728 C   0  0  0  0  0  0  0  0  0  0  0  0
   27.9422  -18.5429  -15.6910 C   0  0  2  0  0  0  0  0  0  0  0  0
   28.6832  -18.6141  -14.3753 C   0  0  0  0  0  0  0  0  0  0  0  0
   26.8850  -19.6248  -15.6725 C   0  0  2  0  0  0  0  0  0  0  0  0
   26.1252  -19.5613  -16.9383 N   0  0  0  0  0  0  0  0  0  0  0  0
   25.9207  -19.5110  -14.5621 C   0  0  0  0  0  0  0  0  0  0  0  0
   24.9241  -18.7331  -14.7167 O   0  0  0  0  0  0  0  0  0  0  0  0
   26.0500  -20.2211  -13.3549 N   0  0  0  0  0  0  0  0  0  0  0  0
   25.0001  -20.1415  -12.3301 C   0  0  1  0  0  0  0  0  0  0  0  0
   23.6880  -20.5476  -12.9055 C   0  0  0  0  0  0  0  0  0  0  0  0
   22.5567  -20.5474  -11.9740 C   0  0  0  0  0  0  0  0  0  0  0  0
   22.5126  -19.8058  -10.9749 O   0  0  0  0  0  0  0  0  0  0  0  0
   25.3898  -20.9292  -11.1464 C   0  0  0  0  0  0  0  0  0  0  0  0
   25.4642  -22.2051  -11.2003 O   0  0  0  0  0  0  0  0  0  0  0  0
   21.4893  -21.4049  -12.2092 O   0  0  0  0  0  0  0  0  0  0  0  0
   27.2070  -19.1125   -6.1032 C   0  0  0  0  0  0  0  0  0  0  0  0
   26.7198  -19.2620   -7.5504 C   0  0  0  0  0  0  0  0  0  0  0  0
   27.1278  -20.6174   -8.0090 C   0  0  2  0  0  0  0  0  0  0  0  0
   28.3284  -20.6293   -8.8935 C   0  0  0  0  0  0  0  0  0  0  0  0
   25.9765  -21.2810   -8.7433 C   0  0  2  0  0  0  0  0  0  0  0  0
   25.7161  -20.3796   -9.8816 N   0  0  0  0  0  0  0  0  0  0  0  0
   24.7504  -21.3568   -7.9417 C   0  0  0  0  0  0  0  0  0  0  0  0
   23.5629  -20.6883   -8.2273 O   0  0  0  0  0  0  0  0  0  0  0  0
   24.7178  -22.0793   -6.8869 O   0  0  0  0  0  0  0  0  0  0  0  0
  2  1  1  0
  3  2  1  0
  3  5  1  0
  3  4  1  1
  5  6  1  6
  7  5  1  0
  7  8  2  0
  9  7  1  0
 10  9  1  0
 10 11  1  6
 12 16  1  0
 12 11  1  0
 13 12  2  0
 14 10  1  0
 15 14  2  0
 18 17  1  0
 19 18  1  0
 19 20  1  6
 21 19  1  0
 21 22  1  6
 22 14  1  0
 23 24  1  0
 23 21  1  0
 25 23  2  0
M  END
$$$$
