IDI.pdb
     RDKit          3D

 25 24  0  0  1  0  0  0  0  0999 V2000
   27.8553  -20.7319   -6.8576 C   0  0  0  0  0  0  0  0  0  0  0  0
   28.4181  -20.0633   -8.0985 C   0  0  0  0  0  0  0  0  0  0  0  0
   27.4866  -20.0849   -9.2456 C   0  0  2  0  0  0  0  0  0  0  0  0
   26.0298  -20.1127   -8.8429 C   0  0  0  0  0  0  0  0  0  0  0  0
   27.7378  -21.2978  -10.1140 C   0  0  2  0  0  0  0  0  0  0  0  0
   29.1624  -21.3080  -10.5065 N   0  0  0  0  0  0  0  0  0  0  0  0
   26.9304  -21.3375  -11.3478 C   0  0  0  0  0  0  0  0  0  0  0  0
   27.2860  -20.5905  -12.3162 O   0  0  0  0  0  0  0  0  0  0  0  0
   25.7999  -22.1601  -11.5015 N   0  0  0  0  0  0  0  0  0  0  0  0
   25.0947  -22.2206  -12.7890 C   0  0  1  0  0  0  0  0  0  0  0  0
   24.8813  -23.6382  -13.1923 C   0  0  0  0  0  0  0  0  0  0  0  0
   24.2415  -23.8402  -14.4952 C   0  0  0  0  0  0  0  0  0  0  0  0
   23.2698  -24.6024  -14.6527 O   0  0  0  0  0  0  0  0  0  0  0  0
   23.8476  -21.4374  -12.7184 C   0  0  0  0  0  0  0  0  0  0  0  0
   23.1828  -21.3554  -11.6286 O   0  0  0  0  0  0  0  0  0  0  0  0
   24.7331  -23.1578  -15.6009 O   0  0  0  0  0  0  0  0  0  0  0  0
   20.9008  -16.9926  -15.6243 C   0  0  0  0  0  0  0  0  0  0  0  0
   20.7929  -18.0926  -14.5602 C   0  0  0  0  0  0  0  0  0  0  0  0
   22.0397  -18.9006  -14.6417 C   0  0  2  0  0  0  0  0  0  0  0  0
   22.2984  -19.4940  -15.9852 C   0  0  0  0  0  0  0  0  0  0  0  0
   21.9967  -20.0193  -13.6163 C   0  0  2  0  0  0  0  0  0  0  0  0
   23.2826  -20.7184  -13.8010 N   0  0  0  0  0  0  0  0  0  0  0  0
   20.9213  -20.9857  -13.8641 C   0  0  0  0  0  0  0  0  0  0  0  0
   19.7007  -21.0163  -13.1951 O   0  0  0  0  0  0  0  0  0  0  0  0
   21.0671  -21.8926  -14.7540 O   0  0  0  0  0  0  0  0  0  0  0  0
  2  1  1  0
  3  2  1  0
  3  5  1  0
  3  4  1  1
  5  6  1  6
  7  5  1  0
  7  8  2  0
  9  7  1  0
 10  9  1  0
 10 11  1  1
 12 16  1  0
 12 11  1  0
 13 12  2  0
 14 10  1  0
 15 14  2  0
 18 17  1  0
 19 18  1  0
 19 20  1  6
 21 19  1  0
 21 22  1  6
 22 14  1  0
 23 24  1  0
 23 21  1  0
 25 23  2  0
M  END
$$$$
