IDI.pdb
     RDKit          3D

 25 24  0  0  1  0  0  0  0  0999 V2000
   19.2338  -16.9301  -19.1442 C   0  0  0  0  0  0  0  0  0  0  0  0
   18.5781  -15.6608  -18.6323 C   0  0  0  0  0  0  0  0  0  0  0  0
   19.5299  -14.5446  -18.4525 C   0  0  2  0  0  0  0  0  0  0  0  0
   20.6155  -14.8309  -17.4401 C   0  0  0  0  0  0  0  0  0  0  0  0
   18.8076  -13.2954  -17.9985 C   0  0  2  0  0  0  0  0  0  0  0  0
   17.6797  -13.0437  -18.9194 N   0  0  0  0  0  0  0  0  0  0  0  0
   19.6486  -12.0839  -17.9747 C   0  0  0  0  0  0  0  0  0  0  0  0
   20.6698  -12.0829  -17.2134 O   0  0  0  0  0  0  0  0  0  0  0  0
   19.3775  -10.9436  -18.7523 N   0  0  0  0  0  0  0  0  0  0  0  0
   20.2015   -9.7353  -18.6116 C   0  0  1  0  0  0  0  0  0  0  0  0
   19.9618   -8.8132  -19.7561 C   0  0  0  0  0  0  0  0  0  0  0  0
   20.6707   -7.5318  -19.7007 C   0  0  0  0  0  0  0  0  0  0  0  0
   21.8045   -7.4153  -19.1999 O   0  0  0  0  0  0  0  0  0  0  0  0
   19.9624   -9.1120  -17.2970 C   0  0  0  0  0  0  0  0  0  0  0  0
   18.7759   -8.9782  -16.8382 O   0  0  0  0  0  0  0  0  0  0  0  0
   20.0597   -6.3999  -20.2256 O   0  0  0  0  0  0  0  0  0  0  0  0
   20.3414   -9.5036  -11.8096 C   0  0  0  0  0  0  0  0  0  0  0  0
   20.7266   -8.3633  -12.7610 C   0  0  0  0  0  0  0  0  0  0  0  0
   20.9248   -8.9673  -14.1063 C   0  0  2  0  0  0  0  0  0  0  0  0
   22.2991   -9.4948  -14.3446 C   0  0  0  0  0  0  0  0  0  0  0  0
   20.6029   -7.9457  -15.1822 C   0  0  2  0  0  0  0  0  0  0  0  0
   20.9779   -8.6237  -16.4376 N   0  0  0  0  0  0  0  0  0  0  0  0
   21.4079   -6.7241  -15.0747 C   0  0  0  0  0  0  0  0  0  0  0  0
   21.2376   -5.7337  -14.1111 O   0  0  0  0  0  0  0  0  0  0  0  0
   22.3524   -6.5035  -15.9083 O   0  0  0  0  0  0  0  0  0  0  0  0
  2  1  1  0
  3  2  1  0
  3  5  1  0
  3  4  1  1
  5  6  1  6
  7  5  1  0
  7  8  2  0
  9  7  1  0
 10  9  1  0
 10 11  1  6
 12 16  1  0
 12 11  1  0
 13 12  2  0
 14 10  1  0
 15 14  2  0
 18 17  1  0
 19 18  1  0
 19 20  1  1
 21 19  1  0
 21 22  1  6
 22 14  1  0
 23 24  1  0
 23 21  1  0
 25 23  2  0
M  END
$$$$
