IDI.pdb
     RDKit          3D

 25 24  0  0  1  0  0  0  0  0999 V2000
   29.3539  -18.3033  -18.8930 C   0  0  0  0  0  0  0  0  0  0  0  0
   28.9118  -17.0698  -18.1274 C   0  0  0  0  0  0  0  0  0  0  0  0
   27.9637  -17.3709  -17.0344 C   0  0  2  0  0  0  0  0  0  0  0  0
   28.3548  -18.5742  -16.2071 C   0  0  0  0  0  0  0  0  0  0  0  0
   26.5797  -17.6331  -17.5857 C   0  0  2  0  0  0  0  0  0  0  0  0
   26.1986  -16.5018  -18.4567 N   0  0  0  0  0  0  0  0  0  0  0  0
   25.5346  -17.7800  -16.5553 C   0  0  0  0  0  0  0  0  0  0  0  0
   25.7040  -17.1783  -15.4456 O   0  0  0  0  0  0  0  0  0  0  0  0
   24.3687  -18.5436  -16.7452 N   0  0  0  0  0  0  0  0  0  0  0  0
   23.3606  -18.6376  -15.6805 C   0  0  1  0  0  0  0  0  0  0  0  0
   21.9975  -18.4305  -16.2432 C   0  0  0  0  0  0  0  0  0  0  0  0
   20.8910  -18.5408  -15.2886 C   0  0  0  0  0  0  0  0  0  0  0  0
   20.9140  -17.9925  -14.1711 O   0  0  0  0  0  0  0  0  0  0  0  0
   23.5082  -19.9139  -14.9573 C   0  0  0  0  0  0  0  0  0  0  0  0
   23.6355  -21.0182  -15.5905 O   0  0  0  0  0  0  0  0  0  0  0  0
   19.7705  -19.2840  -15.6380 O   0  0  0  0  0  0  0  0  0  0  0  0
   25.5711  -20.2430   -9.9109 C   0  0  0  0  0  0  0  0  0  0  0  0
   24.4131  -20.2547  -10.9172 C   0  0  0  0  0  0  0  0  0  0  0  0
   24.7391  -21.2814  -11.9437 C   0  0  2  0  0  0  0  0  0  0  0  0
   26.0056  -21.0234  -12.6875 C   0  0  0  0  0  0  0  0  0  0  0  0
   23.6017  -21.3898  -12.9434 C   0  0  2  0  0  0  0  0  0  0  0  0
   23.5312  -20.0454  -13.5465 N   0  0  0  0  0  0  0  0  0  0  0  0
   22.3064  -21.6670  -12.3132 C   0  0  0  0  0  0  0  0  0  0  0  0
   21.2478  -20.7668  -12.2263 O   0  0  0  0  0  0  0  0  0  0  0  0
   22.0816  -22.8104  -11.7863 O   0  0  0  0  0  0  0  0  0  0  0  0
  2  1  1  0
  3  2  1  0
  3  5  1  0
  3  4  1  6
  5  6  1  6
  7  5  1  0
  7  8  2  0
  9  7  1  0
 10  9  1  0
 10 11  1  6
 12 16  1  0
 12 11  1  0
 13 12  2  0
 14 10  1  0
 15 14  2  0
 18 17  1  0
 19 18  1  0
 19 20  1  6
 21 19  1  0
 21 22  1  1
 22 14  1  0
 23 24  1  0
 23 21  1  0
 25 23  2  0
M  END
$$$$
