IDI.pdb
     RDKit          3D

 25 24  0  0  1  0  0  0  0  0999 V2000
   20.7012  -18.7295  -12.1944 C   0  0  0  0  0  0  0  0  0  0  0  0
   20.6233  -20.1430  -11.6473 C   0  0  0  0  0  0  0  0  0  0  0  0
   21.8137  -20.5305  -10.8618 C   0  0  2  0  0  0  0  0  0  0  0  0
   22.1740  -19.5395   -9.7786 C   0  0  0  0  0  0  0  0  0  0  0  0
   23.0218  -20.6755  -11.7605 C   0  0  2  0  0  0  0  0  0  0  0  0
   22.7421  -21.7297  -12.7576 N   0  0  0  0  0  0  0  0  0  0  0  0
   24.2629  -21.0427  -11.0531 C   0  0  0  0  0  0  0  0  0  0  0  0
   24.3033  -22.1745  -10.4703 O   0  0  0  0  0  0  0  0  0  0  0  0
   25.3938  -20.2079  -10.9993 N   0  0  0  0  0  0  0  0  0  0  0  0
   26.5940  -20.6295  -10.2643 C   0  0  1  0  0  0  0  0  0  0  0  0
   27.8099  -20.4089  -11.0953 C   0  0  0  0  0  0  0  0  0  0  0  0
   27.9551  -21.2894  -12.2578 C   0  0  0  0  0  0  0  0  0  0  0  0
   27.1402  -22.1940  -12.5181 O   0  0  0  0  0  0  0  0  0  0  0  0
   26.6480  -19.9525   -8.9557 C   0  0  0  0  0  0  0  0  0  0  0  0
   26.0671  -18.8277   -8.7723 O   0  0  0  0  0  0  0  0  0  0  0  0
   29.0412  -21.1131  -13.1059 O   0  0  0  0  0  0  0  0  0  0  0  0
   27.8257  -22.3987   -4.0289 C   0  0  0  0  0  0  0  0  0  0  0  0
   27.0826  -21.5328   -5.0546 C   0  0  0  0  0  0  0  0  0  0  0  0
   28.0612  -20.5414   -5.5774 C   0  0  2  0  0  0  0  0  0  0  0  0
   28.6962  -19.6947   -4.5267 C   0  0  0  0  0  0  0  0  0  0  0  0
   27.3848  -19.6342   -6.5895 C   0  0  2  0  0  0  0  0  0  0  0  0
   27.3135  -20.4580   -7.8112 N   0  0  0  0  0  0  0  0  0  0  0  0
   28.1699  -18.4352   -6.9024 C   0  0  0  0  0  0  0  0  0  0  0  0
   28.0019  -17.1884   -6.3059 O   0  0  0  0  0  0  0  0  0  0  0  0
   29.0929  -18.4861   -7.7861 O   0  0  0  0  0  0  0  0  0  0  0  0
  2  1  1  0
  3  2  1  0
  3  5  1  0
  3  4  1  1
  5  6  1  6
  7  5  1  0
  7  8  2  0
  9  7  1  0
 10  9  1  0
 10 11  1  6
 12 16  1  0
 12 11  1  0
 13 12  2  0
 14 10  1  0
 15 14  2  0
 18 17  1  0
 19 18  1  0
 19 20  1  1
 21 19  1  0
 21 22  1  6
 22 14  1  0
 23 24  1  0
 23 21  1  0
 25 23  2  0
M  END
$$$$
