IDI.pdb
     RDKit          3D

 25 24  0  0  1  0  0  0  0  0999 V2000
   20.9010  -17.6005  -16.3444 C   0  0  0  0  0  0  0  0  0  0  0  0
   19.6578  -16.8714  -16.8200 C   0  0  0  0  0  0  0  0  0  0  0  0
   19.7586  -15.4026  -16.6917 C   0  0  2  0  0  0  0  0  0  0  0  0
   19.9732  -14.9316  -15.2714 C   0  0  0  0  0  0  0  0  0  0  0  0
   18.5013  -14.7348  -17.2033 C   0  0  2  0  0  0  0  0  0  0  0  0
   18.2476  -15.2036  -18.5815 N   0  0  0  0  0  0  0  0  0  0  0  0
   18.5668  -13.2616  -17.2335 C   0  0  0  0  0  0  0  0  0  0  0  0
   19.3648  -12.7182  -18.0642 O   0  0  0  0  0  0  0  0  0  0  0  0
   17.7902  -12.4395  -16.3971 N   0  0  0  0  0  0  0  0  0  0  0  0
   17.9202  -10.9775  -16.4641 C   0  0  1  0  0  0  0  0  0  0  0  0
   16.5838  -10.3355  -16.3243 C   0  0  0  0  0  0  0  0  0  0  0  0
   16.5820   -8.8705  -16.2869 C   0  0  0  0  0  0  0  0  0  0  0  0
   17.3003   -8.1811  -17.0343 O   0  0  0  0  0  0  0  0  0  0  0  0
   18.9011  -10.5121  -15.4667 C   0  0  0  0  0  0  0  0  0  0  0  0
   18.7985  -10.8476  -14.2365 O   0  0  0  0  0  0  0  0  0  0  0  0
   15.7489   -8.2200  -15.3854 O   0  0  0  0  0  0  0  0  0  0  0  0
   24.3311  -10.7776  -14.0024 C   0  0  0  0  0  0  0  0  0  0  0  0
   23.1615   -9.8025  -13.8148 C   0  0  0  0  0  0  0  0  0  0  0  0
   22.1391  -10.1474  -14.8394 C   0  0  2  0  0  0  0  0  0  0  0  0
   22.6151  -10.0200  -16.2469 C   0  0  0  0  0  0  0  0  0  0  0  0
   20.9132   -9.2700  -14.6596 C   0  0  2  0  0  0  0  0  0  0  0  0
   20.0163   -9.6864  -15.7542 N   0  0  0  0  0  0  0  0  0  0  0  0
   21.1980   -7.8414  -14.8321 C   0  0  0  0  0  0  0  0  0  0  0  0
   21.6815   -6.9943  -13.8385 O   0  0  0  0  0  0  0  0  0  0  0  0
   21.0027   -7.2811  -15.9650 O   0  0  0  0  0  0  0  0  0  0  0  0
  2  1  1  0
  3  2  1  0
  3  5  1  0
  3  4  1  1
  5  6  1  6
  7  5  1  0
  7  8  2  0
  9  7  1  0
 10  9  1  0
 10 11  1  1
 12 16  1  0
 12 11  1  0
 13 12  2  0
 14 10  1  0
 15 14  2  0
 18 17  1  0
 19 18  1  0
 19 20  1  6
 21 19  1  0
 21 22  1  6
 22 14  1  0
 23 24  1  0
 23 21  1  0
 25 23  2  0
M  END
$$$$
