IDI.pdb
     RDKit          3D

 25 24  0  0  1  0  0  0  0  0999 V2000
   14.5878  -14.8671  -15.4074 C   0  0  0  0  0  0  0  0  0  0  0  0
   15.4813  -14.6020  -16.6052 C   0  0  0  0  0  0  0  0  0  0  0  0
   16.4667  -13.5260  -16.3705 C   0  0  2  0  0  0  0  0  0  0  0  0
   15.8393  -12.1914  -16.0382 C   0  0  0  0  0  0  0  0  0  0  0  0
   17.3368  -13.3238  -17.5914 C   0  0  2  0  0  0  0  0  0  0  0  0
   18.0191  -14.5981  -17.8985 N   0  0  0  0  0  0  0  0  0  0  0  0
   18.3723  -12.2854  -17.4325 C   0  0  0  0  0  0  0  0  0  0  0  0
   19.4599  -12.6126  -16.8561 O   0  0  0  0  0  0  0  0  0  0  0  0
   18.2142  -10.9648  -17.8901 N   0  0  0  0  0  0  0  0  0  0  0  0
   19.3381  -10.0200  -17.8351 C   0  0  1  0  0  0  0  0  0  0  0  0
   19.1470   -8.9347  -18.8367 C   0  0  0  0  0  0  0  0  0  0  0  0
   20.1766   -7.8918  -18.8498 C   0  0  0  0  0  0  0  0  0  0  0  0
   21.3868   -8.1443  -18.7031 O   0  0  0  0  0  0  0  0  0  0  0  0
   19.5120   -9.5226  -16.4581 C   0  0  0  0  0  0  0  0  0  0  0  0
   18.5004   -9.2613  -15.7201 O   0  0  0  0  0  0  0  0  0  0  0  0
   19.7941   -6.5689  -19.0328 O   0  0  0  0  0  0  0  0  0  0  0  0
   22.7399  -10.3599  -11.6083 C   0  0  0  0  0  0  0  0  0  0  0  0
   21.8634   -9.3097  -12.3031 C   0  0  0  0  0  0  0  0  0  0  0  0
   21.6670   -9.7661  -13.7057 C   0  0  2  0  0  0  0  0  0  0  0  0
   22.9331   -9.9679  -14.4673 C   0  0  0  0  0  0  0  0  0  0  0  0
   20.8023   -8.7687  -14.4557 C   0  0  2  0  0  0  0  0  0  0  0  0
   20.7633   -9.2986  -15.8319 N   0  0  0  0  0  0  0  0  0  0  0  0
   21.3884   -7.4251  -14.5090 C   0  0  0  0  0  0  0  0  0  0  0  0
   21.2589   -6.4539  -13.5198 O   0  0  0  0  0  0  0  0  0  0  0  0
   22.0811   -7.0678  -15.5229 O   0  0  0  0  0  0  0  0  0  0  0  0
  2  1  1  0
  3  2  1  0
  3  5  1  0
  3  4  1  6
  5  6  1  1
  7  5  1  0
  7  8  2  0
  9  7  1  0
 10  9  1  0
 10 11  1  6
 12 16  1  0
 12 11  1  0
 13 12  2  0
 14 10  1  0
 15 14  2  0
 18 17  1  0
 19 18  1  0
 19 20  1  6
 21 19  1  0
 21 22  1  6
 22 14  1  0
 23 24  1  0
 23 21  1  0
 25 23  2  0
M  END
$$$$
