IDI.pdb
     RDKit          3D

 25 24  0  0  1  0  0  0  0  0999 V2000
   11.4716  -13.5717  -14.0090 C   0  0  0  0  0  0  0  0  0  0  0  0
   12.8466  -13.2121  -14.5413 C   0  0  0  0  0  0  0  0  0  0  0  0
   13.5728  -12.2549  -13.6808 C   0  0  2  0  0  0  0  0  0  0  0  0
   12.8761  -10.9211  -13.5357 C   0  0  0  0  0  0  0  0  0  0  0  0
   14.9551  -11.9841  -14.2323 C   0  0  2  0  0  0  0  0  0  0  0  0
   15.6971  -13.2608  -14.2886 N   0  0  0  0  0  0  0  0  0  0  0  0
   15.7518  -11.0352  -13.4320 C   0  0  0  0  0  0  0  0  0  0  0  0
   16.3002  -11.4683  -12.3672 O   0  0  0  0  0  0  0  0  0  0  0  0
   15.9345   -9.6880  -13.7930 N   0  0  0  0  0  0  0  0  0  0  0  0
   16.7801   -8.8079  -12.9751 C   0  0  1  0  0  0  0  0  0  0  0  0
   17.6778   -8.0013  -13.8475 C   0  0  0  0  0  0  0  0  0  0  0  0
   18.5145   -7.0136  -13.1604 C   0  0  0  0  0  0  0  0  0  0  0  0
   19.2630   -7.3144  -12.2121 O   0  0  0  0  0  0  0  0  0  0  0  0
   15.9402   -7.9889  -12.0820 C   0  0  0  0  0  0  0  0  0  0  0  0
   14.9266   -7.3520  -12.5329 O   0  0  0  0  0  0  0  0  0  0  0  0
   18.4757   -5.6893  -13.5784 O   0  0  0  0  0  0  0  0  0  0  0  0
   12.7068   -9.1016   -8.3795 C   0  0  0  0  0  0  0  0  0  0  0  0
   13.3269   -8.1819   -9.4394 C   0  0  0  0  0  0  0  0  0  0  0  0
   14.6288   -7.7084   -8.8966 C   0  0  2  0  0  0  0  0  0  0  0  0
   14.5169   -6.9232   -7.6337 C   0  0  0  0  0  0  0  0  0  0  0  0
   15.3420   -6.8605   -9.9345 C   0  0  2  0  0  0  0  0  0  0  0  0
   16.1536   -7.8337  -10.6897 N   0  0  0  0  0  0  0  0  0  0  0  0
   16.2560   -5.8767   -9.3442 C   0  0  0  0  0  0  0  0  0  0  0  0
   15.9462   -4.5423   -9.0955 O   0  0  0  0  0  0  0  0  0  0  0  0
   17.4429   -6.2212   -9.0151 O   0  0  0  0  0  0  0  0  0  0  0  0
  2  1  1  0
  3  2  1  0
  3  5  1  0
  3  4  1  6
  5  6  1  1
  7  5  1  0
  7  8  2  0
  9  7  1  0
 10  9  1  0
 10 11  1  6
 12 16  1  0
 12 11  1  0
 13 12  2  0
 14 10  1  0
 15 14  2  0
 18 17  1  0
 19 18  1  0
 19 20  1  1
 21 19  1  0
 21 22  1  6
 22 14  1  0
 23 24  1  0
 23 21  1  0
 25 23  2  0
M  END
$$$$
