YCC.pdb
     RDKit          3D

 25 25  0  0  1  0  0  0  0  0999 V2000
   10.4501  -14.1146   30.5663 O   0  0  0  0  0  0  0  0  0  0  0  0
   10.2104  -14.6297   29.2884 C   0  0  0  0  0  0  0  0  0  0  0  0
    9.6441  -13.8181   28.3381 C   0  0  0  0  0  0  0  0  0  0  0  0
    9.3970  -14.3049   27.0661 C   0  0  0  0  0  0  0  0  0  0  0  0
    9.7014  -15.5998   26.7017 C   0  0  0  0  0  0  0  0  0  0  0  0
    9.4215  -16.0868   25.3266 C   0  0  0  0  0  0  0  0  0  0  0  0
    7.9121  -16.1636   25.1821 C   0  0  2  0  0  0  0  0  0  0  0  0
    7.3730  -17.2334   25.9694 N   0  0  0  0  0  0  0  0  0  0  0  0
    7.4827  -16.1823   23.7811 C   0  0  0  0  0  0  0  0  0  0  0  0
    7.2708  -17.3087   23.2195 O   0  0  0  0  0  0  0  0  0  0  0  0
   10.2701  -16.4059   27.6655 C   0  0  0  0  0  0  0  0  0  0  0  0
   10.5249  -15.9287   28.9520 C   0  0  0  0  0  0  0  0  0  0  0  0
    7.2921  -14.9974   23.0222 N   0  0  0  0  0  0  0  0  0  0  0  0
    7.4178  -15.0636   21.5887 C   0  0  1  0  0  0  0  0  0  0  0  0
    7.2051  -13.6809   20.9657 C   0  0  0  0  0  0  0  0  0  0  0  0
    7.2757  -13.8014   19.1615 S   0  0  0  0  0  0  0  0  0  0  0  0
    8.7950  -15.4713   21.1747 C   0  0  0  0  0  0  0  0  0  0  0  0
    9.7975  -14.8591   21.6203 O   0  0  0  0  0  0  0  0  0  0  0  0
    9.0164  -16.5457   20.2791 N   0  0  0  0  0  0  0  0  0  0  0  0
   10.2962  -16.9765   19.8111 C   0  0  1  0  0  0  0  0  0  0  0  0
   10.6635  -18.3434   20.3695 C   0  0  0  0  0  0  0  0  0  0  0  0
   10.5638  -18.3849   22.1612 S   0  0  0  0  0  0  0  0  0  0  0  0
   10.4116  -17.0011   18.3441 C   0  0  0  0  0  0  0  0  0  0  0  0
    9.4605  -16.7789   17.5783 O   0  0  0  0  0  0  0  0  0  0  0  0
   11.6591  -17.2901   17.7994 O   0  0  0  0  0  0  0  0  0  0  0  0
  1  2  1  0
  2 12  2  0
  3  4  2  0
  3  2  1  0
  4  5  1  0
  5  6  1  0
  5 11  2  0
  6  7  1  0
  7  9  1  0
  7  8  1  6
  9 10  2  0
 12 11  1  0
 13  9  1  0
 13 14  1  0
 14 17  1  0
 14 15  1  6
 16 15  1  0
 17 18  2  0
 19 17  1  0
 19 20  1  0
 20 23  1  0
 20 21  1  6
 22 21  1  0
 23 24  2  0
 23 25  1  0
M  END
$$$$
