YCC.pdb
     RDKit          3D

 25 25  0  0  1  0  0  0  0  0999 V2000
   12.8956  -31.1156   37.4302 O   0  0  0  0  0  0  0  0  0  0  0  0
   13.3947  -30.0714   36.6452 C   0  0  0  0  0  0  0  0  0  0  0  0
   14.1262  -30.3714   35.5238 C   0  0  0  0  0  0  0  0  0  0  0  0
   14.6308  -29.3553   34.7308 C   0  0  0  0  0  0  0  0  0  0  0  0
   14.4270  -28.0230   35.0234 C   0  0  0  0  0  0  0  0  0  0  0  0
   14.9843  -26.9600   34.1484 C   0  0  0  0  0  0  0  0  0  0  0  0
   13.8249  -26.3872   33.3530 C   0  0  2  0  0  0  0  0  0  0  0  0
   12.9929  -27.4312   32.8308 N   0  0  0  0  0  0  0  0  0  0  0  0
   14.2606  -25.4153   32.3465 C   0  0  0  0  0  0  0  0  0  0  0  0
   13.8984  -25.5835   31.1343 O   0  0  0  0  0  0  0  0  0  0  0  0
   13.6903  -27.7341   36.1531 C   0  0  0  0  0  0  0  0  0  0  0  0
   13.1753  -28.7481   36.9620 C   0  0  0  0  0  0  0  0  0  0  0  0
   15.0698  -24.2929   32.6650 N   0  0  0  0  0  0  0  0  0  0  0  0
   15.3537  -23.3272   31.6345 C   0  0  1  0  0  0  0  0  0  0  0  0
   14.0990  -22.5170   31.2960 C   0  0  0  0  0  0  0  0  0  0  0  0
   13.2601  -22.0167   32.8194 S   0  0  0  0  0  0  0  0  0  0  0  0
   16.3600  -22.3187   32.0868 C   0  0  0  0  0  0  0  0  0  0  0  0
   16.7638  -21.4288   31.2972 O   0  0  0  0  0  0  0  0  0  0  0  0
   16.8866  -22.3294   33.4014 N   0  0  0  0  0  0  0  0  0  0  0  0
   17.8770  -21.4270   33.8985 C   0  0  1  0  0  0  0  0  0  0  0  0
   17.5450  -20.9542   35.3061 C   0  0  0  0  0  0  0  0  0  0  0  0
   16.0005  -20.0412   35.3602 S   0  0  0  0  0  0  0  0  0  0  0  0
   19.2419  -21.9770   33.8772 C   0  0  0  0  0  0  0  0  0  0  0  0
   19.5144  -23.1182   33.4724 O   0  0  0  0  0  0  0  0  0  0  0  0
   20.2729  -21.1639   34.3381 O   0  0  0  0  0  0  0  0  0  0  0  0
  1  2  1  0
  2 12  2  0
  3  4  2  0
  3  2  1  0
  4  5  1  0
  5  6  1  0
  5 11  2  0
  6  7  1  0
  7  9  1  0
  7  8  1  6
  9 10  2  0
 12 11  1  0
 13  9  1  0
 13 14  1  0
 14 17  1  0
 14 15  1  1
 16 15  1  0
 17 18  2  0
 19 17  1  0
 19 20  1  0
 20 23  1  0
 20 21  1  1
 22 21  1  0
 23 24  2  0
 23 25  1  0
M  END
$$$$
