YCC.pdb
     RDKit          3D

 25 25  0  0  1  0  0  0  0  0999 V2000
    7.6312  -13.7967   15.5061 O   0  0  0  0  0  0  0  0  0  0  0  0
    7.5862  -14.0224   16.8855 C   0  0  0  0  0  0  0  0  0  0  0  0
    7.3925  -15.3004   17.3458 C   0  0  0  0  0  0  0  0  0  0  0  0
    7.3442  -15.5491   18.7065 C   0  0  0  0  0  0  0  0  0  0  0  0
    7.4853  -14.5469   19.6434 C   0  0  0  0  0  0  0  0  0  0  0  0
    7.4278  -14.8524   21.0959 C   0  0  0  0  0  0  0  0  0  0  0  0
    8.7751  -14.4714   21.6828 C   0  0  2  0  0  0  0  0  0  0  0  0
    9.8329  -15.2252   21.0763 N   0  0  0  0  0  0  0  0  0  0  0  0
    8.7810  -14.5122   23.1476 C   0  0  0  0  0  0  0  0  0  0  0  0
    9.5781  -15.3171   23.7356 O   0  0  0  0  0  0  0  0  0  0  0  0
    7.6795  -13.2666   19.1686 C   0  0  0  0  0  0  0  0  0  0  0  0
    7.7304  -13.0009   17.7994 C   0  0  0  0  0  0  0  0  0  0  0  0
    7.9356  -13.6918   23.9404 N   0  0  0  0  0  0  0  0  0  0  0  0
    8.0318  -13.7779   25.3751 C   0  0  1  0  0  0  0  0  0  0  0  0
    6.9737  -12.8920   26.0393 C   0  0  0  0  0  0  0  0  0  0  0  0
    7.0698  -13.0622   27.8382 S   0  0  0  0  0  0  0  0  0  0  0  0
    7.7465  -15.1612   25.8643 C   0  0  0  0  0  0  0  0  0  0  0  0
    6.6885  -15.7474   25.5247 O   0  0  0  0  0  0  0  0  0  0  0  0
    8.6445  -15.8506   26.7153 N   0  0  0  0  0  0  0  0  0  0  0  0
    8.5018  -17.2093   27.1345 C   0  0  1  0  0  0  0  0  0  0  0  0
    8.6153  -18.1705   25.9605 C   0  0  0  0  0  0  0  0  0  0  0  0
   10.2324  -18.0944   25.1852 S   0  0  0  0  0  0  0  0  0  0  0  0
    9.4531  -17.6068   28.1848 C   0  0  0  0  0  0  0  0  0  0  0  0
    9.4695  -18.7344   28.7032 O   0  0  0  0  0  0  0  0  0  0  0  0
   10.3783  -16.6584   28.6104 O   0  0  0  0  0  0  0  0  0  0  0  0
  1  2  1  0
  2 12  2  0
  3  4  2  0
  3  2  1  0
  4  5  1  0
  5  6  1  0
  5 11  2  0
  6  7  1  0
  7  9  1  0
  7  8  1  6
  9 10  2  0
 12 11  1  0
 13  9  1  0
 13 14  1  0
 14 17  1  0
 14 15  1  1
 16 15  1  0
 17 18  2  0
 19 17  1  0
 19 20  1  0
 20 23  1  0
 20 21  1  6
 22 21  1  0
 23 24  2  0
 23 25  1  0
M  END
$$$$
