YCC.pdb
     RDKit          3D

 25 25  0  0  1  0  0  0  0  0999 V2000
   11.4459  -27.7882   35.5832 O   0  0  0  0  0  0  0  0  0  0  0  0
   11.4007  -27.0510   34.3956 C   0  0  0  0  0  0  0  0  0  0  0  0
   10.3602  -27.2538   33.5245 C   0  0  0  0  0  0  0  0  0  0  0  0
   10.2933  -26.5364   32.3427 C   0  0  0  0  0  0  0  0  0  0  0  0
   11.2478  -25.6045   31.9924 C   0  0  0  0  0  0  0  0  0  0  0  0
   11.1423  -24.8536   30.7151 C   0  0  0  0  0  0  0  0  0  0  0  0
   10.5877  -23.4811   31.0522 C   0  0  2  0  0  0  0  0  0  0  0  0
    9.2432  -23.5745   31.5406 N   0  0  0  0  0  0  0  0  0  0  0  0
   10.7562  -22.5230   29.9563 C   0  0  0  0  0  0  0  0  0  0  0  0
    9.8303  -22.4196   29.0840 O   0  0  0  0  0  0  0  0  0  0  0  0
   12.2887  -25.4095   32.8760 C   0  0  0  0  0  0  0  0  0  0  0  0
   12.3691  -26.1256   34.0712 C   0  0  0  0  0  0  0  0  0  0  0  0
   11.9086  -21.7038   29.8251 N   0  0  0  0  0  0  0  0  0  0  0  0
   11.9644  -20.7522   28.7450 C   0  0  1  0  0  0  0  0  0  0  0  0
   12.5983  -19.4402   29.2164 C   0  0  0  0  0  0  0  0  0  0  0  0
   11.3962  -18.4853   30.1744 S   0  0  0  0  0  0  0  0  0  0  0  0
   12.8402  -21.2320   27.6328 C   0  0  0  0  0  0  0  0  0  0  0  0
   13.9235  -21.8154   27.8865 O   0  0  0  0  0  0  0  0  0  0  0  0
   12.4860  -21.0493   26.2738 N   0  0  0  0  0  0  0  0  0  0  0  0
   13.2031  -21.5812   25.1580 C   0  0  1  0  0  0  0  0  0  0  0  0
   12.2632  -22.2014   24.1347 C   0  0  0  0  0  0  0  0  0  0  0  0
   12.3783  -23.9926   24.1172 S   0  0  0  0  0  0  0  0  0  0  0  0
   14.0718  -20.5982   24.4906 C   0  0  0  0  0  0  0  0  0  0  0  0
   13.7486  -19.4148   24.3023 O   0  0  0  0  0  0  0  0  0  0  0  0
   15.3194  -21.0317   24.0523 O   0  0  0  0  0  0  0  0  0  0  0  0
  1  2  1  0
  2 12  2  0
  3  4  2  0
  3  2  1  0
  4  5  1  0
  5  6  1  0
  5 11  2  0
  6  7  1  0
  7  9  1  0
  7  8  1  6
  9 10  2  0
 12 11  1  0
 13  9  1  0
 13 14  1  0
 14 17  1  0
 14 15  1  1
 16 15  1  0
 17 18  2  0
 19 17  1  0
 19 20  1  0
 20 23  1  0
 20 21  1  6
 22 21  1  0
 23 24  2  0
 23 25  1  0
M  END
$$$$
