YCC.pdb
     RDKit          3D

 25 25  0  0  1  0  0  0  0  0999 V2000
    7.6620  -13.2953   16.1402 O   0  0  0  0  0  0  0  0  0  0  0  0
    7.6020  -13.6320   17.4962 C   0  0  0  0  0  0  0  0  0  0  0  0
    7.3359  -14.9309   17.8492 C   0  0  0  0  0  0  0  0  0  0  0  0
    7.2714  -15.2888   19.1848 C   0  0  0  0  0  0  0  0  0  0  0  0
    7.4672  -14.3774   20.2012 C   0  0  0  0  0  0  0  0  0  0  0  0
    7.3902  -14.7989   21.6235 C   0  0  0  0  0  0  0  0  0  0  0  0
    8.8131  -14.8416   22.1509 C   0  0  2  0  0  0  0  0  0  0  0  0
    9.6119  -15.7680   21.4035 N   0  0  0  0  0  0  0  0  0  0  0  0
    8.8683  -15.0450   23.6011 C   0  0  0  0  0  0  0  0  0  0  0  0
    9.6351  -15.9541   24.0643 O   0  0  0  0  0  0  0  0  0  0  0  0
    7.7339  -13.0751   19.8338 C   0  0  0  0  0  0  0  0  0  0  0  0
    7.8020  -12.6997   18.4914 C   0  0  0  0  0  0  0  0  0  0  0  0
    8.1030  -14.2711   24.5131 N   0  0  0  0  0  0  0  0  0  0  0  0
    8.3280  -14.4400   25.9259 C   0  0  1  0  0  0  0  0  0  0  0  0
    7.4371  -13.4886   26.7299 C   0  0  0  0  0  0  0  0  0  0  0  0
    5.6998  -13.7685   26.3082 S   0  0  0  0  0  0  0  0  0  0  0  0
    7.9489  -15.8114   26.3840 C   0  0  0  0  0  0  0  0  0  0  0  0
    6.7573  -16.2005   26.2993 O   0  0  0  0  0  0  0  0  0  0  0  0
    8.9042  -16.7080   26.9216 N   0  0  0  0  0  0  0  0  0  0  0  0
    8.5967  -17.9086   27.6332 C   0  0  1  0  0  0  0  0  0  0  0  0
    8.5418  -19.1107   26.7021 C   0  0  0  0  0  0  0  0  0  0  0  0
    9.3582  -18.7847   25.1370 S   0  0  0  0  0  0  0  0  0  0  0  0
    9.5218  -18.1917   28.7423 C   0  0  0  0  0  0  0  0  0  0  0  0
   10.5298  -17.5095   28.9849 O   0  0  0  0  0  0  0  0  0  0  0  0
    9.2397  -19.2856   29.5549 O   0  0  0  0  0  0  0  0  0  0  0  0
  1  2  1  0
  2 12  2  0
  3  4  2  0
  3  2  1  0
  4  5  1  0
  5  6  1  0
  5 11  2  0
  6  7  1  0
  7  9  1  0
  7  8  1  6
  9 10  2  0
 12 11  1  0
 13  9  1  0
 13 14  1  0
 14 17  1  0
 14 15  1  1
 16 15  1  0
 17 18  2  0
 19 17  1  0
 19 20  1  0
 20 23  1  0
 20 21  1  6
 22 21  1  0
 23 24  2  0
 23 25  1  0
M  END
$$$$
