YCC.pdb
     RDKit          3D

 25 25  0  0  1  0  0  0  0  0999 V2000
    3.8726  -24.0677   25.6691 O   0  0  0  0  0  0  0  0  0  0  0  0
    4.5634  -23.0294   25.0363 C   0  0  0  0  0  0  0  0  0  0  0  0
    5.2371  -22.1126   25.8032 C   0  0  0  0  0  0  0  0  0  0  0  0
    5.9282  -21.0759   25.2002 C   0  0  0  0  0  0  0  0  0  0  0  0
    5.9716  -20.9189   23.8307 C   0  0  0  0  0  0  0  0  0  0  0  0
    6.7241  -19.7934   23.2195 C   0  0  0  0  0  0  0  0  0  0  0  0
    5.7917  -18.5954   23.2000 C   0  0  2  0  0  0  0  0  0  0  0  0
    4.8859  -18.6656   22.0912 N   0  0  0  0  0  0  0  0  0  0  0  0
    6.5111  -17.3226   23.2996 C   0  0  0  0  0  0  0  0  0  0  0  0
    6.9626  -16.7881   22.2321 O   0  0  0  0  0  0  0  0  0  0  0  0
    5.2908  -21.8467   23.0705 C   0  0  0  0  0  0  0  0  0  0  0  0
    4.5897  -22.8970   23.6647 C   0  0  0  0  0  0  0  0  0  0  0  0
    6.7264  -16.6588   24.5362 N   0  0  0  0  0  0  0  0  0  0  0  0
    7.7384  -15.6361   24.6080 C   0  0  1  0  0  0  0  0  0  0  0  0
    7.5650  -14.7960   25.8767 C   0  0  0  0  0  0  0  0  0  0  0  0
    5.8250  -14.3436   26.0821 S   0  0  0  0  0  0  0  0  0  0  0  0
    9.1088  -16.2237   24.7124 C   0  0  0  0  0  0  0  0  0  0  0  0
    9.3167  -17.2188   25.4506 O   0  0  0  0  0  0  0  0  0  0  0  0
   10.2057  -15.6882   23.9943 N   0  0  0  0  0  0  0  0  0  0  0  0
   11.5459  -16.1812   24.0512 C   0  0  1  0  0  0  0  0  0  0  0  0
   12.3800  -15.6658   22.8877 C   0  0  0  0  0  0  0  0  0  0  0  0
   11.5927  -15.9825   21.3059 S   0  0  0  0  0  0  0  0  0  0  0  0
   12.2337  -15.8790   25.3168 C   0  0  0  0  0  0  0  0  0  0  0  0
   11.7488  -15.1610   26.2055 O   0  0  0  0  0  0  0  0  0  0  0  0
   13.4942  -16.4341   25.5151 O   0  0  0  0  0  0  0  0  0  0  0  0
  1  2  1  0
  2 12  2  0
  3  4  2  0
  3  2  1  0
  4  5  1  0
  5  6  1  0
  5 11  2  0
  6  7  1  0
  7  9  1  0
  7  8  1  6
  9 10  2  0
 12 11  1  0
 13  9  1  0
 13 14  1  0
 14 17  1  0
 14 15  1  1
 16 15  1  0
 17 18  2  0
 19 17  1  0
 19 20  1  0
 20 23  1  0
 20 21  1  6
 22 21  1  0
 23 24  2  0
 23 25  1  0
M  END
$$$$
