YCC.pdb
     RDKit          3D

 25 25  0  0  1  0  0  0  0  0999 V2000
    8.0333  -14.4949   15.5786 O   0  0  0  0  0  0  0  0  0  0  0  0
    8.2036  -14.2101   16.9371 C   0  0  0  0  0  0  0  0  0  0  0  0
    9.0795  -14.9682   17.6723 C   0  0  0  0  0  0  0  0  0  0  0  0
    9.2653  -14.7058   19.0186 C   0  0  0  0  0  0  0  0  0  0  0  0
    8.5939  -13.6927   19.6705 C   0  0  0  0  0  0  0  0  0  0  0  0
    8.8195  -13.4409   21.1169 C   0  0  0  0  0  0  0  0  0  0  0  0
    8.3149  -14.6626   21.8636 C   0  0  2  0  0  0  0  0  0  0  0  0
    6.9450  -14.9344   21.5406 N   0  0  0  0  0  0  0  0  0  0  0  0
    8.5829  -14.5914   23.3025 C   0  0  0  0  0  0  0  0  0  0  0  0
    9.3113  -13.6411   23.7445 O   0  0  0  0  0  0  0  0  0  0  0  0
    7.7162  -12.9376   18.9210 C   0  0  0  0  0  0  0  0  0  0  0  0
    7.5188  -13.1907   17.5628 C   0  0  0  0  0  0  0  0  0  0  0  0
    8.0648  -15.5372   24.2262 N   0  0  0  0  0  0  0  0  0  0  0  0
    8.4055  -15.4050   25.6196 C   0  0  1  0  0  0  0  0  0  0  0  0
    7.7748  -14.1404   26.2099 C   0  0  0  0  0  0  0  0  0  0  0  0
    5.9940  -14.1332   25.8884 S   0  0  0  0  0  0  0  0  0  0  0  0
    7.8535  -16.5325   26.4310 C   0  0  0  0  0  0  0  0  0  0  0  0
    6.6481  -16.8666   26.3134 O   0  0  0  0  0  0  0  0  0  0  0  0
    8.6567  -17.2538   27.3476 N   0  0  0  0  0  0  0  0  0  0  0  0
    8.6593  -18.6750   27.4982 C   0  0  1  0  0  0  0  0  0  0  0  0
    8.9796  -19.3747   26.1857 C   0  0  0  0  0  0  0  0  0  0  0  0
    9.0813  -21.1560   26.3827 S   0  0  0  0  0  0  0  0  0  0  0  0
    9.5751  -19.1568   28.5448 C   0  0  0  0  0  0  0  0  0  0  0  0
   10.4245  -18.4387   29.0955 O   0  0  0  0  0  0  0  0  0  0  0  0
    9.4728  -20.4906   28.9281 O   0  0  0  0  0  0  0  0  0  0  0  0
  1  2  1  0
  2 12  2  0
  3  4  2  0
  3  2  1  0
  4  5  1  0
  5  6  1  0
  5 11  2  0
  6  7  1  0
  7  9  1  0
  7  8  1  1
  9 10  2  0
 12 11  1  0
 13  9  1  0
 13 14  1  0
 14 17  1  0
 14 15  1  1
 16 15  1  0
 17 18  2  0
 19 17  1  0
 19 20  1  0
 20 23  1  0
 20 21  1  6
 22 21  1  0
 23 24  2  0
 23 25  1  0
M  END
$$$$
