YCC.pdb
     RDKit          3D

 25 25  0  0  1  0  0  0  0  0999 V2000
    8.5042  -13.7006   15.9368 O   0  0  0  0  0  0  0  0  0  0  0  0
    8.3081  -13.8445   17.3139 C   0  0  0  0  0  0  0  0  0  0  0  0
    9.1454  -14.6674   18.0240 C   0  0  0  0  0  0  0  0  0  0  0  0
    8.9716  -14.8262   19.3879 C   0  0  0  0  0  0  0  0  0  0  0  0
    7.9710  -14.1793   20.0826 C   0  0  0  0  0  0  0  0  0  0  0  0
    7.8154  -14.3745   21.5468 C   0  0  0  0  0  0  0  0  0  0  0  0
    7.4637  -15.8353   21.7645 C   0  0  2  0  0  0  0  0  0  0  0  0
    6.1609  -16.1342   21.2465 N   0  0  0  0  0  0  0  0  0  0  0  0
    7.6625  -16.2595   23.1530 C   0  0  0  0  0  0  0  0  0  0  0  0
    6.6561  -16.6792   23.8163 O   0  0  0  0  0  0  0  0  0  0  0  0
    7.1357  -13.3549   19.3580 C   0  0  0  0  0  0  0  0  0  0  0  0
    7.2991  -13.1853   17.9824 C   0  0  0  0  0  0  0  0  0  0  0  0
    8.9303  -16.2231   23.7913 N   0  0  0  0  0  0  0  0  0  0  0  0
    9.0505  -16.7498   25.1267 C   0  0  1  0  0  0  0  0  0  0  0  0
    8.7928  -18.2594   25.1347 C   0  0  0  0  0  0  0  0  0  0  0  0
    9.5514  -19.0209   23.6790 S   0  0  0  0  0  0  0  0  0  0  0  0
   10.4373  -16.5871   25.6603 C   0  0  0  0  0  0  0  0  0  0  0  0
   11.3721  -16.2363   24.8978 O   0  0  0  0  0  0  0  0  0  0  0  0
   10.7430  -16.8189   27.0236 N   0  0  0  0  0  0  0  0  0  0  0  0
   10.9704  -15.8009   28.0004 C   0  0  1  0  0  0  0  0  0  0  0  0
    9.8054  -14.8246   28.0707 C   0  0  0  0  0  0  0  0  0  0  0  0
   10.2046  -13.3733   29.0488 S   0  0  0  0  0  0  0  0  0  0  0  0
   11.2499  -16.3255   29.3469 C   0  0  0  0  0  0  0  0  0  0  0  0
   10.4944  -17.1046   29.9490 O   0  0  0  0  0  0  0  0  0  0  0  0
   12.4274  -15.9184   29.9667 O   0  0  0  0  0  0  0  0  0  0  0  0
  1  2  1  0
  2 12  2  0
  3  4  2  0
  3  2  1  0
  4  5  1  0
  5  6  1  0
  5 11  2  0
  6  7  1  0
  7  9  1  0
  7  8  1  1
  9 10  2  0
 12 11  1  0
 13  9  1  0
 13 14  1  0
 14 17  1  0
 14 15  1  6
 16 15  1  0
 17 18  2  0
 19 17  1  0
 19 20  1  0
 20 23  1  0
 20 21  1  1
 22 21  1  0
 23 24  2  0
 23 25  1  0
M  END
$$$$
