YCC.pdb
     RDKit          3D

 25 25  0  0  1  0  0  0  0  0999 V2000
   12.0899  -16.7465   32.0312 O   0  0  0  0  0  0  0  0  0  0  0  0
   11.5523  -16.5999   30.7485 C   0  0  0  0  0  0  0  0  0  0  0  0
   10.8823  -15.4443   30.4347 C   0  0  0  0  0  0  0  0  0  0  0  0
   10.3413  -15.2757   29.1719 C   0  0  0  0  0  0  0  0  0  0  0  0
   10.4476  -16.2393   28.1910 C   0  0  0  0  0  0  0  0  0  0  0  0
    9.8539  -16.0225   26.8468 C   0  0  0  0  0  0  0  0  0  0  0  0
    8.3715  -16.3293   26.9621 C   0  0  2  0  0  0  0  0  0  0  0  0
    8.1475  -17.7361   27.1217 N   0  0  0  0  0  0  0  0  0  0  0  0
    7.5870  -15.7214   25.8839 C   0  0  0  0  0  0  0  0  0  0  0  0
    7.1053  -16.4768   24.9748 O   0  0  0  0  0  0  0  0  0  0  0  0
   11.1232  -17.3963   28.5183 C   0  0  0  0  0  0  0  0  0  0  0  0
   11.6738  -17.5802   29.7874 C   0  0  0  0  0  0  0  0  0  0  0  0
    7.3403  -14.3251   25.8091 N   0  0  0  0  0  0  0  0  0  0  0  0
    6.8374  -13.7741   24.5768 C   0  0  1  0  0  0  0  0  0  0  0  0
    6.5779  -12.2721   24.7255 C   0  0  0  0  0  0  0  0  0  0  0  0
    5.4677  -11.9750   26.1233 S   0  0  0  0  0  0  0  0  0  0  0  0
    7.8381  -13.8904   23.4725 C   0  0  0  0  0  0  0  0  0  0  0  0
    8.8659  -13.1679   23.4706 O   0  0  0  0  0  0  0  0  0  0  0  0
    7.6668  -14.8052   22.4050 N   0  0  0  0  0  0  0  0  0  0  0  0
    8.4989  -14.8821   21.2458 C   0  0  1  0  0  0  0  0  0  0  0  0
    9.1843  -16.2364   21.1396 C   0  0  0  0  0  0  0  0  0  0  0  0
   10.0693  -16.6599   22.6428 S   0  0  0  0  0  0  0  0  0  0  0  0
    7.7897  -14.5937   19.9888 C   0  0  0  0  0  0  0  0  0  0  0  0
    8.3523  -14.5264   18.8846 O   0  0  0  0  0  0  0  0  0  0  0  0
    6.4151  -14.3876   20.0559 O   0  0  0  0  0  0  0  0  0  0  0  0
  1  2  1  0
  2 12  2  0
  3  4  2  0
  3  2  1  0
  4  5  1  0
  5  6  1  0
  5 11  2  0
  6  7  1  0
  7  9  1  0
  7  8  1  6
  9 10  2  0
 12 11  1  0
 13  9  1  0
 13 14  1  0
 14 17  1  0
 14 15  1  1
 16 15  1  0
 17 18  2  0
 19 17  1  0
 19 20  1  0
 20 23  1  0
 20 21  1  6
 22 21  1  0
 23 24  2  0
 23 25  1  0
M  END
$$$$
