YCC.pdb
     RDKit          3D

 25 25  0  0  1  0  0  0  0  0999 V2000
    3.3290  -23.8588   23.6910 O   0  0  0  0  0  0  0  0  0  0  0  0
    4.2357  -22.7945   23.6630 C   0  0  0  0  0  0  0  0  0  0  0  0
    4.1119  -21.7889   24.5883 C   0  0  0  0  0  0  0  0  0  0  0  0
    4.9971  -20.7249   24.5810 C   0  0  0  0  0  0  0  0  0  0  0  0
    6.0226  -20.6269   23.6640 C   0  0  0  0  0  0  0  0  0  0  0  0
    6.9533  -19.4695   23.6873 C   0  0  0  0  0  0  0  0  0  0  0  0
    6.1593  -18.2532   23.2458 C   0  0  2  0  0  0  0  0  0  0  0  0
    5.6551  -18.4225   21.9146 N   0  0  0  0  0  0  0  0  0  0  0  0
    6.8925  -17.0006   23.4483 C   0  0  0  0  0  0  0  0  0  0  0  0
    7.6888  -16.6012   22.5344 O   0  0  0  0  0  0  0  0  0  0  0  0
    6.1368  -21.6437   22.7391 C   0  0  0  0  0  0  0  0  0  0  0  0
    5.2516  -22.7226   22.7345 C   0  0  0  0  0  0  0  0  0  0  0  0
    6.7528  -16.2121   24.6209 N   0  0  0  0  0  0  0  0  0  0  0  0
    7.6014  -15.0600   24.7877 C   0  0  1  0  0  0  0  0  0  0  0  0
    7.1042  -14.1887   25.9449 C   0  0  0  0  0  0  0  0  0  0  0  0
    5.4368  -13.5834   25.5871 S   0  0  0  0  0  0  0  0  0  0  0  0
    8.9942  -15.4514   25.1635 C   0  0  0  0  0  0  0  0  0  0  0  0
    9.2444  -15.8663   26.3227 O   0  0  0  0  0  0  0  0  0  0  0  0
   10.0656  -15.3701   24.2409 N   0  0  0  0  0  0  0  0  0  0  0  0
   11.4108  -15.7742   24.5044 C   0  0  1  0  0  0  0  0  0  0  0  0
   11.5013  -17.2682   24.7778 C   0  0  0  0  0  0  0  0  0  0  0  0
   10.7028  -18.2348   23.4932 S   0  0  0  0  0  0  0  0  0  0  0  0
   12.3561  -15.4152   23.4350 C   0  0  0  0  0  0  0  0  0  0  0  0
   12.0054  -14.9581   22.3357 O   0  0  0  0  0  0  0  0  0  0  0  0
   13.7125  -15.6031   23.6825 O   0  0  0  0  0  0  0  0  0  0  0  0
  1  2  1  0
  2 12  2  0
  3  4  2  0
  3  2  1  0
  4  5  1  0
  5  6  1  0
  5 11  2  0
  6  7  1  0
  7  9  1  0
  7  8  1  6
  9 10  2  0
 12 11  1  0
 13  9  1  0
 13 14  1  0
 14 17  1  0
 14 15  1  1
 16 15  1  0
 17 18  2  0
 19 17  1  0
 19 20  1  0
 20 23  1  0
 20 21  1  6
 22 21  1  0
 23 24  2  0
 23 25  1  0
M  END
$$$$
