YCC.pdb
     RDKit          3D

 25 25  0  0  1  0  0  0  0  0999 V2000
   11.2391  -12.1606    8.1616 O   0  0  0  0  0  0  0  0  0  0  0  0
   11.6531  -12.7947    9.3372 C   0  0  0  0  0  0  0  0  0  0  0  0
   12.5137  -13.8600    9.2523 C   0  0  0  0  0  0  0  0  0  0  0  0
   12.9379  -14.5041   10.4017 C   0  0  0  0  0  0  0  0  0  0  0  0
   12.5249  -14.1146   11.6587 C   0  0  0  0  0  0  0  0  0  0  0  0
   13.0017  -14.8305   12.8697 C   0  0  0  0  0  0  0  0  0  0  0  0
   12.1047  -16.0419   13.0505 C   0  0  2  0  0  0  0  0  0  0  0  0
   10.7880  -15.6513   13.4612 N   0  0  0  0  0  0  0  0  0  0  0  0
   12.7124  -17.0682   13.9019 C   0  0  0  0  0  0  0  0  0  0  0  0
   12.5260  -17.0082   15.1631 O   0  0  0  0  0  0  0  0  0  0  0  0
   11.6600  -13.0427   11.7311 C   0  0  0  0  0  0  0  0  0  0  0  0
   11.2240  -12.3837   10.5808 C   0  0  0  0  0  0  0  0  0  0  0  0
   13.5008  -18.1279   13.3806 N   0  0  0  0  0  0  0  0  0  0  0  0
   14.0092  -19.1256   14.2869 C   0  0  1  0  0  0  0  0  0  0  0  0
   14.1921  -20.4642   13.5658 C   0  0  0  0  0  0  0  0  0  0  0  0
   12.6042  -21.3247   13.4534 S   0  0  0  0  0  0  0  0  0  0  0  0
   15.3681  -18.7665   14.7954 C   0  0  0  0  0  0  0  0  0  0  0  0
   16.1532  -18.0926   14.0828 O   0  0  0  0  0  0  0  0  0  0  0  0
   15.8132  -19.1668   16.0789 N   0  0  0  0  0  0  0  0  0  0  0  0
   17.0700  -18.8146   16.6608 C   0  0  1  0  0  0  0  0  0  0  0  0
   16.8894  -17.9365   17.8902 C   0  0  0  0  0  0  0  0  0  0  0  0
   16.1115  -18.8261   19.2414 S   0  0  0  0  0  0  0  0  0  0  0  0
   17.9065  -19.9748   17.0079 C   0  0  0  0  0  0  0  0  0  0  0  0
   17.4853  -21.1421   17.0260 O   0  0  0  0  0  0  0  0  0  0  0  0
   19.2389  -19.7364   17.3309 O   0  0  0  0  0  0  0  0  0  0  0  0
  1  2  1  0
  2 12  2  0
  3  4  2  0
  3  2  1  0
  4  5  1  0
  5  6  1  0
  5 11  2  0
  6  7  1  0
  7  9  1  0
  7  8  1  1
  9 10  2  0
 12 11  1  0
 13  9  1  0
 13 14  1  0
 14 17  1  0
 14 15  1  6
 16 15  1  0
 17 18  2  0
 19 17  1  0
 19 20  1  0
 20 23  1  0
 20 21  1  1
 22 21  1  0
 23 24  2  0
 23 25  1  0
M  END
$$$$
