YCC.pdb
     RDKit          3D

 25 25  0  0  1  0  0  0  0  0999 V2000
    0.2232  -23.3158   21.9292 O   0  0  0  0  0  0  0  0  0  0  0  0
    1.4819  -22.9070   22.3815 C   0  0  0  0  0  0  0  0  0  0  0  0
    1.5662  -21.8496   23.2518 C   0  0  0  0  0  0  0  0  0  0  0  0
    2.8005  -21.4263   23.7136 C   0  0  0  0  0  0  0  0  0  0  0  0
    3.9778  -22.0337   23.3296 C   0  0  0  0  0  0  0  0  0  0  0  0
    5.2841  -21.5513   23.8465 C   0  0  0  0  0  0  0  0  0  0  0  0
    5.6442  -20.3091   23.0514 C   0  0  2  0  0  0  0  0  0  0  0  0
    5.9417  -20.6382   21.6883 N   0  0  0  0  0  0  0  0  0  0  0  0
    6.6776  -19.5030   23.7070 C   0  0  0  0  0  0  0  0  0  0  0  0
    7.8922  -19.6495   23.3435 O   0  0  0  0  0  0  0  0  0  0  0  0
    3.8801  -23.0954   22.4547 C   0  0  0  0  0  0  0  0  0  0  0  0
    2.6425  -23.5330   21.9808 C   0  0  0  0  0  0  0  0  0  0  0  0
    6.3826  -18.5646   24.7309 N   0  0  0  0  0  0  0  0  0  0  0  0
    7.4647  -17.8207   25.3235 C   0  0  1  0  0  0  0  0  0  0  0  0
    6.9401  -16.5432   25.9854 C   0  0  0  0  0  0  0  0  0  0  0  0
    8.3138  -15.6217   26.7192 S   0  0  0  0  0  0  0  0  0  0  0  0
    8.1236  -18.5888   26.4236 C   0  0  0  0  0  0  0  0  0  0  0  0
    7.4441  -19.0269   27.3852 O   0  0  0  0  0  0  0  0  0  0  0  0
    9.5161  -18.8466   26.4218 N   0  0  0  0  0  0  0  0  0  0  0  0
   10.2239  -19.5504   27.4445 C   0  0  1  0  0  0  0  0  0  0  0  0
   11.3929  -20.3388   26.8728 C   0  0  0  0  0  0  0  0  0  0  0  0
   10.9761  -21.1184   25.3106 S   0  0  0  0  0  0  0  0  0  0  0  0
   10.7046  -18.6849   28.5336 C   0  0  0  0  0  0  0  0  0  0  0  0
   10.6620  -17.4452   28.4930 O   0  0  0  0  0  0  0  0  0  0  0  0
   11.2326  -19.3021   29.6635 O   0  0  0  0  0  0  0  0  0  0  0  0
  1  2  1  0
  2 12  2  0
  3  4  2  0
  3  2  1  0
  4  5  1  0
  5  6  1  0
  5 11  2  0
  6  7  1  0
  7  9  1  0
  7  8  1  6
  9 10  2  0
 12 11  1  0
 13  9  1  0
 13 14  1  0
 14 17  1  0
 14 15  1  1
 16 15  1  0
 17 18  2  0
 19 17  1  0
 19 20  1  0
 20 23  1  0
 20 21  1  6
 22 21  1  0
 23 24  2  0
 23 25  1  0
M  END
$$$$
