YCC.pdb
     RDKit          3D

 25 25  0  0  1  0  0  0  0  0999 V2000
   12.5477  -19.9756   31.4151 O   0  0  0  0  0  0  0  0  0  0  0  0
   12.4198  -19.6004   30.0739 C   0  0  0  0  0  0  0  0  0  0  0  0
   11.2926  -18.9278   29.6746 C   0  0  0  0  0  0  0  0  0  0  0  0
   11.1429  -18.5458   28.3527 C   0  0  0  0  0  0  0  0  0  0  0  0
   12.0981  -18.8170   27.3955 C   0  0  0  0  0  0  0  0  0  0  0  0
   11.9022  -18.3910   25.9860 C   0  0  0  0  0  0  0  0  0  0  0  0
   10.6402  -19.0724   25.4882 C   0  0  2  0  0  0  0  0  0  0  0  0
   10.7167  -20.4926   25.6671 N   0  0  0  0  0  0  0  0  0  0  0  0
   10.2810  -18.6636   24.1276 C   0  0  0  0  0  0  0  0  0  0  0  0
   10.4802  -19.4819   23.1686 O   0  0  0  0  0  0  0  0  0  0  0  0
   13.2266  -19.4935   27.8090 C   0  0  0  0  0  0  0  0  0  0  0  0
   13.3912  -19.8849   29.1384 C   0  0  0  0  0  0  0  0  0  0  0  0
    9.7197  -17.3933   23.8322 N   0  0  0  0  0  0  0  0  0  0  0  0
    9.5629  -17.0075   22.4531 C   0  0  1  0  0  0  0  0  0  0  0  0
    8.7769  -15.6974   22.3471 C   0  0  0  0  0  0  0  0  0  0  0  0
    8.6026  -15.2231   20.6095 S   0  0  0  0  0  0  0  0  0  0  0  0
   10.8808  -16.7260   21.8066 C   0  0  0  0  0  0  0  0  0  0  0  0
   11.6998  -15.9448   22.3519 O   0  0  0  0  0  0  0  0  0  0  0  0
   11.2486  -17.3205   20.5749 N   0  0  0  0  0  0  0  0  0  0  0  0
   12.4885  -17.1085   19.8967 C   0  0  1  0  0  0  0  0  0  0  0  0
   13.6457  -17.7716   20.6289 C   0  0  0  0  0  0  0  0  0  0  0  0
   13.2011  -19.3936   21.2564 S   0  0  0  0  0  0  0  0  0  0  0  0
   12.4786  -17.5540   18.4939 C   0  0  0  0  0  0  0  0  0  0  0  0
   11.5241  -18.1508   17.9714 O   0  0  0  0  0  0  0  0  0  0  0  0
   13.6058  -17.2853   17.7234 O   0  0  0  0  0  0  0  0  0  0  0  0
  1  2  1  0
  2 12  2  0
  3  4  2  0
  3  2  1  0
  4  5  1  0
  5  6  1  0
  5 11  2  0
  6  7  1  0
  7  9  1  0
  7  8  1  6
  9 10  2  0
 12 11  1  0
 13  9  1  0
 13 14  1  0
 14 17  1  0
 14 15  1  1
 16 15  1  0
 17 18  2  0
 19 17  1  0
 19 20  1  0
 20 23  1  0
 20 21  1  1
 22 21  1  0
 23 24  2  0
 23 25  1  0
M  END
$$$$
