YCC.pdb
     RDKit          3D

 25 25  0  0  1  0  0  0  0  0999 V2000
    5.1936  -10.5891   27.8368 O   0  0  0  0  0  0  0  0  0  0  0  0
    5.9728  -11.6241   27.3101 C   0  0  0  0  0  0  0  0  0  0  0  0
    6.2257  -11.6481   25.9618 C   0  0  0  0  0  0  0  0  0  0  0  0
    6.9942  -12.6621   25.4167 C   0  0  0  0  0  0  0  0  0  0  0  0
    7.5302  -13.6738   26.1856 C   0  0  0  0  0  0  0  0  0  0  0  0
    8.3503  -14.7455   25.5648 C   0  0  0  0  0  0  0  0  0  0  0  0
    7.3854  -15.7299   24.9287 C   0  0  2  0  0  0  0  0  0  0  0  0
    6.9527  -16.7134   25.8775 N   0  0  0  0  0  0  0  0  0  0  0  0
    7.9033  -16.2964   23.6803 C   0  0  0  0  0  0  0  0  0  0  0  0
    8.4138  -17.4660   23.7028 O   0  0  0  0  0  0  0  0  0  0  0  0
    7.2690  -13.6389   27.5394 C   0  0  0  0  0  0  0  0  0  0  0  0
    6.4959  -12.6228   28.1029 C   0  0  0  0  0  0  0  0  0  0  0  0
    7.8601  -15.5968   22.4454 N   0  0  0  0  0  0  0  0  0  0  0  0
    8.5316  -16.1626   21.3034 C   0  0  1  0  0  0  0  0  0  0  0  0
    8.1644  -15.3962   20.0294 C   0  0  0  0  0  0  0  0  0  0  0  0
    6.3766  -15.4715   19.7596 S   0  0  0  0  0  0  0  0  0  0  0  0
   10.0166  -16.0383   21.4201 C   0  0  0  0  0  0  0  0  0  0  0  0
   10.5933  -14.9799   21.0656 O   0  0  0  0  0  0  0  0  0  0  0  0
   10.8150  -17.0926   21.9266 N   0  0  0  0  0  0  0  0  0  0  0  0
   12.2411  -17.0745   22.0170 C   0  0  1  0  0  0  0  0  0  0  0  0
   12.7108  -17.2098   23.4579 C   0  0  0  0  0  0  0  0  0  0  0  0
   11.3655  -16.9881   24.6254 S   0  0  0  0  0  0  0  0  0  0  0  0
   12.8988  -18.0995   21.1906 C   0  0  0  0  0  0  0  0  0  0  0  0
   12.2797  -18.9577   20.5421 O   0  0  0  0  0  0  0  0  0  0  0  0
   14.2896  -18.0950   21.1422 O   0  0  0  0  0  0  0  0  0  0  0  0
  1  2  1  0
  2 12  2  0
  3  4  2  0
  3  2  1  0
  4  5  1  0
  5  6  1  0
  5 11  2  0
  6  7  1  0
  7  9  1  0
  7  8  1  1
  9 10  2  0
 12 11  1  0
 13  9  1  0
 13 14  1  0
 14 17  1  0
 14 15  1  6
 16 15  1  0
 17 18  2  0
 19 17  1  0
 19 20  1  0
 20 23  1  0
 20 21  1  1
 22 21  1  0
 23 24  2  0
 23 25  1  0
M  END
$$$$
