YCC.pdb
     RDKit          3D

 25 25  0  0  1  0  0  0  0  0999 V2000
    7.2215  -15.1520   15.1025 O   0  0  0  0  0  0  0  0  0  0  0  0
    7.6644  -14.9099   16.4067 C   0  0  0  0  0  0  0  0  0  0  0  0
    7.6265  -13.6287   16.8963 C   0  0  0  0  0  0  0  0  0  0  0  0
    8.0593  -13.3637   18.1841 C   0  0  0  0  0  0  0  0  0  0  0  0
    8.5384  -14.3526   19.0176 C   0  0  0  0  0  0  0  0  0  0  0  0
    8.9943  -14.0299   20.3940 C   0  0  0  0  0  0  0  0  0  0  0  0
    7.7796  -14.1329   21.2989 C   0  0  2  0  0  0  0  0  0  0  0  0
    6.7981  -13.1454   20.9581 N   0  0  0  0  0  0  0  0  0  0  0  0
    8.1379  -14.1485   22.7198 C   0  0  0  0  0  0  0  0  0  0  0  0
    8.2456  -13.0368   23.3375 O   0  0  0  0  0  0  0  0  0  0  0  0
    8.5716  -15.6362   18.5142 C   0  0  0  0  0  0  0  0  0  0  0  0
    8.1385  -15.9182   17.2179 C   0  0  0  0  0  0  0  0  0  0  0  0
    8.3703  -15.3510   23.4382 N   0  0  0  0  0  0  0  0  0  0  0  0
    8.7070  -15.2701   24.8365 C   0  0  1  0  0  0  0  0  0  0  0  0
    7.5089  -14.7725   25.6504 C   0  0  0  0  0  0  0  0  0  0  0  0
    6.7772  -13.3258   24.8467 S   0  0  0  0  0  0  0  0  0  0  0  0
    9.0335  -16.6142   25.4032 C   0  0  0  0  0  0  0  0  0  0  0  0
    8.2486  -17.5804   25.2340 O   0  0  0  0  0  0  0  0  0  0  0  0
   10.2210  -16.8437   26.1399 N   0  0  0  0  0  0  0  0  0  0  0  0
   10.6961  -18.1255   26.5565 C   0  0  1  0  0  0  0  0  0  0  0  0
   12.1773  -18.2972   26.2541 C   0  0  0  0  0  0  0  0  0  0  0  0
   12.7995  -19.8809   26.8258 S   0  0  0  0  0  0  0  0  0  0  0  0
   10.4516  -18.4127   27.9792 C   0  0  0  0  0  0  0  0  0  0  0  0
   10.2508  -17.5328   28.8311 O   0  0  0  0  0  0  0  0  0  0  0  0
   10.4479  -19.7462   28.3772 O   0  0  0  0  0  0  0  0  0  0  0  0
  1  2  1  0
  2 12  2  0
  3  4  2  0
  3  2  1  0
  4  5  1  0
  5  6  1  0
  5 11  2  0
  6  7  1  0
  7  9  1  0
  7  8  1  1
  9 10  2  0
 12 11  1  0
 13  9  1  0
 13 14  1  0
 14 17  1  0
 14 15  1  1
 16 15  1  0
 17 18  2  0
 19 17  1  0
 19 20  1  0
 20 23  1  0
 20 21  1  1
 22 21  1  0
 23 24  2  0
 23 25  1  0
M  END
$$$$
