FNP.pdb
     RDKit          3D

 27 28  0  0  1  0  0  0  0  0999 V2000
    6.3550  -15.4044   21.5167 N   0  0  0  0  0  0  0  0  0  0  0  0
    7.5652  -15.1629   22.2773 C   0  0  1  0  0  0  0  0  0  0  0  0
    7.9343  -13.7196   22.3389 C   0  0  0  0  0  0  0  0  0  0  0  0
    7.5268  -12.9789   23.5025 C   0  0  0  0  0  0  0  0  0  0  0  0
    6.4773  -12.0891   23.3786 C   0  0  0  0  0  0  0  0  0  0  0  0
    6.0267  -11.3421   24.4503 C   0  0  0  0  0  0  0  0  0  0  0  0
    6.6191  -11.4687   25.6771 C   0  0  0  0  0  0  0  0  0  0  0  0
    7.6718  -12.3590   25.8083 C   0  0  0  0  0  0  0  0  0  0  0  0
    8.1213  -13.1063   24.7336 C   0  0  0  0  0  0  0  0  0  0  0  0
    7.4972  -15.8127   23.6144 C   0  0  0  0  0  0  0  0  0  0  0  0
    6.5053  -15.6155   24.3966 O   0  0  0  0  0  0  0  0  0  0  0  0
    6.0834  -19.0502   25.1432 N   0  0  0  0  0  0  0  0  0  0  0  0
    7.4361  -19.2951   24.6696 C   0  0  0  0  0  0  0  0  0  0  0  0
    7.5381  -20.0800   23.7129 O   0  0  0  0  0  0  0  0  0  0  0  0
    8.5490  -18.6496   25.2965 C   0  0  0  0  0  0  0  0  0  0  0  0
    8.4858  -17.1403   25.5481 C   0  0  2  0  0  0  0  0  0  0  0  0
    8.4948  -16.6721   24.1063 N   0  0  0  0  0  0  0  0  0  0  0  0
    9.7415  -16.7167   26.1510 C   0  0  0  0  0  0  0  0  0  0  0  0
   10.7959  -16.6924   25.4111 O   0  0  0  0  0  0  0  0  0  0  0  0
    9.9231  -16.3166   27.4728 N   0  0  0  0  0  0  0  0  0  0  0  0
    8.9185  -16.2338   28.5119 C   0  0  0  0  0  0  0  0  0  0  0  0
    9.2314  -14.8654   29.1246 C   0  0  0  0  0  0  0  0  0  0  0  0
   10.7105  -14.6814   28.9386 C   0  0  0  0  0  0  0  0  0  0  0  0
   11.1480  -15.8728   28.1347 C   0  0  1  0  0  0  0  0  0  0  0  0
   11.6764  -16.9069   29.0527 C   0  0  0  0  0  0  0  0  0  0  0  0
   12.8759  -16.7668   29.7358 O   0  0  0  0  0  0  0  0  0  0  0  0
   11.0525  -17.9886   29.2657 O   0  0  0  0  0  0  0  0  0  0  0  0
  2  1  1  1
  3  2  1  0
  4  9  1  0
  4  3  1  0
  5  4  2  0
  6  7  2  0
  6  5  1  0
  7  8  1  0
  8  9  2  0
 10  2  1  0
 11 10  2  0
 13 12  1  0
 14 13  2  0
 15 13  1  0
 16 15  1  6
 16 17  1  0
 17 10  1  0
 18 19  2  0
 18 16  1  0
 20 18  1  0
 21 20  1  0
 22 21  1  0
 23 24  1  0
 23 22  1  0
 24 20  1  0
 24 25  1  1
 26 25  1  0
 27 25  2  0
M  END
$$$$
