FNP.pdb
     RDKit          3D

 27 28  0  0  1  0  0  0  0  0999 V2000
    5.5406  -17.9099   25.3223 N   0  0  0  0  0  0  0  0  0  0  0  0
    6.3059  -16.6827   25.2248 C   0  0  1  0  0  0  0  0  0  0  0  0
    6.7484  -16.1670   26.5520 C   0  0  0  0  0  0  0  0  0  0  0  0
    7.0886  -14.7725   26.6428 C   0  0  0  0  0  0  0  0  0  0  0  0
    6.0690  -13.8431   26.5704 C   0  0  0  0  0  0  0  0  0  0  0  0
    6.3151  -12.4857   26.6511 C   0  0  0  0  0  0  0  0  0  0  0  0
    7.5939  -12.0245   26.8067 C   0  0  0  0  0  0  0  0  0  0  0  0
    8.6208  -12.9509   26.8800 C   0  0  0  0  0  0  0  0  0  0  0  0
    8.3719  -14.3099   26.7991 C   0  0  0  0  0  0  0  0  0  0  0  0
    7.4169  -16.8197   24.2441 C   0  0  0  0  0  0  0  0  0  0  0  0
    8.1376  -17.8750   24.2035 O   0  0  0  0  0  0  0  0  0  0  0  0
    6.3096  -14.0055   20.8263 N   0  0  0  0  0  0  0  0  0  0  0  0
    7.4897  -14.8013   20.5292 C   0  0  0  0  0  0  0  0  0  0  0  0
    7.4478  -15.4536   19.4735 O   0  0  0  0  0  0  0  0  0  0  0  0
    8.6055  -14.8014   21.4255 C   0  0  0  0  0  0  0  0  0  0  0  0
    8.8567  -16.0352   22.2972 C   0  0  2  0  0  0  0  0  0  0  0  0
    7.7494  -15.8229   23.3106 N   0  0  0  0  0  0  0  0  0  0  0  0
   10.1233  -15.8620   22.9938 C   0  0  0  0  0  0  0  0  0  0  0  0
   10.1900  -14.9767   23.9274 O   0  0  0  0  0  0  0  0  0  0  0  0
   11.2946  -16.5774   22.7565 N   0  0  0  0  0  0  0  0  0  0  0  0
   11.5013  -17.6264   21.7804 C   0  0  0  0  0  0  0  0  0  0  0  0
   12.2371  -18.6764   22.6183 C   0  0  0  0  0  0  0  0  0  0  0  0
   13.0060  -17.8920   23.6429 C   0  0  0  0  0  0  0  0  0  0  0  0
   12.5876  -16.4651   23.4281 C   0  0  1  0  0  0  0  0  0  0  0  0
   13.5897  -15.7921   22.5712 C   0  0  0  0  0  0  0  0  0  0  0  0
   13.4122  -15.6053   21.2078 O   0  0  0  0  0  0  0  0  0  0  0  0
   14.6765  -15.3451   23.0442 O   0  0  0  0  0  0  0  0  0  0  0  0
  2  1  1  1
  3  2  1  0
  4  9  1  0
  4  3  1  0
  5  4  2  0
  6  7  2  0
  6  5  1  0
  7  8  1  0
  8  9  2  0
 10  2  1  0
 11 10  2  0
 13 12  1  0
 14 13  2  0
 15 13  1  0
 16 15  1  6
 16 17  1  0
 17 10  1  0
 18 19  2  0
 18 16  1  0
 20 18  1  0
 21 20  1  0
 22 21  1  0
 23 24  1  0
 23 22  1  0
 24 20  1  0
 24 25  1  6
 26 25  1  0
 27 25  2  0
M  END
$$$$
