FNP.pdb
     RDKit          3D

 27 28  0  0  1  0  0  0  0  0999 V2000
    7.3068  -15.1408   20.8384 N   0  0  0  0  0  0  0  0  0  0  0  0
    7.6751  -14.5034   22.0872 C   0  0  1  0  0  0  0  0  0  0  0  0
    6.7456  -13.4038   22.4744 C   0  0  0  0  0  0  0  0  0  0  0  0
    6.9382  -12.7941   23.7628 C   0  0  0  0  0  0  0  0  0  0  0  0
    6.0915  -13.1568   24.7925 C   0  0  0  0  0  0  0  0  0  0  0  0
    6.2134  -12.6167   26.0586 C   0  0  0  0  0  0  0  0  0  0  0  0
    7.1903  -11.6964   26.3250 C   0  0  0  0  0  0  0  0  0  0  0  0
    8.0424  -11.3285   25.2972 C   0  0  0  0  0  0  0  0  0  0  0  0
    7.9186  -11.8707   24.0299 C   0  0  0  0  0  0  0  0  0  0  0  0
    7.8796  -15.5105   23.1637 C   0  0  0  0  0  0  0  0  0  0  0  0
    6.9237  -16.2637   23.5558 O   0  0  0  0  0  0  0  0  0  0  0  0
    9.9915  -19.0933   26.3955 N   0  0  0  0  0  0  0  0  0  0  0  0
   10.1299  -19.0575   24.9485 C   0  0  0  0  0  0  0  0  0  0  0  0
   10.5363  -20.1051   24.4202 O   0  0  0  0  0  0  0  0  0  0  0  0
    9.8060  -17.8684   24.2210 C   0  0  0  0  0  0  0  0  0  0  0  0
    9.2375  -16.6660   24.9802 C   0  0  2  0  0  0  0  0  0  0  0  0
    9.1099  -15.7049   23.8148 N   0  0  0  0  0  0  0  0  0  0  0  0
   10.2700  -16.1439   25.8639 C   0  0  0  0  0  0  0  0  0  0  0  0
   11.4267  -15.8800   25.3615 O   0  0  0  0  0  0  0  0  0  0  0  0
   10.1308  -15.8851   27.2254 N   0  0  0  0  0  0  0  0  0  0  0  0
    8.9186  -15.9548   28.0138 C   0  0  0  0  0  0  0  0  0  0  0  0
    9.0045  -14.6514   28.8135 C   0  0  0  0  0  0  0  0  0  0  0  0
   10.4741  -14.3929   28.9855 C   0  0  0  0  0  0  0  0  0  0  0  0
   11.1501  -15.4714   28.1873 C   0  0  1  0  0  0  0  0  0  0  0  0
   11.5251  -16.5799   29.0941 C   0  0  0  0  0  0  0  0  0  0  0  0
   10.8716  -17.8038   29.0989 O   0  0  0  0  0  0  0  0  0  0  0  0
   12.4752  -16.4676   29.9242 O   0  0  0  0  0  0  0  0  0  0  0  0
  2  1  1  6
  3  2  1  0
  4  9  1  0
  4  3  1  0
  5  4  2  0
  6  7  2  0
  6  5  1  0
  7  8  1  0
  8  9  2  0
 10  2  1  0
 11 10  2  0
 13 12  1  0
 14 13  2  0
 15 13  1  0
 16 15  1  6
 16 17  1  0
 17 10  1  0
 18 19  2  0
 18 16  1  0
 20 18  1  0
 21 20  1  0
 22 21  1  0
 23 24  1  0
 23 22  1  0
 24 20  1  0
 24 25  1  1
 26 25  1  0
 27 25  2  0
M  END
$$$$
