FNP.pdb
     RDKit          3D

 27 28  0  0  1  0  0  0  0  0999 V2000
    8.1923  -18.3255   20.3241 N   0  0  0  0  0  0  0  0  0  0  0  0
    8.3389  -16.8993   20.5378 C   0  0  1  0  0  0  0  0  0  0  0  0
    7.8813  -16.0874   19.3740 C   0  0  0  0  0  0  0  0  0  0  0  0
    7.9060  -14.6560   19.5120 C   0  0  0  0  0  0  0  0  0  0  0  0
    9.0943  -13.9946   19.2690 C   0  0  0  0  0  0  0  0  0  0  0  0
    9.1979  -12.6210   19.3793 C   0  0  0  0  0  0  0  0  0  0  0  0
    8.1091  -11.8736   19.7373 C   0  0  0  0  0  0  0  0  0  0  0  0
    6.9147  -12.5304   19.9823 C   0  0  0  0  0  0  0  0  0  0  0  0
    6.8133  -13.9062   19.8712 C   0  0  0  0  0  0  0  0  0  0  0  0
    7.7221  -16.4838   21.8269 C   0  0  0  0  0  0  0  0  0  0  0  0
    6.5512  -15.9718   21.8658 O   0  0  0  0  0  0  0  0  0  0  0  0
    6.3599  -19.3460   23.6657 N   0  0  0  0  0  0  0  0  0  0  0  0
    6.1509  -18.0553   24.3016 C   0  0  0  0  0  0  0  0  0  0  0  0
    4.9932  -17.6096   24.2484 O   0  0  0  0  0  0  0  0  0  0  0  0
    7.2399  -17.3782   24.9372 C   0  0  0  0  0  0  0  0  0  0  0  0
    7.7477  -16.0639   24.3373 C   0  0  2  0  0  0  0  0  0  0  0  0
    8.3651  -16.6199   23.0693 N   0  0  0  0  0  0  0  0  0  0  0  0
    8.8342  -15.5634   25.1672 C   0  0  0  0  0  0  0  0  0  0  0  0
   10.0448  -15.8037   24.7974 O   0  0  0  0  0  0  0  0  0  0  0  0
    8.6974  -14.8266   26.3413 N   0  0  0  0  0  0  0  0  0  0  0  0
    7.4700  -14.3433   26.9376 C   0  0  0  0  0  0  0  0  0  0  0  0
    7.8501  -12.8998   27.2804 C   0  0  0  0  0  0  0  0  0  0  0  0
    9.3256  -12.9383   27.5587 C   0  0  0  0  0  0  0  0  0  0  0  0
    9.7385  -14.3492   27.2488 C   0  0  1  0  0  0  0  0  0  0  0  0
    9.7661  -15.1311   28.5055 C   0  0  0  0  0  0  0  0  0  0  0  0
    8.9903  -14.8104   29.6102 O   0  0  0  0  0  0  0  0  0  0  0  0
   10.5095  -16.1479   28.6399 O   0  0  0  0  0  0  0  0  0  0  0  0
  2  1  1  6
  3  2  1  0
  4  9  1  0
  4  3  1  0
  5  4  2  0
  6  7  2  0
  6  5  1  0
  7  8  1  0
  8  9  2  0
 10  2  1  0
 11 10  2  0
 13 12  1  0
 14 13  2  0
 15 13  1  0
 16 15  1  1
 16 17  1  0
 17 10  1  0
 18 19  2  0
 18 16  1  0
 20 18  1  0
 21 20  1  0
 22 21  1  0
 23 24  1  0
 23 22  1  0
 24 20  1  0
 24 25  1  1
 26 25  1  0
 27 25  2  0
M  END
$$$$
