FNP.pdb
     RDKit          3D

 27 28  0  0  1  0  0  0  0  0999 V2000
    5.7351  -17.8139   25.9831 N   0  0  0  0  0  0  0  0  0  0  0  0
    6.3026  -16.5326   25.6124 C   0  0  1  0  0  0  0  0  0  0  0  0
    7.0105  -15.8624   26.7407 C   0  0  0  0  0  0  0  0  0  0  0  0
    7.0844  -14.4262   26.7188 C   0  0  0  0  0  0  0  0  0  0  0  0
    5.9052  -13.7084   26.7720 C   0  0  0  0  0  0  0  0  0  0  0  0
    5.8935  -12.3267   26.7567 C   0  0  0  0  0  0  0  0  0  0  0  0
    7.0677  -11.6276   26.6873 C   0  0  0  0  0  0  0  0  0  0  0  0
    8.2535  -12.3410   26.6338 C   0  0  0  0  0  0  0  0  0  0  0  0
    8.2628  -13.7249   26.6493 C   0  0  0  0  0  0  0  0  0  0  0  0
    7.1307  -16.6486   24.3813 C   0  0  0  0  0  0  0  0  0  0  0  0
    8.0091  -17.5696   24.2587 O   0  0  0  0  0  0  0  0  0  0  0  0
    9.1576  -15.1580   19.5486 N   0  0  0  0  0  0  0  0  0  0  0  0
    7.9893  -14.4213   20.0033 C   0  0  0  0  0  0  0  0  0  0  0  0
    7.5521  -13.5659   19.2167 O   0  0  0  0  0  0  0  0  0  0  0  0
    7.4133  -14.6991   21.2836 C   0  0  0  0  0  0  0  0  0  0  0  0
    7.8957  -15.9255   22.0638 C   0  0  2  0  0  0  0  0  0  0  0  0
    7.0122  -15.7752   23.2865 N   0  0  0  0  0  0  0  0  0  0  0  0
    9.2692  -15.6955   22.4883 C   0  0  0  0  0  0  0  0  0  0  0  0
    9.5005  -14.7293   23.3086 O   0  0  0  0  0  0  0  0  0  0  0  0
   10.3833  -16.4348   22.0981 N   0  0  0  0  0  0  0  0  0  0  0  0
   10.4221  -17.5369   21.1602 C   0  0  0  0  0  0  0  0  0  0  0  0
   11.2866  -18.5479   21.9195 C   0  0  0  0  0  0  0  0  0  0  0  0
   12.2173  -17.7175   22.7564 C   0  0  0  0  0  0  0  0  0  0  0  0
   11.7707  -16.3000   22.5367 C   0  0  1  0  0  0  0  0  0  0  0  0
   12.6158  -15.6846   21.4886 C   0  0  0  0  0  0  0  0  0  0  0  0
   13.8530  -15.1159   21.7553 O   0  0  0  0  0  0  0  0  0  0  0  0
   12.2489  -15.6445   20.2769 O   0  0  0  0  0  0  0  0  0  0  0  0
  2  1  1  1
  3  2  1  0
  4  9  1  0
  4  3  1  0
  5  4  2  0
  6  7  2  0
  6  5  1  0
  7  8  1  0
  8  9  2  0
 10  2  1  0
 11 10  2  0
 13 12  1  0
 14 13  2  0
 15 13  1  0
 16 15  1  6
 16 17  1  0
 17 10  1  0
 18 19  2  0
 18 16  1  0
 20 18  1  0
 21 20  1  0
 22 21  1  0
 23 24  1  0
 23 22  1  0
 24 20  1  0
 24 25  1  6
 26 25  1  0
 27 25  2  0
M  END
$$$$
