FNP.pdb
     RDKit          3D

 27 28  0  0  1  0  0  0  0  0999 V2000
    6.2346  -16.0057   20.8167 N   0  0  0  0  0  0  0  0  0  0  0  0
    7.3245  -15.4489   21.5933 C   0  0  1  0  0  0  0  0  0  0  0  0
    7.5623  -14.0048   21.3086 C   0  0  0  0  0  0  0  0  0  0  0  0
    8.0368  -13.6558   19.9965 C   0  0  0  0  0  0  0  0  0  0  0  0
    9.3423  -13.9661   19.6678 C   0  0  0  0  0  0  0  0  0  0  0  0
    9.8713  -13.6646   18.4273 C   0  0  0  0  0  0  0  0  0  0  0  0
    9.1022  -13.0423   17.4821 C   0  0  0  0  0  0  0  0  0  0  0  0
    7.7926  -12.7285   17.8051 C   0  0  0  0  0  0  0  0  0  0  0  0
    7.2648  -13.0314   19.0481 C   0  0  0  0  0  0  0  0  0  0  0  0
    7.1574  -15.7455   23.0421 C   0  0  0  0  0  0  0  0  0  0  0  0
    6.0875  -15.4248   23.6642 O   0  0  0  0  0  0  0  0  0  0  0  0
    6.3598  -19.2797   23.8294 N   0  0  0  0  0  0  0  0  0  0  0  0
    6.4815  -18.4911   25.0449 C   0  0  0  0  0  0  0  0  0  0  0  0
    5.4288  -18.3120   25.6785 O   0  0  0  0  0  0  0  0  0  0  0  0
    7.7544  -17.9748   25.4468 C   0  0  0  0  0  0  0  0  0  0  0  0
    8.0167  -16.4709   25.3256 C   0  0  2  0  0  0  0  0  0  0  0  0
    8.1398  -16.3857   23.8170 N   0  0  0  0  0  0  0  0  0  0  0  0
    9.3287  -16.1814   25.8863 C   0  0  0  0  0  0  0  0  0  0  0  0
   10.3684  -16.6174   25.2627 O   0  0  0  0  0  0  0  0  0  0  0  0
    9.5825  -15.4571   27.0487 N   0  0  0  0  0  0  0  0  0  0  0  0
    8.6203  -14.7684   27.8828 C   0  0  0  0  0  0  0  0  0  0  0  0
    9.3245  -13.4274   28.1100 C   0  0  0  0  0  0  0  0  0  0  0  0
   10.7923  -13.7433   28.0694 C   0  0  0  0  0  0  0  0  0  0  0  0
   10.8622  -15.1993   27.7054 C   0  0  1  0  0  0  0  0  0  0  0  0
   11.0107  -15.9994   28.9420 C   0  0  0  0  0  0  0  0  0  0  0  0
   12.1789  -16.0208   29.6904 O   0  0  0  0  0  0  0  0  0  0  0  0
   10.0662  -16.7160   29.3879 O   0  0  0  0  0  0  0  0  0  0  0  0
  2  1  1  6
  3  2  1  0
  4  9  1  0
  4  3  1  0
  5  4  2  0
  6  7  2  0
  6  5  1  0
  7  8  1  0
  8  9  2  0
 10  2  1  0
 11 10  2  0
 13 12  1  0
 14 13  2  0
 15 13  1  0
 16 15  1  6
 16 17  1  0
 17 10  1  0
 18 19  2  0
 18 16  1  0
 20 18  1  0
 21 20  1  0
 22 21  1  0
 23 24  1  0
 23 22  1  0
 24 20  1  0
 24 25  1  1
 26 25  1  0
 27 25  2  0
M  END
$$$$
