FNP.pdb
     RDKit          3D

 27 28  0  0  1  0  0  0  0  0999 V2000
    6.3770  -18.2286   20.3595 N   0  0  0  0  0  0  0  0  0  0  0  0
    6.9601  -16.9629   20.7584 C   0  0  1  0  0  0  0  0  0  0  0  0
    6.5174  -15.8242   19.9037 C   0  0  0  0  0  0  0  0  0  0  0  0
    7.1613  -14.5539   20.1039 C   0  0  0  0  0  0  0  0  0  0  0  0
    8.4019  -14.3505   19.5311 C   0  0  0  0  0  0  0  0  0  0  0  0
    9.0835  -13.1573   19.6768 C   0  0  0  0  0  0  0  0  0  0  0  0
    8.5366  -12.1346   20.4030 C   0  0  0  0  0  0  0  0  0  0  0  0
    7.2932  -12.3319   20.9799 C   0  0  0  0  0  0  0  0  0  0  0  0
    6.6123  -13.5278   20.8326 C   0  0  0  0  0  0  0  0  0  0  0  0
    6.7678  -16.7185   22.2138 C   0  0  0  0  0  0  0  0  0  0  0  0
    5.6020  -16.5362   22.7060 O   0  0  0  0  0  0  0  0  0  0  0  0
    6.4477  -19.9005   23.9361 N   0  0  0  0  0  0  0  0  0  0  0  0
    6.5079  -18.8289   24.9170 C   0  0  0  0  0  0  0  0  0  0  0  0
    5.5027  -18.6978   25.6340 O   0  0  0  0  0  0  0  0  0  0  0  0
    7.6728  -18.0031   25.0143 C   0  0  0  0  0  0  0  0  0  0  0  0
    7.5702  -16.5264   24.6217 C   0  0  2  0  0  0  0  0  0  0  0  0
    7.8284  -16.6712   23.1350 N   0  0  0  0  0  0  0  0  0  0  0  0
    8.7040  -15.8139   25.1930 C   0  0  0  0  0  0  0  0  0  0  0  0
    9.8356  -15.8766   24.5801 O   0  0  0  0  0  0  0  0  0  0  0  0
    8.6895  -15.0459   26.3549 N   0  0  0  0  0  0  0  0  0  0  0  0
    7.5546  -14.7652   27.2087 C   0  0  0  0  0  0  0  0  0  0  0  0
    7.7112  -13.2580   27.4316 C   0  0  0  0  0  0  0  0  0  0  0  0
    9.1900  -13.0034   27.3648 C   0  0  0  0  0  0  0  0  0  0  0  0
    9.7918  -14.3284   26.9917 C   0  0  1  0  0  0  0  0  0  0  0  0
   10.2498  -15.0139   28.2212 C   0  0  0  0  0  0  0  0  0  0  0  0
   11.3423  -14.5849   28.9612 O   0  0  0  0  0  0  0  0  0  0  0  0
    9.6603  -16.0421   28.6683 O   0  0  0  0  0  0  0  0  0  0  0  0
  2  1  1  6
  3  2  1  0
  4  9  1  0
  4  3  1  0
  5  4  2  0
  6  7  2  0
  6  5  1  0
  7  8  1  0
  8  9  2  0
 10  2  1  0
 11 10  2  0
 13 12  1  0
 14 13  2  0
 15 13  1  0
 16 15  1  1
 16 17  1  0
 17 10  1  0
 18 19  2  0
 18 16  1  0
 20 18  1  0
 21 20  1  0
 22 21  1  0
 23 24  1  0
 23 22  1  0
 24 20  1  0
 24 25  1  1
 26 25  1  0
 27 25  2  0
M  END
$$$$
