FNP.pdb
     RDKit          3D

 27 28  0  0  1  0  0  0  0  0999 V2000
    5.9926  -16.0391   21.0450 N   0  0  0  0  0  0  0  0  0  0  0  0
    7.0924  -15.5187   21.8328 C   0  0  1  0  0  0  0  0  0  0  0  0
    7.2534  -14.0422   21.7018 C   0  0  0  0  0  0  0  0  0  0  0  0
    7.6978  -13.5326   20.4324 C   0  0  0  0  0  0  0  0  0  0  0  0
    9.0570  -13.4391   20.2033 C   0  0  0  0  0  0  0  0  0  0  0  0
    9.5620  -12.9610   19.0092 C   0  0  0  0  0  0  0  0  0  0  0  0
    8.7143  -12.5632   18.0115 C   0  0  0  0  0  0  0  0  0  0  0  0
    7.3505  -12.6544   18.2346 C   0  0  0  0  0  0  0  0  0  0  0  0
    6.8469  -13.1336   19.4314 C   0  0  0  0  0  0  0  0  0  0  0  0
    7.0064  -15.9804   23.2450 C   0  0  0  0  0  0  0  0  0  0  0  0
    5.9039  -15.9337   23.8907 O   0  0  0  0  0  0  0  0  0  0  0  0
    5.5326  -18.0713   24.8075 N   0  0  0  0  0  0  0  0  0  0  0  0
    6.6851  -18.8748   25.1821 C   0  0  0  0  0  0  0  0  0  0  0  0
    6.4887  -20.0988   25.2519 O   0  0  0  0  0  0  0  0  0  0  0  0
    7.9464  -18.2510   25.4437 C   0  0  0  0  0  0  0  0  0  0  0  0
    8.0296  -16.7219   25.4546 C   0  0  2  0  0  0  0  0  0  0  0  0
    8.1047  -16.4908   23.9583 N   0  0  0  0  0  0  0  0  0  0  0  0
    9.3127  -16.3304   26.0204 C   0  0  0  0  0  0  0  0  0  0  0  0
   10.3819  -16.6068   25.3568 O   0  0  0  0  0  0  0  0  0  0  0  0
    9.5078  -15.6640   27.2279 N   0  0  0  0  0  0  0  0  0  0  0  0
    8.4923  -15.1907   28.1446 C   0  0  0  0  0  0  0  0  0  0  0  0
    9.0010  -13.7798   28.4549 C   0  0  0  0  0  0  0  0  0  0  0  0
   10.4962  -13.8684   28.3420 C   0  0  0  0  0  0  0  0  0  0  0  0
   10.7633  -15.2665   27.8614 C   0  0  1  0  0  0  0  0  0  0  0  0
   11.0816  -16.1244   29.0250 C   0  0  0  0  0  0  0  0  0  0  0  0
   10.2802  -17.1856   29.4210 O   0  0  0  0  0  0  0  0  0  0  0  0
   12.1165  -15.9321   29.7297 O   0  0  0  0  0  0  0  0  0  0  0  0
  2  1  1  6
  3  2  1  0
  4  9  1  0
  4  3  1  0
  5  4  2  0
  6  7  2  0
  6  5  1  0
  7  8  1  0
  8  9  2  0
 10  2  1  0
 11 10  2  0
 13 12  1  0
 14 13  2  0
 15 13  1  0
 16 15  1  6
 16 17  1  0
 17 10  1  0
 18 19  2  0
 18 16  1  0
 20 18  1  0
 21 20  1  0
 22 21  1  0
 23 24  1  0
 23 22  1  0
 24 20  1  0
 24 25  1  1
 26 25  1  0
 27 25  2  0
M  END
$$$$
