FNP.pdb
     RDKit          3D

 27 28  0  0  1  0  0  0  0  0999 V2000
    7.4509  -15.4819   20.8360 N   0  0  0  0  0  0  0  0  0  0  0  0
    7.7468  -14.7748   22.0664 C   0  0  1  0  0  0  0  0  0  0  0  0
    6.7928  -13.6625   22.3411 C   0  0  0  0  0  0  0  0  0  0  0  0
    6.9065  -12.9871   23.6058 C   0  0  0  0  0  0  0  0  0  0  0  0
    7.8468  -11.9825   23.7301 C   0  0  0  0  0  0  0  0  0  0  0  0
    8.0155  -11.2864   24.9118 C   0  0  0  0  0  0  0  0  0  0  0  0
    7.2434  -11.5810   26.0023 C   0  0  0  0  0  0  0  0  0  0  0  0
    6.2988  -12.5869   25.8846 C   0  0  0  0  0  0  0  0  0  0  0  0
    6.1315  -13.2828   24.7000 C   0  0  0  0  0  0  0  0  0  0  0  0
    7.8957  -15.7203   23.2060 C   0  0  0  0  0  0  0  0  0  0  0  0
    6.9145  -16.4371   23.6039 O   0  0  0  0  0  0  0  0  0  0  0  0
   11.2234  -19.8607   25.1894 N   0  0  0  0  0  0  0  0  0  0  0  0
    9.9584  -19.1647   25.3614 C   0  0  0  0  0  0  0  0  0  0  0  0
    9.2253  -19.5955   26.2663 O   0  0  0  0  0  0  0  0  0  0  0  0
    9.6222  -18.0580   24.5185 C   0  0  0  0  0  0  0  0  0  0  0  0
    9.1566  -16.7492   25.1631 C   0  0  2  0  0  0  0  0  0  0  0  0
    9.0977  -15.8926   23.9138 N   0  0  0  0  0  0  0  0  0  0  0  0
   10.2337  -16.2320   25.9950 C   0  0  0  0  0  0  0  0  0  0  0  0
   11.3652  -15.9721   25.4362 O   0  0  0  0  0  0  0  0  0  0  0  0
   10.1631  -15.9742   27.3620 N   0  0  0  0  0  0  0  0  0  0  0  0
    8.9814  -15.9828   28.1981 C   0  0  0  0  0  0  0  0  0  0  0  0
    9.1696  -14.6907   28.9986 C   0  0  0  0  0  0  0  0  0  0  0  0
   10.6568  -14.5131   29.1124 C   0  0  0  0  0  0  0  0  0  0  0  0
   11.2409  -15.6219   28.2838 C   0  0  1  0  0  0  0  0  0  0  0  0
   11.5910  -16.7543   29.1706 C   0  0  0  0  0  0  0  0  0  0  0  0
   12.6580  -16.7161   30.0567 O   0  0  0  0  0  0  0  0  0  0  0  0
   10.9256  -17.8321   29.1671 O   0  0  0  0  0  0  0  0  0  0  0  0
  2  1  1  6
  3  2  1  0
  4  9  1  0
  4  3  1  0
  5  4  2  0
  6  7  2  0
  6  5  1  0
  7  8  1  0
  8  9  2  0
 10  2  1  0
 11 10  2  0
 13 12  1  0
 14 13  2  0
 15 13  1  0
 16 15  1  6
 16 17  1  0
 17 10  1  0
 18 19  2  0
 18 16  1  0
 20 18  1  0
 21 20  1  0
 22 21  1  0
 23 24  1  0
 23 22  1  0
 24 20  1  0
 24 25  1  1
 26 25  1  0
 27 25  2  0
M  END
$$$$
