FNP.pdb
     RDKit          3D

 27 28  0  0  1  0  0  0  0  0999 V2000
    7.5029  -17.5026   19.7874 N   0  0  0  0  0  0  0  0  0  0  0  0
    8.4976  -16.8988   20.6520 C   0  0  1  0  0  0  0  0  0  0  0  0
    9.2167  -15.7637   20.0060 C   0  0  0  0  0  0  0  0  0  0  0  0
    8.5258  -14.5055   19.9146 C   0  0  0  0  0  0  0  0  0  0  0  0
    8.3222  -13.9591   18.6622 C   0  0  0  0  0  0  0  0  0  0  0  0
    7.6660  -12.7549   18.4920 C   0  0  0  0  0  0  0  0  0  0  0  0
    7.1960  -12.0661   19.5768 C   0  0  0  0  0  0  0  0  0  0  0  0
    7.3968  -12.6082   20.8352 C   0  0  0  0  0  0  0  0  0  0  0  0
    8.0542  -13.8145   21.0033 C   0  0  0  0  0  0  0  0  0  0  0  0
    7.9168  -16.5522   21.9777 C   0  0  0  0  0  0  0  0  0  0  0  0
    6.6584  -16.3808   22.1247 O   0  0  0  0  0  0  0  0  0  0  0  0
    7.2961  -19.0625   26.7182 N   0  0  0  0  0  0  0  0  0  0  0  0
    6.9007  -17.8625   25.9987 C   0  0  0  0  0  0  0  0  0  0  0  0
    6.0472  -17.1555   26.5585 O   0  0  0  0  0  0  0  0  0  0  0  0
    7.4854  -17.5557   24.7290 C   0  0  0  0  0  0  0  0  0  0  0  0
    8.0389  -16.1483   24.4878 C   0  0  2  0  0  0  0  0  0  0  0  0
    8.6898  -16.3911   23.1405 N   0  0  0  0  0  0  0  0  0  0  0  0
    9.1049  -15.8974   25.4472 C   0  0  0  0  0  0  0  0  0  0  0  0
   10.2687  -16.3968   25.2104 O   0  0  0  0  0  0  0  0  0  0  0  0
    8.9967  -15.1483   26.6165 N   0  0  0  0  0  0  0  0  0  0  0  0
    7.7828  -14.6804   27.2513 C   0  0  0  0  0  0  0  0  0  0  0  0
    8.1474  -13.2257   27.5626 C   0  0  0  0  0  0  0  0  0  0  0  0
    9.6326  -13.2332   27.7872 C   0  0  0  0  0  0  0  0  0  0  0  0
   10.0608  -14.6400   27.4795 C   0  0  1  0  0  0  0  0  0  0  0  0
   10.1489  -15.4051   28.7437 C   0  0  0  0  0  0  0  0  0  0  0  0
   11.0899  -15.1322   29.7262 O   0  0  0  0  0  0  0  0  0  0  0  0
    9.3590  -16.3621   28.9984 O   0  0  0  0  0  0  0  0  0  0  0  0
  2  1  1  6
  3  2  1  0
  4  9  1  0
  4  3  1  0
  5  4  2  0
  6  7  2  0
  6  5  1  0
  7  8  1  0
  8  9  2  0
 10  2  1  0
 11 10  2  0
 13 12  1  0
 14 13  2  0
 15 13  1  0
 16 15  1  1
 16 17  1  0
 17 10  1  0
 18 19  2  0
 18 16  1  0
 20 18  1  0
 21 20  1  0
 22 21  1  0
 23 24  1  0
 23 22  1  0
 24 20  1  0
 24 25  1  1
 26 25  1  0
 27 25  2  0
M  END
$$$$
