FNP.pdb
     RDKit          3D

 27 28  0  0  1  0  0  0  0  0999 V2000
    5.8840  -15.8637   22.0642 N   0  0  0  0  0  0  0  0  0  0  0  0
    7.1825  -15.6403   22.6685 C   0  0  1  0  0  0  0  0  0  0  0  0
    7.6278  -14.2201   22.5803 C   0  0  0  0  0  0  0  0  0  0  0  0
    7.2090  -13.3266   23.6266 C   0  0  0  0  0  0  0  0  0  0  0  0
    6.4291  -13.8334   24.6482 C   0  0  0  0  0  0  0  0  0  0  0  0
    5.9883  -13.0390   25.6894 C   0  0  0  0  0  0  0  0  0  0  0  0
    6.3194  -11.7121   25.7328 C   0  0  0  0  0  0  0  0  0  0  0  0
    7.1010  -11.1976   24.7119 C   0  0  0  0  0  0  0  0  0  0  0  0
    7.5414  -11.9951   23.6700 C   0  0  0  0  0  0  0  0  0  0  0  0
    7.2329  -16.1904   24.0505 C   0  0  0  0  0  0  0  0  0  0  0  0
    6.2460  -16.0571   24.8523 O   0  0  0  0  0  0  0  0  0  0  0  0
    6.6543  -20.0580   24.7223 N   0  0  0  0  0  0  0  0  0  0  0  0
    7.1908  -19.4620   25.9352 C   0  0  0  0  0  0  0  0  0  0  0  0
    6.5021  -19.6091   26.9579 O   0  0  0  0  0  0  0  0  0  0  0  0
    8.4376  -18.7600   25.9049 C   0  0  0  0  0  0  0  0  0  0  0  0
    8.4333  -17.2343   26.0375 C   0  0  2  0  0  0  0  0  0  0  0  0
    8.3429  -16.8816   24.5659 N   0  0  0  0  0  0  0  0  0  0  0  0
    9.7424  -16.8051   26.5082 C   0  0  0  0  0  0  0  0  0  0  0  0
   10.7290  -16.8367   25.6803 O   0  0  0  0  0  0  0  0  0  0  0  0
   10.0436  -16.3441   27.7877 N   0  0  0  0  0  0  0  0  0  0  0  0
    9.1189  -16.1014   28.8747 C   0  0  0  0  0  0  0  0  0  0  0  0
    9.5952  -14.7346   29.3754 C   0  0  0  0  0  0  0  0  0  0  0  0
   11.0702  -14.7058   29.0932 C   0  0  0  0  0  0  0  0  0  0  0  0
   11.3438  -15.9807   28.3471 C   0  0  1  0  0  0  0  0  0  0  0  0
   11.8313  -17.0028   29.3005 C   0  0  0  0  0  0  0  0  0  0  0  0
   13.0902  -16.9520   29.8818 O   0  0  0  0  0  0  0  0  0  0  0  0
   11.1150  -17.9907   29.6404 O   0  0  0  0  0  0  0  0  0  0  0  0
  2  1  1  1
  3  2  1  0
  4  9  1  0
  4  3  1  0
  5  4  2  0
  6  7  2  0
  6  5  1  0
  7  8  1  0
  8  9  2  0
 10  2  1  0
 11 10  2  0
 13 12  1  0
 14 13  2  0
 15 13  1  0
 16 15  1  6
 16 17  1  0
 17 10  1  0
 18 19  2  0
 18 16  1  0
 20 18  1  0
 21 20  1  0
 22 21  1  0
 23 24  1  0
 23 22  1  0
 24 20  1  0
 24 25  1  1
 26 25  1  0
 27 25  2  0
M  END
$$$$
