FNP.pdb
     RDKit          3D

 27 28  0  0  1  0  0  0  0  0999 V2000
    7.6541  -15.9497   26.6675 N   0  0  0  0  0  0  0  0  0  0  0  0
    7.6297  -15.2917   25.3761 C   0  0  1  0  0  0  0  0  0  0  0  0
    8.0584  -13.8652   25.4426 C   0  0  0  0  0  0  0  0  0  0  0  0
    7.3103  -12.9862   26.3008 C   0  0  0  0  0  0  0  0  0  0  0  0
    7.9816  -12.3358   27.3180 C   0  0  0  0  0  0  0  0  0  0  0  0
    7.3334  -11.4747   28.1829 C   0  0  0  0  0  0  0  0  0  0  0  0
    5.9914  -11.2435   28.0492 C   0  0  0  0  0  0  0  0  0  0  0  0
    5.3124  -11.8924   27.0315 C   0  0  0  0  0  0  0  0  0  0  0  0
    5.9637  -12.7543   26.1663 C   0  0  0  0  0  0  0  0  0  0  0  0
    8.3696  -16.0838   24.3563 C   0  0  0  0  0  0  0  0  0  0  0  0
    9.3735  -16.8064   24.6799 O   0  0  0  0  0  0  0  0  0  0  0  0
   12.0751  -16.8495   20.9938 N   0  0  0  0  0  0  0  0  0  0  0  0
   10.7561  -17.4587   20.9369 C   0  0  0  0  0  0  0  0  0  0  0  0
   10.5547  -18.2187   19.9759 O   0  0  0  0  0  0  0  0  0  0  0  0
    9.7837  -17.1718   21.9471 C   0  0  0  0  0  0  0  0  0  0  0  0
    9.0648  -15.8198   21.9220 C   0  0  2  0  0  0  0  0  0  0  0  0
    8.0283  -16.0971   22.9929 N   0  0  0  0  0  0  0  0  0  0  0  0
    8.3585  -15.6924   20.6553 C   0  0  0  0  0  0  0  0  0  0  0  0
    7.3764  -16.4927   20.4212 O   0  0  0  0  0  0  0  0  0  0  0  0
    8.6348  -14.7673   19.6512 N   0  0  0  0  0  0  0  0  0  0  0  0
    9.6338  -13.7198   19.6721 C   0  0  0  0  0  0  0  0  0  0  0  0
    8.8315  -12.5283   19.1406 C   0  0  0  0  0  0  0  0  0  0  0  0
    7.8108  -13.1248   18.2140 C   0  0  0  0  0  0  0  0  0  0  0  0
    7.9908  -14.6102   18.3490 C   0  0  1  0  0  0  0  0  0  0  0  0
    8.8579  -15.0932   17.2507 C   0  0  0  0  0  0  0  0  0  0  0  0
    8.4105  -15.2392   15.9455 O   0  0  0  0  0  0  0  0  0  0  0  0
   10.0704  -15.4024   17.4476 O   0  0  0  0  0  0  0  0  0  0  0  0
  2  1  1  1
  3  2  1  0
  4  9  1  0
  4  3  1  0
  5  4  2  0
  6  7  2  0
  6  5  1  0
  7  8  1  0
  8  9  2  0
 10  2  1  0
 11 10  2  0
 13 12  1  0
 14 13  2  0
 15 13  1  0
 16 15  1  6
 16 17  1  0
 17 10  1  0
 18 19  2  0
 18 16  1  0
 20 18  1  0
 21 20  1  0
 22 21  1  0
 23 24  1  0
 23 22  1  0
 24 20  1  0
 24 25  1  6
 26 25  1  0
 27 25  2  0
M  END
$$$$
