FNP.pdb
     RDKit          3D

 27 28  0  0  1  0  0  0  0  0999 V2000
    8.1199  -18.2825   20.0411 N   0  0  0  0  0  0  0  0  0  0  0  0
    8.3178  -16.8931   20.4039 C   0  0  1  0  0  0  0  0  0  0  0  0
    7.9590  -15.9494   19.3067 C   0  0  0  0  0  0  0  0  0  0  0  0
    8.0482  -14.5413   19.5861 C   0  0  0  0  0  0  0  0  0  0  0  0
    6.8875  -13.8604   19.8986 C   0  0  0  0  0  0  0  0  0  0  0  0
    6.8913  -12.5076   20.1804 C   0  0  0  0  0  0  0  0  0  0  0  0
    8.0628  -11.8011   20.1558 C   0  0  0  0  0  0  0  0  0  0  0  0
    9.2301  -12.4776   19.8433 C   0  0  0  0  0  0  0  0  0  0  0  0
    9.2240  -13.8326   19.5614 C   0  0  0  0  0  0  0  0  0  0  0  0
    7.6523  -16.5761   21.6968 C   0  0  0  0  0  0  0  0  0  0  0  0
    6.3819  -16.6465   21.8220 O   0  0  0  0  0  0  0  0  0  0  0  0
    6.3504  -19.3302   23.4324 N   0  0  0  0  0  0  0  0  0  0  0  0
    6.2478  -18.0789   24.1657 C   0  0  0  0  0  0  0  0  0  0  0  0
    5.0939  -17.6760   24.3850 O   0  0  0  0  0  0  0  0  0  0  0  0
    7.4290  -17.3904   24.5885 C   0  0  0  0  0  0  0  0  0  0  0  0
    7.6325  -15.9343   24.1598 C   0  0  2  0  0  0  0  0  0  0  0  0
    8.3538  -16.1849   22.8502 N   0  0  0  0  0  0  0  0  0  0  0  0
    8.5842  -15.3110   25.0684 C   0  0  0  0  0  0  0  0  0  0  0  0
    9.8363  -15.3612   24.7690 O   0  0  0  0  0  0  0  0  0  0  0  0
    8.2732  -14.6424   26.2501 N   0  0  0  0  0  0  0  0  0  0  0  0
    6.9681  -14.4938   26.8585 C   0  0  0  0  0  0  0  0  0  0  0  0
    6.9689  -13.0036   27.2122 C   0  0  0  0  0  0  0  0  0  0  0  0
    8.4074  -12.6651   27.4809 C   0  0  0  0  0  0  0  0  0  0  0  0
    9.1651  -13.9210   27.1554 C   0  0  1  0  0  0  0  0  0  0  0  0
    9.4024  -14.6790   28.4046 C   0  0  0  0  0  0  0  0  0  0  0  0
    8.8239  -15.9143   28.6584 O   0  0  0  0  0  0  0  0  0  0  0  0
   10.1566  -14.2335   29.3197 O   0  0  0  0  0  0  0  0  0  0  0  0
  2  1  1  6
  3  2  1  0
  4  9  1  0
  4  3  1  0
  5  4  2  0
  6  7  2  0
  6  5  1  0
  7  8  1  0
  8  9  2  0
 10  2  1  0
 11 10  2  0
 13 12  1  0
 14 13  2  0
 15 13  1  0
 16 15  1  1
 16 17  1  0
 17 10  1  0
 18 19  2  0
 18 16  1  0
 20 18  1  0
 21 20  1  0
 22 21  1  0
 23 24  1  0
 23 22  1  0
 24 20  1  0
 24 25  1  1
 26 25  1  0
 27 25  2  0
M  END
$$$$
