FNP.pdb
     RDKit          3D

 27 28  0  0  1  0  0  0  0  0999 V2000
    5.9686  -15.3307   21.9947 N   0  0  0  0  0  0  0  0  0  0  0  0
    7.2551  -15.1746   22.6442 C   0  0  1  0  0  0  0  0  0  0  0  0
    7.6916  -13.7518   22.7343 C   0  0  0  0  0  0  0  0  0  0  0  0
    7.2893  -13.0059   23.8964 C   0  0  0  0  0  0  0  0  0  0  0  0
    5.9468  -12.9718   24.2208 C   0  0  0  0  0  0  0  0  0  0  0  0
    5.4821  -12.2783   25.3220 C   0  0  0  0  0  0  0  0  0  0  0  0
    6.3546  -11.5994   26.1283 C   0  0  0  0  0  0  0  0  0  0  0  0
    7.7017  -11.6295   25.8088 C   0  0  0  0  0  0  0  0  0  0  0  0
    8.1649  -12.3247   24.7054 C   0  0  0  0  0  0  0  0  0  0  0  0
    7.2860  -15.8857   23.9512 C   0  0  0  0  0  0  0  0  0  0  0  0
    6.2608  -15.9126   24.7146 O   0  0  0  0  0  0  0  0  0  0  0  0
    6.8221  -19.5720   23.8420 N   0  0  0  0  0  0  0  0  0  0  0  0
    7.1024  -19.1505   25.2050 C   0  0  0  0  0  0  0  0  0  0  0  0
    6.1793  -19.3120   26.0195 O   0  0  0  0  0  0  0  0  0  0  0  0
    8.3761  -18.5908   25.5406 C   0  0  0  0  0  0  0  0  0  0  0  0
    8.4698  -17.0944   25.8529 C   0  0  2  0  0  0  0  0  0  0  0  0
    8.4179  -16.5654   24.4332 N   0  0  0  0  0  0  0  0  0  0  0  0
    9.7991  -16.8110   26.3746 C   0  0  0  0  0  0  0  0  0  0  0  0
   10.8062  -16.9406   25.5816 O   0  0  0  0  0  0  0  0  0  0  0  0
   10.1009  -16.3953   27.6694 N   0  0  0  0  0  0  0  0  0  0  0  0
    9.1685  -16.0801   28.7310 C   0  0  0  0  0  0  0  0  0  0  0  0
    9.7537  -14.7697   29.2661 C   0  0  0  0  0  0  0  0  0  0  0  0
   11.2332  -14.8755   29.0297 C   0  0  0  0  0  0  0  0  0  0  0  0
   11.4107  -16.1616   28.2737 C   0  0  1  0  0  0  0  0  0  0  0  0
   11.7704  -17.2359   29.2265 C   0  0  0  0  0  0  0  0  0  0  0  0
   10.9365  -18.3104   29.5010 O   0  0  0  0  0  0  0  0  0  0  0  0
   12.8733  -17.2306   29.8495 O   0  0  0  0  0  0  0  0  0  0  0  0
  2  1  1  1
  3  2  1  0
  4  9  1  0
  4  3  1  0
  5  4  2  0
  6  7  2  0
  6  5  1  0
  7  8  1  0
  8  9  2  0
 10  2  1  0
 11 10  2  0
 13 12  1  0
 14 13  2  0
 15 13  1  0
 16 15  1  6
 16 17  1  0
 17 10  1  0
 18 19  2  0
 18 16  1  0
 20 18  1  0
 21 20  1  0
 22 21  1  0
 23 24  1  0
 23 22  1  0
 24 20  1  0
 24 25  1  1
 26 25  1  0
 27 25  2  0
M  END
$$$$
