FNP.pdb
     RDKit          3D

 27 28  0  0  1  0  0  0  0  0999 V2000
    6.1141  -16.2612   21.0785 N   0  0  0  0  0  0  0  0  0  0  0  0
    7.1423  -15.6230   21.8766 C   0  0  1  0  0  0  0  0  0  0  0  0
    7.1858  -14.1440   21.6930 C   0  0  0  0  0  0  0  0  0  0  0  0
    7.7127  -13.6440   20.4516 C   0  0  0  0  0  0  0  0  0  0  0  0
    9.0825  -13.6478   20.2722 C   0  0  0  0  0  0  0  0  0  0  0  0
    9.6648  -13.1853   19.1075 C   0  0  0  0  0  0  0  0  0  0  0  0
    8.8857  -12.7057   18.0900 C   0  0  0  0  0  0  0  0  0  0  0  0
    7.5117  -12.6991   18.2633 C   0  0  0  0  0  0  0  0  0  0  0  0
    6.9307  -13.1629   19.4307 C   0  0  0  0  0  0  0  0  0  0  0  0
    7.0499  -16.0387   23.3026 C   0  0  0  0  0  0  0  0  0  0  0  0
    5.9858  -15.8390   23.9827 O   0  0  0  0  0  0  0  0  0  0  0  0
    6.7115  -19.6022   23.7971 N   0  0  0  0  0  0  0  0  0  0  0  0
    6.7307  -18.9476   25.0953 C   0  0  0  0  0  0  0  0  0  0  0  0
    5.6595  -18.9643   25.7230 O   0  0  0  0  0  0  0  0  0  0  0  0
    7.9313  -18.3367   25.5786 C   0  0  0  0  0  0  0  0  0  0  0  0
    8.0717  -16.8137   25.5013 C   0  0  2  0  0  0  0  0  0  0  0  0
    8.1006  -16.6675   23.9927 N   0  0  0  0  0  0  0  0  0  0  0  0
    9.3883  -16.4425   25.9997 C   0  0  0  0  0  0  0  0  0  0  0  0
   10.4155  -16.7144   25.2711 O   0  0  0  0  0  0  0  0  0  0  0  0
    9.6578  -15.8003   27.2060 N   0  0  0  0  0  0  0  0  0  0  0  0
    8.7012  -15.3511   28.1954 C   0  0  0  0  0  0  0  0  0  0  0  0
    9.2238  -13.9444   28.5022 C   0  0  0  0  0  0  0  0  0  0  0  0
   10.7090  -14.0235   28.2924 C   0  0  0  0  0  0  0  0  0  0  0  0
   10.9497  -15.4101   27.7665 C   0  0  1  0  0  0  0  0  0  0  0  0
   11.3446  -16.2904   28.8892 C   0  0  0  0  0  0  0  0  0  0  0  0
   12.5524  -16.1611   29.5598 O   0  0  0  0  0  0  0  0  0  0  0  0
   10.5903  -17.2204   29.3023 O   0  0  0  0  0  0  0  0  0  0  0  0
  2  1  1  6
  3  2  1  0
  4  9  1  0
  4  3  1  0
  5  4  2  0
  6  7  2  0
  6  5  1  0
  7  8  1  0
  8  9  2  0
 10  2  1  0
 11 10  2  0
 13 12  1  0
 14 13  2  0
 15 13  1  0
 16 15  1  6
 16 17  1  0
 17 10  1  0
 18 19  2  0
 18 16  1  0
 20 18  1  0
 21 20  1  0
 22 21  1  0
 23 24  1  0
 23 22  1  0
 24 20  1  0
 24 25  1  1
 26 25  1  0
 27 25  2  0
M  END
$$$$
