FNP.pdb
     RDKit          3D

 27 28  0  0  1  0  0  0  0  0999 V2000
    6.6736  -17.7397   20.2445 N   0  0  0  0  0  0  0  0  0  0  0  0
    7.0078  -16.4912   20.9009 C   0  0  1  0  0  0  0  0  0  0  0  0
    6.2935  -15.3192   20.3184 C   0  0  0  0  0  0  0  0  0  0  0  0
    7.0812  -14.1676   19.9692 C   0  0  0  0  0  0  0  0  0  0  0  0
    7.1939  -13.1462   20.8927 C   0  0  0  0  0  0  0  0  0  0  0  0
    7.9336  -12.0085   20.6321 C   0  0  0  0  0  0  0  0  0  0  0  0
    8.5810  -11.8657   19.4351 C   0  0  0  0  0  0  0  0  0  0  0  0
    8.4723  -12.8859   18.5049 C   0  0  0  0  0  0  0  0  0  0  0  0
    7.7309  -14.0246   18.7681 C   0  0  0  0  0  0  0  0  0  0  0  0
    6.8537  -16.6030   22.3769 C   0  0  0  0  0  0  0  0  0  0  0  0
    5.7570  -17.0013   22.8996 O   0  0  0  0  0  0  0  0  0  0  0  0
    5.2423  -18.0379   24.7481 N   0  0  0  0  0  0  0  0  0  0  0  0
    6.5208  -18.7053   24.9337 C   0  0  0  0  0  0  0  0  0  0  0  0
    6.4649  -19.9280   25.1423 O   0  0  0  0  0  0  0  0  0  0  0  0
    7.7408  -17.9597   24.8708 C   0  0  0  0  0  0  0  0  0  0  0  0
    7.6729  -16.4324   24.7808 C   0  0  2  0  0  0  0  0  0  0  0  0
    7.8780  -16.2866   23.2859 N   0  0  0  0  0  0  0  0  0  0  0  0
    8.8470  -15.8756   25.4374 C   0  0  0  0  0  0  0  0  0  0  0  0
   10.0085  -16.1738   24.9663 O   0  0  0  0  0  0  0  0  0  0  0  0
    8.8442  -15.0267   26.5418 N   0  0  0  0  0  0  0  0  0  0  0  0
    7.6924  -14.5184   27.2565 C   0  0  0  0  0  0  0  0  0  0  0  0
    8.0568  -13.0376   27.3998 C   0  0  0  0  0  0  0  0  0  0  0  0
    9.5570  -13.0077   27.4680 C   0  0  0  0  0  0  0  0  0  0  0  0
    9.9805  -14.4312   27.2414 C   0  0  1  0  0  0  0  0  0  0  0  0
   10.2142  -15.0797   28.5514 C   0  0  0  0  0  0  0  0  0  0  0  0
    9.4505  -16.1419   29.0138 O   0  0  0  0  0  0  0  0  0  0  0  0
   11.1363  -14.6939   29.3295 O   0  0  0  0  0  0  0  0  0  0  0  0
  2  1  1  6
  3  2  1  0
  4  9  1  0
  4  3  1  0
  5  4  2  0
  6  7  2  0
  6  5  1  0
  7  8  1  0
  8  9  2  0
 10  2  1  0
 11 10  2  0
 13 12  1  0
 14 13  2  0
 15 13  1  0
 16 15  1  6
 16 17  1  0
 17 10  1  0
 18 19  2  0
 18 16  1  0
 20 18  1  0
 21 20  1  0
 22 21  1  0
 23 24  1  0
 23 22  1  0
 24 20  1  0
 24 25  1  1
 26 25  1  0
 27 25  2  0
M  END
$$$$
