FNP.pdb
     RDKit          3D

 27 28  0  0  1  0  0  0  0  0999 V2000
    7.6360  -18.3062   19.8881 N   0  0  0  0  0  0  0  0  0  0  0  0
    7.9236  -16.9640   20.3542 C   0  0  1  0  0  0  0  0  0  0  0  0
    7.4843  -15.9097   19.3958 C   0  0  0  0  0  0  0  0  0  0  0  0
    7.5758  -14.5405   19.8269 C   0  0  0  0  0  0  0  0  0  0  0  0
    8.6943  -13.8137   19.4673 C   0  0  0  0  0  0  0  0  0  0  0  0
    8.8549  -12.4932   19.8417 C   0  0  0  0  0  0  0  0  0  0  0  0
    7.8950  -11.8663   20.5886 C   0  0  0  0  0  0  0  0  0  0  0  0
    6.7713  -12.5893   20.9525 C   0  0  0  0  0  0  0  0  0  0  0  0
    6.6125  -13.9116   20.5764 C   0  0  0  0  0  0  0  0  0  0  0  0
    7.4136  -16.7553   21.7366 C   0  0  0  0  0  0  0  0  0  0  0  0
    6.1639  -16.8223   21.9983 O   0  0  0  0  0  0  0  0  0  0  0  0
   10.0700  -18.7668   24.6256 N   0  0  0  0  0  0  0  0  0  0  0  0
    8.9965  -18.1387   25.3788 C   0  0  0  0  0  0  0  0  0  0  0  0
    9.2041  -17.9948   26.5945 O   0  0  0  0  0  0  0  0  0  0  0  0
    7.7950  -17.7281   24.7186 C   0  0  0  0  0  0  0  0  0  0  0  0
    7.6770  -16.2835   24.2240 C   0  0  2  0  0  0  0  0  0  0  0  0
    8.2477  -16.4755   22.8328 N   0  0  0  0  0  0  0  0  0  0  0  0
    8.6166  -15.4587   24.9699 C   0  0  0  0  0  0  0  0  0  0  0  0
    9.8394  -15.4103   24.5667 O   0  0  0  0  0  0  0  0  0  0  0  0
    8.3217  -14.6913   26.0943 N   0  0  0  0  0  0  0  0  0  0  0  0
    7.0778  -14.6583   26.8341 C   0  0  0  0  0  0  0  0  0  0  0  0
    6.8716  -13.1507   27.0089 C   0  0  0  0  0  0  0  0  0  0  0  0
    8.2555  -12.5690   27.0607 C   0  0  0  0  0  0  0  0  0  0  0  0
    9.1708  -13.7304   26.7950 C   0  0  1  0  0  0  0  0  0  0  0  0
    9.6532  -14.2701   28.0863 C   0  0  0  0  0  0  0  0  0  0  0  0
   10.5883  -13.6152   28.8749 O   0  0  0  0  0  0  0  0  0  0  0  0
    9.2317  -15.3729   28.5453 O   0  0  0  0  0  0  0  0  0  0  0  0
  2  1  1  6
  3  2  1  0
  4  9  1  0
  4  3  1  0
  5  4  2  0
  6  7  2  0
  6  5  1  0
  7  8  1  0
  8  9  2  0
 10  2  1  0
 11 10  2  0
 13 12  1  0
 14 13  2  0
 15 13  1  0
 16 15  1  1
 16 17  1  0
 17 10  1  0
 18 19  2  0
 18 16  1  0
 20 18  1  0
 21 20  1  0
 22 21  1  0
 23 24  1  0
 23 22  1  0
 24 20  1  0
 24 25  1  1
 26 25  1  0
 27 25  2  0
M  END
$$$$
