AMP.pdb
     RDKit          3D

 21 21  0  0  1  0  0  0  0  0999 V2000
   11.1598  -18.1574   21.9282 C   0  0  0  0  0  0  0  0  0  0  0  0
   10.5487  -16.8729   21.4795 C   0  0  2  0  0  0  0  0  0  0  0  0
   11.3569  -16.1358   20.5395 N   0  0  0  0  0  0  0  0  0  0  0  0
   10.2770  -16.0318   22.7148 C   0  0  0  0  0  0  0  0  0  0  0  0
   11.1577  -15.1668   22.9356 O   0  0  0  0  0  0  0  0  0  0  0  0
    6.0724  -11.9425   27.0403 C   0  0  0  0  0  0  0  0  0  0  0  0
    6.9808  -12.7266   25.6586 S   0  0  0  0  0  0  0  0  0  0  0  0
    6.6081  -14.5058   25.6049 C   0  0  0  0  0  0  0  0  0  0  0  0
    7.3526  -15.2510   24.5801 C   0  0  0  0  0  0  0  0  0  0  0  0
    8.8216  -15.3250   24.5900 C   0  0  2  0  0  0  0  0  0  0  0  0
    9.1210  -16.2660   23.4846 N   0  0  0  0  0  0  0  0  0  0  0  0
    9.5344  -15.8370   25.7448 C   0  0  0  0  0  0  0  0  0  0  0  0
    9.8921  -17.0984   25.6978 O   0  0  0  0  0  0  0  0  0  0  0  0
    9.9324  -15.2284   26.9380 N   0  0  0  0  0  0  0  0  0  0  0  0
    9.5903  -13.8314   27.2667 C   0  0  0  0  0  0  0  0  0  0  0  0
   10.6308  -13.4149   28.2822 C   0  0  0  0  0  0  0  0  0  0  0  0
   10.7185  -14.6571   29.1220 C   0  0  0  0  0  0  0  0  0  0  0  0
   10.6567  -15.7621   28.0477 C   0  0  1  0  0  0  0  0  0  0  0  0
    9.9262  -16.8725   28.7244 C   0  0  0  0  0  0  0  0  0  0  0  0
   10.5629  -17.6355   29.6798 O   0  0  0  0  0  0  0  0  0  0  0  0
    8.7414  -17.1142   28.4294 O   0  0  0  0  0  0  0  0  0  0  0  0
  2  1  1  1
  3  2  1  0
  4  2  1  0
  4 11  1  0
  5  4  2  0
  7  6  1  0
  8  7  1  0
  9  8  1  0
 10  9  1  1
 10 11  1  0
 10 12  1  0
 12 14  1  0
 13 12  2  0
 14 15  1  0
 14 18  1  0
 15 16  1  0
 16 17  1  0
 18 19  1  1
 18 17  1  0
 19 20  1  0
 21 19  2  0
M  END
$$$$
