AMP.pdb
     RDKit          3D

 21 21  0  0  1  0  0  0  0  0999 V2000
    7.3792  -15.5616   19.8021 C   0  0  0  0  0  0  0  0  0  0  0  0
    7.1942  -14.2338   20.4561 C   0  0  2  0  0  0  0  0  0  0  0  0
    7.7139  -13.1263   19.6922 N   0  0  0  0  0  0  0  0  0  0  0  0
    7.8593  -14.2918   21.8205 C   0  0  0  0  0  0  0  0  0  0  0  0
    9.0461  -13.8867   21.8169 O   0  0  0  0  0  0  0  0  0  0  0  0
    7.5726  -10.9784   27.3968 C   0  0  0  0  0  0  0  0  0  0  0  0
    6.3676  -12.3265   27.1147 S   0  0  0  0  0  0  0  0  0  0  0  0
    6.3936  -12.8227   25.3653 C   0  0  0  0  0  0  0  0  0  0  0  0
    6.6879  -14.2452   25.1423 C   0  0  0  0  0  0  0  0  0  0  0  0
    7.7852  -14.6812   24.2653 C   0  0  2  0  0  0  0  0  0  0  0  0
    7.1402  -14.7689   22.9336 N   0  0  0  0  0  0  0  0  0  0  0  0
    8.4394  -15.9596   24.4690 C   0  0  0  0  0  0  0  0  0  0  0  0
    7.7188  -17.0291   24.2277 O   0  0  0  0  0  0  0  0  0  0  0  0
    9.7332  -16.2876   24.8829 N   0  0  0  0  0  0  0  0  0  0  0  0
   10.7966  -15.2760   25.0332 C   0  0  0  0  0  0  0  0  0  0  0  0
   12.0848  -16.0610   24.9250 C   0  0  0  0  0  0  0  0  0  0  0  0
   11.7367  -17.2858   25.7218 C   0  0  0  0  0  0  0  0  0  0  0  0
   10.2854  -17.5471   25.2695 C   0  0  1  0  0  0  0  0  0  0  0  0
    9.6310  -18.1067   26.4874 C   0  0  0  0  0  0  0  0  0  0  0  0
    9.9683  -19.3663   26.9344 O   0  0  0  0  0  0  0  0  0  0  0  0
    8.7793  -17.4401   27.1033 O   0  0  0  0  0  0  0  0  0  0  0  0
  2  1  1  6
  3  2  1  0
  4  2  1  0
  4 11  1  0
  5  4  2  0
  7  6  1  0
  8  7  1  0
  9  8  1  0
 10  9  1  1
 10 11  1  0
 10 12  1  0
 12 14  1  0
 13 12  2  0
 14 15  1  0
 14 18  1  0
 15 16  1  0
 16 17  1  0
 18 19  1  1
 18 17  1  0
 19 20  1  0
 21 19  2  0
M  END
$$$$
