AMP.pdb
     RDKit          3D

 21 21  0  0  1  0  0  0  0  0999 V2000
   47.1960  -54.4848  -28.0061 C   0  0  0  0  0  0  0  0  0  0  0  0
   46.0628  -55.2177  -28.6415 C   0  0  2  0  0  0  0  0  0  0  0  0
   44.8585  -55.2369  -27.8481 N   0  0  0  0  0  0  0  0  0  0  0  0
   46.5287  -56.6348  -28.9275 C   0  0  0  0  0  0  0  0  0  0  0  0
   46.6627  -56.8810  -30.1498 O   0  0  0  0  0  0  0  0  0  0  0  0
   51.1143  -57.6103  -26.7828 C   0  0  0  0  0  0  0  0  0  0  0  0
   50.2742  -59.0399  -26.0084 S   0  0  0  0  0  0  0  0  0  0  0  0
   48.4768  -58.9065  -26.2518 C   0  0  0  0  0  0  0  0  0  0  0  0
   47.9944  -59.4579  -27.5258 C   0  0  0  0  0  0  0  0  0  0  0  0
   46.7562  -58.9780  -28.1584 C   0  0  2  0  0  0  0  0  0  0  0  0
   46.7654  -57.5256  -27.8625 N   0  0  0  0  0  0  0  0  0  0  0  0
   45.4602  -59.4593  -27.7198 C   0  0  0  0  0  0  0  0  0  0  0  0
   45.4617  -60.5241  -26.9533 O   0  0  0  0  0  0  0  0  0  0  0  0
   44.1647  -58.9930  -27.9585 N   0  0  0  0  0  0  0  0  0  0  0  0
   43.3028  -58.4650  -26.8838 C   0  0  0  0  0  0  0  0  0  0  0  0
   41.8956  -58.6169  -27.4171 C   0  0  0  0  0  0  0  0  0  0  0  0
   42.0904  -58.2060  -28.8486 C   0  0  0  0  0  0  0  0  0  0  0  0
   43.4378  -58.8782  -29.1830 C   0  0  1  0  0  0  0  0  0  0  0  0
   44.0783  -57.9296  -30.1393 C   0  0  0  0  0  0  0  0  0  0  0  0
   44.8146  -56.8649  -29.6657 O   0  0  0  0  0  0  0  0  0  0  0  0
   43.9505  -58.0953  -31.3663 O   0  0  0  0  0  0  0  0  0  0  0  0
  2  1  1  1
  3  2  1  0
  4  2  1  0
  4 11  1  0
  5  4  2  0
  7  6  1  0
  8  7  1  0
  9  8  1  0
 10  9  1  1
 10 11  1  0
 10 12  1  0
 12 14  1  0
 13 12  2  0
 14 15  1  0
 14 18  1  0
 15 16  1  0
 16 17  1  0
 18 19  1  6
 18 17  1  0
 19 20  1  0
 21 19  2  0
M  END
$$$$
