AMP.pdb
     RDKit          3D

 21 21  0  0  1  0  0  0  0  0999 V2000
    6.8393  -20.1503   22.4681 C   0  0  0  0  0  0  0  0  0  0  0  0
    5.8006  -19.5408   23.3482 C   0  0  2  0  0  0  0  0  0  0  0  0
    4.4527  -19.9435   23.0302 N   0  0  0  0  0  0  0  0  0  0  0  0
    5.9371  -18.0312   23.2503 C   0  0  0  0  0  0  0  0  0  0  0  0
    5.1345  -17.5068   22.4419 O   0  0  0  0  0  0  0  0  0  0  0  0
    7.1054  -11.4259   26.8675 C   0  0  0  0  0  0  0  0  0  0  0  0
    7.8626  -13.0473   26.4845 S   0  0  0  0  0  0  0  0  0  0  0  0
    6.6056  -14.1706   25.8022 C   0  0  0  0  0  0  0  0  0  0  0  0
    7.1362  -15.4534   25.3196 C   0  0  0  0  0  0  0  0  0  0  0  0
    6.9716  -15.8836   23.9227 C   0  0  2  0  0  0  0  0  0  0  0  0
    6.9001  -17.3603   24.0290 N   0  0  0  0  0  0  0  0  0  0  0  0
    7.9962  -15.6109   22.9330 C   0  0  0  0  0  0  0  0  0  0  0  0
    8.9751  -16.4806   22.8513 O   0  0  0  0  0  0  0  0  0  0  0  0
    8.1491  -14.5690   22.0144 N   0  0  0  0  0  0  0  0  0  0  0  0
    7.2712  -13.3833   22.0088 C   0  0  0  0  0  0  0  0  0  0  0  0
    7.3837  -12.8346   20.6039 C   0  0  0  0  0  0  0  0  0  0  0  0
    8.8550  -13.0026   20.3523 C   0  0  0  0  0  0  0  0  0  0  0  0
    9.1212  -14.3843   20.9840 C   0  0  1  0  0  0  0  0  0  0  0  0
   10.5071  -14.2657   21.5224 C   0  0  0  0  0  0  0  0  0  0  0  0
   10.7120  -14.1560   22.8812 O   0  0  0  0  0  0  0  0  0  0  0  0
   11.4819  -14.2652   20.7486 O   0  0  0  0  0  0  0  0  0  0  0  0
  2  1  1  6
  3  2  1  0
  4  2  1  0
  4 11  1  0
  5  4  2  0
  7  6  1  0
  8  7  1  0
  9  8  1  0
 10  9  1  1
 10 11  1  0
 10 12  1  0
 12 14  1  0
 13 12  2  0
 14 15  1  0
 14 18  1  0
 15 16  1  0
 16 17  1  0
 18 19  1  1
 18 17  1  0
 19 20  1  0
 21 19  2  0
M  END
$$$$
