AMP.pdb
     RDKit          3D

 21 21  0  0  1  0  0  0  0  0999 V2000
    9.6003  -15.9498   20.3744 C   0  0  0  0  0  0  0  0  0  0  0  0
    8.5823  -14.9157   20.7195 C   0  0  2  0  0  0  0  0  0  0  0  0
    8.5672  -13.7856   19.8235 N   0  0  0  0  0  0  0  0  0  0  0  0
    8.8505  -14.4571   22.1425 C   0  0  0  0  0  0  0  0  0  0  0  0
    9.7147  -13.5518   22.2227 O   0  0  0  0  0  0  0  0  0  0  0  0
    5.7248  -11.1843   27.7877 C   0  0  0  0  0  0  0  0  0  0  0  0
    6.0811  -11.7946   26.0997 S   0  0  0  0  0  0  0  0  0  0  0  0
    6.3398  -13.5944   26.1350 C   0  0  0  0  0  0  0  0  0  0  0  0
    6.7707  -14.1708   24.8536 C   0  0  0  0  0  0  0  0  0  0  0  0
    8.1926  -14.3601   24.5283 C   0  0  2  0  0  0  0  0  0  0  0  0
    8.1513  -15.0451   23.2144 N   0  0  0  0  0  0  0  0  0  0  0  0
    9.0474  -15.1761   25.3692 C   0  0  0  0  0  0  0  0  0  0  0  0
    9.3176  -16.3827   24.9305 O   0  0  0  0  0  0  0  0  0  0  0  0
    9.6647  -14.9192   26.5963 N   0  0  0  0  0  0  0  0  0  0  0  0
    9.4336  -13.6742   27.3534 C   0  0  0  0  0  0  0  0  0  0  0  0
   10.6464  -13.5435   28.2476 C   0  0  0  0  0  0  0  0  0  0  0  0
   10.8318  -14.9694   28.6818 C   0  0  0  0  0  0  0  0  0  0  0  0
   10.5483  -15.7314   27.3711 C   0  0  1  0  0  0  0  0  0  0  0  0
    9.9049  -16.9965   27.8298 C   0  0  0  0  0  0  0  0  0  0  0  0
   10.6570  -17.9623   28.4637 O   0  0  0  0  0  0  0  0  0  0  0  0
    8.6889  -17.1846   27.6423 O   0  0  0  0  0  0  0  0  0  0  0  0
  2  1  1  6
  3  2  1  0
  4  2  1  0
  4 11  1  0
  5  4  2  0
  7  6  1  0
  8  7  1  0
  9  8  1  0
 10  9  1  1
 10 11  1  0
 10 12  1  0
 12 14  1  0
 13 12  2  0
 14 15  1  0
 14 18  1  0
 15 16  1  0
 16 17  1  0
 18 19  1  1
 18 17  1  0
 19 20  1  0
 21 19  2  0
M  END
$$$$
