AMP.pdb
     RDKit          3D

 21 21  0  0  1  0  0  0  0  0999 V2000
    5.8475  -20.4510   23.8859 C   0  0  0  0  0  0  0  0  0  0  0  0
    5.2506  -19.2191   23.2933 C   0  0  2  0  0  0  0  0  0  0  0  0
    4.7789  -19.3881   21.9409 N   0  0  0  0  0  0  0  0  0  0  0  0
    6.2980  -18.1208   23.3534 C   0  0  0  0  0  0  0  0  0  0  0  0
    7.0002  -18.0409   22.3174 O   0  0  0  0  0  0  0  0  0  0  0  0
    7.2780  -11.2460   27.0351 C   0  0  0  0  0  0  0  0  0  0  0  0
    6.3640  -12.8004   26.7232 S   0  0  0  0  0  0  0  0  0  0  0  0
    7.3579  -13.9010   25.6705 C   0  0  0  0  0  0  0  0  0  0  0  0
    6.7053  -15.1754   25.3385 C   0  0  0  0  0  0  0  0  0  0  0  0
    7.3435  -16.1666   24.4589 C   0  0  2  0  0  0  0  0  0  0  0  0
    6.4042  -17.3124   24.5018 N   0  0  0  0  0  0  0  0  0  0  0  0
    8.6473  -16.7162   24.7777 C   0  0  0  0  0  0  0  0  0  0  0  0
    8.6750  -17.6665   25.6819 O   0  0  0  0  0  0  0  0  0  0  0  0
    9.9245  -16.4249   24.2911 N   0  0  0  0  0  0  0  0  0  0  0  0
   10.1758  -15.3338   23.3304 C   0  0  0  0  0  0  0  0  0  0  0  0
   11.4781  -15.7111   22.6602 C   0  0  0  0  0  0  0  0  0  0  0  0
   12.2622  -16.2225   23.8348 C   0  0  0  0  0  0  0  0  0  0  0  0
   11.1865  -17.0177   24.6025 C   0  0  1  0  0  0  0  0  0  0  0  0
   11.5651  -16.8339   26.0334 C   0  0  0  0  0  0  0  0  0  0  0  0
   12.6682  -17.4841   26.5439 O   0  0  0  0  0  0  0  0  0  0  0  0
   10.8877  -16.0945   26.7706 O   0  0  0  0  0  0  0  0  0  0  0  0
  2  1  1  6
  3  2  1  0
  4  2  1  0
  4 11  1  0
  5  4  2  0
  7  6  1  0
  8  7  1  0
  9  8  1  0
 10  9  1  1
 10 11  1  0
 10 12  1  0
 12 14  1  0
 13 12  2  0
 14 15  1  0
 14 18  1  0
 15 16  1  0
 16 17  1  0
 18 19  1  1
 18 17  1  0
 19 20  1  0
 21 19  2  0
M  END
$$$$
