AMP.pdb
     RDKit          3D

 21 21  0  0  1  0  0  0  0  0999 V2000
    6.2407  -17.0159   20.9006 C   0  0  0  0  0  0  0  0  0  0  0  0
    6.6802  -15.6053   20.6962 C   0  0  2  0  0  0  0  0  0  0  0  0
    7.2339  -15.3470   19.3897 N   0  0  0  0  0  0  0  0  0  0  0  0
    7.6973  -15.2751   21.7749 C   0  0  0  0  0  0  0  0  0  0  0  0
    8.8861  -15.3512   21.3828 O   0  0  0  0  0  0  0  0  0  0  0  0
    5.4624  -11.9123   26.3952 C   0  0  0  0  0  0  0  0  0  0  0  0
    7.1597  -11.8953   27.0790 S   0  0  0  0  0  0  0  0  0  0  0  0
    8.2113  -13.0534   26.1514 C   0  0  0  0  0  0  0  0  0  0  0  0
    7.5856  -13.6053   24.9415 C   0  0  0  0  0  0  0  0  0  0  0  0
    8.2910  -14.5569   24.0696 C   0  0  2  0  0  0  0  0  0  0  0  0
    7.2624  -14.9257   23.0681 N   0  0  0  0  0  0  0  0  0  0  0  0
    8.7977  -15.8117   24.5916 C   0  0  0  0  0  0  0  0  0  0  0  0
    7.9013  -16.7119   24.9197 O   0  0  0  0  0  0  0  0  0  0  0  0
   10.0990  -16.2679   24.8182 N   0  0  0  0  0  0  0  0  0  0  0  0
   11.2894  -15.4628   24.4846 C   0  0  0  0  0  0  0  0  0  0  0  0
   12.4038  -16.4751   24.3409 C   0  0  0  0  0  0  0  0  0  0  0  0
   12.0972  -17.3970   25.4864 C   0  0  0  0  0  0  0  0  0  0  0  0
   10.5591  -17.4836   25.4107 C   0  0  1  0  0  0  0  0  0  0  0  0
   10.1420  -17.6164   26.8366 C   0  0  0  0  0  0  0  0  0  0  0  0
   10.3509  -18.8016   27.5088 O   0  0  0  0  0  0  0  0  0  0  0  0
    9.6045  -16.6596   27.4238 O   0  0  0  0  0  0  0  0  0  0  0  0
  2  1  1  6
  3  2  1  0
  4  2  1  0
  4 11  1  0
  5  4  2  0
  7  6  1  0
  8  7  1  0
  9  8  1  0
 10  9  1  1
 10 11  1  0
 10 12  1  0
 12 14  1  0
 13 12  2  0
 14 15  1  0
 14 18  1  0
 15 16  1  0
 16 17  1  0
 18 19  1  1
 18 17  1  0
 19 20  1  0
 21 19  2  0
M  END
$$$$
