AMP.pdb
     RDKit          3D

 21 21  0  0  1  0  0  0  0  0999 V2000
    7.2928  -20.0664   22.8592 C   0  0  0  0  0  0  0  0  0  0  0  0
    6.1719  -19.4628   23.6365 C   0  0  2  0  0  0  0  0  0  0  0  0
    4.8773  -20.0171   23.3256 N   0  0  0  0  0  0  0  0  0  0  0  0
    6.1809  -17.9661   23.3778 C   0  0  0  0  0  0  0  0  0  0  0  0
    5.4806  -17.6232   22.3957 O   0  0  0  0  0  0  0  0  0  0  0  0
    7.0928  -11.1686   27.1265 C   0  0  0  0  0  0  0  0  0  0  0  0
    7.3581  -12.9771   27.0376 S   0  0  0  0  0  0  0  0  0  0  0  0
    7.0245  -13.5684   25.3505 C   0  0  0  0  0  0  0  0  0  0  0  0
    7.1440  -15.0236   25.1829 C   0  0  0  0  0  0  0  0  0  0  0  0
    6.9657  -15.6699   23.8737 C   0  0  2  0  0  0  0  0  0  0  0  0
    6.9316  -17.1131   24.2101 N   0  0  0  0  0  0  0  0  0  0  0  0
    7.9663  -15.5336   22.8326 C   0  0  0  0  0  0  0  0  0  0  0  0
    8.8695  -16.4827   22.7631 O   0  0  0  0  0  0  0  0  0  0  0  0
    8.1621  -14.5574   21.8520 N   0  0  0  0  0  0  0  0  0  0  0  0
    7.3401  -13.3346   21.7770 C   0  0  0  0  0  0  0  0  0  0  0  0
    7.4700  -12.8778   20.3410 C   0  0  0  0  0  0  0  0  0  0  0  0
    8.9305  -13.1291   20.0960 C   0  0  0  0  0  0  0  0  0  0  0  0
    9.1360  -14.4810   20.8096 C   0  0  1  0  0  0  0  0  0  0  0  0
   10.5289  -14.3947   21.3359 C   0  0  0  0  0  0  0  0  0  0  0  0
   11.5997  -14.5211   20.4771 O   0  0  0  0  0  0  0  0  0  0  0  0
   10.7293  -14.2087   22.5501 O   0  0  0  0  0  0  0  0  0  0  0  0
  2  1  1  6
  3  2  1  0
  4  2  1  0
  4 11  1  0
  5  4  2  0
  7  6  1  0
  8  7  1  0
  9  8  1  0
 10  9  1  1
 10 11  1  0
 10 12  1  0
 12 14  1  0
 13 12  2  0
 14 15  1  0
 14 18  1  0
 15 16  1  0
 16 17  1  0
 18 19  1  1
 18 17  1  0
 19 20  1  0
 21 19  2  0
M  END
$$$$
