AMP.pdb
     RDKit          3D

 21 21  0  0  1  0  0  0  0  0999 V2000
    9.7151  -16.3520   20.6709 C   0  0  0  0  0  0  0  0  0  0  0  0
    8.7331  -15.2382   20.8127 C   0  0  2  0  0  0  0  0  0  0  0  0
    8.9014  -14.1813   19.8458 N   0  0  0  0  0  0  0  0  0  0  0  0
    8.8563  -14.6875   22.2229 C   0  0  0  0  0  0  0  0  0  0  0  0
    9.5890  -13.6729   22.3024 O   0  0  0  0  0  0  0  0  0  0  0  0
    5.7605  -11.3087   27.5556 C   0  0  0  0  0  0  0  0  0  0  0  0
    6.4321  -12.0656   26.0308 S   0  0  0  0  0  0  0  0  0  0  0  0
    6.1506  -13.8621   26.0569 C   0  0  0  0  0  0  0  0  0  0  0  0
    6.6809  -14.5764   24.8871 C   0  0  0  0  0  0  0  0  0  0  0  0
    8.1203  -14.6095   24.5865 C   0  0  2  0  0  0  0  0  0  0  0  0
    8.1786  -15.3168   23.2852 N   0  0  0  0  0  0  0  0  0  0  0  0
    9.0474  -15.3094   25.4550 C   0  0  0  0  0  0  0  0  0  0  0  0
    9.3990  -16.5169   25.0815 O   0  0  0  0  0  0  0  0  0  0  0  0
    9.6644  -14.9356   26.6518 N   0  0  0  0  0  0  0  0  0  0  0  0
    9.4686  -13.6067   27.2621 C   0  0  0  0  0  0  0  0  0  0  0  0
   10.6790  -13.4144   28.1484 C   0  0  0  0  0  0  0  0  0  0  0  0
   10.8154  -14.7876   28.7417 C   0  0  0  0  0  0  0  0  0  0  0  0
   10.5162  -15.6829   27.5219 C   0  0  1  0  0  0  0  0  0  0  0  0
    9.8292  -16.8675   28.1130 C   0  0  0  0  0  0  0  0  0  0  0  0
   10.5595  -17.8236   28.7858 O   0  0  0  0  0  0  0  0  0  0  0  0
    8.5964  -16.9972   28.0011 O   0  0  0  0  0  0  0  0  0  0  0  0
  2  1  1  6
  3  2  1  0
  4  2  1  0
  4 11  1  0
  5  4  2  0
  7  6  1  0
  8  7  1  0
  9  8  1  0
 10  9  1  1
 10 11  1  0
 10 12  1  0
 12 14  1  0
 13 12  2  0
 14 15  1  0
 14 18  1  0
 15 16  1  0
 16 17  1  0
 18 19  1  1
 18 17  1  0
 19 20  1  0
 21 19  2  0
M  END
$$$$
