AMP.pdb
     RDKit          3D

 21 21  0  0  1  0  0  0  0  0999 V2000
   10.7060  -17.8198   21.6021 C   0  0  0  0  0  0  0  0  0  0  0  0
    9.9246  -16.5855   21.3004 C   0  0  2  0  0  0  0  0  0  0  0  0
   10.5093  -15.7574   20.2745 N   0  0  0  0  0  0  0  0  0  0  0  0
    9.7793  -15.8007   22.5926 C   0  0  0  0  0  0  0  0  0  0  0  0
   10.7212  -14.9993   22.8008 O   0  0  0  0  0  0  0  0  0  0  0  0
    5.8801  -11.5728   27.0891 C   0  0  0  0  0  0  0  0  0  0  0  0
    6.6581  -12.4048   25.6567 S   0  0  0  0  0  0  0  0  0  0  0  0
    6.3946  -14.2009   25.7674 C   0  0  0  0  0  0  0  0  0  0  0  0
    7.0259  -14.9743   24.6888 C   0  0  0  0  0  0  0  0  0  0  0  0
    8.4863  -15.1201   24.5925 C   0  0  2  0  0  0  0  0  0  0  0  0
    8.6613  -16.0132   23.4225 N   0  0  0  0  0  0  0  0  0  0  0  0
    9.2473  -15.7282   25.6671 C   0  0  0  0  0  0  0  0  0  0  0  0
    9.5150  -17.0064   25.5421 O   0  0  0  0  0  0  0  0  0  0  0  0
    9.7731  -15.2006   26.8495 N   0  0  0  0  0  0  0  0  0  0  0  0
    9.5323  -13.8072   27.2705 C   0  0  0  0  0  0  0  0  0  0  0  0
   10.6730  -13.4932   28.2126 C   0  0  0  0  0  0  0  0  0  0  0  0
   10.7647  -14.7791   28.9833 C   0  0  0  0  0  0  0  0  0  0  0  0
   10.5575  -15.8240   27.8678 C   0  0  1  0  0  0  0  0  0  0  0  0
    9.8282  -16.9310   28.5515 C   0  0  0  0  0  0  0  0  0  0  0  0
   10.4917  -17.7466   29.4430 O   0  0  0  0  0  0  0  0  0  0  0  0
    8.6204  -17.1224   28.3200 O   0  0  0  0  0  0  0  0  0  0  0  0
  2  1  1  1
  3  2  1  0
  4  2  1  0
  4 11  1  0
  5  4  2  0
  7  6  1  0
  8  7  1  0
  9  8  1  0
 10  9  1  1
 10 11  1  0
 10 12  1  0
 12 14  1  0
 13 12  2  0
 14 15  1  0
 14 18  1  0
 15 16  1  0
 16 17  1  0
 18 19  1  1
 18 17  1  0
 19 20  1  0
 21 19  2  0
M  END
$$$$
