GPM.pdb
     RDKit          3D

 20 20  0  0  1  0  0  0  0  0999 V2000
    9.0197  -16.0718   18.8034 N   0  0  0  0  0  0  0  0  0  0  0  0
    8.8698  -17.1335   19.7192 C   0  0  0  0  0  0  0  0  0  0  0  0
    8.3054  -16.8745   21.0264 C   0  0  0  0  0  0  0  0  0  0  0  0
    8.7348  -15.7983   21.6007 O   0  0  0  0  0  0  0  0  0  0  0  0
    7.3748  -17.6167   21.7391 N   0  0  0  0  0  0  0  0  0  0  0  0
    6.4531  -18.5935   21.2011 C   0  0  0  0  0  0  0  0  0  0  0  0
    6.7583  -19.7992   22.1118 C   0  0  0  0  0  0  0  0  0  0  0  0
    6.9178  -19.1116   23.4465 C   0  0  0  0  0  0  0  0  0  0  0  0
    7.0925  -17.6431   23.1695 C   0  0  1  0  0  0  0  0  0  0  0  0
    8.0800  -17.0368   24.0347 C   0  0  0  0  0  0  0  0  0  0  0  0
    9.3273  -17.2921   23.8864 O   0  0  0  0  0  0  0  0  0  0  0  0
    6.2198  -10.9949   25.3799 C   0  0  0  0  0  0  0  0  0  0  0  0
    6.5809  -12.3615   26.5143 S   0  0  0  0  0  0  0  0  0  0  0  0
    7.9623  -13.3154   25.8221 C   0  0  0  0  0  0  0  0  0  0  0  0
    8.3595  -14.4323   26.7778 C   0  0  0  0  0  0  0  0  0  0  0  0
    8.8363  -15.6296   25.9851 C   0  0  2  0  0  0  0  0  0  0  0  0
    7.8032  -16.1321   25.1034 N   0  0  0  0  0  0  0  0  0  0  0  0
    9.2457  -16.7251   26.8840 C   0  0  0  0  0  0  0  0  0  0  0  0
    8.4496  -17.8398   27.0239 O   0  0  0  0  0  0  0  0  0  0  0  0
   10.3186  -16.6583   27.5301 O   0  0  0  0  0  0  0  0  0  0  0  0
  2  1  1  0
  3  2  1  0
  4  3  2  0
  5  9  1  0
  5  3  1  0
  6  5  1  0
  7  6  1  0
  7  8  1  0
  8  9  1  0
  9 10  1  1
 10 17  1  0
 10 11  2  0
 13 12  1  0
 14 15  1  0
 14 13  1  0
 16 15  1  1
 16 18  1  0
 17 16  1  0
 18 20  2  0
 18 19  1  0
M  END
$$$$
