GPM.pdb
     RDKit          3D

 20 20  0  0  1  0  0  0  0  0999 V2000
   13.0160  -13.8747   19.9216 N   0  0  0  0  0  0  0  0  0  0  0  0
   11.7254  -14.4034   19.7138 C   0  0  0  0  0  0  0  0  0  0  0  0
   10.6888  -14.1625   20.6946 C   0  0  0  0  0  0  0  0  0  0  0  0
   11.0342  -14.3942   21.9190 O   0  0  0  0  0  0  0  0  0  0  0  0
    9.3881  -13.7202   20.5006 N   0  0  0  0  0  0  0  0  0  0  0  0
    8.8732  -13.0338   19.3359 C   0  0  0  0  0  0  0  0  0  0  0  0
    7.6534  -13.9167   19.0059 C   0  0  0  0  0  0  0  0  0  0  0  0
    7.1259  -14.1991   20.3922 C   0  0  0  0  0  0  0  0  0  0  0  0
    8.2181  -13.8400   21.3627 C   0  0  1  0  0  0  0  0  0  0  0  0
    8.3127  -14.7844   22.4538 C   0  0  0  0  0  0  0  0  0  0  0  0
    8.9636  -15.8803   22.3181 O   0  0  0  0  0  0  0  0  0  0  0  0
    6.6338  -10.9021   26.6722 C   0  0  0  0  0  0  0  0  0  0  0  0
    6.1879  -12.6510   26.5061 S   0  0  0  0  0  0  0  0  0  0  0  0
    7.7121  -13.5933   26.2123 C   0  0  0  0  0  0  0  0  0  0  0  0
    7.4010  -15.0815   26.1288 C   0  0  0  0  0  0  0  0  0  0  0  0
    7.8541  -15.6178   24.7885 C   0  0  2  0  0  0  0  0  0  0  0  0
    7.7234  -14.6236   23.7437 N   0  0  0  0  0  0  0  0  0  0  0  0
    7.0607  -16.7991   24.4003 C   0  0  0  0  0  0  0  0  0  0  0  0
    7.1653  -17.9695   25.1179 O   0  0  0  0  0  0  0  0  0  0  0  0
    6.2835  -16.7554   23.4168 O   0  0  0  0  0  0  0  0  0  0  0  0
  2  1  1  0
  3  2  1  0
  4  3  2  0
  5  9  1  0
  5  3  1  0
  6  5  1  0
  7  6  1  0
  7  8  1  0
  8  9  1  0
  9 10  1  1
 10 17  1  0
 10 11  2  0
 13 12  1  0
 14 15  1  0
 14 13  1  0
 16 15  1  1
 16 18  1  0
 17 16  1  0
 18 20  2  0
 18 19  1  0
M  END
$$$$
