GPM.pdb
     RDKit          3D

 20 20  0  0  1  0  0  0  0  0999 V2000
    7.7587  -18.5340   18.7793 N   0  0  0  0  0  0  0  0  0  0  0  0
    7.2694  -17.4704   19.5653 C   0  0  0  0  0  0  0  0  0  0  0  0
    8.1997  -16.5321   20.1557 C   0  0  0  0  0  0  0  0  0  0  0  0
    9.0507  -17.0542   20.9777 O   0  0  0  0  0  0  0  0  0  0  0  0
    8.3016  -15.1623   19.9603 N   0  0  0  0  0  0  0  0  0  0  0  0
    7.7662  -14.4054   18.8497 C   0  0  0  0  0  0  0  0  0  0  0  0
    6.9756  -13.3190   19.6052 C   0  0  0  0  0  0  0  0  0  0  0  0
    7.9260  -13.0146   20.7382 C   0  0  0  0  0  0  0  0  0  0  0  0
    8.9238  -14.1395   20.7930 C   0  0  1  0  0  0  0  0  0  0  0  0
    9.2463  -14.5191   22.1505 C   0  0  0  0  0  0  0  0  0  0  0  0
   10.4638  -14.6956   22.5106 O   0  0  0  0  0  0  0  0  0  0  0  0
    5.3065  -11.9717   26.9458 C   0  0  0  0  0  0  0  0  0  0  0  0
    7.0771  -11.7619   27.2711 S   0  0  0  0  0  0  0  0  0  0  0  0
    7.9413  -13.2294   26.6411 C   0  0  0  0  0  0  0  0  0  0  0  0
    7.6709  -13.3987   25.1522 C   0  0  0  0  0  0  0  0  0  0  0  0
    8.6000  -14.4502   24.5864 C   0  0  2  0  0  0  0  0  0  0  0  0
    8.3016  -14.7353   23.1983 N   0  0  0  0  0  0  0  0  0  0  0  0
    8.4930  -15.7095   25.3471 C   0  0  0  0  0  0  0  0  0  0  0  0
    9.3112  -15.9349   26.4313 O   0  0  0  0  0  0  0  0  0  0  0  0
    7.6599  -16.5882   25.0200 O   0  0  0  0  0  0  0  0  0  0  0  0
  2  1  1  0
  3  2  1  0
  4  3  2  0
  5  9  1  0
  5  3  1  0
  6  5  1  0
  7  6  1  0
  7  8  1  0
  8  9  1  0
  9 10  1  1
 10 17  1  0
 10 11  2  0
 13 12  1  0
 14 15  1  0
 14 13  1  0
 16 15  1  1
 16 18  1  0
 17 16  1  0
 18 20  2  0
 18 19  1  0
M  END
$$$$
