GPM.pdb
     RDKit          3D

 20 20  0  0  1  0  0  0  0  0999 V2000
    8.2387  -18.3415   19.6149 N   0  0  0  0  0  0  0  0  0  0  0  0
    7.5700  -17.2898   20.2745 C   0  0  0  0  0  0  0  0  0  0  0  0
    8.3314  -16.1735   20.7929 C   0  0  0  0  0  0  0  0  0  0  0  0
    9.1654  -16.4745   21.7343 O   0  0  0  0  0  0  0  0  0  0  0  0
    8.2886  -14.8380   20.4196 N   0  0  0  0  0  0  0  0  0  0  0  0
    7.9876  -14.3175   19.1037 C   0  0  0  0  0  0  0  0  0  0  0  0
    6.8693  -13.3138   19.4476 C   0  0  0  0  0  0  0  0  0  0  0  0
    7.4067  -12.7199   20.7275 C   0  0  0  0  0  0  0  0  0  0  0  0
    8.4974  -13.6341   21.2156 C   0  0  1  0  0  0  0  0  0  0  0  0
    8.4730  -13.7966   22.6523 C   0  0  0  0  0  0  0  0  0  0  0  0
    8.1355  -12.8246   23.4167 O   0  0  0  0  0  0  0  0  0  0  0  0
    6.6295  -11.1103   26.8317 C   0  0  0  0  0  0  0  0  0  0  0  0
    7.2908  -12.7977   26.8182 S   0  0  0  0  0  0  0  0  0  0  0  0
    6.7804  -13.5881   25.2651 C   0  0  0  0  0  0  0  0  0  0  0  0
    7.2385  -15.0401   25.2401 C   0  0  0  0  0  0  0  0  0  0  0  0
    8.6835  -15.1062   24.7963 C   0  0  2  0  0  0  0  0  0  0  0  0
    8.8061  -14.9917   23.3579 N   0  0  0  0  0  0  0  0  0  0  0  0
    9.3019  -16.3799   25.2100 C   0  0  0  0  0  0  0  0  0  0  0  0
    9.5614  -16.6235   26.5400 O   0  0  0  0  0  0  0  0  0  0  0  0
    9.5986  -17.2547   24.3616 O   0  0  0  0  0  0  0  0  0  0  0  0
  2  1  1  0
  3  2  1  0
  4  3  2  0
  5  9  1  0
  5  3  1  0
  6  5  1  0
  7  6  1  0
  7  8  1  0
  8  9  1  0
  9 10  1  1
 10 17  1  0
 10 11  2  0
 13 12  1  0
 14 15  1  0
 14 13  1  0
 16 15  1  6
 16 18  1  0
 17 16  1  0
 18 20  2  0
 18 19  1  0
M  END
$$$$
