GPM.pdb
     RDKit          3D

 20 20  0  0  1  0  0  0  0  0999 V2000
   11.4325  -17.5352   19.1029 N   0  0  0  0  0  0  0  0  0  0  0  0
   10.0782  -17.2751   19.3970 C   0  0  0  0  0  0  0  0  0  0  0  0
    9.7408  -16.2456   20.3565 C   0  0  0  0  0  0  0  0  0  0  0  0
   10.4825  -16.2252   21.4157 O   0  0  0  0  0  0  0  0  0  0  0  0
    8.7400  -15.2868   20.2938 N   0  0  0  0  0  0  0  0  0  0  0  0
    8.1788  -14.7001   19.0965 C   0  0  0  0  0  0  0  0  0  0  0  0
    6.6761  -14.9382   19.3447 C   0  0  0  0  0  0  0  0  0  0  0  0
    6.5822  -14.6348   20.8208 C   0  0  0  0  0  0  0  0  0  0  0  0
    7.9849  -14.6474   21.3651 C   0  0  1  0  0  0  0  0  0  0  0  0
    8.0602  -15.2682   22.6689 C   0  0  0  0  0  0  0  0  0  0  0  0
    8.1095  -16.5437   22.7863 O   0  0  0  0  0  0  0  0  0  0  0  0
    5.7357  -10.9662   27.3975 C   0  0  0  0  0  0  0  0  0  0  0  0
    7.1013  -12.1374   27.6177 S   0  0  0  0  0  0  0  0  0  0  0  0
    7.0789  -13.2950   26.2188 C   0  0  0  0  0  0  0  0  0  0  0  0
    8.2201  -14.2949   26.3470 C   0  0  0  0  0  0  0  0  0  0  0  0
    8.1736  -15.2658   25.1875 C   0  0  2  0  0  0  0  0  0  0  0  0
    8.0843  -14.5764   23.9171 N   0  0  0  0  0  0  0  0  0  0  0  0
    7.0117  -16.1670   25.3036 C   0  0  0  0  0  0  0  0  0  0  0  0
    7.0683  -17.2663   26.1306 O   0  0  0  0  0  0  0  0  0  0  0  0
    5.9611  -15.9466   24.6549 O   0  0  0  0  0  0  0  0  0  0  0  0
  2  1  1  0
  3  2  1  0
  4  3  2  0
  5  9  1  0
  5  3  1  0
  6  5  1  0
  7  6  1  0
  7  8  1  0
  8  9  1  0
  9 10  1  1
 10 17  1  0
 10 11  2  0
 13 12  1  0
 14 15  1  0
 14 13  1  0
 16 15  1  1
 16 18  1  0
 17 16  1  0
 18 20  2  0
 18 19  1  0
M  END
$$$$
