GPM.pdb
     RDKit          3D

 20 20  0  0  1  0  0  0  0  0999 V2000
   10.9289  -17.7895   18.6041 N   0  0  0  0  0  0  0  0  0  0  0  0
    9.6750  -17.3509   19.0770 C   0  0  0  0  0  0  0  0  0  0  0  0
    9.6149  -16.3175   20.0886 C   0  0  0  0  0  0  0  0  0  0  0  0
   10.3083  -16.5579   21.1533 O   0  0  0  0  0  0  0  0  0  0  0  0
    8.9217  -15.1159   20.0700 N   0  0  0  0  0  0  0  0  0  0  0  0
    8.4807  -14.3904   18.8987 C   0  0  0  0  0  0  0  0  0  0  0  0
    6.9882  -14.1976   19.2330 C   0  0  0  0  0  0  0  0  0  0  0  0
    7.0674  -13.8859   20.7083 C   0  0  0  0  0  0  0  0  0  0  0  0
    8.4386  -14.2943   21.1738 C   0  0  1  0  0  0  0  0  0  0  0  0
    8.4106  -14.9165   22.4789 C   0  0  0  0  0  0  0  0  0  0  0  0
    8.1399  -16.1630   22.6056 O   0  0  0  0  0  0  0  0  0  0  0  0
    6.5755  -11.3349   27.5518 C   0  0  0  0  0  0  0  0  0  0  0  0
    5.7942  -12.7829   26.7916 S   0  0  0  0  0  0  0  0  0  0  0  0
    6.9642  -14.1681   26.8897 C   0  0  0  0  0  0  0  0  0  0  0  0
    8.2226  -13.8493   26.0940 C   0  0  0  0  0  0  0  0  0  0  0  0
    8.4026  -14.8786   24.9997 C   0  0  2  0  0  0  0  0  0  0  0  0
    8.6634  -14.2559   23.7185 N   0  0  0  0  0  0  0  0  0  0  0  0
    7.1972  -15.7182   24.8653 C   0  0  0  0  0  0  0  0  0  0  0  0
    7.0352  -16.8291   25.6624 O   0  0  0  0  0  0  0  0  0  0  0  0
    6.3073  -15.4343   24.0284 O   0  0  0  0  0  0  0  0  0  0  0  0
  2  1  1  0
  3  2  1  0
  4  3  2  0
  5  9  1  0
  5  3  1  0
  6  5  1  0
  7  6  1  0
  7  8  1  0
  8  9  1  0
  9 10  1  1
 10 17  1  0
 10 11  2  0
 13 12  1  0
 14 15  1  0
 14 13  1  0
 16 15  1  1
 16 18  1  0
 17 16  1  0
 18 20  2  0
 18 19  1  0
M  END
$$$$
