GPM.pdb
     RDKit          3D

 20 20  0  0  1  0  0  0  0  0999 V2000
   10.4266  -17.4244   18.4792 N   0  0  0  0  0  0  0  0  0  0  0  0
    9.3499  -17.3274   19.3846 C   0  0  0  0  0  0  0  0  0  0  0  0
    9.4456  -16.4275   20.5141 C   0  0  0  0  0  0  0  0  0  0  0  0
   10.5596  -16.4917   21.1677 O   0  0  0  0  0  0  0  0  0  0  0  0
    8.5135  -15.5141   20.9849 N   0  0  0  0  0  0  0  0  0  0  0  0
    7.4830  -14.8547   20.2128 C   0  0  0  0  0  0  0  0  0  0  0  0
    6.2407  -15.1821   21.0648 C   0  0  0  0  0  0  0  0  0  0  0  0
    6.7995  -15.0094   22.4568 C   0  0  0  0  0  0  0  0  0  0  0  0
    8.2991  -15.0032   22.3339 C   0  0  1  0  0  0  0  0  0  0  0  0
    8.9391  -15.7281   23.4091 C   0  0  0  0  0  0  0  0  0  0  0  0
    8.7402  -16.9851   23.5623 O   0  0  0  0  0  0  0  0  0  0  0  0
    9.6905  -12.9817   29.2241 C   0  0  0  0  0  0  0  0  0  0  0  0
   10.8745  -14.3434   29.3933 S   0  0  0  0  0  0  0  0  0  0  0  0
   10.5462  -15.5405   28.0679 C   0  0  0  0  0  0  0  0  0  0  0  0
   10.2170  -14.8115   26.7723 C   0  0  0  0  0  0  0  0  0  0  0  0
   10.1025  -15.8132   25.6441 C   0  0  2  0  0  0  0  0  0  0  0  0
    9.8197  -15.1645   24.3807 N   0  0  0  0  0  0  0  0  0  0  0  0
    9.0258  -16.7851   25.9124 C   0  0  0  0  0  0  0  0  0  0  0  0
    9.3334  -18.0639   26.3195 O   0  0  0  0  0  0  0  0  0  0  0  0
    7.8214  -16.4632   25.7747 O   0  0  0  0  0  0  0  0  0  0  0  0
  2  1  1  0
  3  2  1  0
  4  3  2  0
  5  9  1  0
  5  3  1  0
  6  5  1  0
  7  6  1  0
  7  8  1  0
  8  9  1  0
  9 10  1  1
 10 17  1  0
 10 11  2  0
 13 12  1  0
 14 15  1  0
 14 13  1  0
 16 15  1  1
 16 18  1  0
 17 16  1  0
 18 20  2  0
 18 19  1  0
M  END
$$$$
