GPM.pdb
     RDKit          3D

 20 20  0  0  1  0  0  0  0  0999 V2000
   11.5820  -17.6019   19.3071 N   0  0  0  0  0  0  0  0  0  0  0  0
   10.2093  -17.4344   19.5829 C   0  0  0  0  0  0  0  0  0  0  0  0
    9.7898  -16.4291   20.5357 C   0  0  0  0  0  0  0  0  0  0  0  0
   10.5197  -16.3508   21.6004 O   0  0  0  0  0  0  0  0  0  0  0  0
    8.7221  -15.5464   20.4616 N   0  0  0  0  0  0  0  0  0  0  0  0
    8.1157  -15.0224   19.2571 C   0  0  0  0  0  0  0  0  0  0  0  0
    6.6351  -15.3643   19.5162 C   0  0  0  0  0  0  0  0  0  0  0  0
    6.5245  -15.0433   20.9874 C   0  0  0  0  0  0  0  0  0  0  0  0
    7.9262  -14.9451   21.5254 C   0  0  1  0  0  0  0  0  0  0  0  0
    8.0507  -15.5365   22.8391 C   0  0  0  0  0  0  0  0  0  0  0  0
    8.2285  -16.7985   22.9762 O   0  0  0  0  0  0  0  0  0  0  0  0
    6.0025  -10.9937   27.5361 C   0  0  0  0  0  0  0  0  0  0  0  0
    7.3005  -12.2423   27.7384 S   0  0  0  0  0  0  0  0  0  0  0  0
    7.1464  -13.4373   26.3799 C   0  0  0  0  0  0  0  0  0  0  0  0
    8.2280  -14.5030   26.4936 C   0  0  0  0  0  0  0  0  0  0  0  0
    8.0815  -15.4941   25.3597 C   0  0  2  0  0  0  0  0  0  0  0  0
    7.9911  -14.8283   24.0769 N   0  0  0  0  0  0  0  0  0  0  0  0
    6.8708  -16.3181   25.5358 C   0  0  0  0  0  0  0  0  0  0  0  0
    6.8589  -17.3433   26.4548 O   0  0  0  0  0  0  0  0  0  0  0  0
    5.8404  -16.0985   24.8553 O   0  0  0  0  0  0  0  0  0  0  0  0
  2  1  1  0
  3  2  1  0
  4  3  2  0
  5  9  1  0
  5  3  1  0
  6  5  1  0
  7  6  1  0
  7  8  1  0
  8  9  1  0
  9 10  1  1
 10 17  1  0
 10 11  2  0
 13 12  1  0
 14 15  1  0
 14 13  1  0
 16 15  1  1
 16 18  1  0
 17 16  1  0
 18 20  2  0
 18 19  1  0
M  END
$$$$
