GPM.pdb
     RDKit          3D

 20 20  0  0  1  0  0  0  0  0999 V2000
    8.4308  -12.2969   18.5644 N   0  0  0  0  0  0  0  0  0  0  0  0
    8.7986  -13.6006   18.9560 C   0  0  0  0  0  0  0  0  0  0  0  0
    8.3513  -14.1158   20.2323 C   0  0  0  0  0  0  0  0  0  0  0  0
    8.9107  -13.5726   21.2641 O   0  0  0  0  0  0  0  0  0  0  0  0
    7.4126  -15.1028   20.4959 N   0  0  0  0  0  0  0  0  0  0  0  0
    6.4664  -15.6681   19.5588 C   0  0  0  0  0  0  0  0  0  0  0  0
    6.7556  -17.1714   19.7399 C   0  0  0  0  0  0  0  0  0  0  0  0
    6.9415  -17.2448   21.2365 C   0  0  0  0  0  0  0  0  0  0  0  0
    7.1433  -15.8367   21.7269 C   0  0  1  0  0  0  0  0  0  0  0  0
    8.1509  -15.7566   22.7610 C   0  0  0  0  0  0  0  0  0  0  0  0
    9.3885  -15.9473   22.4872 O   0  0  0  0  0  0  0  0  0  0  0  0
   10.5681  -13.7887   30.0177 C   0  0  0  0  0  0  0  0  0  0  0  0
    9.1237  -13.9132   28.9300 S   0  0  0  0  0  0  0  0  0  0  0  0
    9.6289  -14.7944   27.4248 C   0  0  0  0  0  0  0  0  0  0  0  0
    8.5665  -14.6398   26.3449 C   0  0  0  0  0  0  0  0  0  0  0  0
    8.9627  -15.4463   25.1276 C   0  0  2  0  0  0  0  0  0  0  0  0
    7.9054  -15.4743   24.1384 N   0  0  0  0  0  0  0  0  0  0  0  0
    9.2801  -16.8377   25.5002 C   0  0  0  0  0  0  0  0  0  0  0  0
   10.5799  -17.2026   25.7707 O   0  0  0  0  0  0  0  0  0  0  0  0
    8.3763  -17.7040   25.5759 O   0  0  0  0  0  0  0  0  0  0  0  0
  2  1  1  0
  3  2  1  0
  4  3  2  0
  5  9  1  0
  5  3  1  0
  6  5  1  0
  7  6  1  0
  7  8  1  0
  8  9  1  0
  9 10  1  1
 10 17  1  0
 10 11  2  0
 13 12  1  0
 14 15  1  0
 14 13  1  0
 16 15  1  1
 16 18  1  0
 17 16  1  0
 18 20  2  0
 18 19  1  0
M  END
$$$$
