GPM.pdb
     RDKit          3D

 20 20  0  0  1  0  0  0  0  0999 V2000
    9.1902  -18.5854   19.7031 N   0  0  0  0  0  0  0  0  0  0  0  0
    8.2103  -17.6424   20.0758 C   0  0  0  0  0  0  0  0  0  0  0  0
    8.5622  -16.5646   20.9753 C   0  0  0  0  0  0  0  0  0  0  0  0
    9.1505  -16.9362   22.0653 O   0  0  0  0  0  0  0  0  0  0  0  0
    8.3566  -15.2005   20.8273 N   0  0  0  0  0  0  0  0  0  0  0  0
    8.2311  -14.4754   19.5817 C   0  0  0  0  0  0  0  0  0  0  0  0
    6.9069  -13.7249   19.8257 C   0  0  0  0  0  0  0  0  0  0  0  0
    7.0695  -13.3289   21.2736 C   0  0  0  0  0  0  0  0  0  0  0  0
    8.1885  -14.1620   21.8371 C   0  0  1  0  0  0  0  0  0  0  0  0
    7.9129  -14.6089   23.1845 C   0  0  0  0  0  0  0  0  0  0  0  0
    6.9552  -15.4274   23.4211 O   0  0  0  0  0  0  0  0  0  0  0  0
   11.0373  -14.7295   29.1971 C   0  0  0  0  0  0  0  0  0  0  0  0
    9.6353  -13.6007   29.4092 S   0  0  0  0  0  0  0  0  0  0  0  0
    8.4175  -13.9687   28.1135 C   0  0  0  0  0  0  0  0  0  0  0  0
    9.0901  -13.9733   26.7474 C   0  0  0  0  0  0  0  0  0  0  0  0
    8.0721  -14.3238   25.6844 C   0  0  2  0  0  0  0  0  0  0  0  0
    8.6309  -14.2136   24.3529 N   0  0  0  0  0  0  0  0  0  0  0  0
    6.9000  -13.4320   25.7657 C   0  0  0  0  0  0  0  0  0  0  0  0
    5.7713  -13.8327   26.4449 O   0  0  0  0  0  0  0  0  0  0  0  0
    6.9138  -12.3024   25.2209 O   0  0  0  0  0  0  0  0  0  0  0  0
  2  1  1  0
  3  2  1  0
  4  3  2  0
  5  9  1  0
  5  3  1  0
  6  5  1  0
  7  6  1  0
  7  8  1  0
  8  9  1  0
  9 10  1  1
 10 17  1  0
 10 11  2  0
 13 12  1  0
 14 15  1  0
 14 13  1  0
 16 15  1  1
 16 18  1  0
 17 16  1  0
 18 20  2  0
 18 19  1  0
M  END
$$$$
