GPM.pdb
     RDKit          3D

 20 20  0  0  1  0  0  0  0  0999 V2000
    7.8800  -20.7106   24.1822 N   0  0  0  0  0  0  0  0  0  0  0  0
    7.0852  -20.5744   23.0256 C   0  0  0  0  0  0  0  0  0  0  0  0
    5.7887  -19.9382   23.1209 C   0  0  0  0  0  0  0  0  0  0  0  0
    4.9590  -20.5132   23.9291 O   0  0  0  0  0  0  0  0  0  0  0  0
    5.3209  -18.8060   22.4697 N   0  0  0  0  0  0  0  0  0  0  0  0
    6.1141  -17.6960   21.9883 C   0  0  0  0  0  0  0  0  0  0  0  0
    5.6357  -17.6226   20.5248 C   0  0  0  0  0  0  0  0  0  0  0  0
    4.1572  -17.8755   20.6980 C   0  0  0  0  0  0  0  0  0  0  0  0
    3.9641  -18.4419   22.0785 C   0  0  1  0  0  0  0  0  0  0  0  0
    2.9783  -19.4996   22.1029 C   0  0  0  0  0  0  0  0  0  0  0  0
    3.2023  -20.6186   21.5191 O   0  0  0  0  0  0  0  0  0  0  0  0
   -0.4527  -24.3608   26.3578 C   0  0  0  0  0  0  0  0  0  0  0  0
   -0.5776  -22.5850   26.0169 S   0  0  0  0  0  0  0  0  0  0  0  0
    0.2168  -22.2636   24.4161 C   0  0  0  0  0  0  0  0  0  0  0  0
    0.1667  -20.7760   24.0949 C   0  0  0  0  0  0  0  0  0  0  0  0
    0.7655  -20.5343   22.7266 C   0  0  2  0  0  0  0  0  0  0  0  0
    1.7038  -19.4313   22.7416 N   0  0  0  0  0  0  0  0  0  0  0  0
   -0.2870  -20.2284   21.7395 C   0  0  0  0  0  0  0  0  0  0  0  0
   -0.8433  -21.2374   20.9856 O   0  0  0  0  0  0  0  0  0  0  0  0
   -0.6888  -19.0519   21.5732 O   0  0  0  0  0  0  0  0  0  0  0  0
  2  1  1  0
  3  2  1  0
  4  3  2  0
  5  9  1  0
  5  3  1  0
  6  5  1  0
  7  6  1  0
  7  8  1  0
  8  9  1  0
  9 10  1  6
 10 17  1  0
 10 11  2  0
 13 12  1  0
 14 15  1  0
 14 13  1  0
 16 15  1  1
 16 18  1  0
 17 16  1  0
 18 20  2  0
 18 19  1  0
M  END
$$$$
