GPM.pdb
     RDKit          3D

 20 20  0  0  1  0  0  0  0  0999 V2000
   11.1363  -17.4616   18.9286 N   0  0  0  0  0  0  0  0  0  0  0  0
    9.8534  -17.5506   19.5070 C   0  0  0  0  0  0  0  0  0  0  0  0
    9.4385  -16.5624   20.4795 C   0  0  0  0  0  0  0  0  0  0  0  0
   10.2309  -16.4306   21.4930 O   0  0  0  0  0  0  0  0  0  0  0  0
    8.3174  -15.7451   20.4712 N   0  0  0  0  0  0  0  0  0  0  0  0
    7.5373  -15.3596   19.3154 C   0  0  0  0  0  0  0  0  0  0  0  0
    6.1233  -15.7526   19.7870 C   0  0  0  0  0  0  0  0  0  0  0  0
    6.1739  -15.3107   21.2299 C   0  0  0  0  0  0  0  0  0  0  0  0
    7.6222  -15.0947   21.5758 C   0  0  1  0  0  0  0  0  0  0  0  0
    7.9425  -15.5622   22.9062 C   0  0  0  0  0  0  0  0  0  0  0  0
    8.1786  -16.8027   23.1264 O   0  0  0  0  0  0  0  0  0  0  0  0
   10.8504  -14.1128   29.6328 C   0  0  0  0  0  0  0  0  0  0  0  0
    9.2373  -13.5941   28.9894 S   0  0  0  0  0  0  0  0  0  0  0  0
    8.6833  -14.8416   27.7918 C   0  0  0  0  0  0  0  0  0  0  0  0
    8.5498  -14.2184   26.4090 C   0  0  0  0  0  0  0  0  0  0  0  0
    8.2412  -15.2989   25.3957 C   0  0  2  0  0  0  0  0  0  0  0  0
    8.0276  -14.7464   24.0742 N   0  0  0  0  0  0  0  0  0  0  0  0
    7.0311  -16.0494   25.7807 C   0  0  0  0  0  0  0  0  0  0  0  0
    5.7841  -15.5704   25.4470 O   0  0  0  0  0  0  0  0  0  0  0  0
    7.1194  -17.1286   26.4137 O   0  0  0  0  0  0  0  0  0  0  0  0
  2  1  1  0
  3  2  1  0
  4  3  2  0
  5  9  1  0
  5  3  1  0
  6  5  1  0
  7  6  1  0
  7  8  1  0
  8  9  1  0
  9 10  1  1
 10 17  1  0
 10 11  2  0
 13 12  1  0
 14 15  1  0
 14 13  1  0
 16 15  1  1
 16 18  1  0
 17 16  1  0
 18 20  2  0
 18 19  1  0
M  END
$$$$
