GPM.pdb
     RDKit          3D

 20 20  0  0  1  0  0  0  0  0999 V2000
   10.5008  -17.5075   18.5502 N   0  0  0  0  0  0  0  0  0  0  0  0
    9.3894  -17.3191   19.3973 C   0  0  0  0  0  0  0  0  0  0  0  0
    9.5196  -16.4819   20.5706 C   0  0  0  0  0  0  0  0  0  0  0  0
   10.6007  -16.6694   21.2551 O   0  0  0  0  0  0  0  0  0  0  0  0
    8.6507  -15.5148   21.0549 N   0  0  0  0  0  0  0  0  0  0  0  0
    7.6892  -14.7542   20.2869 C   0  0  0  0  0  0  0  0  0  0  0  0
    6.4087  -15.0117   21.1057 C   0  0  0  0  0  0  0  0  0  0  0  0
    6.9511  -14.9263   22.5122 C   0  0  0  0  0  0  0  0  0  0  0  0
    8.4489  -15.0317   22.4159 C   0  0  1  0  0  0  0  0  0  0  0  0
    9.0101  -15.8370   23.4778 C   0  0  0  0  0  0  0  0  0  0  0  0
    8.8699  -17.1111   23.4788 O   0  0  0  0  0  0  0  0  0  0  0  0
    9.6200  -13.6702   30.1021 C   0  0  0  0  0  0  0  0  0  0  0  0
   10.7634  -14.7003   29.1448 S   0  0  0  0  0  0  0  0  0  0  0  0
   10.2836  -14.5958   27.3966 C   0  0  0  0  0  0  0  0  0  0  0  0
   11.2311  -15.4267   26.5420 C   0  0  0  0  0  0  0  0  0  0  0  0
   10.4348  -16.2129   25.5235 C   0  0  2  0  0  0  0  0  0  0  0  0
    9.7459  -15.3404   24.5954 N   0  0  0  0  0  0  0  0  0  0  0  0
    9.4289  -17.0637   26.1869 C   0  0  0  0  0  0  0  0  0  0  0  0
    9.8142  -18.2204   26.8267 O   0  0  0  0  0  0  0  0  0  0  0  0
    8.2150  -16.7482   26.1784 O   0  0  0  0  0  0  0  0  0  0  0  0
  2  1  1  0
  3  2  1  0
  4  3  2  0
  5  9  1  0
  5  3  1  0
  6  5  1  0
  7  6  1  0
  7  8  1  0
  8  9  1  0
  9 10  1  1
 10 17  1  0
 10 11  2  0
 13 12  1  0
 14 15  1  0
 14 13  1  0
 16 15  1  1
 16 18  1  0
 17 16  1  0
 18 20  2  0
 18 19  1  0
M  END
$$$$
