GPM.pdb
     RDKit          3D

 20 20  0  0  1  0  0  0  0  0999 V2000
   11.3067  -17.3550   19.2532 N   0  0  0  0  0  0  0  0  0  0  0  0
    9.9477  -17.2164   19.6028 C   0  0  0  0  0  0  0  0  0  0  0  0
    9.5615  -16.2330   20.5919 C   0  0  0  0  0  0  0  0  0  0  0  0
   10.4104  -16.0663   21.5532 O   0  0  0  0  0  0  0  0  0  0  0  0
    8.4160  -15.4524   20.6472 N   0  0  0  0  0  0  0  0  0  0  0  0
    7.6059  -15.0258   19.5270 C   0  0  0  0  0  0  0  0  0  0  0  0
    6.2124  -15.4898   19.9952 C   0  0  0  0  0  0  0  0  0  0  0  0
    6.2727  -15.1304   21.4605 C   0  0  0  0  0  0  0  0  0  0  0  0
    7.7190  -14.8891   21.7976 C   0  0  1  0  0  0  0  0  0  0  0  0
    8.0750  -15.4222   23.0938 C   0  0  0  0  0  0  0  0  0  0  0  0
    8.3176  -16.6717   23.2451 O   0  0  0  0  0  0  0  0  0  0  0  0
   10.9402  -14.5812   30.2913 C   0  0  0  0  0  0  0  0  0  0  0  0
    9.8909  -13.6997   29.1051 S   0  0  0  0  0  0  0  0  0  0  0  0
    9.2466  -14.9120   27.9167 C   0  0  0  0  0  0  0  0  0  0  0  0
    8.9079  -14.2267   26.5998 C   0  0  0  0  0  0  0  0  0  0  0  0
    8.5448  -15.2703   25.5661 C   0  0  2  0  0  0  0  0  0  0  0  0
    8.1905  -14.6659   24.2987 N   0  0  0  0  0  0  0  0  0  0  0  0
    7.4026  -16.0850   26.0215 C   0  0  0  0  0  0  0  0  0  0  0  0
    7.6197  -17.2638   26.6990 O   0  0  0  0  0  0  0  0  0  0  0  0
    6.2238  -15.7184   25.7999 O   0  0  0  0  0  0  0  0  0  0  0  0
  2  1  1  0
  3  2  1  0
  4  3  2  0
  5  9  1  0
  5  3  1  0
  6  5  1  0
  7  6  1  0
  7  8  1  0
  8  9  1  0
  9 10  1  1
 10 17  1  0
 10 11  2  0
 13 12  1  0
 14 15  1  0
 14 13  1  0
 16 15  1  1
 16 18  1  0
 17 16  1  0
 18 20  2  0
 18 19  1  0
M  END
$$$$
