GPM.pdb
     RDKit          3D

 20 20  0  0  1  0  0  0  0  0999 V2000
   10.2647  -17.8023   18.6208 N   0  0  0  0  0  0  0  0  0  0  0  0
    9.0929  -17.4601   19.3266 C   0  0  0  0  0  0  0  0  0  0  0  0
    9.1518  -16.4494   20.3608 C   0  0  0  0  0  0  0  0  0  0  0  0
    9.8899  -16.7546   21.3779 O   0  0  0  0  0  0  0  0  0  0  0  0
    8.5305  -15.2098   20.4077 N   0  0  0  0  0  0  0  0  0  0  0  0
    8.0191  -14.4562   19.2837 C   0  0  0  0  0  0  0  0  0  0  0  0
    6.5803  -14.1790   19.7625 C   0  0  0  0  0  0  0  0  0  0  0  0
    6.8217  -13.8773   21.2221 C   0  0  0  0  0  0  0  0  0  0  0  0
    8.2062  -14.3655   21.5516 C   0  0  1  0  0  0  0  0  0  0  0  0
    8.2706  -14.9894   22.8546 C   0  0  0  0  0  0  0  0  0  0  0  0
    7.7508  -16.1437   23.0556 O   0  0  0  0  0  0  0  0  0  0  0  0
   10.0337  -14.8303   30.5842 C   0  0  0  0  0  0  0  0  0  0  0  0
   10.3409  -14.0403   28.9822 S   0  0  0  0  0  0  0  0  0  0  0  0
    9.3751  -14.9260   27.7253 C   0  0  0  0  0  0  0  0  0  0  0  0
    9.5273  -14.2462   26.3713 C   0  0  0  0  0  0  0  0  0  0  0  0
    8.7197  -14.9972   25.3354 C   0  0  2  0  0  0  0  0  0  0  0  0
    8.8839  -14.4271   24.0143 N   0  0  0  0  0  0  0  0  0  0  0  0
    7.2835  -14.9731   25.6708 C   0  0  0  0  0  0  0  0  0  0  0  0
    6.5167  -13.8749   25.3521 O   0  0  0  0  0  0  0  0  0  0  0  0
    6.7426  -15.9467   26.2475 O   0  0  0  0  0  0  0  0  0  0  0  0
  2  1  1  0
  3  2  1  0
  4  3  2  0
  5  9  1  0
  5  3  1  0
  6  5  1  0
  7  6  1  0
  7  8  1  0
  8  9  1  0
  9 10  1  1
 10 17  1  0
 10 11  2  0
 13 12  1  0
 14 15  1  0
 14 13  1  0
 16 15  1  1
 16 18  1  0
 17 16  1  0
 18 20  2  0
 18 19  1  0
M  END
$$$$
