INT.pdb
     RDKit          3D

 24 23  0  0  1  0  0  0  0  0999 V2000
   26.3548  -15.9201  -14.9480 C   0  0  0  0  0  0  0  0  0  0  0  0
   25.1991  -15.7972  -15.8984 C   0  0  0  0  0  0  0  0  0  0  0  0
   24.9748  -14.3469  -16.2169 C   0  0  2  0  0  0  0  0  0  0  0  0
   24.4408  -13.5774  -15.0248 C   0  0  0  0  0  0  0  0  0  0  0  0
   23.9748  -14.1578  -17.3356 C   0  0  2  0  0  0  0  0  0  0  0  0
   24.3315  -15.0247  -18.4430 N   0  0  0  0  0  0  0  0  0  0  0  0
   23.8438  -12.7581  -17.7621 C   0  0  0  0  0  0  0  0  0  0  0  0
   24.6965  -12.2852  -18.5501 O   0  0  0  0  0  0  0  0  0  0  0  0
   22.1776   -8.1110  -19.1450 N   0  0  0  0  0  0  0  0  0  0  0  0
   22.1369   -9.2692  -19.9512 C   0  0  0  0  0  0  0  0  0  0  0  0
   21.9624   -9.1333  -21.1780 O   0  0  0  0  0  0  0  0  0  0  0  0
   22.2959  -10.5819  -19.3542 C   0  0  0  0  0  0  0  0  0  0  0  0
   22.5653  -10.5833  -17.8854 C   0  0  2  0  0  0  0  0  0  0  0  0
   22.7968  -11.8862  -17.3349 N   0  0  0  0  0  0  0  0  0  0  0  0
   21.3864   -9.9162  -17.2221 C   0  0  0  0  0  0  0  0  0  0  0  0
   20.2360  -10.4135  -17.3240 O   0  0  0  0  0  0  0  0  0  0  0  0
   21.8963   -8.9660  -13.7047 C   0  0  0  0  0  0  0  0  0  0  0  0
   20.4913   -8.9691  -14.2617 C   0  0  1  0  0  0  0  0  0  0  0  0
   19.6477   -8.3600  -13.3337 O   0  0  0  0  0  0  0  0  0  0  0  0
   20.5146   -8.2110  -15.5735 C   0  0  2  0  0  0  0  0  0  0  0  0
   21.5287   -8.7201  -16.4694 N   0  0  0  0  0  0  0  0  0  0  0  0
   20.7930   -6.7740  -15.2198 C   0  0  0  0  0  0  0  0  0  0  0  0
   21.8932   -6.2636  -15.5996 O   0  0  0  0  0  0  0  0  0  0  0  0
   19.9234   -5.9884  -14.5109 O   0  0  0  0  0  0  0  0  0  0  0  0
  1  2  1  0
  3  2  1  0
  3  5  1  0
  3  4  1  1
  5  7  1  0
  5  6  1  6
  7  8  2  0
  9 10  1  0
 10 12  1  0
 11 10  2  0
 13 12  1  6
 14 13  1  0
 14  7  1  0
 15 21  1  0
 15 13  1  0
 16 15  2  0
 18 17  1  1
 19 18  1  0
 20 18  1  0
 20 21  1  6
 22 24  1  0
 22 20  1  0
 23 22  2  0
M  END
$$$$
