INT.pdb
     RDKit          3D

 24 23  0  0  1  0  0  0  0  0999 V2000
   25.8521  -20.0936   -8.3020 C   0  0  0  0  0  0  0  0  0  0  0  0
   26.4473  -20.9277   -9.3994 C   0  0  0  0  0  0  0  0  0  0  0  0
   25.6787  -20.6942  -10.6682 C   0  0  2  0  0  0  0  0  0  0  0  0
   24.2147  -21.0606  -10.5236 C   0  0  0  0  0  0  0  0  0  0  0  0
   26.2171  -21.5146  -11.8190 C   0  0  2  0  0  0  0  0  0  0  0  0
   27.6199  -21.1981  -12.0124 N   0  0  0  0  0  0  0  0  0  0  0  0
   25.4466  -21.3457  -13.0583 C   0  0  0  0  0  0  0  0  0  0  0  0
   25.6269  -20.3123  -13.7448 O   0  0  0  0  0  0  0  0  0  0  0  0
   24.5671  -25.6624  -15.1869 N   0  0  0  0  0  0  0  0  0  0  0  0
   24.4833  -24.3725  -15.7545 C   0  0  0  0  0  0  0  0  0  0  0  0
   25.3596  -24.0240  -16.5697 O   0  0  0  0  0  0  0  0  0  0  0  0
   23.3975  -23.4820  -15.3897 C   0  0  0  0  0  0  0  0  0  0  0  0
   23.8180  -22.1754  -14.8015 C   0  0  2  0  0  0  0  0  0  0  0  0
   24.4923  -22.2913  -13.5422 N   0  0  0  0  0  0  0  0  0  0  0  0
   22.5750  -21.3305  -14.6752 C   0  0  0  0  0  0  0  0  0  0  0  0
   21.8335  -21.4397  -13.6655 O   0  0  0  0  0  0  0  0  0  0  0  0
   19.8118  -17.6123  -16.4286 C   0  0  0  0  0  0  0  0  0  0  0  0
   20.9834  -18.5280  -16.6987 C   0  0  1  0  0  0  0  0  0  0  0  0
   22.1485  -17.7624  -16.7086 O   0  0  0  0  0  0  0  0  0  0  0  0
   21.0137  -19.5726  -15.6015 C   0  0  2  0  0  0  0  0  0  0  0  0
   22.2008  -20.3945  -15.6759 N   0  0  0  0  0  0  0  0  0  0  0  0
   19.7766  -20.4104  -15.7892 C   0  0  0  0  0  0  0  0  0  0  0  0
   19.7717  -21.2754  -16.7202 O   0  0  0  0  0  0  0  0  0  0  0  0
   18.6570  -20.2895  -15.0095 O   0  0  0  0  0  0  0  0  0  0  0  0
  1  2  1  0
  3  2  1  0
  3  5  1  0
  3  4  1  1
  5  7  1  0
  5  6  1  6
  7  8  2  0
  9 10  1  0
 10 12  1  0
 11 10  2  0
 13 12  1  1
 14 13  1  0
 14  7  1  0
 15 21  1  0
 15 13  1  0
 16 15  2  0
 18 17  1  1
 19 18  1  0
 20 18  1  0
 20 21  1  6
 22 24  1  0
 22 20  1  0
 23 22  2  0
M  END
$$$$
