INT.pdb
     RDKit          3D

 24 23  0  0  1  0  0  0  0  0999 V2000
   27.1134  -19.8673   -7.4579 C   0  0  0  0  0  0  0  0  0  0  0  0
   27.2438  -20.8987   -8.5411 C   0  0  0  0  0  0  0  0  0  0  0  0
   26.2417  -20.6087   -9.6213 C   0  0  2  0  0  0  0  0  0  0  0  0
   24.8153  -20.7771   -9.1358 C   0  0  0  0  0  0  0  0  0  0  0  0
   26.4041  -21.5288  -10.8105 C   0  0  2  0  0  0  0  0  0  0  0  0
   27.7932  -21.5222  -11.2297 N   0  0  0  0  0  0  0  0  0  0  0  0
   25.5002  -21.2014  -11.9213 C   0  0  0  0  0  0  0  0  0  0  0  0
   25.7213  -20.1672  -12.5944 O   0  0  0  0  0  0  0  0  0  0  0  0
   25.0889  -24.4301  -15.0076 N   0  0  0  0  0  0  0  0  0  0  0  0
   24.6502  -23.0886  -15.0385 C   0  0  0  0  0  0  0  0  0  0  0  0
   25.3694  -22.2412  -15.6030 O   0  0  0  0  0  0  0  0  0  0  0  0
   23.3896  -22.7169  -14.4239 C   0  0  0  0  0  0  0  0  0  0  0  0
   23.4832  -21.6636  -13.3695 C   0  0  2  0  0  0  0  0  0  0  0  0
   24.3704  -21.9916  -12.2927 N   0  0  0  0  0  0  0  0  0  0  0  0
   22.0827  -21.4230  -12.8639 C   0  0  0  0  0  0  0  0  0  0  0  0
   21.6252  -22.1068  -11.9130 O   0  0  0  0  0  0  0  0  0  0  0  0
   20.4783  -17.9410  -11.9596 C   0  0  0  0  0  0  0  0  0  0  0  0
   19.6348  -18.6273  -13.0092 C   0  0  1  0  0  0  0  0  0  0  0  0
   19.9722  -18.1049  -14.2570 O   0  0  0  0  0  0  0  0  0  0  0  0
   19.9228  -20.1129  -12.9319 C   0  0  2  0  0  0  0  0  0  0  0  0
   21.2410  -20.4307  -13.4335 N   0  0  0  0  0  0  0  0  0  0  0  0
   18.8630  -20.7868  -13.7628 C   0  0  0  0  0  0  0  0  0  0  0  0
   19.2089  -21.3137  -14.8664 O   0  0  0  0  0  0  0  0  0  0  0  0
   17.5467  -20.8620  -13.3918 O   0  0  0  0  0  0  0  0  0  0  0  0
  1  2  1  0
  3  2  1  0
  3  5  1  0
  3  4  1  1
  5  7  1  0
  5  6  1  6
  7  8  2  0
  9 10  1  0
 10 12  1  0
 11 10  2  0
 13 12  1  6
 14 13  1  0
 14  7  1  0
 15 21  1  0
 15 13  1  0
 16 15  2  0
 18 17  1  1
 19 18  1  0
 20 18  1  0
 20 21  1  6
 22 24  1  0
 22 20  1  0
 23 22  2  0
M  END
$$$$
