INT.pdb
     RDKit          3D

 24 23  0  0  1  0  0  0  0  0999 V2000
   19.7584  -13.7074  -17.0887 C   0  0  0  0  0  0  0  0  0  0  0  0
   18.4242  -13.0808  -16.8032 C   0  0  0  0  0  0  0  0  0  0  0  0
   18.5740  -11.5866  -16.7900 C   0  0  2  0  0  0  0  0  0  0  0  0
   19.5412  -11.1200  -15.7198 C   0  0  0  0  0  0  0  0  0  0  0  0
   17.2615  -10.8853  -16.5208 C   0  0  2  0  0  0  0  0  0  0  0  0
   16.2715  -11.3475  -17.4757 N   0  0  0  0  0  0  0  0  0  0  0  0
   17.3780   -9.4209  -16.5255 C   0  0  0  0  0  0  0  0  0  0  0  0
   17.8140   -8.8535  -17.5549 O   0  0  0  0  0  0  0  0  0  0  0  0
   16.8863   -4.3779  -15.7652 N   0  0  0  0  0  0  0  0  0  0  0  0
   15.8479   -5.0358  -15.0710 C   0  0  0  0  0  0  0  0  0  0  0  0
   14.9232   -4.3487  -14.5948 O   0  0  0  0  0  0  0  0  0  0  0  0
   15.8676   -6.4789  -14.9216 C   0  0  0  0  0  0  0  0  0  0  0  0
   17.0911   -7.1552  -15.4467 C   0  0  2  0  0  0  0  0  0  0  0  0
   17.0237   -8.5866  -15.4222 N   0  0  0  0  0  0  0  0  0  0  0  0
   18.2551   -6.6531  -14.6295 C   0  0  0  0  0  0  0  0  0  0  0  0
   18.0684   -6.1969  -13.4728 O   0  0  0  0  0  0  0  0  0  0  0  0
   21.8838   -8.3728  -14.2097 C   0  0  0  0  0  0  0  0  0  0  0  0
   21.9918   -6.9704  -14.7624 C   0  0  1  0  0  0  0  0  0  0  0  0
   22.1308   -7.0516  -16.1473 O   0  0  0  0  0  0  0  0  0  0  0  0
   20.7321   -6.2237  -14.3728 C   0  0  2  0  0  0  0  0  0  0  0  0
   19.5851   -6.6763  -15.1276 N   0  0  0  0  0  0  0  0  0  0  0  0
   21.0075   -4.7692  -14.6484 C   0  0  0  0  0  0  0  0  0  0  0  0
   20.3810   -4.2087  -15.6015 O   0  0  0  0  0  0  0  0  0  0  0  0
   21.8969   -4.0187  -13.9261 O   0  0  0  0  0  0  0  0  0  0  0  0
  1  2  1  0
  3  2  1  0
  3  5  1  0
  3  4  1  1
  5  7  1  0
  5  6  1  6
  7  8  2  0
  9 10  1  0
 10 12  1  0
 11 10  2  0
 13 12  1  1
 14 13  1  0
 14  7  1  0
 15 21  1  0
 15 13  1  0
 16 15  2  0
 18 17  1  6
 19 18  1  0
 20 18  1  0
 20 21  1  6
 22 24  1  0
 22 20  1  0
 23 22  2  0
M  END
$$$$
