INT.pdb
     RDKit          3D

 24 23  0  0  1  0  0  0  0  0999 V2000
   28.2663  -19.7866   -4.4695 C   0  0  0  0  0  0  0  0  0  0  0  0
   26.8931  -19.8035   -5.0761 C   0  0  0  0  0  0  0  0  0  0  0  0
   26.9822  -20.3195   -6.4836 C   0  0  2  0  0  0  0  0  0  0  0  0
   27.7941  -19.4023   -7.3768 C   0  0  0  0  0  0  0  0  0  0  0  0
   25.6205  -20.4545   -7.1277 C   0  0  2  0  0  0  0  0  0  0  0  0
   24.7589  -21.2333   -6.2580 N   0  0  0  0  0  0  0  0  0  0  0  0
   25.6765  -21.0184   -8.4831 C   0  0  0  0  0  0  0  0  0  0  0  0
   25.9080  -22.2430   -8.6180 O   0  0  0  0  0  0  0  0  0  0  0  0
   25.6830  -22.2591  -13.3828 N   0  0  0  0  0  0  0  0  0  0  0  0
   24.4216  -21.8493  -12.8991 C   0  0  0  0  0  0  0  0  0  0  0  0
   23.4036  -22.1836  -13.5363 O   0  0  0  0  0  0  0  0  0  0  0  0
   24.3249  -21.0577  -11.6871 C   0  0  0  0  0  0  0  0  0  0  0  0
   25.6224  -20.7902  -10.9979 C   0  0  2  0  0  0  0  0  0  0  0  0
   25.4825  -20.2566   -9.6751 N   0  0  0  0  0  0  0  0  0  0  0  0
   26.4033  -19.8502  -11.8819 C   0  0  0  0  0  0  0  0  0  0  0  0
   27.4141  -19.2510  -11.4343 O   0  0  0  0  0  0  0  0  0  0  0  0
   28.8701  -19.6334  -13.0987 C   0  0  0  0  0  0  0  0  0  0  0  0
   28.1688  -19.4547  -14.4254 C   0  0  1  0  0  0  0  0  0  0  0  0
   28.0332  -20.7062  -15.0247 O   0  0  0  0  0  0  0  0  0  0  0  0
   26.8203  -18.8202  -14.1515 C   0  0  2  0  0  0  0  0  0  0  0  0
   26.0326  -19.6101  -13.2319 N   0  0  0  0  0  0  0  0  0  0  0  0
   26.1301  -18.7154  -15.4857 C   0  0  0  0  0  0  0  0  0  0  0  0
   25.0849  -19.4122  -15.6784 O   0  0  0  0  0  0  0  0  0  0  0  0
   26.5691  -17.9089  -16.5020 O   0  0  0  0  0  0  0  0  0  0  0  0
  1  2  1  0
  3  2  1  0
  3  5  1  0
  3  4  1  6
  5  7  1  0
  5  6  1  1
  7  8  2  0
  9 10  1  0
 10 12  1  0
 11 10  2  0
 13 12  1  6
 14 13  1  0
 14  7  1  0
 15 21  1  0
 15 13  1  0
 16 15  2  0
 18 17  1  1
 19 18  1  0
 20 18  1  0
 20 21  1  1
 22 24  1  0
 22 20  1  0
 23 22  2  0
M  END
$$$$
