INT.pdb
     RDKit          3D

 24 23  0  0  1  0  0  0  0  0999 V2000
   17.1963  -13.1596  -14.2194 C   0  0  0  0  0  0  0  0  0  0  0  0
   16.5897  -13.0328  -12.8519 C   0  0  0  0  0  0  0  0  0  0  0  0
   16.2072  -11.6004  -12.6131 C   0  0  2  0  0  0  0  0  0  0  0  0
   17.4129  -10.6812  -12.6106 C   0  0  0  0  0  0  0  0  0  0  0  0
   15.5168  -11.4100  -11.2811 C   0  0  2  0  0  0  0  0  0  0  0  0
   14.4001  -12.3319  -11.1890 N   0  0  0  0  0  0  0  0  0  0  0  0
   15.0966  -10.0228  -11.0419 C   0  0  0  0  0  0  0  0  0  0  0  0
   14.1173   -9.5702  -11.6804 O   0  0  0  0  0  0  0  0  0  0  0  0
   15.3292   -5.3619   -7.0254 N   0  0  0  0  0  0  0  0  0  0  0  0
   14.8183   -6.0929   -8.1198 C   0  0  0  0  0  0  0  0  0  0  0  0
   13.9244   -5.5732   -8.8161 O   0  0  0  0  0  0  0  0  0  0  0  0
   15.3297   -7.4176   -8.4173 C   0  0  0  0  0  0  0  0  0  0  0  0
   15.3024   -7.7997   -9.8607 C   0  0  2  0  0  0  0  0  0  0  0  0
   15.7363   -9.1411  -10.1185 N   0  0  0  0  0  0  0  0  0  0  0  0
   16.1616   -6.8013  -10.5955 C   0  0  0  0  0  0  0  0  0  0  0  0
   17.3834   -6.6913  -10.3196 O   0  0  0  0  0  0  0  0  0  0  0  0
   17.0941   -3.9361  -14.4037 C   0  0  0  0  0  0  0  0  0  0  0  0
   16.1972   -4.9849  -13.7876 C   0  0  1  0  0  0  0  0  0  0  0  0
   16.5473   -6.2282  -14.3125 O   0  0  0  0  0  0  0  0  0  0  0  0
   16.3982   -4.9384  -12.2865 C   0  0  2  0  0  0  0  0  0  0  0  0
   15.6316   -5.9610  -11.6106 N   0  0  0  0  0  0  0  0  0  0  0  0
   15.9549   -3.5675  -11.8486 C   0  0  0  0  0  0  0  0  0  0  0  0
   14.7087   -3.3470  -11.7328 O   0  0  0  0  0  0  0  0  0  0  0  0
   16.8237   -2.5464  -11.5686 O   0  0  0  0  0  0  0  0  0  0  0  0
  1  2  1  0
  3  2  1  0
  3  5  1  0
  3  4  1  1
  5  7  1  0
  5  6  1  6
  7  8  2  0
  9 10  1  0
 10 12  1  0
 11 10  2  0
 13 12  1  1
 14 13  1  0
 14  7  1  0
 15 21  1  0
 15 13  1  0
 16 15  2  0
 18 17  1  6
 19 18  1  0
 20 18  1  0
 20 21  1  1
 22 24  1  0
 22 20  1  0
 23 22  2  0
M  END
$$$$
