INT.pdb
     RDKit          3D

 24 23  0  0  1  0  0  0  0  0999 V2000
   23.9108  -17.7681  -20.6618 C   0  0  0  0  0  0  0  0  0  0  0  0
   24.4348  -17.7529  -19.2549 C   0  0  0  0  0  0  0  0  0  0  0  0
   23.5183  -18.5576  -18.3788 C   0  0  2  0  0  0  0  0  0  0  0  0
   22.1067  -18.0046  -18.3701 C   0  0  0  0  0  0  0  0  0  0  0  0
   23.9816  -18.5803  -16.9393 C   0  0  2  0  0  0  0  0  0  0  0  0
   25.3577  -19.0377  -16.8905 N   0  0  0  0  0  0  0  0  0  0  0  0
   23.1123  -19.3799  -16.0658 C   0  0  0  0  0  0  0  0  0  0  0  0
   23.0727  -20.6224  -16.2278 O   0  0  0  0  0  0  0  0  0  0  0  0
   20.0483  -21.1729  -12.3278 N   0  0  0  0  0  0  0  0  0  0  0  0
   20.4295  -19.8700  -11.9406 C   0  0  0  0  0  0  0  0  0  0  0  0
   20.1077  -19.4697  -10.8047 O   0  0  0  0  0  0  0  0  0  0  0  0
   21.1784  -19.0255  -12.8523 C   0  0  0  0  0  0  0  0  0  0  0  0
   21.4190  -19.6088  -14.2058 C   0  0  2  0  0  0  0  0  0  0  0  0
   22.2973  -18.8315  -15.0294 N   0  0  0  0  0  0  0  0  0  0  0  0
   20.0694  -19.7750  -14.8584 C   0  0  0  0  0  0  0  0  0  0  0  0
   19.5121  -18.7983  -15.4209 O   0  0  0  0  0  0  0  0  0  0  0  0
   16.4423  -22.8224  -16.3202 C   0  0  0  0  0  0  0  0  0  0  0  0
   17.7962  -22.7079  -15.6584 C   0  0  1  0  0  0  0  0  0  0  0  0
   18.7369  -23.3468  -16.4650 O   0  0  0  0  0  0  0  0  0  0  0  0
   18.1083  -21.2335  -15.5010 C   0  0  2  0  0  0  0  0  0  0  0  0
   19.3878  -21.0212  -14.8622 N   0  0  0  0  0  0  0  0  0  0  0  0
   16.9963  -20.6589  -14.6638 C   0  0  0  0  0  0  0  0  0  0  0  0
   17.0709  -20.7790  -13.4008 O   0  0  0  0  0  0  0  0  0  0  0  0
   15.9095  -20.0138  -15.1916 O   0  0  0  0  0  0  0  0  0  0  0  0
  1  2  1  0
  3  2  1  0
  3  5  1  0
  3  4  1  1
  5  7  1  0
  5  6  1  6
  7  8  2  0
  9 10  1  0
 10 12  1  0
 11 10  2  0
 13 12  1  1
 14 13  1  0
 14  7  1  0
 15 21  1  0
 15 13  1  0
 16 15  2  0
 18 17  1  6
 19 18  1  0
 20 18  1  0
 20 21  1  1
 22 24  1  0
 22 20  1  0
 23 22  2  0
M  END
$$$$
