INT.pdb
     RDKit          3D

 24 23  0  0  1  0  0  0  0  0999 V2000
   28.2169  -18.0857  -17.9251 C   0  0  0  0  0  0  0  0  0  0  0  0
   28.5670  -18.9716  -16.7646 C   0  0  0  0  0  0  0  0  0  0  0  0
   27.3026  -19.4506  -16.1111 C   0  0  2  0  0  0  0  0  0  0  0  0
   26.5047  -18.3108  -15.5091 C   0  0  0  0  0  0  0  0  0  0  0  0
   27.5764  -20.4259  -14.9881 C   0  0  2  0  0  0  0  0  0  0  0  0
   28.3505  -21.5393  -15.5043 N   0  0  0  0  0  0  0  0  0  0  0  0
   26.3560  -20.8816  -14.3091 C   0  0  0  0  0  0  0  0  0  0  0  0
   25.6050  -21.6941  -14.8986 O   0  0  0  0  0  0  0  0  0  0  0  0
   26.3457  -20.5085   -9.0689 N   0  0  0  0  0  0  0  0  0  0  0  0
   25.7095  -21.2054  -10.1190 C   0  0  0  0  0  0  0  0  0  0  0  0
   26.0524  -22.3825  -10.3444 O   0  0  0  0  0  0  0  0  0  0  0  0
   24.6815  -20.5559  -10.9106 C   0  0  0  0  0  0  0  0  0  0  0  0
   24.7318  -20.8426  -12.3753 C   0  0  2  0  0  0  0  0  0  0  0  0
   25.9602  -20.4567  -13.0046 N   0  0  0  0  0  0  0  0  0  0  0  0
   23.5562  -20.1352  -13.0016 C   0  0  0  0  0  0  0  0  0  0  0  0
   23.4746  -18.8811  -12.9600 O   0  0  0  0  0  0  0  0  0  0  0  0
   21.8074  -21.6496  -16.3118 C   0  0  0  0  0  0  0  0  0  0  0  0
   21.6808  -20.2103  -15.8684 C   0  0  1  0  0  0  0  0  0  0  0  0
   20.6212  -19.6268  -16.5615 O   0  0  0  0  0  0  0  0  0  0  0  0
   21.4350  -20.2092  -14.3732 C   0  0  2  0  0  0  0  0  0  0  0  0
   22.5132  -20.8474  -13.6518 N   0  0  0  0  0  0  0  0  0  0  0  0
   20.1431  -20.9535  -14.1625 C   0  0  0  0  0  0  0  0  0  0  0  0
   20.1753  -22.0392  -13.5026 O   0  0  0  0  0  0  0  0  0  0  0  0
   18.9356  -20.5221  -14.6441 O   0  0  0  0  0  0  0  0  0  0  0  0
  1  2  1  0
  3  2  1  0
  3  5  1  0
  3  4  1  1
  5  7  1  0
  5  6  1  6
  7  8  2  0
  9 10  1  0
 10 12  1  0
 11 10  2  0
 13 12  1  1
 14 13  1  0
 14  7  1  0
 15 21  1  0
 15 13  1  0
 16 15  2  0
 18 17  1  6
 19 18  1  0
 20 18  1  0
 20 21  1  1
 22 24  1  0
 22 20  1  0
 23 22  2  0
M  END
$$$$
