INT.pdb
     RDKit          3D

 24 23  0  0  1  0  0  0  0  0999 V2000
   24.6723  -16.5433  -19.7675 C   0  0  0  0  0  0  0  0  0  0  0  0
   23.9999  -17.7319  -20.3915 C   0  0  0  0  0  0  0  0  0  0  0  0
   23.5006  -18.6418  -19.3063 C   0  0  2  0  0  0  0  0  0  0  0  0
   22.5893  -17.9212  -18.3323 C   0  0  0  0  0  0  0  0  0  0  0  0
   24.6307  -19.2259  -18.4883 C   0  0  2  0  0  0  0  0  0  0  0  0
   25.5228  -19.9593  -19.3666 N   0  0  0  0  0  0  0  0  0  0  0  0
   24.1643  -20.0575  -17.3707 C   0  0  0  0  0  0  0  0  0  0  0  0
   23.4522  -21.0587  -17.6196 O   0  0  0  0  0  0  0  0  0  0  0  0
   26.4492  -21.9105  -15.5210 N   0  0  0  0  0  0  0  0  0  0  0  0
   26.2923  -21.3910  -14.2177 C   0  0  0  0  0  0  0  0  0  0  0  0
   27.2519  -21.4726  -13.4261 O   0  0  0  0  0  0  0  0  0  0  0  0
   25.0385  -20.7786  -13.8205 C   0  0  0  0  0  0  0  0  0  0  0  0
   24.0322  -20.6252  -14.9131 C   0  0  2  0  0  0  0  0  0  0  0  0
   24.4707  -19.8002  -16.0000 N   0  0  0  0  0  0  0  0  0  0  0  0
   22.7800  -20.0699  -14.2819 C   0  0  0  0  0  0  0  0  0  0  0  0
   22.5868  -18.8280  -14.2416 O   0  0  0  0  0  0  0  0  0  0  0  0
   20.5759  -18.5618  -14.8084 C   0  0  0  0  0  0  0  0  0  0  0  0
   19.7350  -19.7282  -14.3433 C   0  0  1  0  0  0  0  0  0  0  0  0
   19.4992  -20.5645  -15.4337 O   0  0  0  0  0  0  0  0  0  0  0  0
   20.5035  -20.4429  -13.2503 C   0  0  2  0  0  0  0  0  0  0  0  0
   21.7874  -20.9150  -13.7180 N   0  0  0  0  0  0  0  0  0  0  0  0
   19.6388  -21.5981  -12.8197 C   0  0  0  0  0  0  0  0  0  0  0  0
   20.0712  -22.7774  -13.0128 O   0  0  0  0  0  0  0  0  0  0  0  0
   18.4117  -21.4447  -12.2309 O   0  0  0  0  0  0  0  0  0  0  0  0
  1  2  1  0
  3  2  1  0
  3  5  1  0
  3  4  1  1
  5  7  1  0
  5  6  1  6
  7  8  2  0
  9 10  1  0
 10 12  1  0
 11 10  2  0
 13 12  1  1
 14 13  1  0
 14  7  1  0
 15 21  1  0
 15 13  1  0
 16 15  2  0
 18 17  1  6
 19 18  1  0
 20 18  1  0
 20 21  1  6
 22 24  1  0
 22 20  1  0
 23 22  2  0
M  END
$$$$
