INT.pdb
     RDKit          3D

 24 23  0  0  1  0  0  0  0  0999 V2000
   22.3671  -18.3453  -15.8290 C   0  0  0  0  0  0  0  0  0  0  0  0
   21.6016  -17.7146  -16.9561 C   0  0  0  0  0  0  0  0  0  0  0  0
   21.8104  -16.2278  -16.9227 C   0  0  2  0  0  0  0  0  0  0  0  0
   21.2893  -15.6076  -15.6412 C   0  0  0  0  0  0  0  0  0  0  0  0
   21.1013  -15.5277  -18.0604 C   0  0  2  0  0  0  0  0  0  0  0  0
   21.4762  -16.1573  -19.3127 N   0  0  0  0  0  0  0  0  0  0  0  0
   21.3437  -14.0790  -18.0871 C   0  0  0  0  0  0  0  0  0  0  0  0
   22.5132  -13.6661  -18.2697 O   0  0  0  0  0  0  0  0  0  0  0  0
   19.4946   -9.9429  -20.8845 N   0  0  0  0  0  0  0  0  0  0  0  0
   19.3708  -11.0568  -20.0260 C   0  0  0  0  0  0  0  0  0  0  0  0
   19.1674  -12.1776  -20.5325 O   0  0  0  0  0  0  0  0  0  0  0  0
   19.4796  -10.8884  -18.5891 C   0  0  0  0  0  0  0  0  0  0  0  0
   20.5641  -11.6813  -17.9369 C   0  0  2  0  0  0  0  0  0  0  0  0
   20.3239  -13.0941  -17.9169 N   0  0  0  0  0  0  0  0  0  0  0  0
   20.7245  -11.1387  -16.5388 C   0  0  0  0  0  0  0  0  0  0  0  0
   19.9935  -11.5607  -15.6068 O   0  0  0  0  0  0  0  0  0  0  0  0
   23.4612   -9.6397  -12.9629 C   0  0  0  0  0  0  0  0  0  0  0  0
   23.3124  -10.1229  -14.3871 C   0  0  1  0  0  0  0  0  0  0  0  0
   23.4281  -11.5123  -14.3958 O   0  0  0  0  0  0  0  0  0  0  0  0
   21.9534   -9.6750  -14.8856 C   0  0  2  0  0  0  0  0  0  0  0  0
   21.6918  -10.1464  -16.2270 N   0  0  0  0  0  0  0  0  0  0  0  0
   21.9704   -8.1698  -14.8468 C   0  0  0  0  0  0  0  0  0  0  0  0
   22.2576   -7.5440  -15.9150 O   0  0  0  0  0  0  0  0  0  0  0  0
   21.6925   -7.4399  -13.7216 O   0  0  0  0  0  0  0  0  0  0  0  0
  1  2  1  0
  3  2  1  0
  3  5  1  0
  3  4  1  1
  5  7  1  0
  5  6  1  6
  7  8  2  0
  9 10  1  0
 10 12  1  0
 11 10  2  0
 13 12  1  1
 14 13  1  0
 14  7  1  0
 15 21  1  0
 15 13  1  0
 16 15  2  0
 18 17  1  1
 19 18  1  0
 20 18  1  0
 20 21  1  6
 22 24  1  0
 22 20  1  0
 23 22  2  0
M  END
$$$$
