INT.pdb
     RDKit          3D

 24 23  0  0  1  0  0  0  0  0999 V2000
   17.4051  -11.6420  -19.2878 C   0  0  0  0  0  0  0  0  0  0  0  0
   18.1619  -11.7843  -17.9990 C   0  0  0  0  0  0  0  0  0  0  0  0
   18.2883  -10.4359  -17.3501 C   0  0  2  0  0  0  0  0  0  0  0  0
   19.1006   -9.4718  -18.1921 C   0  0  0  0  0  0  0  0  0  0  0  0
   18.9720  -10.5142  -16.0033 C   0  0  2  0  0  0  0  0  0  0  0  0
   18.2573  -11.4557  -15.1619 N   0  0  0  0  0  0  0  0  0  0  0  0
   19.1162   -9.2052  -15.3523 C   0  0  0  0  0  0  0  0  0  0  0  0
   18.0856   -8.6114  -14.9564 O   0  0  0  0  0  0  0  0  0  0  0  0
   20.9583   -4.6288  -13.6565 N   0  0  0  0  0  0  0  0  0  0  0  0
   21.8762   -5.6400  -13.2989 C   0  0  0  0  0  0  0  0  0  0  0  0
   22.8030   -5.3515  -12.5166 O   0  0  0  0  0  0  0  0  0  0  0  0
   21.7340   -6.9803  -13.8360 C   0  0  0  0  0  0  0  0  0  0  0  0
   20.4980   -7.2143  -14.6407 C   0  0  2  0  0  0  0  0  0  0  0  0
   20.3679   -8.5528  -15.1362 N   0  0  0  0  0  0  0  0  0  0  0  0
   20.5151   -6.2166  -15.7717 C   0  0  0  0  0  0  0  0  0  0  0  0
   21.3948   -6.2879  -16.6673 O   0  0  0  0  0  0  0  0  0  0  0  0
   17.3060   -5.1246  -17.8356 C   0  0  0  0  0  0  0  0  0  0  0  0
   18.0043   -3.9049  -17.2799 C   0  0  1  0  0  0  0  0  0  0  0  0
   17.3447   -3.5109  -16.1164 O   0  0  0  0  0  0  0  0  0  0  0  0
   19.4441   -4.2859  -17.0009 C   0  0  2  0  0  0  0  0  0  0  0  0
   19.5536   -5.1755  -15.8666 N   0  0  0  0  0  0  0  0  0  0  0  0
   20.1727   -2.9953  -16.7344 C   0  0  0  0  0  0  0  0  0  0  0  0
   20.6403   -2.7983  -15.5693 O   0  0  0  0  0  0  0  0  0  0  0  0
   20.3582   -2.0231  -17.6813 O   0  0  0  0  0  0  0  0  0  0  0  0
  1  2  1  0
  3  2  1  0
  3  5  1  0
  3  4  1  6
  5  7  1  0
  5  6  1  1
  7  8  2  0
  9 10  1  0
 10 12  1  0
 11 10  2  0
 13 12  1  6
 14 13  1  0
 14  7  1  0
 15 21  1  0
 15 13  1  0
 16 15  2  0
 18 17  1  1
 19 18  1  0
 20 18  1  0
 20 21  1  1
 22 24  1  0
 22 20  1  0
 23 22  2  0
M  END
$$$$
