INT.pdb
     RDKit          3D

 24 23  0  0  1  0  0  0  0  0999 V2000
   11.2402  -11.9190  -13.2358 C   0  0  0  0  0  0  0  0  0  0  0  0
   12.7164  -12.1335  -13.0660 C   0  0  0  0  0  0  0  0  0  0  0  0
   13.4214  -11.7332  -14.3300 C   0  0  2  0  0  0  0  0  0  0  0  0
   12.9411  -12.5294  -15.5274 C   0  0  0  0  0  0  0  0  0  0  0  0
   14.9158  -11.9476  -14.2407 C   0  0  2  0  0  0  0  0  0  0  0  0
   15.1752  -13.3046  -13.7973 N   0  0  0  0  0  0  0  0  0  0  0  0
   15.5907  -10.9597  -13.3883 C   0  0  0  0  0  0  0  0  0  0  0  0
   16.0840  -11.3384  -12.2998 O   0  0  0  0  0  0  0  0  0  0  0  0
   18.0110   -5.3343  -13.1994 N   0  0  0  0  0  0  0  0  0  0  0  0
   18.0722   -6.7309  -13.0029 C   0  0  0  0  0  0  0  0  0  0  0  0
   18.8879   -7.1791  -12.1736 O   0  0  0  0  0  0  0  0  0  0  0  0
   17.2007   -7.6143  -13.7548 C   0  0  0  0  0  0  0  0  0  0  0  0
   16.4790   -8.6379  -12.9415 C   0  0  2  0  0  0  0  0  0  0  0  0
   15.7257   -9.5771  -13.7189 N   0  0  0  0  0  0  0  0  0  0  0  0
   15.5873   -7.8883  -11.9834 C   0  0  0  0  0  0  0  0  0  0  0  0
   14.4121   -7.5871  -12.3141 O   0  0  0  0  0  0  0  0  0  0  0  0
   14.9656   -5.8800   -7.4861 C   0  0  0  0  0  0  0  0  0  0  0  0
   15.8807   -6.6756   -8.3882 C   0  0  1  0  0  0  0  0  0  0  0  0
   16.0677   -7.9371   -7.8248 O   0  0  0  0  0  0  0  0  0  0  0  0
   15.2204   -6.7666   -9.7490 C   0  0  2  0  0  0  0  0  0  0  0  0
   16.0340   -7.5005  -10.6921 N   0  0  0  0  0  0  0  0  0  0  0  0
   15.0222   -5.3475  -10.2120 C   0  0  0  0  0  0  0  0  0  0  0  0
   15.9102   -4.8291  -10.9589 O   0  0  0  0  0  0  0  0  0  0  0  0
   13.9357   -4.5864   -9.8709 O   0  0  0  0  0  0  0  0  0  0  0  0
  1  2  1  0
  3  2  1  0
  3  5  1  0
  3  4  1  6
  5  7  1  0
  5  6  1  1
  7  8  2  0
  9 10  1  0
 10 12  1  0
 11 10  2  0
 13 12  1  6
 14 13  1  0
 14  7  1  0
 15 21  1  0
 15 13  1  0
 16 15  2  0
 18 17  1  1
 19 18  1  0
 20 18  1  0
 20 21  1  6
 22 24  1  0
 22 20  1  0
 23 22  2  0
M  END
$$$$
