INT.pdb
     RDKit          3D

 24 23  0  0  1  0  0  0  0  0999 V2000
   17.0673  -17.0524  -17.8138 C   0  0  0  0  0  0  0  0  0  0  0  0
   17.5839  -16.2512  -16.6539 C   0  0  0  0  0  0  0  0  0  0  0  0
   17.7438  -14.8190  -17.0763 C   0  0  2  0  0  0  0  0  0  0  0  0
   18.7251  -14.6686  -18.2221 C   0  0  0  0  0  0  0  0  0  0  0  0
   18.2568  -13.9477  -15.9516 C   0  0  2  0  0  0  0  0  0  0  0  0
   17.4211  -14.1418  -14.7815 N   0  0  0  0  0  0  0  0  0  0  0  0
   18.3550  -12.5289  -16.3195 C   0  0  0  0  0  0  0  0  0  0  0  0
   19.1502  -12.1950  -17.2293 O   0  0  0  0  0  0  0  0  0  0  0  0
   17.6570   -7.3960  -16.7762 N   0  0  0  0  0  0  0  0  0  0  0  0
   16.6253   -7.8644  -15.9342 C   0  0  0  0  0  0  0  0  0  0  0  0
   15.7480   -7.0592  -15.5652 O   0  0  0  0  0  0  0  0  0  0  0  0
   16.5972   -9.2530  -15.5146 C   0  0  0  0  0  0  0  0  0  0  0  0
   17.6945  -10.1046  -16.0631 C   0  0  2  0  0  0  0  0  0  0  0  0
   17.5959  -11.4883  -15.7031 N   0  0  0  0  0  0  0  0  0  0  0  0
   18.9942   -9.5102  -15.5812 C   0  0  0  0  0  0  0  0  0  0  0  0
   19.4097   -9.7510  -14.4191 O   0  0  0  0  0  0  0  0  0  0  0  0
   23.4037   -7.7253  -16.6435 C   0  0  0  0  0  0  0  0  0  0  0  0
   22.0673   -8.1950  -17.1703 C   0  0  1  0  0  0  0  0  0  0  0  0
   22.2190   -9.4890  -17.6667 O   0  0  0  0  0  0  0  0  0  0  0  0
   21.0791   -8.1521  -16.0223 C   0  0  2  0  0  0  0  0  0  0  0  0
   19.7854   -8.6693  -16.4085 N   0  0  0  0  0  0  0  0  0  0  0  0
   20.9723   -6.7055  -15.6180 C   0  0  0  0  0  0  0  0  0  0  0  0
   20.1609   -5.9619  -16.2535 O   0  0  0  0  0  0  0  0  0  0  0  0
   21.7030   -6.1493  -14.6018 O   0  0  0  0  0  0  0  0  0  0  0  0
  1  2  1  0
  3  2  1  0
  3  5  1  0
  3  4  1  6
  5  7  1  0
  5  6  1  1
  7  8  2  0
  9 10  1  0
 10 12  1  0
 11 10  2  0
 13 12  1  1
 14 13  1  0
 14  7  1  0
 15 21  1  0
 15 13  1  0
 16 15  2  0
 18 17  1  1
 19 18  1  0
 20 18  1  0
 20 21  1  6
 22 24  1  0
 22 20  1  0
 23 22  2  0
M  END
$$$$
