INT.pdb
     RDKit          3D

 24 23  0  0  1  0  0  0  0  0999 V2000
   27.5369  -19.6532   -6.7292 C   0  0  0  0  0  0  0  0  0  0  0  0
   26.1707  -19.9875   -7.2545 C   0  0  0  0  0  0  0  0  0  0  0  0
   26.2695  -20.3034   -8.7193 C   0  0  2  0  0  0  0  0  0  0  0  0
   26.8808  -19.1625   -9.5087 C   0  0  0  0  0  0  0  0  0  0  0  0
   24.9156  -20.5773   -9.3352 C   0  0  2  0  0  0  0  0  0  0  0  0
   24.2576  -21.6314   -8.5859 N   0  0  0  0  0  0  0  0  0  0  0  0
   24.9866  -20.8929  -10.7682 C   0  0  0  0  0  0  0  0  0  0  0  0
   25.6921  -21.8607  -11.1387 O   0  0  0  0  0  0  0  0  0  0  0  0
   23.4869  -23.1378  -13.0213 N   0  0  0  0  0  0  0  0  0  0  0  0
   22.6257  -22.2021  -13.6342 C   0  0  0  0  0  0  0  0  0  0  0  0
   21.5129  -22.5937  -14.0371 O   0  0  0  0  0  0  0  0  0  0  0  0
   23.0374  -20.8191  -13.7861 C   0  0  0  0  0  0  0  0  0  0  0  0
   24.3591  -20.4796  -13.1795 C   0  0  2  0  0  0  0  0  0  0  0  0
   24.2972  -20.1626  -11.7832 N   0  0  0  0  0  0  0  0  0  0  0  0
   24.9230  -19.3273  -13.9727 C   0  0  0  0  0  0  0  0  0  0  0  0
   24.4318  -18.1757  -13.8553 O   0  0  0  0  0  0  0  0  0  0  0  0
   28.4784  -17.5708  -16.9262 C   0  0  0  0  0  0  0  0  0  0  0  0
   27.9210  -18.7959  -16.2390 C   0  0  1  0  0  0  0  0  0  0  0  0
   28.8103  -19.1829  -15.2375 O   0  0  0  0  0  0  0  0  0  0  0  0
   26.5667  -18.4273  -15.6680 C   0  0  2  0  0  0  0  0  0  0  0  0
   26.0127  -19.4964  -14.8678 N   0  0  0  0  0  0  0  0  0  0  0  0
   25.6807  -18.1368  -16.8505 C   0  0  0  0  0  0  0  0  0  0  0  0
   25.1230  -19.1155  -17.4388 O   0  0  0  0  0  0  0  0  0  0  0  0
   25.4442  -16.8738  -17.3249 O   0  0  0  0  0  0  0  0  0  0  0  0
  1  2  1  0
  3  2  1  0
  3  5  1  0
  3  4  1  6
  5  7  1  0
  5  6  1  1
  7  8  2  0
  9 10  1  0
 10 12  1  0
 11 10  2  0
 13 12  1  6
 14 13  1  0
 14  7  1  0
 15 21  1  0
 15 13  1  0
 16 15  2  0
 18 17  1  1
 19 18  1  0
 20 18  1  0
 20 21  1  6
 22 24  1  0
 22 20  1  0
 23 22  2  0
M  END
$$$$
