PGR.pdb
     RDKit          3D

 23 23  0  0  1  0  0  0  0  0999 V2000
    7.8021  -15.0957   19.3207 N   0  0  0  0  0  0  0  0  0  0  0  0
    6.9317  -14.3932   18.4146 C   0  0  0  0  0  0  0  0  0  0  0  0
    7.9338  -13.4166   17.7840 C   0  0  0  0  0  0  0  0  0  0  0  0
    8.6857  -12.9277   18.9989 C   0  0  0  0  0  0  0  0  0  0  0  0
    8.6719  -14.1410   19.9096 C   0  0  1  0  0  0  0  0  0  0  0  0
    8.3869  -13.7762   21.3031 C   0  0  0  0  0  0  0  0  0  0  0  0
    9.2479  -13.0711   21.9430 O   0  0  0  0  0  0  0  0  0  0  0  0
    7.2285  -14.1279   22.0425 N   0  0  0  0  0  0  0  0  0  0  0  0
    6.9966  -13.6974   23.3960 C   0  0  0  0  0  0  0  0  0  0  0  0
    7.4754  -14.6263   24.4340 C   0  0  0  0  0  0  0  0  0  0  0  0
    7.2080  -14.3605   25.6329 O   0  0  0  0  0  0  0  0  0  0  0  0
    7.5137  -22.3139   26.5192 N   0  0  0  0  0  0  0  0  0  0  0  0
    6.6808  -21.4211   27.2410 C   0  0  0  0  0  0  0  0  0  0  0  0
    6.7058  -21.3831   28.5278 N   0  0  0  0  0  0  0  0  0  0  0  0
    5.7901  -20.5390   26.5378 N   0  0  0  0  0  0  0  0  0  0  0  0
    6.3454  -19.7815   25.4458 C   0  0  0  0  0  0  0  0  0  0  0  0
    7.4661  -18.9137   25.7940 C   0  0  0  0  0  0  0  0  0  0  0  0
    8.2178  -18.0648   24.9165 C   0  0  0  0  0  0  0  0  0  0  0  0
    8.6365  -16.7066   25.3144 C   0  0  2  0  0  0  0  0  0  0  0  0
    8.2144  -15.7874   24.1556 N   0  0  0  0  0  0  0  0  0  0  0  0
   10.1282  -16.5415   25.1805 C   0  0  0  0  0  0  0  0  0  0  0  0
   10.5730  -16.1909   24.0214 O   0  0  0  0  0  0  0  0  0  0  0  0
   11.0417  -16.7197   26.1410 O   0  0  0  0  0  0  0  0  0  0  0  0
  2  1  1  0
  3  2  1  0
  4  3  1  0
  4  5  1  0
  5  1  1  0
  6  7  2  0
  5  6  1  1
  8  6  1  0
  9 10  1  0
  9  8  1  0
 10 20  1  0
 11 10  2  0
 13 12  1  0
 13 14  2  0
 15 13  1  0
 16 17  1  0
 16 15  1  0
 18 17  1  0
 19 18  1  6
 20 19  1  0
 21 19  1  0
 21 23  1  0
 22 21  2  0
M  END
$$$$
