PGR.pdb
     RDKit          3D

 23 23  0  0  1  0  0  0  0  0999 V2000
    7.6436  -15.5770   20.7042 N   0  0  0  0  0  0  0  0  0  0  0  0
    7.0030  -14.4510   21.3318 C   0  0  0  0  0  0  0  0  0  0  0  0
    7.1092  -13.4184   20.2013 C   0  0  0  0  0  0  0  0  0  0  0  0
    8.5379  -13.6083   19.7508 C   0  0  0  0  0  0  0  0  0  0  0  0
    8.7678  -15.0890   19.9882 C   0  0  1  0  0  0  0  0  0  0  0  0
   10.0824  -15.3493   20.5885 C   0  0  0  0  0  0  0  0  0  0  0  0
   11.1330  -15.1592   19.8757 O   0  0  0  0  0  0  0  0  0  0  0  0
   10.3264  -15.8014   21.9108 N   0  0  0  0  0  0  0  0  0  0  0  0
   11.6458  -16.0573   22.4254 C   0  0  0  0  0  0  0  0  0  0  0  0
   11.6902  -16.4939   23.8315 C   0  0  0  0  0  0  0  0  0  0  0  0
   12.6702  -16.1333   24.5309 O   0  0  0  0  0  0  0  0  0  0  0  0
    5.8721  -16.8710   21.8426 N   0  0  0  0  0  0  0  0  0  0  0  0
    6.2060  -15.5938   22.3612 C   0  0  0  0  0  0  0  0  0  0  0  0
    6.6601  -14.6640   21.5950 N   0  0  0  0  0  0  0  0  0  0  0  0
    6.0398  -15.3191   23.7622 N   0  0  0  0  0  0  0  0  0  0  0  0
    6.5528  -16.2972   24.6867 C   0  0  0  0  0  0  0  0  0  0  0  0
    7.9771  -16.1871   24.9857 C   0  0  0  0  0  0  0  0  0  0  0  0
    8.7619  -17.0458   25.8239 C   0  0  0  0  0  0  0  0  0  0  0  0
   10.2353  -16.9682   25.8585 C   0  0  2  0  0  0  0  0  0  0  0  0
   10.7004  -17.2911   24.4284 N   0  0  0  0  0  0  0  0  0  0  0  0
   10.8225  -18.1729   26.5471 C   0  0  0  0  0  0  0  0  0  0  0  0
   11.3174  -19.0923   25.7896 O   0  0  0  0  0  0  0  0  0  0  0  0
   10.8855  -18.3885   27.8656 O   0  0  0  0  0  0  0  0  0  0  0  0
  2  1  1  0
  3  2  1  0
  4  3  1  0
  4  5  1  0
  5  1  1  0
  6  7  2  0
  5  6  1  1
  8  6  1  0
  9 10  1  0
  9  8  1  0
 10 20  1  0
 11 10  2  0
 13 12  1  0
 13 14  2  0
 15 13  1  0
 16 17  1  0
 16 15  1  0
 18 17  1  0
 19 18  1  6
 20 19  1  0
 21 19  1  0
 21 23  1  0
 22 21  2  0
M  END
$$$$
