PGR.pdb
     RDKit          3D

 23 23  0  0  1  0  0  0  0  0999 V2000
   10.2565  -16.7595   16.7309 N   0  0  0  0  0  0  0  0  0  0  0  0
    9.0288  -17.2472   17.3027 C   0  0  0  0  0  0  0  0  0  0  0  0
    8.1308  -16.0200   17.0951 C   0  0  0  0  0  0  0  0  0  0  0  0
    9.0417  -14.8998   17.5375 C   0  0  0  0  0  0  0  0  0  0  0  0
   10.4137  -15.4084   17.1367 C   0  0  1  0  0  0  0  0  0  0  0  0
   11.4168  -15.1564   18.1791 C   0  0  0  0  0  0  0  0  0  0  0  0
   11.6440  -13.9439   18.5342 O   0  0  0  0  0  0  0  0  0  0  0  0
   12.1857  -16.1363   18.8581 N   0  0  0  0  0  0  0  0  0  0  0  0
   13.1605  -15.8136   19.8664 C   0  0  0  0  0  0  0  0  0  0  0  0
   12.6231  -15.6871   21.2320 C   0  0  0  0  0  0  0  0  0  0  0  0
   13.4154  -15.3560   22.1498 O   0  0  0  0  0  0  0  0  0  0  0  0
    8.6669  -10.8892   20.4947 N   0  0  0  0  0  0  0  0  0  0  0  0
    8.5617  -12.1944   19.9496 C   0  0  0  0  0  0  0  0  0  0  0  0
    9.2564  -12.5434   18.9232 N   0  0  0  0  0  0  0  0  0  0  0  0
    7.6695  -13.1529   20.5423 N   0  0  0  0  0  0  0  0  0  0  0  0
    8.2353  -14.4171   20.9377 C   0  0  0  0  0  0  0  0  0  0  0  0
    8.7428  -14.4739   22.3049 C   0  0  0  0  0  0  0  0  0  0  0  0
    9.3557  -15.5908   22.9625 C   0  0  0  0  0  0  0  0  0  0  0  0
   10.8215  -15.7536   23.0210 C   0  0  2  0  0  0  0  0  0  0  0  0
   11.2780  -15.9187   21.5614 N   0  0  0  0  0  0  0  0  0  0  0  0
   11.1919  -17.1286   23.5134 C   0  0  0  0  0  0  0  0  0  0  0  0
   11.6150  -17.9684   22.6303 O   0  0  0  0  0  0  0  0  0  0  0  0
   11.1289  -17.5701   24.7743 O   0  0  0  0  0  0  0  0  0  0  0  0
  2  1  1  0
  3  2  1  0
  4  3  1  0
  4  5  1  0
  5  1  1  0
  6  7  2  0
  5  6  1  1
  8  6  1  0
  9 10  1  0
  9  8  1  0
 10 20  1  0
 11 10  2  0
 13 12  1  0
 13 14  2  0
 15 13  1  0
 16 17  1  0
 16 15  1  0
 18 17  1  0
 19 18  1  6
 20 19  1  0
 21 19  1  0
 21 23  1  0
 22 21  2  0
M  END
$$$$
