PGR.pdb
     RDKit          3D

 23 23  0  0  1  0  0  0  0  0999 V2000
    8.1661  -21.7352   19.7161 N   0  0  0  0  0  0  0  0  0  0  0  0
    7.0531  -22.6254   19.5139 C   0  0  0  0  0  0  0  0  0  0  0  0
    6.2758  -21.8436   18.4461 C   0  0  0  0  0  0  0  0  0  0  0  0
    6.3211  -20.4412   19.0044 C   0  0  0  0  0  0  0  0  0  0  0  0
    7.6624  -20.4081   19.7127 C   0  0  1  0  0  0  0  0  0  0  0  0
    7.5750  -19.7438   21.0193 C   0  0  0  0  0  0  0  0  0  0  0  0
    7.0667  -18.5665   21.0783 O   0  0  0  0  0  0  0  0  0  0  0  0
    8.0036  -20.2770   22.2620 N   0  0  0  0  0  0  0  0  0  0  0  0
    7.7555  -19.6315   23.5241 C   0  0  0  0  0  0  0  0  0  0  0  0
    8.5042  -18.3816   23.7404 C   0  0  0  0  0  0  0  0  0  0  0  0
    9.7575  -18.4219   23.6552 O   0  0  0  0  0  0  0  0  0  0  0  0
    7.7683  -14.5337   18.8435 N   0  0  0  0  0  0  0  0  0  0  0  0
    7.8670  -13.2128   19.3505 C   0  0  0  0  0  0  0  0  0  0  0  0
    8.0652  -12.2127   18.5641 N   0  0  0  0  0  0  0  0  0  0  0  0
    7.7456  -12.9721   20.7624 N   0  0  0  0  0  0  0  0  0  0  0  0
    7.8601  -14.1134   21.6335 C   0  0  0  0  0  0  0  0  0  0  0  0
    7.7678  -13.8215   23.0606 C   0  0  0  0  0  0  0  0  0  0  0  0
    7.8195  -14.7552   24.1475 C   0  0  0  0  0  0  0  0  0  0  0  0
    8.7635  -15.8896   24.1572 C   0  0  2  0  0  0  0  0  0  0  0  0
    7.8937  -17.1527   24.0383 N   0  0  0  0  0  0  0  0  0  0  0  0
    9.2988  -16.1335   25.5444 C   0  0  0  0  0  0  0  0  0  0  0  0
   10.2801  -15.3894   25.9284 O   0  0  0  0  0  0  0  0  0  0  0  0
    8.8607  -17.0428   26.4220 O   0  0  0  0  0  0  0  0  0  0  0  0
  2  1  1  0
  3  2  1  0
  4  3  1  0
  4  5  1  0
  5  1  1  0
  6  7  2  0
  5  6  1  1
  8  6  1  0
  9 10  1  0
  9  8  1  0
 10 20  1  0
 11 10  2  0
 13 12  1  0
 13 14  2  0
 15 13  1  0
 16 17  1  0
 16 15  1  0
 18 17  1  0
 19 18  1  1
 20 19  1  0
 21 19  1  0
 21 23  1  0
 22 21  2  0
M  END
$$$$
