PGR.pdb
     RDKit          3D

 23 23  0  0  1  0  0  0  0  0999 V2000
    9.1944  -19.2751   18.6351 N   0  0  0  0  0  0  0  0  0  0  0  0
    7.8377  -18.9865   19.0199 C   0  0  0  0  0  0  0  0  0  0  0  0
    7.4423  -18.0157   17.8988 C   0  0  0  0  0  0  0  0  0  0  0  0
    8.6552  -17.1185   17.8333 C   0  0  0  0  0  0  0  0  0  0  0  0
    9.7864  -18.0606   18.2001 C   0  0  1  0  0  0  0  0  0  0  0  0
   10.7405  -17.4360   19.1251 C   0  0  0  0  0  0  0  0  0  0  0  0
   11.2374  -16.2930   18.8176 O   0  0  0  0  0  0  0  0  0  0  0  0
   11.1870  -17.9736   20.3596 N   0  0  0  0  0  0  0  0  0  0  0  0
   12.1953  -17.3473   21.1733 C   0  0  0  0  0  0  0  0  0  0  0  0
   11.6777  -16.5172   22.2745 C   0  0  0  0  0  0  0  0  0  0  0  0
   12.5089  -15.9385   23.0187 O   0  0  0  0  0  0  0  0  0  0  0  0
    8.3186  -13.0802   17.8182 N   0  0  0  0  0  0  0  0  0  0  0  0
    8.4133  -12.7255   19.1882 C   0  0  0  0  0  0  0  0  0  0  0  0
    9.2690  -11.8513   19.5900 N   0  0  0  0  0  0  0  0  0  0  0  0
    7.5468  -13.3435   20.1541 N   0  0  0  0  0  0  0  0  0  0  0  0
    7.7109  -12.9476   21.5291 C   0  0  0  0  0  0  0  0  0  0  0  0
    8.7951  -13.6123   22.2452 C   0  0  0  0  0  0  0  0  0  0  0  0
    8.6888  -14.6917   23.1830 C   0  0  0  0  0  0  0  0  0  0  0  0
    9.8768  -15.4108   23.6828 C   0  0  2  0  0  0  0  0  0  0  0  0
   10.3096  -16.3414   22.5372 N   0  0  0  0  0  0  0  0  0  0  0  0
    9.4853  -16.4719   24.6784 C   0  0  0  0  0  0  0  0  0  0  0  0
    9.3322  -17.6690   24.2228 O   0  0  0  0  0  0  0  0  0  0  0  0
    9.2807  -16.3018   25.9891 O   0  0  0  0  0  0  0  0  0  0  0  0
  2  1  1  0
  3  2  1  0
  4  3  1  0
  4  5  1  0
  5  1  1  0
  6  7  2  0
  5  6  1  1
  8  6  1  0
  9 10  1  0
  9  8  1  0
 10 20  1  0
 11 10  2  0
 13 12  1  0
 13 14  2  0
 15 13  1  0
 16 17  1  0
 16 15  1  0
 18 17  1  0
 19 18  1  6
 20 19  1  0
 21 19  1  0
 21 23  1  0
 22 21  2  0
M  END
$$$$
