PGR.pdb
     RDKit          3D

 23 23  0  0  1  0  0  0  0  0999 V2000
    8.1434  -14.7374   17.6846 N   0  0  0  0  0  0  0  0  0  0  0  0
    7.0303  -14.0520   18.2873 C   0  0  0  0  0  0  0  0  0  0  0  0
    7.6098  -12.6342   18.3844 C   0  0  0  0  0  0  0  0  0  0  0  0
    8.9963  -12.9094   18.9157 C   0  0  0  0  0  0  0  0  0  0  0  0
    9.3294  -14.2537   18.2962 C   0  0  1  0  0  0  0  0  0  0  0  0
    9.9771  -15.1542   19.2584 C   0  0  0  0  0  0  0  0  0  0  0  0
   10.9948  -14.7259   19.9133 O   0  0  0  0  0  0  0  0  0  0  0  0
    9.5894  -16.4865   19.5531 N   0  0  0  0  0  0  0  0  0  0  0  0
   10.2743  -17.3130   20.5117 C   0  0  0  0  0  0  0  0  0  0  0  0
   10.4761  -16.6944   21.8332 C   0  0  0  0  0  0  0  0  0  0  0  0
   11.3845  -15.8337   21.9496 O   0  0  0  0  0  0  0  0  0  0  0  0
    4.8208  -12.7064   27.1008 N   0  0  0  0  0  0  0  0  0  0  0  0
    6.0043  -11.9870   26.7950 C   0  0  0  0  0  0  0  0  0  0  0  0
    6.0101  -10.6997   26.7661 N   0  0  0  0  0  0  0  0  0  0  0  0
    7.2236  -12.6930   26.5108 N   0  0  0  0  0  0  0  0  0  0  0  0
    7.1205  -13.8762   25.6958 C   0  0  0  0  0  0  0  0  0  0  0  0
    8.3821  -14.5566   25.4206 C   0  0  0  0  0  0  0  0  0  0  0  0
    8.5773  -15.7635   24.6715 C   0  0  0  0  0  0  0  0  0  0  0  0
    9.9204  -16.2214   24.2660 C   0  0  2  0  0  0  0  0  0  0  0  0
    9.7116  -17.0167   22.9661 N   0  0  0  0  0  0  0  0  0  0  0  0
   10.3871  -17.3599   25.1356 C   0  0  0  0  0  0  0  0  0  0  0  0
    9.9985  -18.5439   24.8021 O   0  0  0  0  0  0  0  0  0  0  0  0
   11.1655  -17.2709   26.2197 O   0  0  0  0  0  0  0  0  0  0  0  0
  2  1  1  0
  3  2  1  0
  4  3  1  0
  4  5  1  0
  5  1  1  0
  6  7  2  0
  5  6  1  1
  8  6  1  0
  9 10  1  0
  9  8  1  0
 10 20  1  0
 11 10  2  0
 13 12  1  0
 13 14  2  0
 15 13  1  0
 16 17  1  0
 16 15  1  0
 18 17  1  0
 19 18  1  1
 20 19  1  0
 21 19  1  0
 21 23  1  0
 22 21  2  0
M  END
$$$$
