PGR.pdb
     RDKit          3D

 23 23  0  0  1  0  0  0  0  0999 V2000
    8.2234  -15.1211   19.5449 N   0  0  0  0  0  0  0  0  0  0  0  0
    7.0266  -14.8816   18.7817 C   0  0  0  0  0  0  0  0  0  0  0  0
    7.4828  -13.6837   17.9376 C   0  0  0  0  0  0  0  0  0  0  0  0
    8.1730  -12.8286   18.9734 C   0  0  0  0  0  0  0  0  0  0  0  0
    8.7523  -13.8595   19.9238 C   0  0  1  0  0  0  0  0  0  0  0  0
    8.5674  -13.4737   21.3285 C   0  0  0  0  0  0  0  0  0  0  0  0
    8.9342  -12.3003   21.6978 O   0  0  0  0  0  0  0  0  0  0  0  0
    8.0101  -14.2803   22.3538 N   0  0  0  0  0  0  0  0  0  0  0  0
    7.8320  -13.8234   23.7068 C   0  0  0  0  0  0  0  0  0  0  0  0
    7.2722  -14.8238   24.6317 C   0  0  0  0  0  0  0  0  0  0  0  0
    6.9555  -14.4467   25.7880 O   0  0  0  0  0  0  0  0  0  0  0  0
    5.7706  -23.4405   24.0434 N   0  0  0  0  0  0  0  0  0  0  0  0
    5.0878  -22.2128   23.8478 C   0  0  0  0  0  0  0  0  0  0  0  0
    3.9276  -22.1798   23.2903 N   0  0  0  0  0  0  0  0  0  0  0  0
    5.6884  -20.9785   24.2738 N   0  0  0  0  0  0  0  0  0  0  0  0
    7.0416  -21.0432   24.7630 C   0  0  0  0  0  0  0  0  0  0  0  0
    7.5882  -19.7830   25.2563 C   0  0  0  0  0  0  0  0  0  0  0  0
    7.5534  -18.5039   24.6092 C   0  0  0  0  0  0  0  0  0  0  0  0
    7.3012  -17.2574   25.3581 C   0  0  2  0  0  0  0  0  0  0  0  0
    7.0770  -16.1721   24.2915 N   0  0  0  0  0  0  0  0  0  0  0  0
    8.5777  -16.7137   25.9454 C   0  0  0  0  0  0  0  0  0  0  0  0
    9.2362  -15.8698   25.2255 O   0  0  0  0  0  0  0  0  0  0  0  0
    9.1003  -17.0147   27.1393 O   0  0  0  0  0  0  0  0  0  0  0  0
  2  1  1  0
  3  2  1  0
  4  3  1  0
  4  5  1  0
  5  1  1  0
  6  7  2  0
  5  6  1  1
  8  6  1  0
  9 10  1  0
  9  8  1  0
 10 20  1  0
 11 10  2  0
 13 12  1  0
 13 14  2  0
 15 13  1  0
 16 17  1  0
 16 15  1  0
 18 17  1  0
 19 18  1  6
 20 19  1  0
 21 19  1  0
 21 23  1  0
 22 21  2  0
M  END
$$$$
