PGR.pdb
     RDKit          3D

 23 23  0  0  1  0  0  0  0  0999 V2000
    8.9192  -14.9376   19.1402 N   0  0  0  0  0  0  0  0  0  0  0  0
    8.2957  -14.7973   17.8504 C   0  0  0  0  0  0  0  0  0  0  0  0
    8.1149  -13.2739   17.8048 C   0  0  0  0  0  0  0  0  0  0  0  0
    7.5803  -12.9909   19.1885 C   0  0  0  0  0  0  0  0  0  0  0  0
    8.2665  -14.0480   20.0331 C   0  0  1  0  0  0  0  0  0  0  0  0
    7.3454  -14.6588   20.9999 C   0  0  0  0  0  0  0  0  0  0  0  0
    6.7530  -13.9003   21.8494 O   0  0  0  0  0  0  0  0  0  0  0  0
    7.0281  -16.0378   21.1009 N   0  0  0  0  0  0  0  0  0  0  0  0
    6.0181  -16.5512   21.9882 C   0  0  0  0  0  0  0  0  0  0  0  0
    6.4407  -16.6985   23.3915 C   0  0  0  0  0  0  0  0  0  0  0  0
    5.6020  -17.1389   24.2175 O   0  0  0  0  0  0  0  0  0  0  0  0
   10.0199  -21.3832   28.2925 N   0  0  0  0  0  0  0  0  0  0  0  0
   10.7333  -20.3432   28.9414 C   0  0  0  0  0  0  0  0  0  0  0  0
   11.5227  -20.5942   29.9272 N   0  0  0  0  0  0  0  0  0  0  0  0
   10.5824  -18.9829   28.5022 N   0  0  0  0  0  0  0  0  0  0  0  0
   10.1513  -18.7776   27.1433 C   0  0  0  0  0  0  0  0  0  0  0  0
    9.8324  -17.3976   26.7912 C   0  0  0  0  0  0  0  0  0  0  0  0
    9.3598  -16.9057   25.5300 C   0  0  0  0  0  0  0  0  0  0  0  0
    7.9998  -16.3559   25.3671 C   0  0  2  0  0  0  0  0  0  0  0  0
    7.7257  -16.3715   23.8537 N   0  0  0  0  0  0  0  0  0  0  0  0
    7.9947  -14.8624   25.5658 C   0  0  0  0  0  0  0  0  0  0  0  0
    8.3972  -14.1422   24.5741 O   0  0  0  0  0  0  0  0  0  0  0  0
    7.6141  -14.2034   26.6657 O   0  0  0  0  0  0  0  0  0  0  0  0
  2  1  1  0
  3  2  1  0
  4  3  1  0
  4  5  1  0
  5  1  1  0
  6  7  2  0
  5  6  1  6
  8  6  1  0
  9 10  1  0
  9  8  1  0
 10 20  1  0
 11 10  2  0
 13 12  1  0
 13 14  2  0
 15 13  1  0
 16 17  1  0
 16 15  1  0
 18 17  1  0
 19 18  1  6
 20 19  1  0
 21 19  1  0
 21 23  1  0
 22 21  2  0
M  END
$$$$
