PGR.pdb
     RDKit          3D

 23 23  0  0  1  0  0  0  0  0999 V2000
    7.4098  -14.4567   18.7647 N   0  0  0  0  0  0  0  0  0  0  0  0
    6.7540  -13.9296   19.9327 C   0  0  0  0  0  0  0  0  0  0  0  0
    7.3978  -12.5378   19.9959 C   0  0  0  0  0  0  0  0  0  0  0  0
    8.8515  -12.8651   19.7510 C   0  0  0  0  0  0  0  0  0  0  0  0
    8.7714  -14.0596   18.8191 C   0  0  1  0  0  0  0  0  0  0  0  0
    9.7377  -15.1036   19.1834 C   0  0  0  0  0  0  0  0  0  0  0  0
   10.9722  -14.7789   19.3199 O   0  0  0  0  0  0  0  0  0  0  0  0
    9.4476  -16.4738   19.4084 N   0  0  0  0  0  0  0  0  0  0  0  0
   10.4578  -17.4546   19.7062 C   0  0  0  0  0  0  0  0  0  0  0  0
   11.0391  -17.3575   21.0562 C   0  0  0  0  0  0  0  0  0  0  0  0
   12.2854  -17.4713   21.1718 O   0  0  0  0  0  0  0  0  0  0  0  0
    8.9263  -13.3779   28.6656 N   0  0  0  0  0  0  0  0  0  0  0  0
    9.6888  -14.4861   29.1152 C   0  0  0  0  0  0  0  0  0  0  0  0
    9.9223  -14.6668   30.3685 N   0  0  0  0  0  0  0  0  0  0  0  0
   10.2154  -15.4303   28.1680 N   0  0  0  0  0  0  0  0  0  0  0  0
    9.7458  -15.3270   26.8103 C   0  0  0  0  0  0  0  0  0  0  0  0
   10.1938  -16.3869   25.9124 C   0  0  0  0  0  0  0  0  0  0  0  0
    9.9443  -16.5018   24.5051 C   0  0  0  0  0  0  0  0  0  0  0  0
   10.9943  -16.9260   23.5587 C   0  0  2  0  0  0  0  0  0  0  0  0
   10.2766  -17.1478   22.2165 N   0  0  0  0  0  0  0  0  0  0  0  0
   11.4061  -18.3527   23.8145 C   0  0  0  0  0  0  0  0  0  0  0  0
   12.4637  -18.5335   24.5308 O   0  0  0  0  0  0  0  0  0  0  0  0
   10.7871  -19.4543   23.3763 O   0  0  0  0  0  0  0  0  0  0  0  0
  2  1  1  0
  3  2  1  0
  4  3  1  0
  4  5  1  0
  5  1  1  0
  6  7  2  0
  5  6  1  1
  8  6  1  0
  9 10  1  0
  9  8  1  0
 10 20  1  0
 11 10  2  0
 13 12  1  0
 13 14  2  0
 15 13  1  0
 16 17  1  0
 16 15  1  0
 18 17  1  0
 19 18  1  1
 20 19  1  0
 21 19  1  0
 21 23  1  0
 22 21  2  0
M  END
$$$$
