PGR.pdb
     RDKit          3D

 23 23  0  0  1  0  0  0  0  0999 V2000
    8.8911  -14.8593   16.2389 N   0  0  0  0  0  0  0  0  0  0  0  0
    9.8432  -15.8980   16.5334 C   0  0  0  0  0  0  0  0  0  0  0  0
    8.9070  -17.1132   16.5819 C   0  0  0  0  0  0  0  0  0  0  0  0
    7.7565  -16.5768   17.3998 C   0  0  0  0  0  0  0  0  0  0  0  0
    7.7269  -15.1106   17.0112 C   0  0  1  0  0  0  0  0  0  0  0  0
    7.5201  -14.2400   18.1754 C   0  0  0  0  0  0  0  0  0  0  0  0
    6.4240  -14.3447   18.8352 O   0  0  0  0  0  0  0  0  0  0  0  0
    8.4270  -13.2659   18.6664 N   0  0  0  0  0  0  0  0  0  0  0  0
    8.1912  -12.5017   19.8629 C   0  0  0  0  0  0  0  0  0  0  0  0
    8.1638  -13.2890   21.1075 C   0  0  0  0  0  0  0  0  0  0  0  0
    8.1003  -12.6674   22.1980 O   0  0  0  0  0  0  0  0  0  0  0  0
    5.9185  -21.2706   22.5981 N   0  0  0  0  0  0  0  0  0  0  0  0
    6.2745  -20.9774   23.9394 C   0  0  0  0  0  0  0  0  0  0  0  0
    6.5462  -21.9184   24.7751 N   0  0  0  0  0  0  0  0  0  0  0  0
    6.3371  -19.6127   24.3863 N   0  0  0  0  0  0  0  0  0  0  0  0
    6.1003  -18.5893   23.4009 C   0  0  0  0  0  0  0  0  0  0  0  0
    7.1023  -17.5294   23.3483 C   0  0  0  0  0  0  0  0  0  0  0  0
    7.1703  -16.4381   22.4207 C   0  0  0  0  0  0  0  0  0  0  0  0
    8.2297  -15.4135   22.4979 C   0  0  2  0  0  0  0  0  0  0  0  0
    8.2076  -14.6921   21.1396 N   0  0  0  0  0  0  0  0  0  0  0  0
    9.5950  -16.0399   22.3804 C   0  0  0  0  0  0  0  0  0  0  0  0
   10.0549  -16.2133   21.1877 O   0  0  0  0  0  0  0  0  0  0  0  0
   10.3827  -16.4348   23.3867 O   0  0  0  0  0  0  0  0  0  0  0  0
  2  1  1  0
  3  2  1  0
  4  3  1  0
  4  5  1  0
  5  1  1  0
  6  7  2  0
  5  6  1  1
  8  6  1  0
  9 10  1  0
  9  8  1  0
 10 20  1  0
 11 10  2  0
 13 12  1  0
 13 14  2  0
 15 13  1  0
 16 17  1  0
 16 15  1  0
 18 17  1  0
 19 18  1  6
 20 19  1  0
 21 19  1  0
 21 23  1  0
 22 21  2  0
M  END
$$$$
