PGR.pdb
     RDKit          3D

 23 23  0  0  1  0  0  0  0  0999 V2000
    8.4777  -14.1959   18.2703 N   0  0  0  0  0  0  0  0  0  0  0  0
    7.2670  -13.6684   17.6975 C   0  0  0  0  0  0  0  0  0  0  0  0
    7.3156  -12.2345   18.2427 C   0  0  0  0  0  0  0  0  0  0  0  0
    7.6962  -12.4715   19.6847 C   0  0  0  0  0  0  0  0  0  0  0  0
    8.5752  -13.7051   19.5986 C   0  0  1  0  0  0  0  0  0  0  0  0
    8.2769  -14.6654   20.6687 C   0  0  0  0  0  0  0  0  0  0  0  0
    8.5641  -14.3472   21.8787 O   0  0  0  0  0  0  0  0  0  0  0  0
    7.6876  -15.9456   20.5070 N   0  0  0  0  0  0  0  0  0  0  0  0
    7.3981  -16.8247   21.6090 C   0  0  0  0  0  0  0  0  0  0  0  0
    8.5624  -17.5469   22.1500 C   0  0  0  0  0  0  0  0  0  0  0  0
    9.0182  -18.5126   21.4872 O   0  0  0  0  0  0  0  0  0  0  0  0
   11.6728  -14.1222   19.5788 N   0  0  0  0  0  0  0  0  0  0  0  0
   12.9464  -14.7181   19.3929 C   0  0  0  0  0  0  0  0  0  0  0  0
   13.4997  -14.7534   18.2308 N   0  0  0  0  0  0  0  0  0  0  0  0
   13.6418  -15.2954   20.5105 N   0  0  0  0  0  0  0  0  0  0  0  0
   13.0055  -15.1978   21.7990 C   0  0  0  0  0  0  0  0  0  0  0  0
   12.2046  -16.3539   22.1891 C   0  0  0  0  0  0  0  0  0  0  0  0
   11.4910  -16.5467   23.4177 C   0  0  0  0  0  0  0  0  0  0  0  0
   10.6152  -17.7143   23.6362 C   0  0  2  0  0  0  0  0  0  0  0  0
    9.1857  -17.2160   23.3639 N   0  0  0  0  0  0  0  0  0  0  0  0
   10.4598  -18.0038   25.1067 C   0  0  0  0  0  0  0  0  0  0  0  0
    9.4184  -17.5139   25.6893 O   0  0  0  0  0  0  0  0  0  0  0  0
   11.2907  -18.7190   25.8729 O   0  0  0  0  0  0  0  0  0  0  0  0
  2  1  1  0
  3  2  1  0
  4  3  1  0
  4  5  1  0
  5  1  1  0
  6  7  2  0
  5  6  1  1
  8  6  1  0
  9 10  1  0
  9  8  1  0
 10 20  1  0
 11 10  2  0
 13 12  1  0
 13 14  2  0
 15 13  1  0
 16 17  1  0
 16 15  1  0
 18 17  1  0
 19 18  1  1
 20 19  1  0
 21 19  1  0
 21 23  1  0
 22 21  2  0
M  END
$$$$
