CNY.pdb
     RDKit          3D

 27 27  0  0  1  0  0  0  0  0999 V2000
   11.9477   -8.1040  -18.1269 N   0  0  0  0  0  0  0  0  0  0  0  0
   13.1067   -7.2577  -17.9435 C   0  0  1  0  0  0  0  0  0  0  0  0
   12.5972   -5.8288  -17.7456 C   0  0  0  0  0  0  0  0  0  0  0  0
   12.1366   -5.1453  -19.3444 S   0  0  0  0  0  0  0  0  0  0  0  0
   13.9243   -7.6694  -16.7752 C   0  0  0  0  0  0  0  0  0  0  0  0
   13.8448   -6.9474  -15.7446 O   0  0  0  0  0  0  0  0  0  0  0  0
   16.9124  -10.1982  -13.5255 N   0  0  0  0  0  0  0  0  0  0  0  0
   16.3413  -11.1765  -14.3811 C   0  0  0  0  0  0  0  0  0  0  0  0
   16.5435  -12.3835  -14.1032 O   0  0  0  0  0  0  0  0  0  0  0  0
   15.5502  -10.7165  -15.5372 C   0  0  0  0  0  0  0  0  0  0  0  0
   15.5367   -9.2089  -15.6920 C   0  0  2  0  0  0  0  0  0  0  0  0
   14.7378   -8.8017  -16.8256 N   0  0  0  0  0  0  0  0  0  0  0  0
   16.8859   -8.6095  -15.7241 C   0  0  0  0  0  0  0  0  0  0  0  0
   17.6536   -8.8130  -16.6978 O   0  0  0  0  0  0  0  0  0  0  0  0
   23.4363   -2.9312  -14.3476 O   0  0  0  0  0  0  0  0  0  0  0  0
   22.3177   -3.7492  -14.1646 C   0  0  0  0  0  0  0  0  0  0  0  0
   21.0573   -3.2341  -14.3550 C   0  0  0  0  0  0  0  0  0  0  0  0
   19.9220   -3.9945  -14.1885 C   0  0  0  0  0  0  0  0  0  0  0  0
   20.0846   -5.3203  -13.8161 C   0  0  0  0  0  0  0  0  0  0  0  0
   18.8507   -6.1579  -13.6371 C   0  0  0  0  0  0  0  0  0  0  0  0
   18.7085   -7.1719  -14.7715 C   0  0  2  0  0  0  0  0  0  0  0  0
   17.4003   -7.7855  -14.6917 N   0  0  0  0  0  0  0  0  0  0  0  0
   19.8003   -8.1442  -14.6437 C   0  0  0  0  0  0  0  0  0  0  0  0
   20.9361   -8.1414  -15.4389 O   0  0  0  0  0  0  0  0  0  0  0  0
   21.3516   -5.8296  -13.6271 C   0  0  0  0  0  0  0  0  0  0  0  0
   22.4961   -5.0566  -13.7968 C   0  0  0  0  0  0  0  0  0  0  0  0
   19.6964   -9.0327  -13.7581 O   0  0  0  0  0  0  0  0  0  0  0  0
  2  1  1  1
  2  5  1  0
  3  2  1  0
  3  4  1  0
  5  6  2  0
  7  8  1  0
  8  9  2  0
 10  8  1  0
 11 10  1  6
 11 13  1  0
 12 11  1  0
 12  5  1  0
 13 14  2  0
 15 16  1  0
 16 26  2  0
 17 18  2  0
 17 16  1  0
 18 19  1  0
 19 20  1  0
 19 25  2  0
 21 20  1  1
 21 23  1  0
 22 13  1  0
 22 21  1  0
 23 27  2  0
 23 24  1  0
 26 25  1  0
M  END
$$$$
