CNY.pdb
     RDKit          3D

 27 27  0  0  1  0  0  0  0  0999 V2000
   19.4732  -12.8037  -17.1536 N   0  0  0  0  0  0  0  0  0  0  0  0
   19.0606  -11.5090  -17.6504 C   0  0  1  0  0  0  0  0  0  0  0  0
   17.6447  -11.2546  -17.1298 C   0  0  0  0  0  0  0  0  0  0  0  0
   16.5126  -12.4009  -17.9298 S   0  0  0  0  0  0  0  0  0  0  0  0
   19.9665  -10.4211  -17.2047 C   0  0  0  0  0  0  0  0  0  0  0  0
   20.4513  -10.5260  -16.0454 O   0  0  0  0  0  0  0  0  0  0  0  0
   20.8155   -5.1500  -19.4400 N   0  0  0  0  0  0  0  0  0  0  0  0
   20.4941   -6.5141  -19.2138 C   0  0  0  0  0  0  0  0  0  0  0  0
   19.2997   -6.8654  -19.3709 O   0  0  0  0  0  0  0  0  0  0  0  0
   21.5778   -7.4290  -18.8104 C   0  0  0  0  0  0  0  0  0  0  0  0
   21.2058   -8.3196  -17.6418 C   0  0  2  0  0  0  0  0  0  0  0  0
   20.2605   -9.3397  -18.0356 N   0  0  0  0  0  0  0  0  0  0  0  0
   20.7466   -7.5705  -16.4550 C   0  0  0  0  0  0  0  0  0  0  0  0
   19.5214   -7.3753  -16.2558 O   0  0  0  0  0  0  0  0  0  0  0  0
   18.7262   -5.0967   -8.5700 O   0  0  0  0  0  0  0  0  0  0  0  0
   19.3799   -5.6412   -9.6791 C   0  0  0  0  0  0  0  0  0  0  0  0
   20.1305   -4.8285  -10.4954 C   0  0  0  0  0  0  0  0  0  0  0  0
   20.7946   -5.3119  -11.6001 C   0  0  0  0  0  0  0  0  0  0  0  0
   20.6853   -6.6666  -11.8748 C   0  0  0  0  0  0  0  0  0  0  0  0
   21.4111   -7.2026  -13.0756 C   0  0  0  0  0  0  0  0  0  0  0  0
   21.1458   -6.3370  -14.3067 C   0  0  2  0  0  0  0  0  0  0  0  0
   21.6256   -7.0321  -15.4818 N   0  0  0  0  0  0  0  0  0  0  0  0
   21.8119   -5.0459  -14.0994 C   0  0  0  0  0  0  0  0  0  0  0  0
   21.1855   -3.9280  -13.5698 O   0  0  0  0  0  0  0  0  0  0  0  0
   19.9310   -7.4751  -11.0515 C   0  0  0  0  0  0  0  0  0  0  0  0
   19.2616   -6.9815   -9.9359 C   0  0  0  0  0  0  0  0  0  0  0  0
   23.0247   -4.9508  -14.4228 O   0  0  0  0  0  0  0  0  0  0  0  0
  2  1  1  1
  2  5  1  0
  3  2  1  0
  3  4  1  0
  5  6  2  0
  7  8  1  0
  8  9  2  0
 10  8  1  0
 11 10  1  6
 11 13  1  0
 12 11  1  0
 12  5  1  0
 13 14  2  0
 15 16  1  0
 16 26  2  0
 17 18  2  0
 17 16  1  0
 18 19  1  0
 19 20  1  0
 19 25  2  0
 21 20  1  1
 21 23  1  0
 22 13  1  0
 22 21  1  0
 23 27  2  0
 23 24  1  0
 26 25  1  0
M  END
$$$$
