CNY.pdb
     RDKit          3D

 27 27  0  0  1  0  0  0  0  0999 V2000
   18.2757  -13.7006  -18.5571 N   0  0  0  0  0  0  0  0  0  0  0  0
   18.0906  -13.6549  -17.1229 C   0  0  1  0  0  0  0  0  0  0  0  0
   19.2802  -14.3788  -16.4895 C   0  0  0  0  0  0  0  0  0  0  0  0
   20.7684  -13.4050  -16.7589 S   0  0  0  0  0  0  0  0  0  0  0  0
   18.0133  -12.2642  -16.6101 C   0  0  0  0  0  0  0  0  0  0  0  0
   18.1974  -11.3399  -17.4477 O   0  0  0  0  0  0  0  0  0  0  0  0
   16.7166   -9.1180  -11.6119 N   0  0  0  0  0  0  0  0  0  0  0  0
   16.5827   -9.2141  -13.0219 C   0  0  0  0  0  0  0  0  0  0  0  0
   16.4238   -8.1491  -13.6663 O   0  0  0  0  0  0  0  0  0  0  0  0
   16.6383  -10.5522  -13.6387 C   0  0  0  0  0  0  0  0  0  0  0  0
   17.6496  -10.6519  -14.7632 C   0  0  2  0  0  0  0  0  0  0  0  0
   17.7493  -12.0037  -15.2652 N   0  0  0  0  0  0  0  0  0  0  0  0
   18.9718  -10.0937  -14.4153 C   0  0  0  0  0  0  0  0  0  0  0  0
   19.8114  -10.7827  -13.7836 O   0  0  0  0  0  0  0  0  0  0  0  0
   20.0835   -5.9822  -20.3686 O   0  0  0  0  0  0  0  0  0  0  0  0
   20.4820   -6.6189  -19.1898 C   0  0  0  0  0  0  0  0  0  0  0  0
   19.9764   -7.8594  -18.8799 C   0  0  0  0  0  0  0  0  0  0  0  0
   20.3344   -8.5309  -17.7328 C   0  0  0  0  0  0  0  0  0  0  0  0
   21.2361   -7.9125  -16.8801 C   0  0  0  0  0  0  0  0  0  0  0  0
   21.6355   -8.6411  -15.6288 C   0  0  0  0  0  0  0  0  0  0  0  0
   20.7085   -8.2835  -14.4678 C   0  0  2  0  0  0  0  0  0  0  0  0
   19.3804   -8.7800  -14.7571 N   0  0  0  0  0  0  0  0  0  0  0  0
   20.7451   -6.8264  -14.2968 C   0  0  0  0  0  0  0  0  0  0  0  0
   21.8747   -6.1203  -13.9124 O   0  0  0  0  0  0  0  0  0  0  0  0
   21.7388   -6.6687  -17.1977 C   0  0  0  0  0  0  0  0  0  0  0  0
   21.3737   -5.9940  -18.3586 C   0  0  0  0  0  0  0  0  0  0  0  0
   19.6857   -6.1818  -14.5129 O   0  0  0  0  0  0  0  0  0  0  0  0
  2  1  1  6
  2  5  1  0
  3  2  1  0
  3  4  1  0
  5  6  2  0
  7  8  1  0
  8  9  2  0
 10  8  1  0
 11 10  1  1
 11 13  1  0
 12 11  1  0
 12  5  1  0
 13 14  2  0
 15 16  1  0
 16 26  2  0
 17 18  2  0
 17 16  1  0
 18 19  1  0
 19 20  1  0
 19 25  2  0
 21 20  1  6
 21 23  1  0
 22 13  1  0
 22 21  1  0
 23 27  2  0
 23 24  1  0
 26 25  1  0
M  END
$$$$
