CNY.pdb
     RDKit          3D

 27 27  0  0  1  0  0  0  0  0999 V2000
   31.6681  -20.4734  -20.1581 N   0  0  0  0  0  0  0  0  0  0  0  0
   30.5929  -21.1385  -19.4546 C   0  0  1  0  0  0  0  0  0  0  0  0
   29.4751  -21.3889  -20.4686 C   0  0  0  0  0  0  0  0  0  0  0  0
   28.1214  -22.2431  -19.6480 S   0  0  0  0  0  0  0  0  0  0  0  0
   31.0259  -22.4236  -18.8514 C   0  0  0  0  0  0  0  0  0  0  0  0
   31.9025  -23.0777  -19.4788 O   0  0  0  0  0  0  0  0  0  0  0  0
   32.1177  -26.2958  -15.8630 N   0  0  0  0  0  0  0  0  0  0  0  0
   32.1141  -25.1055  -15.0894 C   0  0  0  0  0  0  0  0  0  0  0  0
   32.5718  -25.1673  -13.9226 O   0  0  0  0  0  0  0  0  0  0  0  0
   31.5757  -23.8768  -15.7014 C   0  0  0  0  0  0  0  0  0  0  0  0
   30.9153  -24.1164  -17.0444 C   0  0  2  0  0  0  0  0  0  0  0  0
   30.4830  -22.8765  -17.6487 N   0  0  0  0  0  0  0  0  0  0  0  0
   29.8280  -25.1144  -16.9947 C   0  0  0  0  0  0  0  0  0  0  0  0
   28.7068  -24.8160  -16.5124 O   0  0  0  0  0  0  0  0  0  0  0  0
   24.8884  -32.1545  -18.7724 O   0  0  0  0  0  0  0  0  0  0  0  0
   25.9865  -31.3061  -18.6053 C   0  0  0  0  0  0  0  0  0  0  0  0
   26.1278  -30.2050  -19.4166 C   0  0  0  0  0  0  0  0  0  0  0  0
   27.1892  -29.3369  -19.2955 C   0  0  0  0  0  0  0  0  0  0  0  0
   28.1319  -29.6060  -18.3149 C   0  0  0  0  0  0  0  0  0  0  0  0
   29.2904  -28.6606  -18.1733 C   0  0  0  0  0  0  0  0  0  0  0  0
   28.8766  -27.3968  -17.4205 C   0  0  2  0  0  0  0  0  0  0  0  0
   29.9630  -26.4422  -17.4724 N   0  0  0  0  0  0  0  0  0  0  0  0
   28.5274  -27.7856  -16.0491 C   0  0  0  0  0  0  0  0  0  0  0  0
   27.2359  -28.0639  -15.6285 O   0  0  0  0  0  0  0  0  0  0  0  0
   27.9834  -30.7118  -17.5052 C   0  0  0  0  0  0  0  0  0  0  0  0
   26.9085  -31.5864  -17.6316 C   0  0  0  0  0  0  0  0  0  0  0  0
   29.4587  -27.8705  -15.2064 O   0  0  0  0  0  0  0  0  0  0  0  0
  2  1  1  6
  2  5  1  0
  3  2  1  0
  3  4  1  0
  5  6  2  0
  7  8  1  0
  8  9  2  0
 10  8  1  0
 11 10  1  1
 11 13  1  0
 12 11  1  0
 12  5  1  0
 13 14  2  0
 15 16  1  0
 16 26  2  0
 17 18  2  0
 17 16  1  0
 18 19  1  0
 19 20  1  0
 19 25  2  0
 21 20  1  6
 21 23  1  0
 22 13  1  0
 22 21  1  0
 23 27  2  0
 23 24  1  0
 26 25  1  0
M  END
$$$$
