CNY.pdb
     RDKit          3D

 27 27  0  0  1  0  0  0  0  0999 V2000
   21.1949  -11.1084    7.0847 N   0  0  0  0  0  0  0  0  0  0  0  0
   19.9954  -11.7550    6.5983 C   0  0  1  0  0  0  0  0  0  0  0  0
   20.1152  -11.8449    5.0758 C   0  0  0  0  0  0  0  0  0  0  0  0
   18.7431  -10.9545    4.3275 S   0  0  0  0  0  0  0  0  0  0  0  0
   19.8157  -13.1118    7.1726 C   0  0  0  0  0  0  0  0  0  0  0  0
   20.8607  -13.7936    7.3542 O   0  0  0  0  0  0  0  0  0  0  0  0
   16.6168  -16.7009   10.7062 N   0  0  0  0  0  0  0  0  0  0  0  0
   17.7510  -16.3592    9.9239 C   0  0  0  0  0  0  0  0  0  0  0  0
   18.6256  -17.2419    9.7484 O   0  0  0  0  0  0  0  0  0  0  0  0
   17.8310  -14.9955    9.3689 C   0  0  0  0  0  0  0  0  0  0  0  0
   18.3537  -14.9573    7.9467 C   0  0  2  0  0  0  0  0  0  0  0  0
   18.5482  -13.5992    7.4920 N   0  0  0  0  0  0  0  0  0  0  0  0
   17.5386  -15.7447    6.9999 C   0  0  0  0  0  0  0  0  0  0  0  0
   16.3911  -15.3562    6.6665 O   0  0  0  0  0  0  0  0  0  0  0  0
   14.3535  -20.7164    0.6516 O   0  0  0  0  0  0  0  0  0  0  0  0
   15.1726  -20.0009    1.5295 C   0  0  0  0  0  0  0  0  0  0  0  0
   16.3681  -20.5414    1.9408 C   0  0  0  0  0  0  0  0  0  0  0  0
   17.2126  -19.8806    2.8039 C   0  0  0  0  0  0  0  0  0  0  0  0
   16.8197  -18.6306    3.2577 C   0  0  0  0  0  0  0  0  0  0  0  0
   17.7382  -17.9011    4.1959 C   0  0  0  0  0  0  0  0  0  0  0  0
   17.1125  -17.7719    5.5840 C   0  0  2  0  0  0  0  0  0  0  0  0
   17.9754  -16.9595    6.4144 N   0  0  0  0  0  0  0  0  0  0  0  0
   16.9213  -19.1255    6.1177 C   0  0  0  0  0  0  0  0  0  0  0  0
   15.7146  -19.8076    6.0837 O   0  0  0  0  0  0  0  0  0  0  0  0
   15.6197  -18.0953    2.8408 C   0  0  0  0  0  0  0  0  0  0  0  0
   14.7694  -18.7674    1.9680 C   0  0  0  0  0  0  0  0  0  0  0  0
   17.9142  -19.6990    6.6370 O   0  0  0  0  0  0  0  0  0  0  0  0
  2  1  1  1
  2  5  1  0
  3  2  1  0
  3  4  1  0
  5  6  2  0
  7  8  1  0
  8  9  2  0
 10  8  1  0
 11 10  1  1
 11 13  1  0
 12 11  1  0
 12  5  1  0
 13 14  2  0
 15 16  1  0
 16 26  2  0
 17 18  2  0
 17 16  1  0
 18 19  1  0
 19 20  1  0
 19 25  2  0
 21 20  1  6
 21 23  1  0
 22 13  1  0
 22 21  1  0
 23 27  2  0
 23 24  1  0
 26 25  1  0
M  END
$$$$
