CNY.pdb
     RDKit          3D

 27 27  0  0  1  0  0  0  0  0999 V2000
   23.3566  -16.9079  -19.8100 N   0  0  0  0  0  0  0  0  0  0  0  0
   22.3183  -17.8561  -19.4690 C   0  0  1  0  0  0  0  0  0  0  0  0
   22.6832  -19.1852  -20.1329 C   0  0  0  0  0  0  0  0  0  0  0  0
   24.3760  -19.6108  -19.6984 S   0  0  0  0  0  0  0  0  0  0  0  0
   22.1868  -18.0426  -18.0024 C   0  0  0  0  0  0  0  0  0  0  0  0
   23.0272  -17.4445  -17.2771 O   0  0  0  0  0  0  0  0  0  0  0  0
   21.3382  -18.2771  -13.0986 N   0  0  0  0  0  0  0  0  0  0  0  0
   20.1791  -18.1249  -13.9039 C   0  0  0  0  0  0  0  0  0  0  0  0
   19.0624  -18.1766  -13.3338 O   0  0  0  0  0  0  0  0  0  0  0  0
   20.3580  -17.9167  -15.3526 C   0  0  0  0  0  0  0  0  0  0  0  0
   21.0716  -19.0643  -16.0390 C   0  0  2  0  0  0  0  0  0  0  0  0
   21.1792  -18.8427  -17.4632 N   0  0  0  0  0  0  0  0  0  0  0  0
   20.4916  -20.3864  -15.7286 C   0  0  0  0  0  0  0  0  0  0  0  0
   19.2472  -20.5338  -15.6360 O   0  0  0  0  0  0  0  0  0  0  0  0
   27.1451  -22.8824  -16.4847 O   0  0  0  0  0  0  0  0  0  0  0  0
   25.9761  -22.7062  -15.7390 C   0  0  0  0  0  0  0  0  0  0  0  0
   25.6697  -21.4647  -15.2338 C   0  0  0  0  0  0  0  0  0  0  0  0
   24.5323  -21.2353  -14.4932 C   0  0  0  0  0  0  0  0  0  0  0  0
   23.6858  -22.3095  -14.2643 C   0  0  0  0  0  0  0  0  0  0  0  0
   22.4402  -22.0660  -13.4612 C   0  0  0  0  0  0  0  0  0  0  0  0
   21.1891  -22.3270  -14.2990 C   0  0  2  0  0  0  0  0  0  0  0  0
   21.2704  -21.5521  -15.5185 N   0  0  0  0  0  0  0  0  0  0  0  0
   20.0211  -21.9785  -13.4817 C   0  0  0  0  0  0  0  0  0  0  0  0
   19.6188  -22.6915  -12.3628 O   0  0  0  0  0  0  0  0  0  0  0  0
   23.9997  -23.5513  -14.7742 C   0  0  0  0  0  0  0  0  0  0  0  0
   25.1508  -23.7780  -15.5224 C   0  0  0  0  0  0  0  0  0  0  0  0
   19.3460  -20.9711  -13.8195 O   0  0  0  0  0  0  0  0  0  0  0  0
  2  1  1  1
  2  5  1  0
  3  2  1  0
  3  4  1  0
  5  6  2  0
  7  8  1  0
  8  9  2  0
 10  8  1  0
 11 10  1  6
 11 13  1  0
 12 11  1  0
 12  5  1  0
 13 14  2  0
 15 16  1  0
 16 26  2  0
 17 18  2  0
 17 16  1  0
 18 19  1  0
 19 20  1  0
 19 25  2  0
 21 20  1  1
 21 23  1  0
 22 13  1  0
 22 21  1  0
 23 27  2  0
 23 24  1  0
 26 25  1  0
M  END
$$$$
