CNY.pdb
     RDKit          3D

 27 27  0  0  1  0  0  0  0  0999 V2000
   16.2214  -12.3773  -16.2112 N   0  0  0  0  0  0  0  0  0  0  0  0
   17.2105  -11.7777  -17.0802 C   0  0  1  0  0  0  0  0  0  0  0  0
   16.4966  -11.3836  -18.3746 C   0  0  0  0  0  0  0  0  0  0  0  0
   16.0428  -12.8760  -19.2702 S   0  0  0  0  0  0  0  0  0  0  0  0
   17.8459  -10.5836  -16.4692 C   0  0  0  0  0  0  0  0  0  0  0  0
   17.2056  -10.0101  -15.5467 O   0  0  0  0  0  0  0  0  0  0  0  0
   21.8743   -8.2869  -13.6478 N   0  0  0  0  0  0  0  0  0  0  0  0
   21.8639   -8.3596  -15.0655 C   0  0  0  0  0  0  0  0  0  0  0  0
   22.4947   -7.4789  -15.6990 O   0  0  0  0  0  0  0  0  0  0  0  0
   21.1165   -9.4594  -15.7026 C   0  0  0  0  0  0  0  0  0  0  0  0
   19.7654   -9.0324  -16.2407 C   0  0  2  0  0  0  0  0  0  0  0  0
   19.0909  -10.1265  -16.9020 N   0  0  0  0  0  0  0  0  0  0  0  0
   19.8261   -7.8268  -17.0912 C   0  0  0  0  0  0  0  0  0  0  0  0
   20.2771   -7.8916  -18.2622 O   0  0  0  0  0  0  0  0  0  0  0  0
   18.8170   -0.6360  -21.6789 O   0  0  0  0  0  0  0  0  0  0  0  0
   18.7069   -1.7703  -20.8697 C   0  0  0  0  0  0  0  0  0  0  0  0
   18.0584   -1.6853  -19.6602 C   0  0  0  0  0  0  0  0  0  0  0  0
   17.9213   -2.7704  -18.8245 C   0  0  0  0  0  0  0  0  0  0  0  0
   18.4648   -3.9762  -19.2410 C   0  0  0  0  0  0  0  0  0  0  0  0
   18.3149   -5.1661  -18.3367 C   0  0  0  0  0  0  0  0  0  0  0  0
   19.5638   -5.3615  -17.4780 C   0  0  2  0  0  0  0  0  0  0  0  0
   19.3937   -6.5461  -16.6644 N   0  0  0  0  0  0  0  0  0  0  0  0
   19.7532   -4.1458  -16.6783 C   0  0  0  0  0  0  0  0  0  0  0  0
   20.4721   -3.0408  -17.1079 O   0  0  0  0  0  0  0  0  0  0  0  0
   19.1135   -4.0536  -20.4549 C   0  0  0  0  0  0  0  0  0  0  0  0
   19.2494   -2.9537  -21.2963 C   0  0  0  0  0  0  0  0  0  0  0  0
   19.2303   -4.1069  -15.5338 O   0  0  0  0  0  0  0  0  0  0  0  0
  2  1  1  1
  2  5  1  0
  3  2  1  0
  3  4  1  0
  5  6  2  0
  7  8  1  0
  8  9  2  0
 10  8  1  0
 11 10  1  6
 11 13  1  0
 12 11  1  0
 12  5  1  0
 13 14  2  0
 15 16  1  0
 16 26  2  0
 17 18  2  0
 17 16  1  0
 18 19  1  0
 19 20  1  0
 19 25  2  0
 21 20  1  1
 21 23  1  0
 22 13  1  0
 22 21  1  0
 23 27  2  0
 23 24  1  0
 26 25  1  0
M  END
$$$$
