CNY.pdb
     RDKit          3D

 27 27  0  0  1  0  0  0  0  0999 V2000
   30.0869   -3.0288  -22.7212 N   0  0  0  0  0  0  0  0  0  0  0  0
   30.0241   -3.1600  -21.2817 C   0  0  1  0  0  0  0  0  0  0  0  0
   29.1842   -1.9941  -20.7569 C   0  0  0  0  0  0  0  0  0  0  0  0
   30.2384   -0.5476  -20.5779 S   0  0  0  0  0  0  0  0  0  0  0  0
   29.4199   -4.4486  -20.8604 C   0  0  0  0  0  0  0  0  0  0  0  0
   28.3808   -4.8150  -21.4736 O   0  0  0  0  0  0  0  0  0  0  0  0
   28.5338   -8.9723  -18.6948 N   0  0  0  0  0  0  0  0  0  0  0  0
   29.9203   -8.7326  -18.5063 C   0  0  0  0  0  0  0  0  0  0  0  0
   30.6137   -9.6644  -18.0314 O   0  0  0  0  0  0  0  0  0  0  0  0
   30.4570   -7.4105  -18.8782 C   0  0  0  0  0  0  0  0  0  0  0  0
   29.4027   -6.4679  -19.4235 C   0  0  2  0  0  0  0  0  0  0  0  0
   29.9821   -5.2093  -19.8350 N   0  0  0  0  0  0  0  0  0  0  0  0
   28.2576   -6.2761  -18.5111 C   0  0  0  0  0  0  0  0  0  0  0  0
   28.4199   -5.7482  -17.3824 O   0  0  0  0  0  0  0  0  0  0  0  0
   20.5632   -4.3090  -15.0380 O   0  0  0  0  0  0  0  0  0  0  0  0
   21.7087   -4.5140  -15.8124 C   0  0  0  0  0  0  0  0  0  0  0  0
   21.5898   -4.7095  -17.1681 C   0  0  0  0  0  0  0  0  0  0  0  0
   22.6839   -4.9159  -17.9774 C   0  0  0  0  0  0  0  0  0  0  0  0
   23.9348   -4.9222  -17.3791 C   0  0  0  0  0  0  0  0  0  0  0  0
   25.1341   -5.1419  -18.2563 C   0  0  0  0  0  0  0  0  0  0  0  0
   25.8271   -6.4605  -17.9155 C   0  0  2  0  0  0  0  0  0  0  0  0
   26.9310   -6.6609  -18.8296 N   0  0  0  0  0  0  0  0  0  0  0  0
   24.8236   -7.5284  -17.9945 C   0  0  0  0  0  0  0  0  0  0  0  0
   24.0198   -7.9153  -16.9331 O   0  0  0  0  0  0  0  0  0  0  0  0
   24.0460   -4.7254  -16.0192 C   0  0  0  0  0  0  0  0  0  0  0  0
   22.9367   -4.5171  -15.2053 C   0  0  0  0  0  0  0  0  0  0  0  0
   24.6867   -8.1270  -19.0934 O   0  0  0  0  0  0  0  0  0  0  0  0
  2  1  1  6
  2  5  1  0
  3  2  1  0
  3  4  1  0
  5  6  2  0
  7  8  1  0
  8  9  2  0
 10  8  1  0
 11 10  1  1
 11 13  1  0
 12 11  1  0
 12  5  1  0
 13 14  2  0
 15 16  1  0
 16 26  2  0
 17 18  2  0
 17 16  1  0
 18 19  1  0
 19 20  1  0
 19 25  2  0
 21 20  1  6
 21 23  1  0
 22 13  1  0
 22 21  1  0
 23 27  2  0
 23 24  1  0
 26 25  1  0
M  END
$$$$
