CNY.pdb
     RDKit          3D

 27 27  0  0  1  0  0  0  0  0999 V2000
   23.8161  -19.4634  -19.8387 N   0  0  0  0  0  0  0  0  0  0  0  0
   24.3556  -20.6609  -19.2318 C   0  0  1  0  0  0  0  0  0  0  0  0
   25.5858  -21.0662  -20.0457 C   0  0  0  0  0  0  0  0  0  0  0  0
   25.1043  -21.2827  -21.7652 S   0  0  0  0  0  0  0  0  0  0  0  0
   24.7351  -20.4498  -17.8125 C   0  0  0  0  0  0  0  0  0  0  0  0
   25.2927  -21.4161  -17.2249 O   0  0  0  0  0  0  0  0  0  0  0  0
   26.6936  -16.3975  -17.1419 N   0  0  0  0  0  0  0  0  0  0  0  0
   26.6052  -17.3315  -16.0764 C   0  0  0  0  0  0  0  0  0  0  0  0
   27.6702  -17.8593  -15.6741 O   0  0  0  0  0  0  0  0  0  0  0  0
   25.2745  -17.6221  -15.5116 C   0  0  0  0  0  0  0  0  0  0  0  0
   24.8086  -19.0401  -15.7753 C   0  0  2  0  0  0  0  0  0  0  0  0
   24.4825  -19.2378  -17.1695 N   0  0  0  0  0  0  0  0  0  0  0  0
   23.7126  -19.4734  -14.8855 C   0  0  0  0  0  0  0  0  0  0  0  0
   22.5139  -19.3609  -15.2449 O   0  0  0  0  0  0  0  0  0  0  0  0
   19.3127  -21.9985   -7.6538 O   0  0  0  0  0  0  0  0  0  0  0  0
   20.3162  -21.6694   -8.5695 C   0  0  0  0  0  0  0  0  0  0  0  0
   20.9951  -20.4808   -8.4399 C   0  0  0  0  0  0  0  0  0  0  0  0
   21.9916  -20.1071   -9.3129 C   0  0  0  0  0  0  0  0  0  0  0  0
   22.3000  -20.9770  -10.3478 C   0  0  0  0  0  0  0  0  0  0  0  0
   23.3897  -20.5785  -11.3017 C   0  0  0  0  0  0  0  0  0  0  0  0
   22.8310  -20.3480  -12.7052 C   0  0  2  0  0  0  0  0  0  0  0  0
   23.9237  -20.0314  -13.5996 N   0  0  0  0  0  0  0  0  0  0  0  0
   21.8363  -19.2723  -12.6211 C   0  0  0  0  0  0  0  0  0  0  0  0
   22.1570  -17.9250  -12.5552 O   0  0  0  0  0  0  0  0  0  0  0  0
   21.6151  -22.1670  -10.4711 C   0  0  0  0  0  0  0  0  0  0  0  0
   20.6085  -22.5402   -9.5858 C   0  0  0  0  0  0  0  0  0  0  0  0
   20.6198  -19.5955  -12.6082 O   0  0  0  0  0  0  0  0  0  0  0  0
  2  1  1  6
  2  5  1  0
  3  2  1  0
  3  4  1  0
  5  6  2  0
  7  8  1  0
  8  9  2  0
 10  8  1  0
 11 10  1  6
 11 13  1  0
 12 11  1  0
 12  5  1  0
 13 14  2  0
 15 16  1  0
 16 26  2  0
 17 18  2  0
 17 16  1  0
 18 19  1  0
 19 20  1  0
 19 25  2  0
 21 20  1  1
 21 23  1  0
 22 13  1  0
 22 21  1  0
 23 27  2  0
 23 24  1  0
 26 25  1  0
M  END
$$$$
