CNY.pdb
     RDKit          3D

 27 27  0  0  1  0  0  0  0  0999 V2000
   14.5933  -11.6905  -10.0713 N   0  0  0  0  0  0  0  0  0  0  0  0
   13.5662  -10.7022  -10.3197 C   0  0  1  0  0  0  0  0  0  0  0  0
   12.5687  -10.7853   -9.1627 C   0  0  0  0  0  0  0  0  0  0  0  0
   11.2826   -9.5522   -9.4095 S   0  0  0  0  0  0  0  0  0  0  0  0
   14.1191   -9.3280  -10.4131 C   0  0  0  0  0  0  0  0  0  0  0  0
   13.3448   -8.4336  -10.8495 O   0  0  0  0  0  0  0  0  0  0  0  0
   15.8295   -4.4447   -9.4401 N   0  0  0  0  0  0  0  0  0  0  0  0
   16.5331   -5.6011   -9.0127 C   0  0  0  0  0  0  0  0  0  0  0  0
   17.7410   -5.4663   -8.7002 O   0  0  0  0  0  0  0  0  0  0  0  0
   15.8051   -6.8824   -8.9626 C   0  0  0  0  0  0  0  0  0  0  0  0
   16.0046   -7.7334  -10.2009 C   0  0  2  0  0  0  0  0  0  0  0  0
   15.4327   -9.0503  -10.0341 N   0  0  0  0  0  0  0  0  0  0  0  0
   17.4096   -7.7950  -10.6513 C   0  0  0  0  0  0  0  0  0  0  0  0
   18.2566   -8.4707  -10.0151 O   0  0  0  0  0  0  0  0  0  0  0  0
   24.1335  -10.1127  -15.3102 O   0  0  0  0  0  0  0  0  0  0  0  0
   22.8870   -9.7831  -14.7704 C   0  0  0  0  0  0  0  0  0  0  0  0
   22.6950   -9.8434  -13.4102 C   0  0  0  0  0  0  0  0  0  0  0  0
   21.4888   -9.5299  -12.8259 C   0  0  0  0  0  0  0  0  0  0  0  0
   20.4507   -9.1439  -13.6602 C   0  0  0  0  0  0  0  0  0  0  0  0
   19.1327   -8.7955  -13.0297 C   0  0  0  0  0  0  0  0  0  0  0  0
   19.1841   -7.4117  -12.3834 C   0  0  2  0  0  0  0  0  0  0  0  0
   17.8932   -7.1180  -11.7990 N   0  0  0  0  0  0  0  0  0  0  0  0
   19.5712   -6.4469  -13.4191 C   0  0  0  0  0  0  0  0  0  0  0  0
   20.8728   -6.0182  -13.6300 O   0  0  0  0  0  0  0  0  0  0  0  0
   20.6508   -9.0858  -15.0229 C   0  0  0  0  0  0  0  0  0  0  0  0
   21.8723   -9.4037  -15.6088 C   0  0  0  0  0  0  0  0  0  0  0  0
   18.6648   -5.9824  -14.1589 O   0  0  0  0  0  0  0  0  0  0  0  0
  2  1  1  1
  2  5  1  0
  3  2  1  0
  3  4  1  0
  5  6  2  0
  7  8  1  0
  8  9  2  0
 10  8  1  0
 11 10  1  1
 11 13  1  0
 12 11  1  0
 12  5  1  0
 13 14  2  0
 15 16  1  0
 16 26  2  0
 17 18  2  0
 17 16  1  0
 18 19  1  0
 19 20  1  0
 19 25  2  0
 21 20  1  6
 21 23  1  0
 22 13  1  0
 22 21  1  0
 23 27  2  0
 23 24  1  0
 26 25  1  0
M  END
$$$$
