CNY.pdb
     RDKit          3D

 27 27  0  0  1  0  0  0  0  0999 V2000
   12.7465   -7.8147   -9.4219 N   0  0  0  0  0  0  0  0  0  0  0  0
   14.1617   -8.0639   -9.2534 C   0  0  1  0  0  0  0  0  0  0  0  0
   14.4703   -9.3994   -9.9328 C   0  0  0  0  0  0  0  0  0  0  0  0
   13.8182  -10.7354   -8.9201 S   0  0  0  0  0  0  0  0  0  0  0  0
   14.9964   -6.9897   -9.8470 C   0  0  0  0  0  0  0  0  0  0  0  0
   14.6779   -6.5970  -11.0021 O   0  0  0  0  0  0  0  0  0  0  0  0
   16.1343   -2.0078   -9.2006 N   0  0  0  0  0  0  0  0  0  0  0  0
   15.9495   -3.3429   -8.7549 C   0  0  0  0  0  0  0  0  0  0  0  0
   14.8066   -3.6705   -8.3534 O   0  0  0  0  0  0  0  0  0  0  0  0
   17.1057   -4.2572   -8.7909 C   0  0  0  0  0  0  0  0  0  0  0  0
   16.9160   -5.4257   -9.7373 C   0  0  2  0  0  0  0  0  0  0  0  0
   16.0782   -6.4481   -9.1523 N   0  0  0  0  0  0  0  0  0  0  0  0
   18.1857   -5.9792  -10.2493 C   0  0  0  0  0  0  0  0  0  0  0  0
   18.8855   -6.7412   -9.5362 O   0  0  0  0  0  0  0  0  0  0  0  0
   24.4279   -9.7882  -14.8145 O   0  0  0  0  0  0  0  0  0  0  0  0
   23.2422   -9.1953  -14.3714 C   0  0  0  0  0  0  0  0  0  0  0  0
   22.7209   -9.5439  -13.1478 C   0  0  0  0  0  0  0  0  0  0  0  0
   21.5569   -8.9916  -12.6630 C   0  0  0  0  0  0  0  0  0  0  0  0
   20.9098   -8.0558  -13.4556 C   0  0  0  0  0  0  0  0  0  0  0  0
   19.6418   -7.4449  -12.9312 C   0  0  0  0  0  0  0  0  0  0  0  0
   19.9432   -6.2571  -12.0184 C   0  0  2  0  0  0  0  0  0  0  0  0
   18.6946   -5.7014  -11.5429 N   0  0  0  0  0  0  0  0  0  0  0  0
   20.7385   -5.2918  -12.7861 C   0  0  0  0  0  0  0  0  0  0  0  0
   22.1231   -5.2282  -12.7515 O   0  0  0  0  0  0  0  0  0  0  0  0
   21.4387   -7.7113  -14.6812 C   0  0  0  0  0  0  0  0  0  0  0  0
   22.6157   -8.2726  -15.1668 C   0  0  0  0  0  0  0  0  0  0  0  0
   20.1236   -4.4737  -13.5191 O   0  0  0  0  0  0  0  0  0  0  0  0
  2  1  1  6
  2  5  1  0
  3  2  1  0
  3  4  1  0
  5  6  2  0
  7  8  1  0
  8  9  2  0
 10  8  1  0
 11 10  1  1
 11 13  1  0
 12 11  1  0
 12  5  1  0
 13 14  2  0
 15 16  1  0
 16 26  2  0
 17 18  2  0
 17 16  1  0
 18 19  1  0
 19 20  1  0
 19 25  2  0
 21 20  1  6
 21 23  1  0
 22 13  1  0
 22 21  1  0
 23 27  2  0
 23 24  1  0
 26 25  1  0
M  END
$$$$
