CNY.pdb
     RDKit          3D

 27 27  0  0  1  0  0  0  0  0999 V2000
   26.4795  -10.9232  -18.2925 N   0  0  0  0  0  0  0  0  0  0  0  0
   25.7974  -10.4942  -17.0907 C   0  0  1  0  0  0  0  0  0  0  0  0
   26.8501  -10.3896  -15.9856 C   0  0  0  0  0  0  0  0  0  0  0  0
   27.4956  -12.0316  -15.6352 S   0  0  0  0  0  0  0  0  0  0  0  0
   25.1170   -9.1870  -17.2666 C   0  0  0  0  0  0  0  0  0  0  0  0
   25.7773   -8.1580  -16.9583 O   0  0  0  0  0  0  0  0  0  0  0  0
   23.2171   -8.5426  -21.6070 N   0  0  0  0  0  0  0  0  0  0  0  0
   23.4663   -7.7421  -20.4614 C   0  0  0  0  0  0  0  0  0  0  0  0
   24.4983   -7.0282  -20.4624 O   0  0  0  0  0  0  0  0  0  0  0  0
   22.5023   -7.7986  -19.3472 C   0  0  0  0  0  0  0  0  0  0  0  0
   23.1640   -7.8403  -17.9842 C   0  0  2  0  0  0  0  0  0  0  0  0
   23.8105   -9.1116  -17.7500 N   0  0  0  0  0  0  0  0  0  0  0  0
   22.2568   -7.4708  -16.8792 C   0  0  0  0  0  0  0  0  0  0  0  0
   21.4451   -8.3076  -16.4104 O   0  0  0  0  0  0  0  0  0  0  0  0
   18.2459   -6.2461   -9.6042 O   0  0  0  0  0  0  0  0  0  0  0  0
   19.1038   -6.3662  -10.7012 C   0  0  0  0  0  0  0  0  0  0  0  0
   20.0946   -7.3194  -10.6914 C   0  0  0  0  0  0  0  0  0  0  0  0
   20.9664   -7.4809  -11.7443 C   0  0  0  0  0  0  0  0  0  0  0  0
   20.8177   -6.6411  -12.8375 C   0  0  0  0  0  0  0  0  0  0  0  0
   21.7621   -6.8145  -13.9925 C   0  0  0  0  0  0  0  0  0  0  0  0
   21.3984   -5.8761  -15.1425 C   0  0  2  0  0  0  0  0  0  0  0  0
   22.2339   -6.1849  -16.2829 N   0  0  0  0  0  0  0  0  0  0  0  0
   21.5711   -4.4979  -14.6687 C   0  0  0  0  0  0  0  0  0  0  0  0
   22.7013   -3.7321  -14.9109 O   0  0  0  0  0  0  0  0  0  0  0  0
   19.8218   -5.6878  -12.8401 C   0  0  0  0  0  0  0  0  0  0  0  0
   18.9429   -5.5285  -11.7731 C   0  0  0  0  0  0  0  0  0  0  0  0
   20.6352   -3.9830  -14.0028 O   0  0  0  0  0  0  0  0  0  0  0  0
  2  1  1  6
  2  5  1  0
  3  2  1  0
  3  4  1  0
  5  6  2  0
  7  8  1  0
  8  9  2  0
 10  8  1  0
 11 10  1  6
 11 13  1  0
 12 11  1  0
 12  5  1  0
 13 14  2  0
 15 16  1  0
 16 26  2  0
 17 18  2  0
 17 16  1  0
 18 19  1  0
 19 20  1  0
 19 25  2  0
 21 20  1  1
 21 23  1  0
 22 13  1  0
 22 21  1  0
 23 27  2  0
 23 24  1  0
 26 25  1  0
M  END
$$$$
