QMK.pdb
     RDKit          3D

 27 26  0  0  1  0  0  0  0  0999 V2000
    8.5103  -12.2201   17.9710 N   0  0  0  0  0  0  0  0  0  0  0  0
    8.0340  -13.4428   17.3575 C   0  0  0  0  0  0  0  0  0  0  0  0
    7.7960  -13.3719   16.1371 O   0  0  0  0  0  0  0  0  0  0  0  0
    7.8927  -14.6074   18.2327 C   0  0  0  0  0  0  0  0  0  0  0  0
    8.2569  -14.3508   19.6521 C   0  0  0  0  0  0  0  0  0  0  0  0
    8.0855  -15.5430   20.5491 C   0  0  2  0  0  0  0  0  0  0  0  0
    6.7619  -16.0252   20.7015 N   0  0  0  0  0  0  0  0  0  0  0  0
    8.6085  -15.1772   21.9108 C   0  0  0  0  0  0  0  0  0  0  0  0
    9.8245  -14.8721   22.0646 O   0  0  0  0  0  0  0  0  0  0  0  0
    6.9472  -11.3007   27.2181 C   0  0  0  0  0  0  0  0  0  0  0  0
    5.9911  -11.8759   25.7819 S   0  0  0  0  0  0  0  0  0  0  0  0
    7.0742  -12.7851   24.6378 C   0  0  0  0  0  0  0  0  0  0  0  0
    7.1614  -14.2083   25.0821 C   0  0  0  0  0  0  0  0  0  0  0  0
    8.2965  -14.9664   24.4213 C   0  0  2  0  0  0  0  0  0  0  0  0
    7.7943  -15.1579   23.0427 N   0  0  0  0  0  0  0  0  0  0  0  0
    8.5531  -16.2410   25.0576 C   0  0  0  0  0  0  0  0  0  0  0  0
    7.7877  -17.2136   24.8285 O   0  0  0  0  0  0  0  0  0  0  0  0
    9.6290  -16.4650   25.9276 N   0  0  0  0  0  0  0  0  0  0  0  0
   10.1314  -17.8252   26.1994 C   0  0  1  0  0  0  0  0  0  0  0  0
   11.0472  -18.2527   25.0776 C   0  0  0  0  0  0  0  0  0  0  0  0
   11.6657  -19.6024   25.3237 C   0  0  0  0  0  0  0  0  0  0  0  0
   12.5861  -19.9770   24.1534 C   0  0  0  0  0  0  0  0  0  0  0  0
   13.1568  -21.3371   24.4648 C   0  0  0  0  0  0  0  0  0  0  0  0
   14.0739  -21.7587   23.4153 N   0  0  0  0  0  0  0  0  0  0  0  0
   10.7828  -17.8888   27.5071 C   0  0  0  0  0  0  0  0  0  0  0  0
   11.2823  -18.9731   27.8988 O   0  0  0  0  0  0  0  0  0  0  0  0
   10.8873  -16.8077   28.3550 O   0  0  0  0  0  0  0  0  0  0  0  0
  2  1  1  0
  2  3  2  0
  4  5  1  0
  4  2  1  0
  5  6  1  0
  6  7  1  1
  8  6  1  0
  8  9  2  0
 11 12  1  0
 11 10  1  0
 14 13  1  1
 13 12  1  0
 15 14  1  0
 15  8  1  0
 16 14  1  0
 17 16  2  0
 18 16  1  0
 19 25  1  0
 19 18  1  0
 19 20  1  6
 21 20  1  0
 22 21  1  0
 23 22  1  0
 23 24  1  0
 25 27  1  0
 26 25  2  0
M  END
$$$$
