QMK.pdb
     RDKit          3D

 27 26  0  0  1  0  0  0  0  0999 V2000
   11.1033  -17.7051   17.8756 N   0  0  0  0  0  0  0  0  0  0  0  0
    9.7724  -17.4170   17.3817 C   0  0  0  0  0  0  0  0  0  0  0  0
    9.5737  -17.6965   16.1843 O   0  0  0  0  0  0  0  0  0  0  0  0
    8.8256  -16.8405   18.3373 C   0  0  0  0  0  0  0  0  0  0  0  0
    9.4066  -16.5610   19.6780 C   0  0  0  0  0  0  0  0  0  0  0  0
    8.4832  -16.8776   20.8191 C   0  0  2  0  0  0  0  0  0  0  0  0
    7.1153  -16.5655   20.6212 N   0  0  0  0  0  0  0  0  0  0  0  0
    8.9641  -16.1222   22.0273 C   0  0  0  0  0  0  0  0  0  0  0  0
   10.1910  -16.1158   22.3272 O   0  0  0  0  0  0  0  0  0  0  0  0
    6.2103  -10.9995   27.4022 C   0  0  0  0  0  0  0  0  0  0  0  0
    6.0457  -11.9629   25.8685 S   0  0  0  0  0  0  0  0  0  0  0  0
    7.4870  -13.0532   25.6616 C   0  0  0  0  0  0  0  0  0  0  0  0
    7.3454  -13.8042   24.3784 C   0  0  0  0  0  0  0  0  0  0  0  0
    8.5149  -14.7290   24.1014 C   0  0  2  0  0  0  0  0  0  0  0  0
    8.0977  -15.4091   22.8553 N   0  0  0  0  0  0  0  0  0  0  0  0
    8.7250  -15.6873   25.1657 C   0  0  0  0  0  0  0  0  0  0  0  0
    7.8708  -16.5902   25.3644 O   0  0  0  0  0  0  0  0  0  0  0  0
    9.8490  -15.6749   26.0030 N   0  0  0  0  0  0  0  0  0  0  0  0
   10.0948  -16.7516   26.9810 C   0  0  1  0  0  0  0  0  0  0  0  0
   11.3355  -17.5143   26.5827 C   0  0  0  0  0  0  0  0  0  0  0  0
   11.6684  -18.6162   27.5521 C   0  0  0  0  0  0  0  0  0  0  0  0
   12.9971  -19.2764   27.1570 C   0  0  0  0  0  0  0  0  0  0  0  0
   13.2092  -20.4309   28.1030 C   0  0  0  0  0  0  0  0  0  0  0  0
   14.4999  -21.0598   27.8600 N   0  0  0  0  0  0  0  0  0  0  0  0
   10.1816  -16.2135   28.3380 C   0  0  0  0  0  0  0  0  0  0  0  0
   10.3187  -14.9759   28.5065 O   0  0  0  0  0  0  0  0  0  0  0  0
   10.1184  -16.9973   29.4695 O   0  0  0  0  0  0  0  0  0  0  0  0
  2  1  1  0
  2  3  2  0
  4  5  1  0
  4  2  1  0
  5  6  1  0
  6  7  1  6
  8  6  1  0
  8  9  2  0
 11 12  1  0
 11 10  1  0
 14 13  1  1
 13 12  1  0
 15 14  1  0
 15  8  1  0
 16 14  1  0
 17 16  2  0
 18 16  1  0
 19 25  1  0
 19 18  1  0
 19 20  1  6
 21 20  1  0
 22 21  1  0
 23 22  1  0
 23 24  1  0
 25 27  1  0
 26 25  2  0
M  END
$$$$
