QMK.pdb
     RDKit          3D

 27 26  0  0  1  0  0  0  0  0999 V2000
   10.0724  -14.4275   17.7270 N   0  0  0  0  0  0  0  0  0  0  0  0
    8.6321  -14.3333   17.6045 C   0  0  0  0  0  0  0  0  0  0  0  0
    8.1754  -14.5632   16.4688 O   0  0  0  0  0  0  0  0  0  0  0  0
    7.8892  -13.9864   18.8168 C   0  0  0  0  0  0  0  0  0  0  0  0
    8.6988  -14.0386   20.0638 C   0  0  0  0  0  0  0  0  0  0  0  0
    8.5173  -15.3023   20.8544 C   0  0  2  0  0  0  0  0  0  0  0  0
    7.2257  -15.8836   20.8157 N   0  0  0  0  0  0  0  0  0  0  0  0
    8.8513  -15.0027   22.2898 C   0  0  0  0  0  0  0  0  0  0  0  0
    9.9759  -14.5141   22.5929 O   0  0  0  0  0  0  0  0  0  0  0  0
    6.7120  -10.5531   26.6126 C   0  0  0  0  0  0  0  0  0  0  0  0
    6.9759  -12.3423   26.8042 S   0  0  0  0  0  0  0  0  0  0  0  0
    6.8083  -13.1712   25.1939 C   0  0  0  0  0  0  0  0  0  0  0  0
    7.0127  -14.6388   25.3815 C   0  0  0  0  0  0  0  0  0  0  0  0
    8.3042  -15.1403   24.7649 C   0  0  2  0  0  0  0  0  0  0  0  0
    7.9555  -15.2447   23.3308 N   0  0  0  0  0  0  0  0  0  0  0  0
    8.7045  -16.4274   25.2926 C   0  0  0  0  0  0  0  0  0  0  0  0
    7.9086  -17.4001   25.2242 O   0  0  0  0  0  0  0  0  0  0  0  0
    9.9538  -16.6635   25.8825 N   0  0  0  0  0  0  0  0  0  0  0  0
   10.3472  -18.0081   26.3449 C   0  0  1  0  0  0  0  0  0  0  0  0
   11.6175  -18.4255   25.6436 C   0  0  0  0  0  0  0  0  0  0  0  0
   12.0831  -19.7933   26.0644 C   0  0  0  0  0  0  0  0  0  0  0  0
   13.4179  -20.1242   25.3816 C   0  0  0  0  0  0  0  0  0  0  0  0
   13.8252  -21.4946   25.8602 C   0  0  0  0  0  0  0  0  0  0  0  0
   15.1326  -21.8534   25.3291 N   0  0  0  0  0  0  0  0  0  0  0  0
   10.4764  -18.0415   27.8012 C   0  0  0  0  0  0  0  0  0  0  0  0
   10.6720  -16.9719   28.4309 O   0  0  0  0  0  0  0  0  0  0  0  0
   10.3925  -19.1995   28.5431 O   0  0  0  0  0  0  0  0  0  0  0  0
  2  1  1  0
  2  3  2  0
  4  5  1  0
  4  2  1  0
  5  6  1  0
  6  7  1  1
  8  6  1  0
  8  9  2  0
 11 12  1  0
 11 10  1  0
 14 13  1  1
 13 12  1  0
 15 14  1  0
 15  8  1  0
 16 14  1  0
 17 16  2  0
 18 16  1  0
 19 25  1  0
 19 18  1  0
 19 20  1  6
 21 20  1  0
 22 21  1  0
 23 22  1  0
 23 24  1  0
 25 27  1  0
 26 25  2  0
M  END
$$$$
