QMK.pdb
     RDKit          3D

 27 26  0  0  1  0  0  0  0  0999 V2000
    8.4877  -12.4106   19.1831 N   0  0  0  0  0  0  0  0  0  0  0  0
    8.1587  -13.5565   18.3603 C   0  0  0  0  0  0  0  0  0  0  0  0
    8.3520  -13.4113   17.1385 O   0  0  0  0  0  0  0  0  0  0  0  0
    7.6464  -14.7396   19.0530 C   0  0  0  0  0  0  0  0  0  0  0  0
    8.7040  -15.6566   19.5569 C   0  0  0  0  0  0  0  0  0  0  0  0
    8.3017  -16.4385   20.7742 C   0  0  2  0  0  0  0  0  0  0  0  0
    6.9094  -16.5588   21.0077 N   0  0  0  0  0  0  0  0  0  0  0  0
    8.9207  -15.7775   21.9748 C   0  0  0  0  0  0  0  0  0  0  0  0
   10.1702  -15.6014   22.0308 O   0  0  0  0  0  0  0  0  0  0  0  0
    5.2701  -12.2708   26.7481 C   0  0  0  0  0  0  0  0  0  0  0  0
    6.8689  -11.6245   26.1703 S   0  0  0  0  0  0  0  0  0  0  0  0
    8.0452  -12.9924   25.9386 C   0  0  0  0  0  0  0  0  0  0  0  0
    7.6989  -13.7206   24.6815 C   0  0  0  0  0  0  0  0  0  0  0  0
    8.7374  -14.7545   24.2909 C   0  0  2  0  0  0  0  0  0  0  0  0
    8.1618  -15.3374   23.0588 N   0  0  0  0  0  0  0  0  0  0  0  0
    8.9147  -15.7700   25.3070 C   0  0  0  0  0  0  0  0  0  0  0  0
    7.9990  -16.6090   25.5114 O   0  0  0  0  0  0  0  0  0  0  0  0
   10.0717  -15.8825   26.0902 N   0  0  0  0  0  0  0  0  0  0  0  0
   10.2597  -17.0017   27.0328 C   0  0  1  0  0  0  0  0  0  0  0  0
   11.2252  -17.9986   26.4381 C   0  0  0  0  0  0  0  0  0  0  0  0
   11.4862  -19.1630   27.3551 C   0  0  0  0  0  0  0  0  0  0  0  0
   12.5537  -20.0813   26.7432 C   0  0  0  0  0  0  0  0  0  0  0  0
   12.7556  -21.2205   27.7098 C   0  0  0  0  0  0  0  0  0  0  0  0
   13.8142  -22.1047   27.2431 N   0  0  0  0  0  0  0  0  0  0  0  0
   10.6955  -16.5142   28.3408 C   0  0  0  0  0  0  0  0  0  0  0  0
   10.9104  -17.3345   29.2680 O   0  0  0  0  0  0  0  0  0  0  0  0
   10.8920  -15.1804   28.6255 O   0  0  0  0  0  0  0  0  0  0  0  0
  2  1  1  0
  2  3  2  0
  4  5  1  0
  4  2  1  0
  5  6  1  0
  6  7  1  1
  8  6  1  0
  8  9  2  0
 11 12  1  0
 11 10  1  0
 14 13  1  1
 13 12  1  0
 15 14  1  0
 15  8  1  0
 16 14  1  0
 17 16  2  0
 18 16  1  0
 19 25  1  0
 19 18  1  0
 19 20  1  6
 21 20  1  0
 22 21  1  0
 23 22  1  0
 23 24  1  0
 25 27  1  0
 26 25  2  0
M  END
$$$$
