QMK.pdb
     RDKit          3D

 27 26  0  0  1  0  0  0  0  0999 V2000
    9.2402  -12.3614   18.1673 N   0  0  0  0  0  0  0  0  0  0  0  0
    8.4778  -13.4300   17.5548 C   0  0  0  0  0  0  0  0  0  0  0  0
    8.0376  -13.1883   16.4151 O   0  0  0  0  0  0  0  0  0  0  0  0
    8.3181  -14.6571   18.3364 C   0  0  0  0  0  0  0  0  0  0  0  0
    8.9428  -14.6060   19.6857 C   0  0  0  0  0  0  0  0  0  0  0  0
    8.5713  -15.7599   20.5720 C   0  0  2  0  0  0  0  0  0  0  0  0
    7.2119  -16.1583   20.5424 N   0  0  0  0  0  0  0  0  0  0  0  0
    8.9175  -15.3871   21.9872 C   0  0  0  0  0  0  0  0  0  0  0  0
   10.0893  -15.0173   22.2794 O   0  0  0  0  0  0  0  0  0  0  0  0
    7.4127  -11.6210   27.1876 C   0  0  0  0  0  0  0  0  0  0  0  0
    6.3001  -11.9601   25.7894 S   0  0  0  0  0  0  0  0  0  0  0  0
    7.1665  -12.9470   24.5309 C   0  0  0  0  0  0  0  0  0  0  0  0
    7.1052  -14.3878   24.9192 C   0  0  0  0  0  0  0  0  0  0  0  0
    8.3066  -15.1811   24.4426 C   0  0  2  0  0  0  0  0  0  0  0  0
    7.9823  -15.4310   23.0208 N   0  0  0  0  0  0  0  0  0  0  0  0
    8.4655  -16.4275   25.1613 C   0  0  0  0  0  0  0  0  0  0  0  0
    7.7472  -17.4150   24.8561 O   0  0  0  0  0  0  0  0  0  0  0  0
    9.3949  -16.6079   26.1949 N   0  0  0  0  0  0  0  0  0  0  0  0
   10.0205  -17.9193   26.4501 C   0  0  1  0  0  0  0  0  0  0  0  0
   10.8725  -18.3053   25.2649 C   0  0  0  0  0  0  0  0  0  0  0  0
   11.5977  -19.6066   25.4781 C   0  0  0  0  0  0  0  0  0  0  0  0
   12.4114  -19.9630   24.2259 C   0  0  0  0  0  0  0  0  0  0  0  0
   13.0493  -21.3038   24.4867 C   0  0  0  0  0  0  0  0  0  0  0  0
   13.6565  -21.8258   23.2705 N   0  0  0  0  0  0  0  0  0  0  0  0
   10.7785  -17.9009   27.7005 C   0  0  0  0  0  0  0  0  0  0  0  0
   11.0459  -18.9837   28.2793 O   0  0  0  0  0  0  0  0  0  0  0  0
   11.2303  -16.7434   28.2959 O   0  0  0  0  0  0  0  0  0  0  0  0
  2  1  1  0
  2  3  2  0
  4  5  1  0
  4  2  1  0
  5  6  1  0
  6  7  1  1
  8  6  1  0
  8  9  2  0
 11 12  1  0
 11 10  1  0
 14 13  1  1
 13 12  1  0
 15 14  1  0
 15  8  1  0
 16 14  1  0
 17 16  2  0
 18 16  1  0
 19 25  1  0
 19 18  1  0
 19 20  1  6
 21 20  1  0
 22 21  1  0
 23 22  1  0
 23 24  1  0
 25 27  1  0
 26 25  2  0
M  END
$$$$
