QMK.pdb
     RDKit          3D

 27 26  0  0  1  0  0  0  0  0999 V2000
    8.2310  -12.0686   17.5978 N   0  0  0  0  0  0  0  0  0  0  0  0
    8.0355  -13.5031   17.6442 C   0  0  0  0  0  0  0  0  0  0  0  0
    8.3618  -14.1214   16.6135 O   0  0  0  0  0  0  0  0  0  0  0  0
    7.4865  -14.0534   18.8844 C   0  0  0  0  0  0  0  0  0  0  0  0
    8.4862  -14.2162   19.9740 C   0  0  0  0  0  0  0  0  0  0  0  0
    8.3400  -15.4951   20.7475 C   0  0  2  0  0  0  0  0  0  0  0  0
    7.0481  -16.0767   20.7548 N   0  0  0  0  0  0  0  0  0  0  0  0
    8.7372  -15.2226   22.1722 C   0  0  0  0  0  0  0  0  0  0  0  0
    9.9177  -14.8674   22.4469 O   0  0  0  0  0  0  0  0  0  0  0  0
    6.6392  -12.0633   27.6106 C   0  0  0  0  0  0  0  0  0  0  0  0
    7.4838  -12.0616   25.9999 S   0  0  0  0  0  0  0  0  0  0  0  0
    6.6227  -13.1724   24.8453 C   0  0  0  0  0  0  0  0  0  0  0  0
    6.9030  -14.5868   25.2346 C   0  0  0  0  0  0  0  0  0  0  0  0
    8.1987  -15.1159   24.6507 C   0  0  2  0  0  0  0  0  0  0  0  0
    7.8412  -15.3464   23.2336 N   0  0  0  0  0  0  0  0  0  0  0  0
    8.6260  -16.3470   25.2809 C   0  0  0  0  0  0  0  0  0  0  0  0
    7.8710  -17.3537   25.2501 O   0  0  0  0  0  0  0  0  0  0  0  0
    9.8586  -16.4917   25.9323 N   0  0  0  0  0  0  0  0  0  0  0  0
   10.2661  -17.7742   26.5370 C   0  0  1  0  0  0  0  0  0  0  0  0
   11.4403  -18.3361   25.7721 C   0  0  0  0  0  0  0  0  0  0  0  0
   11.9776  -19.5986   26.3904 C   0  0  0  0  0  0  0  0  0  0  0  0
   13.2093  -20.0798   25.6103 C   0  0  0  0  0  0  0  0  0  0  0  0
   13.7069  -21.3227   26.3034 C   0  0  0  0  0  0  0  0  0  0  0  0
   14.9776  -21.7503   25.7353 N   0  0  0  0  0  0  0  0  0  0  0  0
   10.5540  -17.6108   27.9614 C   0  0  0  0  0  0  0  0  0  0  0  0
   10.8150  -18.6214   28.6609 O   0  0  0  0  0  0  0  0  0  0  0  0
   10.5593  -16.3889   28.5982 O   0  0  0  0  0  0  0  0  0  0  0  0
  2  1  1  0
  2  3  2  0
  4  5  1  0
  4  2  1  0
  5  6  1  0
  6  7  1  1
  8  6  1  0
  8  9  2  0
 11 12  1  0
 11 10  1  0
 14 13  1  1
 13 12  1  0
 15 14  1  0
 15  8  1  0
 16 14  1  0
 17 16  2  0
 18 16  1  0
 19 25  1  0
 19 18  1  0
 19 20  1  6
 21 20  1  0
 22 21  1  0
 23 22  1  0
 23 24  1  0
 25 27  1  0
 26 25  2  0
M  END
$$$$
