QMK.pdb
     RDKit          3D

 27 26  0  0  1  0  0  0  0  0999 V2000
    9.2866  -13.0586   17.1547 N   0  0  0  0  0  0  0  0  0  0  0  0
    7.9726  -13.6600   17.0555 C   0  0  0  0  0  0  0  0  0  0  0  0
    7.4883  -13.7021   15.9088 O   0  0  0  0  0  0  0  0  0  0  0  0
    7.3749  -14.1460   18.3000 C   0  0  0  0  0  0  0  0  0  0  0  0
    8.2684  -14.0455   19.4852 C   0  0  0  0  0  0  0  0  0  0  0  0
    8.3351  -15.3020   20.3049 C   0  0  2  0  0  0  0  0  0  0  0  0
    7.1494  -16.0755   20.3606 N   0  0  0  0  0  0  0  0  0  0  0  0
    8.7088  -14.9188   21.7103 C   0  0  0  0  0  0  0  0  0  0  0  0
    9.7941  -14.3143   21.9380 O   0  0  0  0  0  0  0  0  0  0  0  0
    7.4171  -11.1524   27.3975 C   0  0  0  0  0  0  0  0  0  0  0  0
    6.3820  -12.4099   26.5882 S   0  0  0  0  0  0  0  0  0  0  0  0
    7.0715  -12.8270   24.9575 C   0  0  0  0  0  0  0  0  0  0  0  0
    6.9768  -14.3038   24.7555 C   0  0  0  0  0  0  0  0  0  0  0  0
    8.2547  -14.9097   24.2080 C   0  0  2  0  0  0  0  0  0  0  0  0
    7.8930  -15.2063   22.8042 N   0  0  0  0  0  0  0  0  0  0  0  0
    8.6367  -16.1178   24.9077 C   0  0  0  0  0  0  0  0  0  0  0  0
    7.8711  -17.1166   24.8836 O   0  0  0  0  0  0  0  0  0  0  0  0
    9.8362  -16.2485   25.6210 N   0  0  0  0  0  0  0  0  0  0  0  0
   10.1942  -17.5055   26.3052 C   0  0  1  0  0  0  0  0  0  0  0  0
   11.5308  -17.9885   25.7951 C   0  0  0  0  0  0  0  0  0  0  0  0
   11.4273  -18.6452   24.4450 C   0  0  0  0  0  0  0  0  0  0  0  0
   12.8276  -19.0115   23.9330 C   0  0  0  0  0  0  0  0  0  0  0  0
   12.6568  -19.5300   22.5278 C   0  0  0  0  0  0  0  0  0  0  0  0
   13.9525  -19.7032   21.8863 N   0  0  0  0  0  0  0  0  0  0  0  0
   10.1804  -17.3312   27.7570 C   0  0  0  0  0  0  0  0  0  0  0  0
   10.0433  -16.1801   28.2418 O   0  0  0  0  0  0  0  0  0  0  0  0
   10.3089  -18.3752   28.6470 O   0  0  0  0  0  0  0  0  0  0  0  0
  2  1  1  0
  2  3  2  0
  4  5  1  0
  4  2  1  0
  5  6  1  0
  6  7  1  1
  8  6  1  0
  8  9  2  0
 11 12  1  0
 11 10  1  0
 14 13  1  1
 13 12  1  0
 15 14  1  0
 15  8  1  0
 16 14  1  0
 17 16  2  0
 18 16  1  0
 19 25  1  0
 19 18  1  0
 19 20  1  6
 21 20  1  0
 22 21  1  0
 23 22  1  0
 23 24  1  0
 25 27  1  0
 26 25  2  0
M  END
$$$$
