QMK.pdb
     RDKit          3D

 27 26  0  0  1  0  0  0  0  0999 V2000
    8.6912  -12.4084   17.9628 N   0  0  0  0  0  0  0  0  0  0  0  0
    7.7084  -13.3316   18.4920 C   0  0  0  0  0  0  0  0  0  0  0  0
    6.5718  -12.8564   18.6752 O   0  0  0  0  0  0  0  0  0  0  0  0
    8.1594  -14.7010   18.7439 C   0  0  0  0  0  0  0  0  0  0  0  0
    9.1970  -14.8157   19.8038 C   0  0  0  0  0  0  0  0  0  0  0  0
    8.9987  -15.9850   20.7250 C   0  0  2  0  0  0  0  0  0  0  0  0
    7.6892  -16.5236   20.7784 N   0  0  0  0  0  0  0  0  0  0  0  0
    9.3818  -15.5513   22.1131 C   0  0  0  0  0  0  0  0  0  0  0  0
   10.5988  -15.4359   22.4307 O   0  0  0  0  0  0  0  0  0  0  0  0
    5.3287  -11.8037   26.1611 C   0  0  0  0  0  0  0  0  0  0  0  0
    7.1184  -11.9101   26.4662 S   0  0  0  0  0  0  0  0  0  0  0  0
    7.6674  -13.6402   26.3472 C   0  0  0  0  0  0  0  0  0  0  0  0
    7.5879  -14.0760   24.9209 C   0  0  0  0  0  0  0  0  0  0  0  0
    8.7658  -14.9318   24.4967 C   0  0  2  0  0  0  0  0  0  0  0  0
    8.4329  -15.2624   23.0934 N   0  0  0  0  0  0  0  0  0  0  0  0
    8.8901  -16.1339   25.2934 C   0  0  0  0  0  0  0  0  0  0  0  0
    8.0454  -17.0573   25.1582 O   0  0  0  0  0  0  0  0  0  0  0  0
    9.9195  -16.3397   26.2221 N   0  0  0  0  0  0  0  0  0  0  0  0
   10.0548  -17.6130   26.9547 C   0  0  1  0  0  0  0  0  0  0  0  0
   10.9537  -18.5437   26.1766 C   0  0  0  0  0  0  0  0  0  0  0  0
   11.1314  -19.8737   26.8580 C   0  0  0  0  0  0  0  0  0  0  0  0
   12.1152  -20.7422   26.0610 C   0  0  0  0  0  0  0  0  0  0  0  0
   12.1983  -22.0702   26.7698 C   0  0  0  0  0  0  0  0  0  0  0  0
   13.0725  -22.9819   26.0453 N   0  0  0  0  0  0  0  0  0  0  0  0
   10.5345  -17.3824   28.3168 C   0  0  0  0  0  0  0  0  0  0  0  0
   10.7064  -18.3600   29.0873 O   0  0  0  0  0  0  0  0  0  0  0  0
   10.8186  -16.1310   28.8185 O   0  0  0  0  0  0  0  0  0  0  0  0
  2  1  1  0
  2  3  2  0
  4  5  1  0
  4  2  1  0
  5  6  1  0
  6  7  1  1
  8  6  1  0
  8  9  2  0
 11 12  1  0
 11 10  1  0
 14 13  1  1
 13 12  1  0
 15 14  1  0
 15  8  1  0
 16 14  1  0
 17 16  2  0
 18 16  1  0
 19 25  1  0
 19 18  1  0
 19 20  1  6
 21 20  1  0
 22 21  1  0
 23 22  1  0
 23 24  1  0
 25 27  1  0
 26 25  2  0
M  END
$$$$
