QMK.pdb
     RDKit          3D

 27 26  0  0  1  0  0  0  0  0999 V2000
    9.2478  -14.3635   17.1830 N   0  0  0  0  0  0  0  0  0  0  0  0
    7.8963  -14.1657   17.6654 C   0  0  0  0  0  0  0  0  0  0  0  0
    7.0151  -14.1228   16.7863 O   0  0  0  0  0  0  0  0  0  0  0  0
    7.7250  -14.0440   19.1138 C   0  0  0  0  0  0  0  0  0  0  0  0
    8.9491  -14.3538   19.9005 C   0  0  0  0  0  0  0  0  0  0  0  0
    8.8475  -15.6126   20.7131 C   0  0  2  0  0  0  0  0  0  0  0  0
    7.6329  -16.3332   20.5998 N   0  0  0  0  0  0  0  0  0  0  0  0
    9.0403  -15.2473   22.1591 C   0  0  0  0  0  0  0  0  0  0  0  0
   10.0950  -14.6611   22.5323 O   0  0  0  0  0  0  0  0  0  0  0  0
    6.6435  -11.4939   26.8771 C   0  0  0  0  0  0  0  0  0  0  0  0
    7.6776  -12.9866   26.7766 S   0  0  0  0  0  0  0  0  0  0  0  0
    6.6469  -14.4310   26.3767 C   0  0  0  0  0  0  0  0  0  0  0  0
    6.8042  -14.7511   24.9264 C   0  0  0  0  0  0  0  0  0  0  0  0
    8.2188  -15.1560   24.5594 C   0  0  2  0  0  0  0  0  0  0  0  0
    8.0853  -15.5320   23.1346 N   0  0  0  0  0  0  0  0  0  0  0  0
    8.6940  -16.2751   25.3450 C   0  0  0  0  0  0  0  0  0  0  0  0
    7.9451  -17.2712   25.5214 O   0  0  0  0  0  0  0  0  0  0  0  0
    9.9674  -16.3210   25.9290 N   0  0  0  0  0  0  0  0  0  0  0  0
   10.3999  -17.4694   26.7479 C   0  0  1  0  0  0  0  0  0  0  0  0
   11.7160  -17.9902   26.2220 C   0  0  0  0  0  0  0  0  0  0  0  0
   11.5795  -18.6340   24.8686 C   0  0  0  0  0  0  0  0  0  0  0  0
   12.9398  -19.1773   24.4084 C   0  0  0  0  0  0  0  0  0  0  0  0
   12.7410  -19.7342   23.0217 C   0  0  0  0  0  0  0  0  0  0  0  0
   14.0200  -20.1019   22.4308 N   0  0  0  0  0  0  0  0  0  0  0  0
   10.4688  -17.1046   28.1623 C   0  0  0  0  0  0  0  0  0  0  0  0
   10.3734  -15.8971   28.4965 O   0  0  0  0  0  0  0  0  0  0  0  0
   10.6331  -18.0244   29.1751 O   0  0  0  0  0  0  0  0  0  0  0  0
  2  1  1  0
  2  3  2  0
  4  5  1  0
  4  2  1  0
  5  6  1  0
  6  7  1  1
  8  6  1  0
  8  9  2  0
 11 12  1  0
 11 10  1  0
 14 13  1  1
 13 12  1  0
 15 14  1  0
 15  8  1  0
 16 14  1  0
 17 16  2  0
 18 16  1  0
 19 25  1  0
 19 18  1  0
 19 20  1  6
 21 20  1  0
 22 21  1  0
 23 22  1  0
 23 24  1  0
 25 27  1  0
 26 25  2  0
M  END
$$$$
