QMK.pdb
     RDKit          3D

 27 26  0  0  1  0  0  0  0  0999 V2000
    8.3838  -15.1745   16.6153 N   0  0  0  0  0  0  0  0  0  0  0  0
    8.1938  -13.8540   17.1798 C   0  0  0  0  0  0  0  0  0  0  0  0
    8.3815  -12.9047   16.3958 O   0  0  0  0  0  0  0  0  0  0  0  0
    7.8042  -13.7899   18.5891 C   0  0  0  0  0  0  0  0  0  0  0  0
    8.8601  -14.2419   19.5346 C   0  0  0  0  0  0  0  0  0  0  0  0
    8.4462  -15.3954   20.4025 C   0  0  2  0  0  0  0  0  0  0  0  0
    7.0813  -15.7698   20.3352 N   0  0  0  0  0  0  0  0  0  0  0  0
    8.7624  -15.0387   21.8288 C   0  0  0  0  0  0  0  0  0  0  0  0
    9.9556  -14.8204   22.1807 O   0  0  0  0  0  0  0  0  0  0  0  0
    6.7786  -10.5978   25.9164 C   0  0  0  0  0  0  0  0  0  0  0  0
    7.7585  -12.0718   26.3345 S   0  0  0  0  0  0  0  0  0  0  0  0
    6.7531  -13.5709   26.1097 C   0  0  0  0  0  0  0  0  0  0  0  0
    6.7563  -13.9433   24.6634 C   0  0  0  0  0  0  0  0  0  0  0  0
    8.0466  -14.6095   24.2263 C   0  0  2  0  0  0  0  0  0  0  0  0
    7.7754  -14.9343   22.8085 N   0  0  0  0  0  0  0  0  0  0  0  0
    8.3326  -15.8093   24.9839 C   0  0  0  0  0  0  0  0  0  0  0  0
    7.4671  -16.7207   25.0518 O   0  0  0  0  0  0  0  0  0  0  0  0
    9.5432  -16.0257   25.6563 N   0  0  0  0  0  0  0  0  0  0  0  0
    9.8536  -17.3217   26.2891 C   0  0  1  0  0  0  0  0  0  0  0  0
   10.9803  -17.9878   25.5363 C   0  0  0  0  0  0  0  0  0  0  0  0
   11.4113  -19.2812   26.1737 C   0  0  0  0  0  0  0  0  0  0  0  0
   12.5061  -19.9431   25.3247 C   0  0  0  0  0  0  0  0  0  0  0  0
   12.8812  -21.2271   26.0200 C   0  0  0  0  0  0  0  0  0  0  0  0
   13.9262  -21.9215   25.2811 N   0  0  0  0  0  0  0  0  0  0  0  0
   10.1561  -17.1493   27.7094 C   0  0  0  0  0  0  0  0  0  0  0  0
   10.4747  -16.0134   28.1419 O   0  0  0  0  0  0  0  0  0  0  0  0
   10.1099  -18.1784   28.6245 O   0  0  0  0  0  0  0  0  0  0  0  0
  2  1  1  0
  2  3  2  0
  4  5  1  0
  4  2  1  0
  5  6  1  0
  6  7  1  1
  8  6  1  0
  8  9  2  0
 11 12  1  0
 11 10  1  0
 14 13  1  1
 13 12  1  0
 15 14  1  0
 15  8  1  0
 16 14  1  0
 17 16  2  0
 18 16  1  0
 19 25  1  0
 19 18  1  0
 19 20  1  6
 21 20  1  0
 22 21  1  0
 23 22  1  0
 23 24  1  0
 25 27  1  0
 26 25  2  0
M  END
$$$$
