QMK.pdb
     RDKit          3D

 27 26  0  0  1  0  0  0  0  0999 V2000
   12.2811  -17.8098   18.7497 N   0  0  0  0  0  0  0  0  0  0  0  0
   11.0463  -17.8549   17.9937 C   0  0  0  0  0  0  0  0  0  0  0  0
   11.0824  -18.5329   16.9496 O   0  0  0  0  0  0  0  0  0  0  0  0
    9.9116  -17.1095   18.5404 C   0  0  0  0  0  0  0  0  0  0  0  0
   10.1474  -16.5498   19.8985 C   0  0  0  0  0  0  0  0  0  0  0  0
    9.1363  -16.9855   20.9199 C   0  0  2  0  0  0  0  0  0  0  0  0
    7.7828  -16.6864   20.6264 N   0  0  0  0  0  0  0  0  0  0  0  0
    9.4862  -16.3295   22.2271 C   0  0  0  0  0  0  0  0  0  0  0  0
   10.6566  -16.4226   22.6927 O   0  0  0  0  0  0  0  0  0  0  0  0
    6.5359  -11.0398   27.2918 C   0  0  0  0  0  0  0  0  0  0  0  0
    6.3979  -12.0673   25.7975 S   0  0  0  0  0  0  0  0  0  0  0  0
    7.7236  -13.3125   25.7748 C   0  0  0  0  0  0  0  0  0  0  0  0
    7.6801  -14.0419   24.4722 C   0  0  0  0  0  0  0  0  0  0  0  0
    8.8397  -15.0026   24.2925 C   0  0  2  0  0  0  0  0  0  0  0  0
    8.5561  -15.6036   22.9705 N   0  0  0  0  0  0  0  0  0  0  0  0
    8.8793  -16.0188   25.3225 C   0  0  0  0  0  0  0  0  0  0  0  0
    7.9236  -16.8310   25.4291 O   0  0  0  0  0  0  0  0  0  0  0  0
    9.9428  -16.1608   26.2243 N   0  0  0  0  0  0  0  0  0  0  0  0
   10.0167  -17.3013   27.1571 C   0  0  1  0  0  0  0  0  0  0  0  0
   10.6158  -18.4906   26.4454 C   0  0  0  0  0  0  0  0  0  0  0  0
   12.0775  -18.3015   26.1414 C   0  0  0  0  0  0  0  0  0  0  0  0
   12.6195  -19.5294   25.3957 C   0  0  0  0  0  0  0  0  0  0  0  0
   14.0979  -19.3059   25.2034 C   0  0  0  0  0  0  0  0  0  0  0  0
   14.6803  -20.3870   24.4209 N   0  0  0  0  0  0  0  0  0  0  0  0
   10.7593  -16.9404   28.3641 C   0  0  0  0  0  0  0  0  0  0  0  0
   10.8980  -17.7864   29.2828 O   0  0  0  0  0  0  0  0  0  0  0  0
   11.3317  -15.7025   28.5600 O   0  0  0  0  0  0  0  0  0  0  0  0
  2  1  1  0
  2  3  2  0
  4  5  1  0
  4  2  1  0
  5  6  1  0
  6  7  1  6
  8  6  1  0
  8  9  2  0
 11 12  1  0
 11 10  1  0
 14 13  1  1
 13 12  1  0
 15 14  1  0
 15  8  1  0
 16 14  1  0
 17 16  2  0
 18 16  1  0
 19 25  1  0
 19 18  1  0
 19 20  1  6
 21 20  1  0
 22 21  1  0
 23 22  1  0
 23 24  1  0
 25 27  1  0
 26 25  2  0
M  END
$$$$
