QMK.pdb
     RDKit          3D

 27 26  0  0  1  0  0  0  0  0999 V2000
    8.9401  -12.4233   18.9222 N   0  0  0  0  0  0  0  0  0  0  0  0
    8.0477  -13.3859   18.3096 C   0  0  0  0  0  0  0  0  0  0  0  0
    7.2276  -12.9151   17.4990 O   0  0  0  0  0  0  0  0  0  0  0  0
    8.2139  -14.7845   18.7074 C   0  0  0  0  0  0  0  0  0  0  0  0
    9.2955  -15.0105   19.7035 C   0  0  0  0  0  0  0  0  0  0  0  0
    8.9634  -16.0480   20.7372 C   0  0  2  0  0  0  0  0  0  0  0  0
    7.6375  -16.5472   20.7180 N   0  0  0  0  0  0  0  0  0  0  0  0
    9.2167  -15.4486   22.0930 C   0  0  0  0  0  0  0  0  0  0  0  0
   10.3275  -14.9057   22.3514 O   0  0  0  0  0  0  0  0  0  0  0  0
    6.4553  -10.9664   25.4898 C   0  0  0  0  0  0  0  0  0  0  0  0
    5.9972  -12.4567   26.4261 S   0  0  0  0  0  0  0  0  0  0  0  0
    7.2854  -13.7275   26.2411 C   0  0  0  0  0  0  0  0  0  0  0  0
    7.3240  -14.1735   24.8163 C   0  0  0  0  0  0  0  0  0  0  0  0
    8.5226  -15.0476   24.5017 C   0  0  2  0  0  0  0  0  0  0  0  0
    8.2589  -15.4634   23.1064 N   0  0  0  0  0  0  0  0  0  0  0  0
    8.6103  -16.1992   25.3744 C   0  0  0  0  0  0  0  0  0  0  0  0
    7.7204  -17.0877   25.3196 O   0  0  0  0  0  0  0  0  0  0  0  0
    9.6516  -16.3927   26.2925 N   0  0  0  0  0  0  0  0  0  0  0  0
   10.1839  -17.7374   26.5835 C   0  0  1  0  0  0  0  0  0  0  0  0
   11.1309  -18.1488   25.4817 C   0  0  0  0  0  0  0  0  0  0  0  0
   11.7941  -19.4711   25.7582 C   0  0  0  0  0  0  0  0  0  0  0  0
   11.3393  -20.5105   24.7238 C   0  0  0  0  0  0  0  0  0  0  0  0
   12.3571  -20.4939   23.6117 C   0  0  0  0  0  0  0  0  0  0  0  0
   11.9049  -21.3095   22.4934 N   0  0  0  0  0  0  0  0  0  0  0  0
   10.8127  -17.7749   27.9032 C   0  0  0  0  0  0  0  0  0  0  0  0
   11.1124  -16.6984   28.4779 O   0  0  0  0  0  0  0  0  0  0  0  0
   11.1013  -18.9443   28.5723 O   0  0  0  0  0  0  0  0  0  0  0  0
  2  1  1  0
  2  3  2  0
  4  5  1  0
  4  2  1  0
  5  6  1  0
  6  7  1  1
  8  6  1  0
  8  9  2  0
 11 12  1  0
 11 10  1  0
 14 13  1  1
 13 12  1  0
 15 14  1  0
 15  8  1  0
 16 14  1  0
 17 16  2  0
 18 16  1  0
 19 25  1  0
 19 18  1  0
 19 20  1  6
 21 20  1  0
 22 21  1  0
 23 22  1  0
 23 24  1  0
 25 27  1  0
 26 25  2  0
M  END
$$$$
