QMK.pdb
     RDKit          3D

 27 26  0  0  1  0  0  0  0  0999 V2000
    6.9789  -19.5684   19.2036 N   0  0  0  0  0  0  0  0  0  0  0  0
    8.1860  -19.2942   18.4513 C   0  0  0  0  0  0  0  0  0  0  0  0
    8.3469  -19.9845   17.4272 O   0  0  0  0  0  0  0  0  0  0  0  0
    9.0646  -18.2471   18.9744 C   0  0  0  0  0  0  0  0  0  0  0  0
    8.5959  -17.6383   20.2483 C   0  0  0  0  0  0  0  0  0  0  0  0
    8.6145  -16.1367   20.2478 C   0  0  2  0  0  0  0  0  0  0  0  0
    9.5427  -15.5235   19.3704 N   0  0  0  0  0  0  0  0  0  0  0  0
    8.9207  -15.6768   21.6466 C   0  0  0  0  0  0  0  0  0  0  0  0
   10.1020  -15.7312   22.0901 O   0  0  0  0  0  0  0  0  0  0  0  0
    7.1648  -11.8603   27.8884 C   0  0  0  0  0  0  0  0  0  0  0  0
    7.3444  -12.2393   26.1187 S   0  0  0  0  0  0  0  0  0  0  0  0
    6.7544  -13.9265   25.7813 C   0  0  0  0  0  0  0  0  0  0  0  0
    6.8461  -14.1867   24.3135 C   0  0  0  0  0  0  0  0  0  0  0  0
    8.1890  -14.7537   23.8954 C   0  0  2  0  0  0  0  0  0  0  0  0
    7.9370  -15.1796   22.5009 N   0  0  0  0  0  0  0  0  0  0  0  0
    8.5918  -15.8785   24.7126 C   0  0  0  0  0  0  0  0  0  0  0  0
    7.8429  -16.8871   24.7917 O   0  0  0  0  0  0  0  0  0  0  0  0
    9.7941  -15.9167   25.4321 N   0  0  0  0  0  0  0  0  0  0  0  0
   10.2476  -17.1445   26.1126 C   0  0  1  0  0  0  0  0  0  0  0  0
   11.6897  -17.4110   25.7532 C   0  0  0  0  0  0  0  0  0  0  0  0
   12.2799  -18.5442   26.5483 C   0  0  0  0  0  0  0  0  0  0  0  0
   12.9645  -19.5438   25.6051 C   0  0  0  0  0  0  0  0  0  0  0  0
   13.5564  -20.6264   26.4714 C   0  0  0  0  0  0  0  0  0  0  0  0
   14.1640  -21.6633   25.6492 N   0  0  0  0  0  0  0  0  0  0  0  0
   10.0410  -17.0467   27.5570 C   0  0  0  0  0  0  0  0  0  0  0  0
   10.0420  -15.9176   28.1083 O   0  0  0  0  0  0  0  0  0  0  0  0
    9.8381  -18.1410   28.3694 O   0  0  0  0  0  0  0  0  0  0  0  0
  2  1  1  0
  2  3  2  0
  4  5  1  0
  4  2  1  0
  5  6  1  0
  6  7  1  6
  8  6  1  0
  8  9  2  0
 11 12  1  0
 11 10  1  0
 14 13  1  1
 13 12  1  0
 15 14  1  0
 15  8  1  0
 16 14  1  0
 17 16  2  0
 18 16  1  0
 19 25  1  0
 19 18  1  0
 19 20  1  1
 21 20  1  0
 22 21  1  0
 23 22  1  0
 23 24  1  0
 25 27  1  0
 26 25  2  0
M  END
$$$$
