NIY.pdb
     RDKit          3D

 29 29  0  0  1  0  0  0  0  0999 V2000
   27.3032  -22.4485  -20.1336 N   0  0  0  0  0  0  0  0  0  0  0  0
   27.9790  -22.3880  -18.9002 C   0  0  0  0  0  0  0  0  0  0  0  0
   29.1369  -21.9238  -18.8457 O   0  0  0  0  0  0  0  0  0  0  0  0
   27.3278  -22.8715  -17.6613 C   0  0  0  0  0  0  0  0  0  0  0  0
   27.1711  -21.6396  -16.7675 C   0  0  2  0  0  0  0  0  0  0  0  0
   28.4575  -21.1011  -16.4051 N   0  0  0  0  0  0  0  0  0  0  0  0
   26.3576  -22.0112  -15.5851 C   0  0  0  0  0  0  0  0  0  0  0  0
   25.6135  -22.9951  -15.6345 O   0  0  0  0  0  0  0  0  0  0  0  0
   28.7620  -21.0231  -11.1567 C   0  0  0  0  0  0  0  0  0  0  0  0
   27.7213  -21.5830  -12.0471 C   0  0  0  0  0  0  0  0  0  0  0  0
   26.4266  -20.8069  -12.0706 C   0  0  2  0  0  0  0  0  0  0  0  0
   25.6405  -20.9198  -10.8255 C   0  0  0  0  0  0  0  0  0  0  0  0
   25.6263  -21.4403  -13.2228 C   0  0  2  0  0  0  0  0  0  0  0  0
   26.4585  -21.2228  -14.4265 N   0  0  0  0  0  0  0  0  0  0  0  0
   24.3514  -20.7385  -13.4867 C   0  0  0  0  0  0  0  0  0  0  0  0
   24.3867  -19.5826  -14.0523 O   0  0  0  0  0  0  0  0  0  0  0  0
   17.1064  -18.0488  -16.9746 O   0  0  0  0  0  0  0  0  0  0  0  0
   18.2859  -18.6266  -16.5190 C   0  0  0  0  0  0  0  0  0  0  0  0
   19.3542  -17.8569  -16.0851 C   0  0  0  0  0  0  0  0  0  0  0  0
   20.5230  -18.4172  -15.6324 C   0  0  0  0  0  0  0  0  0  0  0  0
   20.6660  -19.7854  -15.5971 C   0  0  0  0  0  0  0  0  0  0  0  0
   21.9164  -20.4012  -15.1387 C   0  0  0  0  0  0  0  0  0  0  0  0
   21.8973  -20.5203  -13.6335 C   0  0  2  0  0  0  0  0  0  0  0  0
   23.0734  -21.2454  -13.1649 N   0  0  0  0  0  0  0  0  0  0  0  0
   20.7165  -21.2150  -13.1367 C   0  0  0  0  0  0  0  0  0  0  0  0
   19.5989  -20.5634  -12.6829 O   0  0  0  0  0  0  0  0  0  0  0  0
   19.6269  -20.5724  -16.0202 C   0  0  0  0  0  0  0  0  0  0  0  0
   18.4389  -19.9964  -16.4801 C   0  0  0  0  0  0  0  0  0  0  0  0
   20.6818  -22.4843  -13.1042 O   0  0  0  0  0  0  0  0  0  0  0  0
  2  1  1  0
  2  3  2  0
  4  5  1  0
  4  2  1  0
  5  6  1  1
  7  5  1  0
  8  7  2  0
 10  9  1  0
 11 10  1  0
 11 13  1  0
 11 12  1  1
 13 14  1  6
 14  7  1  0
 15 24  1  0
 15 13  1  0
 16 15  2  0
 17 18  1  0
 18 28  2  0
 19 18  1  0
 19 20  2  0
 20 21  1  0
 21 27  2  0
 21 22  1  0
 23 22  1  6
 23 24  1  0
 23 25  1  0
 25 26  1  0
 28 27  1  0
 29 25  2  0
M  END
$$$$
