NIY.pdb
     RDKit          3D

 29 29  0  0  1  0  0  0  0  0999 V2000
   19.1214  -23.7976   -6.3680 N   0  0  0  0  0  0  0  0  0  0  0  0
   18.8886  -23.2239   -7.6322 C   0  0  0  0  0  0  0  0  0  0  0  0
   18.0003  -23.6910   -8.3750 O   0  0  0  0  0  0  0  0  0  0  0  0
   19.6902  -22.0668   -8.0921 C   0  0  0  0  0  0  0  0  0  0  0  0
   20.4041  -22.5355   -9.3616 C   0  0  2  0  0  0  0  0  0  0  0  0
   21.1437  -23.7478   -9.1170 N   0  0  0  0  0  0  0  0  0  0  0  0
   21.2657  -21.4349   -9.8558 C   0  0  0  0  0  0  0  0  0  0  0  0
   20.8027  -20.2965   -9.9740 O   0  0  0  0  0  0  0  0  0  0  0  0
   25.6136  -20.6736   -7.5205 C   0  0  0  0  0  0  0  0  0  0  0  0
   24.5004  -20.5521   -8.4877 C   0  0  0  0  0  0  0  0  0  0  0  0
   24.8484  -20.9458   -9.9029 C   0  0  2  0  0  0  0  0  0  0  0  0
   25.9257  -20.1318  -10.5011 C   0  0  0  0  0  0  0  0  0  0  0  0
   23.5487  -20.7077  -10.6926 C   0  0  2  0  0  0  0  0  0  0  0  0
   22.6023  -21.7225  -10.1793 N   0  0  0  0  0  0  0  0  0  0  0  0
   23.6964  -20.9935  -12.1362 C   0  0  0  0  0  0  0  0  0  0  0  0
   24.1329  -22.1497  -12.4968 O   0  0  0  0  0  0  0  0  0  0  0  0
   17.2670  -20.5527  -14.8194 O   0  0  0  0  0  0  0  0  0  0  0  0
   18.6270  -20.8406  -14.8265 C   0  0  0  0  0  0  0  0  0  0  0  0
   19.4887  -20.2665  -15.7483 C   0  0  0  0  0  0  0  0  0  0  0  0
   20.8335  -20.5433  -15.7635 C   0  0  0  0  0  0  0  0  0  0  0  0
   21.3706  -21.4156  -14.8447 C   0  0  0  0  0  0  0  0  0  0  0  0
   22.8011  -21.7412  -14.8611 C   0  0  0  0  0  0  0  0  0  0  0  0
   23.6041  -20.5000  -14.5527 C   0  0  2  0  0  0  0  0  0  0  0  0
   23.3883  -20.0838  -13.1712 N   0  0  0  0  0  0  0  0  0  0  0  0
   23.2626  -19.3772  -15.4165 C   0  0  0  0  0  0  0  0  0  0  0  0
   22.7875  -18.1825  -14.9405 O   0  0  0  0  0  0  0  0  0  0  0  0
   20.5433  -21.9991  -13.9211 C   0  0  0  0  0  0  0  0  0  0  0  0
   19.1746  -21.7135  -13.9102 C   0  0  0  0  0  0  0  0  0  0  0  0
   23.3949  -19.4701  -16.6764 O   0  0  0  0  0  0  0  0  0  0  0  0
  2  1  1  0
  2  3  2  0
  4  5  1  0
  4  2  1  0
  5  6  1  1
  7  5  1  0
  8  7  2  0
 10  9  1  0
 11 10  1  0
 11 13  1  0
 11 12  1  6
 13 14  1  1
 14  7  1  0
 15 24  1  0
 15 13  1  0
 16 15  2  0
 17 18  1  0
 18 28  2  0
 19 18  1  0
 19 20  2  0
 20 21  1  0
 21 27  2  0
 21 22  1  0
 23 22  1  6
 23 24  1  0
 23 25  1  0
 25 26  1  0
 28 27  1  0
 29 25  2  0
M  END
$$$$
