NIY.pdb
     RDKit          3D

 29 29  0  0  1  0  0  0  0  0999 V2000
   22.9009  -22.4834  -20.0847 N   0  0  0  0  0  0  0  0  0  0  0  0
   22.5535  -21.6676  -18.9914 C   0  0  0  0  0  0  0  0  0  0  0  0
   21.6908  -20.7754  -19.1284 O   0  0  0  0  0  0  0  0  0  0  0  0
   23.2035  -21.8579  -17.6745 C   0  0  0  0  0  0  0  0  0  0  0  0
   24.6766  -22.1403  -17.9764 C   0  0  2  0  0  0  0  0  0  0  0  0
   24.8503  -23.4799  -18.4781 N   0  0  0  0  0  0  0  0  0  0  0  0
   25.4699  -21.8861  -16.7500 C   0  0  0  0  0  0  0  0  0  0  0  0
   25.6820  -22.8047  -15.9528 O   0  0  0  0  0  0  0  0  0  0  0  0
   29.2346  -20.3750  -16.6705 C   0  0  0  0  0  0  0  0  0  0  0  0
   28.3007  -19.2501  -16.8981 C   0  0  0  0  0  0  0  0  0  0  0  0
   27.4406  -18.8938  -15.7098 C   0  0  2  0  0  0  0  0  0  0  0  0
   28.2050  -18.4041  -14.5450 C   0  0  0  0  0  0  0  0  0  0  0  0
   26.7512  -20.2169  -15.3311 C   0  0  2  0  0  0  0  0  0  0  0  0
   25.9645  -20.5901  -16.5273 N   0  0  0  0  0  0  0  0  0  0  0  0
   25.7660  -20.0563  -14.2397 C   0  0  0  0  0  0  0  0  0  0  0  0
   24.6887  -19.3907  -14.4713 O   0  0  0  0  0  0  0  0  0  0  0  0
   19.2141  -19.6977   -9.1189 O   0  0  0  0  0  0  0  0  0  0  0  0
   20.2829  -20.0196   -9.9476 C   0  0  0  0  0  0  0  0  0  0  0  0
   20.5533  -19.2995  -11.1010 C   0  0  0  0  0  0  0  0  0  0  0  0
   21.6066  -19.6083  -11.9259 C   0  0  0  0  0  0  0  0  0  0  0  0
   22.4374  -20.6623  -11.6218 C   0  0  0  0  0  0  0  0  0  0  0  0
   23.5534  -21.0215  -12.5040 C   0  0  0  0  0  0  0  0  0  0  0  0
   24.8276  -20.4007  -11.9830 C   0  0  2  0  0  0  0  0  0  0  0  0
   25.9133  -20.5871  -12.9395 N   0  0  0  0  0  0  0  0  0  0  0  0
   25.2520  -20.9668  -10.7090 C   0  0  0  0  0  0  0  0  0  0  0  0
   24.8962  -20.4348   -9.4966 O   0  0  0  0  0  0  0  0  0  0  0  0
   22.1947  -21.3930  -10.4881 C   0  0  0  0  0  0  0  0  0  0  0  0
   21.1208  -21.0740   -9.6516 C   0  0  0  0  0  0  0  0  0  0  0  0
   25.9890  -22.0008  -10.6771 O   0  0  0  0  0  0  0  0  0  0  0  0
  2  1  1  0
  2  3  2  0
  4  5  1  0
  4  2  1  0
  5  6  1  1
  7  5  1  0
  8  7  2  0
 10  9  1  0
 11 10  1  0
 11 13  1  0
 11 12  1  1
 13 14  1  6
 14  7  1  0
 15 24  1  0
 15 13  1  0
 16 15  2  0
 17 18  1  0
 18 28  2  0
 19 18  1  0
 19 20  2  0
 20 21  1  0
 21 27  2  0
 21 22  1  0
 23 22  1  6
 23 24  1  0
 23 25  1  0
 25 26  1  0
 28 27  1  0
 29 25  2  0
M  END
$$$$
