NIY.pdb
     RDKit          3D

 29 29  0  0  1  0  0  0  0  0999 V2000
   28.1455  -19.8034  -18.5778 N   0  0  0  0  0  0  0  0  0  0  0  0
   27.8625  -19.5503  -17.2223 C   0  0  0  0  0  0  0  0  0  0  0  0
   28.5769  -18.7580  -16.5734 O   0  0  0  0  0  0  0  0  0  0  0  0
   26.7211  -20.2173  -16.5550 C   0  0  0  0  0  0  0  0  0  0  0  0
   27.3237  -20.9999  -15.3866 C   0  0  2  0  0  0  0  0  0  0  0  0
   28.1595  -22.0724  -15.8636 N   0  0  0  0  0  0  0  0  0  0  0  0
   26.2221  -21.4815  -14.5192 C   0  0  0  0  0  0  0  0  0  0  0  0
   25.5455  -22.4541  -14.8664 O   0  0  0  0  0  0  0  0  0  0  0  0
   27.2083  -20.6565   -9.4262 C   0  0  0  0  0  0  0  0  0  0  0  0
   26.5685  -21.2066  -10.6418 C   0  0  0  0  0  0  0  0  0  0  0  0
   25.2799  -20.5279  -11.0388 C   0  0  2  0  0  0  0  0  0  0  0  0
   24.1790  -20.7266  -10.0748 C   0  0  0  0  0  0  0  0  0  0  0  0
   24.8976  -21.1924  -12.3736 C   0  0  2  0  0  0  0  0  0  0  0  0
   25.9765  -20.8087  -13.3105 N   0  0  0  0  0  0  0  0  0  0  0  0
   23.6526  -20.6407  -12.9510 C   0  0  0  0  0  0  0  0  0  0  0  0
   23.6675  -19.4442  -13.4254 O   0  0  0  0  0  0  0  0  0  0  0  0
   16.9863  -18.5053  -17.7611 O   0  0  0  0  0  0  0  0  0  0  0  0
   18.0887  -19.0819  -17.1408 C   0  0  0  0  0  0  0  0  0  0  0  0
   18.1131  -20.4255  -16.8000 C   0  0  0  0  0  0  0  0  0  0  0  0
   19.1969  -21.0052  -16.1880 C   0  0  0  0  0  0  0  0  0  0  0  0
   20.3093  -20.2512  -15.8918 C   0  0  0  0  0  0  0  0  0  0  0  0
   21.4670  -20.8485  -15.2168 C   0  0  0  0  0  0  0  0  0  0  0  0
   21.3089  -20.7036  -13.7219 C   0  0  2  0  0  0  0  0  0  0  0  0
   22.4257  -21.3355  -13.0279 N   0  0  0  0  0  0  0  0  0  0  0  0
   20.0769  -21.3015  -13.2237 C   0  0  0  0  0  0  0  0  0  0  0  0
   18.9385  -20.5782  -12.9780 O   0  0  0  0  0  0  0  0  0  0  0  0
   20.3142  -18.9198  -16.2164 C   0  0  0  0  0  0  0  0  0  0  0  0
   19.2078  -18.3347  -16.8396 C   0  0  0  0  0  0  0  0  0  0  0  0
   20.0142  -22.5487  -12.9911 O   0  0  0  0  0  0  0  0  0  0  0  0
  2  1  1  0
  2  3  2  0
  4  5  1  0
  4  2  1  0
  5  6  1  6
  7  5  1  0
  8  7  2  0
 10  9  1  0
 11 10  1  0
 11 13  1  0
 11 12  1  1
 13 14  1  6
 14  7  1  0
 15 24  1  0
 15 13  1  0
 16 15  2  0
 17 18  1  0
 18 28  2  0
 19 18  1  0
 19 20  2  0
 20 21  1  0
 21 27  2  0
 21 22  1  0
 23 22  1  6
 23 24  1  0
 23 25  1  0
 25 26  1  0
 28 27  1  0
 29 25  2  0
M  END
$$$$
