NIY.pdb
     RDKit          3D

 29 29  0  0  1  0  0  0  0  0999 V2000
   44.2197  -19.2493  -12.0175 N   0  0  0  0  0  0  0  0  0  0  0  0
   44.6421  -17.9068  -12.0470 C   0  0  0  0  0  0  0  0  0  0  0  0
   44.6153  -17.2681  -13.1196 O   0  0  0  0  0  0  0  0  0  0  0  0
   45.1201  -17.2414  -10.8135 C   0  0  0  0  0  0  0  0  0  0  0  0
   46.5959  -16.9219  -11.0600 C   0  0  2  0  0  0  0  0  0  0  0  0
   47.4169  -18.0856  -10.8407 N   0  0  0  0  0  0  0  0  0  0  0  0
   46.9855  -15.7814  -10.1967 C   0  0  0  0  0  0  0  0  0  0  0  0
   47.1786  -15.9604   -8.9905 O   0  0  0  0  0  0  0  0  0  0  0  0
   50.1116  -12.3675  -12.5964 C   0  0  0  0  0  0  0  0  0  0  0  0
   49.3874  -13.0394  -11.4948 C   0  0  0  0  0  0  0  0  0  0  0  0
   48.1141  -12.3518  -11.0650 C   0  0  2  0  0  0  0  0  0  0  0  0
   48.3305  -11.0318  -10.4391 C   0  0  0  0  0  0  0  0  0  0  0  0
   47.5041  -13.3033  -10.0200 C   0  0  2  0  0  0  0  0  0  0  0  0
   47.1261  -14.5127  -10.7837 N   0  0  0  0  0  0  0  0  0  0  0  0
   46.2446  -12.7861   -9.4422 C   0  0  0  0  0  0  0  0  0  0  0  0
   45.3593  -12.2883  -10.2332 O   0  0  0  0  0  0  0  0  0  0  0  0
   42.2519  -16.4913  -11.6990 O   0  0  0  0  0  0  0  0  0  0  0  0
   42.6113  -15.7342  -10.5899 C   0  0  0  0  0  0  0  0  0  0  0  0
   42.1242  -14.4510  -10.3947 C   0  0  0  0  0  0  0  0  0  0  0  0
   42.4719  -13.6950   -9.3025 C   0  0  0  0  0  0  0  0  0  0  0  0
   43.3304  -14.2031   -8.3546 C   0  0  0  0  0  0  0  0  0  0  0  0
   43.7315  -13.4008   -7.1935 C   0  0  0  0  0  0  0  0  0  0  0  0
   44.6318  -12.2756   -7.6451 C   0  0  2  0  0  0  0  0  0  0  0  0
   45.9273  -12.7975   -8.0663 N   0  0  0  0  0  0  0  0  0  0  0  0
   44.8662  -11.2862   -6.6012 C   0  0  0  0  0  0  0  0  0  0  0  0
   43.8540  -10.6575   -5.9232 O   0  0  0  0  0  0  0  0  0  0  0  0
   43.8286  -15.4689   -8.5207 C   0  0  0  0  0  0  0  0  0  0  0  0
   43.4710  -16.2343   -9.6348 C   0  0  0  0  0  0  0  0  0  0  0  0
   46.0503  -10.9612   -6.2758 O   0  0  0  0  0  0  0  0  0  0  0  0
  2  1  1  0
  2  3  2  0
  4  5  1  0
  4  2  1  0
  5  6  1  1
  7  5  1  0
  8  7  2  0
 10  9  1  0
 11 10  1  0
 11 13  1  0
 11 12  1  1
 13 14  1  6
 14  7  1  0
 15 24  1  0
 15 13  1  0
 16 15  2  0
 17 18  1  0
 18 28  2  0
 19 18  1  0
 19 20  2  0
 20 21  1  0
 21 27  2  0
 21 22  1  0
 23 22  1  1
 23 24  1  0
 23 25  1  0
 25 26  1  0
 28 27  1  0
 29 25  2  0
M  END
$$$$
