NIY.pdb
     RDKit          3D

 29 29  0  0  1  0  0  0  0  0999 V2000
   21.8370  -13.6112  -20.5519 N   0  0  0  0  0  0  0  0  0  0  0  0
   20.8780  -12.7630  -19.9667 C   0  0  0  0  0  0  0  0  0  0  0  0
   19.9025  -12.3675  -20.6383 O   0  0  0  0  0  0  0  0  0  0  0  0
   21.0150  -12.3332  -18.5562 C   0  0  0  0  0  0  0  0  0  0  0  0
   22.2944  -12.9969  -18.0430 C   0  0  2  0  0  0  0  0  0  0  0  0
   22.0503  -14.3694  -17.6783 N   0  0  0  0  0  0  0  0  0  0  0  0
   22.8253  -12.1954  -16.9145 C   0  0  0  0  0  0  0  0  0  0  0  0
   22.2674  -12.2370  -15.8139 O   0  0  0  0  0  0  0  0  0  0  0  0
   27.8985  -12.2149  -16.0456 C   0  0  0  0  0  0  0  0  0  0  0  0
   26.4586  -11.9135  -15.8864 C   0  0  0  0  0  0  0  0  0  0  0  0
   26.0487  -10.5339  -16.3419 C   0  0  2  0  0  0  0  0  0  0  0  0
   26.6775   -9.4403  -15.5739 C   0  0  0  0  0  0  0  0  0  0  0  0
   24.5277  -10.4944  -16.1084 C   0  0  2  0  0  0  0  0  0  0  0  0
   23.9636  -11.4012  -17.1324 N   0  0  0  0  0  0  0  0  0  0  0  0
   23.9411   -9.1652  -16.3856 C   0  0  0  0  0  0  0  0  0  0  0  0
   23.9783   -8.7111  -17.5895 O   0  0  0  0  0  0  0  0  0  0  0  0
   20.0723   -1.4006  -16.5314 O   0  0  0  0  0  0  0  0  0  0  0  0
   20.4717   -2.6719  -16.1358 C   0  0  0  0  0  0  0  0  0  0  0  0
   21.3499   -2.8644  -15.0804 C   0  0  0  0  0  0  0  0  0  0  0  0
   21.7501   -4.1155  -14.6809 C   0  0  0  0  0  0  0  0  0  0  0  0
   21.2794   -5.2330  -15.3316 C   0  0  0  0  0  0  0  0  0  0  0  0
   21.7147   -6.5764  -14.9337 C   0  0  0  0  0  0  0  0  0  0  0  0
   22.8468   -7.0247  -15.8269 C   0  0  2  0  0  0  0  0  0  0  0  0
   23.3288   -8.3394  -15.4176 N   0  0  0  0  0  0  0  0  0  0  0  0
   23.9789   -6.1074  -15.8074 C   0  0  0  0  0  0  0  0  0  0  0  0
   24.1979   -5.1660  -16.7797 O   0  0  0  0  0  0  0  0  0  0  0  0
   20.4102   -5.0742  -16.3791 C   0  0  0  0  0  0  0  0  0  0  0  0
   20.0059   -3.7977  -16.7817 C   0  0  0  0  0  0  0  0  0  0  0  0
   24.8273   -6.1511  -14.8630 O   0  0  0  0  0  0  0  0  0  0  0  0
  2  1  1  0
  2  3  2  0
  4  5  1  0
  4  2  1  0
  5  6  1  1
  7  5  1  0
  8  7  2  0
 10  9  1  0
 11 10  1  0
 11 13  1  0
 11 12  1  1
 13 14  1  6
 14  7  1  0
 15 24  1  0
 15 13  1  0
 16 15  2  0
 17 18  1  0
 18 28  2  0
 19 18  1  0
 19 20  2  0
 20 21  1  0
 21 27  2  0
 21 22  1  0
 23 22  1  1
 23 24  1  0
 23 25  1  0
 25 26  1  0
 28 27  1  0
 29 25  2  0
M  END
$$$$
