NIY.pdb
     RDKit          3D

 29 29  0  0  1  0  0  0  0  0999 V2000
   29.3549  -18.8958  -16.7928 N   0  0  0  0  0  0  0  0  0  0  0  0
   27.9824  -18.6020  -16.9003 C   0  0  0  0  0  0  0  0  0  0  0  0
   27.6011  -17.6619  -17.6283 O   0  0  0  0  0  0  0  0  0  0  0  0
   26.9818  -19.4000  -16.1554 C   0  0  0  0  0  0  0  0  0  0  0  0
   27.7810  -20.4566  -15.3899 C   0  0  2  0  0  0  0  0  0  0  0  0
   28.4778  -21.3314  -16.2984 N   0  0  0  0  0  0  0  0  0  0  0  0
   26.8586  -21.1902  -14.4906 C   0  0  0  0  0  0  0  0  0  0  0  0
   26.2266  -22.1616  -14.9165 O   0  0  0  0  0  0  0  0  0  0  0  0
   28.4225  -20.9867   -9.4854 C   0  0  0  0  0  0  0  0  0  0  0  0
   27.6669  -21.4732  -10.6609 C   0  0  0  0  0  0  0  0  0  0  0  0
   26.2869  -20.8804  -10.8134 C   0  0  2  0  0  0  0  0  0  0  0  0
   25.3282  -21.3273   -9.7828 C   0  0  0  0  0  0  0  0  0  0  0  0
   25.8090  -21.3824  -12.1878 C   0  0  2  0  0  0  0  0  0  0  0  0
   26.7286  -20.7537  -13.1615 N   0  0  0  0  0  0  0  0  0  0  0  0
   24.4590  -20.8901  -12.5384 C   0  0  0  0  0  0  0  0  0  0  0  0
   24.2600  -19.6198  -12.5998 O   0  0  0  0  0  0  0  0  0  0  0  0
   16.4637  -19.6506  -15.7617 O   0  0  0  0  0  0  0  0  0  0  0  0
   17.7097  -20.1734  -15.4351 C   0  0  0  0  0  0  0  0  0  0  0  0
   18.8838  -19.6083  -15.9085 C   0  0  0  0  0  0  0  0  0  0  0  0
   20.1195  -20.1159  -15.5914 C   0  0  0  0  0  0  0  0  0  0  0  0
   20.2254  -21.2213  -14.7786 C   0  0  0  0  0  0  0  0  0  0  0  0
   21.5364  -21.7915  -14.4486 C   0  0  0  0  0  0  0  0  0  0  0  0
   22.0999  -21.0906  -13.2355 C   0  0  2  0  0  0  0  0  0  0  0  0
   23.3499  -21.7175  -12.8197 N   0  0  0  0  0  0  0  0  0  0  0  0
   21.1895  -21.1108  -12.0977 C   0  0  0  0  0  0  0  0  0  0  0  0
   20.3214  -20.0884  -11.8141 O   0  0  0  0  0  0  0  0  0  0  0  0
   19.0819  -21.8020  -14.2957 C   0  0  0  0  0  0  0  0  0  0  0  0
   17.8262  -21.2807  -14.6218 C   0  0  0  0  0  0  0  0  0  0  0  0
   21.1700  -22.1037  -11.3058 O   0  0  0  0  0  0  0  0  0  0  0  0
  2  1  1  0
  2  3  2  0
  4  5  1  0
  4  2  1  0
  5  6  1  6
  7  5  1  0
  8  7  2  0
 10  9  1  0
 11 10  1  0
 11 13  1  0
 11 12  1  1
 13 14  1  6
 14  7  1  0
 15 24  1  0
 15 13  1  0
 16 15  2  0
 17 18  1  0
 18 28  2  0
 19 18  1  0
 19 20  2  0
 20 21  1  0
 21 27  2  0
 21 22  1  0
 23 22  1  6
 23 24  1  0
 23 25  1  0
 25 26  1  0
 28 27  1  0
 29 25  2  0
M  END
$$$$
