NIY.pdb
     RDKit          3D

 29 29  0  0  1  0  0  0  0  0999 V2000
   22.7231   -4.3941  -13.4860 N   0  0  0  0  0  0  0  0  0  0  0  0
   21.5902   -4.6120  -14.2926 C   0  0  0  0  0  0  0  0  0  0  0  0
   20.6914   -3.7473  -14.3520 O   0  0  0  0  0  0  0  0  0  0  0  0
   21.4531   -5.8618  -15.0750 C   0  0  0  0  0  0  0  0  0  0  0  0
   22.7448   -5.9873  -15.8853 C   0  0  2  0  0  0  0  0  0  0  0  0
   22.8583   -4.9142  -16.8402 N   0  0  0  0  0  0  0  0  0  0  0  0
   22.7749   -7.3236  -16.5268 C   0  0  0  0  0  0  0  0  0  0  0  0
   22.4220   -7.4497  -17.7032 O   0  0  0  0  0  0  0  0  0  0  0  0
   26.7027  -10.7965  -15.3210 C   0  0  0  0  0  0  0  0  0  0  0  0
   25.5340  -10.1537  -15.9617 C   0  0  0  0  0  0  0  0  0  0  0  0
   24.1969  -10.5709  -15.3986 C   0  0  2  0  0  0  0  0  0  0  0  0
   23.9324  -12.0203  -15.5004 C   0  0  0  0  0  0  0  0  0  0  0  0
   23.1702   -9.8166  -16.2624 C   0  0  2  0  0  0  0  0  0  0  0  0
   23.2103   -8.4227  -15.7678 N   0  0  0  0  0  0  0  0  0  0  0  0
   21.7837  -10.2800  -16.0379 C   0  0  0  0  0  0  0  0  0  0  0  0
   21.3337  -10.3253  -14.8326 O   0  0  0  0  0  0  0  0  0  0  0  0
   18.7795   -9.2952  -22.6874 O   0  0  0  0  0  0  0  0  0  0  0  0
   18.7169   -9.5182  -21.3166 C   0  0  0  0  0  0  0  0  0  0  0  0
   18.0705  -10.6244  -20.7872 C   0  0  0  0  0  0  0  0  0  0  0  0
   18.0036  -10.8547  -19.4352 C   0  0  0  0  0  0  0  0  0  0  0  0
   18.5888   -9.9747  -18.5538 C   0  0  0  0  0  0  0  0  0  0  0  0
   18.5067  -10.1923  -17.1052 C   0  0  0  0  0  0  0  0  0  0  0  0
   19.5745  -11.1725  -16.6815 C   0  0  2  0  0  0  0  0  0  0  0  0
   20.8954  -10.6818  -17.0593 N   0  0  0  0  0  0  0  0  0  0  0  0
   19.3998  -12.4907  -17.2778 C   0  0  0  0  0  0  0  0  0  0  0  0
   20.3447  -13.0844  -18.0741 O   0  0  0  0  0  0  0  0  0  0  0  0
   19.2346   -8.8716  -19.0478 C   0  0  0  0  0  0  0  0  0  0  0  0
   19.2998   -8.6421  -20.4255 C   0  0  0  0  0  0  0  0  0  0  0  0
   18.3348  -13.1529  -17.0763 O   0  0  0  0  0  0  0  0  0  0  0  0
  2  1  1  0
  2  3  2  0
  4  5  1  0
  4  2  1  0
  5  6  1  6
  7  5  1  0
  8  7  2  0
 10  9  1  0
 11 10  1  0
 11 13  1  0
 11 12  1  6
 13 14  1  1
 14  7  1  0
 15 24  1  0
 15 13  1  0
 16 15  2  0
 17 18  1  0
 18 28  2  0
 19 18  1  0
 19 20  2  0
 20 21  1  0
 21 27  2  0
 21 22  1  0
 23 22  1  6
 23 24  1  0
 23 25  1  0
 25 26  1  0
 28 27  1  0
 29 25  2  0
M  END
$$$$
