NIY.pdb
     RDKit          3D

 29 29  0  0  1  0  0  0  0  0999 V2000
   28.3314  -17.6182  -16.6160 N   0  0  0  0  0  0  0  0  0  0  0  0
   28.8138  -18.9218  -16.8387 C   0  0  0  0  0  0  0  0  0  0  0  0
   29.7772  -19.1067  -17.6112 O   0  0  0  0  0  0  0  0  0  0  0  0
   28.1875  -20.0812  -16.1630 C   0  0  0  0  0  0  0  0  0  0  0  0
   27.1007  -19.4964  -15.2586 C   0  0  2  0  0  0  0  0  0  0  0  0
   27.6621  -18.5533  -14.3250 N   0  0  0  0  0  0  0  0  0  0  0  0
   26.3941  -20.6113  -14.5837 C   0  0  0  0  0  0  0  0  0  0  0  0
   26.1863  -21.6659  -15.1911 O   0  0  0  0  0  0  0  0  0  0  0  0
   25.9233  -20.1727   -9.0447 C   0  0  0  0  0  0  0  0  0  0  0  0
   25.4720  -20.2496  -10.4518 C   0  0  0  0  0  0  0  0  0  0  0  0
   25.7912  -21.5512  -11.1466 C   0  0  2  0  0  0  0  0  0  0  0  0
   27.2369  -21.7925  -11.3272 C   0  0  0  0  0  0  0  0  0  0  0  0
   25.1338  -21.4123  -12.5315 C   0  0  2  0  0  0  0  0  0  0  0  0
   25.9758  -20.4338  -13.2542 N   0  0  0  0  0  0  0  0  0  0  0  0
   23.7856  -20.8075  -12.4663 C   0  0  0  0  0  0  0  0  0  0  0  0
   23.6847  -19.5410  -12.2589 O   0  0  0  0  0  0  0  0  0  0  0  0
   17.4662  -17.8695  -17.1976 O   0  0  0  0  0  0  0  0  0  0  0  0
   18.5410  -18.4861  -16.5674 C   0  0  0  0  0  0  0  0  0  0  0  0
   19.2977  -17.8301  -15.6087 C   0  0  0  0  0  0  0  0  0  0  0  0
   20.3605  -18.4299  -14.9796 C   0  0  0  0  0  0  0  0  0  0  0  0
   20.7081  -19.7244  -15.2914 C   0  0  0  0  0  0  0  0  0  0  0  0
   21.8552  -20.3732  -14.6465 C   0  0  0  0  0  0  0  0  0  0  0  0
   21.4539  -20.8579  -13.2737 C   0  0  2  0  0  0  0  0  0  0  0  0
   22.5766  -21.5208  -12.6192 N   0  0  0  0  0  0  0  0  0  0  0  0
   20.3396  -21.7965  -13.3096 C   0  0  0  0  0  0  0  0  0  0  0  0
   19.0478  -21.4377  -13.0235 O   0  0  0  0  0  0  0  0  0  0  0  0
   19.9787  -20.3983  -16.2357 C   0  0  0  0  0  0  0  0  0  0  0  0
   18.8973  -19.7826  -16.8732 C   0  0  0  0  0  0  0  0  0  0  0  0
   20.5328  -23.0145  -13.6136 O   0  0  0  0  0  0  0  0  0  0  0  0
  2  1  1  0
  2  3  2  0
  4  5  1  0
  4  2  1  0
  5  6  1  1
  7  5  1  0
  8  7  2  0
 10  9  1  0
 11 10  1  0
 11 13  1  0
 11 12  1  6
 13 14  1  6
 14  7  1  0
 15 24  1  0
 15 13  1  0
 16 15  2  0
 17 18  1  0
 18 28  2  0
 19 18  1  0
 19 20  2  0
 20 21  1  0
 21 27  2  0
 21 22  1  0
 23 22  1  6
 23 24  1  0
 23 25  1  0
 25 26  1  0
 28 27  1  0
 29 25  2  0
M  END
$$$$
