NIY.pdb
     RDKit          3D

 29 29  0  0  1  0  0  0  0  0999 V2000
   36.8486   -1.2729   -4.1627 N   0  0  0  0  0  0  0  0  0  0  0  0
   36.0833   -0.2439   -3.5822 C   0  0  0  0  0  0  0  0  0  0  0  0
   35.9151   -0.2137   -2.3453 O   0  0  0  0  0  0  0  0  0  0  0  0
   35.4730    0.8078   -4.4273 C   0  0  0  0  0  0  0  0  0  0  0  0
   35.8951    0.4838   -5.8618 C   0  0  2  0  0  0  0  0  0  0  0  0
   37.2089    1.0059   -6.1408 N   0  0  0  0  0  0  0  0  0  0  0  0
   34.8661    1.0103   -6.7900 C   0  0  0  0  0  0  0  0  0  0  0  0
   34.4511    2.1656   -6.6577 O   0  0  0  0  0  0  0  0  0  0  0  0
   35.1002   -1.5568  -11.4369 C   0  0  0  0  0  0  0  0  0  0  0  0
   34.8149   -0.4932  -10.4486 C   0  0  0  0  0  0  0  0  0  0  0  0
   33.4148   -0.5152   -9.8844 C   0  0  2  0  0  0  0  0  0  0  0  0
   32.3642   -0.2338  -10.8834 C   0  0  0  0  0  0  0  0  0  0  0  0
   33.4132    0.6079   -8.8317 C   0  0  2  0  0  0  0  0  0  0  0  0
   34.3865    0.1686   -7.8076 N   0  0  0  0  0  0  0  0  0  0  0  0
   32.1187    0.7283   -8.1263 C   0  0  0  0  0  0  0  0  0  0  0  0
   31.5619   -0.3380   -7.6681 O   0  0  0  0  0  0  0  0  0  0  0  0
   32.9638    0.7091   -1.7607 O   0  0  0  0  0  0  0  0  0  0  0  0
   32.2468    1.2269   -2.8332 C   0  0  0  0  0  0  0  0  0  0  0  0
   32.8364    2.0640   -3.7678 C   0  0  0  0  0  0  0  0  0  0  0  0
   32.1378    2.5801   -4.8311 C   0  0  0  0  0  0  0  0  0  0  0  0
   30.8070    2.2726   -4.9992 C   0  0  0  0  0  0  0  0  0  0  0  0
   30.0388    2.8339   -6.1161 C   0  0  0  0  0  0  0  0  0  0  0  0
   30.1084    1.8958   -7.2974 C   0  0  2  0  0  0  0  0  0  0  0  0
   31.4325    1.9429   -7.9081 N   0  0  0  0  0  0  0  0  0  0  0  0
   29.1288    2.2126   -8.3288 C   0  0  0  0  0  0  0  0  0  0  0  0
   29.4684    2.4668   -9.6325 O   0  0  0  0  0  0  0  0  0  0  0  0
   30.1966    1.4477   -4.0908 C   0  0  0  0  0  0  0  0  0  0  0  0
   30.9130    0.9249   -3.0099 C   0  0  0  0  0  0  0  0  0  0  0  0
   27.8915    2.2678   -8.0470 O   0  0  0  0  0  0  0  0  0  0  0  0
  2  1  1  0
  2  3  2  0
  4  5  1  0
  4  2  1  0
  5  6  1  6
  7  5  1  0
  8  7  2  0
 10  9  1  0
 11 10  1  0
 11 13  1  0
 11 12  1  6
 13 14  1  1
 14  7  1  0
 15 24  1  0
 15 13  1  0
 16 15  2  0
 17 18  1  0
 18 28  2  0
 19 18  1  0
 19 20  2  0
 20 21  1  0
 21 27  2  0
 21 22  1  0
 23 22  1  1
 23 24  1  0
 23 25  1  0
 25 26  1  0
 28 27  1  0
 29 25  2  0
M  END
$$$$
