NIY.pdb
     RDKit          3D

 29 29  0  0  1  0  0  0  0  0999 V2000
   28.8140  -19.8405  -17.7669 N   0  0  0  0  0  0  0  0  0  0  0  0
   27.4404  -19.6668  -18.0214 C   0  0  0  0  0  0  0  0  0  0  0  0
   27.0674  -18.9031  -18.9361 O   0  0  0  0  0  0  0  0  0  0  0  0
   26.4289  -20.3837  -17.2116 C   0  0  0  0  0  0  0  0  0  0  0  0
   27.2123  -21.1022  -16.1111 C   0  0  2  0  0  0  0  0  0  0  0  0
   28.0177  -22.1622  -16.6626 N   0  0  0  0  0  0  0  0  0  0  0  0
   26.2561  -21.5892  -15.0882 C   0  0  0  0  0  0  0  0  0  0  0  0
   25.4848  -22.5148  -15.3578 O   0  0  0  0  0  0  0  0  0  0  0  0
   25.5143  -20.8770   -8.9842 C   0  0  0  0  0  0  0  0  0  0  0  0
   25.1070  -21.3223  -10.3353 C   0  0  0  0  0  0  0  0  0  0  0  0
   26.0645  -20.9445  -11.4395 C   0  0  2  0  0  0  0  0  0  0  0  0
   26.3496  -19.4973  -11.5131 C   0  0  0  0  0  0  0  0  0  0  0  0
   25.3438  -21.3753  -12.7295 C   0  0  2  0  0  0  0  0  0  0  0  0
   26.2552  -20.9756  -13.8243 N   0  0  0  0  0  0  0  0  0  0  0  0
   24.0895  -20.6263  -12.9610 C   0  0  0  0  0  0  0  0  0  0  0  0
   24.1456  -19.5040  -13.5890 O   0  0  0  0  0  0  0  0  0  0  0  0
   17.1554  -18.8373  -17.3506 O   0  0  0  0  0  0  0  0  0  0  0  0
   18.2831  -19.3386  -16.7106 C   0  0  0  0  0  0  0  0  0  0  0  0
   18.4363  -20.6932  -16.4588 C   0  0  0  0  0  0  0  0  0  0  0  0
   19.5463  -21.1990  -15.8284 C   0  0  0  0  0  0  0  0  0  0  0  0
   20.5554  -20.3560  -15.4224 C   0  0  0  0  0  0  0  0  0  0  0  0
   21.7377  -20.8759  -14.7263 C   0  0  0  0  0  0  0  0  0  0  0  0
   21.6402  -20.5500  -13.2550 C   0  0  2  0  0  0  0  0  0  0  0  0
   22.8100  -21.0530  -12.5431 N   0  0  0  0  0  0  0  0  0  0  0  0
   20.4552  -21.1206  -12.6274 C   0  0  0  0  0  0  0  0  0  0  0  0
   19.3699  -20.3707  -12.2542 O   0  0  0  0  0  0  0  0  0  0  0  0
   20.4319  -19.0116  -15.6573 C   0  0  0  0  0  0  0  0  0  0  0  0
   19.2994  -18.5021  -16.2999 C   0  0  0  0  0  0  0  0  0  0  0  0
   20.3860  -22.3676  -12.3958 O   0  0  0  0  0  0  0  0  0  0  0  0
  2  1  1  0
  2  3  2  0
  4  5  1  0
  4  2  1  0
  5  6  1  6
  7  5  1  0
  8  7  2  0
 10  9  1  0
 11 10  1  0
 11 13  1  0
 11 12  1  6
 13 14  1  6
 14  7  1  0
 15 24  1  0
 15 13  1  0
 16 15  2  0
 17 18  1  0
 18 28  2  0
 19 18  1  0
 19 20  2  0
 20 21  1  0
 21 27  2  0
 21 22  1  0
 23 22  1  6
 23 24  1  0
 23 25  1  0
 25 26  1  0
 28 27  1  0
 29 25  2  0
M  END
$$$$
