NIY.pdb
     RDKit          3D

 29 29  0  0  1  0  0  0  0  0999 V2000
   13.6567  -27.7751  -11.2462 N   0  0  0  0  0  0  0  0  0  0  0  0
   13.4742  -28.1978   -9.9160 C   0  0  0  0  0  0  0  0  0  0  0  0
   12.3330  -28.4990   -9.5083 O   0  0  0  0  0  0  0  0  0  0  0  0
   14.6270  -28.2893   -8.9910 C   0  0  0  0  0  0  0  0  0  0  0  0
   15.8435  -27.8315   -9.7983 C   0  0  2  0  0  0  0  0  0  0  0  0
   16.2874  -28.8710  -10.6920 N   0  0  0  0  0  0  0  0  0  0  0  0
   16.9042  -27.4017   -8.8560 C   0  0  0  0  0  0  0  0  0  0  0  0
   17.5904  -28.2473   -8.2742 O   0  0  0  0  0  0  0  0  0  0  0  0
   18.9457  -22.9452  -10.4106 C   0  0  0  0  0  0  0  0  0  0  0  0
   18.9018  -24.1957   -9.6208 C   0  0  0  0  0  0  0  0  0  0  0  0
   18.3622  -24.0385   -8.2198 C   0  0  2  0  0  0  0  0  0  0  0  0
   19.2963  -23.3695   -7.2920 C   0  0  0  0  0  0  0  0  0  0  0  0
   18.1324  -25.4824   -7.7383 C   0  0  2  0  0  0  0  0  0  0  0  0
   17.1014  -26.0260   -8.6496 N   0  0  0  0  0  0  0  0  0  0  0  0
   17.5417  -25.5462   -6.3838 C   0  0  0  0  0  0  0  0  0  0  0  0
   16.4090  -24.9713   -6.1749 O   0  0  0  0  0  0  0  0  0  0  0  0
   13.8933  -26.4619    1.1966 O   0  0  0  0  0  0  0  0  0  0  0  0
   14.4315  -26.5162   -0.0840 C   0  0  0  0  0  0  0  0  0  0  0  0
   15.1215  -27.6296   -0.5379 C   0  0  0  0  0  0  0  0  0  0  0  0
   15.6562  -27.6940   -1.8009 C   0  0  0  0  0  0  0  0  0  0  0  0
   15.5173  -26.6327   -2.6657 C   0  0  0  0  0  0  0  0  0  0  0  0
   16.1024  -26.6745   -4.0106 C   0  0  0  0  0  0  0  0  0  0  0  0
   17.4906  -26.0811   -3.9749 C   0  0  2  0  0  0  0  0  0  0  0  0
   18.1301  -26.2022   -5.2806 N   0  0  0  0  0  0  0  0  0  0  0  0
   18.3544  -26.7234   -2.9926 C   0  0  0  0  0  0  0  0  0  0  0  0
   19.4848  -27.4213   -3.3309 O   0  0  0  0  0  0  0  0  0  0  0  0
   14.8404  -25.5178   -2.2450 C   0  0  0  0  0  0  0  0  0  0  0  0
   14.2979  -25.4578   -0.9577 C   0  0  0  0  0  0  0  0  0  0  0  0
   18.0807  -26.6588   -1.7539 O   0  0  0  0  0  0  0  0  0  0  0  0
  2  1  1  0
  2  3  2  0
  4  5  1  0
  4  2  1  0
  5  6  1  1
  7  5  1  0
  8  7  2  0
 10  9  1  0
 11 10  1  0
 11 13  1  0
 11 12  1  1
 13 14  1  6
 14  7  1  0
 15 24  1  0
 15 13  1  0
 16 15  2  0
 17 18  1  0
 18 28  2  0
 19 18  1  0
 19 20  2  0
 20 21  1  0
 21 27  2  0
 21 22  1  0
 23 22  1  6
 23 24  1  0
 23 25  1  0
 25 26  1  0
 28 27  1  0
 29 25  2  0
M  END
$$$$
