NIY.pdb
     RDKit          3D

 29 29  0  0  1  0  0  0  0  0999 V2000
   20.8367  -11.3802  -21.5474 N   0  0  0  0  0  0  0  0  0  0  0  0
   20.4543  -10.0734  -21.1901 C   0  0  0  0  0  0  0  0  0  0  0  0
   20.4589   -9.1659  -22.0477 O   0  0  0  0  0  0  0  0  0  0  0  0
   20.0450   -9.7627  -19.8013 C   0  0  0  0  0  0  0  0  0  0  0  0
   20.1315  -11.0858  -19.0378 C   0  0  2  0  0  0  0  0  0  0  0  0
   18.9418  -11.8736  -19.2392 N   0  0  0  0  0  0  0  0  0  0  0  0
   20.3826  -10.7925  -17.6065 C   0  0  0  0  0  0  0  0  0  0  0  0
   19.4330  -10.6763  -16.8261 O   0  0  0  0  0  0  0  0  0  0  0  0
   23.6599  -13.6501  -15.0730 C   0  0  0  0  0  0  0  0  0  0  0  0
   22.6792  -12.5710  -15.3242 C   0  0  0  0  0  0  0  0  0  0  0  0
   23.2773  -11.1903  -15.4451 C   0  0  2  0  0  0  0  0  0  0  0  0
   23.9036  -10.7001  -14.2007 C   0  0  0  0  0  0  0  0  0  0  0  0
   22.0789  -10.2871  -15.7875 C   0  0  2  0  0  0  0  0  0  0  0  0
   21.7119  -10.6538  -17.1731 N   0  0  0  0  0  0  0  0  0  0  0  0
   22.4390   -8.8534  -15.8361 C   0  0  0  0  0  0  0  0  0  0  0  0
   23.3705   -8.4761  -16.6405 O   0  0  0  0  0  0  0  0  0  0  0  0
   16.4773   -4.8631  -16.9920 O   0  0  0  0  0  0  0  0  0  0  0  0
   17.8379   -5.1227  -16.8744 C   0  0  0  0  0  0  0  0  0  0  0  0
   18.6938   -4.2454  -16.2266 C   0  0  0  0  0  0  0  0  0  0  0  0
   20.0388   -4.4925  -16.1039 C   0  0  0  0  0  0  0  0  0  0  0  0
   20.5820   -5.6414  -16.6319 C   0  0  0  0  0  0  0  0  0  0  0  0
   22.0208   -5.9105  -16.5311 C   0  0  0  0  0  0  0  0  0  0  0  0
   22.3327   -6.4799  -15.1676 C   0  0  2  0  0  0  0  0  0  0  0  0
   21.8293   -7.8448  -15.0583 N   0  0  0  0  0  0  0  0  0  0  0  0
   21.7500   -5.7002  -14.0831 C   0  0  0  0  0  0  0  0  0  0  0  0
   22.1130   -4.4066  -13.8107 O   0  0  0  0  0  0  0  0  0  0  0  0
   19.7606   -6.5275  -17.2785 C   0  0  0  0  0  0  0  0  0  0  0  0
   18.3916   -6.2708  -17.4003 C   0  0  0  0  0  0  0  0  0  0  0  0
   20.8618   -6.2075  -13.3299 O   0  0  0  0  0  0  0  0  0  0  0  0
  2  1  1  0
  2  3  2  0
  4  5  1  0
  4  2  1  0
  5  6  1  1
  7  5  1  0
  8  7  2  0
 10  9  1  0
 11 10  1  0
 11 13  1  0
 11 12  1  1
 13 14  1  6
 14  7  1  0
 15 24  1  0
 15 13  1  0
 16 15  2  0
 17 18  1  0
 18 28  2  0
 19 18  1  0
 19 20  2  0
 20 21  1  0
 21 27  2  0
 21 22  1  0
 23 22  1  6
 23 24  1  0
 23 25  1  0
 25 26  1  0
 28 27  1  0
 29 25  2  0
M  END
$$$$
