NIY.pdb
     RDKit          3D

 29 29  0  0  1  0  0  0  0  0999 V2000
   28.3851  -20.0074  -18.5781 N   0  0  0  0  0  0  0  0  0  0  0  0
   27.9999  -19.6329  -17.2769 C   0  0  0  0  0  0  0  0  0  0  0  0
   28.5765  -18.6848  -16.7044 O   0  0  0  0  0  0  0  0  0  0  0  0
   26.9129  -20.3552  -16.5771 C   0  0  0  0  0  0  0  0  0  0  0  0
   27.5970  -21.1666  -15.4750 C   0  0  2  0  0  0  0  0  0  0  0  0
   28.3277  -22.2763  -16.0327 N   0  0  0  0  0  0  0  0  0  0  0  0
   26.5705  -21.5975  -14.4959 C   0  0  0  0  0  0  0  0  0  0  0  0
   25.9009  -22.6119  -14.7122 O   0  0  0  0  0  0  0  0  0  0  0  0
   27.9782  -20.8194   -9.5918 C   0  0  0  0  0  0  0  0  0  0  0  0
   27.1890  -21.3012  -10.7471 C   0  0  0  0  0  0  0  0  0  0  0  0
   25.9167  -20.5315  -11.0071 C   0  0  2  0  0  0  0  0  0  0  0  0
   24.9016  -20.6801   -9.9448 C   0  0  0  0  0  0  0  0  0  0  0  0
   25.3658  -21.1396  -12.3095 C   0  0  2  0  0  0  0  0  0  0  0  0
   26.3868  -20.8290  -13.3341 N   0  0  0  0  0  0  0  0  0  0  0  0
   24.1251  -20.4785  -12.7690 C   0  0  0  0  0  0  0  0  0  0  0  0
   24.1797  -19.2454  -13.1346 O   0  0  0  0  0  0  0  0  0  0  0  0
   17.4988  -17.6037  -17.1979 O   0  0  0  0  0  0  0  0  0  0  0  0
   18.6157  -18.2139  -16.6386 C   0  0  0  0  0  0  0  0  0  0  0  0
   18.7466  -19.5933  -16.5939 C   0  0  0  0  0  0  0  0  0  0  0  0
   19.8456  -20.2062  -16.0447 C   0  0  0  0  0  0  0  0  0  0  0  0
   20.8660  -19.4506  -15.5140 C   0  0  0  0  0  0  0  0  0  0  0  0
   22.0369  -20.0886  -14.9018 C   0  0  0  0  0  0  0  0  0  0  0  0
   21.7539  -20.3692  -13.4452 C   0  0  2  0  0  0  0  0  0  0  0  0
   22.8613  -21.1040  -12.8435 N   0  0  0  0  0  0  0  0  0  0  0  0
   20.5391  -21.1490  -13.2458 C   0  0  0  0  0  0  0  0  0  0  0  0
   19.3172  -20.5814  -12.9924 O   0  0  0  0  0  0  0  0  0  0  0  0
   20.7645  -18.0842  -15.5434 C   0  0  0  0  0  0  0  0  0  0  0  0
   19.6430  -17.4654  -16.1041 C   0  0  0  0  0  0  0  0  0  0  0  0
   20.5718  -22.4176  -13.2992 O   0  0  0  0  0  0  0  0  0  0  0  0
  2  1  1  0
  2  3  2  0
  4  5  1  0
  4  2  1  0
  5  6  1  6
  7  5  1  0
  8  7  2  0
 10  9  1  0
 11 10  1  0
 11 13  1  0
 11 12  1  1
 13 14  1  6
 14  7  1  0
 15 24  1  0
 15 13  1  0
 16 15  2  0
 17 18  1  0
 18 28  2  0
 19 18  1  0
 19 20  2  0
 20 21  1  0
 21 27  2  0
 21 22  1  0
 23 22  1  6
 23 24  1  0
 23 25  1  0
 25 26  1  0
 28 27  1  0
 29 25  2  0
M  END
$$$$
