NIY.pdb
     RDKit          3D

 29 29  0  0  1  0  0  0  0  0999 V2000
   25.5164  -13.6575  -15.8083 N   0  0  0  0  0  0  0  0  0  0  0  0
   25.9806  -12.8960  -16.8974 C   0  0  0  0  0  0  0  0  0  0  0  0
   27.2005  -12.8654  -17.1620 O   0  0  0  0  0  0  0  0  0  0  0  0
   25.0327  -12.1273  -17.7361 C   0  0  0  0  0  0  0  0  0  0  0  0
   23.6447  -12.4085  -17.1570 C   0  0  2  0  0  0  0  0  0  0  0  0
   23.1066  -13.6360  -17.6861 N   0  0  0  0  0  0  0  0  0  0  0  0
   22.7714  -11.2418  -17.4291 C   0  0  0  0  0  0  0  0  0  0  0  0
   22.6177  -10.8450  -18.5881 O   0  0  0  0  0  0  0  0  0  0  0  0
   17.4244   -9.3383  -15.9452 C   0  0  0  0  0  0  0  0  0  0  0  0
   18.8276   -8.9859  -16.2554 C   0  0  0  0  0  0  0  0  0  0  0  0
   19.7906  -10.1481  -16.2299 C   0  0  2  0  0  0  0  0  0  0  0  0
   19.8444  -10.8502  -14.9317 C   0  0  0  0  0  0  0  0  0  0  0  0
   21.1632   -9.5087  -16.5064 C   0  0  2  0  0  0  0  0  0  0  0  0
   22.1347  -10.6130  -16.3460 N   0  0  0  0  0  0  0  0  0  0  0  0
   21.5373   -8.4977  -15.4937 C   0  0  0  0  0  0  0  0  0  0  0  0
   21.9231   -8.8980  -14.3326 O   0  0  0  0  0  0  0  0  0  0  0  0
   21.7725   -2.2922  -19.5768 O   0  0  0  0  0  0  0  0  0  0  0  0
   22.1347   -3.0713  -18.4840 C   0  0  0  0  0  0  0  0  0  0  0  0
   22.6035   -4.3671  -18.6362 C   0  0  0  0  0  0  0  0  0  0  0  0
   22.9648   -5.1449  -17.5640 C   0  0  0  0  0  0  0  0  0  0  0  0
   22.8686   -4.6470  -16.2847 C   0  0  0  0  0  0  0  0  0  0  0  0
   23.2277   -5.4719  -15.1257 C   0  0  0  0  0  0  0  0  0  0  0  0
   22.0105   -6.2276  -14.6485 C   0  0  2  0  0  0  0  0  0  0  0  0
   21.5077   -7.1016  -15.7029 N   0  0  0  0  0  0  0  0  0  0  0  0
   20.9230   -5.3474  -14.2408 C   0  0  0  0  0  0  0  0  0  0  0  0
   20.9922   -4.5294  -13.1428 O   0  0  0  0  0  0  0  0  0  0  0  0
   22.4080   -3.3692  -16.1027 C   0  0  0  0  0  0  0  0  0  0  0  0
   22.0416   -2.5816  -17.1983 C   0  0  0  0  0  0  0  0  0  0  0  0
   19.8419   -5.3082  -14.9064 O   0  0  0  0  0  0  0  0  0  0  0  0
  2  1  1  0
  2  3  2  0
  4  5  1  0
  4  2  1  0
  5  6  1  6
  7  5  1  0
  8  7  2  0
 10  9  1  0
 11 10  1  0
 11 13  1  0
 11 12  1  1
 13 14  1  1
 14  7  1  0
 15 24  1  0
 15 13  1  0
 16 15  2  0
 17 18  1  0
 18 28  2  0
 19 18  1  0
 19 20  2  0
 20 21  1  0
 21 27  2  0
 21 22  1  0
 23 22  1  6
 23 24  1  0
 23 25  1  0
 25 26  1  0
 28 27  1  0
 29 25  2  0
M  END
$$$$
