ANL.pdb
     RDKit          3D

 22 21  0  0  1  0  0  0  0  0999 V2000
    8.3631  -12.5225   19.4223 C   0  0  0  0  0  0  0  0  0  0  0  0
    8.4272  -14.0187   19.1738 C   0  0  2  0  0  0  0  0  0  0  0  0
    7.6614  -14.2783   17.9598 N   0  0  0  0  0  0  0  0  0  0  0  0
    7.7628  -14.6689   20.3501 C   0  0  0  0  0  0  0  0  0  0  0  0
    6.5382  -14.8341   20.3435 O   0  0  0  0  0  0  0  0  0  0  0  0
    6.3840  -18.3506   23.6565 N   0  0  0  0  0  0  0  0  0  0  0  0
    7.7674  -18.0689   23.6104 C   0  0  0  0  0  0  0  0  0  0  0  0
    8.5326  -18.5014   24.5269 O   0  0  0  0  0  0  0  0  0  0  0  0
    8.2608  -17.2644   22.4666 C   0  0  0  0  0  0  0  0  0  0  0  0
    7.9679  -15.7979   22.6058 C   0  0  2  0  0  0  0  0  0  0  0  0
    8.5356  -15.0992   21.4792 N   0  0  0  0  0  0  0  0  0  0  0  0
    8.5292  -15.2663   23.8999 C   0  0  0  0  0  0  0  0  0  0  0  0
    9.7702  -15.2017   24.0741 O   0  0  0  0  0  0  0  0  0  0  0  0
    7.9500  -11.3956   25.7377 C   0  0  0  0  0  0  0  0  0  0  0  0
    6.8016  -12.3622   26.0404 C   0  0  2  0  0  0  0  0  0  0  0  0
    5.6357  -11.6331   26.6485 C   0  0  0  0  0  0  0  0  0  0  0  0
    7.2601  -13.4763   26.9348 C   0  0  0  0  0  0  0  0  0  0  0  0
    8.2182  -14.3591   26.2242 C   0  0  2  0  0  0  0  0  0  0  0  0
    7.6851  -14.8279   24.9486 N   0  0  0  0  0  0  0  0  0  0  0  0
    8.6971  -15.4517   27.0530 C   0  0  0  0  0  0  0  0  0  0  0  0
    9.6290  -15.3835   28.0677 O   0  0  0  0  0  0  0  0  0  0  0  0
    8.2167  -16.6233   26.8344 O   0  0  0  0  0  0  0  0  0  0  0  0
  2  1  1  1
  2  4  1  0
  2  3  1  0
  4 11  1  0
  5  4  2  0
  7  8  2  0
  7  6  1  0
  9  7  1  0
 10  9  1  6
 10 12  1  0
 11 10  1  0
 12 13  2  0
 12 19  1  0
 15 14  1  1
 15 16  1  0
 18 17  1  1
 17 15  1  0
 18 20  1  0
 19 18  1  0
 20 22  2  0
 20 21  1  0
M  END
$$$$
