ANL.pdb
     RDKit          3D

 22 21  0  0  1  0  0  0  0  0999 V2000
    5.6690  -19.7017   21.4610 C   0  0  0  0  0  0  0  0  0  0  0  0
    6.0321  -18.9411   22.7236 C   0  0  2  0  0  0  0  0  0  0  0  0
    4.8265  -18.2449   23.1586 N   0  0  0  0  0  0  0  0  0  0  0  0
    7.0848  -17.9493   22.3286 C   0  0  0  0  0  0  0  0  0  0  0  0
    8.2543  -18.3243   22.1913 O   0  0  0  0  0  0  0  0  0  0  0  0
    7.5708  -12.1339   20.5027 N   0  0  0  0  0  0  0  0  0  0  0  0
    7.9276  -13.4933   20.3619 C   0  0  0  0  0  0  0  0  0  0  0  0
    9.0039  -13.8069   19.7653 O   0  0  0  0  0  0  0  0  0  0  0  0
    7.0033  -14.5028   20.9323 C   0  0  0  0  0  0  0  0  0  0  0  0
    7.7081  -15.5749   21.7131 C   0  0  2  0  0  0  0  0  0  0  0  0
    6.7457  -16.5730   22.1098 N   0  0  0  0  0  0  0  0  0  0  0  0
    8.3939  -14.9870   22.9198 C   0  0  0  0  0  0  0  0  0  0  0  0
    9.4905  -14.3894   22.7979 O   0  0  0  0  0  0  0  0  0  0  0  0
    8.1399  -11.6168   25.8050 C   0  0  0  0  0  0  0  0  0  0  0  0
    7.1191  -12.7582   25.8011 C   0  0  2  0  0  0  0  0  0  0  0  0
    5.8657  -12.3563   26.5279 C   0  0  0  0  0  0  0  0  0  0  0  0
    7.7056  -14.0042   26.3966 C   0  0  0  0  0  0  0  0  0  0  0  0
    8.5704  -14.6998   25.4115 C   0  0  2  0  0  0  0  0  0  0  0  0
    7.8303  -15.0885   24.2147 N   0  0  0  0  0  0  0  0  0  0  0  0
    9.2994  -15.8143   25.9914 C   0  0  0  0  0  0  0  0  0  0  0  0
    9.3539  -17.1106   25.5230 O   0  0  0  0  0  0  0  0  0  0  0  0
    9.9745  -15.5949   27.0626 O   0  0  0  0  0  0  0  0  0  0  0  0
  2  1  1  6
  2  4  1  0
  2  3  1  0
  4 11  1  0
  5  4  2  0
  7  8  2  0
  7  6  1  0
  9  7  1  0
 10  9  1  1
 10 12  1  0
 11 10  1  0
 12 13  2  0
 12 19  1  0
 15 14  1  1
 15 16  1  0
 18 17  1  1
 17 15  1  0
 18 20  1  0
 19 18  1  0
 20 22  2  0
 20 21  1  0
M  END
$$$$
