ANL.pdb
     RDKit          3D

 22 21  0  0  1  0  0  0  0  0999 V2000
    7.4834  -13.0340   18.7455 C   0  0  0  0  0  0  0  0  0  0  0  0
    8.5916  -13.5335   19.6546 C   0  0  2  0  0  0  0  0  0  0  0  0
    9.2818  -14.5972   18.9338 N   0  0  0  0  0  0  0  0  0  0  0  0
    7.9173  -14.0906   20.8723 C   0  0  0  0  0  0  0  0  0  0  0  0
    7.0827  -13.4057   21.4736 O   0  0  0  0  0  0  0  0  0  0  0  0
    5.6923  -18.6690   23.3579 N   0  0  0  0  0  0  0  0  0  0  0  0
    7.0285  -18.2269   23.4776 C   0  0  0  0  0  0  0  0  0  0  0  0
    7.6772  -18.4537   24.5455 O   0  0  0  0  0  0  0  0  0  0  0  0
    7.6132  -17.5051   22.3218 C   0  0  0  0  0  0  0  0  0  0  0  0
    7.5964  -16.0124   22.4874 C   0  0  2  0  0  0  0  0  0  0  0  0
    8.2326  -15.4083   21.3429 N   0  0  0  0  0  0  0  0  0  0  0  0
    8.2989  -15.6129   23.7598 C   0  0  0  0  0  0  0  0  0  0  0  0
    9.5486  -15.6873   23.8448 O   0  0  0  0  0  0  0  0  0  0  0  0
    7.7416  -11.7132   25.5301 C   0  0  0  0  0  0  0  0  0  0  0  0
    6.7133  -12.7281   26.0373 C   0  0  2  0  0  0  0  0  0  0  0  0
    5.6071  -12.0388   26.7870 C   0  0  0  0  0  0  0  0  0  0  0  0
    7.3677  -13.7729   26.8924 C   0  0  0  0  0  0  0  0  0  0  0  0
    8.2566  -14.6371   26.0768 C   0  0  2  0  0  0  0  0  0  0  0  0
    7.5807  -15.1464   24.8873 N   0  0  0  0  0  0  0  0  0  0  0  0
    8.8754  -15.6981   26.8522 C   0  0  0  0  0  0  0  0  0  0  0  0
    8.8165  -17.0543   26.6075 O   0  0  0  0  0  0  0  0  0  0  0  0
    9.5567  -15.3621   27.8887 O   0  0  0  0  0  0  0  0  0  0  0  0
  2  1  1  6
  2  4  1  0
  2  3  1  0
  4 11  1  0
  5  4  2  0
  7  8  2  0
  7  6  1  0
  9  7  1  0
 10  9  1  6
 10 12  1  0
 11 10  1  0
 12 13  2  0
 12 19  1  0
 15 14  1  1
 15 16  1  0
 18 17  1  1
 17 15  1  0
 18 20  1  0
 19 18  1  0
 20 22  2  0
 20 21  1  0
M  END
$$$$
