ANL.pdb
     RDKit          3D

 22 21  0  0  1  0  0  0  0  0999 V2000
    7.3391  -12.8164   18.7017 C   0  0  0  0  0  0  0  0  0  0  0  0
    8.5394  -13.0102   19.6106 C   0  0  2  0  0  0  0  0  0  0  0  0
    9.5657  -13.6781   18.8179 N   0  0  0  0  0  0  0  0  0  0  0  0
    8.0841  -13.9064   20.7229 C   0  0  0  0  0  0  0  0  0  0  0  0
    7.0864  -13.5983   21.3838 O   0  0  0  0  0  0  0  0  0  0  0  0
    9.5931  -19.3660   23.1058 N   0  0  0  0  0  0  0  0  0  0  0  0
    8.6052  -18.4179   22.7589 C   0  0  0  0  0  0  0  0  0  0  0  0
    7.4587  -18.4703   23.3024 O   0  0  0  0  0  0  0  0  0  0  0  0
    8.9708  -17.3894   21.7552 C   0  0  0  0  0  0  0  0  0  0  0  0
    8.3838  -16.0392   22.0520 C   0  0  2  0  0  0  0  0  0  0  0  0
    8.7955  -15.1148   21.0245 N   0  0  0  0  0  0  0  0  0  0  0  0
    8.8252  -15.5569   23.4103 C   0  0  0  0  0  0  0  0  0  0  0  0
   10.0435  -15.3875   23.6582 O   0  0  0  0  0  0  0  0  0  0  0  0
    8.3089  -11.8758   25.7660 C   0  0  0  0  0  0  0  0  0  0  0  0
    7.0430  -12.7365   25.7278 C   0  0  2  0  0  0  0  0  0  0  0  0
    5.8740  -11.9937   26.3130 C   0  0  0  0  0  0  0  0  0  0  0  0
    7.2588  -14.0394   26.4400 C   0  0  0  0  0  0  0  0  0  0  0  0
    8.3106  -14.8389   25.7644 C   0  0  2  0  0  0  0  0  0  0  0  0
    7.8912  -15.2825   24.4383 N   0  0  0  0  0  0  0  0  0  0  0  0
    8.7945  -15.9373   26.5824 C   0  0  0  0  0  0  0  0  0  0  0  0
    9.7556  -15.8823   27.5703 O   0  0  0  0  0  0  0  0  0  0  0  0
    8.2888  -17.1012   26.3806 O   0  0  0  0  0  0  0  0  0  0  0  0
  2  1  1  6
  2  4  1  0
  2  3  1  0
  4 11  1  0
  5  4  2  0
  7  8  2  0
  7  6  1  0
  9  7  1  0
 10  9  1  6
 10 12  1  0
 11 10  1  0
 12 13  2  0
 12 19  1  0
 15 14  1  1
 15 16  1  0
 18 17  1  1
 17 15  1  0
 18 20  1  0
 19 18  1  0
 20 22  2  0
 20 21  1  0
M  END
$$$$
