ANL.pdb
     RDKit          3D

 22 21  0  0  1  0  0  0  0  0999 V2000
    6.7593  -13.9173   19.5780 C   0  0  0  0  0  0  0  0  0  0  0  0
    8.0181  -13.5489   20.3420 C   0  0  2  0  0  0  0  0  0  0  0  0
    9.1466  -13.8625   19.4727 N   0  0  0  0  0  0  0  0  0  0  0  0
    8.0448  -14.4272   21.5567 C   0  0  0  0  0  0  0  0  0  0  0  0
    7.0552  -14.4756   22.2953 O   0  0  0  0  0  0  0  0  0  0  0  0
    9.3653  -19.1838   21.9829 N   0  0  0  0  0  0  0  0  0  0  0  0
   10.1392  -18.0441   21.6709 C   0  0  0  0  0  0  0  0  0  0  0  0
   10.5772  -17.8801   20.4903 O   0  0  0  0  0  0  0  0  0  0  0  0
   10.4033  -17.0795   22.7657 C   0  0  0  0  0  0  0  0  0  0  0  0
    9.2743  -16.1141   22.9877 C   0  0  2  0  0  0  0  0  0  0  0  0
    9.2065  -15.2091   21.8670 N   0  0  0  0  0  0  0  0  0  0  0  0
    9.4726  -15.3544   24.2745 C   0  0  0  0  0  0  0  0  0  0  0  0
   10.6001  -14.8893   24.5694 O   0  0  0  0  0  0  0  0  0  0  0  0
    8.0156  -11.6998   26.0077 C   0  0  0  0  0  0  0  0  0  0  0  0
    6.9442  -12.7894   26.1044 C   0  0  2  0  0  0  0  0  0  0  0  0
    5.6340  -12.2112   26.5626 C   0  0  0  0  0  0  0  0  0  0  0  0
    7.3865  -13.8972   27.0146 C   0  0  0  0  0  0  0  0  0  0  0  0
    8.6177  -14.5428   26.4954 C   0  0  2  0  0  0  0  0  0  0  0  0
    8.4062  -15.1432   25.1816 N   0  0  0  0  0  0  0  0  0  0  0  0
    9.2018  -15.4801   27.4389 C   0  0  0  0  0  0  0  0  0  0  0  0
    9.9509  -15.1808   28.5578 O   0  0  0  0  0  0  0  0  0  0  0  0
    9.0170  -16.7342   27.2283 O   0  0  0  0  0  0  0  0  0  0  0  0
  2  1  1  6
  2  4  1  0
  2  3  1  0
  4 11  1  0
  5  4  2  0
  7  8  2  0
  7  6  1  0
  9  7  1  0
 10  9  1  6
 10 12  1  0
 11 10  1  0
 12 13  2  0
 12 19  1  0
 15 14  1  1
 15 16  1  0
 18 17  1  1
 17 15  1  0
 18 20  1  0
 19 18  1  0
 20 22  2  0
 20 21  1  0
M  END
$$$$
