ANL.pdb
     RDKit          3D

 22 21  0  0  1  0  0  0  0  0999 V2000
    7.9732  -12.2235   20.1650 C   0  0  0  0  0  0  0  0  0  0  0  0
    8.3981  -13.5287   19.5167 C   0  0  2  0  0  0  0  0  0  0  0  0
    7.5537  -13.7109   18.3414 N   0  0  0  0  0  0  0  0  0  0  0  0
    8.1212  -14.6067   20.5213 C   0  0  0  0  0  0  0  0  0  0  0  0
    6.9728  -15.0472   20.6412 O   0  0  0  0  0  0  0  0  0  0  0  0
   12.0868  -16.3931   20.5670 N   0  0  0  0  0  0  0  0  0  0  0  0
   11.4753  -16.7052   21.8014 C   0  0  0  0  0  0  0  0  0  0  0  0
   12.0920  -16.4798   22.8884 O   0  0  0  0  0  0  0  0  0  0  0  0
   10.1146  -17.2929   21.7582 C   0  0  0  0  0  0  0  0  0  0  0  0
    9.0379  -16.3191   22.1437 C   0  0  2  0  0  0  0  0  0  0  0  0
    9.1757  -15.1287   21.3414 N   0  0  0  0  0  0  0  0  0  0  0  0
    9.1263  -15.9856   23.6110 C   0  0  0  0  0  0  0  0  0  0  0  0
    9.1749  -16.9010   24.4679 O   0  0  0  0  0  0  0  0  0  0  0  0
    5.4367  -12.5095   26.4895 C   0  0  0  0  0  0  0  0  0  0  0  0
    6.8711  -13.0369   26.5842 C   0  0  2  0  0  0  0  0  0  0  0  0
    7.7769  -12.0123   27.2090 C   0  0  0  0  0  0  0  0  0  0  0  0
    7.3812  -13.4487   25.2345 C   0  0  0  0  0  0  0  0  0  0  0  0
    8.6183  -14.2577   25.3656 C   0  0  2  0  0  0  0  0  0  0  0  0
    9.1571  -14.6449   24.0652 N   0  0  0  0  0  0  0  0  0  0  0  0
    8.4542  -15.3964   26.2522 C   0  0  0  0  0  0  0  0  0  0  0  0
    9.1693  -15.6714   27.3993 O   0  0  0  0  0  0  0  0  0  0  0  0
    7.5505  -16.2604   25.9552 O   0  0  0  0  0  0  0  0  0  0  0  0
  2  1  1  1
  2  4  1  0
  2  3  1  0
  4 11  1  0
  5  4  2  0
  7  8  2  0
  7  6  1  0
  9  7  1  0
 10  9  1  6
 10 12  1  0
 11 10  1  0
 12 13  2  0
 12 19  1  0
 15 14  1  6
 15 16  1  0
 18 17  1  6
 17 15  1  0
 18 20  1  0
 19 18  1  0
 20 22  2  0
 20 21  1  0
M  END
$$$$
