ANL.pdb
     RDKit          3D

 22 21  0  0  1  0  0  0  0  0999 V2000
    8.5905  -12.2130   19.6279 C   0  0  0  0  0  0  0  0  0  0  0  0
    8.4682  -13.6859   19.2816 C   0  0  2  0  0  0  0  0  0  0  0  0
    7.4218  -13.7967   18.2715 N   0  0  0  0  0  0  0  0  0  0  0  0
    8.0432  -14.3798   20.5408 C   0  0  0  0  0  0  0  0  0  0  0  0
    6.8545  -14.3566   20.8778 O   0  0  0  0  0  0  0  0  0  0  0  0
    9.3956  -18.3393   20.0748 N   0  0  0  0  0  0  0  0  0  0  0  0
    8.6635  -18.0967   21.2582 C   0  0  0  0  0  0  0  0  0  0  0  0
    7.5048  -18.5968   21.3997 O   0  0  0  0  0  0  0  0  0  0  0  0
    9.3042  -17.2511   22.2941 C   0  0  0  0  0  0  0  0  0  0  0  0
    8.6373  -15.9159   22.4625 C   0  0  2  0  0  0  0  0  0  0  0  0
    9.0030  -15.0681   21.3546 N   0  0  0  0  0  0  0  0  0  0  0  0
    9.0387  -15.2847   23.7712 C   0  0  0  0  0  0  0  0  0  0  0  0
   10.2246  -14.9225   23.9635 O   0  0  0  0  0  0  0  0  0  0  0  0
    7.7561  -11.6902   25.7490 C   0  0  0  0  0  0  0  0  0  0  0  0
    6.7773  -12.8482   25.9630 C   0  0  2  0  0  0  0  0  0  0  0  0
    5.4844  -12.3533   26.5497 C   0  0  0  0  0  0  0  0  0  0  0  0
    7.3853  -13.9110   26.8302 C   0  0  0  0  0  0  0  0  0  0  0  0
    8.5040  -14.5859   26.1266 C   0  0  2  0  0  0  0  0  0  0  0  0
    8.1024  -15.0823   24.8138 N   0  0  0  0  0  0  0  0  0  0  0  0
    9.1353  -15.6162   26.9327 C   0  0  0  0  0  0  0  0  0  0  0  0
    9.2891  -16.9492   26.6130 O   0  0  0  0  0  0  0  0  0  0  0  0
    9.6086  -15.2739   28.0773 O   0  0  0  0  0  0  0  0  0  0  0  0
  2  1  1  1
  2  4  1  0
  2  3  1  0
  4 11  1  0
  5  4  2  0
  7  8  2  0
  7  6  1  0
  9  7  1  0
 10  9  1  6
 10 12  1  0
 11 10  1  0
 12 13  2  0
 12 19  1  0
 15 14  1  1
 15 16  1  0
 18 17  1  1
 17 15  1  0
 18 20  1  0
 19 18  1  0
 20 22  2  0
 20 21  1  0
M  END
$$$$
