ANL.pdb
     RDKit          3D

 22 21  0  0  1  0  0  0  0  0999 V2000
    8.3388  -12.3312   19.3079 C   0  0  0  0  0  0  0  0  0  0  0  0
    8.5497  -13.7551   18.8258 C   0  0  2  0  0  0  0  0  0  0  0  0
    7.5423  -14.0077   17.8017 N   0  0  0  0  0  0  0  0  0  0  0  0
    8.3106  -14.6402   20.0121 C   0  0  0  0  0  0  0  0  0  0  0  0
    7.1533  -14.9408   20.3245 O   0  0  0  0  0  0  0  0  0  0  0  0
   11.0323  -18.0401   19.7897 N   0  0  0  0  0  0  0  0  0  0  0  0
   10.1534  -18.0656   20.8953 C   0  0  0  0  0  0  0  0  0  0  0  0
    9.2519  -18.9571   20.9670 O   0  0  0  0  0  0  0  0  0  0  0  0
   10.3371  -17.0249   21.9355 C   0  0  0  0  0  0  0  0  0  0  0  0
    9.2473  -15.9914   21.9361 C   0  0  2  0  0  0  0  0  0  0  0  0
    9.4113  -15.1390   20.7845 N   0  0  0  0  0  0  0  0  0  0  0  0
    9.2857  -15.1823   23.2074 C   0  0  0  0  0  0  0  0  0  0  0  0
   10.3144  -14.5333   23.5155 O   0  0  0  0  0  0  0  0  0  0  0  0
    5.7000  -12.1791   27.1649 C   0  0  0  0  0  0  0  0  0  0  0  0
    7.0494  -12.8251   26.8385 C   0  0  2  0  0  0  0  0  0  0  0  0
    8.1425  -11.7932   26.8089 C   0  0  0  0  0  0  0  0  0  0  0  0
    6.9855  -13.5730   25.5394 C   0  0  0  0  0  0  0  0  0  0  0  0
    8.2161  -14.3770   25.3357 C   0  0  2  0  0  0  0  0  0  0  0  0
    8.1758  -15.1286   24.0848 N   0  0  0  0  0  0  0  0  0  0  0  0
    8.5297  -15.2231   26.4739 C   0  0  0  0  0  0  0  0  0  0  0  0
    9.3728  -14.9295   27.5254 O   0  0  0  0  0  0  0  0  0  0  0  0
    7.9750  -16.3809   26.5293 O   0  0  0  0  0  0  0  0  0  0  0  0
  2  1  1  1
  2  4  1  0
  2  3  1  0
  4 11  1  0
  5  4  2  0
  7  8  2  0
  7  6  1  0
  9  7  1  0
 10  9  1  1
 10 12  1  0
 11 10  1  0
 12 13  2  0
 12 19  1  0
 15 14  1  6
 15 16  1  0
 18 17  1  1
 17 15  1  0
 18 20  1  0
 19 18  1  0
 20 22  2  0
 20 21  1  0
M  END
$$$$
