ANL.pdb
     RDKit          3D

 22 21  0  0  1  0  0  0  0  0999 V2000
    7.9873  -12.3075   20.1681 C   0  0  0  0  0  0  0  0  0  0  0  0
    8.2267  -13.7093   19.6369 C   0  0  2  0  0  0  0  0  0  0  0  0
    7.1660  -13.9827   18.6738 N   0  0  0  0  0  0  0  0  0  0  0  0
    8.1040  -14.6311   20.8129 C   0  0  0  0  0  0  0  0  0  0  0  0
    6.9828  -14.9715   21.2057 O   0  0  0  0  0  0  0  0  0  0  0  0
   10.7636  -17.8958   20.1671 N   0  0  0  0  0  0  0  0  0  0  0  0
   10.0381  -18.0340   21.3712 C   0  0  0  0  0  0  0  0  0  0  0  0
    9.1922  -18.9729   21.4966 O   0  0  0  0  0  0  0  0  0  0  0  0
   10.3112  -17.0513   22.4475 C   0  0  0  0  0  0  0  0  0  0  0  0
    9.2236  -16.0271   22.6024 C   0  0  2  0  0  0  0  0  0  0  0  0
    9.2743  -15.1191   21.4832 N   0  0  0  0  0  0  0  0  0  0  0  0
    9.3812  -15.2799   23.9021 C   0  0  0  0  0  0  0  0  0  0  0  0
   10.3990  -14.5762   24.1099 O   0  0  0  0  0  0  0  0  0  0  0  0
    8.0307  -11.8630   25.8909 C   0  0  0  0  0  0  0  0  0  0  0  0
    6.9825  -12.9792   25.8806 C   0  0  2  0  0  0  0  0  0  0  0  0
    5.6340  -12.4496   26.2826 C   0  0  0  0  0  0  0  0  0  0  0  0
    7.3981  -14.1132   26.7710 C   0  0  0  0  0  0  0  0  0  0  0  0
    8.6173  -14.7747   26.2438 C   0  0  2  0  0  0  0  0  0  0  0  0
    8.3979  -15.3466   24.9186 N   0  0  0  0  0  0  0  0  0  0  0  0
    9.1788  -15.7408   27.1718 C   0  0  0  0  0  0  0  0  0  0  0  0
    9.3584  -17.0924   26.9628 O   0  0  0  0  0  0  0  0  0  0  0  0
    9.5552  -15.3145   28.3241 O   0  0  0  0  0  0  0  0  0  0  0  0
  2  1  1  1
  2  4  1  0
  2  3  1  0
  4 11  1  0
  5  4  2  0
  7  8  2  0
  7  6  1  0
  9  7  1  0
 10  9  1  6
 10 12  1  0
 11 10  1  0
 12 13  2  0
 12 19  1  0
 15 14  1  1
 15 16  1  0
 18 17  1  1
 17 15  1  0
 18 20  1  0
 19 18  1  0
 20 22  2  0
 20 21  1  0
M  END
$$$$
