ANL.pdb
     RDKit          3D

 22 21  0  0  1  0  0  0  0  0999 V2000
    8.2481  -12.2076   19.9143 C   0  0  0  0  0  0  0  0  0  0  0  0
    8.5029  -13.6069   19.3839 C   0  0  2  0  0  0  0  0  0  0  0  0
    7.5269  -13.8415   18.3257 N   0  0  0  0  0  0  0  0  0  0  0  0
    8.2547  -14.5421   20.5292 C   0  0  0  0  0  0  0  0  0  0  0  0
    7.0946  -14.8474   20.8260 O   0  0  0  0  0  0  0  0  0  0  0  0
    8.9675  -19.1633   21.4696 N   0  0  0  0  0  0  0  0  0  0  0  0
    9.8272  -18.0980   21.1216 C   0  0  0  0  0  0  0  0  0  0  0  0
   10.2589  -17.9956   19.9317 O   0  0  0  0  0  0  0  0  0  0  0  0
   10.1862  -17.1354   22.1908 C   0  0  0  0  0  0  0  0  0  0  0  0
    9.1810  -16.0313   22.3538 C   0  0  2  0  0  0  0  0  0  0  0  0
    9.3502  -15.0834   21.2803 N   0  0  0  0  0  0  0  0  0  0  0  0
    9.3479  -15.3566   23.6914 C   0  0  0  0  0  0  0  0  0  0  0  0
   10.4551  -14.8671   24.0213 O   0  0  0  0  0  0  0  0  0  0  0  0
    7.8783  -11.9059   25.9761 C   0  0  0  0  0  0  0  0  0  0  0  0
    6.7949  -12.9815   25.8577 C   0  0  2  0  0  0  0  0  0  0  0  0
    5.4831  -12.4799   26.3947 C   0  0  0  0  0  0  0  0  0  0  0  0
    7.2116  -14.2417   26.5573 C   0  0  0  0  0  0  0  0  0  0  0  0
    8.4674  -14.7752   25.9737 C   0  0  2  0  0  0  0  0  0  0  0  0
    8.2739  -15.2542   24.6083 N   0  0  0  0  0  0  0  0  0  0  0  0
    9.1018  -15.7713   26.8194 C   0  0  0  0  0  0  0  0  0  0  0  0
    9.3840  -17.0825   26.4973 O   0  0  0  0  0  0  0  0  0  0  0  0
    9.4452  -15.4173   28.0060 O   0  0  0  0  0  0  0  0  0  0  0  0
  2  1  1  1
  2  4  1  0
  2  3  1  0
  4 11  1  0
  5  4  2  0
  7  8  2  0
  7  6  1  0
  9  7  1  0
 10  9  1  6
 10 12  1  0
 11 10  1  0
 12 13  2  0
 12 19  1  0
 15 14  1  1
 15 16  1  0
 18 17  1  1
 17 15  1  0
 18 20  1  0
 19 18  1  0
 20 22  2  0
 20 21  1  0
M  END
$$$$
