KRD.pdb
     RDKit          3D

 29 28  0  0  1  0  0  0  0  0999 V2000
   17.5289  -23.1575  -11.9819 N   0  0  0  0  0  0  0  0  0  0  0  0
   18.7916  -23.1272  -12.7008 C   0  0  1  0  0  0  0  0  0  0  0  0
   18.5516  -23.8351  -14.0076 C   0  0  0  0  0  0  0  0  0  0  0  0
   17.1034  -24.1827  -14.1467 C   0  0  0  0  0  0  0  0  0  0  0  0
   16.8832  -25.0566  -15.3499 C   0  0  0  0  0  0  0  0  0  0  0  0
   15.3944  -25.4063  -15.4885 C   0  0  0  0  0  0  0  0  0  0  0  0
   15.2575  -26.2591  -16.6498 N   0  0  0  0  0  0  0  0  0  0  0  0
   19.2141  -21.7050  -12.9428 C   0  0  0  0  0  0  0  0  0  0  0  0
   18.3755  -20.7899  -12.8176 O   0  0  0  0  0  0  0  0  0  0  0  0
   23.3287  -23.4335  -15.3341 N   0  0  0  0  0  0  0  0  0  0  0  0
   24.7451  -23.3726  -15.0674 C   0  0  0  0  0  0  0  0  0  0  0  0
   25.5346  -24.2607  -15.5455 N   0  0  0  0  0  0  0  0  0  0  0  0
   25.2951  -22.3362  -14.2711 N   0  0  0  0  0  0  0  0  0  0  0  0
   24.5664  -21.1970  -13.8346 C   0  0  0  0  0  0  0  0  0  0  0  0
   23.0857  -21.2264  -14.0961 C   0  0  0  0  0  0  0  0  0  0  0  0
   22.3988  -19.9821  -13.6715 C   0  0  0  0  0  0  0  0  0  0  0  0
   20.8892  -20.0000  -13.7478 C   0  0  2  0  0  0  0  0  0  0  0  0
   20.5286  -21.3638  -13.3084 N   0  0  0  0  0  0  0  0  0  0  0  0
   20.3374  -19.8589  -15.0955 C   0  0  0  0  0  0  0  0  0  0  0  0
   19.5806  -20.7874  -15.5723 O   0  0  0  0  0  0  0  0  0  0  0  0
   26.5529  -24.1904  -15.3385 N   0  0  0  0  0  0  0  0  0  0  0  0
   20.5262  -18.7895  -15.9934 C   0  0  1  0  0  0  0  0  0  0  0  0
   19.4252  -18.0151  -16.5550 C   0  0  0  0  0  0  0  0  0  0  0  0
   18.6519  -17.2914  -15.5117 C   0  0  0  0  0  0  0  0  0  0  0  0
   17.5156  -16.5790  -16.1284 O   0  0  0  0  0  0  0  0  0  0  0  0
   16.5783  -17.2135  -16.7341 C   0  0  0  0  0  0  0  0  0  0  0  0
   19.9936  -17.0172  -17.5168 O   0  0  0  0  0  0  0  0  0  0  0  0
   19.3318  -16.5494  -18.4640 O   0  0  0  0  0  0  0  0  0  0  0  0
   17.3650  -15.2041  -16.1126 O   0  0  0  0  0  0  0  0  0  0  0  0
  2  1  1  1
  3  2  1  0
  4  5  1  0
  4  3  1  0
  5  6  1  0
  7  6  1  0
  8  9  2  0
  8  2  1  0
 10 11  1  0
 11 12  2  0
 13 11  1  0
 13 14  1  0
 14 15  1  0
 16 15  1  0
 17 16  1  6
 17 18  1  0
 18  8  1  0
 19 21  1  0
 19 17  1  0
 20 19  2  0
 22 21  1  0
 22 26  1  0
 23 24  1  0
 22 23  1  6
 24 25  2  0
 26 29  1  0
 27 26  2  0
 28 24  1  0
M  END
$$$$
