KRD.pdb
     RDKit          3D

 29 28  0  0  1  0  0  0  0  0999 V2000
   25.1728  -17.5036  -17.1695 N   0  0  0  0  0  0  0  0  0  0  0  0
   25.5833  -18.8970  -17.2162 C   0  0  1  0  0  0  0  0  0  0  0  0
   27.0000  -18.9380  -16.7084 C   0  0  0  0  0  0  0  0  0  0  0  0
   27.9216  -18.3042  -17.7015 C   0  0  0  0  0  0  0  0  0  0  0  0
   28.5380  -19.3477  -18.5909 C   0  0  0  0  0  0  0  0  0  0  0  0
   29.5782  -18.7071  -19.5214 C   0  0  0  0  0  0  0  0  0  0  0  0
   30.0904  -19.7525  -20.3812 N   0  0  0  0  0  0  0  0  0  0  0  0
   24.6869  -19.7290  -16.3422 C   0  0  0  0  0  0  0  0  0  0  0  0
   24.9163  -20.9491  -16.2194 O   0  0  0  0  0  0  0  0  0  0  0  0
   26.6422  -21.8261  -10.1325 N   0  0  0  0  0  0  0  0  0  0  0  0
   25.6286  -21.1238  -10.8810 C   0  0  0  0  0  0  0  0  0  0  0  0
   25.8438  -20.7714  -12.0934 N   0  0  0  0  0  0  0  0  0  0  0  0
   24.3770  -20.8048  -10.2955 N   0  0  0  0  0  0  0  0  0  0  0  0
   23.3302  -20.1273  -10.9768 C   0  0  0  0  0  0  0  0  0  0  0  0
   23.0074  -20.6367  -12.3545 C   0  0  0  0  0  0  0  0  0  0  0  0
   23.0720  -19.5784  -13.3920 C   0  0  0  0  0  0  0  0  0  0  0  0
   22.7129  -20.0055  -14.7969 C   0  0  2  0  0  0  0  0  0  0  0  0
   23.5904  -19.1807  -15.6528 N   0  0  0  0  0  0  0  0  0  0  0  0
   21.3454  -19.6876  -15.2083 C   0  0  0  0  0  0  0  0  0  0  0  0
   20.9621  -18.4571  -15.2421 O   0  0  0  0  0  0  0  0  0  0  0  0
   25.1152  -20.2192  -12.5923 N   0  0  0  0  0  0  0  0  0  0  0  0
   20.3338  -20.5884  -15.5967 C   0  0  1  0  0  0  0  0  0  0  0  0
   18.9784  -20.1689  -15.9347 C   0  0  0  0  0  0  0  0  0  0  0  0
   18.5020  -20.7669  -17.2098 C   0  0  0  0  0  0  0  0  0  0  0  0
   17.1549  -20.2577  -17.5340 O   0  0  0  0  0  0  0  0  0  0  0  0
   16.5449  -19.4385  -16.7564 C   0  0  0  0  0  0  0  0  0  0  0  0
   18.0635  -20.5952  -14.8277 O   0  0  0  0  0  0  0  0  0  0  0  0
   18.2464  -21.6410  -14.1744 O   0  0  0  0  0  0  0  0  0  0  0  0
   16.4481  -20.6101  -18.6697 O   0  0  0  0  0  0  0  0  0  0  0  0
  2  1  1  1
  3  2  1  0
  4  5  1  0
  4  3  1  0
  5  6  1  0
  7  6  1  0
  8  9  2  0
  8  2  1  0
 10 11  1  0
 11 12  2  0
 13 11  1  0
 13 14  1  0
 14 15  1  0
 16 15  1  0
 17 16  1  1
 17 18  1  0
 18  8  1  0
 19 21  1  0
 19 17  1  0
 20 19  2  0
 22 21  1  0
 22 26  1  0
 23 24  1  0
 22 23  1  1
 24 25  2  0
 26 29  1  0
 27 26  2  0
 28 24  1  0
M  END
$$$$
