KRD.pdb
     RDKit          3D

 29 28  0  0  1  0  0  0  0  0999 V2000
   25.1253  -12.2134  -18.9379 N   0  0  0  0  0  0  0  0  0  0  0  0
   25.2505  -11.0400  -18.0896 C   0  0  1  0  0  0  0  0  0  0  0  0
   26.3131  -10.1767  -18.7156 C   0  0  0  0  0  0  0  0  0  0  0  0
   27.6038  -10.9280  -18.7997 C   0  0  0  0  0  0  0  0  0  0  0  0
   28.6985  -10.1778  -18.0935 C   0  0  0  0  0  0  0  0  0  0  0  0
   30.0288  -10.9347  -18.2184 C   0  0  0  0  0  0  0  0  0  0  0  0
   31.0254  -10.1795  -17.4897 N   0  0  0  0  0  0  0  0  0  0  0  0
   23.9415  -10.3034  -18.0306 C   0  0  0  0  0  0  0  0  0  0  0  0
   23.6712   -9.4680  -18.9168 O   0  0  0  0  0  0  0  0  0  0  0  0
   16.5108  -13.0670  -14.1246 N   0  0  0  0  0  0  0  0  0  0  0  0
   16.1322  -11.8589  -14.8160 C   0  0  0  0  0  0  0  0  0  0  0  0
   14.8996  -11.5236  -14.9101 N   0  0  0  0  0  0  0  0  0  0  0  0
   17.1091  -11.0190  -15.4085 N   0  0  0  0  0  0  0  0  0  0  0  0
   18.4632  -11.3971  -15.6149 C   0  0  0  0  0  0  0  0  0  0  0  0
   19.3601  -10.3351  -16.1889 C   0  0  0  0  0  0  0  0  0  0  0  0
   20.7321  -10.8256  -16.4672 C   0  0  0  0  0  0  0  0  0  0  0  0
   21.7200   -9.7894  -16.9525 C   0  0  2  0  0  0  0  0  0  0  0  0
   23.0026  -10.5210  -17.0062 N   0  0  0  0  0  0  0  0  0  0  0  0
   21.9403   -8.6699  -16.0367 C   0  0  0  0  0  0  0  0  0  0  0  0
   22.6020   -8.8616  -14.9469 O   0  0  0  0  0  0  0  0  0  0  0  0
   14.6583  -10.6252  -15.3784 N   0  0  0  0  0  0  0  0  0  0  0  0
   21.5086   -7.3374  -16.1895 C   0  0  2  0  0  0  0  0  0  0  0  0
   21.7667   -6.2965  -15.2009 C   0  0  0  0  0  0  0  0  0  0  0  0
   22.3839   -5.0850  -15.8022 C   0  0  0  0  0  0  0  0  0  0  0  0
   22.5099   -4.0240  -14.7837 O   0  0  0  0  0  0  0  0  0  0  0  0
   22.4326   -4.2885  -13.5299 C   0  0  0  0  0  0  0  0  0  0  0  0
   20.4636   -5.9138  -14.5687 O   0  0  0  0  0  0  0  0  0  0  0  0
   20.3890   -5.0876  -13.6382 O   0  0  0  0  0  0  0  0  0  0  0  0
   22.7131   -2.6882  -15.0801 O   0  0  0  0  0  0  0  0  0  0  0  0
  2  1  1  6
  3  2  1  0
  4  5  1  0
  4  3  1  0
  5  6  1  0
  7  6  1  0
  8  9  2  0
  8  2  1  0
 10 11  1  0
 11 12  2  0
 13 11  1  0
 13 14  1  0
 14 15  1  0
 16 15  1  0
 17 16  1  1
 17 18  1  0
 18  8  1  0
 19 21  1  0
 19 17  1  0
 20 19  2  0
 22 21  1  0
 22 26  1  0
 23 24  1  0
 22 23  1  6
 24 25  2  0
 26 29  1  0
 27 26  2  0
 28 24  1  0
M  END
$$$$
