KRD.pdb
     RDKit          3D

 29 28  0  0  1  0  0  0  0  0999 V2000
   26.1052  -21.3695  -15.1933 N   0  0  0  0  0  0  0  0  0  0  0  0
   24.9434  -20.5137  -15.3666 C   0  0  1  0  0  0  0  0  0  0  0  0
   24.6070  -20.5488  -16.8336 C   0  0  0  0  0  0  0  0  0  0  0  0
   25.7052  -19.9174  -17.6291 C   0  0  0  0  0  0  0  0  0  0  0  0
   25.4598  -18.4432  -17.7908 C   0  0  0  0  0  0  0  0  0  0  0  0
   26.5652  -17.8104  -18.6487 C   0  0  0  0  0  0  0  0  0  0  0  0
   26.3314  -16.3824  -18.6697 N   0  0  0  0  0  0  0  0  0  0  0  0
   23.7929  -21.0333  -14.5505 C   0  0  0  0  0  0  0  0  0  0  0  0
   23.6689  -22.2637  -14.3851 O   0  0  0  0  0  0  0  0  0  0  0  0
   20.0233  -22.2547   -8.5308 N   0  0  0  0  0  0  0  0  0  0  0  0
   19.5719  -20.8918   -8.3908 C   0  0  0  0  0  0  0  0  0  0  0  0
   18.3660  -20.6399   -8.0402 N   0  0  0  0  0  0  0  0  0  0  0  0
   20.4457  -19.8031   -8.6398 N   0  0  0  0  0  0  0  0  0  0  0  0
   20.5103  -19.1015   -9.8738 C   0  0  0  0  0  0  0  0  0  0  0  0
   20.4458  -19.9496  -11.1141 C   0  0  0  0  0  0  0  0  0  0  0  0
   21.6627  -19.8375  -11.9550 C   0  0  0  0  0  0  0  0  0  0  0  0
   21.6913  -20.6994  -13.1966 C   0  0  2  0  0  0  0  0  0  0  0  0
   22.8430  -20.1791  -13.9622 N   0  0  0  0  0  0  0  0  0  0  0  0
   20.5317  -20.5530  -14.0766 C   0  0  0  0  0  0  0  0  0  0  0  0
   20.3753  -19.4616  -14.7450 O   0  0  0  0  0  0  0  0  0  0  0  0
   18.0574  -19.6470   -7.9821 N   0  0  0  0  0  0  0  0  0  0  0  0
   19.5069  -21.4914  -14.3104 C   0  0  2  0  0  0  0  0  0  0  0  0
   18.3395  -21.2087  -15.1378 C   0  0  0  0  0  0  0  0  0  0  0  0
   17.6693  -22.4475  -15.6136 C   0  0  0  0  0  0  0  0  0  0  0  0
   18.3991  -23.0044  -16.7696 O   0  0  0  0  0  0  0  0  0  0  0  0
   19.4119  -22.3990  -17.2754 C   0  0  0  0  0  0  0  0  0  0  0  0
   17.3661  -20.4131  -14.3230 O   0  0  0  0  0  0  0  0  0  0  0  0
   16.5517  -19.6226  -14.8385 O   0  0  0  0  0  0  0  0  0  0  0  0
   18.0650  -24.1919  -17.3954 O   0  0  0  0  0  0  0  0  0  0  0  0
  2  1  1  6
  3  2  1  0
  4  5  1  0
  4  3  1  0
  5  6  1  0
  7  6  1  0
  8  9  2  0
  8  2  1  0
 10 11  1  0
 11 12  2  0
 13 11  1  0
 13 14  1  0
 14 15  1  0
 16 15  1  0
 17 16  1  1
 17 18  1  0
 18  8  1  0
 19 21  1  0
 19 17  1  0
 20 19  2  0
 22 21  1  0
 22 26  1  0
 23 24  1  0
 22 23  1  1
 24 25  2  0
 26 29  1  0
 27 26  2  0
 28 24  1  0
M  END
$$$$
