KRD.pdb
     RDKit          3D

 29 28  0  0  1  0  0  0  0  0999 V2000
   28.2699  -21.5791  -17.4654 N   0  0  0  0  0  0  0  0  0  0  0  0
   27.6416  -22.8496  -17.1445 C   0  0  1  0  0  0  0  0  0  0  0  0
   28.7126  -23.7066  -16.5241 C   0  0  0  0  0  0  0  0  0  0  0  0
   28.7950  -25.0215  -17.2325 C   0  0  0  0  0  0  0  0  0  0  0  0
   27.5002  -25.7740  -17.1014 C   0  0  0  0  0  0  0  0  0  0  0  0
   27.6112  -27.1467  -17.7808 C   0  0  0  0  0  0  0  0  0  0  0  0
   26.3822  -27.8621  -17.5120 N   0  0  0  0  0  0  0  0  0  0  0  0
   26.5115  -22.6370  -16.1763 C   0  0  0  0  0  0  0  0  0  0  0  0
   25.6518  -23.5302  -16.0365 O   0  0  0  0  0  0  0  0  0  0  0  0
   25.9335  -20.5824   -8.0792 N   0  0  0  0  0  0  0  0  0  0  0  0
   24.9286  -20.8986   -9.0646 C   0  0  0  0  0  0  0  0  0  0  0  0
   23.6927  -20.9631   -8.7343 N   0  0  0  0  0  0  0  0  0  0  0  0
   25.2820  -21.1477  -10.4152 N   0  0  0  0  0  0  0  0  0  0  0  0
   26.5642  -20.8767  -10.9645 C   0  0  0  0  0  0  0  0  0  0  0  0
   26.7551  -21.2633  -12.4053 C   0  0  0  0  0  0  0  0  0  0  0  0
   25.8994  -20.4824  -13.3316 C   0  0  0  0  0  0  0  0  0  0  0  0
   25.2712  -21.2589  -14.4664 C   0  0  2  0  0  0  0  0  0  0  0  0
   26.3847  -21.4602  -15.4166 N   0  0  0  0  0  0  0  0  0  0  0  0
   24.2397  -20.5372  -15.2117 C   0  0  0  0  0  0  0  0  0  0  0  0
   24.5218  -19.3983  -15.7461 O   0  0  0  0  0  0  0  0  0  0  0  0
   22.9880  -21.1838   -9.4687 N   0  0  0  0  0  0  0  0  0  0  0  0
   22.9081  -20.9366  -15.4418 C   0  0  1  0  0  0  0  0  0  0  0  0
   21.9179  -20.0804  -16.0849 C   0  0  0  0  0  0  0  0  0  0  0  0
   21.5805  -20.5379  -17.4586 C   0  0  0  0  0  0  0  0  0  0  0  0
   20.6041  -19.6163  -18.0722 O   0  0  0  0  0  0  0  0  0  0  0  0
   20.9752  -18.5134  -18.6143 C   0  0  0  0  0  0  0  0  0  0  0  0
   20.6734  -20.0908  -15.2510 O   0  0  0  0  0  0  0  0  0  0  0  0
   19.6753  -19.3983  -15.5306 O   0  0  0  0  0  0  0  0  0  0  0  0
   19.2413  -19.8499  -18.1139 O   0  0  0  0  0  0  0  0  0  0  0  0
  2  1  1  1
  3  2  1  0
  4  5  1  0
  4  3  1  0
  5  6  1  0
  7  6  1  0
  8  9  2  0
  8  2  1  0
 10 11  1  0
 11 12  2  0
 13 11  1  0
 13 14  1  0
 14 15  1  0
 16 15  1  0
 17 16  1  1
 17 18  1  0
 18  8  1  0
 19 21  1  0
 19 17  1  0
 20 19  2  0
 22 21  1  0
 22 26  1  0
 23 24  1  0
 22 23  1  6
 24 25  2  0
 26 29  1  0
 27 26  2  0
 28 24  1  0
M  END
$$$$
