KRD.pdb
     RDKit          3D

 29 28  0  0  1  0  0  0  0  0999 V2000
   28.7122  -23.3576  -18.3170 N   0  0  0  0  0  0  0  0  0  0  0  0
   28.2730  -22.0440  -17.8770 C   0  0  1  0  0  0  0  0  0  0  0  0
   27.5237  -21.4387  -19.0340 C   0  0  0  0  0  0  0  0  0  0  0  0
   28.2678  -21.6753  -20.3099 C   0  0  0  0  0  0  0  0  0  0  0  0
   29.2022  -20.5330  -20.5959 C   0  0  0  0  0  0  0  0  0  0  0  0
   29.9057  -20.7456  -21.9443 C   0  0  0  0  0  0  0  0  0  0  0  0
   30.8067  -19.6305  -22.1417 N   0  0  0  0  0  0  0  0  0  0  0  0
   27.3747  -22.1743  -16.6789 C   0  0  0  0  0  0  0  0  0  0  0  0
   26.6767  -23.2001  -16.5486 O   0  0  0  0  0  0  0  0  0  0  0  0
   23.5189  -20.8549  -11.4197 N   0  0  0  0  0  0  0  0  0  0  0  0
   24.1731  -20.9991  -10.1421 C   0  0  0  0  0  0  0  0  0  0  0  0
   23.4926  -20.9720   -9.0573 N   0  0  0  0  0  0  0  0  0  0  0  0
   25.5781  -21.1702  -10.0555 N   0  0  0  0  0  0  0  0  0  0  0  0
   26.4360  -21.2850  -11.1825 C   0  0  0  0  0  0  0  0  0  0  0  0
   26.2898  -20.2152  -12.2293 C   0  0  0  0  0  0  0  0  0  0  0  0
   27.0869  -20.4882  -13.4502 C   0  0  0  0  0  0  0  0  0  0  0  0
   26.4023  -21.3107  -14.5179 C   0  0  2  0  0  0  0  0  0  0  0  0
   27.2895  -21.1762  -15.6916 N   0  0  0  0  0  0  0  0  0  0  0  0
   25.0985  -20.8038  -14.9464 C   0  0  0  0  0  0  0  0  0  0  0  0
   25.0293  -19.6810  -15.5763 O   0  0  0  0  0  0  0  0  0  0  0  0
   23.9960  -21.0330   -8.1476 N   0  0  0  0  0  0  0  0  0  0  0  0
   23.8386  -21.4062  -14.7585 C   0  0  2  0  0  0  0  0  0  0  0  0
   22.5920  -20.8124  -15.2283 C   0  0  0  0  0  0  0  0  0  0  0  0
   21.8882  -21.6771  -16.2118 C   0  0  0  0  0  0  0  0  0  0  0  0
   20.6662  -21.0031  -16.6933 O   0  0  0  0  0  0  0  0  0  0  0  0
   20.3494  -19.8260  -16.2908 C   0  0  0  0  0  0  0  0  0  0  0  0
   21.6981  -20.5962  -14.0458 O   0  0  0  0  0  0  0  0  0  0  0  0
   21.9140  -21.1268  -12.9386 O   0  0  0  0  0  0  0  0  0  0  0  0
   19.7772  -21.5644  -17.5922 O   0  0  0  0  0  0  0  0  0  0  0  0
  2  1  1  6
  3  2  1  0
  4  5  1  0
  4  3  1  0
  5  6  1  0
  7  6  1  0
  8  9  2  0
  8  2  1  0
 10 11  1  0
 11 12  2  0
 13 11  1  0
 13 14  1  0
 14 15  1  0
 16 15  1  0
 17 16  1  1
 17 18  1  0
 18  8  1  0
 19 21  1  0
 19 17  1  0
 20 19  2  0
 22 21  1  0
 22 26  1  0
 23 24  1  0
 22 23  1  1
 24 25  2  0
 26 29  1  0
 27 26  2  0
 28 24  1  0
M  END
$$$$
