KRD.pdb
     RDKit          3D

 29 28  0  0  1  0  0  0  0  0999 V2000
   27.1844  -22.8115  -16.5808 N   0  0  0  0  0  0  0  0  0  0  0  0
   25.9083  -23.5033  -16.5096 C   0  0  1  0  0  0  0  0  0  0  0  0
   26.2282  -24.9645  -16.3388 C   0  0  0  0  0  0  0  0  0  0  0  0
   26.5149  -25.5878  -17.6679 C   0  0  0  0  0  0  0  0  0  0  0  0
   25.4569  -26.5970  -18.0173 C   0  0  0  0  0  0  0  0  0  0  0  0
   25.7517  -27.2247  -19.3874 C   0  0  0  0  0  0  0  0  0  0  0  0
   24.7917  -28.2884  -19.5906 N   0  0  0  0  0  0  0  0  0  0  0  0
   25.1120  -22.9987  -15.3388 C   0  0  0  0  0  0  0  0  0  0  0  0
   25.7002  -22.4099  -14.4094 O   0  0  0  0  0  0  0  0  0  0  0  0
   20.7364  -16.2513  -15.0056 N   0  0  0  0  0  0  0  0  0  0  0  0
   20.0771  -16.9508  -13.9300 C   0  0  0  0  0  0  0  0  0  0  0  0
   19.1679  -16.3707  -13.2391 N   0  0  0  0  0  0  0  0  0  0  0  0
   20.4195  -18.2893  -13.6103 N   0  0  0  0  0  0  0  0  0  0  0  0
   21.4233  -19.0358  -14.2841 C   0  0  0  0  0  0  0  0  0  0  0  0
   21.6211  -20.4482  -13.8068 C   0  0  0  0  0  0  0  0  0  0  0  0
   22.6651  -21.1753  -14.5696 C   0  0  0  0  0  0  0  0  0  0  0  0
   22.9317  -22.5986  -14.1356 C   0  0  2  0  0  0  0  0  0  0  0  0
   23.7184  -23.1669  -15.2497 N   0  0  0  0  0  0  0  0  0  0  0  0
   21.7418  -23.4420  -14.0201 C   0  0  0  0  0  0  0  0  0  0  0  0
   21.0380  -23.6947  -15.0703 O   0  0  0  0  0  0  0  0  0  0  0  0
   18.7364  -16.8864  -12.4438 N   0  0  0  0  0  0  0  0  0  0  0  0
   21.2312  -24.0524  -12.8572 C   0  0  2  0  0  0  0  0  0  0  0  0
   20.0032  -24.8393  -12.8425 C   0  0  0  0  0  0  0  0  0  0  0  0
   20.1027  -26.0274  -11.9543 C   0  0  0  0  0  0  0  0  0  0  0  0
   18.8376  -26.7875  -11.9842 O   0  0  0  0  0  0  0  0  0  0  0  0
   17.8410  -26.3991  -12.6940 C   0  0  0  0  0  0  0  0  0  0  0  0
   18.8884  -23.9637  -12.3580 O   0  0  0  0  0  0  0  0  0  0  0  0
   17.7000  -24.3399  -12.3453 O   0  0  0  0  0  0  0  0  0  0  0  0
   18.6177  -27.9506  -11.2683 O   0  0  0  0  0  0  0  0  0  0  0  0
  2  1  1  1
  3  2  1  0
  4  5  1  0
  4  3  1  0
  5  6  1  0
  7  6  1  0
  8  9  2  0
  8  2  1  0
 10 11  1  0
 11 12  2  0
 13 11  1  0
 13 14  1  0
 14 15  1  0
 16 15  1  0
 17 16  1  6
 17 18  1  0
 18  8  1  0
 19 21  1  0
 19 17  1  0
 20 19  2  0
 22 21  1  0
 22 26  1  0
 23 24  1  0
 22 23  1  1
 24 25  2  0
 26 29  1  0
 27 26  2  0
 28 24  1  0
M  END
$$$$
