KRD.pdb
     RDKit          3D

 29 28  0  0  1  0  0  0  0  0999 V2000
   27.1598  -17.3030  -18.7806 N   0  0  0  0  0  0  0  0  0  0  0  0
   26.0518  -17.0102  -17.8869 C   0  0  1  0  0  0  0  0  0  0  0  0
   25.2299  -15.9474  -18.5660 C   0  0  0  0  0  0  0  0  0  0  0  0
   26.0372  -14.6990  -18.7313 C   0  0  0  0  0  0  0  0  0  0  0  0
   25.2800  -13.6837  -19.5410 C   0  0  0  0  0  0  0  0  0  0  0  0
   24.5761  -12.6816  -18.6144 C   0  0  0  0  0  0  0  0  0  0  0  0
   23.8858  -11.7273  -19.4554 N   0  0  0  0  0  0  0  0  0  0  0  0
   25.2290  -18.2479  -17.6618 C   0  0  0  0  0  0  0  0  0  0  0  0
   24.9768  -18.9966  -18.6273 O   0  0  0  0  0  0  0  0  0  0  0  0
   24.3927  -24.9611  -15.6849 N   0  0  0  0  0  0  0  0  0  0  0  0
   25.7696  -24.5335  -15.6396 C   0  0  0  0  0  0  0  0  0  0  0  0
   26.6510  -25.1029  -16.3741 N   0  0  0  0  0  0  0  0  0  0  0  0
   26.1802  -23.4804  -14.7832 N   0  0  0  0  0  0  0  0  0  0  0  0
   25.2944  -22.7329  -13.9611 C   0  0  0  0  0  0  0  0  0  0  0  0
   24.2888  -21.8813  -14.6860 C   0  0  0  0  0  0  0  0  0  0  0  0
   24.8927  -20.6788  -15.3103 C   0  0  0  0  0  0  0  0  0  0  0  0
   23.9701  -19.8449  -16.1698 C   0  0  2  0  0  0  0  0  0  0  0  0
   24.7279  -18.5966  -16.3947 N   0  0  0  0  0  0  0  0  0  0  0  0
   22.7220  -19.4399  -15.5229 C   0  0  0  0  0  0  0  0  0  0  0  0
   22.7197  -18.4272  -14.7249 O   0  0  0  0  0  0  0  0  0  0  0  0
   27.6038  -24.6859  -16.4290 N   0  0  0  0  0  0  0  0  0  0  0  0
   21.4514  -20.0333  -15.6601 C   0  0  1  0  0  0  0  0  0  0  0  0
   20.2502  -19.5034  -15.0247 C   0  0  0  0  0  0  0  0  0  0  0  0
   19.9719  -18.0983  -15.4230 C   0  0  0  0  0  0  0  0  0  0  0  0
   18.7322  -17.6260  -14.7754 O   0  0  0  0  0  0  0  0  0  0  0  0
   17.8480  -16.9627  -15.4282 C   0  0  0  0  0  0  0  0  0  0  0  0
   19.0884  -20.3600  -15.4253 O   0  0  0  0  0  0  0  0  0  0  0  0
   18.9809  -20.8499  -16.5666 O   0  0  0  0  0  0  0  0  0  0  0  0
   18.4228  -17.8463  -13.4453 O   0  0  0  0  0  0  0  0  0  0  0  0
  2  1  1  6
  3  2  1  0
  4  5  1  0
  4  3  1  0
  5  6  1  0
  7  6  1  0
  8  9  2  0
  8  2  1  0
 10 11  1  0
 11 12  2  0
 13 11  1  0
 13 14  1  0
 14 15  1  0
 16 15  1  0
 17 16  1  1
 17 18  1  0
 18  8  1  0
 19 21  1  0
 19 17  1  0
 20 19  2  0
 22 21  1  0
 22 26  1  0
 23 24  1  0
 22 23  1  1
 24 25  2  0
 26 29  1  0
 27 26  2  0
 28 24  1  0
M  END
$$$$
