KRD.pdb
     RDKit          3D

 29 28  0  0  1  0  0  0  0  0999 V2000
   21.8861  -21.0872  -13.7627 N   0  0  0  0  0  0  0  0  0  0  0  0
   22.6772  -20.7552  -14.9358 C   0  0  1  0  0  0  0  0  0  0  0  0
   21.9277  -19.6671  -15.6575 C   0  0  0  0  0  0  0  0  0  0  0  0
   20.4709  -20.0002  -15.7213 C   0  0  0  0  0  0  0  0  0  0  0  0
   19.9268  -19.7283  -17.0960 C   0  0  0  0  0  0  0  0  0  0  0  0
   18.4164  -20.0029  -17.1346 C   0  0  0  0  0  0  0  0  0  0  0  0
   17.9619  -19.7292  -18.4810 N   0  0  0  0  0  0  0  0  0  0  0  0
   24.0381  -20.2704  -14.5206 C   0  0  0  0  0  0  0  0  0  0  0  0
   24.1805  -19.0828  -14.1660 O   0  0  0  0  0  0  0  0  0  0  0  0
   26.1087  -19.7365   -8.5752 N   0  0  0  0  0  0  0  0  0  0  0  0
   25.0978  -20.7520   -8.7417 C   0  0  0  0  0  0  0  0  0  0  0  0
   23.9351  -20.6016   -8.2258 N   0  0  0  0  0  0  0  0  0  0  0  0
   25.3653  -21.9368   -9.4736 N   0  0  0  0  0  0  0  0  0  0  0  0
   26.2669  -22.0078  -10.5696 C   0  0  0  0  0  0  0  0  0  0  0  0
   25.8954  -21.1928  -11.7778 C   0  0  0  0  0  0  0  0  0  0  0  0
   26.8565  -21.3472  -12.8970 C   0  0  0  0  0  0  0  0  0  0  0  0
   26.5127  -20.6104  -14.1715 C   0  0  2  0  0  0  0  0  0  0  0  0
   25.1661  -21.1105  -14.5172 N   0  0  0  0  0  0  0  0  0  0  0  0
   27.3616  -20.9322  -15.3188 C   0  0  0  0  0  0  0  0  0  0  0  0
   27.6001  -22.1662  -15.6062 O   0  0  0  0  0  0  0  0  0  0  0  0
   23.2214  -21.3459   -8.3716 N   0  0  0  0  0  0  0  0  0  0  0  0
   27.9874  -20.0317  -16.2037 C   0  0  1  0  0  0  0  0  0  0  0  0
   28.0273  -20.2302  -17.6482 C   0  0  0  0  0  0  0  0  0  0  0  0
   26.7078  -20.6344  -18.2009 C   0  0  0  0  0  0  0  0  0  0  0  0
   26.8153  -20.8516  -19.6571 O   0  0  0  0  0  0  0  0  0  0  0  0
   26.6149  -19.8971  -20.4918 C   0  0  0  0  0  0  0  0  0  0  0  0
   28.4478  -18.9431  -18.2891 O   0  0  0  0  0  0  0  0  0  0  0  0
   28.7380  -18.8620  -19.4987 O   0  0  0  0  0  0  0  0  0  0  0  0
   27.1291  -22.0681  -20.2360 O   0  0  0  0  0  0  0  0  0  0  0  0
  2  1  1  1
  3  2  1  0
  4  5  1  0
  4  3  1  0
  5  6  1  0
  7  6  1  0
  8  9  2  0
  8  2  1  0
 10 11  1  0
 11 12  2  0
 13 11  1  0
 13 14  1  0
 14 15  1  0
 16 15  1  0
 17 16  1  1
 17 18  1  0
 18  8  1  0
 19 21  1  0
 19 17  1  0
 20 19  2  0
 22 21  1  0
 22 26  1  0
 23 24  1  0
 22 23  1  6
 24 25  2  0
 26 29  1  0
 27 26  2  0
 28 24  1  0
M  END
$$$$
