KRD.pdb
     RDKit          3D

 29 28  0  0  1  0  0  0  0  0999 V2000
   17.0768  -22.7552  -10.7283 N   0  0  0  0  0  0  0  0  0  0  0  0
   18.1320  -23.2366  -11.6039 C   0  0  1  0  0  0  0  0  0  0  0  0
   17.5001  -24.2675  -12.5009 C   0  0  0  0  0  0  0  0  0  0  0  0
   17.0833  -25.4605  -11.7007 C   0  0  0  0  0  0  0  0  0  0  0  0
   18.2677  -26.3375  -11.4041 C   0  0  0  0  0  0  0  0  0  0  0  0
   17.8290  -27.5705  -10.6007 C   0  0  0  0  0  0  0  0  0  0  0  0
   19.0038  -28.3890  -10.3902 N   0  0  0  0  0  0  0  0  0  0  0  0
   18.6866  -22.1006  -12.4172 C   0  0  0  0  0  0  0  0  0  0  0  0
   17.9003  -21.3065  -12.9716 O   0  0  0  0  0  0  0  0  0  0  0  0
   25.6365  -22.3457  -12.3231 N   0  0  0  0  0  0  0  0  0  0  0  0
   25.4685  -22.6453  -13.7241 C   0  0  0  0  0  0  0  0  0  0  0  0
   25.8852  -23.7570  -14.2050 N   0  0  0  0  0  0  0  0  0  0  0  0
   24.8445  -21.7207  -14.5996 N   0  0  0  0  0  0  0  0  0  0  0  0
   24.3808  -20.4377  -14.2020 C   0  0  0  0  0  0  0  0  0  0  0  0
   22.9006  -20.2062  -14.3330 C   0  0  0  0  0  0  0  0  0  0  0  0
   22.1000  -21.0458  -13.4085 C   0  0  0  0  0  0  0  0  0  0  0  0
   20.6060  -20.8167  -13.4316 C   0  0  2  0  0  0  0  0  0  0  0  0
   20.0689  -21.8974  -12.5791 N   0  0  0  0  0  0  0  0  0  0  0  0
   19.9746  -20.9929  -14.7396 C   0  0  0  0  0  0  0  0  0  0  0  0
   19.7434  -22.1831  -15.1781 O   0  0  0  0  0  0  0  0  0  0  0  0
   25.7793  -23.9330  -15.2260 N   0  0  0  0  0  0  0  0  0  0  0  0
   19.5587  -19.9877  -15.6352 C   0  0  1  0  0  0  0  0  0  0  0  0
   18.9056  -20.2729  -16.9077 C   0  0  0  0  0  0  0  0  0  0  0  0
   17.6922  -21.1162  -16.7449 C   0  0  0  0  0  0  0  0  0  0  0  0
   17.0576  -21.3467  -18.0577 O   0  0  0  0  0  0  0  0  0  0  0  0
   17.4255  -20.6961  -19.1014 C   0  0  0  0  0  0  0  0  0  0  0  0
   18.5110  -18.9718  -17.5367 O   0  0  0  0  0  0  0  0  0  0  0  0
   18.7060  -17.8736  -16.9799 O   0  0  0  0  0  0  0  0  0  0  0  0
   16.0370  -22.2551  -18.2740 O   0  0  0  0  0  0  0  0  0  0  0  0
  2  1  1  1
  3  2  1  0
  4  5  1  0
  4  3  1  0
  5  6  1  0
  7  6  1  0
  8  9  2  0
  8  2  1  0
 10 11  1  0
 11 12  2  0
 13 11  1  0
 13 14  1  0
 14 15  1  0
 16 15  1  0
 17 16  1  6
 17 18  1  0
 18  8  1  0
 19 21  1  0
 19 17  1  0
 20 19  2  0
 22 21  1  0
 22 26  1  0
 23 24  1  0
 22 23  1  6
 24 25  2  0
 26 29  1  0
 27 26  2  0
 28 24  1  0
M  END
$$$$
