RIK.pdb
     RDKit          3D

 29 28  0  0  1  0  0  0  0  0999 V2000
    8.8872  -19.9162   13.5946 N   0  0  0  0  0  0  0  0  0  0  0  0
   10.1285  -19.3558   13.1329 C   0  0  0  0  0  0  0  0  0  0  0  0
   10.9249  -20.0478   12.4050 N   0  0  0  0  0  0  0  0  0  0  0  0
   10.4649  -18.0271   13.4918 N   0  0  0  0  0  0  0  0  0  0  0  0
    9.5888  -17.2728   14.3857 C   0  0  0  0  0  0  0  0  0  0  0  0
    9.6309  -17.9533   15.7215 C   0  0  0  0  0  0  0  0  0  0  0  0
    9.8012  -17.0588   16.8883 C   0  0  0  0  0  0  0  0  0  0  0  0
    9.7351  -17.6983   18.2463 C   0  0  2  0  0  0  0  0  0  0  0  0
    8.4856  -18.3695   18.5004 N   0  0  0  0  0  0  0  0  0  0  0  0
    9.9021  -16.5683   19.2305 C   0  0  0  0  0  0  0  0  0  0  0  0
   10.9374  -15.8653   19.1624 O   0  0  0  0  0  0  0  0  0  0  0  0
   11.8365  -19.7000   12.0737 C   0  0  0  0  0  0  0  0  0  0  0  0
    6.3361  -12.8621   20.2929 C   0  0  0  0  0  0  0  0  0  0  0  0
    7.7149  -13.5456   20.1702 C   0  0  2  0  0  0  0  0  0  0  0  0
    7.9746  -14.3988   21.3607 C   0  0  0  0  0  0  0  0  0  0  0  0
    8.0529  -13.4569   22.5715 C   0  0  2  0  0  0  0  0  0  0  0  0
    9.1718  -15.2958   21.2945 N   0  0  0  0  0  0  0  0  0  0  0  0
    8.9302  -16.2909   20.2126 C   0  0  0  0  0  0  0  0  0  0  0  0
    9.4652  -16.0403   22.5404 O   0  0  0  0  0  0  0  0  0  0  0  0
    8.9929  -17.2292   22.6817 N   0  0  0  0  0  0  0  0  0  0  0  0
   10.2398  -15.5589   23.6175 C   0  0  2  0  0  0  0  0  0  0  0  0
   10.7576  -16.5028   24.6828 C   0  0  0  0  0  0  0  0  0  0  0  0
    9.5402  -17.0194   25.3060 C   0  0  0  0  0  0  0  0  0  0  0  0
    9.4611  -18.0159   26.3556 C   0  0  0  0  0  0  0  0  0  0  0  0
    8.0942  -18.4494   26.7515 C   0  0  0  0  0  0  0  0  0  0  0  0
    8.2085  -19.5226   27.8544 N   0  0  0  0  0  0  0  0  0  0  0  0
    6.8893  -19.9420   28.2287 C   0  0  0  0  0  0  0  0  0  0  0  0
   11.7642  -17.3553   24.0901 O   0  0  0  0  0  0  0  0  0  0  0  0
   11.5863  -18.3692   23.3571 O   0  0  0  0  0  0  0  0  0  0  0  0
  1  2  1  0
  2  3  2  0
  4  5  1  0
  4  2  1  0
  6  5  1  0
  7  6  1  0
  8  7  1  0
  8  9  1  1
 10  8  1  0
 10 17  1  0
 11 10  2  0
 12 13  1  0
 13 14  1  0
 14 16  1  0
 14 15  1  1
 16 17  1  6
 18 16  1  0
 19 18  2  0
 20 18  1  0
 21 20  1  0
 21 27  1  0
 21 22  1  6
 23 22  1  0
 24 23  1  0
 25 24  1  0
 26 25  1  0
 27 29  1  0
 28 27  2  0
M  END
$$$$
