RIK.pdb
     RDKit          3D

 29 28  0  0  1  0  0  0  0  0999 V2000
    6.8475  -20.2661   19.6108 N   0  0  0  0  0  0  0  0  0  0  0  0
    6.1451  -19.5324   18.5928 C   0  0  0  0  0  0  0  0  0  0  0  0
    5.1529  -20.0604   17.9766 N   0  0  0  0  0  0  0  0  0  0  0  0
    6.5618  -18.2160   18.2753 N   0  0  0  0  0  0  0  0  0  0  0  0
    7.8135  -17.6986   18.8240 C   0  0  0  0  0  0  0  0  0  0  0  0
    7.5917  -16.2486   19.1359 C   0  0  0  0  0  0  0  0  0  0  0  0
    8.0470  -15.8066   20.4731 C   0  0  0  0  0  0  0  0  0  0  0  0
    7.4906  -14.5068   20.9817 C   0  0  2  0  0  0  0  0  0  0  0  0
    7.7622  -13.3909   20.1115 N   0  0  0  0  0  0  0  0  0  0  0  0
    8.1624  -14.2759   22.3116 C   0  0  0  0  0  0  0  0  0  0  0  0
    9.3954  -14.0517   22.3269 O   0  0  0  0  0  0  0  0  0  0  0  0
    4.6249  -19.5781   17.2347 C   0  0  0  0  0  0  0  0  0  0  0  0
    5.6343  -11.4770   26.1486 C   0  0  0  0  0  0  0  0  0  0  0  0
    6.7943  -12.0148   25.2836 C   0  0  2  0  0  0  0  0  0  0  0  0
    7.1814  -13.3793   25.7317 C   0  0  0  0  0  0  0  0  0  0  0  0
    7.7622  -13.2323   27.1461 C   0  0  2  0  0  0  0  0  0  0  0  0
    8.1145  -14.1385   24.8398 N   0  0  0  0  0  0  0  0  0  0  0  0
    7.4409  -14.3070   23.5218 C   0  0  0  0  0  0  0  0  0  0  0  0
    8.4949  -15.4823   25.3315 O   0  0  0  0  0  0  0  0  0  0  0  0
    7.5903  -16.3941   25.4159 N   0  0  0  0  0  0  0  0  0  0  0  0
    9.7934  -15.8722   25.7238 C   0  0  1  0  0  0  0  0  0  0  0  0
   10.0724  -17.2888   26.1813 C   0  0  0  0  0  0  0  0  0  0  0  0
   11.1416  -17.7341   25.2893 C   0  0  0  0  0  0  0  0  0  0  0  0
   11.8582  -18.9923   25.3580 C   0  0  0  0  0  0  0  0  0  0  0  0
   12.9200  -19.2028   24.3375 C   0  0  0  0  0  0  0  0  0  0  0  0
   13.6486  -20.5294   24.6385 N   0  0  0  0  0  0  0  0  0  0  0  0
   14.5151  -20.8398   23.5391 C   0  0  0  0  0  0  0  0  0  0  0  0
   10.1944  -17.2897   27.6223 O   0  0  0  0  0  0  0  0  0  0  0  0
   10.3058  -16.2925   28.3905 O   0  0  0  0  0  0  0  0  0  0  0  0
  1  2  1  0
  2  3  2  0
  4  5  1  0
  4  2  1  0
  6  5  1  0
  7  6  1  0
  8  7  1  0
  8  9  1  6
 10  8  1  0
 10 17  1  0
 11 10  2  0
 12 13  1  0
 13 14  1  0
 14 16  1  0
 14 15  1  6
 16 17  1  6
 18 16  1  0
 19 18  2  0
 20 18  1  0
 21 20  1  0
 21 27  1  0
 21 22  1  1
 23 22  1  0
 24 23  1  0
 25 24  1  0
 26 25  1  0
 27 29  1  0
 28 27  2  0
M  END
$$$$
