RIK.pdb
     RDKit          3D

 29 28  0  0  1  0  0  0  0  0999 V2000
    7.7010  -14.8626   15.9852 N   0  0  0  0  0  0  0  0  0  0  0  0
    8.8377  -15.6557   16.3683 C   0  0  0  0  0  0  0  0  0  0  0  0
    9.9289  -15.5967   15.6983 N   0  0  0  0  0  0  0  0  0  0  0  0
    8.7400  -16.5069   17.4967 N   0  0  0  0  0  0  0  0  0  0  0  0
    7.4895  -16.5730   18.2500 C   0  0  0  0  0  0  0  0  0  0  0  0
    7.2478  -15.2085   18.8233 C   0  0  0  0  0  0  0  0  0  0  0  0
    7.7712  -14.9888   20.1902 C   0  0  0  0  0  0  0  0  0  0  0  0
    7.4986  -13.6482   20.8117 C   0  0  2  0  0  0  0  0  0  0  0  0
    8.0748  -12.5511   20.0765 N   0  0  0  0  0  0  0  0  0  0  0  0
    8.1198  -13.7085   22.1842 C   0  0  0  0  0  0  0  0  0  0  0  0
    9.3332  -13.4182   22.3037 O   0  0  0  0  0  0  0  0  0  0  0  0
   10.7562  -16.1730   15.9107 C   0  0  0  0  0  0  0  0  0  0  0  0
    5.7322  -11.5377   26.4172 C   0  0  0  0  0  0  0  0  0  0  0  0
    6.8516  -12.0309   25.4754 C   0  0  2  0  0  0  0  0  0  0  0  0
    7.0523  -13.4959   25.6369 C   0  0  0  0  0  0  0  0  0  0  0  0
    7.4971  -13.7241   27.0893 C   0  0  2  0  0  0  0  0  0  0  0  0
    7.9909  -14.1543   24.6737 N   0  0  0  0  0  0  0  0  0  0  0  0
    7.3731  -14.0801   23.3202 C   0  0  0  0  0  0  0  0  0  0  0  0
    8.2866  -15.5763   24.9615 O   0  0  0  0  0  0  0  0  0  0  0  0
    7.3079  -16.4009   25.0989 N   0  0  0  0  0  0  0  0  0  0  0  0
    9.5768  -16.1316   25.0992 C   0  0  1  0  0  0  0  0  0  0  0  0
    9.7591  -17.6084   25.3820 C   0  0  0  0  0  0  0  0  0  0  0  0
   10.8197  -18.0073   24.4582 C   0  0  0  0  0  0  0  0  0  0  0  0
   10.8511  -17.7806   23.0269 C   0  0  0  0  0  0  0  0  0  0  0  0
   11.9934  -18.3834   22.2888 C   0  0  0  0  0  0  0  0  0  0  0  0
   11.9420  -17.9178   20.8185 N   0  0  0  0  0  0  0  0  0  0  0  0
   13.0281  -18.5233   20.1045 C   0  0  0  0  0  0  0  0  0  0  0  0
    9.8477  -17.7936   26.8135 O   0  0  0  0  0  0  0  0  0  0  0  0
   10.1346  -16.9294   27.6897 O   0  0  0  0  0  0  0  0  0  0  0  0
  1  2  1  0
  2  3  2  0
  4  5  1  0
  4  2  1  0
  6  5  1  0
  7  6  1  0
  8  7  1  0
  8  9  1  6
 10  8  1  0
 10 17  1  0
 11 10  2  0
 12 13  1  0
 13 14  1  0
 14 16  1  0
 14 15  1  6
 16 17  1  6
 18 16  1  0
 19 18  2  0
 20 18  1  0
 21 20  1  0
 21 27  1  0
 21 22  1  1
 23 22  1  0
 24 23  1  0
 25 24  1  0
 26 25  1  0
 27 29  1  0
 28 27  2  0
M  END
$$$$
