RIK.pdb
     RDKit          3D

 29 28  0  0  1  0  0  0  0  0999 V2000
    8.4986  -12.0753   18.1310 N   0  0  0  0  0  0  0  0  0  0  0  0
    8.0721  -13.2723   17.4575 C   0  0  0  0  0  0  0  0  0  0  0  0
    8.7439  -13.7392   16.4708 N   0  0  0  0  0  0  0  0  0  0  0  0
    6.8978  -13.9328   17.8957 N   0  0  0  0  0  0  0  0  0  0  0  0
    6.7561  -14.3053   19.3017 C   0  0  0  0  0  0  0  0  0  0  0  0
    7.7096  -15.4345   19.5565 C   0  0  0  0  0  0  0  0  0  0  0  0
    8.5264  -15.3150   20.7850 C   0  0  0  0  0  0  0  0  0  0  0  0
    8.1067  -16.1512   21.9606 C   0  0  2  0  0  0  0  0  0  0  0  0
    6.6773  -16.2850   22.0838 N   0  0  0  0  0  0  0  0  0  0  0  0
    8.6462  -15.4372   23.1740 C   0  0  0  0  0  0  0  0  0  0  0  0
    9.8857  -15.2800   23.2724 O   0  0  0  0  0  0  0  0  0  0  0  0
    8.4661  -14.5796   15.9432 C   0  0  0  0  0  0  0  0  0  0  0  0
    5.2610  -12.2551   26.6370 C   0  0  0  0  0  0  0  0  0  0  0  0
    6.0205  -13.4995   26.1292 C   0  0  2  0  0  0  0  0  0  0  0  0
    7.3995  -13.1275   25.7143 C   0  0  0  0  0  0  0  0  0  0  0  0
    7.2595  -12.1659   24.5248 C   0  0  1  0  0  0  0  0  0  0  0  0
    8.3299  -14.2557   25.3914 N   0  0  0  0  0  0  0  0  0  0  0  0
    7.7956  -14.9497   24.1864 C   0  0  0  0  0  0  0  0  0  0  0  0
    8.4871  -15.2635   26.4647 O   0  0  0  0  0  0  0  0  0  0  0  0
    9.0836  -14.9257   27.5541 N   0  0  0  0  0  0  0  0  0  0  0  0
    8.0282  -16.5969   26.4079 C   0  0  2  0  0  0  0  0  0  0  0  0
    8.2345  -17.5382   27.5765 C   0  0  0  0  0  0  0  0  0  0  0  0
    7.3947  -18.6879   27.2445 C   0  0  0  0  0  0  0  0  0  0  0  0
    7.8384  -19.9539   26.6955 C   0  0  0  0  0  0  0  0  0  0  0  0
    6.8928  -20.6411   25.7753 C   0  0  0  0  0  0  0  0  0  0  0  0
    7.4662  -22.0263   25.4101 N   0  0  0  0  0  0  0  0  0  0  0  0
    6.5844  -22.6583   24.4726 C   0  0  0  0  0  0  0  0  0  0  0  0
    9.6534  -17.6449   27.8343 O   0  0  0  0  0  0  0  0  0  0  0  0
   10.6050  -17.4160   27.0349 O   0  0  0  0  0  0  0  0  0  0  0  0
  1  2  1  0
  2  3  2  0
  4  5  1  0
  4  2  1  0
  6  5  1  0
  7  6  1  0
  8  7  1  0
  8  9  1  1
 10  8  1  0
 10 17  1  0
 11 10  2  0
 12 13  1  0
 13 14  1  0
 14 16  1  0
 14 15  1  1
 16 17  1  6
 18 16  1  0
 19 18  2  0
 20 18  1  0
 21 20  1  0
 21 27  1  0
 21 22  1  6
 23 22  1  0
 24 23  1  0
 25 24  1  0
 26 25  1  0
 27 29  1  0
 28 27  2  0
M  END
$$$$
