RIK.pdb
     RDKit          3D

 29 28  0  0  1  0  0  0  0  0999 V2000
   10.5638  -22.6485   16.4187 N   0  0  0  0  0  0  0  0  0  0  0  0
    9.4585  -23.1491   17.1907 C   0  0  0  0  0  0  0  0  0  0  0  0
    9.3851  -24.3926   17.4927 N   0  0  0  0  0  0  0  0  0  0  0  0
    8.4472  -22.2522   17.6151 N   0  0  0  0  0  0  0  0  0  0  0  0
    8.6408  -20.8123   17.4569 C   0  0  0  0  0  0  0  0  0  0  0  0
    9.6872  -20.3970   18.4476 C   0  0  0  0  0  0  0  0  0  0  0  0
    9.3752  -19.1824   19.2338 C   0  0  0  0  0  0  0  0  0  0  0  0
    9.6051  -17.8608   18.5570 C   0  0  2  0  0  0  0  0  0  0  0  0
   10.7776  -17.8454   17.7196 N   0  0  0  0  0  0  0  0  0  0  0  0
    9.7781  -16.8628   19.6739 C   0  0  0  0  0  0  0  0  0  0  0  0
   10.9227  -16.7010   20.1582 O   0  0  0  0  0  0  0  0  0  0  0  0
    8.6615  -24.7832   18.1138 C   0  0  0  0  0  0  0  0  0  0  0  0
    6.5219  -12.4734   19.7300 C   0  0  0  0  0  0  0  0  0  0  0  0
    7.8067  -13.3210   19.8481 C   0  0  2  0  0  0  0  0  0  0  0  0
    7.8028  -14.0872   21.1231 C   0  0  0  0  0  0  0  0  0  0  0  0
    7.8665  -13.0557   22.2594 C   0  0  2  0  0  0  0  0  0  0  0  0
    8.8639  -15.1320   21.2807 N   0  0  0  0  0  0  0  0  0  0  0  0
    8.6926  -16.1184   20.1776 C   0  0  0  0  0  0  0  0  0  0  0  0
    8.8275  -15.8721   22.5626 O   0  0  0  0  0  0  0  0  0  0  0  0
    8.1821  -16.9842   22.6220 N   0  0  0  0  0  0  0  0  0  0  0  0
    9.4547  -15.4654   23.7597 C   0  0  2  0  0  0  0  0  0  0  0  0
    9.5656  -16.4118   24.9371 C   0  0  0  0  0  0  0  0  0  0  0  0
    8.2350  -17.0114   25.0230 C   0  0  0  0  0  0  0  0  0  0  0  0
    7.8689  -18.2028   25.7629 C   0  0  0  0  0  0  0  0  0  0  0  0
    7.9060  -18.0951   27.2462 C   0  0  0  0  0  0  0  0  0  0  0  0
    7.5184  -19.4579   27.8576 N   0  0  0  0  0  0  0  0  0  0  0  0
    7.7339  -19.4062   29.2742 C   0  0  0  0  0  0  0  0  0  0  0  0
   10.7747  -17.1907   24.7870 O   0  0  0  0  0  0  0  0  0  0  0  0
   11.8311  -17.1212   25.4769 O   0  0  0  0  0  0  0  0  0  0  0  0
  1  2  1  0
  2  3  2  0
  4  5  1  0
  4  2  1  0
  6  5  1  0
  7  6  1  0
  8  7  1  0
  8  9  1  1
 10  8  1  0
 10 17  1  0
 11 10  2  0
 12 13  1  0
 13 14  1  0
 14 16  1  0
 14 15  1  1
 16 17  1  6
 18 16  1  0
 19 18  2  0
 20 18  1  0
 21 20  1  0
 21 27  1  0
 21 22  1  1
 23 22  1  0
 24 23  1  0
 25 24  1  0
 26 25  1  0
 27 29  1  0
 28 27  2  0
M  END
$$$$
