RIK.pdb
     RDKit          3D

 29 28  0  0  1  0  0  0  0  0999 V2000
    4.5617  -21.1306   22.7750 N   0  0  0  0  0  0  0  0  0  0  0  0
    4.4068  -20.8451   21.3741 C   0  0  0  0  0  0  0  0  0  0  0  0
    3.3010  -21.0962   20.7765 N   0  0  0  0  0  0  0  0  0  0  0  0
    5.4919  -20.2825   20.6576 N   0  0  0  0  0  0  0  0  0  0  0  0
    6.7636  -20.0427   21.3363 C   0  0  0  0  0  0  0  0  0  0  0  0
    7.1554  -18.6238   21.0494 C   0  0  0  0  0  0  0  0  0  0  0  0
    6.9157  -17.6611   22.1477 C   0  0  0  0  0  0  0  0  0  0  0  0
    7.2567  -16.2236   21.8739 C   0  0  2  0  0  0  0  0  0  0  0  0
    8.0643  -16.0439   20.6941 N   0  0  0  0  0  0  0  0  0  0  0  0
    8.0295  -15.7574   23.0817 C   0  0  0  0  0  0  0  0  0  0  0  0
    9.2817  -15.7817   23.0353 O   0  0  0  0  0  0  0  0  0  0  0  0
    3.1578  -20.9536   19.7660 C   0  0  0  0  0  0  0  0  0  0  0  0
    5.5868  -11.9130   26.0544 C   0  0  0  0  0  0  0  0  0  0  0  0
    6.6869  -12.6620   25.2723 C   0  0  2  0  0  0  0  0  0  0  0  0
    7.2468  -13.7645   26.0990 C   0  0  0  0  0  0  0  0  0  0  0  0
    7.9662  -13.1063   27.2858 C   0  0  2  0  0  0  0  0  0  0  0  0
    8.1405  -14.7407   25.3984 N   0  0  0  0  0  0  0  0  0  0  0  0
    7.3803  -15.3013   24.2464 C   0  0  0  0  0  0  0  0  0  0  0  0
    8.6047  -15.8732   26.2316 O   0  0  0  0  0  0  0  0  0  0  0  0
    7.7312  -16.6557   26.7620 N   0  0  0  0  0  0  0  0  0  0  0  0
    9.9530  -16.1890   26.5043 C   0  0  1  0  0  0  0  0  0  0  0  0
   10.3164  -17.4521   27.2570 C   0  0  0  0  0  0  0  0  0  0  0  0
   11.3484  -18.0651   26.4223 C   0  0  0  0  0  0  0  0  0  0  0  0
   11.2550  -19.3294   25.7196 C   0  0  0  0  0  0  0  0  0  0  0  0
   12.4526  -19.7393   24.9380 C   0  0  0  0  0  0  0  0  0  0  0  0
   12.1518  -21.0729   24.2224 N   0  0  0  0  0  0  0  0  0  0  0  0
   13.2534  -21.3940   23.3626 C   0  0  0  0  0  0  0  0  0  0  0  0
   10.5233  -17.1138   28.6476 O   0  0  0  0  0  0  0  0  0  0  0  0
   10.6408  -15.9625   29.1552 O   0  0  0  0  0  0  0  0  0  0  0  0
  1  2  1  0
  2  3  2  0
  4  5  1  0
  4  2  1  0
  6  5  1  0
  7  6  1  0
  8  7  1  0
  8  9  1  6
 10  8  1  0
 10 17  1  0
 11 10  2  0
 12 13  1  0
 13 14  1  0
 14 16  1  0
 14 15  1  1
 16 17  1  6
 18 16  1  0
 19 18  2  0
 20 18  1  0
 21 20  1  0
 21 27  1  0
 21 22  1  1
 23 22  1  0
 24 23  1  0
 25 24  1  0
 26 25  1  0
 27 29  1  0
 28 27  2  0
M  END
$$$$
