RIK.pdb
     RDKit          3D

 29 28  0  0  1  0  0  0  0  0999 V2000
    9.6224  -14.7563   17.0557 N   0  0  0  0  0  0  0  0  0  0  0  0
    8.4028  -14.1474   16.5974 C   0  0  0  0  0  0  0  0  0  0  0  0
    8.2327  -13.8852   15.3543 N   0  0  0  0  0  0  0  0  0  0  0  0
    7.3876  -13.8379   17.5359 N   0  0  0  0  0  0  0  0  0  0  0  0
    7.7000  -13.0045   18.6949 C   0  0  0  0  0  0  0  0  0  0  0  0
    7.3561  -13.8027   19.9171 C   0  0  0  0  0  0  0  0  0  0  0  0
    8.4360  -14.6711   20.4369 C   0  0  0  0  0  0  0  0  0  0  0  0
    8.0335  -15.7411   21.4119 C   0  0  2  0  0  0  0  0  0  0  0  0
    6.6059  -15.8761   21.5532 N   0  0  0  0  0  0  0  0  0  0  0  0
    8.6272  -15.3236   22.7335 C   0  0  0  0  0  0  0  0  0  0  0  0
    9.8575  -15.0911   22.7887 O   0  0  0  0  0  0  0  0  0  0  0  0
    7.4107  -13.3830   14.9883 C   0  0  0  0  0  0  0  0  0  0  0  0
    6.2192  -11.6411   25.5168 C   0  0  0  0  0  0  0  0  0  0  0  0
    7.3570  -12.5083   24.9367 C   0  0  2  0  0  0  0  0  0  0  0  0
    7.5651  -13.7160   25.7797 C   0  0  0  0  0  0  0  0  0  0  0  0
    8.1177  -13.2259   27.1264 C   0  0  2  0  0  0  0  0  0  0  0  0
    8.4264  -14.7965   25.2023 N   0  0  0  0  0  0  0  0  0  0  0  0
    7.8365  -15.1916   23.8927 C   0  0  0  0  0  0  0  0  0  0  0  0
    8.5432  -16.0153   26.0350 O   0  0  0  0  0  0  0  0  0  0  0  0
    7.8050  -17.0325   25.7576 N   0  0  0  0  0  0  0  0  0  0  0  0
    9.4153  -16.1748   27.1331 C   0  0  1  0  0  0  0  0  0  0  0  0
   10.0720  -17.5105   27.4137 C   0  0  0  0  0  0  0  0  0  0  0  0
   10.7221  -17.8469   26.1482 C   0  0  0  0  0  0  0  0  0  0  0  0
   10.5942  -19.0897   25.4132 C   0  0  0  0  0  0  0  0  0  0  0  0
   11.7682  -19.4953   24.5945 C   0  0  0  0  0  0  0  0  0  0  0  0
   11.4218  -20.7889   23.8277 N   0  0  0  0  0  0  0  0  0  0  0  0
   12.4472  -21.0386   22.8570 C   0  0  0  0  0  0  0  0  0  0  0  0
   10.7861  -17.4159   28.6677 O   0  0  0  0  0  0  0  0  0  0  0  0
   11.3359  -16.3952   29.1705 O   0  0  0  0  0  0  0  0  0  0  0  0
  1  2  1  0
  2  3  2  0
  4  5  1  0
  4  2  1  0
  6  5  1  0
  7  6  1  0
  8  7  1  0
  8  9  1  1
 10  8  1  0
 10 17  1  0
 11 10  2  0
 12 13  1  0
 13 14  1  0
 14 16  1  0
 14 15  1  6
 16 17  1  6
 18 16  1  0
 19 18  2  0
 20 18  1  0
 21 20  1  0
 21 27  1  0
 21 22  1  1
 23 22  1  0
 24 23  1  0
 25 24  1  0
 26 25  1  0
 27 29  1  0
 28 27  2  0
M  END
$$$$
