RIK.pdb
     RDKit          3D

 29 28  0  0  1  0  0  0  0  0999 V2000
    6.6424  -17.2891   16.1541 N   0  0  0  0  0  0  0  0  0  0  0  0
    7.7673  -17.5826   17.0007 C   0  0  0  0  0  0  0  0  0  0  0  0
    8.3760  -18.7069   16.9087 N   0  0  0  0  0  0  0  0  0  0  0  0
    8.1978  -16.6145   17.9413 N   0  0  0  0  0  0  0  0  0  0  0  0
    7.8308  -15.2118   17.7589 C   0  0  0  0  0  0  0  0  0  0  0  0
    6.9041  -14.8494   18.8810 C   0  0  0  0  0  0  0  0  0  0  0  0
    7.5368  -14.7119   20.2119 C   0  0  0  0  0  0  0  0  0  0  0  0
    7.4642  -13.3577   20.8589 C   0  0  2  0  0  0  0  0  0  0  0  0
    8.1445  -12.3312   20.1107 N   0  0  0  0  0  0  0  0  0  0  0  0
    8.1300  -13.5185   22.2021 C   0  0  0  0  0  0  0  0  0  0  0  0
    9.3772  -13.4130   22.2669 O   0  0  0  0  0  0  0  0  0  0  0  0
    9.2099  -18.9470   17.4644 C   0  0  0  0  0  0  0  0  0  0  0  0
    5.8907  -11.1226   26.4185 C   0  0  0  0  0  0  0  0  0  0  0  0
    6.9610  -11.6782   25.4547 C   0  0  2  0  0  0  0  0  0  0  0  0
    7.1511  -13.1359   25.6811 C   0  0  0  0  0  0  0  0  0  0  0  0
    7.6609  -13.2974   27.1210 C   0  0  2  0  0  0  0  0  0  0  0  0
    8.0352  -13.8557   24.7101 N   0  0  0  0  0  0  0  0  0  0  0  0
    7.3875  -13.7820   23.3706 C   0  0  0  0  0  0  0  0  0  0  0  0
    8.2748  -15.2832   25.0218 O   0  0  0  0  0  0  0  0  0  0  0  0
    7.2659  -16.0751   25.1306 N   0  0  0  0  0  0  0  0  0  0  0  0
    9.5407  -15.8773   25.2121 C   0  0  1  0  0  0  0  0  0  0  0  0
    9.6639  -17.3498   25.5448 C   0  0  0  0  0  0  0  0  0  0  0  0
   10.5013  -17.8768   24.4685 C   0  0  0  0  0  0  0  0  0  0  0  0
   10.9030  -19.2570   24.2814 C   0  0  0  0  0  0  0  0  0  0  0  0
   11.8245  -19.5271   23.1452 C   0  0  0  0  0  0  0  0  0  0  0  0
   12.0758  -21.0469   23.0540 N   0  0  0  0  0  0  0  0  0  0  0  0
   12.9944  -21.2993   21.9824 C   0  0  0  0  0  0  0  0  0  0  0  0
   10.0043  -17.4767   26.9445 O   0  0  0  0  0  0  0  0  0  0  0  0
   10.4041  -16.5706   27.7294 O   0  0  0  0  0  0  0  0  0  0  0  0
  1  2  1  0
  2  3  2  0
  4  5  1  0
  4  2  1  0
  6  5  1  0
  7  6  1  0
  8  7  1  0
  8  9  1  6
 10  8  1  0
 10 17  1  0
 11 10  2  0
 12 13  1  0
 13 14  1  0
 14 16  1  0
 14 15  1  6
 16 17  1  6
 18 16  1  0
 19 18  2  0
 20 18  1  0
 21 20  1  0
 21 27  1  0
 21 22  1  1
 23 22  1  0
 24 23  1  0
 25 24  1  0
 26 25  1  0
 27 29  1  0
 28 27  2  0
M  END
$$$$
