RIK.pdb
     RDKit          3D

 29 28  0  0  1  0  0  0  0  0999 V2000
    5.9548  -19.3550   19.4913 N   0  0  0  0  0  0  0  0  0  0  0  0
    6.8554  -19.3703   18.3702 C   0  0  0  0  0  0  0  0  0  0  0  0
    6.8433  -20.3452   17.5382 N   0  0  0  0  0  0  0  0  0  0  0  0
    7.7600  -18.2943   18.1935 N   0  0  0  0  0  0  0  0  0  0  0  0
    8.1565  -17.4830   19.3426 C   0  0  0  0  0  0  0  0  0  0  0  0
    6.9195  -17.2316   20.1522 C   0  0  0  0  0  0  0  0  0  0  0  0
    7.1403  -16.6193   21.4814 C   0  0  0  0  0  0  0  0  0  0  0  0
    7.0654  -15.1205   21.5568 C   0  0  2  0  0  0  0  0  0  0  0  0
    7.5962  -14.4636   20.3892 N   0  0  0  0  0  0  0  0  0  0  0  0
    7.8885  -14.7376   22.7606 C   0  0  0  0  0  0  0  0  0  0  0  0
    9.1172  -14.5438   22.6069 O   0  0  0  0  0  0  0  0  0  0  0  0
    7.5159  -20.4370   16.7629 C   0  0  0  0  0  0  0  0  0  0  0  0
    5.7250  -11.4397   26.2928 C   0  0  0  0  0  0  0  0  0  0  0  0
    6.8626  -12.0699   25.4612 C   0  0  2  0  0  0  0  0  0  0  0  0
    7.3228  -13.3352   26.0934 C   0  0  0  0  0  0  0  0  0  0  0  0
    8.0920  -12.9412   27.3632 C   0  0  2  0  0  0  0  0  0  0  0  0
    8.1317  -14.2581   25.2353 N   0  0  0  0  0  0  0  0  0  0  0  0
    7.3114  -14.5956   24.0385 C   0  0  0  0  0  0  0  0  0  0  0  0
    8.5316  -15.5270   25.8854 O   0  0  0  0  0  0  0  0  0  0  0  0
    7.7096  -16.5174   25.8771 N   0  0  0  0  0  0  0  0  0  0  0  0
    9.7657  -15.7630   26.5280 C   0  0  1  0  0  0  0  0  0  0  0  0
   10.1683  -17.1628   26.9433 C   0  0  0  0  0  0  0  0  0  0  0  0
   10.9996  -17.6253   25.8332 C   0  0  0  0  0  0  0  0  0  0  0  0
   10.6961  -18.7065   24.9167 C   0  0  0  0  0  0  0  0  0  0  0  0
   11.7461  -19.0370   23.9161 C   0  0  0  0  0  0  0  0  0  0  0  0
   11.2051  -20.1218   22.9613 N   0  0  0  0  0  0  0  0  0  0  0  0
   12.1818  -20.3670   21.9405 C   0  0  0  0  0  0  0  0  0  0  0  0
   10.6318  -17.1195   28.3124 O   0  0  0  0  0  0  0  0  0  0  0  0
   11.1027  -16.1285   28.9395 O   0  0  0  0  0  0  0  0  0  0  0  0
  1  2  1  0
  2  3  2  0
  4  5  1  0
  4  2  1  0
  6  5  1  0
  7  6  1  0
  8  7  1  0
  8  9  1  6
 10  8  1  0
 10 17  1  0
 11 10  2  0
 12 13  1  0
 13 14  1  0
 14 16  1  0
 14 15  1  6
 16 17  1  6
 18 16  1  0
 19 18  2  0
 20 18  1  0
 21 20  1  0
 21 27  1  0
 21 22  1  1
 23 22  1  0
 24 23  1  0
 25 24  1  0
 26 25  1  0
 27 29  1  0
 28 27  2  0
M  END
$$$$
