RIK.pdb
     RDKit          3D

 29 28  0  0  1  0  0  0  0  0999 V2000
    7.6774  -14.2460   16.8625 N   0  0  0  0  0  0  0  0  0  0  0  0
    8.1393  -13.1716   17.6994 C   0  0  0  0  0  0  0  0  0  0  0  0
    8.1310  -11.9632   17.2720 N   0  0  0  0  0  0  0  0  0  0  0  0
    8.6062  -13.4621   19.0051 N   0  0  0  0  0  0  0  0  0  0  0  0
    8.1700  -14.6844   19.6769 C   0  0  0  0  0  0  0  0  0  0  0  0
    7.0741  -14.2988   20.6253 C   0  0  0  0  0  0  0  0  0  0  0  0
    6.4250  -15.4205   21.3403 C   0  0  0  0  0  0  0  0  0  0  0  0
    7.3328  -16.3967   22.0334 C   0  0  2  0  0  0  0  0  0  0  0  0
    6.6252  -17.4685   22.6868 N   0  0  0  0  0  0  0  0  0  0  0  0
    8.0767  -15.5889   23.0666 C   0  0  0  0  0  0  0  0  0  0  0  0
    9.0406  -14.8814   22.6909 O   0  0  0  0  0  0  0  0  0  0  0  0
    8.4029  -11.1554   17.8511 C   0  0  0  0  0  0  0  0  0  0  0  0
    6.1938  -12.2194   26.2773 C   0  0  0  0  0  0  0  0  0  0  0  0
    7.2916  -12.9363   25.4624 C   0  0  2  0  0  0  0  0  0  0  0  0
    7.8777  -14.0496   26.2557 C   0  0  0  0  0  0  0  0  0  0  0  0
    8.7687  -13.4069   27.3292 C   0  0  2  0  0  0  0  0  0  0  0  0
    8.6239  -15.0982   25.4900 N   0  0  0  0  0  0  0  0  0  0  0  0
    7.7147  -15.6136   24.4284 C   0  0  0  0  0  0  0  0  0  0  0  0
    9.0834  -16.2526   26.2954 O   0  0  0  0  0  0  0  0  0  0  0  0
    8.2077  -16.9896   26.8842 N   0  0  0  0  0  0  0  0  0  0  0  0
   10.4288  -16.6363   26.4811 C   0  0  1  0  0  0  0  0  0  0  0  0
   10.7783  -17.8779   27.2750 C   0  0  0  0  0  0  0  0  0  0  0  0
   11.7958  -18.5348   26.4561 C   0  0  0  0  0  0  0  0  0  0  0  0
   12.4309  -19.8101   26.7232 C   0  0  0  0  0  0  0  0  0  0  0  0
   13.4975  -20.2272   25.7738 C   0  0  0  0  0  0  0  0  0  0  0  0
   13.9472  -21.6613   26.1235 N   0  0  0  0  0  0  0  0  0  0  0  0
   15.0304  -22.0290   25.2590 C   0  0  0  0  0  0  0  0  0  0  0  0
   10.9991  -17.4948   28.6519 O   0  0  0  0  0  0  0  0  0  0  0  0
   11.1695  -16.3310   29.1139 O   0  0  0  0  0  0  0  0  0  0  0  0
  1  2  1  0
  2  3  2  0
  4  5  1  0
  4  2  1  0
  6  5  1  0
  7  6  1  0
  8  7  1  0
  8  9  1  1
 10  8  1  0
 10 17  1  0
 11 10  2  0
 12 13  1  0
 13 14  1  0
 14 16  1  0
 14 15  1  1
 16 17  1  6
 18 16  1  0
 19 18  2  0
 20 18  1  0
 21 20  1  0
 21 27  1  0
 21 22  1  1
 23 22  1  0
 24 23  1  0
 25 24  1  0
 26 25  1  0
 27 29  1  0
 28 27  2  0
M  END
$$$$
