RIK.pdb
     RDKit          3D

 29 28  0  0  1  0  0  0  0  0999 V2000
    6.2079  -20.0287   19.8888 N   0  0  0  0  0  0  0  0  0  0  0  0
    7.3298  -19.9752   18.9907 C   0  0  0  0  0  0  0  0  0  0  0  0
    7.7654  -21.0415   18.4283 N   0  0  0  0  0  0  0  0  0  0  0  0
    7.9521  -18.7288   18.7327 N   0  0  0  0  0  0  0  0  0  0  0  0
    7.1661  -17.4984   18.7951 C   0  0  0  0  0  0  0  0  0  0  0  0
    6.6291  -17.3889   20.1910 C   0  0  0  0  0  0  0  0  0  0  0  0
    7.5054  -16.6920   21.1590 C   0  0  0  0  0  0  0  0  0  0  0  0
    7.3354  -15.2038   21.2760 C   0  0  2  0  0  0  0  0  0  0  0  0
    7.8654  -14.4790   20.1490 N   0  0  0  0  0  0  0  0  0  0  0  0
    8.0902  -14.8102   22.5205 C   0  0  0  0  0  0  0  0  0  0  0  0
    9.3133  -14.5551   22.4215 O   0  0  0  0  0  0  0  0  0  0  0  0
    8.5855  -21.0588   17.8046 C   0  0  0  0  0  0  0  0  0  0  0  0
    5.7219  -11.5210   25.8907 C   0  0  0  0  0  0  0  0  0  0  0  0
    6.9112  -12.1550   25.1379 C   0  0  2  0  0  0  0  0  0  0  0  0
    7.3235  -13.4216   25.7998 C   0  0  0  0  0  0  0  0  0  0  0  0
    7.9862  -13.0308   27.1293 C   0  0  2  0  0  0  0  0  0  0  0  0
    8.2026  -14.3378   25.0059 N   0  0  0  0  0  0  0  0  0  0  0  0
    7.4562  -14.7251   23.7762 C   0  0  0  0  0  0  0  0  0  0  0  0
    8.6044  -15.5800   25.7044 O   0  0  0  0  0  0  0  0  0  0  0  0
    7.6915  -16.4022   26.0882 N   0  0  0  0  0  0  0  0  0  0  0  0
    9.9316  -15.9623   25.9944 C   0  0  1  0  0  0  0  0  0  0  0  0
   10.2292  -17.2970   26.6457 C   0  0  0  0  0  0  0  0  0  0  0  0
   11.3485  -17.8194   25.8637 C   0  0  0  0  0  0  0  0  0  0  0  0
   12.1181  -19.0149   26.1460 C   0  0  0  0  0  0  0  0  0  0  0  0
   13.3031  -19.2561   25.2796 C   0  0  0  0  0  0  0  0  0  0  0  0
   13.8998  -20.6380   25.6197 N   0  0  0  0  0  0  0  0  0  0  0  0
   15.0951  -20.8265   24.8504 C   0  0  0  0  0  0  0  0  0  0  0  0
   10.2878  -17.1054   28.0778 O   0  0  0  0  0  0  0  0  0  0  0  0
   10.2973  -17.9925   28.9779 O   0  0  0  0  0  0  0  0  0  0  0  0
  1  2  1  0
  2  3  2  0
  4  5  1  0
  4  2  1  0
  6  5  1  0
  7  6  1  0
  8  7  1  0
  8  9  1  6
 10  8  1  0
 10 17  1  0
 11 10  2  0
 12 13  1  0
 13 14  1  0
 14 16  1  0
 14 15  1  6
 16 17  1  6
 18 16  1  0
 19 18  2  0
 20 18  1  0
 21 20  1  0
 21 27  1  0
 21 22  1  1
 23 22  1  0
 24 23  1  0
 25 24  1  0
 26 25  1  0
 27 29  1  0
 28 27  2  0
M  END
$$$$
