RIK.pdb
     RDKit          3D

 29 28  0  0  1  0  0  0  0  0999 V2000
   10.2152  -16.2257   16.8595 N   0  0  0  0  0  0  0  0  0  0  0  0
    9.1120  -15.9270   15.9866 C   0  0  0  0  0  0  0  0  0  0  0  0
    9.3179  -15.6084   14.7623 N   0  0  0  0  0  0  0  0  0  0  0  0
    7.7907  -15.9876   16.4943 N   0  0  0  0  0  0  0  0  0  0  0  0
    7.5709  -16.1018   17.9346 C   0  0  0  0  0  0  0  0  0  0  0  0
    8.3577  -15.0053   18.5886 C   0  0  0  0  0  0  0  0  0  0  0  0
    8.2161  -14.9077   20.0586 C   0  0  0  0  0  0  0  0  0  0  0  0
    7.6607  -13.6213   20.6010 C   0  0  2  0  0  0  0  0  0  0  0  0
    8.1330  -12.4552   19.8984 N   0  0  0  0  0  0  0  0  0  0  0  0
    8.1212  -13.5586   22.0353 C   0  0  0  0  0  0  0  0  0  0  0  0
    9.2670  -13.1113   22.2757 O   0  0  0  0  0  0  0  0  0  0  0  0
    8.5645  -15.3422   14.1116 C   0  0  0  0  0  0  0  0  0  0  0  0
    6.5075  -11.0431   25.6875 C   0  0  0  0  0  0  0  0  0  0  0  0
    5.8587  -12.2398   24.9595 C   0  0  1  0  0  0  0  0  0  0  0  0
    6.5450  -13.5049   25.3351 C   0  0  0  0  0  0  0  0  0  0  0  0
    6.9065  -13.3871   26.8233 C   0  0  2  0  0  0  0  0  0  0  0  0
    7.7391  -13.8884   24.5169 N   0  0  0  0  0  0  0  0  0  0  0  0
    7.2996  -13.9876   23.0970 C   0  0  0  0  0  0  0  0  0  0  0  0
    8.3655  -15.1770   24.8904 O   0  0  0  0  0  0  0  0  0  0  0  0
    7.9543  -16.2571   24.3239 N   0  0  0  0  0  0  0  0  0  0  0  0
    9.4040  -15.3388   25.8324 C   0  0  2  0  0  0  0  0  0  0  0  0
   10.0868  -16.6789   26.0110 C   0  0  0  0  0  0  0  0  0  0  0  0
    9.0070  -17.5587   26.4553 C   0  0  0  0  0  0  0  0  0  0  0  0
    9.0285  -19.0077   26.4857 C   0  0  0  0  0  0  0  0  0  0  0  0
    7.8182  -19.6737   27.0376 C   0  0  0  0  0  0  0  0  0  0  0  0
    8.0295  -21.2020   27.0083 N   0  0  0  0  0  0  0  0  0  0  0  0
    6.8544  -21.8403   27.5255 C   0  0  0  0  0  0  0  0  0  0  0  0
   10.8897  -16.9444   24.8380 O   0  0  0  0  0  0  0  0  0  0  0  0
   12.0124  -17.5219   24.7827 O   0  0  0  0  0  0  0  0  0  0  0  0
  1  2  1  0
  2  3  2  0
  4  5  1  0
  4  2  1  0
  6  5  1  0
  7  6  1  0
  8  7  1  0
  8  9  1  6
 10  8  1  0
 10 17  1  0
 11 10  2  0
 12 13  1  0
 13 14  1  0
 14 16  1  0
 14 15  1  1
 16 17  1  6
 18 16  1  0
 19 18  2  0
 20 18  1  0
 21 20  1  0
 21 27  1  0
 21 22  1  1
 23 22  1  0
 24 23  1  0
 25 24  1  0
 26 25  1  0
 27 29  1  0
 28 27  2  0
M  END
$$$$
