RIK.pdb
     RDKit          3D

 29 28  0  0  1  0  0  0  0  0999 V2000
    7.2107  -13.3393   16.9225 N   0  0  0  0  0  0  0  0  0  0  0  0
    7.2127  -14.5923   16.2167 C   0  0  0  0  0  0  0  0  0  0  0  0
    6.5031  -14.7460   15.1604 N   0  0  0  0  0  0  0  0  0  0  0  0
    8.0085  -15.6594   16.7017 N   0  0  0  0  0  0  0  0  0  0  0  0
    8.5739  -15.5900   18.0475 C   0  0  0  0  0  0  0  0  0  0  0  0
    7.4406  -15.3040   18.9872 C   0  0  0  0  0  0  0  0  0  0  0  0
    7.8070  -15.2071   20.4179 C   0  0  0  0  0  0  0  0  0  0  0  0
    7.6978  -13.8502   21.0538 C   0  0  2  0  0  0  0  0  0  0  0  0
    8.4093  -12.8243   20.3344 N   0  0  0  0  0  0  0  0  0  0  0  0
    8.2984  -14.0018   22.4285 C   0  0  0  0  0  0  0  0  0  0  0  0
    9.5453  -13.9514   22.5442 O   0  0  0  0  0  0  0  0  0  0  0  0
    6.5105  -15.6061   14.5929 C   0  0  0  0  0  0  0  0  0  0  0  0
    5.5398  -11.7416   26.4862 C   0  0  0  0  0  0  0  0  0  0  0  0
    6.7484  -12.1647   25.6241 C   0  0  2  0  0  0  0  0  0  0  0  0
    7.0792  -13.5944   25.8673 C   0  0  0  0  0  0  0  0  0  0  0  0
    7.5361  -13.7003   27.3299 C   0  0  2  0  0  0  0  0  0  0  0  0
    8.0776  -14.2184   24.9419 N   0  0  0  0  0  0  0  0  0  0  0  0
    7.4961  -14.1969   23.5706 C   0  0  0  0  0  0  0  0  0  0  0  0
    8.4370  -15.6187   25.2618 O   0  0  0  0  0  0  0  0  0  0  0  0
    7.4991  -16.4934   25.3708 N   0  0  0  0  0  0  0  0  0  0  0  0
    9.7483  -16.1014   25.4600 C   0  0  1  0  0  0  0  0  0  0  0  0
    9.9920  -17.5422   25.8586 C   0  0  0  0  0  0  0  0  0  0  0  0
   11.0053  -17.9957   24.9074 C   0  0  0  0  0  0  0  0  0  0  0  0
   10.7674  -18.5757   23.6005 C   0  0  0  0  0  0  0  0  0  0  0  0
   11.9740  -18.9657   22.8226 C   0  0  0  0  0  0  0  0  0  0  0  0
   11.5398  -19.3947   21.4054 N   0  0  0  0  0  0  0  0  0  0  0  0
   12.7110  -19.6994   20.6363 C   0  0  0  0  0  0  0  0  0  0  0  0
   10.1740  -17.5968   27.2922 O   0  0  0  0  0  0  0  0  0  0  0  0
   10.1141  -18.6122   28.0421 O   0  0  0  0  0  0  0  0  0  0  0  0
  1  2  1  0
  2  3  2  0
  4  5  1  0
  4  2  1  0
  6  5  1  0
  7  6  1  0
  8  7  1  0
  8  9  1  6
 10  8  1  0
 10 17  1  0
 11 10  2  0
 12 13  1  0
 13 14  1  0
 14 16  1  0
 14 15  1  6
 16 17  1  6
 18 16  1  0
 19 18  2  0
 20 18  1  0
 21 20  1  0
 21 27  1  0
 21 22  1  1
 23 22  1  0
 24 23  1  0
 25 24  1  0
 26 25  1  0
 27 29  1  0
 28 27  2  0
M  END
$$$$
