RIK.pdb
     RDKit          3D

 29 28  0  0  1  0  0  0  0  0999 V2000
    8.2824  -14.5342   16.7885 N   0  0  0  0  0  0  0  0  0  0  0  0
    8.4473  -13.5690   17.8417 C   0  0  0  0  0  0  0  0  0  0  0  0
    8.4628  -12.3145   17.5791 N   0  0  0  0  0  0  0  0  0  0  0  0
    8.5940  -14.0190   19.1771 N   0  0  0  0  0  0  0  0  0  0  0  0
    8.7743  -15.4438   19.4474 C   0  0  0  0  0  0  0  0  0  0  0  0
    7.4215  -16.0058   19.7687 C   0  0  0  0  0  0  0  0  0  0  0  0
    7.3924  -17.0255   20.8410 C   0  0  0  0  0  0  0  0  0  0  0  0
    6.5246  -16.7307   22.0317 C   0  0  2  0  0  0  0  0  0  0  0  0
    5.3080  -16.0369   21.6927 N   0  0  0  0  0  0  0  0  0  0  0  0
    7.3615  -15.8572   22.9317 C   0  0  0  0  0  0  0  0  0  0  0  0
    8.2128  -15.1017   22.4072 O   0  0  0  0  0  0  0  0  0  0  0  0
    8.5277  -11.5846   18.3036 C   0  0  0  0  0  0  0  0  0  0  0  0
    7.1744  -11.6452   26.7712 C   0  0  0  0  0  0  0  0  0  0  0  0
    8.0700  -12.8681   26.4788 C   0  0  2  0  0  0  0  0  0  0  0  0
    7.3297  -13.8646   25.6595 C   0  0  0  0  0  0  0  0  0  0  0  0
    6.0778  -14.2534   26.4601 C   0  0  2  0  0  0  0  0  0  0  0  0
    8.0938  -15.0778   25.2272 N   0  0  0  0  0  0  0  0  0  0  0  0
    7.2075  -15.8736   24.3325 C   0  0  0  0  0  0  0  0  0  0  0  0
    8.5401  -15.9612   26.3284 O   0  0  0  0  0  0  0  0  0  0  0  0
    7.6758  -16.7167   26.9105 N   0  0  0  0  0  0  0  0  0  0  0  0
    9.8622  -16.0606   26.8123 C   0  0  1  0  0  0  0  0  0  0  0  0
   10.2255  -17.0808   27.8711 C   0  0  0  0  0  0  0  0  0  0  0  0
   10.9089  -18.1306   27.1173 C   0  0  0  0  0  0  0  0  0  0  0  0
   11.4298  -19.3759   27.6454 C   0  0  0  0  0  0  0  0  0  0  0  0
   12.1867  -20.2310   26.6920 C   0  0  0  0  0  0  0  0  0  0  0  0
   12.7333  -21.4609   27.4469 N   0  0  0  0  0  0  0  0  0  0  0  0
   13.2312  -22.4058   26.4902 C   0  0  0  0  0  0  0  0  0  0  0  0
   10.8309  -16.3881   28.9868 O   0  0  0  0  0  0  0  0  0  0  0  0
   11.1661  -15.1714   29.0530 O   0  0  0  0  0  0  0  0  0  0  0  0
  1  2  1  0
  2  3  2  0
  4  5  1  0
  4  2  1  0
  6  5  1  0
  7  6  1  0
  8  7  1  0
  8  9  1  6
 10  8  1  0
 10 17  1  0
 11 10  2  0
 12 13  1  0
 13 14  1  0
 14 16  1  0
 14 15  1  6
 16 17  1  1
 18 16  1  0
 19 18  2  0
 20 18  1  0
 21 20  1  0
 21 27  1  0
 21 22  1  1
 23 22  1  0
 24 23  1  0
 25 24  1  0
 26 25  1  0
 27 29  1  0
 28 27  2  0
M  END
$$$$
