RIK.pdb
     RDKit          3D

 29 28  0  0  1  0  0  0  0  0999 V2000
    7.9044  -13.4059   16.6568 N   0  0  0  0  0  0  0  0  0  0  0  0
    8.4552  -13.1040   17.9504 C   0  0  0  0  0  0  0  0  0  0  0  0
    8.8227  -11.9105   18.2396 N   0  0  0  0  0  0  0  0  0  0  0  0
    8.5894  -14.1416   18.9057 N   0  0  0  0  0  0  0  0  0  0  0  0
    8.0702  -15.4747   18.6072 C   0  0  0  0  0  0  0  0  0  0  0  0
    7.4719  -16.0084   19.8746 C   0  0  0  0  0  0  0  0  0  0  0  0
    8.4272  -16.2493   20.9792 C   0  0  0  0  0  0  0  0  0  0  0  0
    7.8726  -16.8701   22.2300 C   0  0  2  0  0  0  0  0  0  0  0  0
    6.4500  -16.6909   22.3732 N   0  0  0  0  0  0  0  0  0  0  0  0
    8.5785  -16.1780   23.3685 C   0  0  0  0  0  0  0  0  0  0  0  0
    9.8224  -16.0391   23.3036 O   0  0  0  0  0  0  0  0  0  0  0  0
    9.1730  -11.6348   19.1686 C   0  0  0  0  0  0  0  0  0  0  0  0
    6.0919  -12.0824   25.7974 C   0  0  0  0  0  0  0  0  0  0  0  0
    7.2165  -12.9414   25.1806 C   0  0  2  0  0  0  0  0  0  0  0  0
    7.6799  -13.9623   26.1580 C   0  0  0  0  0  0  0  0  0  0  0  0
    8.3470  -13.1993   27.3121 C   0  0  2  0  0  0  0  0  0  0  0  0
    8.5783  -15.0375   25.6295 N   0  0  0  0  0  0  0  0  0  0  0  0
    7.8767  -15.6910   24.4893 C   0  0  0  0  0  0  0  0  0  0  0  0
    8.9361  -16.0904   26.6072 O   0  0  0  0  0  0  0  0  0  0  0  0
    7.9954  -16.7743   27.1586 N   0  0  0  0  0  0  0  0  0  0  0  0
   10.2485  -16.4289   27.0007 C   0  0  1  0  0  0  0  0  0  0  0  0
   10.4957  -17.5377   28.0025 C   0  0  0  0  0  0  0  0  0  0  0  0
   11.4398  -18.4177   27.3157 C   0  0  0  0  0  0  0  0  0  0  0  0
   11.5978  -19.8442   27.5186 C   0  0  0  0  0  0  0  0  0  0  0  0
   12.6266  -20.5191   26.6824 C   0  0  0  0  0  0  0  0  0  0  0  0
   12.5488  -22.0413   26.9234 N   0  0  0  0  0  0  0  0  0  0  0  0
   13.3500  -22.7061   25.9375 C   0  0  0  0  0  0  0  0  0  0  0  0
   10.7675  -16.9395   29.2907 O   0  0  0  0  0  0  0  0  0  0  0  0
   10.9955  -15.7232   29.5470 O   0  0  0  0  0  0  0  0  0  0  0  0
  1  2  1  0
  2  3  2  0
  4  5  1  0
  4  2  1  0
  6  5  1  0
  7  6  1  0
  8  7  1  0
  8  9  1  1
 10  8  1  0
 10 17  1  0
 11 10  2  0
 12 13  1  0
 13 14  1  0
 14 16  1  0
 14 15  1  1
 16 17  1  6
 18 16  1  0
 19 18  2  0
 20 18  1  0
 21 20  1  0
 21 27  1  0
 21 22  1  1
 23 22  1  0
 24 23  1  0
 25 24  1  0
 26 25  1  0
 27 29  1  0
 28 27  2  0
M  END
$$$$
