PDH.pdb
     RDKit          3D

 26 27  0  0  1  0  0  0  0  0999 V2000
   20.7590  -14.7110  -16.7894 N   0  0  0  0  0  0  0  0  0  0  0  0
   19.3843  -15.1903  -16.7182 C   0  0  0  0  0  0  0  0  0  0  0  0
   18.9198  -15.3317  -18.1458 C   0  0  0  0  0  0  0  0  0  0  0  0
   20.0797  -14.8660  -18.9945 C   0  0  0  0  0  0  0  0  0  0  0  0
   20.8540  -13.9872  -18.0431 C   0  0  1  0  0  0  0  0  0  0  0  0
   20.2470  -12.6686  -17.8532 C   0  0  0  0  0  0  0  0  0  0  0  0
   20.0202  -11.8762  -18.8268 O   0  0  0  0  0  0  0  0  0  0  0  0
   19.8597  -12.1628  -16.5623 N   0  0  0  0  0  0  0  0  0  0  0  0
   19.2812  -10.8555  -16.4159 C   0  0  1  0  0  0  0  0  0  0  0  0
   18.1632  -10.9235  -15.4141 C   0  0  0  0  0  0  0  0  0  0  0  0
   17.0497  -11.7793  -15.8782 C   0  0  0  0  0  0  0  0  0  0  0  0
   16.4214  -11.6204  -16.9532 O   0  0  0  0  0  0  0  0  0  0  0  0
   20.2449   -9.8036  -16.0192 C   0  0  0  0  0  0  0  0  0  0  0  0
   20.9883  -10.0698  -15.0424 O   0  0  0  0  0  0  0  0  0  0  0  0
   16.6596  -12.8509  -15.0633 O   0  0  0  0  0  0  0  0  0  0  0  0
   20.3707   -8.5498  -16.6602 N   0  0  0  0  0  0  0  0  0  0  0  0
   21.3913   -7.5493  -16.2925 C   0  0  1  0  0  0  0  0  0  0  0  0
   21.6736   -6.6427  -17.4311 C   0  0  0  0  0  0  0  0  0  0  0  0
   22.6552   -5.5827  -17.2007 C   0  0  0  0  0  0  0  0  0  0  0  0
   23.7606   -5.4527  -16.4257 C   0  0  0  0  0  0  0  0  0  0  0  0
   24.3589   -4.2461  -16.6570 N   0  0  0  0  0  0  0  0  0  0  0  0
   23.6086   -3.6588  -17.5721 C   0  0  0  0  0  0  0  0  0  0  0  0
   22.5882   -4.4188  -17.9216 N   0  0  0  0  0  0  0  0  0  0  0  0
   20.8352   -6.7380  -15.1617 C   0  0  0  0  0  0  0  0  0  0  0  0
   21.5625   -6.1751  -14.1567 O   0  0  0  0  0  0  0  0  0  0  0  0
   19.5919   -6.5533  -15.1301 O   0  0  0  0  0  0  0  0  0  0  0  0
  1  2  1  0
  2  3  1  0
  4  3  1  0
  5  1  1  0
  5  4  1  0
  5  6  1  1
  7  6  2  0
  8  6  1  0
  9  8  1  0
  9 10  1  1
 11 10  1  0
 11 15  1  0
 12 11  2  0
 13  9  1  0
 13 16  1  0
 14 13  2  0
 17 16  1  0
 17 24  1  0
 17 18  1  6
 19 18  1  0
 19 20  2  0
 21 20  1  0
 22 21  1  0
 23 22  2  0
 23 19  1  0
 24 25  1  0
 26 24  2  0
M  END
$$$$
