PDH.pdb
     RDKit          3D

 26 27  0  0  1  0  0  0  0  0999 V2000
   23.8032  -14.6239  -16.8584 N   0  0  0  0  0  0  0  0  0  0  0  0
   24.8538  -13.6221  -16.9892 C   0  0  0  0  0  0  0  0  0  0  0  0
   25.1264  -13.1219  -15.5930 C   0  0  0  0  0  0  0  0  0  0  0  0
   24.1504  -13.8571  -14.7045 C   0  0  0  0  0  0  0  0  0  0  0  0
   23.0598  -14.2545  -15.6685 C   0  0  1  0  0  0  0  0  0  0  0  0
   22.1668  -13.1479  -16.0164 C   0  0  0  0  0  0  0  0  0  0  0  0
   22.4382  -12.3204  -16.9485 O   0  0  0  0  0  0  0  0  0  0  0  0
   20.9193  -12.9053  -15.3401 N   0  0  0  0  0  0  0  0  0  0  0  0
   20.0620  -11.8176  -15.7233 C   0  0  1  0  0  0  0  0  0  0  0  0
   18.6530  -12.1339  -15.3073 C   0  0  0  0  0  0  0  0  0  0  0  0
   17.6843  -11.1397  -15.8178 C   0  0  0  0  0  0  0  0  0  0  0  0
   17.6600  -10.6979  -16.9925 O   0  0  0  0  0  0  0  0  0  0  0  0
   20.4628  -10.5027  -15.1727 C   0  0  0  0  0  0  0  0  0  0  0  0
   21.5272  -10.4796  -14.5064 O   0  0  0  0  0  0  0  0  0  0  0  0
   16.7168  -10.6480  -14.9309 O   0  0  0  0  0  0  0  0  0  0  0  0
   19.7333   -9.3046  -15.3491 N   0  0  0  0  0  0  0  0  0  0  0  0
   20.3007   -7.9651  -15.1010 C   0  0  1  0  0  0  0  0  0  0  0  0
   21.4088   -7.6802  -16.0437 C   0  0  0  0  0  0  0  0  0  0  0  0
   22.0675   -6.3806  -15.9118 C   0  0  0  0  0  0  0  0  0  0  0  0
   22.0270   -5.3739  -15.0038 C   0  0  0  0  0  0  0  0  0  0  0  0
   22.9210   -4.3976  -15.3428 N   0  0  0  0  0  0  0  0  0  0  0  0
   23.4948   -4.8256  -16.4531 C   0  0  0  0  0  0  0  0  0  0  0  0
   23.0168   -5.9982  -16.8236 N   0  0  0  0  0  0  0  0  0  0  0  0
   19.2073   -6.9665  -15.3324 C   0  0  0  0  0  0  0  0  0  0  0  0
   18.4089   -6.9057  -16.4345 O   0  0  0  0  0  0  0  0  0  0  0  0
   18.9998   -6.1083  -14.4373 O   0  0  0  0  0  0  0  0  0  0  0  0
  1  2  1  0
  2  3  1  0
  4  3  1  0
  5  1  1  0
  5  4  1  0
  5  6  1  6
  7  6  2  0
  8  6  1  0
  9  8  1  0
  9 10  1  1
 11 10  1  0
 11 15  1  0
 12 11  2  0
 13  9  1  0
 13 16  1  0
 14 13  2  0
 17 16  1  0
 17 24  1  0
 17 18  1  6
 19 18  1  0
 19 20  2  0
 21 20  1  0
 22 21  1  0
 23 22  2  0
 23 19  1  0
 24 25  1  0
 26 24  2  0
M  END
$$$$
