PDH.pdb
     RDKit          3D

 26 27  0  0  1  0  0  0  0  0999 V2000
   19.0582  -12.4359  -16.8397 N   0  0  0  0  0  0  0  0  0  0  0  0
   18.1050  -12.4817  -15.7380 C   0  0  0  0  0  0  0  0  0  0  0  0
   16.8870  -11.7293  -16.2116 C   0  0  0  0  0  0  0  0  0  0  0  0
   17.2337  -11.2329  -17.5958 C   0  0  0  0  0  0  0  0  0  0  0  0
   18.7425  -11.2269  -17.5770 C   0  0  1  0  0  0  0  0  0  0  0  0
   19.3052  -10.0898  -16.8468 C   0  0  0  0  0  0  0  0  0  0  0  0
   18.6577   -9.4788  -15.9331 O   0  0  0  0  0  0  0  0  0  0  0  0
   20.6248   -9.5723  -17.0984 N   0  0  0  0  0  0  0  0  0  0  0  0
   21.1062   -8.3970  -16.4263 C   0  0  1  0  0  0  0  0  0  0  0  0
   22.6074   -8.3757  -16.4905 C   0  0  0  0  0  0  0  0  0  0  0  0
   23.2100   -9.5635  -15.8474 C   0  0  0  0  0  0  0  0  0  0  0  0
   22.8395  -10.0533  -14.7526 O   0  0  0  0  0  0  0  0  0  0  0  0
   20.5648   -7.1257  -16.9587 C   0  0  0  0  0  0  0  0  0  0  0  0
   20.2187   -7.1306  -18.1661 O   0  0  0  0  0  0  0  0  0  0  0  0
   24.2754  -10.1967  -16.5018 O   0  0  0  0  0  0  0  0  0  0  0  0
   20.4209   -5.9384  -16.2047 N   0  0  0  0  0  0  0  0  0  0  0  0
   19.6021   -4.7921  -16.6446 C   0  0  1  0  0  0  0  0  0  0  0  0
   18.1808   -5.1868  -16.7928 C   0  0  0  0  0  0  0  0  0  0  0  0
   17.2292   -4.1180  -17.0965 C   0  0  0  0  0  0  0  0  0  0  0  0
   17.3205   -2.7769  -17.2776 C   0  0  0  0  0  0  0  0  0  0  0  0
   16.1008   -2.2634  -17.6180 N   0  0  0  0  0  0  0  0  0  0  0  0
   15.2837   -3.3013  -17.6408 C   0  0  0  0  0  0  0  0  0  0  0  0
   15.9141   -4.4199  -17.3375 N   0  0  0  0  0  0  0  0  0  0  0  0
   19.6980   -3.7401  -15.5815 C   0  0  0  0  0  0  0  0  0  0  0  0
   20.3928   -3.8522  -14.4150 O   0  0  0  0  0  0  0  0  0  0  0  0
   19.0903   -2.6564  -15.7743 O   0  0  0  0  0  0  0  0  0  0  0  0
  1  2  1  0
  2  3  1  0
  4  3  1  0
  5  1  1  0
  5  4  1  0
  5  6  1  1
  7  6  2  0
  8  6  1  0
  9  8  1  0
  9 10  1  6
 11 10  1  0
 11 15  1  0
 12 11  2  0
 13  9  1  0
 13 16  1  0
 14 13  2  0
 17 16  1  0
 17 24  1  0
 17 18  1  1
 19 18  1  0
 19 20  2  0
 21 20  1  0
 22 21  1  0
 23 22  2  0
 23 19  1  0
 24 25  1  0
 26 24  2  0
M  END
$$$$
