PDH.pdb
     RDKit          3D

 26 27  0  0  1  0  0  0  0  0999 V2000
   19.6299  -14.3214  -19.0947 N   0  0  0  0  0  0  0  0  0  0  0  0
   20.2956  -14.6883  -17.8511 C   0  0  0  0  0  0  0  0  0  0  0  0
   19.2728  -14.4943  -16.7601 C   0  0  0  0  0  0  0  0  0  0  0  0
   18.0403  -13.9630  -17.4538 C   0  0  0  0  0  0  0  0  0  0  0  0
   18.6044  -13.3661  -18.7197 C   0  0  1  0  0  0  0  0  0  0  0  0
   19.2482  -12.0686  -18.5079 C   0  0  0  0  0  0  0  0  0  0  0  0
   20.4895  -11.9602  -18.2345 O   0  0  0  0  0  0  0  0  0  0  0  0
   18.5383  -10.8188  -18.5902 N   0  0  0  0  0  0  0  0  0  0  0  0
   19.2142   -9.5635  -18.4101 C   0  0  1  0  0  0  0  0  0  0  0  0
   18.3566   -8.4611  -18.9645 C   0  0  0  0  0  0  0  0  0  0  0  0
   19.0535   -7.1565  -18.9598 C   0  0  0  0  0  0  0  0  0  0  0  0
   20.2177   -6.9624  -19.3869 O   0  0  0  0  0  0  0  0  0  0  0  0
   19.5724   -9.2603  -17.0056 C   0  0  0  0  0  0  0  0  0  0  0  0
   18.8081   -9.7247  -16.1237 O   0  0  0  0  0  0  0  0  0  0  0  0
   18.3707   -6.0476  -18.4415 O   0  0  0  0  0  0  0  0  0  0  0  0
   20.6955   -8.4967  -16.6126 N   0  0  0  0  0  0  0  0  0  0  0  0
   21.0761   -8.2795  -15.2034 C   0  0  1  0  0  0  0  0  0  0  0  0
   22.4446   -8.7870  -14.9437 C   0  0  0  0  0  0  0  0  0  0  0  0
   22.6186  -10.2395  -14.9416 C   0  0  0  0  0  0  0  0  0  0  0  0
   21.8014  -11.3025  -15.1455 C   0  0  0  0  0  0  0  0  0  0  0  0
   22.5184  -12.4646  -15.0942 N   0  0  0  0  0  0  0  0  0  0  0  0
   23.7640  -12.0915  -14.8610 C   0  0  0  0  0  0  0  0  0  0  0  0
   23.8659  -10.7796  -14.7642 N   0  0  0  0  0  0  0  0  0  0  0  0
   21.0598   -6.8010  -14.9586 C   0  0  0  0  0  0  0  0  0  0  0  0
   21.2620   -6.1939  -13.7559 O   0  0  0  0  0  0  0  0  0  0  0  0
   20.8439   -6.0475  -15.9417 O   0  0  0  0  0  0  0  0  0  0  0  0
  1  2  1  0
  2  3  1  0
  4  3  1  0
  5  1  1  0
  5  4  1  0
  5  6  1  1
  7  6  2  0
  8  6  1  0
  9  8  1  0
  9 10  1  1
 11 10  1  0
 11 15  1  0
 12 11  2  0
 13  9  1  0
 13 16  1  0
 14 13  2  0
 17 16  1  0
 17 24  1  0
 17 18  1  6
 19 18  1  0
 19 20  2  0
 21 20  1  0
 22 21  1  0
 23 22  2  0
 23 19  1  0
 24 25  1  0
 26 24  2  0
M  END
$$$$
