PDH.pdb
     RDKit          3D

 26 27  0  0  1  0  0  0  0  0999 V2000
   20.4738   -9.7071  -17.5949 N   0  0  0  0  0  0  0  0  0  0  0  0
   21.7773  -10.0458  -17.0374 C   0  0  0  0  0  0  0  0  0  0  0  0
   21.5018  -10.9160  -15.8371 C   0  0  0  0  0  0  0  0  0  0  0  0
   19.9965  -10.9984  -15.7368 C   0  0  0  0  0  0  0  0  0  0  0  0
   19.5473   -9.7645  -16.4799 C   0  0  1  0  0  0  0  0  0  0  0  0
   19.6988   -8.5349  -15.7000 C   0  0  0  0  0  0  0  0  0  0  0  0
   19.0864   -8.3480  -14.5967 O   0  0  0  0  0  0  0  0  0  0  0  0
   20.5447   -7.4451  -16.1114 N   0  0  0  0  0  0  0  0  0  0  0  0
   20.5818   -6.2108  -15.3766 C   0  0  1  0  0  0  0  0  0  0  0  0
   22.0141   -5.8371  -15.1179 C   0  0  0  0  0  0  0  0  0  0  0  0
   22.1339   -4.7177  -14.1587 C   0  0  0  0  0  0  0  0  0  0  0  0
   23.0354   -3.8446  -14.1825 O   0  0  0  0  0  0  0  0  0  0  0  0
   19.8833   -5.0858  -16.0395 C   0  0  0  0  0  0  0  0  0  0  0  0
   20.3151   -4.7518  -17.1707 O   0  0  0  0  0  0  0  0  0  0  0  0
   21.1734   -4.6157  -13.1431 O   0  0  0  0  0  0  0  0  0  0  0  0
   18.7883   -4.3845  -15.4846 N   0  0  0  0  0  0  0  0  0  0  0  0
   18.1590   -3.2179  -16.1333 C   0  0  1  0  0  0  0  0  0  0  0  0
   16.6937   -3.4091  -16.2527 C   0  0  0  0  0  0  0  0  0  0  0  0
   16.2388   -4.4525  -17.1716 C   0  0  0  0  0  0  0  0  0  0  0  0
   15.6616   -5.6713  -17.0270 C   0  0  0  0  0  0  0  0  0  0  0  0
   15.3751   -6.2052  -18.2518 N   0  0  0  0  0  0  0  0  0  0  0  0
   15.7812   -5.3015  -19.1256 C   0  0  0  0  0  0  0  0  0  0  0  0
   16.2991   -4.2468  -18.5254 N   0  0  0  0  0  0  0  0  0  0  0  0
   18.4165   -2.0276  -15.2598 C   0  0  0  0  0  0  0  0  0  0  0  0
   17.9782   -0.7598  -15.4974 O   0  0  0  0  0  0  0  0  0  0  0  0
   19.0922   -2.2044  -14.2143 O   0  0  0  0  0  0  0  0  0  0  0  0
  1  2  1  0
  2  3  1  0
  4  3  1  0
  5  1  1  0
  5  4  1  0
  5  6  1  1
  7  6  2  0
  8  6  1  0
  9  8  1  0
  9 10  1  6
 11 10  1  0
 11 15  1  0
 12 11  2  0
 13  9  1  0
 13 16  1  0
 14 13  2  0
 17 16  1  0
 17 24  1  0
 17 18  1  1
 19 18  1  0
 19 20  2  0
 21 20  1  0
 22 21  1  0
 23 22  2  0
 23 19  1  0
 24 25  1  0
 26 24  2  0
M  END
$$$$
