PDH.pdb
     RDKit          3D

 26 27  0  0  1  0  0  0  0  0999 V2000
   28.5253  -21.7330  -13.2326 N   0  0  0  0  0  0  0  0  0  0  0  0
   29.3925  -21.4257  -14.3631 C   0  0  0  0  0  0  0  0  0  0  0  0
   30.1924  -20.2142  -13.9552 C   0  0  0  0  0  0  0  0  0  0  0  0
   29.6925  -19.8472  -12.5775 C   0  0  0  0  0  0  0  0  0  0  0  0
   28.3191  -20.4714  -12.5466 C   0  0  1  0  0  0  0  0  0  0  0  0
   27.3210  -19.7054  -13.2950 C   0  0  0  0  0  0  0  0  0  0  0  0
   27.0531  -18.4879  -13.0246 O   0  0  0  0  0  0  0  0  0  0  0  0
   26.5664  -20.2595  -14.3887 N   0  0  0  0  0  0  0  0  0  0  0  0
   25.5307  -19.5047  -15.0387 C   0  0  1  0  0  0  0  0  0  0  0  0
   25.6718  -19.6592  -16.5268 C   0  0  0  0  0  0  0  0  0  0  0  0
   24.7435  -18.7793  -17.2693 C   0  0  0  0  0  0  0  0  0  0  0  0
   23.8788  -19.1754  -18.0886 O   0  0  0  0  0  0  0  0  0  0  0  0
   24.1573  -19.8735  -14.6257 C   0  0  0  0  0  0  0  0  0  0  0  0
   23.8089  -21.0595  -14.8484 O   0  0  0  0  0  0  0  0  0  0  0  0
   24.8277  -17.3978  -17.0484 O   0  0  0  0  0  0  0  0  0  0  0  0
   23.2407  -18.9889  -14.0125 N   0  0  0  0  0  0  0  0  0  0  0  0
   21.7764  -19.1545  -14.0917 C   0  0  1  0  0  0  0  0  0  0  0  0
   21.3120  -19.0654  -15.4968 C   0  0  0  0  0  0  0  0  0  0  0  0
   21.0032  -17.7286  -16.0045 C   0  0  0  0  0  0  0  0  0  0  0  0
   19.9405  -16.8910  -15.9129 C   0  0  0  0  0  0  0  0  0  0  0  0
   20.2197  -15.7061  -16.5337 N   0  0  0  0  0  0  0  0  0  0  0  0
   21.4510  -15.8393  -16.9936 C   0  0  0  0  0  0  0  0  0  0  0  0
   21.9513  -17.0245  -16.7003 N   0  0  0  0  0  0  0  0  0  0  0  0
   21.4517  -20.5201  -13.5663 C   0  0  0  0  0  0  0  0  0  0  0  0
   21.1082  -20.8145  -12.2814 O   0  0  0  0  0  0  0  0  0  0  0  0
   21.4952  -21.4831  -14.3735 O   0  0  0  0  0  0  0  0  0  0  0  0
  1  2  1  0
  2  3  1  0
  4  3  1  0
  5  1  1  0
  5  4  1  0
  5  6  1  6
  7  6  2  0
  8  6  1  0
  9  8  1  0
  9 10  1  6
 11 10  1  0
 11 15  1  0
 12 11  2  0
 13  9  1  0
 13 16  1  0
 14 13  2  0
 17 16  1  0
 17 24  1  0
 17 18  1  6
 19 18  1  0
 19 20  2  0
 21 20  1  0
 22 21  1  0
 23 22  2  0
 23 19  1  0
 24 25  1  0
 26 24  2  0
M  END
$$$$
