PDH.pdb
     RDKit          3D

 26 27  0  0  1  0  0  0  0  0999 V2000
   20.0307  -11.5483  -19.3094 N   0  0  0  0  0  0  0  0  0  0  0  0
   21.1219  -12.5118  -19.2368 C   0  0  0  0  0  0  0  0  0  0  0  0
   20.8703  -13.3310  -17.9961 C   0  0  0  0  0  0  0  0  0  0  0  0
   19.6256  -12.7444  -17.3721 C   0  0  0  0  0  0  0  0  0  0  0  0
   19.5985  -11.3464  -17.9392 C   0  0  1  0  0  0  0  0  0  0  0  0
   20.5509  -10.4431  -17.2911 C   0  0  0  0  0  0  0  0  0  0  0  0
   20.8023  -10.5000  -16.0418 O   0  0  0  0  0  0  0  0  0  0  0  0
   21.2757   -9.4247  -18.0054 N   0  0  0  0  0  0  0  0  0  0  0  0
   22.1652   -8.5250  -17.3241 C   0  0  1  0  0  0  0  0  0  0  0  0
   23.0529   -7.8546  -18.3344 C   0  0  0  0  0  0  0  0  0  0  0  0
   23.8932   -8.8247  -19.0695 C   0  0  0  0  0  0  0  0  0  0  0  0
   24.6009   -9.7125  -18.5342 O   0  0  0  0  0  0  0  0  0  0  0  0
   21.4829   -7.5011  -16.5002 C   0  0  0  0  0  0  0  0  0  0  0  0
   20.4376   -7.0022  -16.9860 O   0  0  0  0  0  0  0  0  0  0  0  0
   23.9068   -8.7555  -20.4693 O   0  0  0  0  0  0  0  0  0  0  0  0
   21.9310   -7.0644  -15.2325 N   0  0  0  0  0  0  0  0  0  0  0  0
   21.2015   -6.0813  -14.4083 C   0  0  1  0  0  0  0  0  0  0  0  0
   20.8984   -6.6394  -13.0687 C   0  0  0  0  0  0  0  0  0  0  0  0
   19.8494   -7.6569  -13.0016 C   0  0  0  0  0  0  0  0  0  0  0  0
   19.0969   -8.3188  -13.9154 C   0  0  0  0  0  0  0  0  0  0  0  0
   18.2988   -9.2366  -13.2927 N   0  0  0  0  0  0  0  0  0  0  0  0
   18.5787   -9.1211  -12.0068 C   0  0  0  0  0  0  0  0  0  0  0  0
   19.4938   -8.1951  -11.7922 N   0  0  0  0  0  0  0  0  0  0  0  0
   22.0943   -4.8895  -14.2391 C   0  0  0  0  0  0  0  0  0  0  0  0
   21.7490   -3.7196  -13.6325 O   0  0  0  0  0  0  0  0  0  0  0  0
   23.2653   -4.9668  -14.6904 O   0  0  0  0  0  0  0  0  0  0  0  0
  1  2  1  0
  2  3  1  0
  4  3  1  0
  5  1  1  0
  5  4  1  0
  5  6  1  1
  7  6  2  0
  8  6  1  0
  9  8  1  0
  9 10  1  6
 11 10  1  0
 11 15  1  0
 12 11  2  0
 13  9  1  0
 13 16  1  0
 14 13  2  0
 17 16  1  0
 17 24  1  0
 17 18  1  1
 19 18  1  0
 19 20  2  0
 21 20  1  0
 22 21  1  0
 23 22  2  0
 23 19  1  0
 24 25  1  0
 26 24  2  0
M  END
$$$$
