PDH.pdb
     RDKit          3D

 26 27  0  0  1  0  0  0  0  0999 V2000
   24.5230  -33.3930   -8.4067 N   0  0  0  0  0  0  0  0  0  0  0  0
   25.0782  -32.0543   -8.5620 C   0  0  0  0  0  0  0  0  0  0  0  0
   26.5765  -32.2183   -8.5122 C   0  0  0  0  0  0  0  0  0  0  0  0
   26.8124  -33.6919   -8.2770 C   0  0  0  0  0  0  0  0  0  0  0  0
   25.5131  -34.1398   -7.6540 C   0  0  1  0  0  0  0  0  0  0  0  0
   25.3903  -33.7641   -6.2445 C   0  0  0  0  0  0  0  0  0  0  0  0
   24.3068  -33.3027   -5.7542 O   0  0  0  0  0  0  0  0  0  0  0  0
   26.4738  -33.8838   -5.3042 N   0  0  0  0  0  0  0  0  0  0  0  0
   26.2681  -34.4405   -3.9955 C   0  0  1  0  0  0  0  0  0  0  0  0
   25.7501  -35.8442   -4.1358 C   0  0  0  0  0  0  0  0  0  0  0  0
   25.4161  -36.4487   -2.8279 C   0  0  0  0  0  0  0  0  0  0  0  0
   25.9235  -37.5030   -2.3733 O   0  0  0  0  0  0  0  0  0  0  0  0
   27.4731  -34.4358   -3.1349 C   0  0  0  0  0  0  0  0  0  0  0  0
   28.1548  -35.4907   -3.1263 O   0  0  0  0  0  0  0  0  0  0  0  0
   24.4625  -35.8032   -2.0290 O   0  0  0  0  0  0  0  0  0  0  0  0
   27.8872  -33.3405   -2.3427 N   0  0  0  0  0  0  0  0  0  0  0  0
   27.1994  -32.9294   -1.1035 C   0  0  1  0  0  0  0  0  0  0  0  0
   25.7582  -32.6904   -1.3560 C   0  0  0  0  0  0  0  0  0  0  0  0
   24.9331  -32.3566   -0.1950 C   0  0  0  0  0  0  0  0  0  0  0  0
   25.1855  -32.0052    1.0904 C   0  0  0  0  0  0  0  0  0  0  0  0
   24.0162  -31.7298    1.7417 N   0  0  0  0  0  0  0  0  0  0  0  0
   23.0676  -31.9163    0.8414 C   0  0  0  0  0  0  0  0  0  0  0  0
   23.5699  -32.2883   -0.3205 N   0  0  0  0  0  0  0  0  0  0  0  0
   27.3329  -34.0553   -0.1233 C   0  0  0  0  0  0  0  0  0  0  0  0
   27.0494  -33.9862    1.2073 O   0  0  0  0  0  0  0  0  0  0  0  0
   27.7386  -35.1635   -0.5570 O   0  0  0  0  0  0  0  0  0  0  0  0
  1  2  1  0
  2  3  1  0
  4  3  1  0
  5  1  1  0
  5  4  1  0
  5  6  1  1
  7  6  2  0
  8  6  1  0
  9  8  1  0
  9 10  1  6
 11 10  1  0
 11 15  1  0
 12 11  2  0
 13  9  1  0
 13 16  1  0
 14 13  2  0
 17 16  1  0
 17 24  1  0
 17 18  1  6
 19 18  1  0
 19 20  2  0
 21 20  1  0
 22 21  1  0
 23 22  2  0
 23 19  1  0
 24 25  1  0
 26 24  2  0
M  END
$$$$
