PDH.pdb
     RDKit          3D

 26 27  0  0  1  0  0  0  0  0999 V2000
   18.0659  -11.1310  -18.6859 N   0  0  0  0  0  0  0  0  0  0  0  0
   18.4829  -12.4572  -18.2482 C   0  0  0  0  0  0  0  0  0  0  0  0
   17.5842  -12.8139  -17.0910 C   0  0  0  0  0  0  0  0  0  0  0  0
   16.6939  -11.6104  -16.8872 C   0  0  0  0  0  0  0  0  0  0  0  0
   17.4957  -10.4957  -17.5128 C   0  0  1  0  0  0  0  0  0  0  0  0
   18.5970  -10.0330  -16.6666 C   0  0  0  0  0  0  0  0  0  0  0  0
   18.4019   -9.5107  -15.5193 O   0  0  0  0  0  0  0  0  0  0  0  0
   19.9793  -10.1290  -17.0573 N   0  0  0  0  0  0  0  0  0  0  0  0
   21.0295   -9.6275  -16.2144 C   0  0  1  0  0  0  0  0  0  0  0  0
   22.2660  -10.4545  -16.4273 C   0  0  0  0  0  0  0  0  0  0  0  0
   23.3046  -10.1766  -15.4116 C   0  0  0  0  0  0  0  0  0  0  0  0
   23.1713   -9.3864  -14.4455 O   0  0  0  0  0  0  0  0  0  0  0  0
   21.3444   -8.1952  -16.4199 C   0  0  0  0  0  0  0  0  0  0  0  0
   21.6971   -7.8638  -17.5789 O   0  0  0  0  0  0  0  0  0  0  0  0
   24.5333  -10.8407  -15.5280 O   0  0  0  0  0  0  0  0  0  0  0  0
   21.2734   -7.2070  -15.4114 N   0  0  0  0  0  0  0  0  0  0  0  0
   21.6341   -5.7934  -15.6338 C   0  0  1  0  0  0  0  0  0  0  0  0
   20.4471   -5.0056  -16.0440 C   0  0  0  0  0  0  0  0  0  0  0  0
   20.6532   -3.5755  -16.2728 C   0  0  0  0  0  0  0  0  0  0  0  0
   21.4314   -2.8411  -17.1061 C   0  0  0  0  0  0  0  0  0  0  0  0
   21.1693   -1.5098  -16.9443 N   0  0  0  0  0  0  0  0  0  0  0  0
   20.2327   -1.4531  -16.0145 C   0  0  0  0  0  0  0  0  0  0  0  0
   19.8986   -2.6569  -15.5904 N   0  0  0  0  0  0  0  0  0  0  0  0
   22.1413   -5.2512  -14.3319 C   0  0  0  0  0  0  0  0  0  0  0  0
   22.7250   -4.0333  -14.1534 O   0  0  0  0  0  0  0  0  0  0  0  0
   22.0205   -5.9740  -13.3102 O   0  0  0  0  0  0  0  0  0  0  0  0
  1  2  1  0
  2  3  1  0
  4  3  1  0
  5  1  1  0
  5  4  1  0
  5  6  1  1
  7  6  2  0
  8  6  1  0
  9  8  1  0
  9 10  1  6
 11 10  1  0
 11 15  1  0
 12 11  2  0
 13  9  1  0
 13 16  1  0
 14 13  2  0
 17 16  1  0
 17 24  1  0
 17 18  1  1
 19 18  1  0
 19 20  2  0
 21 20  1  0
 22 21  1  0
 23 22  2  0
 23 19  1  0
 24 25  1  0
 26 24  2  0
M  END
$$$$
