PDH.pdb
     RDKit          3D

 26 27  0  0  1  0  0  0  0  0999 V2000
   20.6597  -13.3472  -16.6556 N   0  0  0  0  0  0  0  0  0  0  0  0
   19.5755  -13.7933  -17.5216 C   0  0  0  0  0  0  0  0  0  0  0  0
   19.9703  -13.3925  -18.9207 C   0  0  0  0  0  0  0  0  0  0  0  0
   21.2891  -12.6697  -18.7752 C   0  0  0  0  0  0  0  0  0  0  0  0
   21.2608  -12.2158  -17.3365 C   0  0  1  0  0  0  0  0  0  0  0  0
   20.4060  -11.0477  -17.1175 C   0  0  0  0  0  0  0  0  0  0  0  0
   20.5622   -9.9584  -17.7628 O   0  0  0  0  0  0  0  0  0  0  0  0
   19.3280  -11.0332  -16.1634 N   0  0  0  0  0  0  0  0  0  0  0  0
   18.5346   -9.8540  -15.9519 C   0  0  1  0  0  0  0  0  0  0  0  0
   17.3984  -10.1871  -15.0265 C   0  0  0  0  0  0  0  0  0  0  0  0
   16.3099  -10.9112  -15.7181 C   0  0  0  0  0  0  0  0  0  0  0  0
   16.1989  -11.0223  -16.9635 O   0  0  0  0  0  0  0  0  0  0  0  0
   19.2912   -8.6980  -15.4189 C   0  0  0  0  0  0  0  0  0  0  0  0
   19.9748   -8.9086  -14.3865 O   0  0  0  0  0  0  0  0  0  0  0  0
   15.3233  -11.5225  -14.9324 O   0  0  0  0  0  0  0  0  0  0  0  0
   19.2861   -7.4051  -15.9909 N   0  0  0  0  0  0  0  0  0  0  0  0
   20.1756   -6.3161  -15.5429 C   0  0  1  0  0  0  0  0  0  0  0  0
   21.2284   -6.0480  -16.5517 C   0  0  0  0  0  0  0  0  0  0  0  0
   22.2301   -7.0953  -16.7518 C   0  0  0  0  0  0  0  0  0  0  0  0
   22.9985   -7.8551  -15.9322 C   0  0  0  0  0  0  0  0  0  0  0  0
   23.7268   -8.7497  -16.6648 N   0  0  0  0  0  0  0  0  0  0  0  0
   23.3894   -8.5220  -17.9217 C   0  0  0  0  0  0  0  0  0  0  0  0
   22.5038   -7.5486  -18.0161 N   0  0  0  0  0  0  0  0  0  0  0  0
   19.3341   -5.0852  -15.3912 C   0  0  0  0  0  0  0  0  0  0  0  0
   19.7775   -3.8686  -14.9681 O   0  0  0  0  0  0  0  0  0  0  0  0
   18.1132   -5.1720  -15.6787 O   0  0  0  0  0  0  0  0  0  0  0  0
  1  2  1  0
  2  3  1  0
  4  3  1  0
  5  1  1  0
  5  4  1  0
  5  6  1  6
  7  6  2  0
  8  6  1  0
  9  8  1  0
  9 10  1  1
 11 10  1  0
 11 15  1  0
 12 11  2  0
 13  9  1  0
 13 16  1  0
 14 13  2  0
 17 16  1  0
 17 24  1  0
 17 18  1  6
 19 18  1  0
 19 20  2  0
 21 20  1  0
 22 21  1  0
 23 22  2  0
 23 19  1  0
 24 25  1  0
 26 24  2  0
M  END
$$$$
