PDH.pdb
     RDKit          3D

 26 27  0  0  1  0  0  0  0  0999 V2000
   19.5305  -12.5293  -15.7307 N   0  0  0  0  0  0  0  0  0  0  0  0
   19.3392  -12.7235  -17.1625 C   0  0  0  0  0  0  0  0  0  0  0  0
   20.4885  -12.0152  -17.8345 C   0  0  0  0  0  0  0  0  0  0  0  0
   21.2857  -11.3892  -16.7142 C   0  0  0  0  0  0  0  0  0  0  0  0
   20.2709  -11.2883  -15.6021 C   0  0  1  0  0  0  0  0  0  0  0  0
   19.3318  -10.1791  -15.7778 C   0  0  0  0  0  0  0  0  0  0  0  0
   19.7206   -8.9712  -15.9086 O   0  0  0  0  0  0  0  0  0  0  0  0
   17.9041  -10.3597  -15.8171 N   0  0  0  0  0  0  0  0  0  0  0  0
   17.0128   -9.2381  -15.9289 C   0  0  1  0  0  0  0  0  0  0  0  0
   16.0465   -9.4898  -17.0519 C   0  0  0  0  0  0  0  0  0  0  0  0
   16.7338   -9.6714  -18.3489 C   0  0  0  0  0  0  0  0  0  0  0  0
   17.4273   -8.7968  -18.9230 O   0  0  0  0  0  0  0  0  0  0  0  0
   16.2673   -8.9261  -14.6881 C   0  0  0  0  0  0  0  0  0  0  0  0
   15.8681   -9.9096  -14.0166 O   0  0  0  0  0  0  0  0  0  0  0  0
   16.6071  -10.9097  -18.9930 O   0  0  0  0  0  0  0  0  0  0  0  0
   15.9860   -7.6185  -14.2302 N   0  0  0  0  0  0  0  0  0  0  0  0
   15.2877   -7.3358  -12.9612 C   0  0  1  0  0  0  0  0  0  0  0  0
   16.1116   -7.7553  -11.8024 C   0  0  0  0  0  0  0  0  0  0  0  0
   15.6069   -7.4051  -10.4747 C   0  0  0  0  0  0  0  0  0  0  0  0
   14.3765   -7.2119   -9.9379 C   0  0  0  0  0  0  0  0  0  0  0  0
   14.4805   -6.9658   -8.5978 N   0  0  0  0  0  0  0  0  0  0  0  0
   15.7748   -7.0144   -8.3376 C   0  0  0  0  0  0  0  0  0  0  0  0
   16.4773   -7.2729   -9.4241 N   0  0  0  0  0  0  0  0  0  0  0  0
   15.0775   -5.8537  -12.8870 C   0  0  0  0  0  0  0  0  0  0  0  0
   14.1330   -5.2233  -12.1345 O   0  0  0  0  0  0  0  0  0  0  0  0
   15.8343   -5.1204  -13.5729 O   0  0  0  0  0  0  0  0  0  0  0  0
  1  2  1  0
  2  3  1  0
  4  3  1  0
  5  1  1  0
  5  4  1  0
  5  6  1  6
  7  6  2  0
  8  6  1  0
  9  8  1  0
  9 10  1  6
 11 10  1  0
 11 15  1  0
 12 11  2  0
 13  9  1  0
 13 16  1  0
 14 13  2  0
 17 16  1  0
 17 24  1  0
 17 18  1  1
 19 18  1  0
 19 20  2  0
 21 20  1  0
 22 21  1  0
 23 22  2  0
 23 19  1  0
 24 25  1  0
 26 24  2  0
M  END
$$$$
