PDH.pdb
     RDKit          3D

 26 27  0  0  1  0  0  0  0  0999 V2000
   20.6065  -13.7272  -17.0093 N   0  0  0  0  0  0  0  0  0  0  0  0
   19.2676  -14.0980  -17.4500 C   0  0  0  0  0  0  0  0  0  0  0  0
   19.2183  -13.7959  -18.9266 C   0  0  0  0  0  0  0  0  0  0  0  0
   20.5670  -13.2030  -19.2612 C   0  0  0  0  0  0  0  0  0  0  0  0
   21.0439  -12.6902  -17.9247 C   0  0  1  0  0  0  0  0  0  0  0  0
   20.4043  -11.4347  -17.5276 C   0  0  0  0  0  0  0  0  0  0  0  0
   20.3507  -10.4224  -18.3020 O   0  0  0  0  0  0  0  0  0  0  0  0
   19.7884  -11.2417  -16.2407 N   0  0  0  0  0  0  0  0  0  0  0  0
   19.2546   -9.9651  -15.8529 C   0  0  1  0  0  0  0  0  0  0  0  0
   18.2482  -10.1676  -14.7554 C   0  0  0  0  0  0  0  0  0  0  0  0
   17.0970  -10.9837  -15.1980 C   0  0  0  0  0  0  0  0  0  0  0  0
   16.6974  -12.0297  -14.6306 O   0  0  0  0  0  0  0  0  0  0  0  0
   20.2755   -8.9836  -15.4205 C   0  0  0  0  0  0  0  0  0  0  0  0
   21.1097   -9.3856  -14.5719 O   0  0  0  0  0  0  0  0  0  0  0  0
   16.3928  -10.5660  -16.3355 O   0  0  0  0  0  0  0  0  0  0  0  0
   20.3607   -7.6547  -15.8955 N   0  0  0  0  0  0  0  0  0  0  0  0
   21.4347   -6.7209  -15.5055 C   0  0  1  0  0  0  0  0  0  0  0  0
   22.2679   -6.3584  -16.6769 C   0  0  0  0  0  0  0  0  0  0  0  0
   23.1069   -7.4161  -17.2405 C   0  0  0  0  0  0  0  0  0  0  0  0
   23.9625   -8.3353  -16.7283 C   0  0  0  0  0  0  0  0  0  0  0  0
   24.4350   -9.1447  -17.7227 N   0  0  0  0  0  0  0  0  0  0  0  0
   23.8579   -8.7068  -18.8274 C   0  0  0  0  0  0  0  0  0  0  0  0
   23.0623   -7.6828  -18.5843 N   0  0  0  0  0  0  0  0  0  0  0  0
   20.7792   -5.4788  -14.9822 C   0  0  0  0  0  0  0  0  0  0  0  0
   21.4258   -4.4069  -14.4448 O   0  0  0  0  0  0  0  0  0  0  0  0
   19.5252   -5.4096  -15.0418 O   0  0  0  0  0  0  0  0  0  0  0  0
  1  2  1  0
  2  3  1  0
  4  3  1  0
  5  1  1  0
  5  4  1  0
  5  6  1  1
  7  6  2  0
  8  6  1  0
  9  8  1  0
  9 10  1  1
 11 10  1  0
 11 15  1  0
 12 11  2  0
 13  9  1  0
 13 16  1  0
 14 13  2  0
 17 16  1  0
 17 24  1  0
 17 18  1  6
 19 18  1  0
 19 20  2  0
 21 20  1  0
 22 21  1  0
 23 22  2  0
 23 19  1  0
 24 25  1  0
 26 24  2  0
M  END
$$$$
