TYT.pdb
     RDKit          3D

 27 27  0  0  1  0  0  0  0  0999 V2000
    6.7346  -16.0175   20.2001 C   0  0  0  0  0  0  0  0  0  0  0  0
    7.4416  -14.8787   19.5218 C   0  0  1  0  0  0  0  0  0  0  0  0
    6.9118  -14.6421   18.2633 O   0  0  0  0  0  0  0  0  0  0  0  0
    7.4704  -13.6351   20.3849 C   0  0  2  0  0  0  0  0  0  0  0  0
    7.9418  -12.5334   19.5942 N   0  0  0  0  0  0  0  0  0  0  0  0
    8.2830  -13.8370   21.6144 C   0  0  0  0  0  0  0  0  0  0  0  0
    9.5133  -13.6873   21.5229 O   0  0  0  0  0  0  0  0  0  0  0  0
   10.5049  -15.2546   30.1302 O   0  0  0  0  0  0  0  0  0  0  0  0
    9.8311  -14.9472   28.9309 C   0  0  0  0  0  0  0  0  0  0  0  0
    9.0628  -15.8924   28.2891 C   0  0  0  0  0  0  0  0  0  0  0  0
    8.4130  -15.5609   27.1129 C   0  0  0  0  0  0  0  0  0  0  0  0
    8.5036  -14.3085   26.5497 C   0  0  0  0  0  0  0  0  0  0  0  0
    7.7960  -14.0196   25.3125 C   0  0  0  0  0  0  0  0  0  0  0  0
    8.4985  -14.4656   24.0574 C   0  0  2  0  0  0  0  0  0  0  0  0
    7.7320  -14.1867   22.8682 N   0  0  0  0  0  0  0  0  0  0  0  0
    9.0501  -15.8239   24.1037 C   0  0  0  0  0  0  0  0  0  0  0  0
    8.2633  -16.8057   24.1914 O   0  0  0  0  0  0  0  0  0  0  0  0
    9.2648  -13.3558   27.1766 C   0  0  0  0  0  0  0  0  0  0  0  0
    9.9215  -13.6934   28.3666 C   0  0  0  0  0  0  0  0  0  0  0  0
   10.9276  -17.6917   21.6090 C   0  0  0  0  0  0  0  0  0  0  0  0
   11.7549  -17.7541   22.8736 C   0  0  1  0  0  0  0  0  0  0  0  0
   12.7120  -16.7639   22.7967 O   0  0  0  0  0  0  0  0  0  0  0  0
   10.8944  -17.5380   24.1087 C   0  0  2  0  0  0  0  0  0  0  0  0
   10.4335  -16.1518   24.0550 N   0  0  0  0  0  0  0  0  0  0  0  0
   11.7328  -17.7460   25.3086 C   0  0  0  0  0  0  0  0  0  0  0  0
   12.0125  -16.7938   26.0774 O   0  0  0  0  0  0  0  0  0  0  0  0
   12.2360  -18.9853   25.6283 O   0  0  0  0  0  0  0  0  0  0  0  0
  2  1  1  1
  2  3  1  0
  4  2  1  0
  4  5  1  6
  6  7  2  0
  6  4  1  0
  8  9  1  0
  9 10  2  0
 10 11  1  0
 12 11  2  0
 12 13  1  0
 14 13  1  1
 14 15  1  0
 15  6  1  0
 16 14  1  0
 17 16  2  0
 18 12  1  0
 19  9  1  0
 19 18  2  0
 21 22  1  0
 21 20  1  6
 23 21  1  0
 23 24  1  6
 24 16  1  0
 25 23  1  0
 26 25  2  0
 27 25  1  0
M  END
$$$$
