TYT.pdb
     RDKit          3D

 27 27  0  0  1  0  0  0  0  0999 V2000
    8.4666  -12.3256   19.8988 C   0  0  0  0  0  0  0  0  0  0  0  0
    7.6537  -13.5811   19.7593 C   0  0  1  0  0  0  0  0  0  0  0  0
    7.0617  -13.6550   18.5084 O   0  0  0  0  0  0  0  0  0  0  0  0
    8.4590  -14.8181   20.0964 C   0  0  2  0  0  0  0  0  0  0  0  0
    7.6555  -15.9791   19.8366 N   0  0  0  0  0  0  0  0  0  0  0  0
    8.9640  -14.7818   21.4952 C   0  0  0  0  0  0  0  0  0  0  0  0
    9.9371  -14.0477   21.7376 O   0  0  0  0  0  0  0  0  0  0  0  0
    5.8608  -10.6361   26.8023 O   0  0  0  0  0  0  0  0  0  0  0  0
    6.3338  -11.8780   26.3323 C   0  0  0  0  0  0  0  0  0  0  0  0
    7.5751  -12.3469   26.6998 C   0  0  0  0  0  0  0  0  0  0  0  0
    8.0123  -13.5701   26.2222 C   0  0  0  0  0  0  0  0  0  0  0  0
    7.2479  -14.3487   25.3835 C   0  0  0  0  0  0  0  0  0  0  0  0
    7.7613  -15.6264   24.9158 C   0  0  0  0  0  0  0  0  0  0  0  0
    8.8791  -15.5349   23.9109 C   0  0  2  0  0  0  0  0  0  0  0  0
    8.3987  -15.5323   22.5512 N   0  0  0  0  0  0  0  0  0  0  0  0
    9.9998  -16.4521   24.1433 C   0  0  0  0  0  0  0  0  0  0  0  0
   10.4512  -16.5895   25.3129 O   0  0  0  0  0  0  0  0  0  0  0  0
    6.0092  -13.8959   25.0083 C   0  0  0  0  0  0  0  0  0  0  0  0
    5.5688  -12.6579   25.4926 C   0  0  0  0  0  0  0  0  0  0  0  0
   10.1170  -20.1666   23.0817 C   0  0  0  0  0  0  0  0  0  0  0  0
   11.3650  -19.4479   22.6198 C   0  0  1  0  0  0  0  0  0  0  0  0
   11.1600  -19.0501   21.3151 O   0  0  0  0  0  0  0  0  0  0  0  0
   11.6552  -18.2316   23.4851 C   0  0  2  0  0  0  0  0  0  0  0  0
   10.6468  -17.2300   23.1432 N   0  0  0  0  0  0  0  0  0  0  0  0
   13.0036  -17.7264   23.1499 C   0  0  0  0  0  0  0  0  0  0  0  0
   13.1589  -16.6117   22.5938 O   0  0  0  0  0  0  0  0  0  0  0  0
   14.1354  -18.4544   23.4336 O   0  0  0  0  0  0  0  0  0  0  0  0
  2  1  1  6
  2  3  1  0
  4  2  1  0
  4  5  1  1
  6  7  2  0
  6  4  1  0
  8  9  1  0
  9 10  2  0
 10 11  1  0
 12 11  2  0
 12 13  1  0
 14 13  1  1
 14 15  1  0
 15  6  1  0
 16 14  1  0
 17 16  2  0
 18 12  1  0
 19  9  1  0
 19 18  2  0
 21 22  1  0
 21 20  1  1
 23 21  1  0
 23 24  1  6
 24 16  1  0
 25 23  1  0
 26 25  2  0
 27 25  1  0
M  END
$$$$
