TYT.pdb
     RDKit          3D

 27 27  0  0  1  0  0  0  0  0999 V2000
    6.0216  -13.9626   18.7593 C   0  0  0  0  0  0  0  0  0  0  0  0
    6.8993  -14.3698   19.9085 C   0  0  1  0  0  0  0  0  0  0  0  0
    7.8003  -15.3501   19.5244 O   0  0  0  0  0  0  0  0  0  0  0  0
    7.5748  -13.1790   20.5552 C   0  0  2  0  0  0  0  0  0  0  0  0
    8.3742  -12.5081   19.5693 N   0  0  0  0  0  0  0  0  0  0  0  0
    8.3671  -13.5772   21.7496 C   0  0  0  0  0  0  0  0  0  0  0  0
    9.5887  -13.7494   21.5994 O   0  0  0  0  0  0  0  0  0  0  0  0
   10.6176  -15.4246   30.1745 O   0  0  0  0  0  0  0  0  0  0  0  0
    9.9494  -15.0052   29.0064 C   0  0  0  0  0  0  0  0  0  0  0  0
   10.1839  -13.7609   28.4657 C   0  0  0  0  0  0  0  0  0  0  0  0
    9.5126  -13.3772   27.3178 C   0  0  0  0  0  0  0  0  0  0  0  0
    8.6077  -14.1985   26.6849 C   0  0  0  0  0  0  0  0  0  0  0  0
    7.9346  -13.7395   25.4803 C   0  0  0  0  0  0  0  0  0  0  0  0
    8.5309  -14.2344   24.1890 C   0  0  2  0  0  0  0  0  0  0  0  0
    7.8062  -13.7676   23.0329 N   0  0  0  0  0  0  0  0  0  0  0  0
    8.8408  -15.6676   24.1572 C   0  0  0  0  0  0  0  0  0  0  0  0
    7.8955  -16.5024   24.1513 O   0  0  0  0  0  0  0  0  0  0  0  0
    8.3630  -15.4409   27.2108 C   0  0  0  0  0  0  0  0  0  0  0  0
    9.0433  -15.8272   28.3724 C   0  0  0  0  0  0  0  0  0  0  0  0
   10.1970  -17.9530   21.7414 C   0  0  0  0  0  0  0  0  0  0  0  0
   11.0950  -18.0775   22.9520 C   0  0  1  0  0  0  0  0  0  0  0  0
   12.1823  -17.2525   22.7530 O   0  0  0  0  0  0  0  0  0  0  0  0
   10.3689  -17.6677   24.2238 C   0  0  2  0  0  0  0  0  0  0  0  0
   10.1491  -16.2256   24.1289 N   0  0  0  0  0  0  0  0  0  0  0  0
   11.2379  -17.9717   25.3806 C   0  0  0  0  0  0  0  0  0  0  0  0
   11.6984  -17.0553   26.1046 O   0  0  0  0  0  0  0  0  0  0  0  0
   11.5737  -19.2647   25.7078 O   0  0  0  0  0  0  0  0  0  0  0  0
  2  1  1  6
  2  3  1  0
  4  2  1  0
  4  5  1  6
  6  7  2  0
  6  4  1  0
  8  9  1  0
  9 10  2  0
 10 11  1  0
 12 11  2  0
 12 13  1  0
 14 13  1  1
 14 15  1  0
 15  6  1  0
 16 14  1  0
 17 16  2  0
 18 12  1  0
 19  9  1  0
 19 18  2  0
 21 22  1  0
 21 20  1  6
 23 21  1  0
 23 24  1  6
 24 16  1  0
 25 23  1  0
 26 25  2  0
 27 25  1  0
M  END
$$$$
