TYT.pdb
     RDKit          3D

 27 27  0  0  1  0  0  0  0  0999 V2000
    8.1198  -18.6357   18.2674 C   0  0  0  0  0  0  0  0  0  0  0  0
    8.3188  -18.1076   19.6596 C   0  0  1  0  0  0  0  0  0  0  0  0
    8.8408  -19.0840   20.4930 O   0  0  0  0  0  0  0  0  0  0  0  0
    9.1371  -16.8338   19.6708 C   0  0  2  0  0  0  0  0  0  0  0  0
   10.4201  -17.1023   19.0851 N   0  0  0  0  0  0  0  0  0  0  0  0
    9.2492  -16.2636   21.0402 C   0  0  0  0  0  0  0  0  0  0  0  0
   10.2746  -16.5262   21.6915 O   0  0  0  0  0  0  0  0  0  0  0  0
    7.3584  -11.8714   28.5499 O   0  0  0  0  0  0  0  0  0  0  0  0
    7.3591  -12.3568   27.2266 C   0  0  0  0  0  0  0  0  0  0  0  0
    8.5065  -12.3347   26.4659 C   0  0  0  0  0  0  0  0  0  0  0  0
    8.4762  -12.8183   25.1694 C   0  0  0  0  0  0  0  0  0  0  0  0
    7.3314  -13.3277   24.6004 C   0  0  0  0  0  0  0  0  0  0  0  0
    7.3625  -13.8229   23.2334 C   0  0  0  0  0  0  0  0  0  0  0  0
    8.2634  -15.0079   23.0051 C   0  0  2  0  0  0  0  0  0  0  0  0
    8.2586  -15.4469   21.6315 N   0  0  0  0  0  0  0  0  0  0  0  0
    8.1162  -16.0963   23.9772 C   0  0  0  0  0  0  0  0  0  0  0  0
    6.9714  -16.5800   24.1920 O   0  0  0  0  0  0  0  0  0  0  0  0
    6.1803  -13.3567   25.3448 C   0  0  0  0  0  0  0  0  0  0  0  0
    6.2131  -12.8669   26.6564 C   0  0  0  0  0  0  0  0  0  0  0  0
    8.6727  -19.4592   23.8633 C   0  0  0  0  0  0  0  0  0  0  0  0
    9.4956  -19.0250   25.0557 C   0  0  1  0  0  0  0  0  0  0  0  0
   10.7819  -18.7940   24.6145 O   0  0  0  0  0  0  0  0  0  0  0  0
    8.9353  -17.7579   25.6825 C   0  0  2  0  0  0  0  0  0  0  0  0
    9.1764  -16.6803   24.7246 N   0  0  0  0  0  0  0  0  0  0  0  0
    9.6676  -17.4908   26.9388 C   0  0  0  0  0  0  0  0  0  0  0  0
   10.4377  -16.5049   27.0438 O   0  0  0  0  0  0  0  0  0  0  0  0
    9.5337  -18.3080   28.0369 O   0  0  0  0  0  0  0  0  0  0  0  0
  2  1  1  6
  2  3  1  0
  4  2  1  0
  4  5  1  1
  6  7  2  0
  6  4  1  0
  8  9  1  0
  9 10  2  0
 10 11  1  0
 12 11  2  0
 12 13  1  0
 14 13  1  6
 14 15  1  0
 15  6  1  0
 16 14  1  0
 17 16  2  0
 18 12  1  0
 19  9  1  0
 19 18  2  0
 21 22  1  0
 21 20  1  6
 23 21  1  0
 23 24  1  6
 24 16  1  0
 25 23  1  0
 26 25  2  0
 27 25  1  0
M  END
$$$$
