TYT.pdb
     RDKit          3D

 27 27  0  0  1  0  0  0  0  0999 V2000
    6.1640  -14.3390   18.4028 C   0  0  0  0  0  0  0  0  0  0  0  0
    7.0231  -14.5718   19.6129 C   0  0  1  0  0  0  0  0  0  0  0  0
    8.1526  -15.3063   19.2883 O   0  0  0  0  0  0  0  0  0  0  0  0
    7.3546  -13.2799   20.3295 C   0  0  2  0  0  0  0  0  0  0  0  0
    7.9852  -12.3841   19.4016 N   0  0  0  0  0  0  0  0  0  0  0  0
    8.1873  -13.5192   21.5388 C   0  0  0  0  0  0  0  0  0  0  0  0
    9.4186  -13.3964   21.4240 O   0  0  0  0  0  0  0  0  0  0  0  0
   10.5305  -15.3711   29.9460 O   0  0  0  0  0  0  0  0  0  0  0  0
    9.8334  -15.0062   28.7764 C   0  0  0  0  0  0  0  0  0  0  0  0
    9.0261  -15.9103   28.1233 C   0  0  0  0  0  0  0  0  0  0  0  0
    8.3541  -15.5228   26.9770 C   0  0  0  0  0  0  0  0  0  0  0  0
    8.4603  -14.2539   26.4551 C   0  0  0  0  0  0  0  0  0  0  0  0
    7.7280  -13.9054   25.2479 C   0  0  0  0  0  0  0  0  0  0  0  0
    8.4378  -14.2220   23.9581 C   0  0  2  0  0  0  0  0  0  0  0  0
    7.6539  -13.8753   22.7984 N   0  0  0  0  0  0  0  0  0  0  0  0
    9.0382  -15.5585   23.8915 C   0  0  0  0  0  0  0  0  0  0  0  0
    8.2915  -16.5621   23.7311 O   0  0  0  0  0  0  0  0  0  0  0  0
    9.2602  -13.3416   27.0938 C   0  0  0  0  0  0  0  0  0  0  0  0
    9.9393  -13.7358   28.2534 C   0  0  0  0  0  0  0  0  0  0  0  0
   12.7476  -18.6174   23.0115 C   0  0  0  0  0  0  0  0  0  0  0  0
   12.0254  -17.2895   22.9604 C   0  0  1  0  0  0  0  0  0  0  0  0
   11.4685  -17.1642   21.7048 O   0  0  0  0  0  0  0  0  0  0  0  0
   10.9317  -17.2137   24.0142 C   0  0  2  0  0  0  0  0  0  0  0  0
   10.4289  -15.8412   23.9913 N   0  0  0  0  0  0  0  0  0  0  0  0
   11.5282  -17.5116   25.3338 C   0  0  0  0  0  0  0  0  0  0  0  0
   11.7787  -16.5950   26.1543 O   0  0  0  0  0  0  0  0  0  0  0  0
   11.8299  -18.7988   25.7126 O   0  0  0  0  0  0  0  0  0  0  0  0
  2  1  1  6
  2  3  1  0
  4  2  1  0
  4  5  1  6
  6  7  2  0
  6  4  1  0
  8  9  1  0
  9 10  2  0
 10 11  1  0
 12 11  2  0
 12 13  1  0
 14 13  1  1
 14 15  1  0
 15  6  1  0
 16 14  1  0
 17 16  2  0
 18 12  1  0
 19  9  1  0
 19 18  2  0
 21 22  1  0
 21 20  1  6
 23 21  1  0
 23 24  1  1
 24 16  1  0
 25 23  1  0
 26 25  2  0
 27 25  1  0
M  END
$$$$
