TYT.pdb
     RDKit          3D

 27 27  0  0  1  0  0  0  0  0999 V2000
    7.0762  -18.1042   20.0601 C   0  0  0  0  0  0  0  0  0  0  0  0
    8.4567  -18.0802   19.4684 C   0  0  1  0  0  0  0  0  0  0  0  0
    8.4567  -18.5967   18.1825 O   0  0  0  0  0  0  0  0  0  0  0  0
    9.0812  -16.7029   19.5428 C   0  0  2  0  0  0  0  0  0  0  0  0
   10.3455  -16.7302   18.8632 N   0  0  0  0  0  0  0  0  0  0  0  0
    9.2047  -16.2297   20.9477 C   0  0  0  0  0  0  0  0  0  0  0  0
   10.1668  -16.6479   21.6140 O   0  0  0  0  0  0  0  0  0  0  0  0
    7.1487  -12.1284   28.6346 O   0  0  0  0  0  0  0  0  0  0  0  0
    7.2282  -12.5274   27.2850 C   0  0  0  0  0  0  0  0  0  0  0  0
    6.1314  -13.0480   26.6357 C   0  0  0  0  0  0  0  0  0  0  0  0
    6.2401  -13.4310   25.3102 C   0  0  0  0  0  0  0  0  0  0  0  0
    7.4150  -13.3118   24.6035 C   0  0  0  0  0  0  0  0  0  0  0  0
    7.4668  -13.7302   23.2118 C   0  0  0  0  0  0  0  0  0  0  0  0
    8.3356  -14.9296   22.9387 C   0  0  2  0  0  0  0  0  0  0  0  0
    8.2926  -15.3378   21.5563 N   0  0  0  0  0  0  0  0  0  0  0  0
    8.1839  -16.0358   23.8898 C   0  0  0  0  0  0  0  0  0  0  0  0
    7.0452  -16.5508   24.0593 O   0  0  0  0  0  0  0  0  0  0  0  0
    8.5165  -12.7951   25.2358 C   0  0  0  0  0  0  0  0  0  0  0  0
    8.4043  -12.4082   26.5771 C   0  0  0  0  0  0  0  0  0  0  0  0
    9.0095  -19.4093   23.7852 C   0  0  0  0  0  0  0  0  0  0  0  0
    9.6857  -18.9193   25.0462 C   0  0  1  0  0  0  0  0  0  0  0  0
   10.9893  -18.6025   24.7258 O   0  0  0  0  0  0  0  0  0  0  0  0
    8.9852  -17.6923   25.6085 C   0  0  2  0  0  0  0  0  0  0  0  0
    9.2332  -16.6045   24.6639 N   0  0  0  0  0  0  0  0  0  0  0  0
    9.5840  -17.3686   26.9209 C   0  0  0  0  0  0  0  0  0  0  0  0
   10.2086  -16.2947   27.1018 O   0  0  0  0  0  0  0  0  0  0  0  0
    9.4801  -18.2271   27.9903 O   0  0  0  0  0  0  0  0  0  0  0  0
  2  1  1  6
  2  3  1  0
  4  2  1  0
  4  5  1  1
  6  7  2  0
  6  4  1  0
  8  9  1  0
  9 10  2  0
 10 11  1  0
 12 11  2  0
 12 13  1  0
 14 13  1  6
 14 15  1  0
 15  6  1  0
 16 14  1  0
 17 16  2  0
 18 12  1  0
 19  9  1  0
 19 18  2  0
 21 22  1  0
 21 20  1  6
 23 21  1  0
 23 24  1  6
 24 16  1  0
 25 23  1  0
 26 25  2  0
 27 25  1  0
M  END
$$$$
