TYT.pdb
     RDKit          3D

 27 27  0  0  1  0  0  0  0  0999 V2000
    7.1391  -14.6455   18.2225 C   0  0  0  0  0  0  0  0  0  0  0  0
    7.7235  -14.9368   19.5754 C   0  0  1  0  0  0  0  0  0  0  0  0
    9.0031  -15.4571   19.4638 O   0  0  0  0  0  0  0  0  0  0  0  0
    7.6625  -13.7321   20.4904 C   0  0  2  0  0  0  0  0  0  0  0  0
    8.3176  -12.6283   19.8473 N   0  0  0  0  0  0  0  0  0  0  0  0
    8.2379  -14.0284   21.8298 C   0  0  0  0  0  0  0  0  0  0  0  0
    9.3949  -13.6370   22.0592 O   0  0  0  0  0  0  0  0  0  0  0  0
    6.1719   -9.9593   27.3861 O   0  0  0  0  0  0  0  0  0  0  0  0
    6.4141  -11.2404   26.8503 C   0  0  0  0  0  0  0  0  0  0  0  0
    5.3798  -12.1224   26.6314 C   0  0  0  0  0  0  0  0  0  0  0  0
    5.6487  -13.3735   26.1041 C   0  0  0  0  0  0  0  0  0  0  0  0
    6.9245  -13.7790   25.7847 C   0  0  0  0  0  0  0  0  0  0  0  0
    7.1439  -15.1060   25.2319 C   0  0  0  0  0  0  0  0  0  0  0  0
    8.1219  -15.1664   24.0883 C   0  0  2  0  0  0  0  0  0  0  0  0
    7.5422  -14.7253   22.8437 N   0  0  0  0  0  0  0  0  0  0  0  0
    8.8756  -16.4201   23.9814 C   0  0  0  0  0  0  0  0  0  0  0  0
    8.2801  -17.4671   23.6076 O   0  0  0  0  0  0  0  0  0  0  0  0
    7.9656  -12.9122   25.9968 C   0  0  0  0  0  0  0  0  0  0  0  0
    7.6913  -11.6468   26.5304 C   0  0  0  0  0  0  0  0  0  0  0  0
   11.5105  -17.4999   21.8338 C   0  0  0  0  0  0  0  0  0  0  0  0
   12.0392  -17.7811   23.2226 C   0  0  1  0  0  0  0  0  0  0  0  0
   12.8785  -16.7427   23.5689 O   0  0  0  0  0  0  0  0  0  0  0  0
   10.9089  -17.8836   24.2346 C   0  0  2  0  0  0  0  0  0  0  0  0
   10.2610  -16.5735   24.2659 N   0  0  0  0  0  0  0  0  0  0  0  0
   11.4892  -18.1925   25.5588 C   0  0  0  0  0  0  0  0  0  0  0  0
   11.3625  -17.3993   26.5236 O   0  0  0  0  0  0  0  0  0  0  0  0
   12.1869  -19.3560   25.7846 O   0  0  0  0  0  0  0  0  0  0  0  0
  2  1  1  6
  2  3  1  0
  4  2  1  0
  4  5  1  6
  6  7  2  0
  6  4  1  0
  8  9  1  0
  9 10  2  0
 10 11  1  0
 12 11  2  0
 12 13  1  0
 14 13  1  1
 14 15  1  0
 15  6  1  0
 16 14  1  0
 17 16  2  0
 18 12  1  0
 19  9  1  0
 19 18  2  0
 21 22  1  0
 21 20  1  6
 23 21  1  0
 23 24  1  1
 24 16  1  0
 25 23  1  0
 26 25  2  0
 27 25  1  0
M  END
$$$$
