TYT.pdb
     RDKit          3D

 27 27  0  0  1  0  0  0  0  0999 V2000
    6.8873  -14.9243   17.8532 C   0  0  0  0  0  0  0  0  0  0  0  0
    7.5540  -14.9176   19.1994 C   0  0  1  0  0  0  0  0  0  0  0  0
    8.8433  -15.4195   19.1194 O   0  0  0  0  0  0  0  0  0  0  0  0
    7.4998  -13.5524   19.8517 C   0  0  2  0  0  0  0  0  0  0  0  0
    8.0010  -12.5764   18.9258 N   0  0  0  0  0  0  0  0  0  0  0  0
    8.2321  -13.5316   21.1465 C   0  0  0  0  0  0  0  0  0  0  0  0
    9.3903  -13.0810   21.1461 O   0  0  0  0  0  0  0  0  0  0  0  0
   10.0866  -14.3733   29.8269 O   0  0  0  0  0  0  0  0  0  0  0  0
    9.4396  -14.2931   28.5771 C   0  0  0  0  0  0  0  0  0  0  0  0
    9.0748  -15.4322   27.8953 C   0  0  0  0  0  0  0  0  0  0  0  0
    8.4408  -15.3216   26.6700 C   0  0  0  0  0  0  0  0  0  0  0  0
    8.1556  -14.1038   26.0960 C   0  0  0  0  0  0  0  0  0  0  0  0
    7.4859  -14.0518   24.8063 C   0  0  0  0  0  0  0  0  0  0  0  0
    8.4011  -14.0862   23.6109 C   0  0  2  0  0  0  0  0  0  0  0  0
    7.6826  -13.9935   22.3640 N   0  0  0  0  0  0  0  0  0  0  0  0
    9.4147  -15.1460   23.6352 C   0  0  0  0  0  0  0  0  0  0  0  0
   10.1799  -15.2441   24.6329 O   0  0  0  0  0  0  0  0  0  0  0  0
    8.5125  -12.9598   26.7624 C   0  0  0  0  0  0  0  0  0  0  0  0
    9.1539  -13.0739   28.0021 C   0  0  0  0  0  0  0  0  0  0  0  0
    8.8187  -18.9798   22.9056 C   0  0  0  0  0  0  0  0  0  0  0  0
    9.9604  -18.4159   22.0894 C   0  0  1  0  0  0  0  0  0  0  0  0
    9.4548  -18.0516   20.8588 O   0  0  0  0  0  0  0  0  0  0  0  0
   10.5786  -17.2031   22.7670 C   0  0  2  0  0  0  0  0  0  0  0  0
    9.6233  -16.1081   22.6082 N   0  0  0  0  0  0  0  0  0  0  0  0
   11.8447  -16.8736   22.0783 C   0  0  0  0  0  0  0  0  0  0  0  0
   11.9610  -15.8217   21.4030 O   0  0  0  0  0  0  0  0  0  0  0  0
   12.9397  -17.7024   22.1508 O   0  0  0  0  0  0  0  0  0  0  0  0
  2  1  1  6
  2  3  1  0
  4  2  1  0
  4  5  1  6
  6  7  2  0
  6  4  1  0
  8  9  1  0
  9 10  2  0
 10 11  1  0
 12 11  2  0
 12 13  1  0
 14 13  1  1
 14 15  1  0
 15  6  1  0
 16 14  1  0
 17 16  2  0
 18 12  1  0
 19  9  1  0
 19 18  2  0
 21 22  1  0
 21 20  1  1
 23 21  1  0
 23 24  1  6
 24 16  1  0
 25 23  1  0
 26 25  2  0
 27 25  1  0
M  END
$$$$
