TYT.pdb
     RDKit          3D

 27 27  0  0  1  0  0  0  0  0999 V2000
    6.2221  -14.3089   18.3569 C   0  0  0  0  0  0  0  0  0  0  0  0
    7.0637  -14.5696   19.5736 C   0  0  1  0  0  0  0  0  0  0  0  0
    8.1792  -15.3275   19.2548 O   0  0  0  0  0  0  0  0  0  0  0  0
    7.4174  -13.2906   20.3026 C   0  0  2  0  0  0  0  0  0  0  0  0
    8.0923  -12.4097   19.3916 N   0  0  0  0  0  0  0  0  0  0  0  0
    8.2181  -13.5585   21.5274 C   0  0  0  0  0  0  0  0  0  0  0  0
    9.4561  -13.5501   21.4197 O   0  0  0  0  0  0  0  0  0  0  0  0
   10.5010  -15.1495   29.9851 O   0  0  0  0  0  0  0  0  0  0  0  0
    9.8001  -14.8272   28.8054 C   0  0  0  0  0  0  0  0  0  0  0  0
    9.8792  -13.5664   28.2578 C   0  0  0  0  0  0  0  0  0  0  0  0
    9.1796  -13.2798   27.0985 C   0  0  0  0  0  0  0  0  0  0  0  0
    8.3970  -14.2151   26.4608 C   0  0  0  0  0  0  0  0  0  0  0  0
    7.6866  -13.8545   25.2443 C   0  0  0  0  0  0  0  0  0  0  0  0
    8.3862  -14.2265   23.9636 C   0  0  2  0  0  0  0  0  0  0  0  0
    7.6474  -13.8193   22.7939 N   0  0  0  0  0  0  0  0  0  0  0  0
    8.8800  -15.6063   23.9039 C   0  0  0  0  0  0  0  0  0  0  0  0
    8.0513  -16.5557   23.8557 O   0  0  0  0  0  0  0  0  0  0  0  0
    8.3077  -15.4755   26.9934 C   0  0  0  0  0  0  0  0  0  0  0  0
    9.0164  -15.7634   28.1665 C   0  0  0  0  0  0  0  0  0  0  0  0
   10.5866  -17.5012   21.4120 C   0  0  0  0  0  0  0  0  0  0  0  0
   11.4544  -17.6327   22.6438 C   0  0  1  0  0  0  0  0  0  0  0  0
   12.4607  -16.6941   22.5487 O   0  0  0  0  0  0  0  0  0  0  0  0
   10.6523  -17.3948   23.9135 C   0  0  2  0  0  0  0  0  0  0  0  0
   10.2499  -15.9896   23.8921 N   0  0  0  0  0  0  0  0  0  0  0  0
   11.5264  -17.6528   25.0777 C   0  0  0  0  0  0  0  0  0  0  0  0
   11.8620  -16.7258   25.8549 O   0  0  0  0  0  0  0  0  0  0  0  0
   12.0032  -18.9129   25.3538 O   0  0  0  0  0  0  0  0  0  0  0  0
  2  1  1  6
  2  3  1  0
  4  2  1  0
  4  5  1  6
  6  7  2  0
  6  4  1  0
  8  9  1  0
  9 10  2  0
 10 11  1  0
 12 11  2  0
 12 13  1  0
 14 13  1  1
 14 15  1  0
 15  6  1  0
 16 14  1  0
 17 16  2  0
 18 12  1  0
 19  9  1  0
 19 18  2  0
 21 22  1  0
 21 20  1  6
 23 21  1  0
 23 24  1  6
 24 16  1  0
 25 23  1  0
 26 25  2  0
 27 25  1  0
M  END
$$$$
