TYT.pdb
     RDKit          3D

 27 27  0  0  1  0  0  0  0  0999 V2000
    2.2219   -8.3215    6.2961 C   0  0  0  0  0  0  0  0  0  0  0  0
    2.2931   -9.4136    7.3251 C   0  0  1  0  0  0  0  0  0  0  0  0
    3.6081   -9.7104    7.6465 O   0  0  0  0  0  0  0  0  0  0  0  0
    1.4524   -9.0989    8.5443 C   0  0  2  0  0  0  0  0  0  0  0  0
    1.9778   -7.9229    9.1784 N   0  0  0  0  0  0  0  0  0  0  0  0
    1.3773  -10.2571    9.4750 C   0  0  0  0  0  0  0  0  0  0  0  0
    2.1230  -10.2466   10.4691 O   0  0  0  0  0  0  0  0  0  0  0  0
   -3.7808   -8.4829   13.0407 O   0  0  0  0  0  0  0  0  0  0  0  0
   -3.0968   -9.5504   12.4247 C   0  0  0  0  0  0  0  0  0  0  0  0
   -3.2245   -9.7868   11.0744 C   0  0  0  0  0  0  0  0  0  0  0  0
   -2.5404  -10.8428   10.4979 C   0  0  0  0  0  0  0  0  0  0  0  0
   -1.7262  -11.6785   11.2277 C   0  0  0  0  0  0  0  0  0  0  0  0
   -1.0317  -12.7708   10.5649 C   0  0  0  0  0  0  0  0  0  0  0  0
    0.3961  -12.4806   10.1841 C   0  0  2  0  0  0  0  0  0  0  0  0
    0.5096  -11.3570    9.2873 N   0  0  0  0  0  0  0  0  0  0  0  0
    1.1792  -13.6506    9.7727 C   0  0  0  0  0  0  0  0  0  0  0  0
    1.1659  -14.0064    8.5628 O   0  0  0  0  0  0  0  0  0  0  0  0
   -1.5883  -11.4564   12.5737 C   0  0  0  0  0  0  0  0  0  0  0  0
   -2.2814  -10.3873   13.1550 C   0  0  0  0  0  0  0  0  0  0  0  0
    4.1390  -15.4102   12.2373 C   0  0  0  0  0  0  0  0  0  0  0  0
    4.1874  -15.3609   10.7265 C   0  0  1  0  0  0  0  0  0  0  0  0
    5.0157  -16.3785   10.3010 O   0  0  0  0  0  0  0  0  0  0  0  0
    2.8037  -15.5422   10.1225 C   0  0  2  0  0  0  0  0  0  0  0  0
    1.9812  -14.4480   10.6355 N   0  0  0  0  0  0  0  0  0  0  0  0
    2.2588  -16.8398   10.5755 C   0  0  0  0  0  0  0  0  0  0  0  0
    2.6908  -17.9228   10.1102 O   0  0  0  0  0  0  0  0  0  0  0  0
    1.2622  -16.9107   11.5206 O   0  0  0  0  0  0  0  0  0  0  0  0
  2  1  1  6
  2  3  1  0
  4  2  1  0
  4  5  1  1
  6  7  2  0
  6  4  1  0
  8  9  1  0
  9 10  2  0
 10 11  1  0
 12 11  2  0
 12 13  1  0
 14 13  1  6
 14 15  1  0
 15  6  1  0
 16 14  1  0
 17 16  2  0
 18 12  1  0
 19  9  1  0
 19 18  2  0
 21 22  1  0
 21 20  1  1
 23 21  1  0
 23 24  1  1
 24 16  1  0
 25 23  1  0
 26 25  2  0
 27 25  1  0
M  END
$$$$
