TYT.pdb
     RDKit          3D

 27 27  0  0  1  0  0  0  0  0999 V2000
    5.7142  -14.3340   19.4717 C   0  0  0  0  0  0  0  0  0  0  0  0
    6.6571  -14.7385   20.5690 C   0  0  1  0  0  0  0  0  0  0  0  0
    7.4192  -15.8331   20.1926 O   0  0  0  0  0  0  0  0  0  0  0  0
    7.5024  -13.5768   21.0466 C   0  0  2  0  0  0  0  0  0  0  0  0
    8.2640  -13.0719   19.9392 N   0  0  0  0  0  0  0  0  0  0  0  0
    8.3640  -13.9594   22.1974 C   0  0  0  0  0  0  0  0  0  0  0  0
    9.5536  -14.2305   21.9613 O   0  0  0  0  0  0  0  0  0  0  0  0
   11.1222  -15.5177   30.5353 O   0  0  0  0  0  0  0  0  0  0  0  0
   10.3769  -15.1411   29.3997 C   0  0  0  0  0  0  0  0  0  0  0  0
   10.5487  -13.9044   28.8193 C   0  0  0  0  0  0  0  0  0  0  0  0
    9.8023  -13.5630   27.7048 C   0  0  0  0  0  0  0  0  0  0  0  0
    8.8826  -14.4196   27.1443 C   0  0  0  0  0  0  0  0  0  0  0  0
    8.1293  -14.0045   25.9717 C   0  0  0  0  0  0  0  0  0  0  0  0
    8.6904  -14.4726   24.6549 C   0  0  2  0  0  0  0  0  0  0  0  0
    7.9024  -14.0294   23.5315 N   0  0  0  0  0  0  0  0  0  0  0  0
    9.0515  -15.8933   24.6037 C   0  0  0  0  0  0  0  0  0  0  0  0
    8.1385  -16.7627   24.6384 O   0  0  0  0  0  0  0  0  0  0  0  0
    8.6997  -15.6550   27.7105 C   0  0  0  0  0  0  0  0  0  0  0  0
    9.4559  -15.9984   28.8381 C   0  0  0  0  0  0  0  0  0  0  0  0
   10.6326  -17.9863   22.0469 C   0  0  0  0  0  0  0  0  0  0  0  0
   11.4626  -18.1513   23.3004 C   0  0  1  0  0  0  0  0  0  0  0  0
   12.5302  -17.2824   23.2126 O   0  0  0  0  0  0  0  0  0  0  0  0
   10.6501  -17.8378   24.5470 C   0  0  2  0  0  0  0  0  0  0  0  0
   10.3769  -16.4021   24.5131 N   0  0  0  0  0  0  0  0  0  0  0  0
   11.4646  -18.1696   25.7354 C   0  0  0  0  0  0  0  0  0  0  0  0
   11.8484  -17.2757   26.5289 O   0  0  0  0  0  0  0  0  0  0  0  0
   11.8315  -19.4648   26.0171 O   0  0  0  0  0  0  0  0  0  0  0  0
  2  1  1  6
  2  3  1  0
  4  2  1  0
  4  5  1  6
  6  7  2  0
  6  4  1  0
  8  9  1  0
  9 10  2  0
 10 11  1  0
 12 11  2  0
 12 13  1  0
 14 13  1  1
 14 15  1  0
 15  6  1  0
 16 14  1  0
 17 16  2  0
 18 12  1  0
 19  9  1  0
 19 18  2  0
 21 22  1  0
 21 20  1  6
 23 21  1  0
 23 24  1  1
 24 16  1  0
 25 23  1  0
 26 25  2  0
 27 25  1  0
M  END
$$$$
