TYT.pdb
     RDKit          3D

 27 27  0  0  1  0  0  0  0  0999 V2000
    6.9694  -14.2699   18.2922 C   0  0  0  0  0  0  0  0  0  0  0  0
    7.5848  -14.7185   19.5870 C   0  0  1  0  0  0  0  0  0  0  0  0
    8.7867  -15.3725   19.3673 O   0  0  0  0  0  0  0  0  0  0  0  0
    7.7136  -13.5805   20.5774 C   0  0  2  0  0  0  0  0  0  0  0  0
    8.5115  -12.5423   19.9888 N   0  0  0  0  0  0  0  0  0  0  0  0
    8.2614  -14.0442   21.8805 C   0  0  0  0  0  0  0  0  0  0  0  0
    9.4685  -13.8477   22.1007 O   0  0  0  0  0  0  0  0  0  0  0  0
    6.4111   -9.9424   27.5326 O   0  0  0  0  0  0  0  0  0  0  0  0
    6.5493  -11.2228   26.9597 C   0  0  0  0  0  0  0  0  0  0  0  0
    7.7765  -11.8448   26.9060 C   0  0  0  0  0  0  0  0  0  0  0  0
    7.8809  -13.1023   26.3373 C   0  0  0  0  0  0  0  0  0  0  0  0
    6.7945  -13.7667   25.8156 C   0  0  0  0  0  0  0  0  0  0  0  0
    6.9670  -15.0875   25.2322 C   0  0  0  0  0  0  0  0  0  0  0  0
    7.9924  -15.1696   24.1323 C   0  0  2  0  0  0  0  0  0  0  0  0
    7.4859  -14.6901   22.8701 N   0  0  0  0  0  0  0  0  0  0  0  0
    8.7028  -16.4494   24.0398 C   0  0  0  0  0  0  0  0  0  0  0  0
    8.0753  -17.4767   23.6638 O   0  0  0  0  0  0  0  0  0  0  0  0
    5.5653  -13.1608   25.8614 C   0  0  0  0  0  0  0  0  0  0  0  0
    5.4619  -11.8885   26.4373 C   0  0  0  0  0  0  0  0  0  0  0  0
   11.3937  -17.6660   21.9412 C   0  0  0  0  0  0  0  0  0  0  0  0
   11.8570  -17.9086   23.3604 C   0  0  1  0  0  0  0  0  0  0  0  0
   12.6814  -16.8615   23.7160 O   0  0  0  0  0  0  0  0  0  0  0  0
   10.6808  -17.9818   24.3214 C   0  0  2  0  0  0  0  0  0  0  0  0
   10.0786  -16.6499   24.3412 N   0  0  0  0  0  0  0  0  0  0  0  0
   11.1919  -18.3256   25.6654 C   0  0  0  0  0  0  0  0  0  0  0  0
   11.1931  -17.4813   26.5945 O   0  0  0  0  0  0  0  0  0  0  0  0
   11.6831  -19.5784   25.9493 O   0  0  0  0  0  0  0  0  0  0  0  0
  2  1  1  6
  2  3  1  0
  4  2  1  0
  4  5  1  6
  6  7  2  0
  6  4  1  0
  8  9  1  0
  9 10  2  0
 10 11  1  0
 12 11  2  0
 12 13  1  0
 14 13  1  1
 14 15  1  0
 15  6  1  0
 16 14  1  0
 17 16  2  0
 18 12  1  0
 19  9  1  0
 19 18  2  0
 21 22  1  0
 21 20  1  6
 23 21  1  0
 23 24  1  1
 24 16  1  0
 25 23  1  0
 26 25  2  0
 27 25  1  0
M  END
$$$$
