PRC.pdb
     RDKit          3D

 25 25  0  0  1  0  0  0  0  0999 V2000
   27.3485  -22.6192  -16.3983 N   0  0  0  0  0  0  0  0  0  0  0  0
   27.5727  -22.8065  -17.7952 C   0  0  0  0  0  0  0  0  0  0  0  0
   28.0139  -21.5037  -18.3886 C   0  0  0  0  0  0  0  0  0  0  0  0
   28.1733  -20.6172  -17.1991 C   0  0  0  0  0  0  0  0  0  0  0  0
   27.9687  -21.4114  -15.9621 C   0  0  1  0  0  0  0  0  0  0  0  0
   27.2337  -20.6945  -14.9000 C   0  0  0  0  0  0  0  0  0  0  0  0
   27.7329  -19.5861  -14.5337 O   0  0  0  0  0  0  0  0  0  0  0  0
   21.9631  -21.7772  -16.5458 N   0  0  0  0  0  0  0  0  0  0  0  0
   21.0669  -20.6515  -16.3920 C   0  0  0  0  0  0  0  0  0  0  0  0
   20.4209  -20.3028  -17.3957 N   0  0  0  0  0  0  0  0  0  0  0  0
   20.9441  -19.9877  -15.1523 N   0  0  0  0  0  0  0  0  0  0  0  0
   21.9135  -19.2013  -14.5034 C   0  0  0  0  0  0  0  0  0  0  0  0
   23.3533  -19.4591  -14.7162 C   0  0  0  0  0  0  0  0  0  0  0  0
   23.8341  -20.4677  -13.6834 C   0  0  0  0  0  0  0  0  0  0  0  0
   25.2659  -20.3443  -13.3369 C   0  0  2  0  0  0  0  0  0  0  0  0
   26.0582  -21.1292  -14.2794 N   0  0  0  0  0  0  0  0  0  0  0  0
   25.4608  -20.9587  -11.9703 C   0  0  0  0  0  0  0  0  0  0  0  0
   25.2349  -22.1556  -11.7840 O   0  0  0  0  0  0  0  0  0  0  0  0
   19.6896  -19.6311  -17.4730 N   0  0  0  0  0  0  0  0  0  0  0  0
   25.9018  -20.1372  -10.9298 C   0  0  2  0  0  0  0  0  0  0  0  0
   26.0059  -20.5464   -9.5477 C   0  0  0  0  0  0  0  0  0  0  0  0
   26.8175  -19.6216   -8.7116 S   0  0  0  0  0  0  0  0  0  0  0  0
   26.6871  -20.1578   -6.9812 C   0  0  0  0  0  0  0  0  0  0  0  0
   24.6577  -20.6631   -8.9756 O   0  0  0  0  0  0  0  0  0  0  0  0
   24.3675  -21.5774   -7.9995 O   0  0  0  0  0  0  0  0  0  0  0  0
  1  2  1  0
  3  2  1  0
  4  3  1  0
  5  4  1  0
  5  1  1  0
  6 16  1  0
  5  6  1  1
  7  6  2  0
  9  8  1  0
  9 11  1  0
 10  9  2  0
 12 11  1  0
 13 12  1  0
 14 13  1  0
 15 14  1  6
 15 16  1  0
 17 18  2  0
 17 15  1  0
 19 17  1  0
 20 23  1  0
 20 19  1  0
 20 21  1  6
 22 21  1  0
 23 24  1  0
 25 23  2  0
M  END
$$$$
