PRC.pdb
     RDKit          3D

 25 25  0  0  1  0  0  0  0  0999 V2000
   24.7780  -21.1974  -12.3681 N   0  0  0  0  0  0  0  0  0  0  0  0
   24.5830  -22.1119  -11.2899 C   0  0  0  0  0  0  0  0  0  0  0  0
   25.7405  -21.9939  -10.3463 C   0  0  0  0  0  0  0  0  0  0  0  0
   26.5142  -20.8394  -10.8891 C   0  0  0  0  0  0  0  0  0  0  0  0
   25.7633  -20.2290  -12.0144 C   0  0  1  0  0  0  0  0  0  0  0  0
   26.6150  -19.7839  -13.1365 C   0  0  0  0  0  0  0  0  0  0  0  0
   27.4386  -18.8549  -12.8708 O   0  0  0  0  0  0  0  0  0  0  0  0
   30.5761  -25.2086  -15.4153 N   0  0  0  0  0  0  0  0  0  0  0  0
   29.2623  -25.2770  -16.0181 C   0  0  0  0  0  0  0  0  0  0  0  0
   28.6260  -26.3346  -15.8668 N   0  0  0  0  0  0  0  0  0  0  0  0
   28.7409  -24.1845  -16.7442 N   0  0  0  0  0  0  0  0  0  0  0  0
   29.2853  -22.8918  -16.8528 C   0  0  0  0  0  0  0  0  0  0  0  0
   28.9532  -21.8521  -15.8559 C   0  0  0  0  0  0  0  0  0  0  0  0
   27.7930  -21.0176  -16.3780 C   0  0  0  0  0  0  0  0  0  0  0  0
   27.4532  -19.8551  -15.5302 C   0  0  2  0  0  0  0  0  0  0  0  0
   26.5873  -20.2925  -14.4389 N   0  0  0  0  0  0  0  0  0  0  0  0
   26.6536  -18.8907  -16.3750 C   0  0  0  0  0  0  0  0  0  0  0  0
   25.5009  -19.1631  -16.7147 O   0  0  0  0  0  0  0  0  0  0  0  0
   27.7171  -26.5761  -16.1945 N   0  0  0  0  0  0  0  0  0  0  0  0
   27.2537  -17.6884  -16.7579 C   0  0  1  0  0  0  0  0  0  0  0  0
   26.6162  -16.6721  -17.5636 C   0  0  0  0  0  0  0  0  0  0  0  0
   27.2084  -15.3181  -17.3935 S   0  0  0  0  0  0  0  0  0  0  0  0
   27.0069  -14.8238  -15.6575 C   0  0  0  0  0  0  0  0  0  0  0  0
   26.6894  -17.0608  -18.9785 O   0  0  0  0  0  0  0  0  0  0  0  0
   27.4382  -18.1287  -19.3930 O   0  0  0  0  0  0  0  0  0  0  0  0
  1  2  1  0
  3  2  1  0
  4  3  1  0
  5  4  1  0
  5  1  1  0
  6 16  1  0
  5  6  1  6
  7  6  2  0
  9  8  1  0
  9 11  1  0
 10  9  2  0
 12 11  1  0
 13 12  1  0
 14 13  1  0
 15 14  1  6
 15 16  1  0
 17 18  2  0
 17 15  1  0
 19 17  1  0
 20 23  1  0
 20 19  1  0
 20 21  1  6
 22 21  1  0
 23 24  1  0
 25 23  2  0
M  END
$$$$
