PRC.pdb
     RDKit          3D

 25 25  0  0  1  0  0  0  0  0999 V2000
   27.5320  -17.3644  -17.6625 N   0  0  0  0  0  0  0  0  0  0  0  0
   28.7695  -16.7719  -18.0551 C   0  0  0  0  0  0  0  0  0  0  0  0
   29.8019  -17.8511  -18.1712 C   0  0  0  0  0  0  0  0  0  0  0  0
   29.0174  -19.1045  -17.9714 C   0  0  0  0  0  0  0  0  0  0  0  0
   27.5735  -18.7727  -17.8831 C   0  0  1  0  0  0  0  0  0  0  0  0
   26.8314  -19.5710  -16.8858 C   0  0  0  0  0  0  0  0  0  0  0  0
   26.2276  -20.5936  -17.3346 O   0  0  0  0  0  0  0  0  0  0  0  0
   23.6361  -20.4005  -10.1680 N   0  0  0  0  0  0  0  0  0  0  0  0
   24.6652  -20.7664   -9.2187 C   0  0  0  0  0  0  0  0  0  0  0  0
   24.2994  -21.0108   -8.0556 N   0  0  0  0  0  0  0  0  0  0  0  0
   26.0196  -20.8365   -9.6099 N   0  0  0  0  0  0  0  0  0  0  0  0
   26.5777  -20.4320  -10.8363 C   0  0  0  0  0  0  0  0  0  0  0  0
   25.7781  -20.4865  -12.0784 C   0  0  0  0  0  0  0  0  0  0  0  0
   26.6526  -20.0636  -13.2496 C   0  0  0  0  0  0  0  0  0  0  0  0
   25.9591  -20.0660  -14.5552 C   0  0  2  0  0  0  0  0  0  0  0  0
   26.7427  -19.2965  -15.5173 N   0  0  0  0  0  0  0  0  0  0  0  0
   24.6424  -19.3469  -14.3755 C   0  0  0  0  0  0  0  0  0  0  0  0
   24.6058  -18.2262  -13.8646 O   0  0  0  0  0  0  0  0  0  0  0  0
   24.8446  -21.2769   -7.2657 N   0  0  0  0  0  0  0  0  0  0  0  0
   23.4743  -19.9839  -14.8022 C   0  0  1  0  0  0  0  0  0  0  0  0
   22.1499  -19.4117  -14.7207 C   0  0  0  0  0  0  0  0  0  0  0  0
   21.4158  -19.4210  -16.0146 S   0  0  0  0  0  0  0  0  0  0  0  0
   22.4221  -18.5425  -17.2451 C   0  0  0  0  0  0  0  0  0  0  0  0
   21.3690  -20.1421  -13.7132 O   0  0  0  0  0  0  0  0  0  0  0  0
   20.1383  -19.7066  -13.3026 O   0  0  0  0  0  0  0  0  0  0  0  0
  1  2  1  0
  3  2  1  0
  4  3  1  0
  5  4  1  0
  5  1  1  0
  6 16  1  0
  5  6  1  1
  7  6  2  0
  9  8  1  0
  9 11  1  0
 10  9  2  0
 12 11  1  0
 13 12  1  0
 14 13  1  0
 15 14  1  1
 15 16  1  0
 17 18  2  0
 17 15  1  0
 19 17  1  0
 20 23  1  0
 20 19  1  0
 20 21  1  1
 22 21  1  0
 23 24  1  0
 25 23  2  0
M  END
$$$$
