PRC.pdb
     RDKit          3D

 25 25  0  0  1  0  0  0  0  0999 V2000
   29.7248  -23.0700  -18.1170 N   0  0  0  0  0  0  0  0  0  0  0  0
   29.8754  -23.5478  -19.4533 C   0  0  0  0  0  0  0  0  0  0  0  0
   28.7802  -22.9687  -20.2955 C   0  0  0  0  0  0  0  0  0  0  0  0
   28.1033  -22.0107  -19.3734 C   0  0  0  0  0  0  0  0  0  0  0  0
   28.8599  -21.9363  -18.0986 C   0  0  1  0  0  0  0  0  0  0  0  0
   28.0071  -21.8359  -16.8964 C   0  0  0  0  0  0  0  0  0  0  0  0
   27.7532  -22.9306  -16.3057 O   0  0  0  0  0  0  0  0  0  0  0  0
   24.7038  -21.2426  -11.1800 N   0  0  0  0  0  0  0  0  0  0  0  0
   25.4310  -20.4055  -10.2502 C   0  0  0  0  0  0  0  0  0  0  0  0
   25.3444  -20.6943   -9.0437 N   0  0  0  0  0  0  0  0  0  0  0  0
   26.1983  -19.3124  -10.7071 N   0  0  0  0  0  0  0  0  0  0  0  0
   26.4453  -18.9389  -12.0408 C   0  0  0  0  0  0  0  0  0  0  0  0
   27.3115  -19.7694  -12.9040 C   0  0  0  0  0  0  0  0  0  0  0  0
   27.0347  -19.4263  -14.3603 C   0  0  0  0  0  0  0  0  0  0  0  0
   26.6171  -20.5796  -15.1855 C   0  0  2  0  0  0  0  0  0  0  0  0
   27.4691  -20.6579  -16.3687 N   0  0  0  0  0  0  0  0  0  0  0  0
   25.2097  -20.3129  -15.6662 C   0  0  0  0  0  0  0  0  0  0  0  0
   24.9989  -19.4948  -16.5632 O   0  0  0  0  0  0  0  0  0  0  0  0
   25.7364  -20.2303   -8.2545 N   0  0  0  0  0  0  0  0  0  0  0  0
   24.1599  -21.0155  -15.0691 C   0  0  2  0  0  0  0  0  0  0  0  0
   22.7641  -20.8480  -15.4036 C   0  0  0  0  0  0  0  0  0  0  0  0
   21.9626  -22.0928  -15.2587 S   0  0  0  0  0  0  0  0  0  0  0  0
   22.8157  -23.4248  -16.1513 C   0  0  0  0  0  0  0  0  0  0  0  0
   22.1869  -19.7964  -14.5555 O   0  0  0  0  0  0  0  0  0  0  0  0
   20.9143  -19.3325  -14.7511 O   0  0  0  0  0  0  0  0  0  0  0  0
  1  2  1  0
  3  2  1  0
  4  3  1  0
  5  4  1  0
  5  1  1  0
  6 16  1  0
  5  6  1  1
  7  6  2  0
  9  8  1  0
  9 11  1  0
 10  9  2  0
 12 11  1  0
 13 12  1  0
 14 13  1  0
 15 14  1  1
 15 16  1  0
 17 18  2  0
 17 15  1  0
 19 17  1  0
 20 23  1  0
 20 19  1  0
 20 21  1  6
 22 21  1  0
 23 24  1  0
 25 23  2  0
M  END
$$$$
