PRC.pdb
     RDKit          3D

 25 25  0  0  1  0  0  0  0  0999 V2000
   27.1590  -24.7352  -17.2249 N   0  0  0  0  0  0  0  0  0  0  0  0
   27.6351  -26.0799  -17.1835 C   0  0  0  0  0  0  0  0  0  0  0  0
   26.6327  -26.9207  -16.4537 C   0  0  0  0  0  0  0  0  0  0  0  0
   25.4921  -25.9850  -16.2304 C   0  0  0  0  0  0  0  0  0  0  0  0
   25.7657  -24.7011  -16.9229 C   0  0  1  0  0  0  0  0  0  0  0  0
   25.3310  -23.5061  -16.1711 C   0  0  0  0  0  0  0  0  0  0  0  0
   24.0761  -23.3426  -16.0702 O   0  0  0  0  0  0  0  0  0  0  0  0
   25.4352  -20.8281   -8.7152 N   0  0  0  0  0  0  0  0  0  0  0  0
   24.4410  -20.6118   -9.7442 C   0  0  0  0  0  0  0  0  0  0  0  0
   23.2480  -20.6928   -9.4026 N   0  0  0  0  0  0  0  0  0  0  0  0
   24.8237  -20.3248  -11.0722 N   0  0  0  0  0  0  0  0  0  0  0  0
   26.1287  -20.1482  -11.5670 C   0  0  0  0  0  0  0  0  0  0  0  0
   26.3522  -19.8061  -12.9876 C   0  0  0  0  0  0  0  0  0  0  0  0
   26.6683  -21.0784  -13.7599 C   0  0  0  0  0  0  0  0  0  0  0  0
   25.7243  -21.3699  -14.8596 C   0  0  2  0  0  0  0  0  0  0  0  0
   26.1724  -22.5614  -15.5749 N   0  0  0  0  0  0  0  0  0  0  0  0
   25.7852  -20.2159  -15.8331 C   0  0  0  0  0  0  0  0  0  0  0  0
   26.8396  -19.9342  -16.4050 O   0  0  0  0  0  0  0  0  0  0  0  0
   22.4260  -20.6180   -9.9599 N   0  0  0  0  0  0  0  0  0  0  0  0
   24.6196  -19.4814  -16.0657 C   0  0  2  0  0  0  0  0  0  0  0  0
   24.5093  -18.3927  -17.0096 C   0  0  0  0  0  0  0  0  0  0  0  0
   23.2324  -18.3925  -17.7729 S   0  0  0  0  0  0  0  0  0  0  0  0
   23.0312  -20.0245  -18.5441 C   0  0  0  0  0  0  0  0  0  0  0  0
   24.6487  -17.1170  -16.2944 O   0  0  0  0  0  0  0  0  0  0  0  0
   24.7771  -15.9290  -16.9614 O   0  0  0  0  0  0  0  0  0  0  0  0
  1  2  1  0
  3  2  1  0
  4  3  1  0
  5  4  1  0
  5  1  1  0
  6 16  1  0
  5  6  1  1
  7  6  2  0
  9  8  1  0
  9 11  1  0
 10  9  2  0
 12 11  1  0
 13 12  1  0
 14 13  1  0
 15 14  1  1
 15 16  1  0
 17 18  2  0
 17 15  1  0
 19 17  1  0
 20 23  1  0
 20 19  1  0
 20 21  1  6
 22 21  1  0
 23 24  1  0
 25 23  2  0
M  END
$$$$
