PRC.pdb
     RDKit          3D

 25 25  0  0  1  0  0  0  0  0999 V2000
   26.9165  -17.9985  -17.1368 N   0  0  0  0  0  0  0  0  0  0  0  0
   28.2834  -17.5952  -17.2123 C   0  0  0  0  0  0  0  0  0  0  0  0
   29.1406  -18.8209  -17.2967 C   0  0  0  0  0  0  0  0  0  0  0  0
   28.1495  -19.9291  -17.4234 C   0  0  0  0  0  0  0  0  0  0  0  0
   26.7853  -19.3579  -17.5474 C   0  0  1  0  0  0  0  0  0  0  0  0
   25.7453  -20.1184  -16.8246 C   0  0  0  0  0  0  0  0  0  0  0  0
   25.3594  -21.1927  -17.3802 O   0  0  0  0  0  0  0  0  0  0  0  0
   27.0980  -21.0794  -10.7752 N   0  0  0  0  0  0  0  0  0  0  0  0
   25.9327  -20.6062  -10.0595 C   0  0  0  0  0  0  0  0  0  0  0  0
   26.0307  -20.5074   -8.8237 N   0  0  0  0  0  0  0  0  0  0  0  0
   24.7446  -20.2773  -10.7470 N   0  0  0  0  0  0  0  0  0  0  0  0
   23.7482  -21.1595  -11.2031 C   0  0  0  0  0  0  0  0  0  0  0  0
   23.3067  -21.1276  -12.6134 C   0  0  0  0  0  0  0  0  0  0  0  0
   24.4292  -20.5625  -13.4712 C   0  0  0  0  0  0  0  0  0  0  0  0
   24.1201  -20.5106  -14.9160 C   0  0  2  0  0  0  0  0  0  0  0  0
   25.1646  -19.7577  -15.6045 N   0  0  0  0  0  0  0  0  0  0  0  0
   22.8316  -19.7390  -15.0811 C   0  0  0  0  0  0  0  0  0  0  0  0
   22.8076  -18.5180  -14.9172 O   0  0  0  0  0  0  0  0  0  0  0  0
   25.3473  -20.2221   -8.1577 N   0  0  0  0  0  0  0  0  0  0  0  0
   21.6747  -20.4440  -15.4228 C   0  0  1  0  0  0  0  0  0  0  0  0
   20.3815  -19.8402  -15.6495 C   0  0  0  0  0  0  0  0  0  0  0  0
   19.6614  -20.3972  -16.8260 S   0  0  0  0  0  0  0  0  0  0  0  0
   18.3662  -19.2192  -17.3093 C   0  0  0  0  0  0  0  0  0  0  0  0
   19.5527  -20.0077  -14.4480 O   0  0  0  0  0  0  0  0  0  0  0  0
   18.4929  -19.1828  -14.1848 O   0  0  0  0  0  0  0  0  0  0  0  0
  1  2  1  0
  3  2  1  0
  4  3  1  0
  5  4  1  0
  5  1  1  0
  6 16  1  0
  5  6  1  1
  7  6  2  0
  9  8  1  0
  9 11  1  0
 10  9  2  0
 12 11  1  0
 13 12  1  0
 14 13  1  0
 15 14  1  1
 15 16  1  0
 17 18  2  0
 17 15  1  0
 19 17  1  0
 20 23  1  0
 20 19  1  0
 20 21  1  1
 22 21  1  0
 23 24  1  0
 25 23  2  0
M  END
$$$$
