PRC.pdb
     RDKit          3D

 25 25  0  0  1  0  0  0  0  0999 V2000
   27.0967  -20.1563  -16.8113 N   0  0  0  0  0  0  0  0  0  0  0  0
   28.4912  -19.9833  -17.0606 C   0  0  0  0  0  0  0  0  0  0  0  0
   29.2173  -21.2065  -16.5911 C   0  0  0  0  0  0  0  0  0  0  0  0
   28.1162  -22.1382  -16.2090 C   0  0  0  0  0  0  0  0  0  0  0  0
   26.8108  -21.5329  -16.5727 C   0  0  1  0  0  0  0  0  0  0  0  0
   25.7387  -21.7735  -15.5851 C   0  0  0  0  0  0  0  0  0  0  0  0
   25.2921  -22.9608  -15.5321 O   0  0  0  0  0  0  0  0  0  0  0  0
   26.4305  -19.9837   -8.6891 N   0  0  0  0  0  0  0  0  0  0  0  0
   25.2041  -20.7478   -8.7673 C   0  0  0  0  0  0  0  0  0  0  0  0
   24.3673  -20.5663   -7.8654 N   0  0  0  0  0  0  0  0  0  0  0  0
   24.9828  -21.6561   -9.8248 N   0  0  0  0  0  0  0  0  0  0  0  0
   25.6860  -21.7414  -11.0403 C   0  0  0  0  0  0  0  0  0  0  0  0
   25.7324  -20.5870  -11.9624 C   0  0  0  0  0  0  0  0  0  0  0  0
   24.3412  -20.3514  -12.5318 C   0  0  0  0  0  0  0  0  0  0  0  0
   24.0797  -21.0581  -13.8037 C   0  0  2  0  0  0  0  0  0  0  0  0
   25.1885  -20.8195  -14.7232 N   0  0  0  0  0  0  0  0  0  0  0  0
   22.8462  -20.4437  -14.4234 C   0  0  0  0  0  0  0  0  0  0  0  0
   22.8214  -19.2465  -14.7138 O   0  0  0  0  0  0  0  0  0  0  0  0
   23.4983  -21.0271   -7.7094 N   0  0  0  0  0  0  0  0  0  0  0  0
   21.7408  -21.2658  -14.6570 C   0  0  1  0  0  0  0  0  0  0  0  0
   20.4924  -20.8200  -15.2323 C   0  0  0  0  0  0  0  0  0  0  0  0
   20.2888  -21.2686  -16.6359 S   0  0  0  0  0  0  0  0  0  0  0  0
   19.3284  -19.9959  -17.5056 C   0  0  0  0  0  0  0  0  0  0  0  0
   19.3792  -21.2996  -14.4020 O   0  0  0  0  0  0  0  0  0  0  0  0
   18.2463  -20.5542  -14.2179 O   0  0  0  0  0  0  0  0  0  0  0  0
  1  2  1  0
  3  2  1  0
  4  3  1  0
  5  4  1  0
  5  1  1  0
  6 16  1  0
  5  6  1  1
  7  6  2  0
  9  8  1  0
  9 11  1  0
 10  9  2  0
 12 11  1  0
 13 12  1  0
 14 13  1  0
 15 14  1  1
 15 16  1  0
 17 18  2  0
 17 15  1  0
 19 17  1  0
 20 23  1  0
 20 19  1  0
 20 21  1  1
 22 21  1  0
 23 24  1  0
 25 23  2  0
M  END
$$$$
