PRC.pdb
     RDKit          3D

 25 25  0  0  1  0  0  0  0  0999 V2000
   27.1746  -21.8684  -17.0968 N   0  0  0  0  0  0  0  0  0  0  0  0
   27.9569  -21.7770  -18.2869 C   0  0  0  0  0  0  0  0  0  0  0  0
   28.8432  -20.5735  -18.1864 C   0  0  0  0  0  0  0  0  0  0  0  0
   28.6162  -20.0911  -16.7927 C   0  0  0  0  0  0  0  0  0  0  0  0
   27.7443  -21.0537  -16.0744 C   0  0  1  0  0  0  0  0  0  0  0  0
   26.7580  -20.4194  -15.1759 C   0  0  0  0  0  0  0  0  0  0  0  0
   27.2392  -19.7088  -14.2404 O   0  0  0  0  0  0  0  0  0  0  0  0
   19.3660  -18.5769  -16.3230 N   0  0  0  0  0  0  0  0  0  0  0  0
   20.0577  -17.3115  -16.4431 C   0  0  0  0  0  0  0  0  0  0  0  0
   19.4335  -16.2920  -16.1007 N   0  0  0  0  0  0  0  0  0  0  0  0
   21.3810  -17.2530  -16.9310 N   0  0  0  0  0  0  0  0  0  0  0  0
   22.2461  -18.3321  -17.1887 C   0  0  0  0  0  0  0  0  0  0  0  0
   23.4838  -18.5060  -16.3995 C   0  0  0  0  0  0  0  0  0  0  0  0
   23.2152  -19.4846  -15.2658 C   0  0  0  0  0  0  0  0  0  0  0  0
   24.4050  -19.8079  -14.4500 C   0  0  2  0  0  0  0  0  0  0  0  0
   25.3677  -20.5365  -15.2712 N   0  0  0  0  0  0  0  0  0  0  0  0
   23.9636  -20.7410  -13.3465 C   0  0  0  0  0  0  0  0  0  0  0  0
   23.6220  -21.8967  -13.6032 O   0  0  0  0  0  0  0  0  0  0  0  0
   19.7237  -15.3394  -16.1176 N   0  0  0  0  0  0  0  0  0  0  0  0
   23.9536  -20.2600  -12.0347 C   0  0  2  0  0  0  0  0  0  0  0  0
   23.6175  -21.0504  -10.8725 C   0  0  0  0  0  0  0  0  0  0  0  0
   24.2724  -20.5804   -9.6222 S   0  0  0  0  0  0  0  0  0  0  0  0
   26.0713  -20.6494   -9.8625 C   0  0  0  0  0  0  0  0  0  0  0  0
   22.1598  -21.0452  -10.6897 O   0  0  0  0  0  0  0  0  0  0  0  0
   21.5509  -21.8240   -9.7434 O   0  0  0  0  0  0  0  0  0  0  0  0
  1  2  1  0
  3  2  1  0
  4  3  1  0
  5  4  1  0
  5  1  1  0
  6 16  1  0
  5  6  1  6
  7  6  2  0
  9  8  1  0
  9 11  1  0
 10  9  2  0
 12 11  1  0
 13 12  1  0
 14 13  1  0
 15 14  1  6
 15 16  1  0
 17 18  2  0
 17 15  1  0
 19 17  1  0
 20 23  1  0
 20 19  1  0
 20 21  1  6
 22 21  1  0
 23 24  1  0
 25 23  2  0
M  END
$$$$
