PRC.pdb
     RDKit          3D

 25 25  0  0  1  0  0  0  0  0999 V2000
   28.2601  -20.0924  -16.3012 N   0  0  0  0  0  0  0  0  0  0  0  0
   28.4899  -19.2326  -17.4169 C   0  0  0  0  0  0  0  0  0  0  0  0
   27.4683  -18.1372  -17.3960 C   0  0  0  0  0  0  0  0  0  0  0  0
   26.7529  -18.3547  -16.1048 C   0  0  0  0  0  0  0  0  0  0  0  0
   27.4227  -19.4416  -15.3479 C   0  0  1  0  0  0  0  0  0  0  0  0
   26.4929  -20.3411  -14.6345 C   0  0  0  0  0  0  0  0  0  0  0  0
   26.2804  -21.4656  -15.1843 O   0  0  0  0  0  0  0  0  0  0  0  0
   29.3527  -21.4912  -10.2208 N   0  0  0  0  0  0  0  0  0  0  0  0
   28.9951  -21.0677   -8.8840 C   0  0  0  0  0  0  0  0  0  0  0  0
   29.9190  -20.6759   -8.1497 N   0  0  0  0  0  0  0  0  0  0  0  0
   27.6535  -21.1055   -8.4469 N   0  0  0  0  0  0  0  0  0  0  0  0
   26.4974  -20.8686   -9.2128 C   0  0  0  0  0  0  0  0  0  0  0  0
   26.4832  -21.1654  -10.6608 C   0  0  0  0  0  0  0  0  0  0  0  0
   25.1427  -20.7391  -11.2408 C   0  0  0  0  0  0  0  0  0  0  0  0
   25.0005  -20.9957  -12.6898 C   0  0  2  0  0  0  0  0  0  0  0  0
   25.8424  -20.0594  -13.4290 N   0  0  0  0  0  0  0  0  0  0  0  0
   23.5675  -20.7017  -13.0683 C   0  0  0  0  0  0  0  0  0  0  0  0
   23.1425  -19.5452  -13.0600 O   0  0  0  0  0  0  0  0  0  0  0  0
   29.8817  -20.3458   -7.2108 N   0  0  0  0  0  0  0  0  0  0  0  0
   22.7425  -21.7711  -13.4259 C   0  0  2  0  0  0  0  0  0  0  0  0
   21.3448  -21.6503  -13.7724 C   0  0  0  0  0  0  0  0  0  0  0  0
   20.7332  -22.9245  -14.2366 S   0  0  0  0  0  0  0  0  0  0  0  0
   18.9902  -22.6059  -14.6354 C   0  0  0  0  0  0  0  0  0  0  0  0
   20.6003  -21.1486  -12.6095 O   0  0  0  0  0  0  0  0  0  0  0  0
   20.7568  -21.6957  -11.3648 O   0  0  0  0  0  0  0  0  0  0  0  0
  1  2  1  0
  3  2  1  0
  4  3  1  0
  5  4  1  0
  5  1  1  0
  6 16  1  0
  5  6  1  6
  7  6  2  0
  9  8  1  0
  9 11  1  0
 10  9  2  0
 12 11  1  0
 13 12  1  0
 14 13  1  0
 15 14  1  1
 15 16  1  0
 17 18  2  0
 17 15  1  0
 19 17  1  0
 20 23  1  0
 20 19  1  0
 20 21  1  6
 22 21  1  0
 23 24  1  0
 25 23  2  0
M  END
$$$$
