PRC.pdb
     RDKit          3D

 25 25  0  0  1  0  0  0  0  0999 V2000
   16.7626  -25.7249   -9.2976 N   0  0  0  0  0  0  0  0  0  0  0  0
   17.1868  -25.3617  -10.6109 C   0  0  0  0  0  0  0  0  0  0  0  0
   18.3897  -24.4761  -10.4981 C   0  0  0  0  0  0  0  0  0  0  0  0
   18.7022  -24.4997   -9.0393 C   0  0  0  0  0  0  0  0  0  0  0  0
   17.8050  -25.4668   -8.3592 C   0  0  1  0  0  0  0  0  0  0  0  0
   17.3367  -25.0229   -7.0302 C   0  0  0  0  0  0  0  0  0  0  0  0
   18.2428  -24.6686   -6.2146 O   0  0  0  0  0  0  0  0  0  0  0  0
   11.5450  -20.3945   -7.5973 N   0  0  0  0  0  0  0  0  0  0  0  0
   11.7817  -19.9320   -6.2467 C   0  0  0  0  0  0  0  0  0  0  0  0
   11.6661  -18.7113   -6.0394 N   0  0  0  0  0  0  0  0  0  0  0  0
   12.1296  -20.8378   -5.2215 N   0  0  0  0  0  0  0  0  0  0  0  0
   12.5607  -22.1691   -5.3664 C   0  0  0  0  0  0  0  0  0  0  0  0
   13.9932  -22.5114   -5.2409 C   0  0  0  0  0  0  0  0  0  0  0  0
   14.1602  -24.0144   -5.4094 C   0  0  0  0  0  0  0  0  0  0  0  0
   15.5578  -24.4843   -5.3030 C   0  0  2  0  0  0  0  0  0  0  0  0
   16.0048  -24.9632   -6.6080 N   0  0  0  0  0  0  0  0  0  0  0  0
   15.5725  -25.6683   -4.3644 C   0  0  0  0  0  0  0  0  0  0  0  0
   15.1722  -26.7710   -4.7413 O   0  0  0  0  0  0  0  0  0  0  0  0
   11.8186  -18.1969   -5.2004 N   0  0  0  0  0  0  0  0  0  0  0  0
   16.0498  -25.4795   -3.0649 C   0  0  2  0  0  0  0  0  0  0  0  0
   16.1340  -26.5164   -2.0619 C   0  0  0  0  0  0  0  0  0  0  0  0
   17.5098  -26.7279   -1.5371 S   0  0  0  0  0  0  0  0  0  0  0  0
   17.4222  -27.9357   -0.1835 C   0  0  0  0  0  0  0  0  0  0  0  0
   15.2342  -26.1860   -0.9486 O   0  0  0  0  0  0  0  0  0  0  0  0
   14.8382  -27.1294   -0.0396 O   0  0  0  0  0  0  0  0  0  0  0  0
  1  2  1  0
  3  2  1  0
  4  3  1  0
  5  4  1  0
  5  1  1  0
  6 16  1  0
  5  6  1  1
  7  6  2  0
  9  8  1  0
  9 11  1  0
 10  9  2  0
 12 11  1  0
 13 12  1  0
 14 13  1  0
 15 14  1  6
 15 16  1  0
 17 18  2  0
 17 15  1  0
 19 17  1  0
 20 23  1  0
 20 19  1  0
 20 21  1  1
 22 21  1  0
 23 24  1  0
 25 23  2  0
M  END
$$$$
