PRC.pdb
     RDKit          3D

 25 25  0  0  1  0  0  0  0  0999 V2000
   19.3336  -12.2580  -14.9061 N   0  0  0  0  0  0  0  0  0  0  0  0
   18.8333  -13.5641  -15.1901 C   0  0  0  0  0  0  0  0  0  0  0  0
   17.7045  -13.4428  -16.1674 C   0  0  0  0  0  0  0  0  0  0  0  0
   17.7138  -11.9954  -16.5300 C   0  0  0  0  0  0  0  0  0  0  0  0
   18.8839  -11.3369  -15.8976 C   0  0  1  0  0  0  0  0  0  0  0  0
   18.6091   -9.9769  -15.3904 C   0  0  0  0  0  0  0  0  0  0  0  0
   18.2932   -9.1136  -16.2661 O   0  0  0  0  0  0  0  0  0  0  0  0
   14.4183  -10.5077   -8.8001 N   0  0  0  0  0  0  0  0  0  0  0  0
   13.6315  -10.0486   -9.9245 C   0  0  0  0  0  0  0  0  0  0  0  0
   12.4750  -10.4948  -10.0240 N   0  0  0  0  0  0  0  0  0  0  0  0
   14.1673   -9.1367  -10.8592 N   0  0  0  0  0  0  0  0  0  0  0  0
   15.5177   -8.7811  -11.0298 C   0  0  0  0  0  0  0  0  0  0  0  0
   16.1029   -8.6860  -12.3839 C   0  0  0  0  0  0  0  0  0  0  0  0
   17.5925   -8.4013  -12.2610 C   0  0  0  0  0  0  0  0  0  0  0  0
   18.2897   -8.2531  -13.5562 C   0  0  2  0  0  0  0  0  0  0  0  0
   18.6678   -9.5731  -14.0527 N   0  0  0  0  0  0  0  0  0  0  0  0
   19.5683   -7.4888  -13.3030 C   0  0  0  0  0  0  0  0  0  0  0  0
   20.4003   -7.9098  -12.4975 O   0  0  0  0  0  0  0  0  0  0  0  0
   11.7769  -10.2911  -10.7045 N   0  0  0  0  0  0  0  0  0  0  0  0
   19.7800   -6.2984  -14.0032 C   0  0  1  0  0  0  0  0  0  0  0  0
   20.9812   -5.4991  -13.9207 C   0  0  0  0  0  0  0  0  0  0  0  0
   21.9434   -5.7529  -15.0264 S   0  0  0  0  0  0  0  0  0  0  0  0
   23.2638   -4.5098  -14.9270 C   0  0  0  0  0  0  0  0  0  0  0  0
   20.6151   -4.0764  -13.9114 O   0  0  0  0  0  0  0  0  0  0  0  0
   21.3335   -3.1536  -13.2004 O   0  0  0  0  0  0  0  0  0  0  0  0
  1  2  1  0
  3  2  1  0
  4  3  1  0
  5  4  1  0
  5  1  1  0
  6 16  1  0
  5  6  1  1
  7  6  2  0
  9  8  1  0
  9 11  1  0
 10  9  2  0
 12 11  1  0
 13 12  1  0
 14 13  1  0
 15 14  1  1
 15 16  1  0
 17 18  2  0
 17 15  1  0
 19 17  1  0
 20 23  1  0
 20 19  1  0
 20 21  1  6
 22 21  1  0
 23 24  1  0
 25 23  2  0
M  END
$$$$
