PRC.pdb
     RDKit          3D

 25 25  0  0  1  0  0  0  0  0999 V2000
   27.4024  -18.4796  -16.9561 N   0  0  0  0  0  0  0  0  0  0  0  0
   28.5539  -17.9956  -17.6463 C   0  0  0  0  0  0  0  0  0  0  0  0
   29.4524  -19.1549  -17.9509 C   0  0  0  0  0  0  0  0  0  0  0  0
   28.6490  -20.3377  -17.5245 C   0  0  0  0  0  0  0  0  0  0  0  0
   27.2920  -19.8917  -17.1214 C   0  0  1  0  0  0  0  0  0  0  0  0
   26.7467  -20.6049  -15.9481 C   0  0  0  0  0  0  0  0  0  0  0  0
   26.0839  -21.6580  -16.2002 O   0  0  0  0  0  0  0  0  0  0  0  0
   29.8423  -21.4104   -7.9851 N   0  0  0  0  0  0  0  0  0  0  0  0
   29.9618  -21.7977   -9.3742 C   0  0  0  0  0  0  0  0  0  0  0  0
   31.0572  -22.2592   -9.7395 N   0  0  0  0  0  0  0  0  0  0  0  0
   28.8754  -21.6501  -10.2633 N   0  0  0  0  0  0  0  0  0  0  0  0
   27.5518  -21.2954   -9.9449 C   0  0  0  0  0  0  0  0  0  0  0  0
   26.5118  -21.2596  -10.9948 C   0  0  0  0  0  0  0  0  0  0  0  0
   27.1225  -20.7180  -12.2788 C   0  0  0  0  0  0  0  0  0  0  0  0
   26.2645  -20.8778  -13.4721 C   0  0  2  0  0  0  0  0  0  0  0  0
   26.8988  -20.2215  -14.6119 N   0  0  0  0  0  0  0  0  0  0  0  0
   24.9674  -20.1509  -13.2039 C   0  0  0  0  0  0  0  0  0  0  0  0
   24.9617  -18.9363  -12.9962 O   0  0  0  0  0  0  0  0  0  0  0  0
   31.3474  -22.5523  -10.6460 N   0  0  0  0  0  0  0  0  0  0  0  0
   23.7813  -20.8894  -13.1981 C   0  0  1  0  0  0  0  0  0  0  0  0
   22.4586  -20.3186  -13.0846 C   0  0  0  0  0  0  0  0  0  0  0  0
   21.8082  -20.0556  -14.3964 S   0  0  0  0  0  0  0  0  0  0  0  0
   20.0830  -19.5778  -14.0896 C   0  0  0  0  0  0  0  0  0  0  0  0
   21.6099  -21.2191  -12.2927 O   0  0  0  0  0  0  0  0  0  0  0  0
   21.6606  -22.5778  -12.4495 O   0  0  0  0  0  0  0  0  0  0  0  0
  1  2  1  0
  3  2  1  0
  4  3  1  0
  5  4  1  0
  5  1  1  0
  6 16  1  0
  5  6  1  1
  7  6  2  0
  9  8  1  0
  9 11  1  0
 10  9  2  0
 12 11  1  0
 13 12  1  0
 14 13  1  0
 15 14  1  1
 15 16  1  0
 17 18  2  0
 17 15  1  0
 19 17  1  0
 20 23  1  0
 20 19  1  0
 20 21  1  1
 22 21  1  0
 23 24  1  0
 25 23  2  0
M  END
$$$$
