PRC.pdb
     RDKit          3D

 25 25  0  0  1  0  0  0  0  0999 V2000
   24.6066  -12.9129  -15.7541 N   0  0  0  0  0  0  0  0  0  0  0  0
   25.4096  -14.0889  -15.8486 C   0  0  0  0  0  0  0  0  0  0  0  0
   25.6035  -14.4215  -17.2964 C   0  0  0  0  0  0  0  0  0  0  0  0
   24.9873  -13.2616  -18.0043 C   0  0  0  0  0  0  0  0  0  0  0  0
   24.5802  -12.2377  -17.0099 C   0  0  1  0  0  0  0  0  0  0  0  0
   23.2985  -11.5718  -17.3204 C   0  0  0  0  0  0  0  0  0  0  0  0
   23.2738  -10.8929  -18.3929 O   0  0  0  0  0  0  0  0  0  0  0  0
   15.5299  -14.9611  -17.9423 N   0  0  0  0  0  0  0  0  0  0  0  0
   15.2266  -13.5628  -18.1588 C   0  0  0  0  0  0  0  0  0  0  0  0
   14.0566  -13.2807  -18.4718 N   0  0  0  0  0  0  0  0  0  0  0  0
   16.2253  -12.5751  -18.0194 N   0  0  0  0  0  0  0  0  0  0  0  0
   17.5520  -12.7551  -17.5875 C   0  0  0  0  0  0  0  0  0  0  0  0
   18.4722  -11.6023  -17.4909 C   0  0  0  0  0  0  0  0  0  0  0  0
   19.8412  -12.0969  -17.0479 C   0  0  0  0  0  0  0  0  0  0  0  0
   20.8545  -11.0297  -16.9072 C   0  0  2  0  0  0  0  0  0  0  0  0
   22.1361  -11.6281  -16.5448 N   0  0  0  0  0  0  0  0  0  0  0  0
   20.4328  -10.1471  -15.7555 C   0  0  0  0  0  0  0  0  0  0  0  0
   19.9992  -10.6419  -14.7137 O   0  0  0  0  0  0  0  0  0  0  0  0
   13.2809  -13.8866  -18.6240 N   0  0  0  0  0  0  0  0  0  0  0  0
   20.5475   -8.7625  -15.9036 C   0  0  1  0  0  0  0  0  0  0  0  0
   20.2200   -7.7969  -14.8796 C   0  0  0  0  0  0  0  0  0  0  0  0
   21.4114   -7.1493  -14.2678 S   0  0  0  0  0  0  0  0  0  0  0  0
   22.3612   -8.4229  -13.3877 C   0  0  0  0  0  0  0  0  0  0  0  0
   19.3450   -6.7644  -15.4511 O   0  0  0  0  0  0  0  0  0  0  0  0
   18.7655   -5.8005  -14.6712 O   0  0  0  0  0  0  0  0  0  0  0  0
  1  2  1  0
  3  2  1  0
  4  3  1  0
  5  4  1  0
  5  1  1  0
  6 16  1  0
  5  6  1  6
  7  6  2  0
  9  8  1  0
  9 11  1  0
 10  9  2  0
 12 11  1  0
 13 12  1  0
 14 13  1  0
 15 14  1  1
 15 16  1  0
 17 18  2  0
 17 15  1  0
 19 17  1  0
 20 23  1  0
 20 19  1  0
 20 21  1  1
 22 21  1  0
 23 24  1  0
 25 23  2  0
M  END
$$$$
