PRC.pdb
     RDKit          3D

 25 25  0  0  1  0  0  0  0  0999 V2000
   43.2114  -14.1421  -10.1829 N   0  0  0  0  0  0  0  0  0  0  0  0
   44.0872  -15.2160  -10.5243 C   0  0  0  0  0  0  0  0  0  0  0  0
   43.9189  -16.3107   -9.5157 C   0  0  0  0  0  0  0  0  0  0  0  0
   42.7756  -15.8400   -8.6804 C   0  0  0  0  0  0  0  0  0  0  0  0
   42.2177  -14.5955   -9.2660 C   0  0  1  0  0  0  0  0  0  0  0  0
   41.8040  -13.5909   -8.2649 C   0  0  0  0  0  0  0  0  0  0  0  0
   40.8736  -13.9457   -7.4774 O   0  0  0  0  0  0  0  0  0  0  0  0
   44.1351   -8.8939   -2.3703 N   0  0  0  0  0  0  0  0  0  0  0  0
   45.1200   -9.3947   -3.3047 C   0  0  0  0  0  0  0  0  0  0  0  0
   46.1495   -9.8995   -2.8234 N   0  0  0  0  0  0  0  0  0  0  0  0
   44.9083   -9.3050   -4.6974 N   0  0  0  0  0  0  0  0  0  0  0  0
   43.8630   -8.6387   -5.3625 C   0  0  0  0  0  0  0  0  0  0  0  0
   42.6384   -9.3680   -5.7546 C   0  0  0  0  0  0  0  0  0  0  0  0
   43.0117  -10.4748   -6.7296 C   0  0  0  0  0  0  0  0  0  0  0  0
   41.8691  -11.3007   -7.1747 C   0  0  2  0  0  0  0  0  0  0  0  0
   42.3433  -12.3089   -8.1185 N   0  0  0  0  0  0  0  0  0  0  0  0
   40.9176  -10.3989   -7.9260 C   0  0  0  0  0  0  0  0  0  0  0  0
   41.1604  -10.0596   -9.0854 O   0  0  0  0  0  0  0  0  0  0  0  0
   46.9461  -10.2732   -3.2900 N   0  0  0  0  0  0  0  0  0  0  0  0
   39.7615   -9.9629   -7.2737 C   0  0  2  0  0  0  0  0  0  0  0  0
   38.7412   -9.1351   -7.8755 C   0  0  0  0  0  0  0  0  0  0  0  0
   37.6100   -8.8237   -6.9610 S   0  0  0  0  0  0  0  0  0  0  0  0
   36.9844  -10.3863   -6.2785 C   0  0  0  0  0  0  0  0  0  0  0  0
   39.3490   -7.8815   -8.3418 O   0  0  0  0  0  0  0  0  0  0  0  0
   38.8969   -7.2357   -9.4606 O   0  0  0  0  0  0  0  0  0  0  0  0
  1  2  1  0
  3  2  1  0
  4  3  1  0
  5  4  1  0
  5  1  1  0
  6 16  1  0
  5  6  1  1
  7  6  2  0
  9  8  1  0
  9 11  1  0
 10  9  2  0
 12 11  1  0
 13 12  1  0
 14 13  1  0
 15 14  1  6
 15 16  1  0
 17 18  2  0
 17 15  1  0
 19 17  1  0
 20 23  1  0
 20 19  1  0
 20 21  1  6
 22 21  1  0
 23 24  1  0
 25 23  2  0
M  END
$$$$
