NTR.pdb
     RDKit          3D

 27 26  0  0  1  0  0  0  0  0999 V2000
   23.6784  -17.3822  -16.7879 N   0  0  0  0  0  0  0  0  0  0  0  0
   24.6992  -17.3433  -15.8143 C   0  0  0  0  0  0  0  0  0  0  0  0
   25.4412  -18.3357  -15.6403 O   0  0  0  0  0  0  0  0  0  0  0  0
   24.8953  -16.1120  -14.9877 C   0  0  0  0  0  0  0  0  0  0  0  0
   23.8010  -15.1253  -15.3378 C   0  0  2  0  0  0  0  0  0  0  0  0
   23.8651  -14.9057  -16.7898 N   0  0  0  0  0  0  0  0  0  0  0  0
   24.0232  -13.8079  -14.7054 C   0  0  0  0  0  0  0  0  0  0  0  0
   24.1727  -13.6653  -13.4421 O   0  0  0  0  0  0  0  0  0  0  0  0
   26.6547  -11.3027  -15.0051 C   0  0  0  0  0  0  0  0  0  0  0  0
   25.3707  -10.5749  -15.3157 C   0  0  1  0  0  0  0  0  0  0  0  0
   25.3272  -10.3324  -16.6668 O   0  0  0  0  0  0  0  0  0  0  0  0
   24.1527  -11.2999  -14.7872 C   0  0  2  0  0  0  0  0  0  0  0  0
   24.0888  -12.5849  -15.4553 N   0  0  0  0  0  0  0  0  0  0  0  0
   22.9107  -10.5119  -15.0007 C   0  0  0  0  0  0  0  0  0  0  0  0
   22.0765  -10.8342  -15.8974 O   0  0  0  0  0  0  0  0  0  0  0  0
   16.6668   -7.3275   -9.8502 N   0  0  0  0  0  0  0  0  0  0  0  0
   16.6573   -8.4537  -10.7148 C   0  0  0  0  0  0  0  0  0  0  0  0
   15.8518   -9.4670  -10.5161 N   0  0  0  0  0  0  0  0  0  0  0  0
   17.5280   -8.5198  -11.8425 N   0  0  0  0  0  0  0  0  0  0  0  0
   18.5174   -7.5275  -12.0653 C   0  0  0  0  0  0  0  0  0  0  0  0
   19.3453   -7.7163  -13.2958 C   0  0  0  0  0  0  0  0  0  0  0  0
   20.5627   -8.5439  -13.1465 C   0  0  0  0  0  0  0  0  0  0  0  0
   21.3482   -8.5931  -14.4356 C   0  0  2  0  0  0  0  0  0  0  0  0
   22.5901   -9.3686  -14.2242 N   0  0  0  0  0  0  0  0  0  0  0  0
   21.7908   -7.2715  -14.9116 C   0  0  0  0  0  0  0  0  0  0  0  0
   20.8976   -6.3605  -15.5133 O   0  0  0  0  0  0  0  0  0  0  0  0
   22.9690   -6.8472  -14.8284 O   0  0  0  0  0  0  0  0  0  0  0  0
  2  1  1  0
  3  2  2  0
  4  2  1  0
  5  4  1  0
  5  6  1  6
  7  5  1  0
  7  8  2  0
 10  9  1  6
 10 12  1  0
 11 10  1  0
 12 13  1  6
 13  7  1  0
 14 12  1  0
 15 14  2  0
 16 17  1  0
 17 18  2  0
 19 17  1  0
 20 19  1  0
 21 20  1  0
 23 22  1  1
 22 21  1  0
 23 24  1  0
 24 14  1  0
 25 23  1  0
 26 25  1  0
 27 25  2  0
M  END
$$$$
