NTR.pdb
     RDKit          3D

 27 26  0  0  1  0  0  0  0  0999 V2000
   23.2523  -27.2212  -20.3371 N   0  0  0  0  0  0  0  0  0  0  0  0
   22.9557  -25.9318  -19.8463 C   0  0  0  0  0  0  0  0  0  0  0  0
   23.0148  -24.9399  -20.6068 O   0  0  0  0  0  0  0  0  0  0  0  0
   22.5692  -25.7499  -18.4127 C   0  0  0  0  0  0  0  0  0  0  0  0
   23.5387  -24.7740  -17.7792 C   0  0  2  0  0  0  0  0  0  0  0  0
   24.8366  -25.4568  -17.6799 N   0  0  0  0  0  0  0  0  0  0  0  0
   23.1444  -24.4226  -16.3986 C   0  0  0  0  0  0  0  0  0  0  0  0
   23.6245  -25.0168  -15.3714 O   0  0  0  0  0  0  0  0  0  0  0  0
   23.3576  -21.0016  -14.8891 C   0  0  0  0  0  0  0  0  0  0  0  0
   21.9667  -21.5227  -14.6267 C   0  0  1  0  0  0  0  0  0  0  0  0
   21.0943  -20.8638  -15.4578 O   0  0  0  0  0  0  0  0  0  0  0  0
   21.8851  -23.0299  -14.7289 C   0  0  2  0  0  0  0  0  0  0  0  0
   22.1934  -23.3890  -16.0992 N   0  0  0  0  0  0  0  0  0  0  0  0
   20.5482  -23.5349  -14.3203 C   0  0  0  0  0  0  0  0  0  0  0  0
   19.6836  -23.8711  -15.1823 O   0  0  0  0  0  0  0  0  0  0  0  0
   17.4111  -27.1992   -6.9151 N   0  0  0  0  0  0  0  0  0  0  0  0
   18.1299  -27.6642   -8.0478 C   0  0  0  0  0  0  0  0  0  0  0  0
   18.7925  -28.7936   -8.0263 N   0  0  0  0  0  0  0  0  0  0  0  0
   18.1519  -26.9144   -9.2609 N   0  0  0  0  0  0  0  0  0  0  0  0
   17.3923  -25.7243   -9.4022 C   0  0  0  0  0  0  0  0  0  0  0  0
   17.4786  -25.0672  -10.7423 C   0  0  0  0  0  0  0  0  0  0  0  0
   18.8406  -24.8101  -11.2603 C   0  0  0  0  0  0  0  0  0  0  0  0
   18.7923  -24.0396  -12.5585 C   0  0  2  0  0  0  0  0  0  0  0  0
   20.1668  -23.6687  -12.9604 N   0  0  0  0  0  0  0  0  0  0  0  0
   18.0568  -22.7670  -12.4661 C   0  0  0  0  0  0  0  0  0  0  0  0
   16.6683  -22.6918  -12.7025 O   0  0  0  0  0  0  0  0  0  0  0  0
   18.5829  -21.6647  -12.1774 O   0  0  0  0  0  0  0  0  0  0  0  0
  2  1  1  0
  3  2  2  0
  4  2  1  0
  5  4  1  0
  5  6  1  1
  7  5  1  0
  7  8  2  0
 10  9  1  6
 10 12  1  0
 11 10  1  0
 12 13  1  6
 13  7  1  0
 14 12  1  0
 15 14  2  0
 16 17  1  0
 17 18  2  0
 19 17  1  0
 20 19  1  0
 21 20  1  0
 23 22  1  1
 22 21  1  0
 23 24  1  0
 24 14  1  0
 25 23  1  0
 26 25  1  0
 27 25  2  0
M  END
$$$$
