NTR.pdb
     RDKit          3D

 27 26  0  0  1  0  0  0  0  0999 V2000
   16.6561  -25.9584   -7.2759 N   0  0  0  0  0  0  0  0  0  0  0  0
   17.6542  -25.7036   -8.2404 C   0  0  0  0  0  0  0  0  0  0  0  0
   18.3798  -26.6343   -8.6563 O   0  0  0  0  0  0  0  0  0  0  0  0
   17.8455  -24.3167   -8.7677 C   0  0  0  0  0  0  0  0  0  0  0  0
   19.2524  -23.8696   -8.4295 C   0  0  2  0  0  0  0  0  0  0  0  0
   19.3067  -23.6770   -6.9733 N   0  0  0  0  0  0  0  0  0  0  0  0
   19.5763  -22.5614   -9.0367 C   0  0  0  0  0  0  0  0  0  0  0  0
   18.9632  -21.4831   -8.7204 O   0  0  0  0  0  0  0  0  0  0  0  0
   22.9381  -20.8739   -9.0985 C   0  0  0  0  0  0  0  0  0  0  0  0
   22.4165  -20.9203  -10.5129 C   0  0  1  0  0  0  0  0  0  0  0  0
   23.1073  -21.8905  -11.1968 O   0  0  0  0  0  0  0  0  0  0  0  0
   20.9140  -21.0873  -10.5700 C   0  0  2  0  0  0  0  0  0  0  0  0
   20.6020  -22.3952  -10.0280 N   0  0  0  0  0  0  0  0  0  0  0  0
   20.3981  -20.9339  -11.9554 C   0  0  0  0  0  0  0  0  0  0  0  0
   19.8883  -21.9126  -12.5766 O   0  0  0  0  0  0  0  0  0  0  0  0
   16.8941  -14.0544  -16.0041 N   0  0  0  0  0  0  0  0  0  0  0  0
   17.8089  -14.3570  -14.9613 C   0  0  0  0  0  0  0  0  0  0  0  0
   18.1779  -13.4551  -14.0863 N   0  0  0  0  0  0  0  0  0  0  0  0
   18.3591  -15.6658  -14.8252 N   0  0  0  0  0  0  0  0  0  0  0  0
   18.2656  -16.6144  -15.8762 C   0  0  0  0  0  0  0  0  0  0  0  0
   18.8402  -17.9610  -15.5738 C   0  0  0  0  0  0  0  0  0  0  0  0
   19.3361  -18.1680  -14.1952 C   0  0  0  0  0  0  0  0  0  0  0  0
   19.9206  -19.5508  -14.0294 C   0  0  2  0  0  0  0  0  0  0  0  0
   20.4452  -19.7002  -12.6542 N   0  0  0  0  0  0  0  0  0  0  0  0
   21.0661  -19.8209  -14.9146 C   0  0  0  0  0  0  0  0  0  0  0  0
   20.8998  -20.3979  -16.1910 O   0  0  0  0  0  0  0  0  0  0  0  0
   22.2609  -19.5701  -14.6228 O   0  0  0  0  0  0  0  0  0  0  0  0
  2  1  1  0
  3  2  2  0
  4  2  1  0
  5  4  1  0
  5  6  1  1
  7  5  1  0
  7  8  2  0
 10  9  1  1
 10 12  1  0
 11 10  1  0
 12 13  1  6
 13  7  1  0
 14 12  1  0
 15 14  2  0
 16 17  1  0
 17 18  2  0
 19 17  1  0
 20 19  1  0
 21 20  1  0
 23 22  1  1
 22 21  1  0
 23 24  1  0
 24 14  1  0
 25 23  1  0
 26 25  1  0
 27 25  2  0
M  END
$$$$
