NTR.pdb
     RDKit          3D

 27 26  0  0  1  0  0  0  0  0999 V2000
   21.4315  -21.4458  -17.7355 N   0  0  0  0  0  0  0  0  0  0  0  0
   20.9066  -20.7896  -16.6018 C   0  0  0  0  0  0  0  0  0  0  0  0
   20.4347  -19.6353  -16.7050 O   0  0  0  0  0  0  0  0  0  0  0  0
   20.9139  -21.4758  -15.2725 C   0  0  0  0  0  0  0  0  0  0  0  0
   21.4573  -20.5088  -14.2415 C   0  0  2  0  0  0  0  0  0  0  0  0
   22.8671  -20.2647  -14.5782 N   0  0  0  0  0  0  0  0  0  0  0  0
   21.4465  -21.0886  -12.8818 C   0  0  0  0  0  0  0  0  0  0  0  0
   22.4444  -20.9980  -12.0851 O   0  0  0  0  0  0  0  0  0  0  0  0
   21.6316  -20.0756  -10.4830 C   0  0  0  0  0  0  0  0  0  0  0  0
   20.3524  -20.8117  -10.1721 C   0  0  1  0  0  0  0  0  0  0  0  0
   19.2995  -19.9539  -10.3763 O   0  0  0  0  0  0  0  0  0  0  0  0
   20.2344  -22.1134  -10.9339 C   0  0  2  0  0  0  0  0  0  0  0  0
   20.3187  -21.7984  -12.3465 N   0  0  0  0  0  0  0  0  0  0  0  0
   18.9713  -22.8260  -10.6085 C   0  0  0  0  0  0  0  0  0  0  0  0
   17.9248  -22.6530  -11.3002 O   0  0  0  0  0  0  0  0  0  0  0  0
   18.4322  -27.1081   -3.2067 N   0  0  0  0  0  0  0  0  0  0  0  0
   17.2681  -26.3549   -3.5121 C   0  0  0  0  0  0  0  0  0  0  0  0
   16.2181  -26.3629   -2.7294 N   0  0  0  0  0  0  0  0  0  0  0  0
   17.2021  -25.5520   -4.6891 N   0  0  0  0  0  0  0  0  0  0  0  0
   18.2933  -25.4838   -5.5934 C   0  0  0  0  0  0  0  0  0  0  0  0
   18.0518  -24.6718   -6.8253 C   0  0  0  0  0  0  0  0  0  0  0  0
   17.8635  -25.4281   -8.0830 C   0  0  0  0  0  0  0  0  0  0  0  0
   17.6288  -24.4961   -9.2481 C   0  0  2  0  0  0  0  0  0  0  0  0
   18.8644  -23.7292   -9.5197 N   0  0  0  0  0  0  0  0  0  0  0  0
   16.5892  -23.4834   -8.9978 C   0  0  0  0  0  0  0  0  0  0  0  0
   16.9118  -22.1355   -8.7355 O   0  0  0  0  0  0  0  0  0  0  0  0
   15.3565  -23.7200   -8.9946 O   0  0  0  0  0  0  0  0  0  0  0  0
  2  1  1  0
  3  2  2  0
  4  2  1  0
  5  4  1  0
  5  6  1  6
  7  5  1  0
  7  8  2  0
 10  9  1  6
 10 12  1  0
 11 10  1  0
 12 13  1  6
 13  7  1  0
 14 12  1  0
 15 14  2  0
 16 17  1  0
 17 18  2  0
 19 17  1  0
 20 19  1  0
 21 20  1  0
 23 22  1  1
 22 21  1  0
 23 24  1  0
 24 14  1  0
 25 23  1  0
 26 25  1  0
 27 25  2  0
M  END
$$$$
