NTR.pdb
     RDKit          3D

 27 26  0  0  1  0  0  0  0  0999 V2000
   19.5748  -13.5534  -21.2431 N   0  0  0  0  0  0  0  0  0  0  0  0
   20.3903  -12.5801  -20.6273 C   0  0  0  0  0  0  0  0  0  0  0  0
   21.6246  -12.5721  -20.8322 O   0  0  0  0  0  0  0  0  0  0  0  0
   19.7774  -11.5544  -19.7271 C   0  0  0  0  0  0  0  0  0  0  0  0
   20.6784  -11.3804  -18.5223 C   0  0  2  0  0  0  0  0  0  0  0  0
   20.5696  -12.6073  -17.7202 N   0  0  0  0  0  0  0  0  0  0  0  0
   20.2298  -10.2717  -17.6537 C   0  0  0  0  0  0  0  0  0  0  0  0
   19.0692  -10.2440  -17.1142 O   0  0  0  0  0  0  0  0  0  0  0  0
   21.2389   -9.4784  -14.4240 C   0  0  0  0  0  0  0  0  0  0  0  0
   21.4641   -8.1982  -15.1891 C   0  0  1  0  0  0  0  0  0  0  0  0
   22.8093   -8.0730  -15.4356 O   0  0  0  0  0  0  0  0  0  0  0  0
   20.6059   -8.1086  -16.4317 C   0  0  2  0  0  0  0  0  0  0  0  0
   21.0574   -9.1392  -17.3459 N   0  0  0  0  0  0  0  0  0  0  0  0
   20.6788   -6.7597  -17.0515 C   0  0  0  0  0  0  0  0  0  0  0  0
   21.5118   -6.5053  -17.9708 O   0  0  0  0  0  0  0  0  0  0  0  0
   15.1314    0.2488  -17.9135 N   0  0  0  0  0  0  0  0  0  0  0  0
   16.3813    0.6418  -18.4603 C   0  0  0  0  0  0  0  0  0  0  0  0
   16.5420    1.8021  -19.0461 N   0  0  0  0  0  0  0  0  0  0  0  0
   17.5171   -0.2177  -18.3861 N   0  0  0  0  0  0  0  0  0  0  0  0
   17.4515   -1.4643  -17.7116 C   0  0  0  0  0  0  0  0  0  0  0  0
   18.7064   -2.2762  -17.7472 C   0  0  0  0  0  0  0  0  0  0  0  0
   18.6185   -3.6443  -17.1904 C   0  0  0  0  0  0  0  0  0  0  0  0
   19.9640   -4.3299  -17.2173 C   0  0  2  0  0  0  0  0  0  0  0  0
   19.8318   -5.6924  -16.6564 N   0  0  0  0  0  0  0  0  0  0  0  0
   20.9851   -3.6655  -16.3897 C   0  0  0  0  0  0  0  0  0  0  0  0
   21.7610   -2.5956  -16.8827 O   0  0  0  0  0  0  0  0  0  0  0  0
   21.2512   -3.9815  -15.2045 O   0  0  0  0  0  0  0  0  0  0  0  0
  2  1  1  0
  3  2  2  0
  4  2  1  0
  5  4  1  0
  5  6  1  1
  7  5  1  0
  7  8  2  0
 10  9  1  6
 10 12  1  0
 11 10  1  0
 12 13  1  6
 13  7  1  0
 14 12  1  0
 15 14  2  0
 16 17  1  0
 17 18  2  0
 19 17  1  0
 20 19  1  0
 21 20  1  0
 23 22  1  1
 22 21  1  0
 23 24  1  0
 24 14  1  0
 25 23  1  0
 26 25  1  0
 27 25  2  0
M  END
$$$$
