NTR.pdb
     RDKit          3D

 27 26  0  0  1  0  0  0  0  0999 V2000
   24.6660  -16.9006  -20.7419 N   0  0  0  0  0  0  0  0  0  0  0  0
   25.1606  -18.0444  -21.4041 C   0  0  0  0  0  0  0  0  0  0  0  0
   25.0070  -18.1721  -22.6393 O   0  0  0  0  0  0  0  0  0  0  0  0
   25.8708  -19.1075  -20.6274 C   0  0  0  0  0  0  0  0  0  0  0  0
   25.9275  -18.6781  -19.1762 C   0  0  2  0  0  0  0  0  0  0  0  0
   27.1650  -17.9042  -19.0023 N   0  0  0  0  0  0  0  0  0  0  0  0
   26.0261  -19.8354  -18.2620 C   0  0  0  0  0  0  0  0  0  0  0  0
   26.6399  -20.9136  -18.5775 O   0  0  0  0  0  0  0  0  0  0  0  0
   28.0173  -20.4961  -17.1383 C   0  0  0  0  0  0  0  0  0  0  0  0
   27.3273  -20.7906  -15.8298 C   0  0  1  0  0  0  0  0  0  0  0  0
   27.7666  -19.8844  -14.8959 O   0  0  0  0  0  0  0  0  0  0  0  0
   25.8217  -20.8412  -15.9685 C   0  0  2  0  0  0  0  0  0  0  0  0
   25.4427  -19.8437  -16.9498 N   0  0  0  0  0  0  0  0  0  0  0  0
   25.1436  -20.6104  -14.6662 C   0  0  0  0  0  0  0  0  0  0  0  0
   24.7791  -19.4498  -14.3142 O   0  0  0  0  0  0  0  0  0  0  0  0
   26.4375  -19.2693   -7.0679 N   0  0  0  0  0  0  0  0  0  0  0  0
   25.4625  -20.3014   -7.0670 C   0  0  0  0  0  0  0  0  0  0  0  0
   24.5310  -20.3674   -6.1487 N   0  0  0  0  0  0  0  0  0  0  0  0
   25.4596  -21.3083   -8.0771 N   0  0  0  0  0  0  0  0  0  0  0  0
   26.2217  -21.1591   -9.2646 C   0  0  0  0  0  0  0  0  0  0  0  0
   25.5930  -20.3127  -10.3245 C   0  0  0  0  0  0  0  0  0  0  0  0
   25.8438  -20.7209  -11.7245 C   0  0  0  0  0  0  0  0  0  0  0  0
   24.6385  -21.4154  -12.3127 C   0  0  2  0  0  0  0  0  0  0  0  0
   24.8680  -21.6608  -13.7534 N   0  0  0  0  0  0  0  0  0  0  0  0
   23.4025  -20.6175  -12.2458 C   0  0  0  0  0  0  0  0  0  0  0  0
   22.5189  -20.7055  -11.1498 O   0  0  0  0  0  0  0  0  0  0  0  0
   23.0325  -19.8095  -13.1323 O   0  0  0  0  0  0  0  0  0  0  0  0
  2  1  1  0
  3  2  2  0
  4  2  1  0
  5  4  1  0
  5  6  1  6
  7  5  1  0
  7  8  2  0
 10  9  1  6
 10 12  1  0
 11 10  1  0
 12 13  1  6
 13  7  1  0
 14 12  1  0
 15 14  2  0
 16 17  1  0
 17 18  2  0
 19 17  1  0
 20 19  1  0
 21 20  1  0
 23 22  1  6
 22 21  1  0
 23 24  1  0
 24 14  1  0
 25 23  1  0
 26 25  1  0
 27 25  2  0
M  END
$$$$
