NTR.pdb
     RDKit          3D

 27 26  0  0  1  0  0  0  0  0999 V2000
   37.7885   -6.2371  -13.4024 N   0  0  0  0  0  0  0  0  0  0  0  0
   36.9721   -7.1315  -14.1268 C   0  0  0  0  0  0  0  0  0  0  0  0
   37.4538   -8.1897  -14.5891 O   0  0  0  0  0  0  0  0  0  0  0  0
   35.5263   -6.8139  -14.3428 C   0  0  0  0  0  0  0  0  0  0  0  0
   35.0661   -7.5242  -15.5987 C   0  0  2  0  0  0  0  0  0  0  0  0
   35.6969   -6.8415  -16.7374 N   0  0  0  0  0  0  0  0  0  0  0  0
   33.6061   -7.4050  -15.7963 C   0  0  0  0  0  0  0  0  0  0  0  0
   32.7613   -7.6578  -14.8683 O   0  0  0  0  0  0  0  0  0  0  0  0
   31.5895   -4.4301  -17.1516 C   0  0  0  0  0  0  0  0  0  0  0  0
   31.2602   -5.6641  -17.9539 C   0  0  1  0  0  0  0  0  0  0  0  0
   31.8827   -5.5653  -19.1740 O   0  0  0  0  0  0  0  0  0  0  0  0
   31.5801   -6.9410  -17.2083 C   0  0  2  0  0  0  0  0  0  0  0  0
   33.0192   -6.9973  -17.0420 N   0  0  0  0  0  0  0  0  0  0  0  0
   31.0668   -8.1373  -17.9255 C   0  0  0  0  0  0  0  0  0  0  0  0
   31.7944   -8.7719  -18.7450 O   0  0  0  0  0  0  0  0  0  0  0  0
   24.4701  -14.0327  -16.3210 N   0  0  0  0  0  0  0  0  0  0  0  0
   25.1972  -14.5058  -17.4450 C   0  0  0  0  0  0  0  0  0  0  0  0
   24.9292  -15.6605  -18.0017 N   0  0  0  0  0  0  0  0  0  0  0  0
   26.2506  -13.7318  -18.0156 N   0  0  0  0  0  0  0  0  0  0  0  0
   26.6344  -12.4869  -17.4535 C   0  0  0  0  0  0  0  0  0  0  0  0
   27.7249  -11.7673  -18.1801 C   0  0  0  0  0  0  0  0  0  0  0  0
   28.2456  -10.5418  -17.5348 C   0  0  0  0  0  0  0  0  0  0  0  0
   29.2620   -9.8536  -18.4147 C   0  0  2  0  0  0  0  0  0  0  0  0
   29.7507   -8.6325  -17.7375 N   0  0  0  0  0  0  0  0  0  0  0  0
   28.7165   -9.3926  -19.7028 C   0  0  0  0  0  0  0  0  0  0  0  0
   28.6321  -10.2460  -20.8227 O   0  0  0  0  0  0  0  0  0  0  0  0
   28.2894   -8.2318  -19.9159 O   0  0  0  0  0  0  0  0  0  0  0  0
  2  1  1  0
  3  2  2  0
  4  2  1  0
  5  4  1  0
  5  6  1  6
  7  5  1  0
  7  8  2  0
 10  9  1  1
 10 12  1  0
 11 10  1  0
 12 13  1  6
 13  7  1  0
 14 12  1  0
 15 14  2  0
 16 17  1  0
 17 18  2  0
 19 17  1  0
 20 19  1  0
 21 20  1  0
 23 22  1  1
 22 21  1  0
 23 24  1  0
 24 14  1  0
 25 23  1  0
 26 25  1  0
 27 25  2  0
M  END
$$$$
