NTR.pdb
     RDKit          3D

 27 26  0  0  1  0  0  0  0  0999 V2000
   23.1102  -14.7560  -20.2372 N   0  0  0  0  0  0  0  0  0  0  0  0
   23.0534  -16.0230  -20.8560 C   0  0  0  0  0  0  0  0  0  0  0  0
   22.9690  -16.1121  -22.1012 O   0  0  0  0  0  0  0  0  0  0  0  0
   23.0946  -17.2636  -20.0210 C   0  0  0  0  0  0  0  0  0  0  0  0
   23.1037  -16.8549  -18.5627 C   0  0  2  0  0  0  0  0  0  0  0  0
   24.3065  -16.0372  -18.3503 N   0  0  0  0  0  0  0  0  0  0  0  0
   23.2271  -18.0217  -17.6637 C   0  0  0  0  0  0  0  0  0  0  0  0
   22.4630  -19.0450  -17.7523 O   0  0  0  0  0  0  0  0  0  0  0  0
   23.4938  -20.7712  -17.6429 C   0  0  0  0  0  0  0  0  0  0  0  0
   24.6435  -20.4476  -16.7219 C   0  0  1  0  0  0  0  0  0  0  0  0
   25.7703  -20.2636  -17.4852 O   0  0  0  0  0  0  0  0  0  0  0  0
   24.3367  -19.2888  -15.7990 C   0  0  2  0  0  0  0  0  0  0  0  0
   24.2114  -18.1012  -16.6209 N   0  0  0  0  0  0  0  0  0  0  0  0
   25.3858  -19.1241  -14.7592 C   0  0  0  0  0  0  0  0  0  0  0  0
   26.4566  -18.4937  -15.0031 O   0  0  0  0  0  0  0  0  0  0  0  0
   24.7487  -20.1817   -6.7384 N   0  0  0  0  0  0  0  0  0  0  0  0
   24.1218  -20.9539   -7.7516 C   0  0  0  0  0  0  0  0  0  0  0  0
   22.8375  -21.2090   -7.7270 N   0  0  0  0  0  0  0  0  0  0  0  0
   24.8735  -21.4792   -8.8440 N   0  0  0  0  0  0  0  0  0  0  0  0
   26.2629  -21.2208   -8.9707 C   0  0  0  0  0  0  0  0  0  0  0  0
   26.6607  -20.4516  -10.1893 C   0  0  0  0  0  0  0  0  0  0  0  0
   26.0026  -20.8424  -11.4556 C   0  0  0  0  0  0  0  0  0  0  0  0
   26.4213  -19.9356  -12.5885 C   0  0  2  0  0  0  0  0  0  0  0  0
   25.2521  -19.6553  -13.4505 N   0  0  0  0  0  0  0  0  0  0  0  0
   27.4302  -20.5294  -13.4820 C   0  0  0  0  0  0  0  0  0  0  0  0
   28.7416  -20.0171  -13.5674 O   0  0  0  0  0  0  0  0  0  0  0  0
   27.2217  -21.5170  -14.2280 O   0  0  0  0  0  0  0  0  0  0  0  0
  2  1  1  0
  3  2  2  0
  4  2  1  0
  5  4  1  0
  5  6  1  6
  7  5  1  0
  7  8  2  0
 10  9  1  6
 10 12  1  0
 11 10  1  0
 12 13  1  6
 13  7  1  0
 14 12  1  0
 15 14  2  0
 16 17  1  0
 17 18  2  0
 19 17  1  0
 20 19  1  0
 21 20  1  0
 23 22  1  1
 22 21  1  0
 23 24  1  0
 24 14  1  0
 25 23  1  0
 26 25  1  0
 27 25  2  0
M  END
$$$$
