NTR.pdb
     RDKit          3D

 27 26  0  0  1  0  0  0  0  0999 V2000
   17.2557  -13.3672  -17.3261 N   0  0  0  0  0  0  0  0  0  0  0  0
   18.2482  -13.8438  -16.4433 C   0  0  0  0  0  0  0  0  0  0  0  0
   18.6332  -15.0324  -16.5116 O   0  0  0  0  0  0  0  0  0  0  0  0
   18.8423  -12.9253  -15.4228 C   0  0  0  0  0  0  0  0  0  0  0  0
   18.1349  -11.5895  -15.5165 C   0  0  2  0  0  0  0  0  0  0  0  0
   18.6979  -10.8824  -16.6756 N   0  0  0  0  0  0  0  0  0  0  0  0
   18.4031  -10.7395  -14.3374 C   0  0  0  0  0  0  0  0  0  0  0  0
   18.1331  -11.1116  -13.1427 O   0  0  0  0  0  0  0  0  0  0  0  0
   21.7224   -8.6431  -13.8455 C   0  0  0  0  0  0  0  0  0  0  0  0
   20.5005   -7.8078  -13.5557 C   0  0  1  0  0  0  0  0  0  0  0  0
   20.3194   -6.9309  -14.5971 O   0  0  0  0  0  0  0  0  0  0  0  0
   19.2823   -8.6514  -13.2508 C   0  0  2  0  0  0  0  0  0  0  0  0
   18.9866   -9.4310  -14.4367 N   0  0  0  0  0  0  0  0  0  0  0  0
   18.1233   -7.8137  -12.8458 C   0  0  0  0  0  0  0  0  0  0  0  0
   17.2365   -7.4737  -13.6834 O   0  0  0  0  0  0  0  0  0  0  0  0
   14.5496   -5.0921   -4.9795 N   0  0  0  0  0  0  0  0  0  0  0  0
   13.6671   -4.7231   -6.0287 C   0  0  0  0  0  0  0  0  0  0  0  0
   12.4738   -4.2407   -5.7866 N   0  0  0  0  0  0  0  0  0  0  0  0
   14.0536   -4.8610   -7.3947 N   0  0  0  0  0  0  0  0  0  0  0  0
   15.1972   -5.6166   -7.7614 C   0  0  0  0  0  0  0  0  0  0  0  0
   15.4945   -5.6546   -9.2260 C   0  0  0  0  0  0  0  0  0  0  0  0
   16.5964   -6.5471   -9.6487 C   0  0  0  0  0  0  0  0  0  0  0  0
   16.8354   -6.4488  -11.1368 C   0  0  2  0  0  0  0  0  0  0  0  0
   17.9439   -7.3519  -11.5164 N   0  0  0  0  0  0  0  0  0  0  0  0
   17.2542   -5.1094  -11.5833 C   0  0  0  0  0  0  0  0  0  0  0  0
   16.3262   -4.1618  -12.0636 O   0  0  0  0  0  0  0  0  0  0  0  0
   18.4407   -4.7001  -11.5779 O   0  0  0  0  0  0  0  0  0  0  0  0
  2  1  1  0
  3  2  2  0
  4  2  1  0
  5  4  1  0
  5  6  1  6
  7  5  1  0
  7  8  2  0
 10  9  1  6
 10 12  1  0
 11 10  1  0
 12 13  1  6
 13  7  1  0
 14 12  1  0
 15 14  2  0
 16 17  1  0
 17 18  2  0
 19 17  1  0
 20 19  1  0
 21 20  1  0
 23 22  1  1
 22 21  1  0
 23 24  1  0
 24 14  1  0
 25 23  1  0
 26 25  1  0
 27 25  2  0
M  END
$$$$
