NTR.pdb
     RDKit          3D

 27 26  0  0  1  0  0  0  0  0999 V2000
   18.3966  -26.2891   -6.1535 N   0  0  0  0  0  0  0  0  0  0  0  0
   17.6151  -25.1839   -5.7546 C   0  0  0  0  0  0  0  0  0  0  0  0
   17.0171  -25.1998   -4.6556 O   0  0  0  0  0  0  0  0  0  0  0  0
   17.5012  -23.9893   -6.6479 C   0  0  0  0  0  0  0  0  0  0  0  0
   18.3723  -24.2213   -7.8649 C   0  0  2  0  0  0  0  0  0  0  0  0
   19.7547  -24.3643   -7.3864 N   0  0  0  0  0  0  0  0  0  0  0  0
   18.3641  -23.0594   -8.7786 C   0  0  0  0  0  0  0  0  0  0  0  0
   17.4935  -22.1243   -8.6980 O   0  0  0  0  0  0  0  0  0  0  0  0
   21.1527  -21.1823   -8.5707 C   0  0  0  0  0  0  0  0  0  0  0  0
   19.9922  -20.6391   -9.3664 C   0  0  1  0  0  0  0  0  0  0  0  0
   20.3341  -19.3940   -9.8345 O   0  0  0  0  0  0  0  0  0  0  0  0
   19.5362  -21.5928  -10.4486 C   0  0  2  0  0  0  0  0  0  0  0  0
   19.3294  -22.8864   -9.8277 N   0  0  0  0  0  0  0  0  0  0  0  0
   20.5207  -21.6721  -11.5592 C   0  0  0  0  0  0  0  0  0  0  0  0
   21.5998  -22.3226  -11.4328 O   0  0  0  0  0  0  0  0  0  0  0  0
   16.9816  -23.4187  -17.4051 N   0  0  0  0  0  0  0  0  0  0  0  0
   16.4831  -22.1405  -17.0396 C   0  0  0  0  0  0  0  0  0  0  0  0
   15.1982  -21.9002  -16.9587 N   0  0  0  0  0  0  0  0  0  0  0  0
   17.3710  -21.0653  -16.7400 N   0  0  0  0  0  0  0  0  0  0  0  0
   18.7772  -21.2238  -16.8439 C   0  0  0  0  0  0  0  0  0  0  0  0
   19.5605  -20.7700  -15.6541 C   0  0  0  0  0  0  0  0  0  0  0  0
   20.5744  -21.7153  -15.1368 C   0  0  0  0  0  0  0  0  0  0  0  0
   21.2770  -21.1501  -13.9252 C   0  0  2  0  0  0  0  0  0  0  0  0
   20.3132  -21.0335  -12.8090 N   0  0  0  0  0  0  0  0  0  0  0  0
   21.8059  -19.7904  -14.1265 C   0  0  0  0  0  0  0  0  0  0  0  0
   22.9676  -19.5498  -14.8894 O   0  0  0  0  0  0  0  0  0  0  0  0
   21.2866  -18.7512  -13.6513 O   0  0  0  0  0  0  0  0  0  0  0  0
  2  1  1  0
  3  2  2  0
  4  2  1  0
  5  4  1  0
  5  6  1  1
  7  5  1  0
  7  8  2  0
 10  9  1  6
 10 12  1  0
 11 10  1  0
 12 13  1  1
 13  7  1  0
 14 12  1  0
 15 14  2  0
 16 17  1  0
 17 18  2  0
 19 17  1  0
 20 19  1  0
 21 20  1  0
 23 22  1  6
 22 21  1  0
 23 24  1  0
 24 14  1  0
 25 23  1  0
 26 25  1  0
 27 25  2  0
M  END
$$$$
