NTR.pdb
     RDKit          3D

 27 26  0  0  1  0  0  0  0  0999 V2000
   11.2330  -22.8217   -2.2499 N   0  0  0  0  0  0  0  0  0  0  0  0
   11.9316  -23.9693   -1.8182 C   0  0  0  0  0  0  0  0  0  0  0  0
   11.4159  -25.1029   -1.9395 O   0  0  0  0  0  0  0  0  0  0  0  0
   13.2930  -23.8307   -1.2137 C   0  0  0  0  0  0  0  0  0  0  0  0
   13.6742  -22.3651   -1.2323 C   0  0  2  0  0  0  0  0  0  0  0  0
   14.2932  -22.0958   -2.5380 N   0  0  0  0  0  0  0  0  0  0  0  0
   14.6956  -22.0479   -0.2120 C   0  0  0  0  0  0  0  0  0  0  0  0
   15.9242  -22.3848   -0.3375 O   0  0  0  0  0  0  0  0  0  0  0  0
   14.1264  -18.9992    2.6382 C   0  0  0  0  0  0  0  0  0  0  0  0
   15.4512  -19.5417    2.1632 C   0  0  1  0  0  0  0  0  0  0  0  0
   16.4292  -19.1102    3.0255 O   0  0  0  0  0  0  0  0  0  0  0  0
   15.4264  -21.0421    1.9715 C   0  0  2  0  0  0  0  0  0  0  0  0
   14.3927  -21.3382    0.9992 N   0  0  0  0  0  0  0  0  0  0  0  0
   15.1887  -21.7543    3.2543 C   0  0  0  0  0  0  0  0  0  0  0  0
   14.0150  -22.0236    3.6462 O   0  0  0  0  0  0  0  0  0  0  0  0
   18.9909  -28.3417    7.5541 N   0  0  0  0  0  0  0  0  0  0  0  0
   17.6572  -28.4974    7.0925 C   0  0  0  0  0  0  0  0  0  0  0  0
   17.1106  -29.6794    6.9536 N   0  0  0  0  0  0  0  0  0  0  0  0
   16.8571  -27.3628    6.7660 N   0  0  0  0  0  0  0  0  0  0  0  0
   17.4498  -26.1141    6.4455 C   0  0  0  0  0  0  0  0  0  0  0  0
   16.4911  -25.0291    6.0733 C   0  0  0  0  0  0  0  0  0  0  0  0
   17.0778  -23.6953    5.8157 C   0  0  0  0  0  0  0  0  0  0  0  0
   16.0073  -22.6883    5.4678 C   0  0  2  0  0  0  0  0  0  0  0  0
   16.2468  -22.1689    4.1035 N   0  0  0  0  0  0  0  0  0  0  0  0
   16.0024  -21.5021    6.3407 C   0  0  0  0  0  0  0  0  0  0  0  0
   15.4873  -21.5468    7.6531 O   0  0  0  0  0  0  0  0  0  0  0  0
   16.4428  -20.3753    6.0064 O   0  0  0  0  0  0  0  0  0  0  0  0
  2  1  1  0
  3  2  2  0
  4  2  1  0
  5  4  1  0
  5  6  1  6
  7  5  1  0
  7  8  2  0
 10  9  1  1
 10 12  1  0
 11 10  1  0
 12 13  1  6
 13  7  1  0
 14 12  1  0
 15 14  2  0
 16 17  1  0
 17 18  2  0
 19 17  1  0
 20 19  1  0
 21 20  1  0
 23 22  1  1
 22 21  1  0
 23 24  1  0
 24 14  1  0
 25 23  1  0
 26 25  1  0
 27 25  2  0
M  END
$$$$
