NTR.pdb
     RDKit          3D

 27 26  0  0  1  0  0  0  0  0999 V2000
   18.7540  -24.7256  -16.0937 N   0  0  0  0  0  0  0  0  0  0  0  0
   17.6315  -23.9298  -15.7805 C   0  0  0  0  0  0  0  0  0  0  0  0
   16.6103  -24.4512  -15.2798 O   0  0  0  0  0  0  0  0  0  0  0  0
   17.6624  -22.4581  -16.0477 C   0  0  0  0  0  0  0  0  0  0  0  0
   16.3293  -21.8717  -15.6325 C   0  0  2  0  0  0  0  0  0  0  0  0
   16.2165  -20.5552  -16.2764 N   0  0  0  0  0  0  0  0  0  0  0  0
   16.2621  -21.6317  -14.1755 C   0  0  0  0  0  0  0  0  0  0  0  0
   16.7688  -20.5940  -13.6230 O   0  0  0  0  0  0  0  0  0  0  0  0
   13.5241  -20.8635  -12.0815 C   0  0  0  0  0  0  0  0  0  0  0  0
   14.1398  -22.0872  -11.4503 C   0  0  1  0  0  0  0  0  0  0  0  0
   13.3464  -23.1696  -11.7418 O   0  0  0  0  0  0  0  0  0  0  0  0
   15.5897  -22.2717  -11.8406 C   0  0  2  0  0  0  0  0  0  0  0  0
   15.6247  -22.5408  -13.2647 N   0  0  0  0  0  0  0  0  0  0  0  0
   16.2314  -23.3641  -11.0633 C   0  0  0  0  0  0  0  0  0  0  0  0
   16.2760  -24.5478  -11.5111 O   0  0  0  0  0  0  0  0  0  0  0  0
   23.2183  -21.0420   -7.4117 N   0  0  0  0  0  0  0  0  0  0  0  0
   22.9941  -21.1311   -8.8108 C   0  0  0  0  0  0  0  0  0  0  0  0
   23.8738  -20.6958   -9.6779 N   0  0  0  0  0  0  0  0  0  0  0  0
   21.7954  -21.7071   -9.3262 N   0  0  0  0  0  0  0  0  0  0  0  0
   20.8072  -22.2430   -8.4605 C   0  0  0  0  0  0  0  0  0  0  0  0
   19.6440  -22.8893   -9.1419 C   0  0  0  0  0  0  0  0  0  0  0  0
   18.6765  -23.5878   -8.2670 C   0  0  0  0  0  0  0  0  0  0  0  0
   17.5634  -24.2109   -9.0757 C   0  0  2  0  0  0  0  0  0  0  0  0
   16.8236  -23.1490   -9.7922 N   0  0  0  0  0  0  0  0  0  0  0  0
   16.5538  -24.9056   -8.2589 C   0  0  0  0  0  0  0  0  0  0  0  0
   16.7084  -26.2537   -7.8736 O   0  0  0  0  0  0  0  0  0  0  0  0
   15.4939  -24.3773   -7.8432 O   0  0  0  0  0  0  0  0  0  0  0  0
  2  1  1  0
  3  2  2  0
  4  2  1  0
  5  4  1  0
  5  6  1  6
  7  5  1  0
  7  8  2  0
 10  9  1  6
 10 12  1  0
 11 10  1  0
 12 13  1  6
 13  7  1  0
 14 12  1  0
 15 14  2  0
 16 17  1  0
 17 18  2  0
 19 17  1  0
 20 19  1  0
 21 20  1  0
 23 22  1  1
 22 21  1  0
 23 24  1  0
 24 14  1  0
 25 23  1  0
 26 25  1  0
 27 25  2  0
M  END
$$$$
