NTR.pdb
     RDKit          3D

 27 26  0  0  1  0  0  0  0  0999 V2000
   18.7168  -13.8116  -16.5463 N   0  0  0  0  0  0  0  0  0  0  0  0
   18.5310  -12.4127  -16.5474 C   0  0  0  0  0  0  0  0  0  0  0  0
   17.9532  -11.8553  -17.5072 O   0  0  0  0  0  0  0  0  0  0  0  0
   19.0259  -11.5934  -15.3977 C   0  0  0  0  0  0  0  0  0  0  0  0
   17.9353  -10.6191  -15.0042 C   0  0  2  0  0  0  0  0  0  0  0  0
   17.9102   -9.5624  -16.0257 N   0  0  0  0  0  0  0  0  0  0  0  0
   18.2298   -9.9512  -13.7189 C   0  0  0  0  0  0  0  0  0  0  0  0
   18.3713  -10.5965  -12.6224 O   0  0  0  0  0  0  0  0  0  0  0  0
   21.0747   -7.6566  -12.8837 C   0  0  0  0  0  0  0  0  0  0  0  0
   19.7982   -6.9525  -12.4969 C   0  0  1  0  0  0  0  0  0  0  0  0
   19.5542   -5.9631  -13.4176 O   0  0  0  0  0  0  0  0  0  0  0  0
   18.6425   -7.9109  -12.3116 C   0  0  2  0  0  0  0  0  0  0  0  0
   18.3805   -8.5282  -13.5969 N   0  0  0  0  0  0  0  0  0  0  0  0
   17.4375   -7.2200  -11.7827 C   0  0  0  0  0  0  0  0  0  0  0  0
   16.4803   -6.8960  -12.5459 O   0  0  0  0  0  0  0  0  0  0  0  0
   11.1771   -8.2502   -6.1111 N   0  0  0  0  0  0  0  0  0  0  0  0
   11.4818   -8.5729   -7.4597 C   0  0  0  0  0  0  0  0  0  0  0  0
   10.8948   -9.5663   -8.0792 N   0  0  0  0  0  0  0  0  0  0  0  0
   12.4420   -7.8173   -8.1956 N   0  0  0  0  0  0  0  0  0  0  0  0
   13.2184   -6.8082   -7.5694 C   0  0  0  0  0  0  0  0  0  0  0  0
   14.1745   -6.0896   -8.4663 C   0  0  0  0  0  0  0  0  0  0  0  0
   15.2827   -6.8958   -9.0242 C   0  0  0  0  0  0  0  0  0  0  0  0
   16.1688   -6.0588   -9.9160 C   0  0  2  0  0  0  0  0  0  0  0  0
   17.2896   -6.8876  -10.4114 N   0  0  0  0  0  0  0  0  0  0  0  0
   16.8009   -4.9217   -9.2257 C   0  0  0  0  0  0  0  0  0  0  0  0
   16.0887   -3.7395   -8.9344 O   0  0  0  0  0  0  0  0  0  0  0  0
   17.9966   -4.9008   -8.8446 O   0  0  0  0  0  0  0  0  0  0  0  0
  2  1  1  0
  3  2  2  0
  4  2  1  0
  5  4  1  0
  5  6  1  6
  7  5  1  0
  7  8  2  0
 10  9  1  6
 10 12  1  0
 11 10  1  0
 12 13  1  6
 13  7  1  0
 14 12  1  0
 15 14  2  0
 16 17  1  0
 17 18  2  0
 19 17  1  0
 20 19  1  0
 21 20  1  0
 23 22  1  1
 22 21  1  0
 23 24  1  0
 24 14  1  0
 25 23  1  0
 26 25  1  0
 27 25  2  0
M  END
$$$$
