NTR.pdb
     RDKit          3D

 27 26  0  0  1  0  0  0  0  0999 V2000
   27.9783  -21.5162  -16.9348 N   0  0  0  0  0  0  0  0  0  0  0  0
   27.5767  -22.5559  -16.0693 C   0  0  0  0  0  0  0  0  0  0  0  0
   28.1813  -23.6514  -16.0785 O   0  0  0  0  0  0  0  0  0  0  0  0
   26.4249  -22.3481  -15.1375 C   0  0  0  0  0  0  0  0  0  0  0  0
   25.8937  -20.9450  -15.3442 C   0  0  2  0  0  0  0  0  0  0  0  0
   26.9922  -20.0173  -15.0392 N   0  0  0  0  0  0  0  0  0  0  0  0
   24.8015  -20.6243  -14.4013 C   0  0  0  0  0  0  0  0  0  0  0  0
   24.8907  -19.6854  -13.5357 O   0  0  0  0  0  0  0  0  0  0  0  0
   21.9861  -19.7094  -16.1250 C   0  0  0  0  0  0  0  0  0  0  0  0
   22.1109  -19.4554  -14.6436 C   0  0  1  0  0  0  0  0  0  0  0  0
   21.0071  -18.7497  -14.2316 O   0  0  0  0  0  0  0  0  0  0  0  0
   22.3505  -20.7253  -13.8572 C   0  0  2  0  0  0  0  0  0  0  0  0
   23.5557  -21.3384  -14.3800 N   0  0  0  0  0  0  0  0  0  0  0  0
   21.1887  -21.6486  -13.9405 C   0  0  0  0  0  0  0  0  0  0  0  0
   21.0168  -22.3957  -14.9484 O   0  0  0  0  0  0  0  0  0  0  0  0
   19.0958  -25.0778   -6.7870 N   0  0  0  0  0  0  0  0  0  0  0  0
   18.5865  -25.7601   -7.9232 C   0  0  0  0  0  0  0  0  0  0  0  0
   17.8447  -26.8331   -7.8064 N   0  0  0  0  0  0  0  0  0  0  0  0
   18.8623  -25.2945   -9.2428 N   0  0  0  0  0  0  0  0  0  0  0  0
   19.7299  -24.1944   -9.4668 C   0  0  0  0  0  0  0  0  0  0  0  0
   19.9149  -23.8085  -10.8993 C   0  0  0  0  0  0  0  0  0  0  0  0
   18.7598  -23.1600  -11.5584 C   0  0  0  0  0  0  0  0  0  0  0  0
   19.1086  -22.7245  -12.9619 C   0  0  2  0  0  0  0  0  0  0  0  0
   20.2176  -21.7467  -12.9109 N   0  0  0  0  0  0  0  0  0  0  0  0
   18.0110  -22.0323  -13.6584 C   0  0  0  0  0  0  0  0  0  0  0  0
   16.9891  -22.7406  -14.3244 O   0  0  0  0  0  0  0  0  0  0  0  0
   17.8879  -20.7847  -13.7216 O   0  0  0  0  0  0  0  0  0  0  0  0
  2  1  1  0
  3  2  2  0
  4  2  1  0
  5  4  1  0
  5  6  1  1
  7  5  1  0
  7  8  2  0
 10  9  1  6
 10 12  1  0
 11 10  1  0
 12 13  1  6
 13  7  1  0
 14 12  1  0
 15 14  2  0
 16 17  1  0
 17 18  2  0
 19 17  1  0
 20 19  1  0
 21 20  1  0
 23 22  1  1
 22 21  1  0
 23 24  1  0
 24 14  1  0
 25 23  1  0
 26 25  1  0
 27 25  2  0
M  END
$$$$
