NTR.pdb
     RDKit          3D

 27 26  0  0  1  0  0  0  0  0999 V2000
   21.0518  -31.9907  -19.7818 N   0  0  0  0  0  0  0  0  0  0  0  0
   22.2861  -32.1478  -19.1162 C   0  0  0  0  0  0  0  0  0  0  0  0
   22.4356  -33.0619  -18.2749 O   0  0  0  0  0  0  0  0  0  0  0  0
   23.4196  -31.2190  -19.4171 C   0  0  0  0  0  0  0  0  0  0  0  0
   22.9659  -29.8044  -19.1226 C   0  0  2  0  0  0  0  0  0  0  0  0
   24.0773  -28.9108  -19.4785 N   0  0  0  0  0  0  0  0  0  0  0  0
   22.7072  -29.5968  -17.6821 C   0  0  0  0  0  0  0  0  0  0  0  0
   22.7402  -28.4400  -17.1349 O   0  0  0  0  0  0  0  0  0  0  0  0
   20.9416  -28.3345  -16.1838 C   0  0  0  0  0  0  0  0  0  0  0  0
   20.8339  -29.5836  -15.3454 C   0  0  1  0  0  0  0  0  0  0  0  0
   19.7048  -30.2653  -15.7284 O   0  0  0  0  0  0  0  0  0  0  0  0
   22.0942  -30.4194  -15.3884 C   0  0  2  0  0  0  0  0  0  0  0  0
   22.3990  -30.6732  -16.7828 N   0  0  0  0  0  0  0  0  0  0  0  0
   21.9383  -31.6851  -14.6251 C   0  0  0  0  0  0  0  0  0  0  0  0
   21.2450  -32.6426  -15.0791 O   0  0  0  0  0  0  0  0  0  0  0  0
   25.8204  -31.8424   -7.1308 N   0  0  0  0  0  0  0  0  0  0  0  0
   24.6547  -32.6422   -7.2626 C   0  0  0  0  0  0  0  0  0  0  0  0
   24.2085  -33.3766   -6.2743 N   0  0  0  0  0  0  0  0  0  0  0  0
   23.9192  -32.6706   -8.4843 N   0  0  0  0  0  0  0  0  0  0  0  0
   24.1255  -31.6895   -9.4884 C   0  0  0  0  0  0  0  0  0  0  0  0
   23.2448  -31.8112  -10.6904 C   0  0  0  0  0  0  0  0  0  0  0  0
   23.2445  -33.1239  -11.3731 C   0  0  0  0  0  0  0  0  0  0  0  0
   22.3154  -33.1174  -12.5639 C   0  0  2  0  0  0  0  0  0  0  0  0
   22.5482  -31.8932  -13.3612 N   0  0  0  0  0  0  0  0  0  0  0  0
   20.8881  -33.0813  -12.2026 C   0  0  0  0  0  0  0  0  0  0  0  0
   20.2394  -34.1917  -11.6233 O   0  0  0  0  0  0  0  0  0  0  0  0
   20.1398  -32.0881  -12.3725 O   0  0  0  0  0  0  0  0  0  0  0  0
  2  1  1  0
  3  2  2  0
  4  2  1  0
  5  4  1  0
  5  6  1  1
  7  5  1  0
  7  8  2  0
 10  9  1  6
 10 12  1  0
 11 10  1  0
 12 13  1  6
 13  7  1  0
 14 12  1  0
 15 14  2  0
 16 17  1  0
 17 18  2  0
 19 17  1  0
 20 19  1  0
 21 20  1  0
 23 22  1  1
 22 21  1  0
 23 24  1  0
 24 14  1  0
 25 23  1  0
 26 25  1  0
 27 25  2  0
M  END
$$$$
