NTR.pdb
     RDKit          3D

 27 26  0  0  1  0  0  0  0  0999 V2000
   27.0521  -13.5420  -16.2134 N   0  0  0  0  0  0  0  0  0  0  0  0
   26.2336  -13.8772  -17.3131 C   0  0  0  0  0  0  0  0  0  0  0  0
   25.4437  -13.0323  -17.7903 O   0  0  0  0  0  0  0  0  0  0  0  0
   26.3106  -15.2466  -17.9104 C   0  0  0  0  0  0  0  0  0  0  0  0
   27.2591  -16.0780  -17.0723 C   0  0  2  0  0  0  0  0  0  0  0  0
   28.4618  -16.3122  -17.8842 N   0  0  0  0  0  0  0  0  0  0  0  0
   26.6981  -17.4100  -16.7621 C   0  0  0  0  0  0  0  0  0  0  0  0
   26.3632  -18.2464  -17.6714 O   0  0  0  0  0  0  0  0  0  0  0  0
   27.6460  -19.9071  -16.9909 C   0  0  0  0  0  0  0  0  0  0  0  0
   27.2090  -20.1423  -15.5666 C   0  0  1  0  0  0  0  0  0  0  0  0
   28.3127  -20.0488  -14.7547 O   0  0  0  0  0  0  0  0  0  0  0  0
   26.0705  -19.2356  -15.1538 C   0  0  2  0  0  0  0  0  0  0  0  0
   26.4840  -17.8717  -15.4192 N   0  0  0  0  0  0  0  0  0  0  0  0
   25.7079  -19.4273  -13.7252 C   0  0  0  0  0  0  0  0  0  0  0  0
   26.1881  -18.6811  -12.8217 O   0  0  0  0  0  0  0  0  0  0  0  0
   17.8947  -21.4975  -10.4690 N   0  0  0  0  0  0  0  0  0  0  0  0
   18.6765  -21.5859  -11.6509 C   0  0  0  0  0  0  0  0  0  0  0  0
   18.1582  -21.9651  -12.7923 N   0  0  0  0  0  0  0  0  0  0  0  0
   20.0643  -21.2573  -11.6383 N   0  0  0  0  0  0  0  0  0  0  0  0
   20.8622  -21.4845  -10.4872 C   0  0  0  0  0  0  0  0  0  0  0  0
   22.2747  -21.0046  -10.5846 C   0  0  0  0  0  0  0  0  0  0  0  0
   22.8177  -20.8367  -11.9507 C   0  0  0  0  0  0  0  0  0  0  0  0
   24.2892  -20.4980  -11.9133 C   0  0  2  0  0  0  0  0  0  0  0  0
   24.8153  -20.4425  -13.2948 N   0  0  0  0  0  0  0  0  0  0  0  0
   25.1125  -21.5055  -11.2233 C   0  0  0  0  0  0  0  0  0  0  0  0
   25.2842  -21.4934   -9.8233 O   0  0  0  0  0  0  0  0  0  0  0  0
   25.7196  -22.4399  -11.8010 O   0  0  0  0  0  0  0  0  0  0  0  0
  2  1  1  0
  3  2  2  0
  4  2  1  0
  5  4  1  0
  5  6  1  6
  7  5  1  0
  7  8  2  0
 10  9  1  6
 10 12  1  0
 11 10  1  0
 12 13  1  1
 13  7  1  0
 14 12  1  0
 15 14  2  0
 16 17  1  0
 17 18  2  0
 19 17  1  0
 20 19  1  0
 21 20  1  0
 23 22  1  6
 22 21  1  0
 23 24  1  0
 24 14  1  0
 25 23  1  0
 26 25  1  0
 27 25  2  0
M  END
$$$$
