RDF.pdb
     RDKit          3D

 31 31  0  0  1  0  0  0  0  0999 V2000
    9.7543  -13.7113   19.5898 N   0  0  0  0  0  0  0  0  0  0  0  0
    8.4485  -13.2464   19.2582 C   0  0  0  0  0  0  0  0  0  0  0  0
    8.0655  -12.0608   19.5935 N   0  0  0  0  0  0  0  0  0  0  0  0
    7.5944  -14.1423   18.5491 N   0  0  0  0  0  0  0  0  0  0  0  0
    7.5246  -15.5100   18.9950 C   0  0  0  0  0  0  0  0  0  0  0  0
    7.2408  -15.5560   20.4805 C   0  0  0  0  0  0  0  0  0  0  0  0
    7.1306  -16.9904   20.9739 C   0  0  0  0  0  0  0  0  0  0  0  0
    6.8326  -16.9228   22.4519 C   0  0  2  0  0  0  0  0  0  0  0  0
    6.9366  -15.5463   22.8462 N   0  0  0  0  0  0  0  0  0  0  0  0
    7.6564  -17.8363   23.2679 C   0  0  0  0  0  0  0  0  0  0  0  0
    7.6996  -19.0573   22.9694 O   0  0  0  0  0  0  0  0  0  0  0  0
    7.1202  -11.7546   19.2955 N   0  0  0  0  0  0  0  0  0  0  0  0
    8.4170  -17.4355   24.3825 C   0  0  1  0  0  0  0  0  0  0  0  0
    9.8666  -17.0986   24.2626 C   0  0  0  0  0  0  0  0  0  0  0  0
   10.0100  -16.1055   23.1369 C   0  0  0  0  0  0  0  0  0  0  0  0
   11.4209  -15.8162   22.8641 O   0  0  0  0  0  0  0  0  0  0  0  0
   11.9345  -14.6862   23.1752 C   0  0  0  0  0  0  0  0  0  0  0  0
   10.2629  -16.4551   25.5317 O   0  0  0  0  0  0  0  0  0  0  0  0
   11.4768  -16.0684   25.6308 O   0  0  0  0  0  0  0  0  0  0  0  0
   12.2859  -16.7333   22.2577 N   0  0  0  0  0  0  0  0  0  0  0  0
    9.5242  -16.1783   26.6885 C   0  0  1  0  0  0  0  0  0  0  0  0
   10.0454  -15.5233   27.8541 C   0  0  0  0  0  0  0  0  0  0  0  0
    9.2438  -14.4084   28.4083 C   0  0  0  0  0  0  0  0  0  0  0  0
    8.5795  -13.6736   27.2942 C   0  0  0  0  0  0  0  0  0  0  0  0
    7.2600  -13.9005   26.9490 C   0  0  0  0  0  0  0  0  0  0  0  0
    6.6282  -13.2401   25.9146 C   0  0  0  0  0  0  0  0  0  0  0  0
    7.3218  -12.3076   25.1770 C   0  0  0  0  0  0  0  0  0  0  0  0
    8.6289  -12.0626   25.4954 C   0  0  0  0  0  0  0  0  0  0  0  0
    9.2561  -12.7332   26.5391 C   0  0  0  0  0  0  0  0  0  0  0  0
   10.1615  -16.5773   28.9160 O   0  0  0  0  0  0  0  0  0  0  0  0
   10.6915  -16.1670   30.1380 O   0  0  0  0  0  0  0  0  0  0  0  0
  2  1  1  0
  3  2  2  0
  4  2  1  0
  5  4  1  0
  6  5  1  0
  7  6  1  0
  8  7  1  0
  8  9  1  1
 10  8  1  0
 10 11  2  0
 12 10  1  0
 13 12  1  0
 13 17  1  0
 13 14  1  6
 15 16  2  0
 15 14  1  0
 17 20  1  0
 18 17  2  0
 19 15  1  0
 20 21  1  0
 21 29  1  0
 22 23  1  0
 21 22  1  1
 23 28  2  0
 24 25  2  0
 24 23  1  0
 25 26  1  0
 26 27  2  0
 28 27  1  0
 29 31  2  0
 29 30  1  0
M  END
$$$$
