RDF.pdb
     RDKit          3D

 31 31  0  0  1  0  0  0  0  0999 V2000
    8.2621  -15.4104   16.0439 N   0  0  0  0  0  0  0  0  0  0  0  0
    8.0779  -14.0833   15.5581 C   0  0  0  0  0  0  0  0  0  0  0  0
    8.4983  -13.7456   14.3860 N   0  0  0  0  0  0  0  0  0  0  0  0
    7.4170  -13.1566   16.4180 N   0  0  0  0  0  0  0  0  0  0  0  0
    6.9149  -13.6390   17.6787 C   0  0  0  0  0  0  0  0  0  0  0  0
    8.0306  -13.6752   18.7002 C   0  0  0  0  0  0  0  0  0  0  0  0
    7.5085  -14.0844   20.0688 C   0  0  0  0  0  0  0  0  0  0  0  0
    8.6931  -14.0941   21.0038 C   0  0  2  0  0  0  0  0  0  0  0  0
    9.8655  -13.8544   20.2106 N   0  0  0  0  0  0  0  0  0  0  0  0
    8.7819  -15.3074   21.8400 C   0  0  0  0  0  0  0  0  0  0  0  0
    7.7324  -15.7878   22.3394 O   0  0  0  0  0  0  0  0  0  0  0  0
    8.3203  -12.7741   14.0687 N   0  0  0  0  0  0  0  0  0  0  0  0
    9.9814  -15.9852   22.1283 C   0  0  1  0  0  0  0  0  0  0  0  0
   10.0267  -17.1230   23.0940 C   0  0  0  0  0  0  0  0  0  0  0  0
   11.3576  -17.8111   22.9226 C   0  0  0  0  0  0  0  0  0  0  0  0
   11.4575  -18.4479   21.6061 O   0  0  0  0  0  0  0  0  0  0  0  0
   10.5715  -19.2807   21.2074 C   0  0  0  0  0  0  0  0  0  0  0  0
    9.9530  -16.5381   24.4484 O   0  0  0  0  0  0  0  0  0  0  0  0
   10.7240  -15.5492   24.6950 O   0  0  0  0  0  0  0  0  0  0  0  0
   12.5045  -18.1968   20.7129 N   0  0  0  0  0  0  0  0  0  0  0  0
    9.1620  -16.8793   25.5521 C   0  0  1  0  0  0  0  0  0  0  0  0
    9.2143  -16.2258   26.8286 C   0  0  0  0  0  0  0  0  0  0  0  0
    7.9392  -15.6889   27.3568 C   0  0  0  0  0  0  0  0  0  0  0  0
    7.6001  -14.4247   26.6434 C   0  0  0  0  0  0  0  0  0  0  0  0
    8.3236  -13.2609   26.8280 C   0  0  0  0  0  0  0  0  0  0  0  0
    8.0209  -12.0766   26.1868 C   0  0  0  0  0  0  0  0  0  0  0  0
    6.9542  -12.0252   25.3182 C   0  0  0  0  0  0  0  0  0  0  0  0
    6.2200  -13.1611   25.1162 C   0  0  0  0  0  0  0  0  0  0  0  0
    6.5332  -14.3489   25.7670 C   0  0  0  0  0  0  0  0  0  0  0  0
    9.7229  -17.2451   27.8057 O   0  0  0  0  0  0  0  0  0  0  0  0
    9.9355  -18.5283   27.3049 O   0  0  0  0  0  0  0  0  0  0  0  0
  2  1  1  0
  3  2  2  0
  4  2  1  0
  5  4  1  0
  6  5  1  0
  7  6  1  0
  8  7  1  0
  8  9  1  6
 10  8  1  0
 10 11  2  0
 12 10  1  0
 13 12  1  0
 13 17  1  0
 13 14  1  1
 15 16  2  0
 15 14  1  0
 17 20  1  0
 18 17  2  0
 19 15  1  0
 20 21  1  0
 21 29  1  0
 22 23  1  0
 21 22  1  1
 23 28  2  0
 24 25  2  0
 24 23  1  0
 25 26  1  0
 26 27  2  0
 28 27  1  0
 29 31  2  0
 29 30  1  0
M  END
$$$$
