RDF.pdb
     RDKit          3D

 31 31  0  0  1  0  0  0  0  0999 V2000
    8.6371  -15.5420   16.4178 N   0  0  0  0  0  0  0  0  0  0  0  0
    8.1320  -14.2159   16.2856 C   0  0  0  0  0  0  0  0  0  0  0  0
    7.3754  -13.8942   15.2913 N   0  0  0  0  0  0  0  0  0  0  0  0
    8.4988  -13.2718   17.2902 N   0  0  0  0  0  0  0  0  0  0  0  0
    8.6898  -13.7508   18.6350 C   0  0  0  0  0  0  0  0  0  0  0  0
    7.5872  -13.2303   19.5310 C   0  0  0  0  0  0  0  0  0  0  0  0
    7.3200  -14.1856   20.6838 C   0  0  0  0  0  0  0  0  0  0  0  0
    8.6341  -14.3874   21.3982 C   0  0  2  0  0  0  0  0  0  0  0  0
    9.6247  -14.6711   20.3985 N   0  0  0  0  0  0  0  0  0  0  0  0
    8.5771  -15.3928   22.4775 C   0  0  0  0  0  0  0  0  0  0  0  0
    7.5850  -15.4094   23.2502 O   0  0  0  0  0  0  0  0  0  0  0  0
    7.0347  -12.9158   15.2383 N   0  0  0  0  0  0  0  0  0  0  0  0
    9.5729  -16.3592   22.7138 C   0  0  1  0  0  0  0  0  0  0  0  0
    9.4457  -17.3644   23.8104 C   0  0  0  0  0  0  0  0  0  0  0  0
   10.4116  -18.4840   23.5141 C   0  0  0  0  0  0  0  0  0  0  0  0
   10.0182  -19.2153   22.3061 O   0  0  0  0  0  0  0  0  0  0  0  0
    8.7915  -19.4980   22.0766 C   0  0  0  0  0  0  0  0  0  0  0  0
    9.8530  -16.6892   25.0594 O   0  0  0  0  0  0  0  0  0  0  0  0
   10.9175  -15.9834   25.0159 O   0  0  0  0  0  0  0  0  0  0  0  0
   10.9346  -19.6468   21.3413 N   0  0  0  0  0  0  0  0  0  0  0  0
    9.2634  -16.6779   26.3293 C   0  0  1  0  0  0  0  0  0  0  0  0
    9.8352  -16.0586   27.4907 C   0  0  0  0  0  0  0  0  0  0  0  0
    8.9496  -15.1709   28.2786 C   0  0  0  0  0  0  0  0  0  0  0  0
    8.3594  -14.1365   27.3820 C   0  0  0  0  0  0  0  0  0  0  0  0
    7.2082  -14.3682   26.6521 C   0  0  0  0  0  0  0  0  0  0  0  0
    6.6505  -13.4294   25.8076 C   0  0  0  0  0  0  0  0  0  0  0  0
    7.2489  -12.1976   25.6679 C   0  0  0  0  0  0  0  0  0  0  0  0
    8.3893  -11.9403   26.3774 C   0  0  0  0  0  0  0  0  0  0  0  0
    8.9429  -12.8927   27.2252 C   0  0  0  0  0  0  0  0  0  0  0  0
   10.2831  -17.1745   28.3886 O   0  0  0  0  0  0  0  0  0  0  0  0
   11.0055  -16.8035   29.5214 O   0  0  0  0  0  0  0  0  0  0  0  0
  2  1  1  0
  3  2  2  0
  4  2  1  0
  5  4  1  0
  6  5  1  0
  7  6  1  0
  8  7  1  0
  8  9  1  6
 10  8  1  0
 10 11  2  0
 12 10  1  0
 13 12  1  0
 13 17  1  0
 13 14  1  1
 15 16  2  0
 15 14  1  0
 17 20  1  0
 18 17  2  0
 19 15  1  0
 20 21  1  0
 21 29  1  0
 22 23  1  0
 21 22  1  1
 23 28  2  0
 24 25  2  0
 24 23  1  0
 25 26  1  0
 26 27  2  0
 28 27  1  0
 29 31  2  0
 29 30  1  0
M  END
$$$$
