RDF.pdb
     RDKit          3D

 31 31  0  0  1  0  0  0  0  0999 V2000
    8.1961  -12.2099   17.8236 N   0  0  0  0  0  0  0  0  0  0  0  0
    7.9635  -13.4059   17.0843 C   0  0  0  0  0  0  0  0  0  0  0  0
    8.0286  -13.4081   15.7957 N   0  0  0  0  0  0  0  0  0  0  0  0
    7.6573  -14.5855   17.8258 N   0  0  0  0  0  0  0  0  0  0  0  0
    7.6699  -14.5061   19.2638 C   0  0  0  0  0  0  0  0  0  0  0  0
    8.3346  -15.7353   19.8440 C   0  0  0  0  0  0  0  0  0  0  0  0
    8.2652  -15.7312   21.3633 C   0  0  0  0  0  0  0  0  0  0  0  0
    8.1719  -17.1726   21.8008 C   0  0  2  0  0  0  0  0  0  0  0  0
    7.0704  -17.7631   21.0944 N   0  0  0  0  0  0  0  0  0  0  0  0
    8.0985  -17.3472   23.2647 C   0  0  0  0  0  0  0  0  0  0  0  0
    7.1438  -18.0002   23.7586 O   0  0  0  0  0  0  0  0  0  0  0  0
    8.0286  -14.3259   15.3122 N   0  0  0  0  0  0  0  0  0  0  0  0
    9.0390  -16.8263   24.1732 C   0  0  1  0  0  0  0  0  0  0  0  0
    9.1428  -17.3356   25.5729 C   0  0  0  0  0  0  0  0  0  0  0  0
    9.4573  -18.8086   25.4976 C   0  0  0  0  0  0  0  0  0  0  0  0
    9.7942  -19.3452   26.8194 O   0  0  0  0  0  0  0  0  0  0  0  0
    9.0195  -19.1640   27.8217 C   0  0  0  0  0  0  0  0  0  0  0  0
   10.2763  -16.6284   26.2028 O   0  0  0  0  0  0  0  0  0  0  0  0
   11.3238  -17.3174   26.4500 O   0  0  0  0  0  0  0  0  0  0  0  0
   10.9597  -20.0759   27.0734 N   0  0  0  0  0  0  0  0  0  0  0  0
   10.4202  -15.2908   26.5909 C   0  0  2  0  0  0  0  0  0  0  0  0
   10.2991  -14.8130   27.9386 C   0  0  0  0  0  0  0  0  0  0  0  0
    8.9282  -14.5530   28.4344 C   0  0  0  0  0  0  0  0  0  0  0  0
    8.2335  -13.6179   27.5043 C   0  0  0  0  0  0  0  0  0  0  0  0
    8.9263  -12.8194   26.6132 C   0  0  0  0  0  0  0  0  0  0  0  0
    8.3047  -11.9387   25.7510 C   0  0  0  0  0  0  0  0  0  0  0  0
    6.9323  -11.8315   25.7588 C   0  0  0  0  0  0  0  0  0  0  0  0
    6.2207  -12.6089   26.6301 C   0  0  0  0  0  0  0  0  0  0  0  0
    6.8563  -13.4927   27.4945 C   0  0  0  0  0  0  0  0  0  0  0  0
   10.9134  -15.8633   28.8171 O   0  0  0  0  0  0  0  0  0  0  0  0
   11.3921  -17.0035   28.1742 O   0  0  0  0  0  0  0  0  0  0  0  0
  2  1  1  0
  3  2  2  0
  4  2  1  0
  5  4  1  0
  6  5  1  0
  7  6  1  0
  8  7  1  0
  8  9  1  6
 10  8  1  0
 10 11  2  0
 12 10  1  0
 13 12  1  0
 13 17  1  0
 13 14  1  1
 15 16  2  0
 15 14  1  0
 17 20  1  0
 18 17  2  0
 19 15  1  0
 20 21  1  0
 21 29  1  0
 22 23  1  0
 21 22  1  6
 23 28  2  0
 24 25  2  0
 24 23  1  0
 25 26  1  0
 26 27  2  0
 28 27  1  0
 29 31  2  0
 29 30  1  0
M  END
$$$$
