RDF.pdb
     RDKit          3D

 31 31  0  0  1  0  0  0  0  0999 V2000
    8.8228  -12.3617   18.4352 N   0  0  0  0  0  0  0  0  0  0  0  0
    8.4653  -13.5106   17.6712 C   0  0  0  0  0  0  0  0  0  0  0  0
    8.9046  -13.6655   16.4680 N   0  0  0  0  0  0  0  0  0  0  0  0
    7.6083  -14.4683   18.2902 N   0  0  0  0  0  0  0  0  0  0  0  0
    7.2076  -15.6183   17.5212 C   0  0  0  0  0  0  0  0  0  0  0  0
    7.3188  -16.8692   18.3652 C   0  0  0  0  0  0  0  0  0  0  0  0
    8.7547  -17.1080   18.8059 C   0  0  0  0  0  0  0  0  0  0  0  0
    8.7090  -17.4629   20.2721 C   0  0  2  0  0  0  0  0  0  0  0  0
    7.5816  -16.7806   20.8418 N   0  0  0  0  0  0  0  0  0  0  0  0
    9.9763  -17.2107   20.9858 C   0  0  0  0  0  0  0  0  0  0  0  0
   10.9720  -17.9411   20.7471 O   0  0  0  0  0  0  0  0  0  0  0  0
    8.6448  -14.5352   15.9657 N   0  0  0  0  0  0  0  0  0  0  0  0
   10.1608  -16.1893   21.9366 C   0  0  2  0  0  0  0  0  0  0  0  0
   11.4207  -16.0742   22.7295 C   0  0  0  0  0  0  0  0  0  0  0  0
   12.0655  -14.7596   22.3686 C   0  0  0  0  0  0  0  0  0  0  0  0
   12.7883  -14.8571   21.0972 O   0  0  0  0  0  0  0  0  0  0  0  0
   13.1720  -15.9898   20.6419 C   0  0  0  0  0  0  0  0  0  0  0  0
   11.0293  -16.0486   24.1536 O   0  0  0  0  0  0  0  0  0  0  0  0
   11.9551  -15.8220   25.0049 O   0  0  0  0  0  0  0  0  0  0  0  0
   13.1034  -13.7446   20.3097 N   0  0  0  0  0  0  0  0  0  0  0  0
    9.7829  -16.2311   24.7648 C   0  0  1  0  0  0  0  0  0  0  0  0
    9.5594  -16.2293   26.1823 C   0  0  0  0  0  0  0  0  0  0  0  0
    8.1762  -15.9642   26.6400 C   0  0  0  0  0  0  0  0  0  0  0  0
    7.7193  -14.6507   26.1031 C   0  0  0  0  0  0  0  0  0  0  0  0
    8.1087  -13.4508   26.6690 C   0  0  0  0  0  0  0  0  0  0  0  0
    7.6893  -12.2239   26.1956 C   0  0  0  0  0  0  0  0  0  0  0  0
    6.8439  -12.1648   25.1108 C   0  0  0  0  0  0  0  0  0  0  0  0
    6.4418  -13.3359   24.5306 C   0  0  0  0  0  0  0  0  0  0  0  0
    6.8699  -14.5665   25.0151 C   0  0  0  0  0  0  0  0  0  0  0  0
    9.9527  -17.5912   26.6750 O   0  0  0  0  0  0  0  0  0  0  0  0
    9.8165  -18.6395   25.7667 O   0  0  0  0  0  0  0  0  0  0  0  0
  2  1  1  0
  3  2  2  0
  4  2  1  0
  5  4  1  0
  6  5  1  0
  7  6  1  0
  8  7  1  0
  8  9  1  1
 10  8  1  0
 10 11  2  0
 12 10  1  0
 13 12  1  0
 13 17  1  0
 13 14  1  6
 15 16  2  0
 15 14  1  0
 17 20  1  0
 18 17  2  0
 19 15  1  0
 20 21  1  0
 21 29  1  0
 22 23  1  0
 21 22  1  1
 23 28  2  0
 24 25  2  0
 24 23  1  0
 25 26  1  0
 26 27  2  0
 28 27  1  0
 29 31  2  0
 29 30  1  0
M  END
$$$$
