RDF.pdb
     RDKit          3D

 31 31  0  0  1  0  0  0  0  0999 V2000
    8.5384  -12.1221   17.4715 N   0  0  0  0  0  0  0  0  0  0  0  0
    7.8655  -13.3725   17.5931 C   0  0  0  0  0  0  0  0  0  0  0  0
    8.3300  -14.4302   17.0185 N   0  0  0  0  0  0  0  0  0  0  0  0
    6.6683  -13.3997   18.3683 N   0  0  0  0  0  0  0  0  0  0  0  0
    6.7604  -13.8098   19.7458 C   0  0  0  0  0  0  0  0  0  0  0  0
    6.9275  -15.3113   19.8285 C   0  0  0  0  0  0  0  0  0  0  0  0
    6.8556  -15.7929   21.2693 C   0  0  0  0  0  0  0  0  0  0  0  0
    8.0951  -15.2830   21.9633 C   0  0  2  0  0  0  0  0  0  0  0  0
    9.0821  -15.0385   20.9498 N   0  0  0  0  0  0  0  0  0  0  0  0
    8.5699  -16.1578   23.0534 C   0  0  0  0  0  0  0  0  0  0  0  0
    7.7405  -16.6109   23.8832 O   0  0  0  0  0  0  0  0  0  0  0  0
    7.8220  -15.3231   17.1634 N   0  0  0  0  0  0  0  0  0  0  0  0
    9.9135  -16.5335   23.2399 C   0  0  1  0  0  0  0  0  0  0  0  0
   10.3305  -17.4215   24.3655 C   0  0  0  0  0  0  0  0  0  0  0  0
   11.7008  -17.9582   24.0363 C   0  0  0  0  0  0  0  0  0  0  0  0
   11.6358  -18.9453   22.9546 O   0  0  0  0  0  0  0  0  0  0  0  0
   10.5113  -19.3395   22.4883 C   0  0  0  0  0  0  0  0  0  0  0  0
   10.4181  -16.5722   25.5708 O   0  0  0  0  0  0  0  0  0  0  0  0
   11.1883  -15.5543   25.5077 O   0  0  0  0  0  0  0  0  0  0  0  0
   12.7721  -19.5138   22.3693 N   0  0  0  0  0  0  0  0  0  0  0  0
    9.7864  -16.6801   26.8157 C   0  0  1  0  0  0  0  0  0  0  0  0
   10.0459  -15.8280   27.9408 C   0  0  0  0  0  0  0  0  0  0  0  0
    8.9101  -15.0222   28.4443 C   0  0  0  0  0  0  0  0  0  0  0  0
    8.4595  -14.0808   27.3799 C   0  0  0  0  0  0  0  0  0  0  0  0
    9.0647  -12.8537   27.1810 C   0  0  0  0  0  0  0  0  0  0  0  0
    8.6571  -11.9620   26.2093 C   0  0  0  0  0  0  0  0  0  0  0  0
    7.6015  -12.2854   25.3872 C   0  0  0  0  0  0  0  0  0  0  0  0
    6.9831  -13.4926   25.5611 C   0  0  0  0  0  0  0  0  0  0  0  0
    7.4013  -14.3836   26.5427 C   0  0  0  0  0  0  0  0  0  0  0  0
   10.5023  -16.7242   29.0546 O   0  0  0  0  0  0  0  0  0  0  0  0
   10.8848  -16.0937   30.2373 O   0  0  0  0  0  0  0  0  0  0  0  0
  2  1  1  0
  3  2  2  0
  4  2  1  0
  5  4  1  0
  6  5  1  0
  7  6  1  0
  8  7  1  0
  8  9  1  6
 10  8  1  0
 10 11  2  0
 12 10  1  0
 13 12  1  0
 13 17  1  0
 13 14  1  1
 15 16  2  0
 15 14  1  0
 17 20  1  0
 18 17  2  0
 19 15  1  0
 20 21  1  0
 21 29  1  0
 22 23  1  0
 21 22  1  1
 23 28  2  0
 24 25  2  0
 24 23  1  0
 25 26  1  0
 26 27  2  0
 28 27  1  0
 29 31  2  0
 29 30  1  0
M  END
$$$$
