RDF.pdb
     RDKit          3D

 31 31  0  0  1  0  0  0  0  0999 V2000
    7.7161  -11.9806   18.1869 N   0  0  0  0  0  0  0  0  0  0  0  0
    8.3497  -13.2557   18.1251 C   0  0  0  0  0  0  0  0  0  0  0  0
    8.6726  -13.7776   16.9902 N   0  0  0  0  0  0  0  0  0  0  0  0
    8.6053  -13.9209   19.3609 N   0  0  0  0  0  0  0  0  0  0  0  0
    8.0066  -13.3860   20.5566 C   0  0  0  0  0  0  0  0  0  0  0  0
    6.8911  -14.2935   21.0271 C   0  0  0  0  0  0  0  0  0  0  0  0
    7.2158  -14.9055   22.3811 C   0  0  0  0  0  0  0  0  0  0  0  0
    7.5198  -16.3640   22.1403 C   0  0  2  0  0  0  0  0  0  0  0  0
    6.2651  -17.0372   21.9564 N   0  0  0  0  0  0  0  0  0  0  0  0
    8.3724  -16.9743   23.1793 C   0  0  0  0  0  0  0  0  0  0  0  0
    7.8333  -17.6065   24.1235 O   0  0  0  0  0  0  0  0  0  0  0  0
    9.0538  -14.7424   16.9915 N   0  0  0  0  0  0  0  0  0  0  0  0
    9.7780  -16.9014   23.1947 C   0  0  2  0  0  0  0  0  0  0  0  0
   10.5816  -17.4884   24.3078 C   0  0  0  0  0  0  0  0  0  0  0  0
   11.9980  -17.6415   23.8131 C   0  0  0  0  0  0  0  0  0  0  0  0
   12.8361  -18.3139   24.8102 O   0  0  0  0  0  0  0  0  0  0  0  0
   12.3646  -19.2495   25.5450 C   0  0  0  0  0  0  0  0  0  0  0  0
   10.5567  -16.5112   25.4152 O   0  0  0  0  0  0  0  0  0  0  0  0
   10.9972  -15.3384   25.1630 O   0  0  0  0  0  0  0  0  0  0  0  0
   14.1795  -17.9878   25.0248 N   0  0  0  0  0  0  0  0  0  0  0  0
   10.1202  -16.6381   26.7395 C   0  0  1  0  0  0  0  0  0  0  0  0
   10.2994  -15.6433   27.7582 C   0  0  0  0  0  0  0  0  0  0  0  0
    9.0716  -15.0525   28.3381 C   0  0  0  0  0  0  0  0  0  0  0  0
    8.3800  -14.2315   27.3037 C   0  0  0  0  0  0  0  0  0  0  0  0
    8.6505  -12.8865   27.1325 C   0  0  0  0  0  0  0  0  0  0  0  0
    8.0146  -12.1048   26.1891 C   0  0  0  0  0  0  0  0  0  0  0  0
    7.0629  -12.6664   25.3682 C   0  0  0  0  0  0  0  0  0  0  0  0
    6.7743  -13.9949   25.5151 C   0  0  0  0  0  0  0  0  0  0  0  0
    7.4204  -14.7735   26.4684 C   0  0  0  0  0  0  0  0  0  0  0  0
   11.0584  -16.3072   28.8696 O   0  0  0  0  0  0  0  0  0  0  0  0
   11.3895  -17.6473   28.6768 O   0  0  0  0  0  0  0  0  0  0  0  0
  2  1  1  0
  3  2  2  0
  4  2  1  0
  5  4  1  0
  6  5  1  0
  7  6  1  0
  8  7  1  0
  8  9  1  1
 10  8  1  0
 10 11  2  0
 12 10  1  0
 13 12  1  0
 13 17  1  0
 13 14  1  6
 15 16  2  0
 15 14  1  0
 17 20  1  0
 18 17  2  0
 19 15  1  0
 20 21  1  0
 21 29  1  0
 22 23  1  0
 21 22  1  1
 23 28  2  0
 24 25  2  0
 24 23  1  0
 25 26  1  0
 26 27  2  0
 28 27  1  0
 29 31  2  0
 29 30  1  0
M  END
$$$$
