RDF.pdb
     RDKit          3D

 31 31  0  0  1  0  0  0  0  0999 V2000
    5.9789  -19.4676   15.2512 N   0  0  0  0  0  0  0  0  0  0  0  0
    6.9873  -19.9895   16.1127 C   0  0  0  0  0  0  0  0  0  0  0  0
    8.1281  -20.3649   15.6412 N   0  0  0  0  0  0  0  0  0  0  0  0
    6.6798  -20.0782   17.5028 N   0  0  0  0  0  0  0  0  0  0  0  0
    5.5204  -19.3749   17.9881 C   0  0  0  0  0  0  0  0  0  0  0  0
    5.9472  -18.2069   18.8501 C   0  0  0  0  0  0  0  0  0  0  0  0
    6.2987  -18.6633   20.2576 C   0  0  0  0  0  0  0  0  0  0  0  0
    6.6097  -17.4205   21.0555 C   0  0  2  0  0  0  0  0  0  0  0  0
    6.6135  -16.3148   20.1399 N   0  0  0  0  0  0  0  0  0  0  0  0
    7.8406  -17.5241   21.8638 C   0  0  0  0  0  0  0  0  0  0  0  0
    7.9369  -18.4382   22.7223 O   0  0  0  0  0  0  0  0  0  0  0  0
    8.8148  -20.7738   16.3026 N   0  0  0  0  0  0  0  0  0  0  0  0
    8.9427  -16.6568   21.7442 C   0  0  1  0  0  0  0  0  0  0  0  0
   10.1162  -16.7485   22.6628 C   0  0  0  0  0  0  0  0  0  0  0  0
   11.2383  -15.9514   22.0465 C   0  0  0  0  0  0  0  0  0  0  0  0
   11.9545  -16.7391   21.0389 O   0  0  0  0  0  0  0  0  0  0  0  0
   11.8007  -18.0071   20.9615 C   0  0  0  0  0  0  0  0  0  0  0  0
    9.7136  -16.1166   23.9358 O   0  0  0  0  0  0  0  0  0  0  0  0
    9.1697  -14.9626   23.8632 O   0  0  0  0  0  0  0  0  0  0  0  0
   12.8369  -16.1738   20.1122 N   0  0  0  0  0  0  0  0  0  0  0  0
    9.8202  -16.5682   25.2568 C   0  0  1  0  0  0  0  0  0  0  0  0
    9.2186  -15.9270   26.3910 C   0  0  0  0  0  0  0  0  0  0  0  0
    7.7529  -15.7216   26.3425 C   0  0  0  0  0  0  0  0  0  0  0  0
    7.4601  -14.2648   26.2234 C   0  0  0  0  0  0  0  0  0  0  0  0
    7.9750  -13.3376   27.1105 C   0  0  0  0  0  0  0  0  0  0  0  0
    7.7082  -11.9859   27.0261 C   0  0  0  0  0  0  0  0  0  0  0  0
    6.8947  -11.5134   26.0212 C   0  0  0  0  0  0  0  0  0  0  0  0
    6.3706  -12.4076   25.1292 C   0  0  0  0  0  0  0  0  0  0  0  0
    6.6454  -13.7670   25.2230 C   0  0  0  0  0  0  0  0  0  0  0  0
    9.5215  -16.7943   27.5778 O   0  0  0  0  0  0  0  0  0  0  0  0
   10.0973  -18.0340   27.3058 O   0  0  0  0  0  0  0  0  0  0  0  0
  2  1  1  0
  3  2  2  0
  4  2  1  0
  5  4  1  0
  6  5  1  0
  7  6  1  0
  8  7  1  0
  8  9  1  6
 10  8  1  0
 10 11  2  0
 12 10  1  0
 13 12  1  0
 13 17  1  0
 13 14  1  1
 15 16  2  0
 15 14  1  0
 17 20  1  0
 18 17  2  0
 19 15  1  0
 20 21  1  0
 21 29  1  0
 22 23  1  0
 21 22  1  1
 23 28  2  0
 24 25  2  0
 24 23  1  0
 25 26  1  0
 26 27  2  0
 28 27  1  0
 29 31  2  0
 29 30  1  0
M  END
$$$$
