RDF.pdb
     RDKit          3D

 31 31  0  0  1  0  0  0  0  0999 V2000
    7.3194  -12.4703   18.1591 N   0  0  0  0  0  0  0  0  0  0  0  0
    8.4978  -13.1593   18.5687 C   0  0  0  0  0  0  0  0  0  0  0  0
    9.5979  -12.5183   18.7775 N   0  0  0  0  0  0  0  0  0  0  0  0
    8.4063  -14.5734   18.7331 N   0  0  0  0  0  0  0  0  0  0  0  0
    7.1112  -15.1899   18.6028 C   0  0  0  0  0  0  0  0  0  0  0  0
    6.4014  -15.1897   19.9390 C   0  0  0  0  0  0  0  0  0  0  0  0
    7.0224  -16.2010   20.8902 C   0  0  0  0  0  0  0  0  0  0  0  0
    7.6191  -15.4170   22.0335 C   0  0  2  0  0  0  0  0  0  0  0  0
    8.4301  -14.3791   21.4624 N   0  0  0  0  0  0  0  0  0  0  0  0
    8.3335  -16.2517   23.0194 C   0  0  0  0  0  0  0  0  0  0  0  0
    7.6840  -17.0768   23.7116 O   0  0  0  0  0  0  0  0  0  0  0  0
   10.4329  -13.0669   19.0564 N   0  0  0  0  0  0  0  0  0  0  0  0
    9.7209  -16.1940   23.2497 C   0  0  1  0  0  0  0  0  0  0  0  0
   10.3882  -17.0838   24.2457 C   0  0  0  0  0  0  0  0  0  0  0  0
   11.7843  -17.3580   23.7457 C   0  0  0  0  0  0  0  0  0  0  0  0
   12.4975  -18.2708   24.6439 O   0  0  0  0  0  0  0  0  0  0  0  0
   13.7014  -18.0324   25.0064 C   0  0  0  0  0  0  0  0  0  0  0  0
   10.4656  -16.3268   25.5118 O   0  0  0  0  0  0  0  0  0  0  0  0
   11.0659  -15.1992   25.4768 O   0  0  0  0  0  0  0  0  0  0  0  0
   11.9263  -19.4406   25.1562 N   0  0  0  0  0  0  0  0  0  0  0  0
    9.9815  -16.6281   26.7906 C   0  0  2  0  0  0  0  0  0  0  0  0
   10.3047  -15.8945   27.9808 C   0  0  0  0  0  0  0  0  0  0  0  0
    9.1782  -15.2531   28.6966 C   0  0  0  0  0  0  0  0  0  0  0  0
    8.4682  -14.3236   27.7724 C   0  0  0  0  0  0  0  0  0  0  0  0
    8.8311  -12.9955   27.6454 C   0  0  0  0  0  0  0  0  0  0  0  0
    8.1811  -12.1146   26.8046 C   0  0  0  0  0  0  0  0  0  0  0  0
    7.1194  -12.5537   26.0466 C   0  0  0  0  0  0  0  0  0  0  0  0
    6.7377  -13.8625   26.1519 C   0  0  0  0  0  0  0  0  0  0  0  0
    7.3989  -14.7417   27.0017 C   0  0  0  0  0  0  0  0  0  0  0  0
   10.9478  -16.8727   28.9198 O   0  0  0  0  0  0  0  0  0  0  0  0
   11.4008  -16.3577   30.1331 O   0  0  0  0  0  0  0  0  0  0  0  0
  2  1  1  0
  3  2  2  0
  4  2  1  0
  5  4  1  0
  6  5  1  0
  7  6  1  0
  8  7  1  0
  8  9  1  6
 10  8  1  0
 10 11  2  0
 12 10  1  0
 13 12  1  0
 13 17  1  0
 13 14  1  6
 15 16  2  0
 15 14  1  0
 17 20  1  0
 18 17  2  0
 19 15  1  0
 20 21  1  0
 21 29  1  0
 22 23  1  0
 21 22  1  6
 23 28  2  0
 24 25  2  0
 24 23  1  0
 25 26  1  0
 26 27  2  0
 28 27  1  0
 29 31  2  0
 29 30  1  0
M  END
$$$$
