RDF.pdb
     RDKit          3D

 31 31  0  0  1  0  0  0  0  0999 V2000
    9.0786  -16.2303   15.4163 N   0  0  0  0  0  0  0  0  0  0  0  0
    8.5222  -14.9196   15.3532 C   0  0  0  0  0  0  0  0  0  0  0  0
    8.7373  -14.1602   14.3326 N   0  0  0  0  0  0  0  0  0  0  0  0
    7.7280  -14.4910   16.4579 N   0  0  0  0  0  0  0  0  0  0  0  0
    8.3429  -13.6463   17.4492 C   0  0  0  0  0  0  0  0  0  0  0  0
    7.3022  -13.1659   18.4369 C   0  0  0  0  0  0  0  0  0  0  0  0
    6.9848  -14.2404   19.4655 C   0  0  0  0  0  0  0  0  0  0  0  0
    7.8325  -13.9478   20.6794 C   0  0  2  0  0  0  0  0  0  0  0  0
    9.0083  -13.2614   20.2240 N   0  0  0  0  0  0  0  0  0  0  0  0
    8.1233  -15.1375   21.5036 C   0  0  0  0  0  0  0  0  0  0  0  0
    7.1686  -15.8187   21.9578 O   0  0  0  0  0  0  0  0  0  0  0  0
    8.3958  -13.1816   14.3763 N   0  0  0  0  0  0  0  0  0  0  0  0
    9.4198  -15.5793   21.8280 C   0  0  1  0  0  0  0  0  0  0  0  0
    9.6473  -16.7639   22.7079 C   0  0  0  0  0  0  0  0  0  0  0  0
   11.0039  -17.3279   22.3677 C   0  0  0  0  0  0  0  0  0  0  0  0
   11.2761  -18.5478   23.1335 O   0  0  0  0  0  0  0  0  0  0  0  0
   12.4737  -18.8857   23.4318 C   0  0  0  0  0  0  0  0  0  0  0  0
    9.6627  -16.2672   24.0990 O   0  0  0  0  0  0  0  0  0  0  0  0
   10.5199  -15.3625   24.3817 O   0  0  0  0  0  0  0  0  0  0  0  0
   10.2694  -19.4097   23.5817 N   0  0  0  0  0  0  0  0  0  0  0  0
    8.8792  -16.6168   25.2055 C   0  0  2  0  0  0  0  0  0  0  0  0
    9.0540  -16.0918   26.5295 C   0  0  0  0  0  0  0  0  0  0  0  0
    7.8453  -15.5657   27.2043 C   0  0  0  0  0  0  0  0  0  0  0  0
    7.4877  -14.2418   26.6199 C   0  0  0  0  0  0  0  0  0  0  0  0
    8.2746  -13.1204   26.8063 C   0  0  0  0  0  0  0  0  0  0  0  0
    7.9572  -11.8826   26.2841 C   0  0  0  0  0  0  0  0  0  0  0  0
    6.8095  -11.7312   25.5395 C   0  0  0  0  0  0  0  0  0  0  0  0
    6.0112  -12.8232   25.3388 C   0  0  0  0  0  0  0  0  0  0  0  0
    6.3398  -14.0654   25.8692 C   0  0  0  0  0  0  0  0  0  0  0  0
    9.5922  -17.2172   27.3638 O   0  0  0  0  0  0  0  0  0  0  0  0
    9.9890  -16.8906   28.6593 O   0  0  0  0  0  0  0  0  0  0  0  0
  2  1  1  0
  3  2  2  0
  4  2  1  0
  5  4  1  0
  6  5  1  0
  7  6  1  0
  8  7  1  0
  8  9  1  6
 10  8  1  0
 10 11  2  0
 12 10  1  0
 13 12  1  0
 13 17  1  0
 13 14  1  6
 15 16  2  0
 15 14  1  0
 17 20  1  0
 18 17  2  0
 19 15  1  0
 20 21  1  0
 21 29  1  0
 22 23  1  0
 21 22  1  6
 23 28  2  0
 24 25  2  0
 24 23  1  0
 25 26  1  0
 26 27  2  0
 28 27  1  0
 29 31  2  0
 29 30  1  0
M  END
$$$$
