RDF.pdb
     RDKit          3D

 31 31  0  0  1  0  0  0  0  0999 V2000
    7.9805  -12.9746   16.4977 N   0  0  0  0  0  0  0  0  0  0  0  0
    7.3440  -14.0015   17.2538 C   0  0  0  0  0  0  0  0  0  0  0  0
    6.2437  -13.7694   17.8862 N   0  0  0  0  0  0  0  0  0  0  0  0
    7.9733  -15.2815   17.2802 N   0  0  0  0  0  0  0  0  0  0  0  0
    7.3070  -16.3516   17.9768 C   0  0  0  0  0  0  0  0  0  0  0  0
    7.2932  -16.0713   19.4637 C   0  0  0  0  0  0  0  0  0  0  0  0
    6.6459  -17.2136   20.2314 C   0  0  0  0  0  0  0  0  0  0  0  0
    6.7953  -16.8943   21.6989 C   0  0  2  0  0  0  0  0  0  0  0  0
    6.2932  -15.5644   21.9000 N   0  0  0  0  0  0  0  0  0  0  0  0
    8.1632  -17.0952   22.2160 C   0  0  0  0  0  0  0  0  0  0  0  0
    8.6751  -18.2431   22.1702 O   0  0  0  0  0  0  0  0  0  0  0  0
    5.8359  -14.5402   18.4481 N   0  0  0  0  0  0  0  0  0  0  0  0
    8.9590  -16.0748   22.7699 C   0  0  2  0  0  0  0  0  0  0  0  0
   10.2886  -16.3637   23.3848 C   0  0  0  0  0  0  0  0  0  0  0  0
   11.2919  -15.4297   22.7561 C   0  0  0  0  0  0  0  0  0  0  0  0
   11.9796  -16.0719   21.6321 O   0  0  0  0  0  0  0  0  0  0  0  0
   11.7663  -17.3002   21.3434 C   0  0  0  0  0  0  0  0  0  0  0  0
   10.1711  -16.0530   24.8241 O   0  0  0  0  0  0  0  0  0  0  0  0
   10.7004  -14.9616   25.2263 O   0  0  0  0  0  0  0  0  0  0  0  0
   12.8971  -15.4034   20.8146 N   0  0  0  0  0  0  0  0  0  0  0  0
    9.5611  -16.7601   25.8673 C   0  0  1  0  0  0  0  0  0  0  0  0
    9.6766  -16.4265   27.2582 C   0  0  0  0  0  0  0  0  0  0  0  0
    8.4929  -15.8074   27.8971 C   0  0  0  0  0  0  0  0  0  0  0  0
    8.2313  -14.4785   27.2742 C   0  0  0  0  0  0  0  0  0  0  0  0
    7.2928  -14.3091   26.2732 C   0  0  0  0  0  0  0  0  0  0  0  0
    7.0421  -13.0907   25.6747 C   0  0  0  0  0  0  0  0  0  0  0  0
    7.7455  -11.9773   26.0749 C   0  0  0  0  0  0  0  0  0  0  0  0
    8.6808  -12.1149   27.0630 C   0  0  0  0  0  0  0  0  0  0  0  0
    8.9258  -13.3464   27.6593 C   0  0  0  0  0  0  0  0  0  0  0  0
    9.9684  -17.7102   27.9788 O   0  0  0  0  0  0  0  0  0  0  0  0
   10.1915  -17.6111   29.3511 O   0  0  0  0  0  0  0  0  0  0  0  0
  2  1  1  0
  3  2  2  0
  4  2  1  0
  5  4  1  0
  6  5  1  0
  7  6  1  0
  8  7  1  0
  8  9  1  6
 10  8  1  0
 10 11  2  0
 12 10  1  0
 13 12  1  0
 13 17  1  0
 13 14  1  6
 15 16  2  0
 15 14  1  0
 17 20  1  0
 18 17  2  0
 19 15  1  0
 20 21  1  0
 21 29  1  0
 22 23  1  0
 21 22  1  1
 23 28  2  0
 24 25  2  0
 24 23  1  0
 25 26  1  0
 26 27  2  0
 28 27  1  0
 29 31  2  0
 29 30  1  0
M  END
$$$$
