RDF.pdb
     RDKit          3D

 31 31  0  0  1  0  0  0  0  0999 V2000
    8.8287  -14.7326   16.0272 N   0  0  0  0  0  0  0  0  0  0  0  0
    8.2919  -13.7289   16.8849 C   0  0  0  0  0  0  0  0  0  0  0  0
    7.3392  -12.9577   16.4822 N   0  0  0  0  0  0  0  0  0  0  0  0
    8.8512  -13.6167   18.1924 N   0  0  0  0  0  0  0  0  0  0  0  0
    7.9597  -13.3507   19.2918 C   0  0  0  0  0  0  0  0  0  0  0  0
    6.9421  -14.4638   19.4137 C   0  0  0  0  0  0  0  0  0  0  0  0
    7.0286  -15.1399   20.7732 C   0  0  0  0  0  0  0  0  0  0  0  0
    8.4812  -15.1158   21.1820 C   0  0  2  0  0  0  0  0  0  0  0  0
    9.2524  -14.8404   20.0028 N   0  0  0  0  0  0  0  0  0  0  0  0
    8.9168  -16.3270   21.9048 C   0  0  0  0  0  0  0  0  0  0  0  0
    8.1609  -16.8278   22.7763 O   0  0  0  0  0  0  0  0  0  0  0  0
    6.8652  -12.3639   17.1885 N   0  0  0  0  0  0  0  0  0  0  0  0
   10.1441  -16.9812   21.6877 C   0  0  1  0  0  0  0  0  0  0  0  0
   10.5129  -18.2230   22.4301 C   0  0  0  0  0  0  0  0  0  0  0  0
   11.4624  -19.0071   21.5595 C   0  0  0  0  0  0  0  0  0  0  0  0
   10.7462  -20.0118   20.7681 O   0  0  0  0  0  0  0  0  0  0  0  0
    9.4836  -20.1755   20.8971 C   0  0  0  0  0  0  0  0  0  0  0  0
   11.2181  -17.7954   23.6556 O   0  0  0  0  0  0  0  0  0  0  0  0
   11.4556  -18.6954   24.5312 O   0  0  0  0  0  0  0  0  0  0  0  0
   11.3774  -20.8440   19.8376 N   0  0  0  0  0  0  0  0  0  0  0  0
   11.6943  -16.5384   24.0476 C   0  0  2  0  0  0  0  0  0  0  0  0
   11.4792  -15.9487   25.3380 C   0  0  0  0  0  0  0  0  0  0  0  0
   10.0736  -15.7025   25.7339 C   0  0  0  0  0  0  0  0  0  0  0  0
   10.0369  -15.1637   27.1234 C   0  0  0  0  0  0  0  0  0  0  0  0
   10.1681  -15.9806   28.2311 C   0  0  0  0  0  0  0  0  0  0  0  0
   10.1260  -15.5052   29.5263 C   0  0  0  0  0  0  0  0  0  0  0  0
    9.9461  -14.1594   29.7527 C   0  0  0  0  0  0  0  0  0  0  0  0
    9.8129  -13.3272   28.6759 C   0  0  0  0  0  0  0  0  0  0  0  0
    9.8567  -13.8160   27.3753 C   0  0  0  0  0  0  0  0  0  0  0  0
   12.0799  -16.8909   26.3398 O   0  0  0  0  0  0  0  0  0  0  0  0
   11.5696  -18.1878   26.3510 O   0  0  0  0  0  0  0  0  0  0  0  0
  2  1  1  0
  3  2  2  0
  4  2  1  0
  5  4  1  0
  6  5  1  0
  7  6  1  0
  8  7  1  0
  8  9  1  6
 10  8  1  0
 10 11  2  0
 12 10  1  0
 13 12  1  0
 13 17  1  0
 13 14  1  1
 15 16  2  0
 15 14  1  0
 17 20  1  0
 18 17  2  0
 19 15  1  0
 20 21  1  0
 21 29  1  0
 22 23  1  0
 21 22  1  6
 23 28  2  0
 24 25  2  0
 24 23  1  0
 25 26  1  0
 26 27  2  0
 28 27  1  0
 29 31  2  0
 29 30  1  0
M  END
$$$$
