ANP.pdb
     RDKit          3D

 21 21  0  0  1  0  0  0  0  0999 V2000
    8.7033  -12.5371   19.9075 C   0  0  0  0  0  0  0  0  0  0  0  0
    8.3023  -14.0074   19.8622 C   0  0  2  0  0  0  0  0  0  0  0  0
    7.4583  -14.2733   18.7231 N   0  0  0  0  0  0  0  0  0  0  0  0
    7.5787  -14.3404   21.1290 C   0  0  0  0  0  0  0  0  0  0  0  0
    6.3841  -13.9874   21.2969 O   0  0  0  0  0  0  0  0  0  0  0  0
    6.9883  -17.9768   21.5989 N   0  0  0  0  0  0  0  0  0  0  0  0
    6.5222  -17.3735   22.8053 C   0  0  0  0  0  0  0  0  0  0  0  0
    5.2962  -17.3848   23.1306 O   0  0  0  0  0  0  0  0  0  0  0  0
    7.4644  -16.7118   23.7200 C   0  0  0  0  0  0  0  0  0  0  0  0
    7.5704  -15.2164   23.4346 C   0  0  2  0  0  0  0  0  0  0  0  0
    8.2112  -15.0608   22.1763 N   0  0  0  0  0  0  0  0  0  0  0  0
    8.1779  -14.5512   24.5838 C   0  0  0  0  0  0  0  0  0  0  0  0
    9.4594  -14.4520   24.4926 O   0  0  0  0  0  0  0  0  0  0  0  0
    7.5599  -14.0285   25.7292 N   0  0  0  0  0  0  0  0  0  0  0  0
    6.2052  -13.9583   26.2097 C   0  0  0  0  0  0  0  0  0  0  0  0
    6.0999  -12.4353   26.3887 C   0  0  0  0  0  0  0  0  0  0  0  0
    7.3595  -12.2108   27.2374 C   0  0  0  0  0  0  0  0  0  0  0  0
    8.2774  -13.3620   26.8341 C   0  0  1  0  0  0  0  0  0  0  0  0
    8.5335  -14.3028   27.9255 C   0  0  0  0  0  0  0  0  0  0  0  0
    9.2309  -13.9948   28.9168 O   0  0  0  0  0  0  0  0  0  0  0  0
    7.9917  -15.5714   27.8640 O   0  0  0  0  0  0  0  0  0  0  0  0
  2  4  1  0
  2  1  1  1
  3  2  1  0
  4  5  2  0
  7  6  1  0
  8  7  2  0
  9  7  1  0
 10  9  1  1
 11 10  1  0
 11  4  1  0
 12 14  1  0
 12 10  1  0
 13 12  2  0
 14 18  1  0
 15 16  1  0
 15 14  1  0
 16 17  1  0
 17 18  1  0
 18 19  1  1
 19 20  2  0
 19 21  1  0
M  END
$$$$
