ANP.pdb
     RDKit          3D

 21 21  0  0  1  0  0  0  0  0999 V2000
   11.1744  -18.3239   22.5761 C   0  0  0  0  0  0  0  0  0  0  0  0
   11.1616  -17.1649   21.5856 C   0  0  2  0  0  0  0  0  0  0  0  0
   12.5039  -16.8126   21.1919 N   0  0  0  0  0  0  0  0  0  0  0  0
   10.4908  -15.9949   22.2338 C   0  0  0  0  0  0  0  0  0  0  0  0
   11.1176  -15.2617   23.0395 O   0  0  0  0  0  0  0  0  0  0  0  0
    8.5046  -13.3137   20.3571 N   0  0  0  0  0  0  0  0  0  0  0  0
    7.2318  -13.7888   20.7943 C   0  0  0  0  0  0  0  0  0  0  0  0
    6.1871  -13.6553   20.0874 O   0  0  0  0  0  0  0  0  0  0  0  0
    7.0932  -14.4572   22.0968 C   0  0  0  0  0  0  0  0  0  0  0  0
    8.4501  -14.7086   22.7483 C   0  0  2  0  0  0  0  0  0  0  0  0
    9.1341  -15.6751   21.9634 N   0  0  0  0  0  0  0  0  0  0  0  0
    8.2536  -15.0104   24.1633 C   0  0  0  0  0  0  0  0  0  0  0  0
    8.8350  -16.0989   24.5345 O   0  0  0  0  0  0  0  0  0  0  0  0
    7.5370  -14.2880   25.1286 N   0  0  0  0  0  0  0  0  0  0  0  0
    6.6734  -13.1372   25.1016 C   0  0  0  0  0  0  0  0  0  0  0  0
    7.4299  -12.2543   26.1070 C   0  0  0  0  0  0  0  0  0  0  0  0
    7.5418  -13.2580   27.2634 C   0  0  0  0  0  0  0  0  0  0  0  0
    7.5110  -14.6164   26.5677 C   0  0  1  0  0  0  0  0  0  0  0  0
    6.3222  -15.4042   26.8963 C   0  0  0  0  0  0  0  0  0  0  0  0
    5.3187  -15.4330   26.1507 O   0  0  0  0  0  0  0  0  0  0  0  0
    6.3018  -16.1397   28.0647 O   0  0  0  0  0  0  0  0  0  0  0  0
  2  4  1  0
  2  1  1  1
  3  2  1  0
  4  5  2  0
  7  6  1  0
  8  7  2  0
  9  7  1  0
 10  9  1  6
 11 10  1  0
 11  4  1  0
 12 14  1  0
 12 10  1  0
 13 12  2  0
 14 18  1  0
 15 16  1  0
 15 14  1  0
 16 17  1  0
 17 18  1  0
 18 19  1  6
 19 20  2  0
 19 21  1  0
M  END
$$$$
