ANP.pdb
     RDKit          3D

 21 21  0  0  1  0  0  0  0  0999 V2000
    8.1507  -12.6660   19.8257 C   0  0  0  0  0  0  0  0  0  0  0  0
    8.1584  -14.1861   19.9428 C   0  0  2  0  0  0  0  0  0  0  0  0
    7.4097  -14.7867   18.8660 N   0  0  0  0  0  0  0  0  0  0  0  0
    7.5584  -14.5630   21.2607 C   0  0  0  0  0  0  0  0  0  0  0  0
    6.3189  -14.4755   21.4496 O   0  0  0  0  0  0  0  0  0  0  0  0
    5.4153  -17.5596   23.7648 N   0  0  0  0  0  0  0  0  0  0  0  0
    6.7027  -17.4011   23.1694 C   0  0  0  0  0  0  0  0  0  0  0  0
    6.9598  -17.8301   22.0037 O   0  0  0  0  0  0  0  0  0  0  0  0
    7.7842  -16.7252   23.9015 C   0  0  0  0  0  0  0  0  0  0  0  0
    7.7996  -15.2245   23.6246 C   0  0  2  0  0  0  0  0  0  0  0  0
    8.3619  -15.0287   22.3347 N   0  0  0  0  0  0  0  0  0  0  0  0
    8.4352  -14.5372   24.7451 C   0  0  0  0  0  0  0  0  0  0  0  0
    9.7157  -14.4533   24.6274 O   0  0  0  0  0  0  0  0  0  0  0  0
    7.8442  -13.9798   25.8885 N   0  0  0  0  0  0  0  0  0  0  0  0
    6.4956  -13.8495   26.3735 C   0  0  0  0  0  0  0  0  0  0  0  0
    6.4542  -12.3221   26.5401 C   0  0  0  0  0  0  0  0  0  0  0  0
    7.7256  -12.1430   27.3820 C   0  0  0  0  0  0  0  0  0  0  0  0
    8.5933  -13.3345   26.9849 C   0  0  1  0  0  0  0  0  0  0  0  0
    8.8148  -14.2762   28.0832 C   0  0  0  0  0  0  0  0  0  0  0  0
    9.5073  -13.9798   29.0814 O   0  0  0  0  0  0  0  0  0  0  0  0
    8.2446  -15.5321   28.0206 O   0  0  0  0  0  0  0  0  0  0  0  0
  2  4  1  0
  2  1  1  6
  3  2  1  0
  4  5  2  0
  7  6  1  0
  8  7  2  0
  9  7  1  0
 10  9  1  1
 11 10  1  0
 11  4  1  0
 12 14  1  0
 12 10  1  0
 13 12  2  0
 14 18  1  0
 15 16  1  0
 15 14  1  0
 16 17  1  0
 17 18  1  0
 18 19  1  1
 19 20  2  0
 19 21  1  0
M  END
$$$$
