ANP.pdb
     RDKit          3D

 21 21  0  0  1  0  0  0  0  0999 V2000
    8.3213  -12.5231   19.5741 C   0  0  0  0  0  0  0  0  0  0  0  0
    8.2499  -14.0425   19.6790 C   0  0  2  0  0  0  0  0  0  0  0  0
    7.5139  -14.5986   18.5701 N   0  0  0  0  0  0  0  0  0  0  0  0
    7.5825  -14.3975   20.9704 C   0  0  0  0  0  0  0  0  0  0  0  0
    6.3291  -14.4332   21.0560 O   0  0  0  0  0  0  0  0  0  0  0  0
    7.6280  -18.0721   25.4106 N   0  0  0  0  0  0  0  0  0  0  0  0
    6.9946  -17.0279   24.6720 C   0  0  0  0  0  0  0  0  0  0  0  0
    5.9346  -16.4645   25.0818 O   0  0  0  0  0  0  0  0  0  0  0  0
    7.5617  -16.5683   23.3955 C   0  0  0  0  0  0  0  0  0  0  0  0
    7.6820  -15.0477   23.3476 C   0  0  2  0  0  0  0  0  0  0  0  0
    8.3360  -14.7038   22.1342 N   0  0  0  0  0  0  0  0  0  0  0  0
    8.2835  -14.5752   24.5914 C   0  0  0  0  0  0  0  0  0  0  0  0
    9.5621  -14.7318   24.6272 O   0  0  0  0  0  0  0  0  0  0  0  0
    7.6627  -13.9953   25.7074 N   0  0  0  0  0  0  0  0  0  0  0  0
    6.2993  -13.8131   26.1304 C   0  0  0  0  0  0  0  0  0  0  0  0
    6.3091  -12.2851   26.2973 C   0  0  0  0  0  0  0  0  0  0  0  0
    7.5466  -12.1550   27.1967 C   0  0  0  0  0  0  0  0  0  0  0  0
    8.3851  -13.3791   26.8379 C   0  0  1  0  0  0  0  0  0  0  0  0
    8.5197  -14.3283   27.9438 C   0  0  0  0  0  0  0  0  0  0  0  0
    9.1683  -14.0547   28.9774 O   0  0  0  0  0  0  0  0  0  0  0  0
    7.9147  -15.5658   27.8483 O   0  0  0  0  0  0  0  0  0  0  0  0
  2  4  1  0
  2  1  1  6
  3  2  1  0
  4  5  2  0
  7  6  1  0
  8  7  2  0
  9  7  1  0
 10  9  1  1
 11 10  1  0
 11  4  1  0
 12 14  1  0
 12 10  1  0
 13 12  2  0
 14 18  1  0
 15 16  1  0
 15 14  1  0
 16 17  1  0
 17 18  1  0
 18 19  1  1
 19 20  2  0
 19 21  1  0
M  END
$$$$
