ANP.pdb
     RDKit          3D

 21 21  0  0  1  0  0  0  0  0999 V2000
    8.4490  -12.4996   19.6632 C   0  0  0  0  0  0  0  0  0  0  0  0
    8.3100  -14.0122   19.7951 C   0  0  2  0  0  0  0  0  0  0  0  0
    7.5271  -14.5513   18.7101 N   0  0  0  0  0  0  0  0  0  0  0  0
    7.6531  -14.3153   21.1050 C   0  0  0  0  0  0  0  0  0  0  0  0
    6.4260  -14.1007   21.2719 O   0  0  0  0  0  0  0  0  0  0  0  0
    7.4575  -18.0105   21.5929 N   0  0  0  0  0  0  0  0  0  0  0  0
    6.8915  -17.3128   22.7019 C   0  0  0  0  0  0  0  0  0  0  0  0
    5.6390  -17.2679   22.8974 O   0  0  0  0  0  0  0  0  0  0  0  0
    7.7575  -16.6157   23.6644 C   0  0  0  0  0  0  0  0  0  0  0  0
    7.7494  -15.1064   23.4392 C   0  0  2  0  0  0  0  0  0  0  0  0
    8.3872  -14.8515   22.1956 N   0  0  0  0  0  0  0  0  0  0  0  0
    8.2931  -14.4427   24.6207 C   0  0  0  0  0  0  0  0  0  0  0  0
    9.5676  -14.2622   24.5588 O   0  0  0  0  0  0  0  0  0  0  0  0
    7.6229  -13.9963   25.7690 N   0  0  0  0  0  0  0  0  0  0  0  0
    6.2619  -14.0455   26.2340 C   0  0  0  0  0  0  0  0  0  0  0  0
    6.0324  -12.5401   26.4432 C   0  0  0  0  0  0  0  0  0  0  0  0
    7.2608  -12.2336   27.3118 C   0  0  0  0  0  0  0  0  0  0  0  0
    8.2726  -13.2984   26.8962 C   0  0  1  0  0  0  0  0  0  0  0  0
    8.5920  -14.2390   27.9710 C   0  0  0  0  0  0  0  0  0  0  0  0
    8.1284  -15.4001   27.9957 O   0  0  0  0  0  0  0  0  0  0  0  0
    9.4301  -13.8375   28.9922 O   0  0  0  0  0  0  0  0  0  0  0  0
  2  4  1  0
  2  1  1  6
  3  2  1  0
  4  5  2  0
  7  6  1  0
  8  7  2  0
  9  7  1  0
 10  9  1  1
 11 10  1  0
 11  4  1  0
 12 14  1  0
 12 10  1  0
 13 12  2  0
 14 18  1  0
 15 16  1  0
 15 14  1  0
 16 17  1  0
 17 18  1  0
 18 19  1  1
 19 20  2  0
 19 21  1  0
M  END
$$$$
