ANP.pdb
     RDKit          3D

 21 21  0  0  1  0  0  0  0  0999 V2000
    9.4266  -14.9638   20.2452 C   0  0  0  0  0  0  0  0  0  0  0  0
    8.2118  -14.1017   20.5705 C   0  0  2  0  0  0  0  0  0  0  0  0
    8.2264  -12.8836   19.7979 N   0  0  0  0  0  0  0  0  0  0  0  0
    8.2335  -13.7849   22.0328 C   0  0  0  0  0  0  0  0  0  0  0  0
    8.7769  -12.7323   22.4530 O   0  0  0  0  0  0  0  0  0  0  0  0
    5.8420  -13.0137   26.8136 N   0  0  0  0  0  0  0  0  0  0  0  0
    6.1918  -14.3240   26.3691 C   0  0  0  0  0  0  0  0  0  0  0  0
    6.4425  -15.2637   27.1835 O   0  0  0  0  0  0  0  0  0  0  0  0
    6.2724  -14.6268   24.9324 C   0  0  0  0  0  0  0  0  0  0  0  0
    7.6583  -14.3244   24.3698 C   0  0  2  0  0  0  0  0  0  0  0  0
    7.6458  -14.6552   22.9883 N   0  0  0  0  0  0  0  0  0  0  0  0
    8.6662  -14.9708   25.2056 C   0  0  0  0  0  0  0  0  0  0  0  0
    9.2564  -15.9541   24.6180 O   0  0  0  0  0  0  0  0  0  0  0  0
    9.0536  -14.6634   26.5180 N   0  0  0  0  0  0  0  0  0  0  0  0
    8.5551  -13.7874   27.5451 C   0  0  0  0  0  0  0  0  0  0  0  0
    9.8299  -12.9639   27.7883 C   0  0  0  0  0  0  0  0  0  0  0  0
   10.8182  -14.1189   28.0040 C   0  0  0  0  0  0  0  0  0  0  0  0
   10.2062  -15.2715   27.2120 C   0  0  1  0  0  0  0  0  0  0  0  0
    9.7715  -16.3838   28.0581 C   0  0  0  0  0  0  0  0  0  0  0  0
    8.5625  -16.6520   28.2315 O   0  0  0  0  0  0  0  0  0  0  0  0
   10.7210  -17.1642   28.6873 O   0  0  0  0  0  0  0  0  0  0  0  0
  2  4  1  0
  2  1  1  6
  3  2  1  0
  4  5  2  0
  7  6  1  0
  8  7  2  0
  9  7  1  0
 10  9  1  1
 11 10  1  0
 11  4  1  0
 12 14  1  0
 12 10  1  0
 13 12  2  0
 14 18  1  0
 15 16  1  0
 15 14  1  0
 16 17  1  0
 17 18  1  0
 18 19  1  1
 19 20  2  0
 19 21  1  0
M  END
$$$$
