ANP.pdb
     RDKit          3D

 21 21  0  0  1  0  0  0  0  0999 V2000
    8.5983  -14.0518   19.7986 C   0  0  0  0  0  0  0  0  0  0  0  0
    8.2005  -15.4444   20.2750 C   0  0  2  0  0  0  0  0  0  0  0  0
    7.2911  -16.0644   19.3428 N   0  0  0  0  0  0  0  0  0  0  0  0
    7.5549  -15.3190   21.6191 C   0  0  0  0  0  0  0  0  0  0  0  0
    6.4692  -14.7002   21.7538 O   0  0  0  0  0  0  0  0  0  0  0  0
    5.3503  -17.4634   23.2591 N   0  0  0  0  0  0  0  0  0  0  0  0
    6.5422  -17.9557   23.8705 C   0  0  0  0  0  0  0  0  0  0  0  0
    6.9236  -19.1567   23.7252 O   0  0  0  0  0  0  0  0  0  0  0  0
    7.3751  -17.0710   24.6987 C   0  0  0  0  0  0  0  0  0  0  0  0
    7.5497  -15.6977   24.0563 C   0  0  2  0  0  0  0  0  0  0  0  0
    8.1415  -15.8899   22.7792 N   0  0  0  0  0  0  0  0  0  0  0  0
    8.2428  -14.8161   24.9913 C   0  0  0  0  0  0  0  0  0  0  0  0
    9.4985  -14.6888   24.7313 O   0  0  0  0  0  0  0  0  0  0  0  0
    7.7279  -14.1193   26.0943 N   0  0  0  0  0  0  0  0  0  0  0  0
    6.4351  -14.0186   26.7183 C   0  0  0  0  0  0  0  0  0  0  0  0
    6.2556  -12.4941   26.6382 C   0  0  0  0  0  0  0  0  0  0  0  0
    7.5872  -12.0671   27.2720 C   0  0  0  0  0  0  0  0  0  0  0  0
    8.5235  -13.2337   26.9675 C   0  0  1  0  0  0  0  0  0  0  0  0
    8.9609  -13.9485   28.1673 C   0  0  0  0  0  0  0  0  0  0  0  0
    9.7145  -13.4222   29.0152 O   0  0  0  0  0  0  0  0  0  0  0  0
    8.5319  -15.2445   28.3746 O   0  0  0  0  0  0  0  0  0  0  0  0
  2  4  1  0
  2  1  1  6
  3  2  1  0
  4  5  2  0
  7  6  1  0
  8  7  2  0
  9  7  1  0
 10  9  1  1
 11 10  1  0
 11  4  1  0
 12 14  1  0
 12 10  1  0
 13 12  2  0
 14 18  1  0
 15 16  1  0
 15 14  1  0
 16 17  1  0
 17 18  1  0
 18 19  1  1
 19 20  2  0
 19 21  1  0
M  END
$$$$
