ANP.pdb
     RDKit          3D

 21 21  0  0  1  0  0  0  0  0999 V2000
    8.9883  -12.5334   19.8939 C   0  0  0  0  0  0  0  0  0  0  0  0
    8.3521  -13.9187   19.8652 C   0  0  2  0  0  0  0  0  0  0  0  0
    7.4842  -14.0603   18.7218 N   0  0  0  0  0  0  0  0  0  0  0  0
    7.5744  -14.1092   21.1294 C   0  0  0  0  0  0  0  0  0  0  0  0
    6.4893  -13.5019   21.3125 O   0  0  0  0  0  0  0  0  0  0  0  0
    5.9697  -16.3071   21.4304 N   0  0  0  0  0  0  0  0  0  0  0  0
    6.2762  -17.0683   22.5980 C   0  0  0  0  0  0  0  0  0  0  0  0
    5.9346  -18.2843   22.7146 O   0  0  0  0  0  0  0  0  0  0  0  0
    7.0086  -16.4554   23.7162 C   0  0  0  0  0  0  0  0  0  0  0  0
    7.3796  -15.0052   23.4191 C   0  0  2  0  0  0  0  0  0  0  0  0
    8.0314  -14.9756   22.1572 N   0  0  0  0  0  0  0  0  0  0  0  0
    8.1022  -14.4520   24.5609 C   0  0  0  0  0  0  0  0  0  0  0  0
    9.3812  -14.4621   24.4040 O   0  0  0  0  0  0  0  0  0  0  0  0
    7.5931  -13.9322   25.7599 N   0  0  0  0  0  0  0  0  0  0  0  0
    6.2780  -13.7857   26.3257 C   0  0  0  0  0  0  0  0  0  0  0  0
    6.2943  -12.2672   26.5636 C   0  0  0  0  0  0  0  0  0  0  0  0
    7.6151  -12.1652   27.3397 C   0  0  0  0  0  0  0  0  0  0  0  0
    8.4215  -13.3614   26.8405 C   0  0  1  0  0  0  0  0  0  0  0  0
    8.6731  -14.3598   27.8807 C   0  0  0  0  0  0  0  0  0  0  0  0
    8.0506  -15.4434   27.9243 O   0  0  0  0  0  0  0  0  0  0  0  0
    9.6255  -14.1025   28.8467 O   0  0  0  0  0  0  0  0  0  0  0  0
  2  4  1  0
  2  1  1  1
  3  2  1  0
  4  5  2  0
  7  6  1  0
  8  7  2  0
  9  7  1  0
 10  9  1  1
 11 10  1  0
 11  4  1  0
 12 14  1  0
 12 10  1  0
 13 12  2  0
 14 18  1  0
 15 16  1  0
 15 14  1  0
 16 17  1  0
 17 18  1  0
 18 19  1  1
 19 20  2  0
 19 21  1  0
M  END
$$$$
