ANP.pdb
     RDKit          3D

 21 21  0  0  1  0  0  0  0  0999 V2000
    8.3425  -12.4742   19.7176 C   0  0  0  0  0  0  0  0  0  0  0  0
    8.2475  -13.9959   19.7250 C   0  0  2  0  0  0  0  0  0  0  0  0
    7.4866  -14.4673   18.5938 N   0  0  0  0  0  0  0  0  0  0  0  0
    7.5930  -14.4237   21.0008 C   0  0  0  0  0  0  0  0  0  0  0  0
    6.3557  -14.6405   21.0455 O   0  0  0  0  0  0  0  0  0  0  0  0
    7.6170  -18.0540   25.3186 N   0  0  0  0  0  0  0  0  0  0  0  0
    6.9459  -17.0025   24.6252 C   0  0  0  0  0  0  0  0  0  0  0  0
    5.8814  -16.4771   25.0721 O   0  0  0  0  0  0  0  0  0  0  0  0
    7.4778  -16.4901   23.3537 C   0  0  0  0  0  0  0  0  0  0  0  0
    7.6951  -14.9803   23.4015 C   0  0  2  0  0  0  0  0  0  0  0  0
    8.3407  -14.5980   22.1952 N   0  0  0  0  0  0  0  0  0  0  0  0
    8.3556  -14.6309   24.6560 C   0  0  0  0  0  0  0  0  0  0  0  0
    9.6016  -14.9588   24.6809 O   0  0  0  0  0  0  0  0  0  0  0  0
    7.8193  -14.0069   25.7918 N   0  0  0  0  0  0  0  0  0  0  0  0
    6.4904  -13.6894   26.2437 C   0  0  0  0  0  0  0  0  0  0  0  0
    6.6638  -12.1737   26.4317 C   0  0  0  0  0  0  0  0  0  0  0  0
    7.9240  -12.1884   27.3086 C   0  0  0  0  0  0  0  0  0  0  0  0
    8.6226  -13.4879   26.9166 C   0  0  1  0  0  0  0  0  0  0  0  0
    8.6763  -14.4634   28.0062 C   0  0  0  0  0  0  0  0  0  0  0  0
    7.9337  -15.4692   28.0332 O   0  0  0  0  0  0  0  0  0  0  0  0
    9.5721  -14.2723   29.0395 O   0  0  0  0  0  0  0  0  0  0  0  0
  2  4  1  0
  2  1  1  1
  3  2  1  0
  4  5  2  0
  7  6  1  0
  8  7  2  0
  9  7  1  0
 10  9  1  6
 11 10  1  0
 11  4  1  0
 12 14  1  0
 12 10  1  0
 13 12  2  0
 14 18  1  0
 15 16  1  0
 15 14  1  0
 16 17  1  0
 17 18  1  0
 18 19  1  1
 19 20  2  0
 19 21  1  0
M  END
$$$$
