ANP.pdb
     RDKit          3D

 21 21  0  0  1  0  0  0  0  0999 V2000
    8.4072  -12.2860   19.3919 C   0  0  0  0  0  0  0  0  0  0  0  0
    7.9076  -13.5069   18.6275 C   0  0  2  0  0  0  0  0  0  0  0  0
    6.4862  -13.4211   18.3974 N   0  0  0  0  0  0  0  0  0  0  0  0
    8.2274  -14.7304   19.4275 C   0  0  0  0  0  0  0  0  0  0  0  0
    7.3582  -15.2594   20.1654 O   0  0  0  0  0  0  0  0  0  0  0  0
   11.9240  -19.3733   20.1175 N   0  0  0  0  0  0  0  0  0  0  0  0
   10.6298  -18.7718   20.1278 C   0  0  0  0  0  0  0  0  0  0  0  0
    9.6696  -19.2582   20.7991 O   0  0  0  0  0  0  0  0  0  0  0  0
   10.3685  -17.5523   19.3489 C   0  0  0  0  0  0  0  0  0  0  0  0
    9.8283  -16.4276   20.2276 C   0  0  2  0  0  0  0  0  0  0  0  0
    9.5130  -15.3311   19.3811 N   0  0  0  0  0  0  0  0  0  0  0  0
   10.7635  -16.1832   21.3220 C   0  0  0  0  0  0  0  0  0  0  0  0
   11.7530  -15.4300   20.9840 O   0  0  0  0  0  0  0  0  0  0  0  0
   10.7172  -16.6509   22.6434 N   0  0  0  0  0  0  0  0  0  0  0  0
    9.8721  -17.5620   23.3691 C   0  0  0  0  0  0  0  0  0  0  0  0
    9.4224  -16.6169   24.4947 C   0  0  0  0  0  0  0  0  0  0  0  0
   10.8023  -16.1238   24.9528 C   0  0  0  0  0  0  0  0  0  0  0  0
   11.6675  -16.2563   23.7022 C   0  0  1  0  0  0  0  0  0  0  0  0
   12.7298  -17.2534   23.8406 C   0  0  0  0  0  0  0  0  0  0  0  0
   12.6325  -18.3988   23.3483 O   0  0  0  0  0  0  0  0  0  0  0  0
   13.8769  -16.9254   24.5357 O   0  0  0  0  0  0  0  0  0  0  0  0
  2  4  1  0
  2  1  1  1
  3  2  1  0
  4  5  2  0
  7  6  1  0
  8  7  2  0
  9  7  1  0
 10  9  1  6
 11 10  1  0
 11  4  1  0
 12 14  1  0
 12 10  1  0
 13 12  2  0
 14 18  1  0
 15 16  1  0
 15 14  1  0
 16 17  1  0
 17 18  1  0
 18 19  1  1
 19 20  2  0
 19 21  1  0
M  END
$$$$
