ANP.pdb
     RDKit          3D

 21 21  0  0  1  0  0  0  0  0999 V2000
    8.5066  -12.3900   19.8637 C   0  0  0  0  0  0  0  0  0  0  0  0
    8.1673  -13.8760   19.8273 C   0  0  2  0  0  0  0  0  0  0  0  0
    7.2760  -14.1713   18.7323 N   0  0  0  0  0  0  0  0  0  0  0  0
    7.5272  -14.2479   21.1277 C   0  0  0  0  0  0  0  0  0  0  0  0
    6.2996  -14.0556   21.3164 O   0  0  0  0  0  0  0  0  0  0  0  0
    6.3516  -16.3087   25.5781 N   0  0  0  0  0  0  0  0  0  0  0  0
    6.9078  -17.2255   24.6364 C   0  0  0  0  0  0  0  0  0  0  0  0
    6.8016  -18.4814   24.7799 O   0  0  0  0  0  0  0  0  0  0  0  0
    7.6308  -16.7329   23.4544 C   0  0  0  0  0  0  0  0  0  0  0  0
    7.6431  -15.2079   23.3967 C   0  0  2  0  0  0  0  0  0  0  0  0
    8.2783  -14.8263   22.1847 N   0  0  0  0  0  0  0  0  0  0  0  0
    8.2020  -14.6859   24.6406 C   0  0  0  0  0  0  0  0  0  0  0  0
    9.4891  -14.7362   24.6779 O   0  0  0  0  0  0  0  0  0  0  0  0
    7.5340  -14.1580   25.7551 N   0  0  0  0  0  0  0  0  0  0  0  0
    6.1582  -14.0741   26.1686 C   0  0  0  0  0  0  0  0  0  0  0  0
    6.0601  -12.5502   26.3447 C   0  0  0  0  0  0  0  0  0  0  0  0
    7.2788  -12.3399   27.2544 C   0  0  0  0  0  0  0  0  0  0  0  0
    8.2034  -13.5002   26.8949 C   0  0  1  0  0  0  0  0  0  0  0  0
    8.3958  -14.4448   27.9961 C   0  0  0  0  0  0  0  0  0  0  0  0
    7.8982  -15.5920   27.9804 O   0  0  0  0  0  0  0  0  0  0  0  0
    9.1484  -14.0630   29.0890 O   0  0  0  0  0  0  0  0  0  0  0  0
  2  4  1  0
  2  1  1  1
  3  2  1  0
  4  5  2  0
  7  6  1  0
  8  7  2  0
  9  7  1  0
 10  9  1  1
 11 10  1  0
 11  4  1  0
 12 14  1  0
 12 10  1  0
 13 12  2  0
 14 18  1  0
 15 16  1  0
 15 14  1  0
 16 17  1  0
 17 18  1  0
 18 19  1  1
 19 20  2  0
 19 21  1  0
M  END
$$$$
