ANP.pdb
     RDKit          3D

 21 21  0  0  1  0  0  0  0  0999 V2000
    9.4962  -15.5677   13.6724 C   0  0  0  0  0  0  0  0  0  0  0  0
    8.4922  -16.6727   13.9817 C   0  0  2  0  0  0  0  0  0  0  0  0
    7.4711  -16.7364   12.9649 N   0  0  0  0  0  0  0  0  0  0  0  0
    7.8746  -16.3920   15.3155 C   0  0  0  0  0  0  0  0  0  0  0  0
    6.7564  -15.8242   15.3977 O   0  0  0  0  0  0  0  0  0  0  0  0
    5.4744  -17.5529   19.8764 N   0  0  0  0  0  0  0  0  0  0  0  0
    6.8585  -17.8116   19.6434 C   0  0  0  0  0  0  0  0  0  0  0  0
    7.6796  -17.9761   20.5961 O   0  0  0  0  0  0  0  0  0  0  0  0
    7.3800  -17.8966   18.2711 C   0  0  0  0  0  0  0  0  0  0  0  0
    7.8889  -16.5453   17.7772 C   0  0  2  0  0  0  0  0  0  0  0  0
    8.5251  -16.7546   16.5244 N   0  0  0  0  0  0  0  0  0  0  0  0
    8.6766  -15.9150   18.8328 C   0  0  0  0  0  0  0  0  0  0  0  0
    9.9099  -16.2884   18.8361 O   0  0  0  0  0  0  0  0  0  0  0  0
    8.2693  -14.9898   19.8051 N   0  0  0  0  0  0  0  0  0  0  0  0
    7.0025  -14.4577   20.2328 C   0  0  0  0  0  0  0  0  0  0  0  0
    7.2971  -12.9628   20.0303 C   0  0  0  0  0  0  0  0  0  0  0  0
    8.6127  -12.8740   20.8168 C   0  0  0  0  0  0  0  0  0  0  0  0
    9.1864  -14.2855   20.7230 C   0  0  1  0  0  0  0  0  0  0  0  0
    9.2482  -14.9683   22.0160 C   0  0  0  0  0  0  0  0  0  0  0  0
    8.4172  -15.8431   22.3444 O   0  0  0  0  0  0  0  0  0  0  0  0
   10.2526  -14.6403   22.9049 O   0  0  0  0  0  0  0  0  0  0  0  0
  2  4  1  0
  2  1  1  6
  3  2  1  0
  4  5  2  0
  7  6  1  0
  8  7  2  0
  9  7  1  0
 10  9  1  1
 11 10  1  0
 11  4  1  0
 12 14  1  0
 12 10  1  0
 13 12  2  0
 14 18  1  0
 15 16  1  0
 15 14  1  0
 16 17  1  0
 17 18  1  0
 18 19  1  1
 19 20  2  0
 19 21  1  0
M  END
$$$$
