EFM.pdb
     RDKit          3D

 29 29  0  0  1  0  0  0  0  0999 V2000
   26.1219  -22.1301  -13.2943 N   0  0  0  0  0  0  0  0  0  0  0  0
   25.3300  -21.1480  -12.5808 C   0  0  1  0  0  0  0  0  0  0  0  0
   23.8652  -21.3083  -12.8058 C   0  0  0  0  0  0  0  0  0  0  0  0
   23.3622  -20.9039  -14.1478 C   0  0  0  0  0  0  0  0  0  0  0  0
   23.5533  -19.4683  -14.4539 C   0  0  0  0  0  0  0  0  0  0  0  0
   24.5517  -19.0406  -15.0951 O   0  0  0  0  0  0  0  0  0  0  0  0
   25.5444  -21.2800  -11.0933 C   0  0  0  0  0  0  0  0  0  0  0  0
   25.2043  -22.3926  -10.6078 O   0  0  0  0  0  0  0  0  0  0  0  0
   22.6437  -18.4943  -14.0552 O   0  0  0  0  0  0  0  0  0  0  0  0
   26.0862  -20.2288  -10.3151 N   0  0  0  0  0  0  0  0  0  0  0  0
   26.3225  -20.4397   -8.9104 C   0  0  1  0  0  0  0  0  0  0  0  0
   27.4223  -19.5812   -8.3837 C   0  0  0  0  0  0  0  0  0  0  0  0
   27.7288  -19.7511   -6.9519 C   0  0  0  0  0  0  0  0  0  0  0  0
   27.4866  -18.7278   -6.0280 C   0  0  0  0  0  0  0  0  0  0  0  0
   27.7840  -18.8795   -4.6886 C   0  0  0  0  0  0  0  0  0  0  0  0
   28.3372  -20.0610   -4.2120 C   0  0  0  0  0  0  0  0  0  0  0  0
   28.5831  -21.0792   -5.1037 C   0  0  0  0  0  0  0  0  0  0  0  0
   28.2781  -20.9069   -6.4398 C   0  0  0  0  0  0  0  0  0  0  0  0
   25.0732  -20.4137   -8.1032 C   0  0  0  0  0  0  0  0  0  0  0  0
   24.2779  -19.4501   -8.2443 O   0  0  0  0  0  0  0  0  0  0  0  0
   20.4812  -24.1981   -8.1895 C   0  0  0  0  0  0  0  0  0  0  0  0
   20.2179  -23.8095   -6.4482 S   0  0  0  0  0  0  0  0  0  0  0  0
   21.3596  -22.5247   -5.9134 C   0  0  0  0  0  0  0  0  0  0  0  0
   22.6146  -22.4552   -6.6906 C   0  0  0  0  0  0  0  0  0  0  0  0
   23.5438  -21.3706   -6.3194 C   0  0  2  0  0  0  0  0  0  0  0  0
   24.7425  -21.4273   -7.1799 N   0  0  0  0  0  0  0  0  0  0  0  0
   23.8926  -21.2958   -4.9233 C   0  0  0  0  0  0  0  0  0  0  0  0
   25.0916  -21.8839   -4.4939 O   0  0  0  0  0  0  0  0  0  0  0  0
   23.2180  -20.7475   -4.0423 O   0  0  0  0  0  0  0  0  0  0  0  0
  2  1  1  6
  2  3  1  0
  3  4  1  0
  5  4  1  0
  6  5  2  0
  7  2  1  0
  7  8  2  0
  9  5  1  0
 10  7  1  0
 11 10  1  0
 11 12  1  1
 12 13  1  0
 13 14  2  0
 13 18  1  0
 14 15  1  0
 15 16  2  0
 17 16  1  0
 18 17  2  0
 19 11  1  0
 20 19  2  0
 22 21  1  0
 22 23  1  0
 24 23  1  0
 25 24  1  1
 25 26  1  0
 26 19  1  0
 27 28  1  0
 27 25  1  0
 29 27  2  0
M  END
$$$$
