EFM.pdb
     RDKit          3D

 29 29  0  0  1  0  0  0  0  0999 V2000
   27.7231  -22.1180  -17.4773 N   0  0  0  0  0  0  0  0  0  0  0  0
   27.3825  -20.8595  -16.8440 C   0  0  1  0  0  0  0  0  0  0  0  0
   26.3084  -20.1186  -17.5647 C   0  0  0  0  0  0  0  0  0  0  0  0
   26.6778  -19.5637  -18.8963 C   0  0  0  0  0  0  0  0  0  0  0  0
   26.7634  -20.5806  -19.9686 C   0  0  0  0  0  0  0  0  0  0  0  0
   27.5958  -20.4993  -20.9128 O   0  0  0  0  0  0  0  0  0  0  0  0
   26.8654  -21.0970  -15.4468 C   0  0  0  0  0  0  0  0  0  0  0  0
   26.0871  -22.0822  -15.3325 O   0  0  0  0  0  0  0  0  0  0  0  0
   25.9316  -21.6948  -20.0065 O   0  0  0  0  0  0  0  0  0  0  0  0
   27.2334  -20.2707  -14.3578 N   0  0  0  0  0  0  0  0  0  0  0  0
   26.7523  -20.5864  -13.0378 C   0  0  1  0  0  0  0  0  0  0  0  0
   27.6641  -20.0908  -11.9668 C   0  0  0  0  0  0  0  0  0  0  0  0
   27.2101  -20.3335  -10.5855 C   0  0  0  0  0  0  0  0  0  0  0  0
   26.4824  -19.3700   -9.8773 C   0  0  0  0  0  0  0  0  0  0  0  0
   26.0667  -19.5896   -8.5794 C   0  0  0  0  0  0  0  0  0  0  0  0
   26.3597  -20.7822   -7.9306 C   0  0  0  0  0  0  0  0  0  0  0  0
   27.0740  -21.7422   -8.6090 C   0  0  0  0  0  0  0  0  0  0  0  0
   27.4805  -21.5025   -9.9071 C   0  0  0  0  0  0  0  0  0  0  0  0
   25.3193  -20.2362  -12.8452 C   0  0  0  0  0  0  0  0  0  0  0  0
   24.9280  -19.0827  -13.1568 O   0  0  0  0  0  0  0  0  0  0  0  0
   21.1433  -21.4442  -17.1044 C   0  0  0  0  0  0  0  0  0  0  0  0
   20.9876  -22.0094  -15.3990 S   0  0  0  0  0  0  0  0  0  0  0  0
   22.1168  -21.1004  -14.3320 C   0  0  0  0  0  0  0  0  0  0  0  0
   22.0603  -21.4861  -12.9065 C   0  0  0  0  0  0  0  0  0  0  0  0
   22.9848  -20.7692  -12.0072 C   0  0  2  0  0  0  0  0  0  0  0  0
   24.3772  -21.1464  -12.3228 N   0  0  0  0  0  0  0  0  0  0  0  0
   22.7062  -20.8889  -10.5985 C   0  0  0  0  0  0  0  0  0  0  0  0
   21.5037  -20.3654  -10.1007 O   0  0  0  0  0  0  0  0  0  0  0  0
   23.4457  -21.4238   -9.7625 O   0  0  0  0  0  0  0  0  0  0  0  0
  2  1  1  6
  2  3  1  0
  3  4  1  0
  5  4  1  0
  6  5  2  0
  7  2  1  0
  7  8  2  0
  9  5  1  0
 10  7  1  0
 11 10  1  0
 11 12  1  1
 12 13  1  0
 13 14  2  0
 13 18  1  0
 14 15  1  0
 15 16  2  0
 17 16  1  0
 18 17  2  0
 19 11  1  0
 20 19  2  0
 22 21  1  0
 22 23  1  0
 24 23  1  0
 25 24  1  6
 25 26  1  0
 26 19  1  0
 27 28  1  0
 27 25  1  0
 29 27  2  0
M  END
$$$$
