EFM.pdb
     RDKit          3D

 29 29  0  0  1  0  0  0  0  0999 V2000
   25.4260  -23.5995  -15.5044 N   0  0  0  0  0  0  0  0  0  0  0  0
   25.0421  -22.3315  -14.9168 C   0  0  1  0  0  0  0  0  0  0  0  0
   23.5680  -22.1099  -14.9254 C   0  0  0  0  0  0  0  0  0  0  0  0
   22.9590  -21.8170  -16.2523 C   0  0  0  0  0  0  0  0  0  0  0  0
   23.8174  -21.0017  -17.1410 C   0  0  0  0  0  0  0  0  0  0  0  0
   24.0216  -19.7729  -16.9427 O   0  0  0  0  0  0  0  0  0  0  0  0
   25.4684  -22.2715  -13.4709 C   0  0  0  0  0  0  0  0  0  0  0  0
   25.2064  -23.3063  -12.8001 O   0  0  0  0  0  0  0  0  0  0  0  0
   24.4570  -21.5365  -18.2544 O   0  0  0  0  0  0  0  0  0  0  0  0
   26.1118  -21.1359  -12.9227 N   0  0  0  0  0  0  0  0  0  0  0  0
   26.4495  -21.1227  -11.5229 C   0  0  1  0  0  0  0  0  0  0  0  0
   27.5328  -20.1472  -11.2086 C   0  0  0  0  0  0  0  0  0  0  0  0
   27.8834  -20.0274   -9.7819 C   0  0  0  0  0  0  0  0  0  0  0  0
   28.8484  -20.8552   -9.1962 C   0  0  0  0  0  0  0  0  0  0  0  0
   29.1699  -20.7537   -7.8576 C   0  0  0  0  0  0  0  0  0  0  0  0
   28.5413  -19.8201   -7.0437 C   0  0  0  0  0  0  0  0  0  0  0  0
   27.5899  -18.9969   -7.5998 C   0  0  0  0  0  0  0  0  0  0  0  0
   27.2829  -19.1148   -8.9413 C   0  0  0  0  0  0  0  0  0  0  0  0
   25.2553  -21.0309  -10.6405 C   0  0  0  0  0  0  0  0  0  0  0  0
   24.1893  -20.5551  -11.1074 O   0  0  0  0  0  0  0  0  0  0  0  0
   25.4261  -21.1145   -3.9488 C   0  0  0  0  0  0  0  0  0  0  0  0
   23.9037  -21.9974   -4.3430 S   0  0  0  0  0  0  0  0  0  0  0  0
   23.3863  -21.6328   -6.0281 C   0  0  0  0  0  0  0  0  0  0  0  0
   24.4694  -21.6984   -7.0314 C   0  0  0  0  0  0  0  0  0  0  0  0
   24.0800  -21.3934   -8.4216 C   0  0  2  0  0  0  0  0  0  0  0  0
   25.2689  -21.4544   -9.2953 N   0  0  0  0  0  0  0  0  0  0  0  0
   23.3414  -20.1706   -8.6107 C   0  0  0  0  0  0  0  0  0  0  0  0
   21.9414  -20.2299   -8.6748 O   0  0  0  0  0  0  0  0  0  0  0  0
   23.8368  -19.0421   -8.7248 O   0  0  0  0  0  0  0  0  0  0  0  0
  2  1  1  1
  2  3  1  0
  3  4  1  0
  5  4  1  0
  6  5  2  0
  7  2  1  0
  7  8  2  0
  9  5  1  0
 10  7  1  0
 11 10  1  0
 11 12  1  6
 12 13  1  0
 13 14  2  0
 13 18  1  0
 14 15  1  0
 15 16  2  0
 17 16  1  0
 18 17  2  0
 19 11  1  0
 20 19  2  0
 22 21  1  0
 22 23  1  0
 24 23  1  0
 25 24  1  1
 25 26  1  0
 26 19  1  0
 27 28  1  0
 27 25  1  0
 29 27  2  0
M  END
$$$$
