EFM.pdb
     RDKit          3D

 29 29  0  0  1  0  0  0  0  0999 V2000
   23.6632  -12.6011  -18.7817 N   0  0  0  0  0  0  0  0  0  0  0  0
   22.5884  -11.6384  -18.9187 C   0  0  1  0  0  0  0  0  0  0  0  0
   21.2950  -12.1289  -18.3632 C   0  0  0  0  0  0  0  0  0  0  0  0
   20.6911  -13.3027  -19.0524 C   0  0  0  0  0  0  0  0  0  0  0  0
   19.3625  -13.6902  -18.5271 C   0  0  0  0  0  0  0  0  0  0  0  0
   18.3829  -12.8956  -18.5128 O   0  0  0  0  0  0  0  0  0  0  0  0
   22.9170  -10.3729  -18.1661 C   0  0  0  0  0  0  0  0  0  0  0  0
   23.4864  -10.5520  -17.0557 O   0  0  0  0  0  0  0  0  0  0  0  0
   19.1050  -14.9573  -18.0142 O   0  0  0  0  0  0  0  0  0  0  0  0
   22.6049   -9.0905  -18.6782 N   0  0  0  0  0  0  0  0  0  0  0  0
   23.0233   -7.9194  -17.9523 C   0  0  1  0  0  0  0  0  0  0  0  0
   23.3060   -6.7639  -18.8516 C   0  0  0  0  0  0  0  0  0  0  0  0
   23.6592   -5.5040  -18.1728 C   0  0  0  0  0  0  0  0  0  0  0  0
   24.9596   -5.2625  -17.7143 C   0  0  0  0  0  0  0  0  0  0  0  0
   25.2903   -4.0888  -17.0673 C   0  0  0  0  0  0  0  0  0  0  0  0
   24.3362   -3.1033  -16.8492 C   0  0  0  0  0  0  0  0  0  0  0  0
   23.0522   -3.3211  -17.2919 C   0  0  0  0  0  0  0  0  0  0  0  0
   22.7421   -4.5024  -17.9371 C   0  0  0  0  0  0  0  0  0  0  0  0
   22.1376   -7.6067  -16.7986 C   0  0  0  0  0  0  0  0  0  0  0  0
   20.8944   -7.5627  -16.9808 O   0  0  0  0  0  0  0  0  0  0  0  0
   22.4382  -10.5097  -11.4315 C   0  0  0  0  0  0  0  0  0  0  0  0
   21.6891   -9.0355  -10.7117 S   0  0  0  0  0  0  0  0  0  0  0  0
   21.3247   -7.8274  -11.9954 C   0  0  0  0  0  0  0  0  0  0  0  0
   22.0945   -8.0061  -13.2442 C   0  0  0  0  0  0  0  0  0  0  0  0
   21.7612   -7.0820  -14.3452 C   0  0  2  0  0  0  0  0  0  0  0  0
   22.6357   -7.3536  -15.5036 N   0  0  0  0  0  0  0  0  0  0  0  0
   21.7469   -5.6820  -14.0044 C   0  0  0  0  0  0  0  0  0  0  0  0
   20.5151   -5.0611  -13.7494 O   0  0  0  0  0  0  0  0  0  0  0  0
   22.7440   -4.9545  -13.9123 O   0  0  0  0  0  0  0  0  0  0  0  0
  2  1  1  1
  2  3  1  0
  3  4  1  0
  5  4  1  0
  6  5  2  0
  7  2  1  0
  7  8  2  0
  9  5  1  0
 10  7  1  0
 11 10  1  0
 11 12  1  6
 12 13  1  0
 13 14  2  0
 13 18  1  0
 14 15  1  0
 15 16  2  0
 17 16  1  0
 18 17  2  0
 19 11  1  0
 20 19  2  0
 22 21  1  0
 22 23  1  0
 24 23  1  0
 25 24  1  1
 25 26  1  0
 26 19  1  0
 27 28  1  0
 27 25  1  0
 29 27  2  0
M  END
$$$$
