EFM.pdb
     RDKit          3D

 29 29  0  0  1  0  0  0  0  0999 V2000
   26.5216  -19.5688  -13.3735 N   0  0  0  0  0  0  0  0  0  0  0  0
   25.9390  -20.8190  -12.9281 C   0  0  1  0  0  0  0  0  0  0  0  0
   26.4120  -21.9932  -13.7152 C   0  0  0  0  0  0  0  0  0  0  0  0
   27.3588  -21.6970  -14.8258 C   0  0  0  0  0  0  0  0  0  0  0  0
   26.7498  -20.9567  -15.9537 C   0  0  0  0  0  0  0  0  0  0  0  0
   25.8341  -21.4477  -16.6690 O   0  0  0  0  0  0  0  0  0  0  0  0
   26.3172  -21.0937  -11.4938 C   0  0  0  0  0  0  0  0  0  0  0  0
   26.1919  -22.2960  -11.1359 O   0  0  0  0  0  0  0  0  0  0  0  0
   27.1462  -19.6692  -16.3003 O   0  0  0  0  0  0  0  0  0  0  0  0
   26.7758  -20.0720  -10.6277 N   0  0  0  0  0  0  0  0  0  0  0  0
   26.8300  -20.3196   -9.2102 C   0  0  1  0  0  0  0  0  0  0  0  0
   27.9431  -19.5816   -8.5464 C   0  0  0  0  0  0  0  0  0  0  0  0
   27.9883  -19.6907   -7.0771 C   0  0  0  0  0  0  0  0  0  0  0  0
   27.5204  -18.6592   -6.2546 C   0  0  0  0  0  0  0  0  0  0  0  0
   27.5728  -18.7533   -4.8785 C   0  0  0  0  0  0  0  0  0  0  0  0
   28.0955  -19.8828   -4.2619 C   0  0  0  0  0  0  0  0  0  0  0  0
   28.5608  -20.9080   -5.0523 C   0  0  0  0  0  0  0  0  0  0  0  0
   28.4992  -20.7938   -6.4274 C   0  0  0  0  0  0  0  0  0  0  0  0
   25.5063  -20.1757   -8.5467 C   0  0  0  0  0  0  0  0  0  0  0  0
   24.9130  -19.0689   -8.6070 O   0  0  0  0  0  0  0  0  0  0  0  0
   20.4446  -21.8626  -10.3096 C   0  0  0  0  0  0  0  0  0  0  0  0
   19.8264  -21.9295   -8.6167 S   0  0  0  0  0  0  0  0  0  0  0  0
   21.1483  -21.5611   -7.4519 C   0  0  0  0  0  0  0  0  0  0  0  0
   22.5032  -21.5534   -8.0420 C   0  0  0  0  0  0  0  0  0  0  0  0
   23.5890  -21.0878   -7.1580 C   0  0  2  0  0  0  0  0  0  0  0  0
   24.8870  -21.2322   -7.8471 N   0  0  0  0  0  0  0  0  0  0  0  0
   23.6169  -21.6708   -5.8406 C   0  0  0  0  0  0  0  0  0  0  0  0
   24.5681  -22.6632   -5.5608 O   0  0  0  0  0  0  0  0  0  0  0  0
   22.8620  -21.3721   -4.9063 O   0  0  0  0  0  0  0  0  0  0  0  0
  2  1  1  6
  2  3  1  0
  3  4  1  0
  5  4  1  0
  6  5  2  0
  7  2  1  0
  7  8  2  0
  9  5  1  0
 10  7  1  0
 11 10  1  0
 11 12  1  1
 12 13  1  0
 13 14  2  0
 13 18  1  0
 14 15  1  0
 15 16  2  0
 17 16  1  0
 18 17  2  0
 19 11  1  0
 20 19  2  0
 22 21  1  0
 22 23  1  0
 24 23  1  0
 25 24  1  6
 25 26  1  0
 26 19  1  0
 27 28  1  0
 27 25  1  0
 29 27  2  0
M  END
$$$$
