EFM.pdb
     RDKit          3D

 29 29  0  0  1  0  0  0  0  0999 V2000
   24.3798  -21.5518  -18.0556 N   0  0  0  0  0  0  0  0  0  0  0  0
   23.3625  -20.5760  -17.7186 C   0  0  1  0  0  0  0  0  0  0  0  0
   22.3158  -20.4410  -18.7713 C   0  0  0  0  0  0  0  0  0  0  0  0
   22.3173  -19.1621  -19.5342 C   0  0  0  0  0  0  0  0  0  0  0  0
   22.7799  -17.9949  -18.7500 C   0  0  0  0  0  0  0  0  0  0  0  0
   24.0020  -17.7159  -18.6097 O   0  0  0  0  0  0  0  0  0  0  0  0
   22.6412  -20.9825  -16.4575 C   0  0  0  0  0  0  0  0  0  0  0  0
   22.4198  -22.2191  -16.3514 O   0  0  0  0  0  0  0  0  0  0  0  0
   21.8974  -17.1268  -18.1156 O   0  0  0  0  0  0  0  0  0  0  0  0
   22.2494  -20.0390  -15.4775 N   0  0  0  0  0  0  0  0  0  0  0  0
   21.5753  -20.4939  -14.2892 C   0  0  1  0  0  0  0  0  0  0  0  0
   21.7191  -19.5387  -13.1530 C   0  0  0  0  0  0  0  0  0  0  0  0
   21.0579  -19.9415  -11.8987 C   0  0  0  0  0  0  0  0  0  0  0  0
   21.0251  -19.0923  -10.7864 C   0  0  0  0  0  0  0  0  0  0  0  0
   20.4174  -19.4717   -9.6064 C   0  0  0  0  0  0  0  0  0  0  0  0
   19.8150  -20.7173   -9.4848 C   0  0  0  0  0  0  0  0  0  0  0  0
   19.8362  -21.5670  -10.5664 C   0  0  0  0  0  0  0  0  0  0  0  0
   20.4496  -21.1679  -11.7379 C   0  0  0  0  0  0  0  0  0  0  0  0
   20.1814  -20.9431  -14.5506 C   0  0  0  0  0  0  0  0  0  0  0  0
   19.4053  -20.1813  -15.1816 O   0  0  0  0  0  0  0  0  0  0  0  0
   18.4312  -27.1342  -13.6896 C   0  0  0  0  0  0  0  0  0  0  0  0
   16.9490  -26.5462  -14.5319 S   0  0  0  0  0  0  0  0  0  0  0  0
   16.9749  -24.7513  -14.6660 C   0  0  0  0  0  0  0  0  0  0  0  0
   18.2509  -24.1233  -14.2642 C   0  0  0  0  0  0  0  0  0  0  0  0
   18.3154  -22.6547  -14.3926 C   0  0  2  0  0  0  0  0  0  0  0  0
   19.6902  -22.1918  -14.1165 N   0  0  0  0  0  0  0  0  0  0  0  0
   17.3409  -21.9165  -13.6299 C   0  0  0  0  0  0  0  0  0  0  0  0
   16.1758  -21.4718  -14.2722 O   0  0  0  0  0  0  0  0  0  0  0  0
   17.4352  -21.6291  -12.4296 O   0  0  0  0  0  0  0  0  0  0  0  0
  2  1  1  6
  2  3  1  0
  3  4  1  0
  5  4  1  0
  6  5  2  0
  7  2  1  0
  7  8  2  0
  9  5  1  0
 10  7  1  0
 11 10  1  0
 11 12  1  1
 12 13  1  0
 13 14  2  0
 13 18  1  0
 14 15  1  0
 15 16  2  0
 17 16  1  0
 18 17  2  0
 19 11  1  0
 20 19  2  0
 22 21  1  0
 22 23  1  0
 24 23  1  0
 25 24  1  1
 25 26  1  0
 26 19  1  0
 27 28  1  0
 27 25  1  0
 29 27  2  0
M  END
$$$$
