EFM.pdb
     RDKit          3D

 29 29  0  0  1  0  0  0  0  0999 V2000
   25.9762  -24.1938  -15.7057 N   0  0  0  0  0  0  0  0  0  0  0  0
   26.2745  -22.7963  -15.4635 C   0  0  1  0  0  0  0  0  0  0  0  0
   25.4658  -21.8745  -16.3111 C   0  0  0  0  0  0  0  0  0  0  0  0
   25.9979  -21.6056  -17.6756 C   0  0  0  0  0  0  0  0  0  0  0  0
   27.3760  -21.0655  -17.6879 C   0  0  0  0  0  0  0  0  0  0  0  0
   27.6651  -19.9389  -17.1999 O   0  0  0  0  0  0  0  0  0  0  0  0
   25.9648  -22.4329  -14.0324 C   0  0  0  0  0  0  0  0  0  0  0  0
   24.9863  -23.0498  -13.5312 O   0  0  0  0  0  0  0  0  0  0  0  0
   28.4452  -21.7647  -18.2382 O   0  0  0  0  0  0  0  0  0  0  0  0
   26.7220  -21.4726  -13.3194 N   0  0  0  0  0  0  0  0  0  0  0  0
   26.3956  -21.1951  -11.9446 C   0  0  1  0  0  0  0  0  0  0  0  0
   27.5737  -20.7155  -11.1661 C   0  0  0  0  0  0  0  0  0  0  0  0
   27.3087  -20.3858   -9.7541 C   0  0  0  0  0  0  0  0  0  0  0  0
   26.2482  -19.5489   -9.3873 C   0  0  0  0  0  0  0  0  0  0  0  0
   26.0052  -19.2284   -8.0669 C   0  0  0  0  0  0  0  0  0  0  0  0
   26.8114  -19.7298   -7.0530 C   0  0  0  0  0  0  0  0  0  0  0  0
   27.8591  -20.5540   -7.3922 C   0  0  0  0  0  0  0  0  0  0  0  0
   28.0850  -20.8623   -8.7195 C   0  0  0  0  0  0  0  0  0  0  0  0
   25.1723  -20.3614  -11.7973 C   0  0  0  0  0  0  0  0  0  0  0  0
   25.2141  -19.1538  -12.1445 O   0  0  0  0  0  0  0  0  0  0  0  0
   22.7020  -19.4291  -16.0396 C   0  0  0  0  0  0  0  0  0  0  0  0
   21.0745  -19.3159  -15.2710 S   0  0  0  0  0  0  0  0  0  0  0  0
   21.2057  -19.5411  -13.4899 C   0  0  0  0  0  0  0  0  0  0  0  0
   22.4902  -20.1136  -13.0357 C   0  0  0  0  0  0  0  0  0  0  0  0
   22.6466  -20.2699  -11.5768 C   0  0  2  0  0  0  0  0  0  0  0  0
   23.9628  -20.8697  -11.2797 N   0  0  0  0  0  0  0  0  0  0  0  0
   21.5793  -20.9660  -10.9039 C   0  0  0  0  0  0  0  0  0  0  0  0
   21.7594  -22.3160  -10.5678 O   0  0  0  0  0  0  0  0  0  0  0  0
   20.4892  -20.4741  -10.5850 O   0  0  0  0  0  0  0  0  0  0  0  0
  2  1  1  1
  2  3  1  0
  3  4  1  0
  5  4  1  0
  6  5  2  0
  7  2  1  0
  7  8  2  0
  9  5  1  0
 10  7  1  0
 11 10  1  0
 11 12  1  6
 12 13  1  0
 13 14  2  0
 13 18  1  0
 14 15  1  0
 15 16  2  0
 17 16  1  0
 18 17  2  0
 19 11  1  0
 20 19  2  0
 22 21  1  0
 22 23  1  0
 24 23  1  0
 25 24  1  6
 25 26  1  0
 26 19  1  0
 27 28  1  0
 27 25  1  0
 29 27  2  0
M  END
$$$$
