EFM.pdb
     RDKit          3D

 29 29  0  0  1  0  0  0  0  0999 V2000
   27.0061  -22.7712  -17.6503 N   0  0  0  0  0  0  0  0  0  0  0  0
   27.0550  -21.5446  -16.8798 C   0  0  1  0  0  0  0  0  0  0  0  0
   26.5565  -20.3620  -17.6382 C   0  0  0  0  0  0  0  0  0  0  0  0
   25.5919  -20.6488  -18.7358 C   0  0  0  0  0  0  0  0  0  0  0  0
   24.2276  -20.1308  -18.4878 C   0  0  0  0  0  0  0  0  0  0  0  0
   23.2107  -20.8769  -18.4872 O   0  0  0  0  0  0  0  0  0  0  0  0
   26.1816  -21.6579  -15.6550 C   0  0  0  0  0  0  0  0  0  0  0  0
   25.2871  -22.5436  -15.7247 O   0  0  0  0  0  0  0  0  0  0  0  0
   23.9756  -18.7857  -18.2383 O   0  0  0  0  0  0  0  0  0  0  0  0
   26.3630  -20.8284  -14.5223 N   0  0  0  0  0  0  0  0  0  0  0  0
   25.5121  -21.0052  -13.3741 C   0  0  1  0  0  0  0  0  0  0  0  0
   26.0541  -20.3362  -12.1564 C   0  0  0  0  0  0  0  0  0  0  0  0
   25.2575  -20.5124  -10.9288 C   0  0  0  0  0  0  0  0  0  0  0  0
   24.2196  -19.6324  -10.6005 C   0  0  0  0  0  0  0  0  0  0  0  0
   23.4800  -19.7877   -9.4453 C   0  0  0  0  0  0  0  0  0  0  0  0
   23.7444  -20.8297   -8.5658 C   0  0  0  0  0  0  0  0  0  0  0  0
   24.7604  -21.7057   -8.8699 C   0  0  0  0  0  0  0  0  0  0  0  0
   25.4884  -21.5325  -10.0309 C   0  0  0  0  0  0  0  0  0  0  0  0
   24.0830  -20.7086  -13.6619 C   0  0  0  0  0  0  0  0  0  0  0  0
   23.7943  -19.6569  -14.2875 O   0  0  0  0  0  0  0  0  0  0  0  0
   20.0848  -22.8245  -17.3648 C   0  0  0  0  0  0  0  0  0  0  0  0
   18.8296  -22.4887  -16.1142 S   0  0  0  0  0  0  0  0  0  0  0  0
   19.5530  -21.6077  -14.7211 C   0  0  0  0  0  0  0  0  0  0  0  0
   20.9864  -21.8870  -14.4945 C   0  0  0  0  0  0  0  0  0  0  0  0
   21.6091  -21.1815  -13.3580 C   0  0  2  0  0  0  0  0  0  0  0  0
   23.0331  -21.5595  -13.2586 N   0  0  0  0  0  0  0  0  0  0  0  0
   20.9327  -21.3141  -12.0926 C   0  0  0  0  0  0  0  0  0  0  0  0
   19.8127  -20.5088  -11.8375 O   0  0  0  0  0  0  0  0  0  0  0  0
   21.2531  -22.0914  -11.1842 O   0  0  0  0  0  0  0  0  0  0  0  0
  2  1  1  6
  2  3  1  0
  3  4  1  0
  5  4  1  0
  6  5  2  0
  7  2  1  0
  7  8  2  0
  9  5  1  0
 10  7  1  0
 11 10  1  0
 11 12  1  1
 12 13  1  0
 13 14  2  0
 13 18  1  0
 14 15  1  0
 15 16  2  0
 17 16  1  0
 18 17  2  0
 19 11  1  0
 20 19  2  0
 22 21  1  0
 22 23  1  0
 24 23  1  0
 25 24  1  6
 25 26  1  0
 26 19  1  0
 27 28  1  0
 27 25  1  0
 29 27  2  0
M  END
$$$$
