EFM.pdb
     RDKit          3D

 29 29  0  0  1  0  0  0  0  0999 V2000
   27.7876  -23.3672  -17.5961 N   0  0  0  0  0  0  0  0  0  0  0  0
   27.5795  -22.0132  -17.1229 C   0  0  1  0  0  0  0  0  0  0  0  0
   26.7181  -21.2057  -18.0328 C   0  0  0  0  0  0  0  0  0  0  0  0
   27.3074  -20.8625  -19.3565 C   0  0  0  0  0  0  0  0  0  0  0  0
   28.4137  -19.8815  -19.2860 C   0  0  0  0  0  0  0  0  0  0  0  0
   28.2835  -18.7539  -18.7360 O   0  0  0  0  0  0  0  0  0  0  0  0
   26.8832  -22.0252  -15.7846 C   0  0  0  0  0  0  0  0  0  0  0  0
   26.1610  -23.0369  -15.5746 O   0  0  0  0  0  0  0  0  0  0  0  0
   29.6717  -20.1378  -19.8213 O   0  0  0  0  0  0  0  0  0  0  0  0
   27.0375  -20.9759  -14.8468 N   0  0  0  0  0  0  0  0  0  0  0  0
   26.3453  -21.0482  -13.5862 C   0  0  1  0  0  0  0  0  0  0  0  0
   27.0748  -20.3394  -12.4956 C   0  0  0  0  0  0  0  0  0  0  0  0
   26.4334  -20.3865  -11.1693 C   0  0  0  0  0  0  0  0  0  0  0  0
   25.5025  -19.4183  -10.7747 C   0  0  0  0  0  0  0  0  0  0  0  0
   24.9096  -19.4529   -9.5286 C   0  0  0  0  0  0  0  0  0  0  0  0
   25.2202  -20.4567   -8.6204 C   0  0  0  0  0  0  0  0  0  0  0  0
   26.1328  -21.4179   -8.9886 C   0  0  0  0  0  0  0  0  0  0  0  0
   26.7147  -21.3650  -10.2401 C   0  0  0  0  0  0  0  0  0  0  0  0
   24.9031  -20.7005  -13.6972 C   0  0  0  0  0  0  0  0  0  0  0  0
   24.5778  -19.6331  -14.2765 O   0  0  0  0  0  0  0  0  0  0  0  0
   20.6227  -24.6451  -15.7318 C   0  0  0  0  0  0  0  0  0  0  0  0
   19.4612  -23.6853  -14.7408 S   0  0  0  0  0  0  0  0  0  0  0  0
   20.2777  -22.2414  -14.0418 C   0  0  0  0  0  0  0  0  0  0  0  0
   21.7285  -22.4059  -13.8139 C   0  0  0  0  0  0  0  0  0  0  0  0
   22.4450  -21.2100  -13.3303 C   0  0  2  0  0  0  0  0  0  0  0  0
   23.8805  -21.5197  -13.1754 N   0  0  0  0  0  0  0  0  0  0  0  0
   21.9024  -20.5909  -12.1477 C   0  0  0  0  0  0  0  0  0  0  0  0
   20.9043  -19.6159  -12.2926 O   0  0  0  0  0  0  0  0  0  0  0  0
   22.2412  -20.8435  -10.9843 O   0  0  0  0  0  0  0  0  0  0  0  0
  2  1  1  6
  2  3  1  0
  3  4  1  0
  5  4  1  0
  6  5  2  0
  7  2  1  0
  7  8  2  0
  9  5  1  0
 10  7  1  0
 11 10  1  0
 11 12  1  1
 12 13  1  0
 13 14  2  0
 13 18  1  0
 14 15  1  0
 15 16  2  0
 17 16  1  0
 18 17  2  0
 19 11  1  0
 20 19  2  0
 22 21  1  0
 22 23  1  0
 24 23  1  0
 25 24  1  1
 25 26  1  0
 26 19  1  0
 27 28  1  0
 27 25  1  0
 29 27  2  0
M  END
$$$$
