EFM.pdb
     RDKit          3D

 29 29  0  0  1  0  0  0  0  0999 V2000
   35.5783  -16.2453  -20.6063 N   0  0  0  0  0  0  0  0  0  0  0  0
   34.4197  -15.9173  -19.7995 C   0  0  1  0  0  0  0  0  0  0  0  0
   33.7109  -14.6938  -20.2713 C   0  0  0  0  0  0  0  0  0  0  0  0
   34.4804  -13.4213  -20.1919 C   0  0  0  0  0  0  0  0  0  0  0  0
   34.4410  -12.7770  -18.8598 C   0  0  0  0  0  0  0  0  0  0  0  0
   33.6409  -13.1419  -17.9555 O   0  0  0  0  0  0  0  0  0  0  0  0
   33.4089  -17.0360  -19.8519 C   0  0  0  0  0  0  0  0  0  0  0  0
   33.1245  -17.4364  -21.0129 O   0  0  0  0  0  0  0  0  0  0  0  0
   35.2844  -11.7258  -18.5156 O   0  0  0  0  0  0  0  0  0  0  0  0
   32.8325  -17.5845  -18.6809 N   0  0  0  0  0  0  0  0  0  0  0  0
   31.9091  -18.6833  -18.7966 C   0  0  1  0  0  0  0  0  0  0  0  0
   32.3504  -19.8804  -18.0244 C   0  0  0  0  0  0  0  0  0  0  0  0
   33.5123  -20.5989  -18.5782 C   0  0  0  0  0  0  0  0  0  0  0  0
   34.8185  -20.1375  -18.3774 C   0  0  0  0  0  0  0  0  0  0  0  0
   35.9076  -20.8013  -18.9052 C   0  0  0  0  0  0  0  0  0  0  0  0
   35.7404  -21.9566  -19.6579 C   0  0  0  0  0  0  0  0  0  0  0  0
   34.4647  -22.4268  -19.8672 C   0  0  0  0  0  0  0  0  0  0  0  0
   33.3886  -21.7475  -19.3302 C   0  0  0  0  0  0  0  0  0  0  0  0
   30.4966  -18.2792  -18.5629 C   0  0  0  0  0  0  0  0  0  0  0  0
   30.2583  -17.3317  -17.7715 O   0  0  0  0  0  0  0  0  0  0  0  0
   26.1290  -16.3374  -22.2916 C   0  0  0  0  0  0  0  0  0  0  0  0
   26.2619  -15.3353  -20.7981 S   0  0  0  0  0  0  0  0  0  0  0  0
   26.6235  -16.3765  -19.3750 C   0  0  0  0  0  0  0  0  0  0  0  0
   27.9664  -16.9933  -19.3900 C   0  0  0  0  0  0  0  0  0  0  0  0
   28.0176  -18.4348  -19.0789 C   0  0  2  0  0  0  0  0  0  0  0  0
   29.4082  -18.9184  -19.1921 N   0  0  0  0  0  0  0  0  0  0  0  0
   27.1019  -19.2672  -19.8172 C   0  0  0  0  0  0  0  0  0  0  0  0
   27.4937  -19.7542  -21.0730 O   0  0  0  0  0  0  0  0  0  0  0  0
   25.9720  -19.6032  -19.4397 O   0  0  0  0  0  0  0  0  0  0  0  0
  2  1  1  6
  2  3  1  0
  3  4  1  0
  5  4  1  0
  6  5  2  0
  7  2  1  0
  7  8  2  0
  9  5  1  0
 10  7  1  0
 11 10  1  0
 11 12  1  1
 12 13  1  0
 13 14  2  0
 13 18  1  0
 14 15  1  0
 15 16  2  0
 17 16  1  0
 18 17  2  0
 19 11  1  0
 20 19  2  0
 22 21  1  0
 22 23  1  0
 24 23  1  0
 25 24  1  6
 25 26  1  0
 26 19  1  0
 27 28  1  0
 27 25  1  0
 29 27  2  0
M  END
$$$$
