EFM.pdb
     RDKit          3D

 29 29  0  0  1  0  0  0  0  0999 V2000
   27.9634  -23.7505  -16.3766 N   0  0  0  0  0  0  0  0  0  0  0  0
   27.1783  -22.5437  -16.5441 C   0  0  1  0  0  0  0  0  0  0  0  0
   26.2603  -22.6061  -17.7168 C   0  0  0  0  0  0  0  0  0  0  0  0
   26.8940  -22.4305  -19.0529 C   0  0  0  0  0  0  0  0  0  0  0  0
   27.4281  -21.0706  -19.2909 C   0  0  0  0  0  0  0  0  0  0  0  0
   27.1509  -20.0945  -18.5417 O   0  0  0  0  0  0  0  0  0  0  0  0
   26.3038  -22.3137  -15.3366 C   0  0  0  0  0  0  0  0  0  0  0  0
   25.8806  -23.3646  -14.7835 O   0  0  0  0  0  0  0  0  0  0  0  0
   28.2724  -20.7781  -20.3570 O   0  0  0  0  0  0  0  0  0  0  0  0
   25.9906  -21.0139  -14.8711 N   0  0  0  0  0  0  0  0  0  0  0  0
   25.2116  -20.8629  -13.6695 C   0  0  1  0  0  0  0  0  0  0  0  0
   25.7625  -19.8147  -12.7629 C   0  0  0  0  0  0  0  0  0  0  0  0
   26.7682  -20.2815  -11.7916 C   0  0  0  0  0  0  0  0  0  0  0  0
   26.4142  -20.6167  -10.4795 C   0  0  0  0  0  0  0  0  0  0  0  0
   27.3558  -21.0423   -9.5642 C   0  0  0  0  0  0  0  0  0  0  0  0
   28.6942  -21.1521   -9.9191 C   0  0  0  0  0  0  0  0  0  0  0  0
   29.0631  -20.8274  -11.2039 C   0  0  0  0  0  0  0  0  0  0  0  0
   28.1052  -20.4036  -12.1043 C   0  0  0  0  0  0  0  0  0  0  0  0
   23.7525  -20.7494  -13.9363 C   0  0  0  0  0  0  0  0  0  0  0  0
   23.3526  -19.9109  -14.7835 O   0  0  0  0  0  0  0  0  0  0  0  0
   18.8558  -25.3252  -14.4107 C   0  0  0  0  0  0  0  0  0  0  0  0
   18.3706  -24.2063  -13.0822 S   0  0  0  0  0  0  0  0  0  0  0  0
   19.1720  -22.6074  -13.2855 C   0  0  0  0  0  0  0  0  0  0  0  0
   20.6470  -22.6442  -13.2030 C   0  0  0  0  0  0  0  0  0  0  0  0
   21.3391  -21.3655  -13.4541 C   0  0  2  0  0  0  0  0  0  0  0  0
   22.7939  -21.5443  -13.2743 N   0  0  0  0  0  0  0  0  0  0  0  0
   20.8458  -20.2312  -12.7149 C   0  0  0  0  0  0  0  0  0  0  0  0
   19.9382  -19.3617  -13.3378 O   0  0  0  0  0  0  0  0  0  0  0  0
   21.1540  -19.9423  -11.5515 O   0  0  0  0  0  0  0  0  0  0  0  0
  2  1  1  1
  2  3  1  0
  3  4  1  0
  5  4  1  0
  6  5  2  0
  7  2  1  0
  7  8  2  0
  9  5  1  0
 10  7  1  0
 11 10  1  0
 11 12  1  6
 12 13  1  0
 13 14  2  0
 13 18  1  0
 14 15  1  0
 15 16  2  0
 17 16  1  0
 18 17  2  0
 19 11  1  0
 20 19  2  0
 22 21  1  0
 22 23  1  0
 24 23  1  0
 25 24  1  1
 25 26  1  0
 26 19  1  0
 27 28  1  0
 27 25  1  0
 29 27  2  0
M  END
$$$$
