EFM.pdb
     RDKit          3D

 29 29  0  0  1  0  0  0  0  0999 V2000
   26.4442  -22.5723  -13.9947 N   0  0  0  0  0  0  0  0  0  0  0  0
   26.0276  -21.3297  -13.3759 C   0  0  1  0  0  0  0  0  0  0  0  0
   24.6122  -20.9751  -13.6805 C   0  0  0  0  0  0  0  0  0  0  0  0
   24.2995  -20.7051  -15.1111 C   0  0  0  0  0  0  0  0  0  0  0  0
   22.9456  -20.1506  -15.3363 C   0  0  0  0  0  0  0  0  0  0  0  0
   22.3536  -20.2415  -16.4464 O   0  0  0  0  0  0  0  0  0  0  0  0
   26.1220  -21.4329  -11.8738 C   0  0  0  0  0  0  0  0  0  0  0  0
   25.8140  -22.5606  -11.4019 O   0  0  0  0  0  0  0  0  0  0  0  0
   22.2348  -19.4923  -14.3382 O   0  0  0  0  0  0  0  0  0  0  0  0
   26.5263  -20.3409  -11.0686 N   0  0  0  0  0  0  0  0  0  0  0  0
   26.4634  -20.4594   -9.6349 C   0  0  1  0  0  0  0  0  0  0  0  0
   27.3277  -19.4601   -8.9434 C   0  0  0  0  0  0  0  0  0  0  0  0
   27.4356  -19.6189   -7.4819 C   0  0  0  0  0  0  0  0  0  0  0  0
   28.2817  -20.5781   -6.9131 C   0  0  0  0  0  0  0  0  0  0  0  0
   28.3755  -20.7374   -5.5452 C   0  0  0  0  0  0  0  0  0  0  0  0
   27.6275  -19.9453   -4.6836 C   0  0  0  0  0  0  0  0  0  0  0  0
   26.7896  -18.9967   -5.2224 C   0  0  0  0  0  0  0  0  0  0  0  0
   26.7106  -18.8535   -6.5939 C   0  0  0  0  0  0  0  0  0  0  0  0
   25.0693  -20.5364   -9.1213 C   0  0  0  0  0  0  0  0  0  0  0  0
   24.1691  -19.8812   -9.7054 O   0  0  0  0  0  0  0  0  0  0  0  0
   23.2005  -21.8413   -2.9836 C   0  0  0  0  0  0  0  0  0  0  0  0
   21.9262  -22.7382   -3.8914 S   0  0  0  0  0  0  0  0  0  0  0  0
   21.9332  -22.2532   -5.6249 C   0  0  0  0  0  0  0  0  0  0  0  0
   23.2768  -22.0069   -6.1889 C   0  0  0  0  0  0  0  0  0  0  0  0
   23.3129  -21.5334   -7.5860 C   0  0  2  0  0  0  0  0  0  0  0  0
   24.7132  -21.3145   -8.0002 N   0  0  0  0  0  0  0  0  0  0  0  0
   22.4847  -20.3918   -7.8814 C   0  0  0  0  0  0  0  0  0  0  0  0
   21.2019  -20.6056   -8.4072 O   0  0  0  0  0  0  0  0  0  0  0  0
   22.8048  -19.2084   -7.7112 O   0  0  0  0  0  0  0  0  0  0  0  0
  2  1  1  6
  2  3  1  0
  3  4  1  0
  5  4  1  0
  6  5  2  0
  7  2  1  0
  7  8  2  0
  9  5  1  0
 10  7  1  0
 11 10  1  0
 11 12  1  1
 12 13  1  0
 13 14  2  0
 13 18  1  0
 14 15  1  0
 15 16  2  0
 17 16  1  0
 18 17  2  0
 19 11  1  0
 20 19  2  0
 22 21  1  0
 22 23  1  0
 24 23  1  0
 25 24  1  1
 25 26  1  0
 26 19  1  0
 27 28  1  0
 27 25  1  0
 29 27  2  0
M  END
$$$$
