EFM.pdb
     RDKit          3D

 29 29  0  0  1  0  0  0  0  0999 V2000
   29.7342  -26.8973  -18.4995 N   0  0  0  0  0  0  0  0  0  0  0  0
   28.9789  -27.3906  -17.3650 C   0  0  1  0  0  0  0  0  0  0  0  0
   27.6228  -26.7807  -17.2606 C   0  0  0  0  0  0  0  0  0  0  0  0
   27.5758  -25.3681  -16.7918 C   0  0  0  0  0  0  0  0  0  0  0  0
   26.2049  -24.8386  -16.6149 C   0  0  0  0  0  0  0  0  0  0  0  0
   25.6556  -24.0863  -17.4654 O   0  0  0  0  0  0  0  0  0  0  0  0
   28.7633  -28.8789  -17.4841 C   0  0  0  0  0  0  0  0  0  0  0  0
   28.4339  -29.2741  -18.6350 O   0  0  0  0  0  0  0  0  0  0  0  0
   25.4299  -25.1357  -15.4987 O   0  0  0  0  0  0  0  0  0  0  0  0
   28.9218  -29.7526  -16.3816 N   0  0  0  0  0  0  0  0  0  0  0  0
   28.7644  -31.1707  -16.5761 C   0  0  1  0  0  0  0  0  0  0  0  0
   30.0195  -31.9258  -16.2957 C   0  0  0  0  0  0  0  0  0  0  0  0
   31.0868  -31.7770  -17.3014 C   0  0  0  0  0  0  0  0  0  0  0  0
   30.9551  -32.3104  -18.5889 C   0  0  0  0  0  0  0  0  0  0  0  0
   31.9581  -32.1832  -19.5288 C   0  0  0  0  0  0  0  0  0  0  0  0
   33.1383  -31.5173  -19.2243 C   0  0  0  0  0  0  0  0  0  0  0  0
   33.2878  -30.9858  -17.9644 C   0  0  0  0  0  0  0  0  0  0  0  0
   32.2720  -31.1241  -17.0386 C   0  0  0  0  0  0  0  0  0  0  0  0
   27.5501  -31.7147  -15.9108 C   0  0  0  0  0  0  0  0  0  0  0  0
   27.2292  -31.2751  -14.7773 O   0  0  0  0  0  0  0  0  0  0  0  0
   21.5271  -30.3771  -16.2052 C   0  0  0  0  0  0  0  0  0  0  0  0
   21.9326  -32.1270  -16.0446 S   0  0  0  0  0  0  0  0  0  0  0  0
   23.3274  -32.3471  -14.9283 C   0  0  0  0  0  0  0  0  0  0  0  0
   24.6439  -32.0273  -15.5189 C   0  0  0  0  0  0  0  0  0  0  0  0
   25.4816  -33.1835  -15.8913 C   0  0  2  0  0  0  0  0  0  0  0  0
   26.7412  -32.7091  -16.4988 N   0  0  0  0  0  0  0  0  0  0  0  0
   24.8405  -34.1843  -16.7059 C   0  0  0  0  0  0  0  0  0  0  0  0
   24.2256  -35.2764  -16.0756 O   0  0  0  0  0  0  0  0  0  0  0  0
   24.7780  -34.1730  -17.9420 O   0  0  0  0  0  0  0  0  0  0  0  0
  2  1  1  6
  2  3  1  0
  3  4  1  0
  5  4  1  0
  6  5  2  0
  7  2  1  0
  7  8  2  0
  9  5  1  0
 10  7  1  0
 11 10  1  0
 11 12  1  1
 12 13  1  0
 13 14  2  0
 13 18  1  0
 14 15  1  0
 15 16  2  0
 17 16  1  0
 18 17  2  0
 19 11  1  0
 20 19  2  0
 22 21  1  0
 22 23  1  0
 24 23  1  0
 25 24  1  6
 25 26  1  0
 26 19  1  0
 27 28  1  0
 27 25  1  0
 29 27  2  0
M  END
$$$$
