EFM.pdb
     RDKit          3D

 29 29  0  0  1  0  0  0  0  0999 V2000
   27.2807  -20.5770  -19.2160 N   0  0  0  0  0  0  0  0  0  0  0  0
   26.6465  -19.5657  -18.3941 C   0  0  1  0  0  0  0  0  0  0  0  0
   25.4172  -18.9977  -19.0173 C   0  0  0  0  0  0  0  0  0  0  0  0
   25.6277  -18.1522  -20.2249 C   0  0  0  0  0  0  0  0  0  0  0  0
   26.4284  -16.9329  -19.9731 C   0  0  0  0  0  0  0  0  0  0  0  0
   25.9906  -15.9648  -19.2934 O   0  0  0  0  0  0  0  0  0  0  0  0
   26.2153  -20.1554  -17.0741 C   0  0  0  0  0  0  0  0  0  0  0  0
   25.6663  -21.2873  -17.1560 O   0  0  0  0  0  0  0  0  0  0  0  0
   27.7182  -16.7733  -20.4690 O   0  0  0  0  0  0  0  0  0  0  0  0
   26.4177  -19.4800  -15.8465 N   0  0  0  0  0  0  0  0  0  0  0  0
   25.9209  -20.0655  -14.6283 C   0  0  1  0  0  0  0  0  0  0  0  0
   26.7156  -19.6552  -13.4349 C   0  0  0  0  0  0  0  0  0  0  0  0
   26.2916  -20.2517  -12.1554 C   0  0  0  0  0  0  0  0  0  0  0  0
   25.3603  -19.6147  -11.3270 C   0  0  0  0  0  0  0  0  0  0  0  0
   24.9708  -20.1650  -10.1224 C   0  0  0  0  0  0  0  0  0  0  0  0
   25.4946  -21.3769   -9.6912 C   0  0  0  0  0  0  0  0  0  0  0  0
   26.4114  -22.0192  -10.4907 C   0  0  0  0  0  0  0  0  0  0  0  0
   26.7877  -21.4515  -11.6923 C   0  0  0  0  0  0  0  0  0  0  0  0
   24.4484  -19.9194  -14.4746 C   0  0  0  0  0  0  0  0  0  0  0  0
   23.9309  -18.7837  -14.6267 O   0  0  0  0  0  0  0  0  0  0  0  0
   19.8849  -23.4905  -17.2036 C   0  0  0  0  0  0  0  0  0  0  0  0
   19.1977  -23.3097  -15.5460 S   0  0  0  0  0  0  0  0  0  0  0  0
   19.9848  -21.9371  -14.6877 C   0  0  0  0  0  0  0  0  0  0  0  0
   21.4586  -21.9101  -14.7934 C   0  0  0  0  0  0  0  0  0  0  0  0
   22.1427  -20.8675  -14.0044 C   0  0  2  0  0  0  0  0  0  0  0  0
   23.6046  -21.0051  -14.1612 N   0  0  0  0  0  0  0  0  0  0  0  0
   21.7609  -20.7807  -12.6177 C   0  0  0  0  0  0  0  0  0  0  0  0
   22.6828  -21.1761  -11.6370 O   0  0  0  0  0  0  0  0  0  0  0  0
   20.6682  -20.3797  -12.1968 O   0  0  0  0  0  0  0  0  0  0  0  0
  2  1  1  6
  2  3  1  0
  3  4  1  0
  5  4  1  0
  6  5  2  0
  7  2  1  0
  7  8  2  0
  9  5  1  0
 10  7  1  0
 11 10  1  0
 11 12  1  1
 12 13  1  0
 13 14  2  0
 13 18  1  0
 14 15  1  0
 15 16  2  0
 17 16  1  0
 18 17  2  0
 19 11  1  0
 20 19  2  0
 22 21  1  0
 22 23  1  0
 24 23  1  0
 25 24  1  1
 25 26  1  0
 26 19  1  0
 27 28  1  0
 27 25  1  0
 29 27  2  0
M  END
$$$$
