VTE.pdb
     RDKit          3D

 24 23  0  0  1  0  0  0  0  0999 V2000
   12.4957  -10.2367   -8.8192 C   0  0  0  0  0  0  0  0  0  0  0  0
   12.5533  -10.9811  -10.1368 C   0  0  2  0  0  0  0  0  0  0  0  0
   12.3003  -12.4422   -9.8337 C   0  0  0  0  0  0  0  0  0  0  0  0
   13.9569  -10.7946  -10.7267 C   0  0  2  0  0  0  0  0  0  0  0  0
   14.9222  -11.4637   -9.9117 N   0  0  0  0  0  0  0  0  0  0  0  0
   14.2569   -9.3523  -10.9117 C   0  0  0  0  0  0  0  0  0  0  0  0
   13.4898   -8.6401  -11.6096 O   0  0  0  0  0  0  0  0  0  0  0  0
   14.7082   -6.5696   -8.2210 C   0  0  0  0  0  0  0  0  0  0  0  0
   15.9298   -6.6655   -9.1056 C   0  0  1  0  0  0  0  0  0  0  0  0
   16.8544   -7.4620   -8.4437 O   0  0  0  0  0  0  0  0  0  0  0  0
   15.6420   -7.2904  -10.4310 C   0  0  2  0  0  0  0  0  0  0  0  0
   15.3688   -8.7063  -10.3466 N   0  0  0  0  0  0  0  0  0  0  0  0
   16.7700   -7.0992  -11.3551 C   0  0  0  0  0  0  0  0  0  0  0  0
   17.7252   -7.9619  -11.3757 O   0  0  0  0  0  0  0  0  0  0  0  0
   16.9321   -6.0329  -12.2626 N   0  0  0  0  0  0  0  0  0  0  0  0
   17.8869   -6.0507  -13.3821 C   0  0  1  0  0  0  0  0  0  0  0  0
   17.6386   -7.3134  -14.1684 C   0  0  0  0  0  0  0  0  0  0  0  0
   18.4649   -7.4102  -15.4263 C   0  0  0  0  0  0  0  0  0  0  0  0
   18.2136   -8.7278  -16.0926 C   0  0  0  0  0  0  0  0  0  0  0  0
   18.4310   -9.8213  -15.5144 O   0  0  0  0  0  0  0  0  0  0  0  0
   17.8055   -4.8268  -14.1708 C   0  0  0  0  0  0  0  0  0  0  0  0
   16.7454   -4.1775  -14.2742 O   0  0  0  0  0  0  0  0  0  0  0  0
   17.7272   -8.7705  -17.3844 O   0  0  0  0  0  0  0  0  0  0  0  0
   18.9275   -4.3560  -14.8317 O   0  0  0  0  0  0  0  0  0  0  0  0
  2  1  1  1
  2  3  1  0
  4  2  1  0
  4  6  1  0
  4  5  1  1
  6 12  1  0
  7  6  2  0
  9 11  1  0
  9  8  1  1
 10  9  1  0
 11 12  1  1
 13 14  2  0
 13 11  1  0
 15 13  1  0
 16 15  1  0
 16 21  1  0
 16 17  1  6
 18 17  1  0
 19 18  1  0
 20 19  2  0
 21 24  1  0
 22 21  2  0
 23 19  1  0
M  END
$$$$
