VTE.pdb
     RDKit          3D

 24 23  0  0  1  0  0  0  0  0999 V2000
   20.8959  -13.4174  -17.8090 C   0  0  0  0  0  0  0  0  0  0  0  0
   19.4083  -13.2017  -17.6246 C   0  0  2  0  0  0  0  0  0  0  0  0
   18.7260  -13.7149  -18.8743 C   0  0  0  0  0  0  0  0  0  0  0  0
   19.1630  -11.6961  -17.4638 C   0  0  2  0  0  0  0  0  0  0  0  0
   19.3973  -11.0276  -18.7055 N   0  0  0  0  0  0  0  0  0  0  0  0
   19.9806  -11.1510  -16.3507 C   0  0  0  0  0  0  0  0  0  0  0  0
   19.7935  -11.5660  -15.1779 O   0  0  0  0  0  0  0  0  0  0  0  0
   23.2542  -11.5997  -15.1229 C   0  0  0  0  0  0  0  0  0  0  0  0
   23.1748  -10.1214  -15.4267 C   0  0  1  0  0  0  0  0  0  0  0  0
   23.7310   -9.9304  -16.6843 O   0  0  0  0  0  0  0  0  0  0  0  0
   21.7733   -9.6067  -15.4550 C   0  0  2  0  0  0  0  0  0  0  0  0
   20.9780  -10.1762  -16.5179 N   0  0  0  0  0  0  0  0  0  0  0  0
   21.7565   -8.1441  -15.6081 C   0  0  0  0  0  0  0  0  0  0  0  0
   21.4332   -7.6296  -16.7430 O   0  0  0  0  0  0  0  0  0  0  0  0
   22.0663   -7.1982  -14.6099 N   0  0  0  0  0  0  0  0  0  0  0  0
   21.8116   -5.7552  -14.7445 C   0  0  1  0  0  0  0  0  0  0  0  0
   20.3357   -5.5781  -14.9992 C   0  0  0  0  0  0  0  0  0  0  0  0
   19.8999   -4.1345  -15.0271 C   0  0  0  0  0  0  0  0  0  0  0  0
   18.4194   -4.0605  -15.2412 C   0  0  0  0  0  0  0  0  0  0  0  0
   17.7057   -5.0896  -15.3366 O   0  0  0  0  0  0  0  0  0  0  0  0
   22.3146   -5.0161  -13.5923 C   0  0  0  0  0  0  0  0  0  0  0  0
   22.4427   -5.5482  -12.4714 O   0  0  0  0  0  0  0  0  0  0  0  0
   17.7930   -2.8337  -15.3405 O   0  0  0  0  0  0  0  0  0  0  0  0
   22.6656   -3.6834  -13.7272 O   0  0  0  0  0  0  0  0  0  0  0  0
  2  1  1  6
  2  3  1  0
  4  2  1  0
  4  6  1  0
  4  5  1  6
  6 12  1  0
  7  6  2  0
  9 11  1  0
  9  8  1  6
 10  9  1  0
 11 12  1  6
 13 14  2  0
 13 11  1  0
 15 13  1  0
 16 15  1  0
 16 21  1  0
 16 17  1  1
 18 17  1  0
 19 18  1  0
 20 19  2  0
 21 24  1  0
 22 21  2  0
 23 19  1  0
M  END
$$$$
