VTE.pdb
     RDKit          3D

 24 23  0  0  1  0  0  0  0  0999 V2000
   17.5392  -14.2220  -16.0791 C   0  0  0  0  0  0  0  0  0  0  0  0
   17.6951  -12.7287  -16.2767 C   0  0  2  0  0  0  0  0  0  0  0  0
   19.1760  -12.4511  -16.4198 C   0  0  0  0  0  0  0  0  0  0  0  0
   17.1387  -12.0243  -15.0328 C   0  0  2  0  0  0  0  0  0  0  0  0
   15.7729  -12.3953  -14.8312 N   0  0  0  0  0  0  0  0  0  0  0  0
   17.3292  -10.5555  -15.1370 C   0  0  0  0  0  0  0  0  0  0  0  0
   16.8305   -9.9290  -16.1072 O   0  0  0  0  0  0  0  0  0  0  0  0
   15.8166   -7.8966  -13.5184 C   0  0  0  0  0  0  0  0  0  0  0  0
   17.2846   -7.6671  -13.2421 C   0  0  1  0  0  0  0  0  0  0  0  0
   17.5505   -8.1837  -11.9813 O   0  0  0  0  0  0  0  0  0  0  0  0
   18.1766   -8.3535  -14.2236 C   0  0  2  0  0  0  0  0  0  0  0  0
   18.0478   -9.7921  -14.2022 N   0  0  0  0  0  0  0  0  0  0  0  0
   19.5864   -8.0193  -13.9714 C   0  0  0  0  0  0  0  0  0  0  0  0
   20.4829   -8.9378  -14.0716 O   0  0  0  0  0  0  0  0  0  0  0  0
   20.0920   -6.7519  -13.6180 N   0  0  0  0  0  0  0  0  0  0  0  0
   21.5267   -6.4285  -13.5713 C   0  0  1  0  0  0  0  0  0  0  0  0
   22.1239   -6.8284  -14.8972 C   0  0  0  0  0  0  0  0  0  0  0  0
   21.6851   -5.9512  -16.0429 C   0  0  0  0  0  0  0  0  0  0  0  0
   22.4271   -6.3382  -17.2850 C   0  0  0  0  0  0  0  0  0  0  0  0
   21.9716   -7.1768  -18.1015 O   0  0  0  0  0  0  0  0  0  0  0  0
   21.7463   -5.0325  -13.2109 C   0  0  0  0  0  0  0  0  0  0  0  0
   22.8757   -4.5994  -12.9061 O   0  0  0  0  0  0  0  0  0  0  0  0
   23.6539   -5.7698  -17.5659 O   0  0  0  0  0  0  0  0  0  0  0  0
   20.6820   -4.1469  -13.2012 O   0  0  0  0  0  0  0  0  0  0  0  0
  2  1  1  1
  2  3  1  0
  4  2  1  0
  4  6  1  0
  4  5  1  6
  6 12  1  0
  7  6  2  0
  9 11  1  0
  9  8  1  6
 10  9  1  0
 11 12  1  1
 13 14  2  0
 13 11  1  0
 15 13  1  0
 16 15  1  0
 16 21  1  0
 16 17  1  6
 18 17  1  0
 19 18  1  0
 20 19  2  0
 21 24  1  0
 22 21  2  0
 23 19  1  0
M  END
$$$$
