VTE.pdb
     RDKit          3D

 24 23  0  0  1  0  0  0  0  0999 V2000
   15.6153  -13.5890  -16.5954 C   0  0  0  0  0  0  0  0  0  0  0  0
   16.9415  -14.2623  -16.8807 C   0  0  2  0  0  0  0  0  0  0  0  0
   16.8440  -15.6779  -16.3543 C   0  0  0  0  0  0  0  0  0  0  0  0
   18.0365  -13.4904  -16.1339 C   0  0  2  0  0  0  0  0  0  0  0  0
   17.7877  -13.5282  -14.7267 N   0  0  0  0  0  0  0  0  0  0  0  0
   18.1528  -12.1080  -16.6633 C   0  0  0  0  0  0  0  0  0  0  0  0
   18.4932  -11.9251  -17.8605 O   0  0  0  0  0  0  0  0  0  0  0  0
   16.0765   -9.5584  -17.9153 C   0  0  0  0  0  0  0  0  0  0  0  0
   16.7468   -8.9468  -16.7067 C   0  0  1  0  0  0  0  0  0  0  0  0
   15.8873   -9.1180  -15.6301 O   0  0  0  0  0  0  0  0  0  0  0  0
   18.0484   -9.5972  -16.3708 C   0  0  2  0  0  0  0  0  0  0  0  0
   17.9027  -10.9553  -15.9007 N   0  0  0  0  0  0  0  0  0  0  0  0
   18.7635   -8.8327  -15.3378 C   0  0  0  0  0  0  0  0  0  0  0  0
   18.6911   -9.2075  -14.1083 O   0  0  0  0  0  0  0  0  0  0  0  0
   19.5559   -7.6861  -15.5485 N   0  0  0  0  0  0  0  0  0  0  0  0
   20.2494   -6.9628  -14.4710 C   0  0  1  0  0  0  0  0  0  0  0  0
   21.7013   -6.8503  -14.8633 C   0  0  0  0  0  0  0  0  0  0  0  0
   22.5377   -6.0950  -13.8610 C   0  0  0  0  0  0  0  0  0  0  0  0
   22.4758   -4.6283  -14.1584 C   0  0  0  0  0  0  0  0  0  0  0  0
   22.9110   -4.1455  -15.2330 O   0  0  0  0  0  0  0  0  0  0  0  0
   19.6044   -5.6864  -14.1855 C   0  0  0  0  0  0  0  0  0  0  0  0
   19.1198   -4.9752  -15.0885 O   0  0  0  0  0  0  0  0  0  0  0  0
   21.9276   -3.7563  -13.2385 O   0  0  0  0  0  0  0  0  0  0  0  0
   19.5177   -5.2341  -12.8797 O   0  0  0  0  0  0  0  0  0  0  0  0
  2  1  1  1
  2  3  1  0
  4  2  1  0
  4  6  1  0
  4  5  1  1
  6 12  1  0
  7  6  2  0
  9 11  1  0
  9  8  1  6
 10  9  1  0
 11 12  1  1
 13 14  2  0
 13 11  1  0
 15 13  1  0
 16 15  1  0
 16 21  1  0
 16 17  1  6
 18 17  1  0
 19 18  1  0
 20 19  2  0
 21 24  1  0
 22 21  2  0
 23 19  1  0
M  END
$$$$
