VTE.pdb
     RDKit          3D

 24 23  0  0  1  0  0  0  0  0999 V2000
   16.7529  -14.4000  -17.5982 C   0  0  0  0  0  0  0  0  0  0  0  0
   17.2070  -14.7579  -16.1984 C   0  0  2  0  0  0  0  0  0  0  0  0
   16.0843  -15.5414  -15.5533 C   0  0  0  0  0  0  0  0  0  0  0  0
   17.4553  -13.4530  -15.4314 C   0  0  2  0  0  0  0  0  0  0  0  0
   16.2090  -12.8317  -15.1080 N   0  0  0  0  0  0  0  0  0  0  0  0
   18.3631  -12.5627  -16.1981 C   0  0  0  0  0  0  0  0  0  0  0  0
   19.5366  -12.9379  -16.4523 O   0  0  0  0  0  0  0  0  0  0  0  0
   18.9624  -11.4761  -19.5922 C   0  0  0  0  0  0  0  0  0  0  0  0
   18.5919  -10.2388  -18.8075 C   0  0  1  0  0  0  0  0  0  0  0  0
   17.2263  -10.0456  -18.9666 O   0  0  0  0  0  0  0  0  0  0  0  0
   18.8763  -10.3679  -17.3472 C   0  0  2  0  0  0  0  0  0  0  0  0
   17.9949  -11.2936  -16.6742 N   0  0  0  0  0  0  0  0  0  0  0  0
   18.7651   -9.0642  -16.6757 C   0  0  0  0  0  0  0  0  0  0  0  0
   17.6794   -8.7629  -16.0529 O   0  0  0  0  0  0  0  0  0  0  0  0
   19.7554   -8.0620  -16.6325 N   0  0  0  0  0  0  0  0  0  0  0  0
   19.6078   -6.7988  -15.8924 C   0  0  1  0  0  0  0  0  0  0  0  0
   20.8612   -6.6034  -15.0766 C   0  0  0  0  0  0  0  0  0  0  0  0
   20.8782   -5.3093  -14.3022 C   0  0  0  0  0  0  0  0  0  0  0  0
   22.1094   -5.2489  -13.4515 C   0  0  0  0  0  0  0  0  0  0  0  0
   23.0599   -6.0575  -13.5931 O   0  0  0  0  0  0  0  0  0  0  0  0
   19.2956   -5.6907  -16.7875 C   0  0  0  0  0  0  0  0  0  0  0  0
   19.6110   -5.7079  -17.9942 O   0  0  0  0  0  0  0  0  0  0  0  0
   22.2294   -4.2826  -12.4721 O   0  0  0  0  0  0  0  0  0  0  0  0
   18.6297   -4.5780  -16.3017 O   0  0  0  0  0  0  0  0  0  0  0  0
  2  1  1  6
  2  3  1  0
  4  2  1  0
  4  6  1  0
  4  5  1  6
  6 12  1  0
  7  6  2  0
  9 11  1  0
  9  8  1  6
 10  9  1  0
 11 12  1  1
 13 14  2  0
 13 11  1  0
 15 13  1  0
 16 15  1  0
 16 21  1  0
 16 17  1  6
 18 17  1  0
 19 18  1  0
 20 19  2  0
 21 24  1  0
 22 21  2  0
 23 19  1  0
M  END
$$$$
