VTE.pdb
     RDKit          3D

 24 23  0  0  1  0  0  0  0  0999 V2000
   22.9744  -14.0660  -16.8120 C   0  0  0  0  0  0  0  0  0  0  0  0
   24.1269  -13.1956  -17.2679 C   0  0  2  0  0  0  0  0  0  0  0  0
   25.4036  -13.8975  -16.8583 C   0  0  0  0  0  0  0  0  0  0  0  0
   24.0108  -11.8422  -16.5554 C   0  0  2  0  0  0  0  0  0  0  0  0
   24.1619  -12.0183  -15.1447 N   0  0  0  0  0  0  0  0  0  0  0  0
   22.7391  -11.1685  -16.9207 C   0  0  0  0  0  0  0  0  0  0  0  0
   22.5572  -10.7778  -18.1026 O   0  0  0  0  0  0  0  0  0  0  0  0
   19.2935  -12.2606  -17.3473 C   0  0  0  0  0  0  0  0  0  0  0  0
   19.2680  -11.1965  -16.2744 C   0  0  1  0  0  0  0  0  0  0  0  0
   19.2926  -11.8486  -15.0491 O   0  0  0  0  0  0  0  0  0  0  0  0
   20.4440  -10.2783  -16.3363 C   0  0  2  0  0  0  0  0  0  0  0  0
   21.6930  -10.9288  -16.0144 N   0  0  0  0  0  0  0  0  0  0  0  0
   20.2712   -9.1447  -15.4155 C   0  0  0  0  0  0  0  0  0  0  0  0
   21.0749   -9.0099  -14.4189 O   0  0  0  0  0  0  0  0  0  0  0  0
   19.2834   -8.1430  -15.5033 N   0  0  0  0  0  0  0  0  0  0  0  0
   19.3221   -6.8878  -14.7364 C   0  0  1  0  0  0  0  0  0  0  0  0
   20.7214   -6.3355  -14.8430 C   0  0  0  0  0  0  0  0  0  0  0  0
   20.9004   -5.0128  -14.1409 C   0  0  0  0  0  0  0  0  0  0  0  0
   22.3400   -4.6036  -14.1992 C   0  0  0  0  0  0  0  0  0  0  0  0
   23.2196   -5.3275  -14.7279 O   0  0  0  0  0  0  0  0  0  0  0  0
   18.2786   -5.9662  -15.1706 C   0  0  0  0  0  0  0  0  0  0  0  0
   17.8257   -5.9821  -16.3328 O   0  0  0  0  0  0  0  0  0  0  0  0
   22.7405   -3.3962  -13.6617 O   0  0  0  0  0  0  0  0  0  0  0  0
   17.7631   -5.0390  -14.2808 O   0  0  0  0  0  0  0  0  0  0  0  0
  2  1  1  1
  2  3  1  0
  4  2  1  0
  4  6  1  0
  4  5  1  1
  6 12  1  0
  7  6  2  0
  9 11  1  0
  9  8  1  6
 10  9  1  0
 11 12  1  1
 13 14  2  0
 13 11  1  0
 15 13  1  0
 16 15  1  0
 16 21  1  0
 16 17  1  6
 18 17  1  0
 19 18  1  0
 20 19  2  0
 21 24  1  0
 22 21  2  0
 23 19  1  0
M  END
$$$$
