VTE.pdb
     RDKit          3D

 24 23  0  0  1  0  0  0  0  0999 V2000
   17.2005  -13.7910  -17.6679 C   0  0  0  0  0  0  0  0  0  0  0  0
   18.2585  -14.1399  -16.6420 C   0  0  2  0  0  0  0  0  0  0  0  0
   17.6423  -15.1432  -15.6910 C   0  0  0  0  0  0  0  0  0  0  0  0
   18.6343  -12.8559  -15.8918 C   0  0  2  0  0  0  0  0  0  0  0  0
   17.5064  -12.3697  -15.1601 N   0  0  0  0  0  0  0  0  0  0  0  0
   19.1925  -11.8490  -16.8295 C   0  0  0  0  0  0  0  0  0  0  0  0
   20.2535  -12.1013  -17.4565 O   0  0  0  0  0  0  0  0  0  0  0  0
   18.6329  -10.5823  -20.1189 C   0  0  0  0  0  0  0  0  0  0  0  0
   18.4693   -9.3894  -19.2055 C   0  0  1  0  0  0  0  0  0  0  0  0
   17.1115   -9.2495  -18.9522 O   0  0  0  0  0  0  0  0  0  0  0  0
   19.1716   -9.5558  -17.8981 C   0  0  2  0  0  0  0  0  0  0  0  0
   18.6035  -10.5976  -17.0742 N   0  0  0  0  0  0  0  0  0  0  0  0
   19.1469   -8.3030  -17.1283 C   0  0  0  0  0  0  0  0  0  0  0  0
   18.7223   -8.3144  -15.9130 O   0  0  0  0  0  0  0  0  0  0  0  0
   19.5544   -7.0343  -17.5881 N   0  0  0  0  0  0  0  0  0  0  0  0
   19.7281   -5.8648  -16.7121 C   0  0  1  0  0  0  0  0  0  0  0  0
   20.5986   -6.2905  -15.5565 C   0  0  0  0  0  0  0  0  0  0  0  0
   20.8981   -5.1746  -14.5870 C   0  0  0  0  0  0  0  0  0  0  0  0
   21.7317   -5.6993  -13.4587 C   0  0  0  0  0  0  0  0  0  0  0  0
   21.4100   -6.7266  -12.8118 O   0  0  0  0  0  0  0  0  0  0  0  0
   20.2343   -4.7152  -17.4531 C   0  0  0  0  0  0  0  0  0  0  0  0
   20.6653   -4.8192  -18.6190 O   0  0  0  0  0  0  0  0  0  0  0  0
   22.8966   -5.0518  -13.0971 O   0  0  0  0  0  0  0  0  0  0  0  0
   20.2447   -3.4633  -16.8615 O   0  0  0  0  0  0  0  0  0  0  0  0
  2  1  1  6
  2  3  1  0
  4  2  1  0
  4  6  1  0
  4  5  1  6
  6 12  1  0
  7  6  2  0
  9 11  1  0
  9  8  1  6
 10  9  1  0
 11 12  1  1
 13 14  2  0
 13 11  1  0
 15 13  1  0
 16 15  1  0
 16 21  1  0
 16 17  1  1
 18 17  1  0
 19 18  1  0
 20 19  2  0
 21 24  1  0
 22 21  2  0
 23 19  1  0
M  END
$$$$
