VTE.pdb
     RDKit          3D

 24 23  0  0  1  0  0  0  0  0999 V2000
   25.2083  -37.7249   -6.1899 C   0  0  0  0  0  0  0  0  0  0  0  0
   24.5731  -36.5569   -6.9148 C   0  0  2  0  0  0  0  0  0  0  0  0
   24.0382  -37.0860   -8.2280 C   0  0  0  0  0  0  0  0  0  0  0  0
   25.6615  -35.5060   -7.1675 C   0  0  2  0  0  0  0  0  0  0  0  0
   26.6310  -36.0177   -8.0850 N   0  0  0  0  0  0  0  0  0  0  0  0
   26.2600  -35.0570   -5.8850 C   0  0  0  0  0  0  0  0  0  0  0  0
   27.4462  -35.3701   -5.6069 O   0  0  0  0  0  0  0  0  0  0  0  0
   26.0523  -32.0930   -1.8657 C   0  0  0  0  0  0  0  0  0  0  0  0
   25.4268  -32.6175   -3.1375 C   0  0  1  0  0  0  0  0  0  0  0  0
   25.4995  -31.6010   -4.0802 O   0  0  0  0  0  0  0  0  0  0  0  0
   26.1356  -33.8120   -3.6860 C   0  0  2  0  0  0  0  0  0  0  0  0
   25.5766  -34.2848   -4.9313 N   0  0  0  0  0  0  0  0  0  0  0  0
   26.1077  -34.9239   -2.7238 C   0  0  0  0  0  0  0  0  0  0  0  0
   25.0617  -35.6707   -2.6489 O   0  0  0  0  0  0  0  0  0  0  0  0
   27.1413  -35.2830   -1.8353 N   0  0  0  0  0  0  0  0  0  0  0  0
   27.0367  -36.3808   -0.8610 C   0  0  1  0  0  0  0  0  0  0  0  0
   28.4365  -36.7323   -0.4234 C   0  0  0  0  0  0  0  0  0  0  0  0
   28.4942  -37.9106    0.5162 C   0  0  0  0  0  0  0  0  0  0  0  0
   29.8929  -38.0804    1.0241 C   0  0  0  0  0  0  0  0  0  0  0  0
   30.8327  -37.3328    0.6564 O   0  0  0  0  0  0  0  0  0  0  0  0
   26.1345  -36.0380    0.2324 C   0  0  0  0  0  0  0  0  0  0  0  0
   26.0498  -34.8763    0.6788 O   0  0  0  0  0  0  0  0  0  0  0  0
   30.1863  -39.0835    1.9268 O   0  0  0  0  0  0  0  0  0  0  0  0
   25.3405  -37.0177    0.8045 O   0  0  0  0  0  0  0  0  0  0  0  0
  2  1  1  1
  2  3  1  0
  4  2  1  0
  4  6  1  0
  4  5  1  6
  6 12  1  0
  7  6  2  0
  9 11  1  0
  9  8  1  1
 10  9  1  0
 11 12  1  6
 13 14  2  0
 13 11  1  0
 15 13  1  0
 16 15  1  0
 16 21  1  0
 16 17  1  1
 18 17  1  0
 19 18  1  0
 20 19  2  0
 21 24  1  0
 22 21  2  0
 23 19  1  0
M  END
$$$$
