VTE.pdb
     RDKit          3D

 24 23  0  0  1  0  0  0  0  0999 V2000
   18.0512  -14.2236  -18.7896 C   0  0  0  0  0  0  0  0  0  0  0  0
   19.2159  -14.6178  -17.9054 C   0  0  2  0  0  0  0  0  0  0  0  0
   18.8505  -15.9309  -17.2476 C   0  0  0  0  0  0  0  0  0  0  0  0
   19.3993  -13.5239  -16.8459 C   0  0  2  0  0  0  0  0  0  0  0  0
   18.2562  -13.4777  -15.9886 N   0  0  0  0  0  0  0  0  0  0  0  0
   19.6919  -12.2185  -17.4900 C   0  0  0  0  0  0  0  0  0  0  0  0
   20.7175  -12.0929  -18.2075 O   0  0  0  0  0  0  0  0  0  0  0  0
   18.3861  -10.4231  -20.2799 C   0  0  0  0  0  0  0  0  0  0  0  0
   18.2005   -9.4979  -19.0995 C   0  0  1  0  0  0  0  0  0  0  0  0
   16.9001   -9.6691  -18.6444 O   0  0  0  0  0  0  0  0  0  0  0  0
   19.1314   -9.7987  -17.9712 C   0  0  2  0  0  0  0  0  0  0  0  0
   18.8816  -11.0796  -17.3517 N   0  0  0  0  0  0  0  0  0  0  0  0
   19.0416   -8.7645  -16.9295 C   0  0  0  0  0  0  0  0  0  0  0  0
   18.4168   -9.0217  -15.8337 O   0  0  0  0  0  0  0  0  0  0  0  0
   19.5866   -7.4662  -16.9951 N   0  0  0  0  0  0  0  0  0  0  0  0
   19.5032   -6.4886  -15.8985 C   0  0  1  0  0  0  0  0  0  0  0  0
   20.8939   -6.3129  -15.3423 C   0  0  0  0  0  0  0  0  0  0  0  0
   20.9816   -5.2615  -14.2646 C   0  0  0  0  0  0  0  0  0  0  0  0
   22.3600   -5.2560  -13.6787 C   0  0  0  0  0  0  0  0  0  0  0  0
   23.2158   -6.1259  -13.9757 O   0  0  0  0  0  0  0  0  0  0  0  0
   18.8713   -5.2495  -16.3368 C   0  0  0  0  0  0  0  0  0  0  0  0
   18.5138   -4.3691  -15.5287 O   0  0  0  0  0  0  0  0  0  0  0  0
   22.7282   -4.2739  -12.7803 O   0  0  0  0  0  0  0  0  0  0  0  0
   18.6534   -5.0259  -17.6858 O   0  0  0  0  0  0  0  0  0  0  0  0
  2  1  1  6
  2  3  1  0
  4  2  1  0
  4  6  1  0
  4  5  1  6
  6 12  1  0
  7  6  2  0
  9 11  1  0
  9  8  1  6
 10  9  1  0
 11 12  1  1
 13 14  2  0
 13 11  1  0
 15 13  1  0
 16 15  1  0
 16 21  1  0
 16 17  1  6
 18 17  1  0
 19 18  1  0
 20 19  2  0
 21 24  1  0
 22 21  2  0
 23 19  1  0
M  END
$$$$
