VTE.pdb
     RDKit          3D

 24 23  0  0  1  0  0  0  0  0999 V2000
   18.5886  -11.8643  -20.1877 C   0  0  0  0  0  0  0  0  0  0  0  0
   18.7913  -11.1769  -18.8536 C   0  0  2  0  0  0  0  0  0  0  0  0
   19.1050   -9.7251  -19.1442 C   0  0  0  0  0  0  0  0  0  0  0  0
   19.9773  -11.8476  -18.1490 C   0  0  2  0  0  0  0  0  0  0  0  0
   19.7002  -13.2343  -17.9392 N   0  0  0  0  0  0  0  0  0  0  0  0
   20.3117  -11.1288  -16.8935 C   0  0  0  0  0  0  0  0  0  0  0  0
   19.5582  -11.2386  -15.8922 O   0  0  0  0  0  0  0  0  0  0  0  0
   22.8568  -11.5800  -14.3991 C   0  0  0  0  0  0  0  0  0  0  0  0
   23.0286  -10.1553  -14.8731 C   0  0  1  0  0  0  0  0  0  0  0  0
   24.0565  -10.1544  -15.8063 O   0  0  0  0  0  0  0  0  0  0  0  0
   21.8041   -9.6078  -15.5295 C   0  0  2  0  0  0  0  0  0  0  0  0
   21.4427  -10.3104  -16.7388 N   0  0  0  0  0  0  0  0  0  0  0  0
   21.9816   -8.1869  -15.8648 C   0  0  0  0  0  0  0  0  0  0  0  0
   22.0083   -7.8262  -17.1003 O   0  0  0  0  0  0  0  0  0  0  0  0
   22.1312   -7.1268  -14.9479 N   0  0  0  0  0  0  0  0  0  0  0  0
   22.2988   -5.7200  -15.3456 C   0  0  1  0  0  0  0  0  0  0  0  0
   21.1491   -5.3672  -16.2556 C   0  0  0  0  0  0  0  0  0  0  0  0
   19.8248   -5.2696  -15.5404 C   0  0  0  0  0  0  0  0  0  0  0  0
   18.7946   -4.6990  -16.4658 C   0  0  0  0  0  0  0  0  0  0  0  0
   18.0851   -3.7123  -16.1491 O   0  0  0  0  0  0  0  0  0  0  0  0
   22.4324   -4.8503  -14.1827 C   0  0  0  0  0  0  0  0  0  0  0  0
   22.7863   -3.6588  -14.2868 O   0  0  0  0  0  0  0  0  0  0  0  0
   18.5980   -5.2568  -17.7138 O   0  0  0  0  0  0  0  0  0  0  0  0
   22.1626   -5.3440  -12.9174 O   0  0  0  0  0  0  0  0  0  0  0  0
  2  1  1  6
  2  3  1  0
  4  2  1  0
  4  6  1  0
  4  5  1  1
  6 12  1  0
  7  6  2  0
  9 11  1  0
  9  8  1  6
 10  9  1  0
 11 12  1  6
 13 14  2  0
 13 11  1  0
 15 13  1  0
 16 15  1  0
 16 21  1  0
 16 17  1  1
 18 17  1  0
 19 18  1  0
 20 19  2  0
 21 24  1  0
 22 21  2  0
 23 19  1  0
M  END
$$$$
