VTE.pdb
     RDKit          3D

 24 23  0  0  1  0  0  0  0  0999 V2000
   15.2571  -13.2038  -17.2224 C   0  0  0  0  0  0  0  0  0  0  0  0
   15.9948  -13.7155  -16.0028 C   0  0  2  0  0  0  0  0  0  0  0  0
   14.9982  -14.4995  -15.1765 C   0  0  0  0  0  0  0  0  0  0  0  0
   16.5053  -12.5036  -15.2132 C   0  0  2  0  0  0  0  0  0  0  0  0
   15.4054  -11.8066  -14.6230 N   0  0  0  0  0  0  0  0  0  0  0  0
   17.3437  -11.6345  -16.0771 C   0  0  0  0  0  0  0  0  0  0  0  0
   18.4182  -12.0808  -16.5553 O   0  0  0  0  0  0  0  0  0  0  0  0
   17.1810  -10.3943  -19.4557 C   0  0  0  0  0  0  0  0  0  0  0  0
   17.2117   -9.1689  -18.5717 C   0  0  1  0  0  0  0  0  0  0  0  0
   15.8966   -8.7657  -18.3834 O   0  0  0  0  0  0  0  0  0  0  0  0
   17.8139   -9.4325  -17.2309 C   0  0  2  0  0  0  0  0  0  0  0  0
   17.0135  -10.3102  -16.4088 N   0  0  0  0  0  0  0  0  0  0  0  0
   18.0159   -8.1767  -16.4925 C   0  0  0  0  0  0  0  0  0  0  0  0
   17.1581   -7.8211  -15.6008 O   0  0  0  0  0  0  0  0  0  0  0  0
   19.0895   -7.2779  -16.6552 N   0  0  0  0  0  0  0  0  0  0  0  0
   19.2268   -6.0235  -15.8984 C   0  0  1  0  0  0  0  0  0  0  0  0
   20.4830   -6.1297  -15.0707 C   0  0  0  0  0  0  0  0  0  0  0  0
   20.8111   -4.8681  -14.3121 C   0  0  0  0  0  0  0  0  0  0  0  0
   22.0587   -5.0744  -13.5094 C   0  0  0  0  0  0  0  0  0  0  0  0
   22.4421   -6.2156  -13.1516 O   0  0  0  0  0  0  0  0  0  0  0  0
   19.1854   -4.8626  -16.7800 C   0  0  0  0  0  0  0  0  0  0  0  0
   19.3804   -4.9592  -18.0083 O   0  0  0  0  0  0  0  0  0  0  0  0
   22.8312   -3.9918  -13.1372 O   0  0  0  0  0  0  0  0  0  0  0  0
   18.9233   -3.6078  -16.2565 O   0  0  0  0  0  0  0  0  0  0  0  0
  2  1  1  6
  2  3  1  0
  4  2  1  0
  4  6  1  0
  4  5  1  6
  6 12  1  0
  7  6  2  0
  9 11  1  0
  9  8  1  6
 10  9  1  0
 11 12  1  1
 13 14  2  0
 13 11  1  0
 15 13  1  0
 16 15  1  0
 16 21  1  0
 16 17  1  6
 18 17  1  0
 19 18  1  0
 20 19  2  0
 21 24  1  0
 22 21  2  0
 23 19  1  0
M  END
$$$$
