VTE.pdb
     RDKit          3D

 24 23  0  0  1  0  0  0  0  0999 V2000
   17.5736  -13.8810  -17.6339 C   0  0  0  0  0  0  0  0  0  0  0  0
   18.9268  -13.9849  -16.9621 C   0  0  2  0  0  0  0  0  0  0  0  0
   18.8965  -15.2210  -16.0893 C   0  0  0  0  0  0  0  0  0  0  0  0
   19.1280  -12.7305  -16.1025 C   0  0  2  0  0  0  0  0  0  0  0  0
   18.1714  -12.7077  -15.0403 N   0  0  0  0  0  0  0  0  0  0  0  0
   19.0849  -11.5089  -16.9454 C   0  0  0  0  0  0  0  0  0  0  0  0
   19.9250  -11.3589  -17.8696 O   0  0  0  0  0  0  0  0  0  0  0  0
   16.8176   -7.3271  -18.4322 C   0  0  0  0  0  0  0  0  0  0  0  0
   16.7968   -8.6982  -17.7967 C   0  0  1  0  0  0  0  0  0  0  0  0
   16.2064   -9.5637  -18.7075 O   0  0  0  0  0  0  0  0  0  0  0  0
   18.1618   -9.2151  -17.4814 C   0  0  2  0  0  0  0  0  0  0  0  0
   18.1455  -10.4779  -16.7801 N   0  0  0  0  0  0  0  0  0  0  0  0
   18.9101   -8.2497  -16.6623 C   0  0  0  0  0  0  0  0  0  0  0  0
   18.7244   -8.2213  -15.3887 O   0  0  0  0  0  0  0  0  0  0  0  0
   19.8505   -7.3106  -17.1321 N   0  0  0  0  0  0  0  0  0  0  0  0
   20.4773   -6.2864  -16.2817 C   0  0  1  0  0  0  0  0  0  0  0  0
   21.8994   -6.7187  -16.0265 C   0  0  0  0  0  0  0  0  0  0  0  0
   22.6852   -5.7377  -15.1930 C   0  0  0  0  0  0  0  0  0  0  0  0
   22.2389   -5.8201  -13.7657 C   0  0  0  0  0  0  0  0  0  0  0  0
   22.0892   -6.9182  -13.1747 O   0  0  0  0  0  0  0  0  0  0  0  0
   20.3503   -4.9571  -16.8679 C   0  0  0  0  0  0  0  0  0  0  0  0
   20.4094   -4.7706  -18.0999 O   0  0  0  0  0  0  0  0  0  0  0  0
   21.9765   -4.6667  -13.0529 O   0  0  0  0  0  0  0  0  0  0  0  0
   20.1580   -3.8574  -16.0488 O   0  0  0  0  0  0  0  0  0  0  0  0
  2  1  1  1
  2  3  1  0
  4  2  1  0
  4  6  1  0
  4  5  1  1
  6 12  1  0
  7  6  2  0
  9 11  1  0
  9  8  1  6
 10  9  1  0
 11 12  1  1
 13 14  2  0
 13 11  1  0
 15 13  1  0
 16 15  1  0
 16 21  1  0
 16 17  1  6
 18 17  1  0
 19 18  1  0
 20 19  2  0
 21 24  1  0
 22 21  2  0
 23 19  1  0
M  END
$$$$
