VTE.pdb
     RDKit          3D

 24 23  0  0  1  0  0  0  0  0999 V2000
   19.9878  -12.7857  -16.5062 C   0  0  0  0  0  0  0  0  0  0  0  0
   20.6083  -12.2952  -17.7977 C   0  0  2  0  0  0  0  0  0  0  0  0
   21.8807  -13.0870  -18.0087 C   0  0  0  0  0  0  0  0  0  0  0  0
   20.9294  -10.8043  -17.6342 C   0  0  2  0  0  0  0  0  0  0  0  0
   21.9249  -10.6270  -16.6235 N   0  0  0  0  0  0  0  0  0  0  0  0
   19.6905  -10.0307  -17.3671 C   0  0  0  0  0  0  0  0  0  0  0  0
   18.7489  -10.0535  -18.2010 O   0  0  0  0  0  0  0  0  0  0  0  0
   17.0089  -10.4475  -14.8734 C   0  0  0  0  0  0  0  0  0  0  0  0
   17.5875   -9.0654  -14.6754 C   0  0  1  0  0  0  0  0  0  0  0  0
   18.5261   -9.1556  -13.6565 O   0  0  0  0  0  0  0  0  0  0  0  0
   18.2728   -8.5405  -15.8939 C   0  0  2  0  0  0  0  0  0  0  0  0
   19.4881   -9.2519  -16.2158 N   0  0  0  0  0  0  0  0  0  0  0  0
   18.6078   -7.1175  -15.7331 C   0  0  0  0  0  0  0  0  0  0  0  0
   19.7982   -6.7837  -15.3738 O   0  0  0  0  0  0  0  0  0  0  0  0
   17.7370   -6.0281  -15.9375 N   0  0  0  0  0  0  0  0  0  0  0  0
   18.0944   -4.6306  -15.6468 C   0  0  1  0  0  0  0  0  0  0  0  0
   18.1667   -3.8990  -16.9636 C   0  0  0  0  0  0  0  0  0  0  0  0
   18.4570   -2.4262  -16.8174 C   0  0  0  0  0  0  0  0  0  0  0  0
   18.4744   -1.7808  -18.1689 C   0  0  0  0  0  0  0  0  0  0  0  0
   17.5481   -1.0296  -18.5626 O   0  0  0  0  0  0  0  0  0  0  0  0
   17.1782   -4.0368  -14.6799 C   0  0  0  0  0  0  0  0  0  0  0  0
   17.4352   -2.9624  -14.1007 O   0  0  0  0  0  0  0  0  0  0  0  0
   19.5313   -2.0020  -19.0299 O   0  0  0  0  0  0  0  0  0  0  0  0
   15.9830   -4.6698  -14.3833 O   0  0  0  0  0  0  0  0  0  0  0  0
  2  1  1  1
  2  3  1  0
  4  2  1  0
  4  6  1  0
  4  5  1  1
  6 12  1  0
  7  6  2  0
  9 11  1  0
  9  8  1  6
 10  9  1  0
 11 12  1  1
 13 14  2  0
 13 11  1  0
 15 13  1  0
 16 15  1  0
 16 21  1  0
 16 17  1  6
 18 17  1  0
 19 18  1  0
 20 19  2  0
 21 24  1  0
 22 21  2  0
 23 19  1  0
M  END
$$$$
