VTE.pdb
     RDKit          3D

 24 23  0  0  1  0  0  0  0  0999 V2000
   17.9480  -12.4122  -19.6776 C   0  0  0  0  0  0  0  0  0  0  0  0
   18.4615  -11.7398  -18.4216 C   0  0  2  0  0  0  0  0  0  0  0  0
   18.9194  -10.3520  -18.8153 C   0  0  0  0  0  0  0  0  0  0  0  0
   19.6442  -12.5610  -17.8927 C   0  0  2  0  0  0  0  0  0  0  0  0
   19.2045  -13.8713  -17.5274 N   0  0  0  0  0  0  0  0  0  0  0  0
   20.3183  -11.8463  -16.7794 C   0  0  0  0  0  0  0  0  0  0  0  0
   19.8082  -11.8604  -15.6296 O   0  0  0  0  0  0  0  0  0  0  0  0
   24.4872  -10.2346  -14.7307 C   0  0  0  0  0  0  0  0  0  0  0  0
   23.6809  -10.9802  -15.7689 C   0  0  1  0  0  0  0  0  0  0  0  0
   23.6862  -12.3206  -15.4079 O   0  0  0  0  0  0  0  0  0  0  0  0
   22.2609  -10.5239  -15.8420 C   0  0  2  0  0  0  0  0  0  0  0  0
   21.5206  -11.1342  -16.9220 N   0  0  0  0  0  0  0  0  0  0  0  0
   22.1887   -9.0645  -16.0091 C   0  0  0  0  0  0  0  0  0  0  0  0
   22.2497   -8.5584  -17.1913 O   0  0  0  0  0  0  0  0  0  0  0  0
   22.0529   -8.1134  -14.9776 N   0  0  0  0  0  0  0  0  0  0  0  0
   21.9412   -6.6649  -15.2113 C   0  0  1  0  0  0  0  0  0  0  0  0
   20.5006   -6.3705  -15.5464 C   0  0  0  0  0  0  0  0  0  0  0  0
   20.2089   -4.8991  -15.7035 C   0  0  0  0  0  0  0  0  0  0  0  0
   18.7579   -4.7054  -16.0205 C   0  0  0  0  0  0  0  0  0  0  0  0
   18.2211   -5.2179  -17.0336 O   0  0  0  0  0  0  0  0  0  0  0  0
   22.4629   -5.9019  -14.0833 C   0  0  0  0  0  0  0  0  0  0  0  0
   22.5464   -6.3900  -12.9384 O   0  0  0  0  0  0  0  0  0  0  0  0
   17.9617   -3.9432  -15.1885 O   0  0  0  0  0  0  0  0  0  0  0  0
   22.8828   -4.5956  -14.2692 O   0  0  0  0  0  0  0  0  0  0  0  0
  2  1  1  6
  2  3  1  0
  4  2  1  0
  4  6  1  0
  4  5  1  1
  6 12  1  0
  7  6  2  0
  9 11  1  0
  9  8  1  1
 10  9  1  0
 11 12  1  6
 13 14  2  0
 13 11  1  0
 15 13  1  0
 16 15  1  0
 16 21  1  0
 16 17  1  1
 18 17  1  0
 19 18  1  0
 20 19  2  0
 21 24  1  0
 22 21  2  0
 23 19  1  0
M  END
$$$$
