IDA.pdb
     RDKit          3D

 22 21  0  0  1  0  0  0  0  0999 V2000
    7.3445  -11.9867   19.7794 C   0  0  0  0  0  0  0  0  0  0  0  0
    8.0571  -12.8857   18.7857 C   0  0  0  0  0  0  0  0  0  0  0  0
    8.8780  -13.9293   19.4699 C   0  0  2  0  0  0  0  0  0  0  0  0
    9.9318  -13.2424   20.3151 C   0  0  0  0  0  0  0  0  0  0  0  0
    9.4965  -14.9317   18.5226 C   0  0  2  0  0  0  0  0  0  0  0  0
    8.3973  -15.4873   17.7194 N   0  0  0  0  0  0  0  0  0  0  0  0
   10.2334  -15.9921   19.2215 C   0  0  0  0  0  0  0  0  0  0  0  0
    9.6559  -16.9247   19.8117 O   0  0  0  0  0  0  0  0  0  0  0  0
   11.6497  -15.9446   19.2191 N   0  0  0  0  0  0  0  0  0  0  0  0
   12.3995  -16.9551   19.9991 C   0  0  1  0  0  0  0  0  0  0  0  0
   13.8153  -16.9855   19.4721 C   0  0  0  0  0  0  0  0  0  0  0  0
   13.9907  -17.5889   18.1579 C   0  0  0  0  0  0  0  0  0  0  0  0
   13.2927  -18.5619   17.8044 O   0  0  0  0  0  0  0  0  0  0  0  0
   12.3752  -16.6244   21.4213 C   0  0  0  0  0  0  0  0  0  0  0  0
   12.9720  -15.5431   21.7794 O   0  0  0  0  0  0  0  0  0  0  0  0
   14.9462  -17.0982   17.2508 O   0  0  0  0  0  0  0  0  0  0  0  0
   10.3327  -16.5665   24.2951 C   0  0  0  0  0  0  0  0  0  0  0  0
   11.7635  -16.8283   23.8465 C   0  0  2  0  0  0  0  0  0  0  0  0
   11.7725  -17.3347   22.4756 N   0  0  0  0  0  0  0  0  0  0  0  0
   12.4442  -17.7663   24.7372 C   0  0  0  0  0  0  0  0  0  0  0  0
   12.6068  -17.4581   25.9458 O   0  0  0  0  0  0  0  0  0  0  0  0
   12.9132  -18.9779   24.3013 O   0  0  0  0  0  0  0  0  0  0  0  0
  1  2  1  0
  3  4  1  6
  3  5  1  0
  3  2  1  0
  5  7  1  0
  5  6  1  1
  7  9  1  0
  7  8  2  0
  9 10  1  0
 10 14  1  0
 10 11  1  6
 12 16  1  0
 12 11  1  0
 13 12  2  0
 14 15  2  0
 18 17  1  1
 19 18  1  0
 19 14  1  0
 20 22  1  0
 20 18  1  0
 21 20  2  0
M  END
$$$$
