IDA.pdb
     RDKit          3D

 22 21  0  0  1  0  0  0  0  0999 V2000
    7.5492  -11.8087   19.6182 C   0  0  0  0  0  0  0  0  0  0  0  0
    7.8966  -13.1171   18.9319 C   0  0  0  0  0  0  0  0  0  0  0  0
    8.4262  -14.1270   19.8966 C   0  0  2  0  0  0  0  0  0  0  0  0
    9.6560  -13.5553   20.5729 C   0  0  0  0  0  0  0  0  0  0  0  0
    8.7152  -15.4714   19.2692 C   0  0  2  0  0  0  0  0  0  0  0  0
    7.4469  -15.9547   18.7036 N   0  0  0  0  0  0  0  0  0  0  0  0
    9.2725  -16.4355   20.2263 C   0  0  0  0  0  0  0  0  0  0  0  0
    8.5572  -17.0639   21.0293 O   0  0  0  0  0  0  0  0  0  0  0  0
   10.6730  -16.6517   20.2291 N   0  0  0  0  0  0  0  0  0  0  0  0
   11.2290  -17.7192   21.0911 C   0  0  1  0  0  0  0  0  0  0  0  0
   12.5771  -18.1081   20.5301 C   0  0  0  0  0  0  0  0  0  0  0  0
   12.5702  -18.6463   19.1765 C   0  0  0  0  0  0  0  0  0  0  0  0
   13.2061  -18.0816   18.2623 O   0  0  0  0  0  0  0  0  0  0  0  0
   11.3483  -17.2529   22.4698 C   0  0  0  0  0  0  0  0  0  0  0  0
   12.0382  -16.1859   22.6675 O   0  0  0  0  0  0  0  0  0  0  0  0
   11.8516  -19.8119   18.8577 O   0  0  0  0  0  0  0  0  0  0  0  0
    9.7177  -16.7651   25.5600 C   0  0  0  0  0  0  0  0  0  0  0  0
   11.0323  -17.2425   24.9593 C   0  0  2  0  0  0  0  0  0  0  0  0
   10.7975  -17.8159   23.6356 N   0  0  0  0  0  0  0  0  0  0  0  0
   11.6966  -18.2171   25.8226 C   0  0  0  0  0  0  0  0  0  0  0  0
   12.0332  -17.8784   26.9862 O   0  0  0  0  0  0  0  0  0  0  0  0
   11.9664  -19.4953   25.4086 O   0  0  0  0  0  0  0  0  0  0  0  0
  1  2  1  0
  3  4  1  6
  3  5  1  0
  3  2  1  0
  5  7  1  0
  5  6  1  1
  7  9  1  0
  7  8  2  0
  9 10  1  0
 10 14  1  0
 10 11  1  6
 12 16  1  0
 12 11  1  0
 13 12  2  0
 14 15  2  0
 18 17  1  1
 19 18  1  0
 19 14  1  0
 20 22  1  0
 20 18  1  0
 21 20  2  0
M  END
$$$$
