IDA.pdb
     RDKit          3D

 22 21  0  0  1  0  0  0  0  0999 V2000
    5.7790  -11.3173   26.5352 C   0  0  0  0  0  0  0  0  0  0  0  0
    5.5775  -12.5779   25.7144 C   0  0  0  0  0  0  0  0  0  0  0  0
    6.7475  -13.5007   25.8171 C   0  0  2  0  0  0  0  0  0  0  0  0
    7.9919  -12.7598   25.3707 C   0  0  0  0  0  0  0  0  0  0  0  0
    6.5697  -14.7927   25.0530 C   0  0  2  0  0  0  0  0  0  0  0  0
    5.3090  -15.3887   25.5193 N   0  0  0  0  0  0  0  0  0  0  0  0
    7.6950  -15.7182   25.2350 C   0  0  0  0  0  0  0  0  0  0  0  0
    7.8047  -16.4410   26.2434 O   0  0  0  0  0  0  0  0  0  0  0  0
    8.6852  -15.7846   24.2233 N   0  0  0  0  0  0  0  0  0  0  0  0
    9.8781  -16.6327   24.4461 C   0  0  1  0  0  0  0  0  0  0  0  0
   10.7523  -16.5288   23.2181 C   0  0  0  0  0  0  0  0  0  0  0  0
   11.9469  -17.3624   23.2167 C   0  0  0  0  0  0  0  0  0  0  0  0
   12.1268  -18.2207   24.1056 O   0  0  0  0  0  0  0  0  0  0  0  0
   10.5971  -16.1998   25.6412 C   0  0  0  0  0  0  0  0  0  0  0  0
   11.3178  -15.1400   25.5370 O   0  0  0  0  0  0  0  0  0  0  0  0
   12.9299  -17.2281   22.2207 O   0  0  0  0  0  0  0  0  0  0  0  0
   10.6057  -14.9306   28.5064 C   0  0  0  0  0  0  0  0  0  0  0  0
   11.3237  -16.1903   28.0432 C   0  0  2  0  0  0  0  0  0  0  0  0
   10.6071  -16.7889   26.9188 N   0  0  0  0  0  0  0  0  0  0  0  0
   11.4642  -17.1599   29.1279 C   0  0  0  0  0  0  0  0  0  0  0  0
   12.0556  -16.8186   30.1842 O   0  0  0  0  0  0  0  0  0  0  0  0
   10.9707  -18.4350   29.0361 O   0  0  0  0  0  0  0  0  0  0  0  0
  1  2  1  0
  3  4  1  6
  3  5  1  0
  3  2  1  0
  5  7  1  0
  5  6  1  1
  7  9  1  0
  7  8  2  0
  9 10  1  0
 10 14  1  0
 10 11  1  6
 12 16  1  0
 12 11  1  0
 13 12  2  0
 14 15  2  0
 18 17  1  1
 19 18  1  0
 19 14  1  0
 20 22  1  0
 20 18  1  0
 21 20  2  0
M  END
$$$$
