IDA.pdb
     RDKit          3D

 22 21  0  0  1  0  0  0  0  0999 V2000
    6.6752  -11.9935   26.1780 C   0  0  0  0  0  0  0  0  0  0  0  0
    6.6398  -13.4570   25.7775 C   0  0  0  0  0  0  0  0  0  0  0  0
    7.1931  -13.6713   24.4067 C   0  0  2  0  0  0  0  0  0  0  0  0
    6.3775  -12.8594   23.4206 C   0  0  0  0  0  0  0  0  0  0  0  0
    7.2621  -15.1258   24.0013 C   0  0  2  0  0  0  0  0  0  0  0  0
    5.9362  -15.7021   24.2695 N   0  0  0  0  0  0  0  0  0  0  0  0
    8.3156  -15.8625   24.7107 C   0  0  0  0  0  0  0  0  0  0  0  0
    8.0930  -16.4946   25.7607 O   0  0  0  0  0  0  0  0  0  0  0  0
    9.6275  -15.8483   24.1750 N   0  0  0  0  0  0  0  0  0  0  0  0
   10.6625  -16.7042   24.7978 C   0  0  1  0  0  0  0  0  0  0  0  0
   11.8258  -16.7921   23.8374 C   0  0  0  0  0  0  0  0  0  0  0  0
   12.8190  -17.8152   24.1351 C   0  0  0  0  0  0  0  0  0  0  0  0
   12.6464  -18.6172   25.0764 O   0  0  0  0  0  0  0  0  0  0  0  0
   11.0816  -16.1479   26.0813 C   0  0  0  0  0  0  0  0  0  0  0  0
   11.8844  -15.1439   26.0482 O   0  0  0  0  0  0  0  0  0  0  0  0
   13.9971  -17.9319   23.3767 O   0  0  0  0  0  0  0  0  0  0  0  0
   10.5306  -14.7728   29.0310 C   0  0  0  0  0  0  0  0  0  0  0  0
   11.3269  -15.9866   28.5736 C   0  0  2  0  0  0  0  0  0  0  0  0
   10.7176  -16.5614   27.3759 N   0  0  0  0  0  0  0  0  0  0  0  0
   11.4232  -16.9957   29.6266 C   0  0  0  0  0  0  0  0  0  0  0  0
   10.9626  -18.1474   29.4180 O   0  0  0  0  0  0  0  0  0  0  0  0
   12.0021  -16.7317   30.8403 O   0  0  0  0  0  0  0  0  0  0  0  0
  1  2  1  0
  3  4  1  6
  3  5  1  0
  3  2  1  0
  5  7  1  0
  5  6  1  1
  7  9  1  0
  7  8  2  0
  9 10  1  0
 10 14  1  0
 10 11  1  6
 12 16  1  0
 12 11  1  0
 13 12  2  0
 14 15  2  0
 18 17  1  1
 19 18  1  0
 19 14  1  0
 20 22  1  0
 20 18  1  0
 21 20  2  0
M  END
$$$$
