IDA.pdb
     RDKit          3D

 22 21  0  0  1  0  0  0  0  0999 V2000
    8.0977  -11.8769   20.4956 C   0  0  0  0  0  0  0  0  0  0  0  0
    8.1024  -13.1251   21.3591 C   0  0  0  0  0  0  0  0  0  0  0  0
    8.3051  -14.3619   20.5466 C   0  0  2  0  0  0  0  0  0  0  0  0
    7.2192  -14.4343   19.4918 C   0  0  0  0  0  0  0  0  0  0  0  0
    8.3592  -15.6273   21.3716 C   0  0  2  0  0  0  0  0  0  0  0  0
    9.0692  -15.2908   22.6144 N   0  0  0  0  0  0  0  0  0  0  0  0
    9.0160  -16.7356   20.6671 C   0  0  0  0  0  0  0  0  0  0  0  0
    8.4030  -17.4755   19.8745 O   0  0  0  0  0  0  0  0  0  0  0  0
   10.3946  -16.9634   20.9032 N   0  0  0  0  0  0  0  0  0  0  0  0
   11.0720  -18.0604   20.1756 C   0  0  1  0  0  0  0  0  0  0  0  0
   11.8294  -17.4475   19.0206 C   0  0  0  0  0  0  0  0  0  0  0  0
   11.3856  -17.8409   17.6901 C   0  0  0  0  0  0  0  0  0  0  0  0
   10.1701  -17.9705   17.4355 O   0  0  0  0  0  0  0  0  0  0  0  0
   11.9716  -18.7865   21.0677 C   0  0  0  0  0  0  0  0  0  0  0  0
   12.6747  -19.7290   20.5471 O   0  0  0  0  0  0  0  0  0  0  0  0
   12.3060  -18.0860   16.6561 O   0  0  0  0  0  0  0  0  0  0  0  0
   10.7096  -20.1381   23.6285 C   0  0  0  0  0  0  0  0  0  0  0  0
   12.1483  -19.6968   23.3996 C   0  0  2  0  0  0  0  0  0  0  0  0
   12.1858  -18.5912   22.4444 N   0  0  0  0  0  0  0  0  0  0  0  0
   12.9820  -20.8012   22.9287 C   0  0  0  0  0  0  0  0  0  0  0  0
   12.6644  -21.4032   21.8710 O   0  0  0  0  0  0  0  0  0  0  0  0
   14.1053  -21.2064   23.6010 O   0  0  0  0  0  0  0  0  0  0  0  0
  1  2  1  0
  3  4  1  6
  3  5  1  0
  3  2  1  0
  5  7  1  0
  5  6  1  1
  7  9  1  0
  7  8  2  0
  9 10  1  0
 10 14  1  0
 10 11  1  6
 12 16  1  0
 12 11  1  0
 13 12  2  0
 14 15  2  0
 18 17  1  6
 19 18  1  0
 19 14  1  0
 20 22  1  0
 20 18  1  0
 21 20  2  0
M  END
$$$$
