IDA.pdb
     RDKit          3D

 22 21  0  0  1  0  0  0  0  0999 V2000
    5.6320  -11.5829   26.5339 C   0  0  0  0  0  0  0  0  0  0  0  0
    5.5263  -12.7923   25.6229 C   0  0  0  0  0  0  0  0  0  0  0  0
    6.7585  -13.6350   25.6732 C   0  0  2  0  0  0  0  0  0  0  0  0
    7.9350  -12.8052   25.1999 C   0  0  0  0  0  0  0  0  0  0  0  0
    6.6430  -14.9250   24.8938 C   0  0  2  0  0  0  0  0  0  0  0  0
    5.4256  -15.5983   25.3699 N   0  0  0  0  0  0  0  0  0  0  0  0
    7.8219  -15.7869   25.0464 C   0  0  0  0  0  0  0  0  0  0  0  0
    7.9418  -16.5874   25.9931 O   0  0  0  0  0  0  0  0  0  0  0  0
    8.8532  -15.6981   24.0787 N   0  0  0  0  0  0  0  0  0  0  0  0
   10.0657  -16.5305   24.2487 C   0  0  1  0  0  0  0  0  0  0  0  0
   10.9227  -16.3521   23.0170 C   0  0  0  0  0  0  0  0  0  0  0  0
   12.1046  -17.1999   22.9376 C   0  0  0  0  0  0  0  0  0  0  0  0
   13.2420  -16.7301   23.1491 O   0  0  0  0  0  0  0  0  0  0  0  0
   10.7903  -16.1382   25.4543 C   0  0  0  0  0  0  0  0  0  0  0  0
   11.4384  -15.0285   25.4108 O   0  0  0  0  0  0  0  0  0  0  0  0
   12.0034  -18.5662   22.6220 O   0  0  0  0  0  0  0  0  0  0  0  0
   10.4835  -14.9529   28.2176 C   0  0  0  0  0  0  0  0  0  0  0  0
   11.3548  -16.1598   27.8994 C   0  0  2  0  0  0  0  0  0  0  0  0
   10.8753  -16.8156   26.6845 N   0  0  0  0  0  0  0  0  0  0  0  0
   11.3850  -17.1101   29.0095 C   0  0  0  0  0  0  0  0  0  0  0  0
   10.9326  -18.2710   28.8370 O   0  0  0  0  0  0  0  0  0  0  0  0
   11.8928  -16.7809   30.2390 O   0  0  0  0  0  0  0  0  0  0  0  0
  1  2  1  0
  3  4  1  6
  3  5  1  0
  3  2  1  0
  5  7  1  0
  5  6  1  1
  7  9  1  0
  7  8  2  0
  9 10  1  0
 10 14  1  0
 10 11  1  6
 12 16  1  0
 12 11  1  0
 13 12  2  0
 14 15  2  0
 18 17  1  1
 19 18  1  0
 19 14  1  0
 20 22  1  0
 20 18  1  0
 21 20  2  0
M  END
$$$$
