IDA.pdb
     RDKit          3D

 22 21  0  0  1  0  0  0  0  0999 V2000
    6.8215  -12.3364   19.5767 C   0  0  0  0  0  0  0  0  0  0  0  0
    7.7707  -12.9165   18.5443 C   0  0  0  0  0  0  0  0  0  0  0  0
    8.7770  -13.8289   19.1654 C   0  0  2  0  0  0  0  0  0  0  0  0
    9.5823  -13.0449   20.1820 C   0  0  0  0  0  0  0  0  0  0  0  0
    9.6738  -14.5160   18.1612 C   0  0  2  0  0  0  0  0  0  0  0  0
    8.7905  -15.1686   17.1835 N   0  0  0  0  0  0  0  0  0  0  0  0
   10.5850  -15.4843   18.7843 C   0  0  0  0  0  0  0  0  0  0  0  0
   10.2256  -16.6394   19.0810 O   0  0  0  0  0  0  0  0  0  0  0  0
   11.9168  -15.0819   19.0534 N   0  0  0  0  0  0  0  0  0  0  0  0
   12.8276  -16.0335   19.7293 C   0  0  1  0  0  0  0  0  0  0  0  0
   14.2425  -15.6680   19.3451 C   0  0  0  0  0  0  0  0  0  0  0  0
   14.6481  -16.0326   17.9944 C   0  0  0  0  0  0  0  0  0  0  0  0
   15.2448  -15.2139   17.2645 O   0  0  0  0  0  0  0  0  0  0  0  0
   12.6446  -15.9759   21.1769 C   0  0  0  0  0  0  0  0  0  0  0  0
   13.0965  -14.9348   21.7814 O   0  0  0  0  0  0  0  0  0  0  0  0
   14.3822  -17.3105   17.4720 O   0  0  0  0  0  0  0  0  0  0  0  0
   10.6060  -17.2673   23.9786 C   0  0  0  0  0  0  0  0  0  0  0  0
   11.9300  -16.7197   23.4646 C   0  0  2  0  0  0  0  0  0  0  0  0
   12.0248  -16.9167   22.0196 N   0  0  0  0  0  0  0  0  0  0  0  0
   13.0682  -17.3438   24.1364 C   0  0  0  0  0  0  0  0  0  0  0  0
   13.7749  -18.1720   23.5065 O   0  0  0  0  0  0  0  0  0  0  0  0
   13.3968  -17.0567   25.4355 O   0  0  0  0  0  0  0  0  0  0  0  0
  1  2  1  0
  3  4  1  1
  3  5  1  0
  3  2  1  0
  5  7  1  0
  5  6  1  6
  7  9  1  0
  7  8  2  0
  9 10  1  0
 10 14  1  0
 10 11  1  1
 12 16  1  0
 12 11  1  0
 13 12  2  0
 14 15  2  0
 18 17  1  1
 19 18  1  0
 19 14  1  0
 20 22  1  0
 20 18  1  0
 21 20  2  0
M  END
$$$$
