IDA.pdb
     RDKit          3D

 22 21  0  0  1  0  0  0  0  0999 V2000
    7.2480  -11.9835   19.6509 C   0  0  0  0  0  0  0  0  0  0  0  0
    7.7222  -13.2593   18.9793 C   0  0  0  0  0  0  0  0  0  0  0  0
    8.1605  -14.2819   19.9759 C   0  0  2  0  0  0  0  0  0  0  0  0
    9.2092  -13.6634   20.8783 C   0  0  0  0  0  0  0  0  0  0  0  0
    8.6573  -15.5648   19.3497 C   0  0  2  0  0  0  0  0  0  0  0  0
    7.5557  -16.0878   18.5281 N   0  0  0  0  0  0  0  0  0  0  0  0
    9.0919  -16.5510   20.3470 C   0  0  0  0  0  0  0  0  0  0  0  0
    8.3062  -17.3738   20.8542 O   0  0  0  0  0  0  0  0  0  0  0  0
   10.4535  -16.5597   20.7394 N   0  0  0  0  0  0  0  0  0  0  0  0
   10.9298  -17.6323   21.6419 C   0  0  1  0  0  0  0  0  0  0  0  0
   12.3718  -17.9199   21.2938 C   0  0  0  0  0  0  0  0  0  0  0  0
   12.5972  -19.0543   20.4083 C   0  0  0  0  0  0  0  0  0  0  0  0
   11.6354  -19.6773   19.9123 O   0  0  0  0  0  0  0  0  0  0  0  0
   10.7977  -17.2226   23.0373 C   0  0  0  0  0  0  0  0  0  0  0  0
   11.1325  -18.0829   23.9325 O   0  0  0  0  0  0  0  0  0  0  0  0
   13.8970  -19.4820   20.0857 O   0  0  0  0  0  0  0  0  0  0  0  0
    8.8397  -15.3825   25.3712 C   0  0  0  0  0  0  0  0  0  0  0  0
   10.2702  -15.7322   24.9862 C   0  0  2  0  0  0  0  0  0  0  0  0
   10.3520  -15.9906   23.5500 N   0  0  0  0  0  0  0  0  0  0  0  0
   10.7635  -16.8853   25.7369 C   0  0  0  0  0  0  0  0  0  0  0  0
   11.0562  -17.9411   25.1192 O   0  0  0  0  0  0  0  0  0  0  0  0
   10.9212  -16.8574   27.0979 O   0  0  0  0  0  0  0  0  0  0  0  0
  1  2  1  0
  3  4  1  6
  3  5  1  0
  3  2  1  0
  5  7  1  0
  5  6  1  1
  7  9  1  0
  7  8  2  0
  9 10  1  0
 10 14  1  0
 10 11  1  6
 12 16  1  0
 12 11  1  0
 13 12  2  0
 14 15  2  0
 18 17  1  1
 19 18  1  0
 19 14  1  0
 20 22  1  0
 20 18  1  0
 21 20  2  0
M  END
$$$$
