IDA.pdb
     RDKit          3D

 22 21  0  0  1  0  0  0  0  0999 V2000
    7.2911  -11.8851   19.4876 C   0  0  0  0  0  0  0  0  0  0  0  0
    7.8395  -13.0997   18.7613 C   0  0  0  0  0  0  0  0  0  0  0  0
    8.4152  -14.1006   19.7088 C   0  0  2  0  0  0  0  0  0  0  0  0
    9.4952  -13.4268   20.5311 C   0  0  0  0  0  0  0  0  0  0  0  0
    8.9340  -15.3482   19.0313 C   0  0  2  0  0  0  0  0  0  0  0  0
    7.8037  -15.9273   18.2903 N   0  0  0  0  0  0  0  0  0  0  0  0
    9.4990  -16.3154   19.9807 C   0  0  0  0  0  0  0  0  0  0  0  0
    8.7827  -17.0254   20.7116 O   0  0  0  0  0  0  0  0  0  0  0  0
   10.9085  -16.4384   20.0610 N   0  0  0  0  0  0  0  0  0  0  0  0
   11.4880  -17.3861   21.0397 C   0  0  1  0  0  0  0  0  0  0  0  0
   12.9071  -17.6794   20.6114 C   0  0  0  0  0  0  0  0  0  0  0  0
   13.6108  -18.6872   21.3930 C   0  0  0  0  0  0  0  0  0  0  0  0
   13.0389  -19.2814   22.3306 O   0  0  0  0  0  0  0  0  0  0  0  0
   11.4519  -16.8181   22.3845 C   0  0  0  0  0  0  0  0  0  0  0  0
   12.1764  -15.7775   22.5984 O   0  0  0  0  0  0  0  0  0  0  0  0
   14.9486  -19.0213   21.1188 O   0  0  0  0  0  0  0  0  0  0  0  0
    9.4492  -15.9666   25.1467 C   0  0  0  0  0  0  0  0  0  0  0  0
   10.7962  -16.5824   24.7954 C   0  0  2  0  0  0  0  0  0  0  0  0
   10.7153  -17.2555   23.5006 N   0  0  0  0  0  0  0  0  0  0  0  0
   11.2458  -17.5175   25.8248 C   0  0  0  0  0  0  0  0  0  0  0  0
   11.4663  -17.0918   26.9876 O   0  0  0  0  0  0  0  0  0  0  0  0
   11.4358  -18.8502   25.5682 O   0  0  0  0  0  0  0  0  0  0  0  0
  1  2  1  0
  3  4  1  6
  3  5  1  0
  3  2  1  0
  5  7  1  0
  5  6  1  1
  7  9  1  0
  7  8  2  0
  9 10  1  0
 10 14  1  0
 10 11  1  6
 12 16  1  0
 12 11  1  0
 13 12  2  0
 14 15  2  0
 18 17  1  1
 19 18  1  0
 19 14  1  0
 20 22  1  0
 20 18  1  0
 21 20  2  0
M  END
$$$$
