IDA.pdb
     RDKit          3D

 22 21  0  0  1  0  0  0  0  0999 V2000
    5.8730  -11.1210   26.7766 C   0  0  0  0  0  0  0  0  0  0  0  0
    5.6347  -12.3281   25.8879 C   0  0  0  0  0  0  0  0  0  0  0  0
    6.7757  -13.2906   25.9406 C   0  0  2  0  0  0  0  0  0  0  0  0
    8.0273  -12.5883   25.4538 C   0  0  0  0  0  0  0  0  0  0  0  0
    6.5260  -14.5693   25.1743 C   0  0  2  0  0  0  0  0  0  0  0  0
    5.2641  -15.1268   25.6831 N   0  0  0  0  0  0  0  0  0  0  0  0
    7.6254  -15.5335   25.3072 C   0  0  0  0  0  0  0  0  0  0  0  0
    7.7061  -16.3211   26.2688 O   0  0  0  0  0  0  0  0  0  0  0  0
    8.6241  -15.5618   24.3022 N   0  0  0  0  0  0  0  0  0  0  0  0
    9.7838  -16.4660   24.4731 C   0  0  1  0  0  0  0  0  0  0  0  0
   10.5945  -16.4204   23.1988 C   0  0  0  0  0  0  0  0  0  0  0  0
   11.7706  -17.2792   23.1634 C   0  0  0  0  0  0  0  0  0  0  0  0
   11.8842  -18.2383   23.9547 O   0  0  0  0  0  0  0  0  0  0  0  0
   10.5869  -16.0560   25.6217 C   0  0  0  0  0  0  0  0  0  0  0  0
   11.5187  -15.1966   25.4056 O   0  0  0  0  0  0  0  0  0  0  0  0
   12.8097  -17.0568   22.2428 O   0  0  0  0  0  0  0  0  0  0  0  0
   10.9468  -14.6800   28.5532 C   0  0  0  0  0  0  0  0  0  0  0  0
   11.4066  -16.0187   27.9933 C   0  0  2  0  0  0  0  0  0  0  0  0
   10.4778  -16.4738   26.9608 N   0  0  0  0  0  0  0  0  0  0  0  0
   11.5303  -17.0278   29.0434 C   0  0  0  0  0  0  0  0  0  0  0  0
   10.8818  -18.1010   28.9438 O   0  0  0  0  0  0  0  0  0  0  0  0
   12.3334  -16.8471   30.1390 O   0  0  0  0  0  0  0  0  0  0  0  0
  1  2  1  0
  3  4  1  6
  3  5  1  0
  3  2  1  0
  5  7  1  0
  5  6  1  1
  7  9  1  0
  7  8  2  0
  9 10  1  0
 10 14  1  0
 10 11  1  6
 12 16  1  0
 12 11  1  0
 13 12  2  0
 14 15  2  0
 18 17  1  1
 19 18  1  0
 19 14  1  0
 20 22  1  0
 20 18  1  0
 21 20  2  0
M  END
$$$$
