IDA.pdb
     RDKit          3D

 22 21  0  0  1  0  0  0  0  0999 V2000
    7.8327  -11.7376   26.6857 C   0  0  0  0  0  0  0  0  0  0  0  0
    6.8423  -12.8491   26.3902 C   0  0  0  0  0  0  0  0  0  0  0  0
    7.5144  -14.0550   25.8199 C   0  0  2  0  0  0  0  0  0  0  0  0
    8.2750  -13.6446   24.5749 C   0  0  0  0  0  0  0  0  0  0  0  0
    6.5685  -15.1996   25.5373 C   0  0  2  0  0  0  0  0  0  0  0  0
    5.8619  -15.4835   26.7951 N   0  0  0  0  0  0  0  0  0  0  0  0
    7.2584  -16.3938   25.0335 C   0  0  0  0  0  0  0  0  0  0  0  0
    7.8680  -17.1766   25.7866 O   0  0  0  0  0  0  0  0  0  0  0  0
    7.2241  -16.6567   23.6414 N   0  0  0  0  0  0  0  0  0  0  0  0
    7.8895  -17.8756   23.1281 C   0  0  1  0  0  0  0  0  0  0  0  0
    7.1460  -18.3187   21.8895 C   0  0  0  0  0  0  0  0  0  0  0  0
    5.8117  -18.8600   22.1095 C   0  0  0  0  0  0  0  0  0  0  0  0
    5.4771  -19.2965   23.2305 O   0  0  0  0  0  0  0  0  0  0  0  0
    9.2930  -17.6047   22.8298 C   0  0  0  0  0  0  0  0  0  0  0  0
    9.9946  -18.5853   22.3828 O   0  0  0  0  0  0  0  0  0  0  0  0
    4.8632  -18.9083   21.0728 O   0  0  0  0  0  0  0  0  0  0  0  0
   11.6484  -15.0454   21.7635 C   0  0  0  0  0  0  0  0  0  0  0  0
   11.4154  -16.2821   22.6198 C   0  0  2  0  0  0  0  0  0  0  0  0
    9.9984  -16.3943   22.9599 N   0  0  0  0  0  0  0  0  0  0  0  0
   12.2273  -16.2567   23.8350 C   0  0  0  0  0  0  0  0  0  0  0  0
   13.4715  -16.0996   23.7394 O   0  0  0  0  0  0  0  0  0  0  0  0
   11.6787  -16.3971   25.0829 O   0  0  0  0  0  0  0  0  0  0  0  0
  1  2  1  0
  3  4  1  6
  3  5  1  0
  3  2  1  0
  5  7  1  0
  5  6  1  1
  7  9  1  0
  7  8  2  0
  9 10  1  0
 10 14  1  0
 10 11  1  6
 12 16  1  0
 12 11  1  0
 13 12  2  0
 14 15  2  0
 18 17  1  1
 19 18  1  0
 19 14  1  0
 20 22  1  0
 20 18  1  0
 21 20  2  0
M  END
$$$$
