FSK.pdb
     RDKit          3D

 27 27  0  0  1  0  0  0  0  0999 V2000
    5.7363  -16.8333   22.4980 N   0  0  0  0  0  0  0  0  0  0  0  0
    6.9934  -16.8443   21.8165 C   0  0  1  0  0  0  0  0  0  0  0  0
    7.8708  -15.7164   22.2723 C   0  0  0  0  0  0  0  0  0  0  0  0
    7.8991  -14.6884   21.2033 C   0  0  0  0  0  0  0  0  0  0  0  0
    8.7449  -14.8193   20.1268 C   0  0  0  0  0  0  0  0  0  0  0  0
    8.7654  -13.8524   19.1305 C   0  0  0  0  0  0  0  0  0  0  0  0
    7.9460  -12.7474   19.1953 C   0  0  0  0  0  0  0  0  0  0  0  0
    7.0982  -12.6094   20.2677 C   0  0  0  0  0  0  0  0  0  0  0  0
    7.0876  -13.5770   21.2505 C   0  0  0  0  0  0  0  0  0  0  0  0
    7.6833  -18.1605   21.8716 C   0  0  0  0  0  0  0  0  0  0  0  0
    7.6084  -18.8202   22.9214 O   0  0  0  0  0  0  0  0  0  0  0  0
    9.4273  -21.9916   19.5084 O   0  0  0  0  0  0  0  0  0  0  0  0
    8.8896  -20.7162   19.4699 C   0  0  0  0  0  0  0  0  0  0  0  0
    9.0276  -19.9947   20.7833 C   0  0  2  0  0  0  0  0  0  0  0  0
    8.4218  -18.7043   20.7925 N   0  0  0  0  0  0  0  0  0  0  0  0
   10.4421  -19.8708   21.2103 C   0  0  0  0  0  0  0  0  0  0  0  0
   11.0938  -18.8439   20.9266 O   0  0  0  0  0  0  0  0  0  0  0  0
   11.1175  -20.8768   21.9421 N   0  0  0  0  0  0  0  0  0  0  0  0
   12.5130  -20.6914   22.3918 C   0  0  1  0  0  0  0  0  0  0  0  0
   12.7097  -21.2715   23.7481 C   0  0  0  0  0  0  0  0  0  0  0  0
   12.1571  -20.3930   24.8056 C   0  0  0  0  0  0  0  0  0  0  0  0
   12.2459  -20.9861   26.1914 C   0  0  0  0  0  0  0  0  0  0  0  0
   11.5298  -20.0674   27.1662 C   0  0  0  0  0  0  0  0  0  0  0  0
   11.5486  -20.6099   28.5105 N   0  0  0  0  0  0  0  0  0  0  0  0
   13.4071  -21.2051   21.3585 C   0  0  0  0  0  0  0  0  0  0  0  0
   14.6370  -20.9083   21.3638 O   0  0  0  0  0  0  0  0  0  0  0  0
   12.9632  -22.0309   20.3380 O   0  0  0  0  0  0  0  0  0  0  0  0
  2  1  1  1
  2  3  1  0
  4  3  1  0
  4  9  2  0
  5  4  1  0
  6  5  2  0
  6  7  1  0
  7  8  2  0
  8  9  1  0
 10  2  1  0
 11 10  2  0
 12 13  1  0
 14 13  1  6
 14 15  1  0
 15 10  1  0
 16 14  1  0
 16 18  1  0
 17 16  2  0
 19 18  1  0
 19 25  1  0
 19 20  1  1
 21 20  1  0
 22 21  1  0
 23 22  1  0
 24 23  1  0
 25 27  1  0
 26 25  2  0
M  END
$$$$
