FSK.pdb
     RDKit          3D

 27 27  0  0  1  0  0  0  0  0999 V2000
    6.1295  -16.5590   25.3775 N   0  0  0  0  0  0  0  0  0  0  0  0
    7.1563  -15.7608   24.7828 C   0  0  1  0  0  0  0  0  0  0  0  0
    7.8633  -14.9277   25.8103 C   0  0  0  0  0  0  0  0  0  0  0  0
    7.0671  -13.6972   26.0389 C   0  0  0  0  0  0  0  0  0  0  0  0
    7.2972  -12.5645   25.2935 C   0  0  0  0  0  0  0  0  0  0  0  0
    6.5475  -11.4168   25.5139 C   0  0  0  0  0  0  0  0  0  0  0  0
    5.5632  -11.3845   26.4766 C   0  0  0  0  0  0  0  0  0  0  0  0
    5.3273  -12.5120   27.2254 C   0  0  0  0  0  0  0  0  0  0  0  0
    6.0790  -13.6456   26.9965 C   0  0  0  0  0  0  0  0  0  0  0  0
    8.0974  -16.5432   23.9383 C   0  0  0  0  0  0  0  0  0  0  0  0
    8.4121  -17.6854   24.3117 O   0  0  0  0  0  0  0  0  0  0  0  0
   10.3418  -14.7515   20.7359 O   0  0  0  0  0  0  0  0  0  0  0  0
    9.9536  -16.0778   20.6495 C   0  0  0  0  0  0  0  0  0  0  0  0
    9.7029  -16.6922   22.0002 C   0  0  2  0  0  0  0  0  0  0  0  0
    8.6557  -16.0581   22.7306 N   0  0  0  0  0  0  0  0  0  0  0  0
   10.9264  -16.7284   22.8369 C   0  0  0  0  0  0  0  0  0  0  0  0
   11.1401  -15.8252   23.6725 O   0  0  0  0  0  0  0  0  0  0  0  0
   11.8952  -17.7562   22.7421 N   0  0  0  0  0  0  0  0  0  0  0  0
   13.0349  -17.8243   23.6804 C   0  0  1  0  0  0  0  0  0  0  0  0
   12.9992  -19.0915   24.4598 C   0  0  0  0  0  0  0  0  0  0  0  0
   12.6151  -18.8565   25.8714 C   0  0  0  0  0  0  0  0  0  0  0  0
   12.5818  -20.1143   26.7061 C   0  0  0  0  0  0  0  0  0  0  0  0
   12.1243  -19.7604   28.1106 C   0  0  0  0  0  0  0  0  0  0  0  0
   11.9716  -20.9475   28.9286 N   0  0  0  0  0  0  0  0  0  0  0  0
   14.2668  -17.5858   22.9344 C   0  0  0  0  0  0  0  0  0  0  0  0
   14.4069  -18.0348   21.7599 O   0  0  0  0  0  0  0  0  0  0  0  0
   15.3266  -16.8668   23.4639 O   0  0  0  0  0  0  0  0  0  0  0  0
  2  1  1  1
  2  3  1  0
  4  3  1  0
  4  9  2  0
  5  4  1  0
  6  5  2  0
  6  7  1  0
  7  8  2  0
  8  9  1  0
 10  2  1  0
 11 10  2  0
 12 13  1  0
 14 13  1  6
 14 15  1  0
 15 10  1  0
 16 14  1  0
 16 18  1  0
 17 16  2  0
 19 18  1  0
 19 25  1  0
 19 20  1  6
 21 20  1  0
 22 21  1  0
 23 22  1  0
 24 23  1  0
 25 27  1  0
 26 25  2  0
M  END
$$$$
