FSK.pdb
     RDKit          3D

 27 27  0  0  1  0  0  0  0  0999 V2000
    5.6804  -17.1184   25.1266 N   0  0  0  0  0  0  0  0  0  0  0  0
    6.6825  -16.1304   24.8726 C   0  0  1  0  0  0  0  0  0  0  0  0
    7.2479  -15.5859   26.1507 C   0  0  0  0  0  0  0  0  0  0  0  0
    6.9476  -14.1345   26.2107 C   0  0  0  0  0  0  0  0  0  0  0  0
    7.8123  -13.2163   25.6625 C   0  0  0  0  0  0  0  0  0  0  0  0
    7.5238  -11.8594   25.7231 C   0  0  0  0  0  0  0  0  0  0  0  0
    6.3741  -11.4034   26.3288 C   0  0  0  0  0  0  0  0  0  0  0  0
    5.5052  -12.3146   26.8788 C   0  0  0  0  0  0  0  0  0  0  0  0
    5.8034  -13.6595   26.8119 C   0  0  0  0  0  0  0  0  0  0  0  0
    7.7391  -16.5894   23.9324 C   0  0  0  0  0  0  0  0  0  0  0  0
    8.3450  -17.6411   24.1968 O   0  0  0  0  0  0  0  0  0  0  0  0
    9.2842  -14.1265   20.6935 O   0  0  0  0  0  0  0  0  0  0  0  0
    9.2047  -15.5056   20.5991 C   0  0  0  0  0  0  0  0  0  0  0  0
    9.2354  -16.1765   21.9458 C   0  0  2  0  0  0  0  0  0  0  0  0
    8.0936  -15.8935   22.7510 N   0  0  0  0  0  0  0  0  0  0  0  0
   10.4628  -15.8472   22.7097 C   0  0  0  0  0  0  0  0  0  0  0  0
   10.4133  -15.0271   23.6503 O   0  0  0  0  0  0  0  0  0  0  0  0
   11.7244  -16.4240   22.4280 N   0  0  0  0  0  0  0  0  0  0  0  0
   12.6668  -16.7733   23.5115 C   0  0  1  0  0  0  0  0  0  0  0  0
   12.0098  -17.6526   24.5164 C   0  0  0  0  0  0  0  0  0  0  0  0
   12.9817  -18.1787   25.5034 C   0  0  0  0  0  0  0  0  0  0  0  0
   12.3683  -19.1185   26.5136 C   0  0  0  0  0  0  0  0  0  0  0  0
   13.4200  -19.4845   27.5466 C   0  0  0  0  0  0  0  0  0  0  0  0
   12.8735  -20.3579   28.5666 N   0  0  0  0  0  0  0  0  0  0  0  0
   13.8847  -17.3118   22.9134 C   0  0  0  0  0  0  0  0  0  0  0  0
   15.0143  -17.0869   23.4367 O   0  0  0  0  0  0  0  0  0  0  0  0
   13.8664  -18.0848   21.7633 O   0  0  0  0  0  0  0  0  0  0  0  0
  2  1  1  1
  2  3  1  0
  4  3  1  0
  4  9  2  0
  5  4  1  0
  6  5  2  0
  6  7  1  0
  7  8  2  0
  8  9  1  0
 10  2  1  0
 11 10  2  0
 12 13  1  0
 14 13  1  6
 14 15  1  0
 15 10  1  0
 16 14  1  0
 16 18  1  0
 17 16  2  0
 19 18  1  0
 19 25  1  0
 19 20  1  1
 21 20  1  0
 22 21  1  0
 23 22  1  0
 24 23  1  0
 25 27  1  0
 26 25  2  0
M  END
$$$$
