FSK.pdb
     RDKit          3D

 27 27  0  0  1  0  0  0  0  0999 V2000
    6.2248  -16.2367   21.9464 N   0  0  0  0  0  0  0  0  0  0  0  0
    7.6148  -16.4052   22.2370 C   0  0  1  0  0  0  0  0  0  0  0  0
    8.2546  -15.1025   22.6158 C   0  0  0  0  0  0  0  0  0  0  0  0
    8.2424  -14.2157   21.4268 C   0  0  0  0  0  0  0  0  0  0  0  0
    7.5262  -13.0416   21.4351 C   0  0  0  0  0  0  0  0  0  0  0  0
    7.5199  -12.2171   20.3179 C   0  0  0  0  0  0  0  0  0  0  0  0
    8.2249  -12.5521   19.1832 C   0  0  0  0  0  0  0  0  0  0  0  0
    8.9428  -13.7234   19.1671 C   0  0  0  0  0  0  0  0  0  0  0  0
    8.9408  -14.5335   20.2834 C   0  0  0  0  0  0  0  0  0  0  0  0
    7.8845  -17.4813   23.2272 C   0  0  0  0  0  0  0  0  0  0  0  0
    7.8137  -17.2003   24.4351 O   0  0  0  0  0  0  0  0  0  0  0  0
    8.4761  -21.5222   22.0517 O   0  0  0  0  0  0  0  0  0  0  0  0
    8.0059  -21.2125   23.3167 C   0  0  0  0  0  0  0  0  0  0  0  0
    8.4793  -19.8653   23.7917 C   0  0  2  0  0  0  0  0  0  0  0  0
    8.2181  -18.8103   22.8693 N   0  0  0  0  0  0  0  0  0  0  0  0
    9.9217  -19.8654   24.1347 C   0  0  0  0  0  0  0  0  0  0  0  0
   10.7355  -19.2462   23.4177 O   0  0  0  0  0  0  0  0  0  0  0  0
   10.4468  -20.5457   25.2596 N   0  0  0  0  0  0  0  0  0  0  0  0
   11.9039  -20.6352   25.4900 C   0  0  1  0  0  0  0  0  0  0  0  0
   12.2558  -20.1143   26.8389 C   0  0  0  0  0  0  0  0  0  0  0  0
   13.6825  -20.3494   27.1624 C   0  0  0  0  0  0  0  0  0  0  0  0
   14.0825  -19.8488   28.5296 C   0  0  0  0  0  0  0  0  0  0  0  0
   15.5594  -20.1313   28.7440 C   0  0  0  0  0  0  0  0  0  0  0  0
   16.0417  -19.5123   29.9630 N   0  0  0  0  0  0  0  0  0  0  0  0
   12.3348  -22.0032   25.2181 C   0  0  0  0  0  0  0  0  0  0  0  0
   11.6322  -22.9870   25.5911 O   0  0  0  0  0  0  0  0  0  0  0  0
   13.5136  -22.2896   24.5480 O   0  0  0  0  0  0  0  0  0  0  0  0
  2  1  1  1
  2  3  1  0
  4  3  1  0
  4  9  2  0
  5  4  1  0
  6  5  2  0
  6  7  1  0
  7  8  2  0
  8  9  1  0
 10  2  1  0
 11 10  2  0
 12 13  1  0
 14 13  1  6
 14 15  1  0
 15 10  1  0
 16 14  1  0
 16 18  1  0
 17 16  2  0
 19 18  1  0
 19 25  1  0
 19 20  1  1
 21 20  1  0
 22 21  1  0
 23 22  1  0
 24 23  1  0
 25 27  1  0
 26 25  2  0
M  END
$$$$
