FSK.pdb
     RDKit          3D

 27 27  0  0  1  0  0  0  0  0999 V2000
    6.1023  -16.4570   25.1740 N   0  0  0  0  0  0  0  0  0  0  0  0
    7.2234  -15.6864   24.7333 C   0  0  1  0  0  0  0  0  0  0  0  0
    7.8807  -14.9754   25.8788 C   0  0  0  0  0  0  0  0  0  0  0  0
    7.1916  -13.6769   26.0769 C   0  0  0  0  0  0  0  0  0  0  0  0
    6.1703  -13.5572   26.9901 C   0  0  0  0  0  0  0  0  0  0  0  0
    5.5302  -12.3381   27.1693 C   0  0  0  0  0  0  0  0  0  0  0  0
    5.8993  -11.2278   26.4428 C   0  0  0  0  0  0  0  0  0  0  0  0
    6.9188  -11.3394   25.5285 C   0  0  0  0  0  0  0  0  0  0  0  0
    7.5464  -12.5560   25.3601 C   0  0  0  0  0  0  0  0  0  0  0  0
    8.1909  -16.4659   23.9163 C   0  0  0  0  0  0  0  0  0  0  0  0
    8.4977  -17.6074   24.2983 O   0  0  0  0  0  0  0  0  0  0  0  0
   10.1689  -14.7272   20.5601 O   0  0  0  0  0  0  0  0  0  0  0  0
   10.0475  -16.1049   20.6278 C   0  0  0  0  0  0  0  0  0  0  0  0
    9.8680  -16.5972   22.0384 C   0  0  2  0  0  0  0  0  0  0  0  0
    8.7827  -15.9788   22.7255 N   0  0  0  0  0  0  0  0  0  0  0  0
   11.1023  -16.4497   22.8465 C   0  0  0  0  0  0  0  0  0  0  0  0
   11.3478  -15.3690   23.4224 O   0  0  0  0  0  0  0  0  0  0  0  0
   12.0469  -17.4915   23.0088 N   0  0  0  0  0  0  0  0  0  0  0  0
   13.2901  -17.2856   23.7808 C   0  0  1  0  0  0  0  0  0  0  0  0
   13.5994  -18.4833   24.6083 C   0  0  0  0  0  0  0  0  0  0  0  0
   12.6252  -18.6539   25.7116 C   0  0  0  0  0  0  0  0  0  0  0  0
   12.8758  -19.8813   26.5546 C   0  0  0  0  0  0  0  0  0  0  0  0
   11.8231  -19.9505   27.6474 C   0  0  0  0  0  0  0  0  0  0  0  0
   11.9771  -21.1474   28.4508 N   0  0  0  0  0  0  0  0  0  0  0  0
   14.3463  -16.8738   22.8611 C   0  0  0  0  0  0  0  0  0  0  0  0
   15.4188  -16.3638   23.2972 O   0  0  0  0  0  0  0  0  0  0  0  0
   14.2314  -17.0194   21.4877 O   0  0  0  0  0  0  0  0  0  0  0  0
  2  1  1  1
  2  3  1  0
  4  3  1  0
  4  9  2  0
  5  4  1  0
  6  5  2  0
  6  7  1  0
  7  8  2  0
  8  9  1  0
 10  2  1  0
 11 10  2  0
 12 13  1  0
 14 13  1  6
 14 15  1  0
 15 10  1  0
 16 14  1  0
 16 18  1  0
 17 16  2  0
 19 18  1  0
 19 25  1  0
 19 20  1  6
 21 20  1  0
 22 21  1  0
 23 22  1  0
 24 23  1  0
 25 27  1  0
 26 25  2  0
M  END
$$$$
