FSK.pdb
     RDKit          3D

 27 27  0  0  1  0  0  0  0  0999 V2000
    7.7584  -16.6934   21.9783 N   0  0  0  0  0  0  0  0  0  0  0  0
    9.1196  -16.3679   21.6849 C   0  0  1  0  0  0  0  0  0  0  0  0
    9.4266  -14.9417   22.0335 C   0  0  0  0  0  0  0  0  0  0  0  0
    8.8144  -14.0690   21.0022 C   0  0  0  0  0  0  0  0  0  0  0  0
    9.5002  -13.7550   19.8522 C   0  0  0  0  0  0  0  0  0  0  0  0
    8.9199  -12.9373   18.8918 C   0  0  0  0  0  0  0  0  0  0  0  0
    7.6536  -12.4245   19.0656 C   0  0  0  0  0  0  0  0  0  0  0  0
    6.9620  -12.7336   20.2119 C   0  0  0  0  0  0  0  0  0  0  0  0
    7.5497  -13.5470   21.1580 C   0  0  0  0  0  0  0  0  0  0  0  0
   10.0952  -17.3215   22.2767 C   0  0  0  0  0  0  0  0  0  0  0  0
   10.0628  -17.5101   23.5040 O   0  0  0  0  0  0  0  0  0  0  0  0
   10.6207  -20.8219   21.2383 O   0  0  0  0  0  0  0  0  0  0  0  0
   11.3191  -20.3282   22.3272 C   0  0  0  0  0  0  0  0  0  0  0  0
   11.9630  -18.9984   22.0418 C   0  0  2  0  0  0  0  0  0  0  0  0
   11.0604  -18.0274   21.5179 N   0  0  0  0  0  0  0  0  0  0  0  0
   13.1269  -19.1214   21.1315 C   0  0  0  0  0  0  0  0  0  0  0  0
   12.9973  -19.6801   20.0221 O   0  0  0  0  0  0  0  0  0  0  0  0
   14.4141  -18.6287   21.4547 N   0  0  0  0  0  0  0  0  0  0  0  0
   15.5595  -18.8192   20.5405 C   0  0  1  0  0  0  0  0  0  0  0  0
   16.1341  -17.5069   20.1374 C   0  0  0  0  0  0  0  0  0  0  0  0
   15.1451  -16.6746   19.4130 C   0  0  0  0  0  0  0  0  0  0  0  0
   15.7005  -15.3539   18.9362 C   0  0  0  0  0  0  0  0  0  0  0  0
   14.5875  -14.5648   18.2686 C   0  0  0  0  0  0  0  0  0  0  0  0
   15.0941  -13.3465   17.6680 N   0  0  0  0  0  0  0  0  0  0  0  0
   16.5003  -19.7475   21.1603 C   0  0  0  0  0  0  0  0  0  0  0  0
   16.3853  -20.0642   22.3798 O   0  0  0  0  0  0  0  0  0  0  0  0
   17.5477  -20.3209   20.4571 O   0  0  0  0  0  0  0  0  0  0  0  0
  2  1  1  1
  2  3  1  0
  4  3  1  0
  4  9  2  0
  5  4  1  0
  6  5  2  0
  6  7  1  0
  7  8  2  0
  8  9  1  0
 10  2  1  0
 11 10  2  0
 12 13  1  0
 14 13  1  6
 14 15  1  0
 15 10  1  0
 16 14  1  0
 16 18  1  0
 17 16  2  0
 19 18  1  0
 19 25  1  0
 19 20  1  1
 21 20  1  0
 22 21  1  0
 23 22  1  0
 24 23  1  0
 25 27  1  0
 26 25  2  0
M  END
$$$$
