FSK.pdb
     RDKit          3D

 27 27  0  0  1  0  0  0  0  0999 V2000
    8.2461  -17.1683   20.6060 N   0  0  0  0  0  0  0  0  0  0  0  0
    9.4582  -16.5271   21.0117 C   0  0  1  0  0  0  0  0  0  0  0  0
    9.1886  -15.4139   21.9801 C   0  0  0  0  0  0  0  0  0  0  0  0
    8.4913  -14.3246   21.2537 C   0  0  0  0  0  0  0  0  0  0  0  0
    7.1215  -14.2129   21.3042 C   0  0  0  0  0  0  0  0  0  0  0  0
    6.4765  -13.1905   20.6212 C   0  0  0  0  0  0  0  0  0  0  0  0
    7.1868  -12.2705   19.8823 C   0  0  0  0  0  0  0  0  0  0  0  0
    8.5556  -12.3754   19.8269 C   0  0  0  0  0  0  0  0  0  0  0  0
    9.1841  -13.3956   20.5099 C   0  0  0  0  0  0  0  0  0  0  0  0
   10.4904  -17.4757   21.5076 C   0  0  0  0  0  0  0  0  0  0  0  0
   10.1480  -18.3389   22.3326 O   0  0  0  0  0  0  0  0  0  0  0  0
   14.7094  -17.0286   20.7741 O   0  0  0  0  0  0  0  0  0  0  0  0
   14.1222  -18.2817   20.7276 C   0  0  0  0  0  0  0  0  0  0  0  0
   12.8541  -18.3522   21.5347 C   0  0  2  0  0  0  0  0  0  0  0  0
   11.8437  -17.4498   21.0910 N   0  0  0  0  0  0  0  0  0  0  0  0
   13.0963  -18.1377   22.9817 C   0  0  0  0  0  0  0  0  0  0  0  0
   12.9788  -16.9956   23.4733 O   0  0  0  0  0  0  0  0  0  0  0  0
   13.4636  -19.1811   23.8650 N   0  0  0  0  0  0  0  0  0  0  0  0
   13.8141  -18.9049   25.2739 C   0  0  1  0  0  0  0  0  0  0  0  0
   12.7301  -19.3629   26.1848 C   0  0  0  0  0  0  0  0  0  0  0  0
   12.5754  -20.8362   26.1558 C   0  0  0  0  0  0  0  0  0  0  0  0
   11.6235  -21.3646   27.2020 C   0  0  0  0  0  0  0  0  0  0  0  0
   11.4689  -22.8639   27.0138 C   0  0  0  0  0  0  0  0  0  0  0  0
   10.7325  -23.4585   28.1118 N   0  0  0  0  0  0  0  0  0  0  0  0
   15.1341  -19.4670   25.5438 C   0  0  0  0  0  0  0  0  0  0  0  0
   15.7308  -20.1606   24.6701 O   0  0  0  0  0  0  0  0  0  0  0  0
   15.7905  -19.2718   26.7486 O   0  0  0  0  0  0  0  0  0  0  0  0
  2  1  1  1
  2  3  1  0
  4  3  1  0
  4  9  2  0
  5  4  1  0
  6  5  2  0
  6  7  1  0
  7  8  2  0
  8  9  1  0
 10  2  1  0
 11 10  2  0
 12 13  1  0
 14 13  1  6
 14 15  1  0
 15 10  1  0
 16 14  1  0
 16 18  1  0
 17 16  2  0
 19 18  1  0
 19 25  1  0
 19 20  1  1
 21 20  1  0
 22 21  1  0
 23 22  1  0
 24 23  1  0
 25 27  1  0
 26 25  2  0
M  END
$$$$
