FSK.pdb
     RDKit          3D

 27 27  0  0  1  0  0  0  0  0999 V2000
    9.3259  -17.2015   20.0375 N   0  0  0  0  0  0  0  0  0  0  0  0
    9.4526  -16.4743   21.2623 C   0  0  1  0  0  0  0  0  0  0  0  0
    8.1096  -16.1011   21.8163 C   0  0  0  0  0  0  0  0  0  0  0  0
    7.7564  -14.7525   21.3098 C   0  0  0  0  0  0  0  0  0  0  0  0
    6.9861  -14.6075   20.1797 C   0  0  0  0  0  0  0  0  0  0  0  0
    6.6600  -13.3414   19.7120 C   0  0  0  0  0  0  0  0  0  0  0  0
    7.0964  -12.2089   20.3629 C   0  0  0  0  0  0  0  0  0  0  0  0
    7.8663  -12.3455   21.4927 C   0  0  0  0  0  0  0  0  0  0  0  0
    8.1831  -13.6087   21.9468 C   0  0  0  0  0  0  0  0  0  0  0  0
   10.3138  -17.1541   22.2660 C   0  0  0  0  0  0  0  0  0  0  0  0
   10.5185  -18.3725   22.1364 O   0  0  0  0  0  0  0  0  0  0  0  0
   11.7084  -15.3695   25.9505 O   0  0  0  0  0  0  0  0  0  0  0  0
   12.5678  -16.0762   25.1265 C   0  0  0  0  0  0  0  0  0  0  0  0
   11.8454  -17.0783   24.2671 C   0  0  2  0  0  0  0  0  0  0  0  0
   10.9143  -16.4891   23.3627 N   0  0  0  0  0  0  0  0  0  0  0  0
   11.1532  -18.1134   25.0719 C   0  0  0  0  0  0  0  0  0  0  0  0
    9.9267  -18.0209   25.2887 O   0  0  0  0  0  0  0  0  0  0  0  0
   11.8193  -19.2331   25.6254 N   0  0  0  0  0  0  0  0  0  0  0  0
   11.1261  -20.1608   26.5434 C   0  0  1  0  0  0  0  0  0  0  0  0
   11.4933  -21.5711   26.2417 C   0  0  0  0  0  0  0  0  0  0  0  0
   10.3065  -22.3816   25.8813 C   0  0  0  0  0  0  0  0  0  0  0  0
   10.6406  -23.8005   25.4878 C   0  0  0  0  0  0  0  0  0  0  0  0
    9.4064  -24.4465   24.8822 C   0  0  0  0  0  0  0  0  0  0  0  0
    9.6879  -25.7937   24.4268 N   0  0  0  0  0  0  0  0  0  0  0  0
   11.3769  -19.7313   27.9159 C   0  0  0  0  0  0  0  0  0  0  0  0
   10.7000  -20.2052   28.8740 O   0  0  0  0  0  0  0  0  0  0  0  0
   12.3529  -18.8006   28.2346 O   0  0  0  0  0  0  0  0  0  0  0  0
  2  1  1  6
  2  3  1  0
  4  3  1  0
  4  9  2  0
  5  4  1  0
  6  5  2  0
  6  7  1  0
  7  8  2  0
  8  9  1  0
 10  2  1  0
 11 10  2  0
 12 13  1  0
 14 13  1  1
 14 15  1  0
 15 10  1  0
 16 14  1  0
 16 18  1  0
 17 16  2  0
 19 18  1  0
 19 25  1  0
 19 20  1  1
 21 20  1  0
 22 21  1  0
 23 22  1  0
 24 23  1  0
 25 27  1  0
 26 25  2  0
M  END
$$$$
