FSK.pdb
     RDKit          3D

 27 27  0  0  1  0  0  0  0  0999 V2000
    6.2686  -17.3288   25.3193 N   0  0  0  0  0  0  0  0  0  0  0  0
    7.1859  -16.3035   24.9292 C   0  0  1  0  0  0  0  0  0  0  0  0
    7.6982  -15.5482   26.1195 C   0  0  0  0  0  0  0  0  0  0  0  0
    7.0579  -14.2102   26.1318 C   0  0  0  0  0  0  0  0  0  0  0  0
    6.0367  -13.9295   27.0092 C   0  0  0  0  0  0  0  0  0  0  0  0
    5.4426  -12.6746   27.0140 C   0  0  0  0  0  0  0  0  0  0  0  0
    5.8579  -11.6880   26.1474 C   0  0  0  0  0  0  0  0  0  0  0  0
    6.8775  -11.9607   25.2679 C   0  0  0  0  0  0  0  0  0  0  0  0
    7.4593  -13.2113   25.2732 C   0  0  0  0  0  0  0  0  0  0  0  0
    8.2814  -16.7943   24.0515 C   0  0  0  0  0  0  0  0  0  0  0  0
    8.8654  -17.8431   24.3706 O   0  0  0  0  0  0  0  0  0  0  0  0
    9.9631  -14.4063   20.8540 O   0  0  0  0  0  0  0  0  0  0  0  0
    9.9231  -15.7881   20.7748 C   0  0  0  0  0  0  0  0  0  0  0  0
    9.8749  -16.4400   22.1303 C   0  0  2  0  0  0  0  0  0  0  0  0
    8.6964  -16.1316   22.8708 N   0  0  0  0  0  0  0  0  0  0  0  0
   11.0649  -16.1151   22.9528 C   0  0  0  0  0  0  0  0  0  0  0  0
   10.9458  -15.4030   23.9718 O   0  0  0  0  0  0  0  0  0  0  0  0
   12.3663  -16.5777   22.6426 N   0  0  0  0  0  0  0  0  0  0  0  0
   13.5291  -16.2132   23.4788 C   0  0  1  0  0  0  0  0  0  0  0  0
   13.2643  -16.5219   24.9103 C   0  0  0  0  0  0  0  0  0  0  0  0
   13.1728  -17.9814   25.1487 C   0  0  0  0  0  0  0  0  0  0  0  0
   13.0224  -18.3475   26.6059 C   0  0  0  0  0  0  0  0  0  0  0  0
   12.8208  -19.8488   26.7174 C   0  0  0  0  0  0  0  0  0  0  0  0
   11.5071  -20.1654   27.2424 N   0  0  0  0  0  0  0  0  0  0  0  0
   14.7216  -16.8398   22.9162 C   0  0  0  0  0  0  0  0  0  0  0  0
   15.8613  -16.6287   23.4232 O   0  0  0  0  0  0  0  0  0  0  0  0
   14.6674  -17.6843   21.8188 O   0  0  0  0  0  0  0  0  0  0  0  0
  2  1  1  1
  2  3  1  0
  4  3  1  0
  4  9  2  0
  5  4  1  0
  6  5  2  0
  6  7  1  0
  7  8  2  0
  8  9  1  0
 10  2  1  0
 11 10  2  0
 12 13  1  0
 14 13  1  6
 14 15  1  0
 15 10  1  0
 16 14  1  0
 16 18  1  0
 17 16  2  0
 19 18  1  0
 19 25  1  0
 19 20  1  1
 21 20  1  0
 22 21  1  0
 23 22  1  0
 24 23  1  0
 25 27  1  0
 26 25  2  0
M  END
$$$$
