FSK.pdb
     RDKit          3D

 27 27  0  0  1  0  0  0  0  0999 V2000
    8.2393  -17.3081   19.9040 N   0  0  0  0  0  0  0  0  0  0  0  0
    9.5001  -16.6676   19.6922 C   0  0  1  0  0  0  0  0  0  0  0  0
    9.3419  -15.3969   18.9111 C   0  0  0  0  0  0  0  0  0  0  0  0
    8.4807  -14.4755   19.6920 C   0  0  0  0  0  0  0  0  0  0  0  0
    8.1920  -13.2164   19.2200 C   0  0  0  0  0  0  0  0  0  0  0  0
    7.3852  -12.3600   19.9572 C   0  0  0  0  0  0  0  0  0  0  0  0
    6.8584  -12.7471   21.1694 C   0  0  0  0  0  0  0  0  0  0  0  0
    7.1422  -14.0035   21.6477 C   0  0  0  0  0  0  0  0  0  0  0  0
    7.9449  -14.8445   20.9056 C   0  0  0  0  0  0  0  0  0  0  0  0
   10.2812  -16.4738   20.9426 C   0  0  0  0  0  0  0  0  0  0  0  0
   11.4374  -16.0290   20.8509 O   0  0  0  0  0  0  0  0  0  0  0  0
    8.6377  -17.0633   24.8750 O   0  0  0  0  0  0  0  0  0  0  0  0
    9.7103  -16.2244   24.6244 C   0  0  0  0  0  0  0  0  0  0  0  0
   10.5278  -16.6740   23.4437 C   0  0  2  0  0  0  0  0  0  0  0  0
    9.7797  -16.7685   22.2338 N   0  0  0  0  0  0  0  0  0  0  0  0
   11.2133  -17.9647   23.6936 C   0  0  0  0  0  0  0  0  0  0  0  0
   10.7244  -19.0278   23.2569 O   0  0  0  0  0  0  0  0  0  0  0  0
   12.4246  -18.0667   24.4191 N   0  0  0  0  0  0  0  0  0  0  0  0
   13.0126  -19.3820   24.7481 C   0  0  1  0  0  0  0  0  0  0  0  0
   14.4509  -19.4246   24.3682 C   0  0  0  0  0  0  0  0  0  0  0  0
   15.0519  -20.7504   24.6446 C   0  0  0  0  0  0  0  0  0  0  0  0
   16.4928  -20.8636   24.2076 C   0  0  0  0  0  0  0  0  0  0  0  0
   16.9671  -22.2875   24.4414 C   0  0  0  0  0  0  0  0  0  0  0  0
   18.3196  -22.4777   23.9553 N   0  0  0  0  0  0  0  0  0  0  0  0
   12.7286  -19.6816   26.1483 C   0  0  0  0  0  0  0  0  0  0  0  0
   12.5522  -20.8749   26.5297 O   0  0  0  0  0  0  0  0  0  0  0  0
   12.6409  -18.6923   27.1148 O   0  0  0  0  0  0  0  0  0  0  0  0
  2  1  1  1
  2  3  1  0
  4  3  1  0
  4  9  2  0
  5  4  1  0
  6  5  2  0
  6  7  1  0
  7  8  2  0
  8  9  1  0
 10  2  1  0
 11 10  2  0
 12 13  1  0
 14 13  1  1
 14 15  1  0
 15 10  1  0
 16 14  1  0
 16 18  1  0
 17 16  2  0
 19 18  1  0
 19 25  1  0
 19 20  1  1
 21 20  1  0
 22 21  1  0
 23 22  1  0
 24 23  1  0
 25 27  1  0
 26 25  2  0
M  END
$$$$
