FSK.pdb
     RDKit          3D

 27 27  0  0  1  0  0  0  0  0999 V2000
    6.1047  -16.4958   25.5398 N   0  0  0  0  0  0  0  0  0  0  0  0
    7.1643  -15.7473   24.9382 C   0  0  1  0  0  0  0  0  0  0  0  0
    7.8142  -14.8286   25.9299 C   0  0  0  0  0  0  0  0  0  0  0  0
    7.1806  -13.4927   25.8104 C   0  0  0  0  0  0  0  0  0  0  0  0
    6.1214  -13.1445   26.6156 C   0  0  0  0  0  0  0  0  0  0  0  0
    5.5338  -11.8921   26.4974 C   0  0  0  0  0  0  0  0  0  0  0  0
    5.9934  -10.9751   25.5783 C   0  0  0  0  0  0  0  0  0  0  0  0
    7.0512  -11.3155   24.7703 C   0  0  0  0  0  0  0  0  0  0  0  0
    7.6259  -12.5627   24.8978 C   0  0  0  0  0  0  0  0  0  0  0  0
    8.1499  -16.5950   24.2163 C   0  0  0  0  0  0  0  0  0  0  0  0
    8.4874  -17.6735   24.7320 O   0  0  0  0  0  0  0  0  0  0  0  0
   10.1329  -15.2441   20.6798 O   0  0  0  0  0  0  0  0  0  0  0  0
    9.9239  -16.6006   20.8622 C   0  0  0  0  0  0  0  0  0  0  0  0
    9.7605  -16.9668   22.3126 C   0  0  2  0  0  0  0  0  0  0  0  0
    8.7259  -16.2407   22.9720 N   0  0  0  0  0  0  0  0  0  0  0  0
   11.0226  -16.8162   23.0759 C   0  0  0  0  0  0  0  0  0  0  0  0
   11.3166  -15.7158   23.5882 O   0  0  0  0  0  0  0  0  0  0  0  0
   11.9412  -17.8767   23.2641 N   0  0  0  0  0  0  0  0  0  0  0  0
   13.1289  -17.7177   24.1290 C   0  0  1  0  0  0  0  0  0  0  0  0
   13.4436  -18.9924   24.8295 C   0  0  0  0  0  0  0  0  0  0  0  0
   12.4407  -19.3061   25.8741 C   0  0  0  0  0  0  0  0  0  0  0  0
   12.7152  -20.5973   26.6071 C   0  0  0  0  0  0  0  0  0  0  0  0
   11.5646  -20.8768   27.5586 C   0  0  0  0  0  0  0  0  0  0  0  0
   11.8148  -22.0642   28.3516 N   0  0  0  0  0  0  0  0  0  0  0  0
   14.2160  -17.1613   23.3291 C   0  0  0  0  0  0  0  0  0  0  0  0
   14.2000  -17.2518   22.0673 O   0  0  0  0  0  0  0  0  0  0  0  0
   15.3008  -16.5152   23.9002 O   0  0  0  0  0  0  0  0  0  0  0  0
  2  1  1  1
  2  3  1  0
  4  3  1  0
  4  9  2  0
  5  4  1  0
  6  5  2  0
  6  7  1  0
  7  8  2  0
  8  9  1  0
 10  2  1  0
 11 10  2  0
 12 13  1  0
 14 13  1  6
 14 15  1  0
 15 10  1  0
 16 14  1  0
 16 18  1  0
 17 16  2  0
 19 18  1  0
 19 25  1  0
 19 20  1  6
 21 20  1  0
 22 21  1  0
 23 22  1  0
 24 23  1  0
 25 27  1  0
 26 25  2  0
M  END
$$$$
