FSK.pdb
     RDKit          3D

 27 27  0  0  1  0  0  0  0  0999 V2000
    5.9361  -16.8699   25.5466 N   0  0  0  0  0  0  0  0  0  0  0  0
    6.8000  -15.8713   24.9977 C   0  0  1  0  0  0  0  0  0  0  0  0
    7.5373  -15.1351   26.0766 C   0  0  0  0  0  0  0  0  0  0  0  0
    6.8931  -13.8116   26.2599 C   0  0  0  0  0  0  0  0  0  0  0  0
    7.3938  -12.6950   25.6322 C   0  0  0  0  0  0  0  0  0  0  0  0
    6.7849  -11.4598   25.8092 C   0  0  0  0  0  0  0  0  0  0  0  0
    5.6736  -11.3233   26.6112 C   0  0  0  0  0  0  0  0  0  0  0  0
    5.1674  -12.4342   27.2417 C   0  0  0  0  0  0  0  0  0  0  0  0
    5.7815  -13.6553   27.0575 C   0  0  0  0  0  0  0  0  0  0  0  0
    7.7076  -16.3920   23.9411 C   0  0  0  0  0  0  0  0  0  0  0  0
    8.3747  -17.4103   24.1883 O   0  0  0  0  0  0  0  0  0  0  0  0
    8.4511  -13.9866   20.6149 O   0  0  0  0  0  0  0  0  0  0  0  0
    8.7885  -15.3192   20.4491 C   0  0  0  0  0  0  0  0  0  0  0  0
    8.9242  -16.0449   21.7604 C   0  0  2  0  0  0  0  0  0  0  0  0
    7.8540  -15.7908   22.6672 N   0  0  0  0  0  0  0  0  0  0  0  0
   10.2122  -15.7521   22.4340 C   0  0  0  0  0  0  0  0  0  0  0  0
   10.2437  -14.9813   23.4161 O   0  0  0  0  0  0  0  0  0  0  0  0
   11.4445  -16.3108   22.0178 N   0  0  0  0  0  0  0  0  0  0  0  0
   12.4996  -16.6533   22.9942 C   0  0  1  0  0  0  0  0  0  0  0  0
   11.9422  -17.4722   24.1049 C   0  0  0  0  0  0  0  0  0  0  0  0
   13.0081  -17.9807   24.9997 C   0  0  0  0  0  0  0  0  0  0  0  0
   12.4926  -18.8549   26.1176 C   0  0  0  0  0  0  0  0  0  0  0  0
   13.6692  -19.3311   26.9519 C   0  0  0  0  0  0  0  0  0  0  0  0
   13.2306  -20.1755   28.0457 N   0  0  0  0  0  0  0  0  0  0  0  0
   13.6196  -17.2554   22.2772 C   0  0  0  0  0  0  0  0  0  0  0  0
   14.7728  -16.7378   22.3305 O   0  0  0  0  0  0  0  0  0  0  0  0
   13.4803  -18.4054   21.5164 O   0  0  0  0  0  0  0  0  0  0  0  0
  2  1  1  1
  2  3  1  0
  4  3  1  0
  4  9  2  0
  5  4  1  0
  6  5  2  0
  6  7  1  0
  7  8  2  0
  8  9  1  0
 10  2  1  0
 11 10  2  0
 12 13  1  0
 14 13  1  6
 14 15  1  0
 15 10  1  0
 16 14  1  0
 16 18  1  0
 17 16  2  0
 19 18  1  0
 19 25  1  0
 19 20  1  1
 21 20  1  0
 22 21  1  0
 23 22  1  0
 24 23  1  0
 25 27  1  0
 26 25  2  0
M  END
$$$$
