FSK.pdb
     RDKit          3D

 27 27  0  0  1  0  0  0  0  0999 V2000
    5.8824  -16.9585   25.3853 N   0  0  0  0  0  0  0  0  0  0  0  0
    6.9265  -16.0611   24.9985 C   0  0  1  0  0  0  0  0  0  0  0  0
    7.5285  -15.3786   26.1908 C   0  0  0  0  0  0  0  0  0  0  0  0
    7.1384  -13.9480   26.1535 C   0  0  0  0  0  0  0  0  0  0  0  0
    7.9917  -13.0017   25.6358 C   0  0  0  0  0  0  0  0  0  0  0  0
    7.6190  -11.6646   25.6047 C   0  0  0  0  0  0  0  0  0  0  0  0
    6.3956  -11.2561   26.0876 C   0  0  0  0  0  0  0  0  0  0  0  0
    5.5375  -12.1955   26.6064 C   0  0  0  0  0  0  0  0  0  0  0  0
    5.9198  -13.5204   26.6314 C   0  0  0  0  0  0  0  0  0  0  0  0
    7.9519  -16.6903   24.1245 C   0  0  0  0  0  0  0  0  0  0  0  0
    8.3046  -17.8545   24.3759 O   0  0  0  0  0  0  0  0  0  0  0  0
   10.9820  -16.2531   20.2806 O   0  0  0  0  0  0  0  0  0  0  0  0
    9.9535  -15.7143   21.0349 C   0  0  0  0  0  0  0  0  0  0  0  0
    9.5943  -16.5760   22.2152 C   0  0  2  0  0  0  0  0  0  0  0  0
    8.5494  -16.0352   23.0202 N   0  0  0  0  0  0  0  0  0  0  0  0
   10.7668  -16.8701   23.0737 C   0  0  0  0  0  0  0  0  0  0  0  0
   11.0632  -16.1020   24.0129 O   0  0  0  0  0  0  0  0  0  0  0  0
   11.5947  -18.0030   22.8867 N   0  0  0  0  0  0  0  0  0  0  0  0
   12.7566  -18.2567   23.7640 C   0  0  1  0  0  0  0  0  0  0  0  0
   12.7691  -19.6720   24.2237 C   0  0  0  0  0  0  0  0  0  0  0  0
   13.8076  -20.4659   23.5260 C   0  0  0  0  0  0  0  0  0  0  0  0
   13.8507  -21.9133   23.9540 C   0  0  0  0  0  0  0  0  0  0  0  0
   15.0583  -22.5787   23.3166 C   0  0  0  0  0  0  0  0  0  0  0  0
   15.0983  -23.9960   23.6190 N   0  0  0  0  0  0  0  0  0  0  0  0
   13.9652  -17.8143   23.0752 C   0  0  0  0  0  0  0  0  0  0  0  0
   13.9774  -17.6772   21.8176 O   0  0  0  0  0  0  0  0  0  0  0  0
   15.1398  -17.5251   23.7514 O   0  0  0  0  0  0  0  0  0  0  0  0
  2  1  1  1
  2  3  1  0
  4  3  1  0
  4  9  2  0
  5  4  1  0
  6  5  2  0
  6  7  1  0
  7  8  2  0
  8  9  1  0
 10  2  1  0
 11 10  2  0
 12 13  1  0
 14 13  1  6
 14 15  1  0
 15 10  1  0
 16 14  1  0
 16 18  1  0
 17 16  2  0
 19 18  1  0
 19 25  1  0
 19 20  1  6
 21 20  1  0
 22 21  1  0
 23 22  1  0
 24 23  1  0
 25 27  1  0
 26 25  2  0
M  END
$$$$
