FSK.pdb
     RDKit          3D

 27 27  0  0  1  0  0  0  0  0999 V2000
    5.9382  -16.7450   25.6204 N   0  0  0  0  0  0  0  0  0  0  0  0
    6.7795  -15.8281   24.9158 C   0  0  1  0  0  0  0  0  0  0  0  0
    7.7136  -15.1172   25.8495 C   0  0  0  0  0  0  0  0  0  0  0  0
    7.2048  -13.7394   26.0562 C   0  0  0  0  0  0  0  0  0  0  0  0
    7.7747  -12.6752   25.3972 C   0  0  0  0  0  0  0  0  0  0  0  0
    7.2925  -11.3884   25.5964 C   0  0  0  0  0  0  0  0  0  0  0  0
    6.2402  -11.1480   26.4518 C   0  0  0  0  0  0  0  0  0  0  0  0
    5.6655  -12.2060   27.1138 C   0  0  0  0  0  0  0  0  0  0  0  0
    6.1539  -13.4792   26.9071 C   0  0  0  0  0  0  0  0  0  0  0  0
    7.4869  -16.4435   23.7617 C   0  0  0  0  0  0  0  0  0  0  0  0
    8.0105  -17.5589   23.9197 O   0  0  0  0  0  0  0  0  0  0  0  0
    8.4091  -14.2092   20.1389 O   0  0  0  0  0  0  0  0  0  0  0  0
    8.2434  -15.5838   20.1376 C   0  0  0  0  0  0  0  0  0  0  0  0
    8.5320  -16.1985   21.4805 C   0  0  2  0  0  0  0  0  0  0  0  0
    7.5972  -15.8281   22.4910 N   0  0  0  0  0  0  0  0  0  0  0  0
    9.9044  -15.8966   21.9535 C   0  0  0  0  0  0  0  0  0  0  0  0
   10.1029  -14.9350   22.7253 O   0  0  0  0  0  0  0  0  0  0  0  0
   11.0363  -16.6557   21.5709 N   0  0  0  0  0  0  0  0  0  0  0  0
   12.0213  -17.1199   22.5701 C   0  0  1  0  0  0  0  0  0  0  0  0
   11.3637  -17.9654   23.6032 C   0  0  0  0  0  0  0  0  0  0  0  0
   12.3370  -18.4696   24.6001 C   0  0  0  0  0  0  0  0  0  0  0  0
   11.7219  -19.3730   25.6419 C   0  0  0  0  0  0  0  0  0  0  0  0
   12.8102  -19.8376   26.5942 C   0  0  0  0  0  0  0  0  0  0  0  0
   12.2631  -20.6546   27.6595 N   0  0  0  0  0  0  0  0  0  0  0  0
   13.1360  -17.7483   21.8675 C   0  0  0  0  0  0  0  0  0  0  0  0
   14.3228  -17.3524   22.0560 O   0  0  0  0  0  0  0  0  0  0  0  0
   12.9552  -18.7933   20.9754 O   0  0  0  0  0  0  0  0  0  0  0  0
  2  1  1  1
  2  3  1  0
  4  3  1  0
  4  9  2  0
  5  4  1  0
  6  5  2  0
  6  7  1  0
  7  8  2  0
  8  9  1  0
 10  2  1  0
 11 10  2  0
 12 13  1  0
 14 13  1  6
 14 15  1  0
 15 10  1  0
 16 14  1  0
 16 18  1  0
 17 16  2  0
 19 18  1  0
 19 25  1  0
 19 20  1  1
 21 20  1  0
 22 21  1  0
 23 22  1  0
 24 23  1  0
 25 27  1  0
 26 25  2  0
M  END
$$$$
