FSK.pdb
     RDKit          3D

 27 27  0  0  1  0  0  0  0  0999 V2000
    6.9965  -14.4173   23.1302 N   0  0  0  0  0  0  0  0  0  0  0  0
    8.1694  -15.0496   22.6110 C   0  0  1  0  0  0  0  0  0  0  0  0
    8.9914  -14.0922   21.8002 C   0  0  0  0  0  0  0  0  0  0  0  0
    8.2701  -13.8177   20.5334 C   0  0  0  0  0  0  0  0  0  0  0  0
    7.6149  -12.6235   20.3441 C   0  0  0  0  0  0  0  0  0  0  0  0
    6.9419  -12.3745   19.1554 C   0  0  0  0  0  0  0  0  0  0  0  0
    6.9142  -13.3097   18.1448 C   0  0  0  0  0  0  0  0  0  0  0  0
    7.5664  -14.5053   18.3263 C   0  0  0  0  0  0  0  0  0  0  0  0
    8.2312  -14.7401   19.5117 C   0  0  0  0  0  0  0  0  0  0  0  0
    8.9707  -15.7506   23.6492 C   0  0  0  0  0  0  0  0  0  0  0  0
    9.6733  -15.0661   24.4114 O   0  0  0  0  0  0  0  0  0  0  0  0
    8.6094  -19.9208   24.3631 O   0  0  0  0  0  0  0  0  0  0  0  0
    9.1252  -19.0789   25.3337 C   0  0  0  0  0  0  0  0  0  0  0  0
    9.7944  -17.8660   24.7457 C   0  0  2  0  0  0  0  0  0  0  0  0
    8.9774  -17.1567   23.8174 N   0  0  0  0  0  0  0  0  0  0  0  0
   11.0887  -18.1952   24.1017 C   0  0  0  0  0  0  0  0  0  0  0  0
   11.1252  -18.5046   22.8923 O   0  0  0  0  0  0  0  0  0  0  0  0
   12.3219  -18.1790   24.7966 N   0  0  0  0  0  0  0  0  0  0  0  0
   13.5612  -18.6853   24.1707 C   0  0  1  0  0  0  0  0  0  0  0  0
   14.4286  -17.5573   23.7348 C   0  0  0  0  0  0  0  0  0  0  0  0
   15.6860  -18.0397   23.1168 C   0  0  0  0  0  0  0  0  0  0  0  0
   16.6114  -16.9281   22.6831 C   0  0  0  0  0  0  0  0  0  0  0  0
   17.8082  -17.5344   21.9710 C   0  0  0  0  0  0  0  0  0  0  0  0
   18.7459  -16.5106   21.5537 N   0  0  0  0  0  0  0  0  0  0  0  0
   14.1880  -19.6371   25.0830 C   0  0  0  0  0  0  0  0  0  0  0  0
   14.9099  -20.5765   24.6391 O   0  0  0  0  0  0  0  0  0  0  0  0
   14.0291  -19.5610   26.4575 O   0  0  0  0  0  0  0  0  0  0  0  0
  2  1  1  1
  2  3  1  0
  4  3  1  0
  4  9  2  0
  5  4  1  0
  6  5  2  0
  6  7  1  0
  7  8  2  0
  8  9  1  0
 10  2  1  0
 11 10  2  0
 12 13  1  0
 14 13  1  6
 14 15  1  0
 15 10  1  0
 16 14  1  0
 16 18  1  0
 17 16  2  0
 19 18  1  0
 19 25  1  0
 19 20  1  1
 21 20  1  0
 22 21  1  0
 23 22  1  0
 24 23  1  0
 25 27  1  0
 26 25  2  0
M  END
$$$$
