GIV.pdb
     RDKit          3D

 20 19  0  0  1  0  0  0  0  0999 V2000
    7.1601  -14.7534   19.6559 N   0  0  0  0  0  0  0  0  0  0  0  0
    6.4207  -14.9089   20.8889 C   0  0  0  0  0  0  0  0  0  0  0  0
    7.3058  -14.7054   22.0258 C   0  0  0  0  0  0  0  0  0  0  0  0
    8.5437  -14.8536   21.8899 O   0  0  0  0  0  0  0  0  0  0  0  0
    7.6124  -11.6097   27.3807 C   0  0  0  0  0  0  0  0  0  0  0  0
    8.2230  -12.6729   26.4978 C   0  0  0  0  0  0  0  0  0  0  0  0
    7.2633  -13.0630   25.4315 C   0  0  2  0  0  0  0  0  0  0  0  0
    5.8958  -13.4144   25.9826 C   0  0  0  0  0  0  0  0  0  0  0  0
    7.7188  -14.0648   24.4368 C   0  0  2  0  0  0  0  0  0  0  0  0
    6.8413  -14.3330   23.3399 N   0  0  0  0  0  0  0  0  0  0  0  0
    8.1956  -15.3355   25.0884 C   0  0  0  0  0  0  0  0  0  0  0  0
    7.3853  -16.1865   25.5313 O   0  0  0  0  0  0  0  0  0  0  0  0
   11.1524  -17.2817   23.4335 C   0  0  0  0  0  0  0  0  0  0  0  0
   11.3861  -17.2668   24.9312 C   0  0  2  0  0  0  0  0  0  0  0  0
   11.9030  -18.6296   25.3273 C   0  0  0  0  0  0  0  0  0  0  0  0
   10.0677  -16.9452   25.5928 C   0  0  2  0  0  0  0  0  0  0  0  0
    9.5893  -15.6244   25.2291 N   0  0  0  0  0  0  0  0  0  0  0  0
   10.1323  -17.0281   27.0597 C   0  0  0  0  0  0  0  0  0  0  0  0
   10.4985  -15.9605   27.8699 O   0  0  0  0  0  0  0  0  0  0  0  0
    9.8496  -18.0999   27.6450 O   0  0  0  0  0  0  0  0  0  0  0  0
  2  1  1  0
  3  2  1  0
  4  3  2  0
  5  6  1  0
  7  8  1  1
  7  6  1  0
  9  7  1  0
  9 10  1  6
 10  3  1  0
 11 17  1  0
 11  9  1  0
 12 11  2  0
 14 15  1  1
 14 13  1  0
 16 17  1  1
 16 14  1  0
 18 19  1  0
 18 16  1  0
 20 18  2  0
M  END
$$$$
