GIV.pdb
     RDKit          3D

 20 19  0  0  1  0  0  0  0  0999 V2000
    7.0658  -14.7564   20.0400 N   0  0  0  0  0  0  0  0  0  0  0  0
    6.3941  -14.9672   21.3032 C   0  0  0  0  0  0  0  0  0  0  0  0
    7.2663  -14.5736   22.3993 C   0  0  0  0  0  0  0  0  0  0  0  0
    8.4791  -14.3400   22.1815 O   0  0  0  0  0  0  0  0  0  0  0  0
    5.9702  -11.4314   26.8170 C   0  0  0  0  0  0  0  0  0  0  0  0
    6.6214  -12.0595   25.6070 C   0  0  0  0  0  0  0  0  0  0  0  0
    7.2185  -13.3709   25.9725 C   0  0  2  0  0  0  0  0  0  0  0  0
    8.2536  -13.2500   27.0731 C   0  0  0  0  0  0  0  0  0  0  0  0
    7.7042  -14.2316   24.8661 C   0  0  2  0  0  0  0  0  0  0  0  0
    6.8165  -14.4294   23.7625 N   0  0  0  0  0  0  0  0  0  0  0  0
    8.2655  -15.5359   25.3663 C   0  0  0  0  0  0  0  0  0  0  0  0
    7.5250  -16.4146   25.8726 O   0  0  0  0  0  0  0  0  0  0  0  0
   11.0360  -17.5283   23.3699 C   0  0  0  0  0  0  0  0  0  0  0  0
   11.4388  -17.4564   24.8295 C   0  0  2  0  0  0  0  0  0  0  0  0
   12.0236  -18.7960   25.2095 C   0  0  0  0  0  0  0  0  0  0  0  0
   10.1986  -17.1314   25.6268 C   0  0  2  0  0  0  0  0  0  0  0  0
    9.6636  -15.8266   25.2850 N   0  0  0  0  0  0  0  0  0  0  0  0
   10.4287  -17.1730   27.0788 C   0  0  0  0  0  0  0  0  0  0  0  0
   10.1990  -18.3010   27.8567 O   0  0  0  0  0  0  0  0  0  0  0  0
   10.8535  -16.1588   27.6806 O   0  0  0  0  0  0  0  0  0  0  0  0
  2  1  1  0
  3  2  1  0
  4  3  2  0
  5  6  1  0
  7  8  1  1
  7  6  1  0
  9  7  1  0
  9 10  1  6
 10  3  1  0
 11 17  1  0
 11  9  1  0
 12 11  2  0
 14 15  1  1
 14 13  1  0
 16 17  1  6
 16 14  1  0
 18 19  1  0
 18 16  1  0
 20 18  2  0
M  END
$$$$
