GIV.pdb
     RDKit          3D

 20 19  0  0  1  0  0  0  0  0999 V2000
    4.5502  -18.7413   23.3101 N   0  0  0  0  0  0  0  0  0  0  0  0
    4.9015  -18.1230   24.5692 C   0  0  0  0  0  0  0  0  0  0  0  0
    5.8755  -17.0651   24.3464 C   0  0  0  0  0  0  0  0  0  0  0  0
    6.4070  -16.9310   23.2184 O   0  0  0  0  0  0  0  0  0  0  0  0
    6.0988  -12.1122   26.9736 C   0  0  0  0  0  0  0  0  0  0  0  0
    6.1182  -13.1617   25.8869 C   0  0  0  0  0  0  0  0  0  0  0  0
    7.3556  -13.9792   25.9896 C   0  0  2  0  0  0  0  0  0  0  0  0
    8.6117  -13.1592   25.7730 C   0  0  0  0  0  0  0  0  0  0  0  0
    7.4003  -15.2487   25.2235 C   0  0  2  0  0  0  0  0  0  0  0  0
    6.2839  -16.1309   25.3671 N   0  0  0  0  0  0  0  0  0  0  0  0
    8.7068  -15.9747   25.4038 C   0  0  0  0  0  0  0  0  0  0  0  0
    8.9510  -16.6313   26.4459 O   0  0  0  0  0  0  0  0  0  0  0  0
   11.9194  -15.7218   22.5510 C   0  0  0  0  0  0  0  0  0  0  0  0
   11.3852  -17.0712   22.9888 C   0  0  2  0  0  0  0  0  0  0  0  0
   10.3370  -17.4953   21.9875 C   0  0  0  0  0  0  0  0  0  0  0  0
   10.8114  -16.9037   24.3752 C   0  0  2  0  0  0  0  0  0  0  0  0
    9.7216  -15.9458   24.3963 N   0  0  0  0  0  0  0  0  0  0  0  0
   11.8187  -16.4829   25.3606 C   0  0  0  0  0  0  0  0  0  0  0  0
   12.7871  -17.3359   25.8753 O   0  0  0  0  0  0  0  0  0  0  0  0
   11.8361  -15.3022   25.7816 O   0  0  0  0  0  0  0  0  0  0  0  0
  2  1  1  0
  3  2  1  0
  4  3  2  0
  5  6  1  0
  7  8  1  6
  7  6  1  0
  9  7  1  0
  9 10  1  1
 10  3  1  0
 11 17  1  0
 11  9  1  0
 12 11  2  0
 14 15  1  6
 14 13  1  0
 16 17  1  6
 16 14  1  0
 18 19  1  0
 18 16  1  0
 20 18  2  0
M  END
$$$$
