GIV.pdb
     RDKit          3D

 20 19  0  0  1  0  0  0  0  0999 V2000
    7.1534  -14.8716   19.6598 N   0  0  0  0  0  0  0  0  0  0  0  0
    6.4200  -14.9279   20.9048 C   0  0  0  0  0  0  0  0  0  0  0  0
    7.2994  -14.5883   22.0132 C   0  0  0  0  0  0  0  0  0  0  0  0
    8.5405  -14.5462   21.8375 O   0  0  0  0  0  0  0  0  0  0  0  0
    7.5032  -11.6620   27.4617 C   0  0  0  0  0  0  0  0  0  0  0  0
    8.1607  -12.6552   26.5323 C   0  0  0  0  0  0  0  0  0  0  0  0
    7.2005  -13.0828   25.4811 C   0  0  2  0  0  0  0  0  0  0  0  0
    5.8773  -13.5451   26.0580 C   0  0  0  0  0  0  0  0  0  0  0  0
    7.6961  -14.0221   24.4454 C   0  0  2  0  0  0  0  0  0  0  0  0
    6.8256  -14.2871   23.3422 N   0  0  0  0  0  0  0  0  0  0  0  0
    8.2349  -15.2941   25.0440 C   0  0  0  0  0  0  0  0  0  0  0  0
    7.4685  -16.2150   25.4201 O   0  0  0  0  0  0  0  0  0  0  0  0
   11.2262  -16.9153   23.2015 C   0  0  0  0  0  0  0  0  0  0  0  0
   11.5128  -17.0002   24.6876 C   0  0  2  0  0  0  0  0  0  0  0  0
   12.1377  -18.3486   24.9569 C   0  0  0  0  0  0  0  0  0  0  0  0
   10.2003  -16.8275   25.4133 C   0  0  2  0  0  0  0  0  0  0  0  0
    9.6400  -15.5047   25.2082 N   0  0  0  0  0  0  0  0  0  0  0  0
   10.3149  -17.0639   26.8603 C   0  0  0  0  0  0  0  0  0  0  0  0
   10.5556  -16.0534   27.7829 O   0  0  0  0  0  0  0  0  0  0  0  0
   10.1952  -18.2229   27.3226 O   0  0  0  0  0  0  0  0  0  0  0  0
  2  1  1  0
  3  2  1  0
  4  3  2  0
  5  6  1  0
  7  8  1  1
  7  6  1  0
  9  7  1  0
  9 10  1  6
 10  3  1  0
 11 17  1  0
 11  9  1  0
 12 11  2  0
 14 15  1  6
 14 13  1  0
 16 17  1  1
 16 14  1  0
 18 19  1  0
 18 16  1  0
 20 18  2  0
M  END
$$$$
