GIV.pdb
     RDKit          3D

 20 19  0  0  1  0  0  0  0  0999 V2000
    9.8765  -16.4426   20.0407 N   0  0  0  0  0  0  0  0  0  0  0  0
    9.0016  -16.8234   21.1273 C   0  0  0  0  0  0  0  0  0  0  0  0
    9.1565  -15.8942   22.2363 C   0  0  0  0  0  0  0  0  0  0  0  0
   10.0646  -15.0297   22.2067 O   0  0  0  0  0  0  0  0  0  0  0  0
    6.1149  -12.4051   26.0733 C   0  0  0  0  0  0  0  0  0  0  0  0
    7.4382  -13.0951   25.8376 C   0  0  0  0  0  0  0  0  0  0  0  0
    7.2482  -14.2732   24.9511 C   0  0  2  0  0  0  0  0  0  0  0  0
    6.2111  -15.2403   25.4864 C   0  0  0  0  0  0  0  0  0  0  0  0
    8.4659  -14.9859   24.4928 C   0  0  2  0  0  0  0  0  0  0  0  0
    8.3096  -15.9001   23.4043 N   0  0  0  0  0  0  0  0  0  0  0  0
    9.2227  -15.6089   25.6354 C   0  0  0  0  0  0  0  0  0  0  0  0
    9.5269  -16.8272   25.6303 O   0  0  0  0  0  0  0  0  0  0  0  0
   10.9079  -13.1508   28.6101 C   0  0  0  0  0  0  0  0  0  0  0  0
   10.4288  -14.5148   29.0660 C   0  0  2  0  0  0  0  0  0  0  0  0
   11.3913  -15.0095   30.1195 C   0  0  0  0  0  0  0  0  0  0  0  0
   10.4020  -15.4145   27.8539 C   0  0  2  0  0  0  0  0  0  0  0  0
    9.6254  -14.8391   26.7715 N   0  0  0  0  0  0  0  0  0  0  0  0
    9.8662  -16.7517   28.1499 C   0  0  0  0  0  0  0  0  0  0  0  0
   10.6680  -17.8672   28.3579 O   0  0  0  0  0  0  0  0  0  0  0  0
    8.6283  -16.9338   28.2265 O   0  0  0  0  0  0  0  0  0  0  0  0
  2  1  1  0
  3  2  1  0
  4  3  2  0
  5  6  1  0
  7  8  1  1
  7  6  1  0
  9  7  1  0
  9 10  1  6
 10  3  1  0
 11 17  1  0
 11  9  1  0
 12 11  2  0
 14 15  1  1
 14 13  1  0
 16 17  1  6
 16 14  1  0
 18 19  1  0
 18 16  1  0
 20 18  2  0
M  END
$$$$
