GIV.pdb
     RDKit          3D

 20 19  0  0  1  0  0  0  0  0999 V2000
    6.1365  -16.7930   20.9611 N   0  0  0  0  0  0  0  0  0  0  0  0
    5.6980  -16.6190   22.3280 C   0  0  0  0  0  0  0  0  0  0  0  0
    6.7412  -15.9645   23.1030 C   0  0  0  0  0  0  0  0  0  0  0  0
    7.9088  -15.8975   22.6502 O   0  0  0  0  0  0  0  0  0  0  0  0
    5.9677  -11.7423   26.7343 C   0  0  0  0  0  0  0  0  0  0  0  0
    6.3938  -12.6622   25.6141 C   0  0  0  0  0  0  0  0  0  0  0  0
    7.2347  -13.7642   26.1512 C   0  0  2  0  0  0  0  0  0  0  0  0
    8.4661  -13.2547   26.8732 C   0  0  0  0  0  0  0  0  0  0  0  0
    7.5703  -14.8777   25.2302 C   0  0  2  0  0  0  0  0  0  0  0  0
    6.5164  -15.3688   24.3976 N   0  0  0  0  0  0  0  0  0  0  0  0
    8.2892  -15.9983   25.9329 C   0  0  0  0  0  0  0  0  0  0  0  0
    7.7141  -16.7012   26.8001 O   0  0  0  0  0  0  0  0  0  0  0  0
   12.3892  -16.9534   25.0207 C   0  0  0  0  0  0  0  0  0  0  0  0
   11.3360  -18.0321   25.1787 C   0  0  2  0  0  0  0  0  0  0  0  0
   10.7592  -18.3125   23.8113 C   0  0  0  0  0  0  0  0  0  0  0  0
   10.2938  -17.5114   26.1389 C   0  0  2  0  0  0  0  0  0  0  0  0
    9.6549  -16.3074   25.6412 N   0  0  0  0  0  0  0  0  0  0  0  0
   10.8414  -17.2285   27.4742 C   0  0  0  0  0  0  0  0  0  0  0  0
   11.1278  -18.2169   28.4077 O   0  0  0  0  0  0  0  0  0  0  0  0
   11.0749  -16.0477   27.8242 O   0  0  0  0  0  0  0  0  0  0  0  0
  2  1  1  0
  3  2  1  0
  4  3  2  0
  5  6  1  0
  7  8  1  6
  7  6  1  0
  9  7  1  0
  9 10  1  1
 10  3  1  0
 11 17  1  0
 11  9  1  0
 12 11  2  0
 14 15  1  6
 14 13  1  0
 16 17  1  6
 16 14  1  0
 18 19  1  0
 18 16  1  0
 20 18  2  0
M  END
$$$$
