GIV.pdb
     RDKit          3D

 20 19  0  0  1  0  0  0  0  0999 V2000
    4.8415  -17.4194   21.6728 N   0  0  0  0  0  0  0  0  0  0  0  0
    4.9731  -17.3236   23.1097 C   0  0  0  0  0  0  0  0  0  0  0  0
    6.0604  -16.4176   23.4479 C   0  0  0  0  0  0  0  0  0  0  0  0
    7.0621  -16.3344   22.6979 O   0  0  0  0  0  0  0  0  0  0  0  0
    5.8595  -11.7956   26.8052 C   0  0  0  0  0  0  0  0  0  0  0  0
    6.0654  -12.7716   25.6705 C   0  0  0  0  0  0  0  0  0  0  0  0
    7.0452  -13.8166   26.0683 C   0  0  2  0  0  0  0  0  0  0  0  0
    8.3706  -13.2299   26.5113 C   0  0  0  0  0  0  0  0  0  0  0  0
    7.2422  -14.9563   25.1394 C   0  0  2  0  0  0  0  0  0  0  0  0
    6.0643  -15.5824   24.6242 N   0  0  0  0  0  0  0  0  0  0  0  0
    8.2158  -15.9686   25.6816 C   0  0  0  0  0  0  0  0  0  0  0  0
    7.8981  -16.7455   26.6156 O   0  0  0  0  0  0  0  0  0  0  0  0
   10.8382  -17.5775   23.0806 C   0  0  0  0  0  0  0  0  0  0  0  0
   11.4913  -17.3862   24.4351 C   0  0  2  0  0  0  0  0  0  0  0  0
   12.3436  -18.6029   24.7081 C   0  0  0  0  0  0  0  0  0  0  0  0
   10.3874  -17.2263   25.4525 C   0  0  2  0  0  0  0  0  0  0  0  0
    9.5405  -16.0860   25.1553 N   0  0  0  0  0  0  0  0  0  0  0  0
   10.8954  -17.0821   26.8251 C   0  0  0  0  0  0  0  0  0  0  0  0
   10.9911  -18.1410   27.7195 O   0  0  0  0  0  0  0  0  0  0  0  0
   11.2707  -15.9625   27.2457 O   0  0  0  0  0  0  0  0  0  0  0  0
  2  1  1  0
  3  2  1  0
  4  3  2  0
  5  6  1  0
  7  8  1  6
  7  6  1  0
  9  7  1  0
  9 10  1  1
 10  3  1  0
 11 17  1  0
 11  9  1  0
 12 11  2  0
 14 15  1  1
 14 13  1  0
 16 17  1  6
 16 14  1  0
 18 19  1  0
 18 16  1  0
 20 18  2  0
M  END
$$$$
