GIV.pdb
     RDKit          3D

 20 19  0  0  1  0  0  0  0  0999 V2000
    7.6900  -14.7421   19.5944 N   0  0  0  0  0  0  0  0  0  0  0  0
    6.8387  -14.8317   20.7599 C   0  0  0  0  0  0  0  0  0  0  0  0
    7.6149  -14.5649   21.9614 C   0  0  0  0  0  0  0  0  0  0  0  0
    8.8666  -14.6345   21.9265 O   0  0  0  0  0  0  0  0  0  0  0  0
    7.5694  -11.6296   27.3929 C   0  0  0  0  0  0  0  0  0  0  0  0
    8.1554  -12.7629   26.5836 C   0  0  0  0  0  0  0  0  0  0  0  0
    7.2991  -13.0404   25.4004 C   0  0  2  0  0  0  0  0  0  0  0  0
    5.8504  -13.2792   25.7766 C   0  0  0  0  0  0  0  0  0  0  0  0
    7.7807  -14.0565   24.4328 C   0  0  2  0  0  0  0  0  0  0  0  0
    7.0236  -14.2146   23.2300 N   0  0  0  0  0  0  0  0  0  0  0  0
    8.0572  -15.3816   25.0917 C   0  0  0  0  0  0  0  0  0  0  0  0
    7.1293  -16.1839   25.3604 O   0  0  0  0  0  0  0  0  0  0  0  0
   11.9995  -16.8726   25.0740 C   0  0  0  0  0  0  0  0  0  0  0  0
   10.7689  -17.7525   24.9774 C   0  0  2  0  0  0  0  0  0  0  0  0
   10.3574  -17.8059   23.5251 C   0  0  0  0  0  0  0  0  0  0  0  0
    9.7008  -17.1357   25.8479 C   0  0  2  0  0  0  0  0  0  0  0  0
    9.3866  -15.7797   25.4379 N   0  0  0  0  0  0  0  0  0  0  0  0
   10.0683  -17.1169   27.2718 C   0  0  0  0  0  0  0  0  0  0  0  0
   10.3410  -15.9502   27.9752 O   0  0  0  0  0  0  0  0  0  0  0  0
   10.1498  -18.1882   27.9176 O   0  0  0  0  0  0  0  0  0  0  0  0
  2  1  1  0
  3  2  1  0
  4  3  2  0
  5  6  1  0
  7  8  1  1
  7  6  1  0
  9  7  1  0
  9 10  1  6
 10  3  1  0
 11 17  1  0
 11  9  1  0
 12 11  2  0
 14 15  1  6
 14 13  1  0
 16 17  1  6
 16 14  1  0
 18 19  1  0
 18 16  1  0
 20 18  2  0
M  END
$$$$
