GIV.pdb
     RDKit          3D

 20 19  0  0  1  0  0  0  0  0999 V2000
    7.1798  -14.5932   19.5718 N   0  0  0  0  0  0  0  0  0  0  0  0
    6.4261  -14.7876   20.7906 C   0  0  0  0  0  0  0  0  0  0  0  0
    7.2849  -14.5657   21.9442 C   0  0  0  0  0  0  0  0  0  0  0  0
    8.5275  -14.6945   21.8338 O   0  0  0  0  0  0  0  0  0  0  0  0
    7.4084  -11.5582   27.3695 C   0  0  0  0  0  0  0  0  0  0  0  0
    8.0625  -12.5855   26.4754 C   0  0  0  0  0  0  0  0  0  0  0  0
    7.1346  -12.9731   25.3804 C   0  0  2  0  0  0  0  0  0  0  0  0
    5.7687  -13.3812   25.8952 C   0  0  0  0  0  0  0  0  0  0  0  0
    7.6383  -13.9315   24.3663 C   0  0  2  0  0  0  0  0  0  0  0  0
    6.7881  -14.1961   23.2473 N   0  0  0  0  0  0  0  0  0  0  0  0
    8.1448  -15.2044   24.9906 C   0  0  0  0  0  0  0  0  0  0  0  0
    7.3559  -16.1040   25.3719 O   0  0  0  0  0  0  0  0  0  0  0  0
   11.0635  -17.1030   23.3136 C   0  0  0  0  0  0  0  0  0  0  0  0
   11.3629  -17.0412   24.7983 C   0  0  2  0  0  0  0  0  0  0  0  0
   11.9489  -18.3732   25.2029 C   0  0  0  0  0  0  0  0  0  0  0  0
   10.0640  -16.7522   25.5114 C   0  0  2  0  0  0  0  0  0  0  0  0
    9.5434  -15.4403   25.1743 N   0  0  0  0  0  0  0  0  0  0  0  0
   10.1862  -16.8414   26.9743 C   0  0  0  0  0  0  0  0  0  0  0  0
   10.3683  -15.7349   27.7947 O   0  0  0  0  0  0  0  0  0  0  0  0
   10.1279  -17.9552   27.5465 O   0  0  0  0  0  0  0  0  0  0  0  0
  2  1  1  0
  3  2  1  0
  4  3  2  0
  5  6  1  0
  7  8  1  1
  7  6  1  0
  9  7  1  0
  9 10  1  6
 10  3  1  0
 11 17  1  0
 11  9  1  0
 12 11  2  0
 14 15  1  1
 14 13  1  0
 16 17  1  1
 16 14  1  0
 18 19  1  0
 18 16  1  0
 20 18  2  0
M  END
$$$$
