GIV.pdb
     RDKit          3D

 20 19  0  0  1  0  0  0  0  0999 V2000
    7.3121  -14.6257   20.0705 N   0  0  0  0  0  0  0  0  0  0  0  0
    6.5302  -14.7766   21.2776 C   0  0  0  0  0  0  0  0  0  0  0  0
    7.3796  -14.5895   22.4441 C   0  0  0  0  0  0  0  0  0  0  0  0
    8.6271  -14.5828   22.3156 O   0  0  0  0  0  0  0  0  0  0  0  0
    5.9354  -11.4122   26.7619 C   0  0  0  0  0  0  0  0  0  0  0  0
    6.6462  -12.0549   25.5939 C   0  0  0  0  0  0  0  0  0  0  0  0
    7.2242  -13.3614   26.0051 C   0  0  2  0  0  0  0  0  0  0  0  0
    8.2532  -13.2185   27.1086 C   0  0  0  0  0  0  0  0  0  0  0  0
    7.7063  -14.2629   24.9302 C   0  0  2  0  0  0  0  0  0  0  0  0
    6.8680  -14.4054   23.7804 N   0  0  0  0  0  0  0  0  0  0  0  0
    8.1451  -15.6001   25.4651 C   0  0  0  0  0  0  0  0  0  0  0  0
    7.3179  -16.4178   25.9382 O   0  0  0  0  0  0  0  0  0  0  0  0
   12.1712  -16.9501   24.9320 C   0  0  0  0  0  0  0  0  0  0  0  0
   10.9797  -17.8871   24.9121 C   0  0  2  0  0  0  0  0  0  0  0  0
   10.4769  -17.9582   23.4896 C   0  0  0  0  0  0  0  0  0  0  0  0
    9.9430  -17.3226   25.8533 C   0  0  2  0  0  0  0  0  0  0  0  0
    9.5204  -15.9925   25.4560 N   0  0  0  0  0  0  0  0  0  0  0  0
   10.4110  -17.2645   27.2463 C   0  0  0  0  0  0  0  0  0  0  0  0
   10.5296  -18.3845   28.0599 O   0  0  0  0  0  0  0  0  0  0  0  0
   10.7282  -16.1664   27.7610 O   0  0  0  0  0  0  0  0  0  0  0  0
  2  1  1  0
  3  2  1  0
  4  3  2  0
  5  6  1  0
  7  8  1  1
  7  6  1  0
  9  7  1  0
  9 10  1  6
 10  3  1  0
 11 17  1  0
 11  9  1  0
 12 11  2  0
 14 15  1  6
 14 13  1  0
 16 17  1  6
 16 14  1  0
 18 19  1  0
 18 16  1  0
 20 18  2  0
M  END
$$$$
