GIV.pdb
     RDKit          3D

 20 19  0  0  1  0  0  0  0  0999 V2000
    4.3689  -18.5342   23.2487 N   0  0  0  0  0  0  0  0  0  0  0  0
    4.7664  -17.9769   24.5225 C   0  0  0  0  0  0  0  0  0  0  0  0
    5.7671  -16.9404   24.3186 C   0  0  0  0  0  0  0  0  0  0  0  0
    6.3545  -16.8457   23.2146 O   0  0  0  0  0  0  0  0  0  0  0  0
    6.0444  -12.0055   27.0590 C   0  0  0  0  0  0  0  0  0  0  0  0
    6.0553  -13.0082   25.9290 C   0  0  0  0  0  0  0  0  0  0  0  0
    7.2562  -13.8786   26.0313 C   0  0  2  0  0  0  0  0  0  0  0  0
    8.5493  -13.1022   25.8822 C   0  0  0  0  0  0  0  0  0  0  0  0
    7.2725  -15.1175   25.2155 C   0  0  2  0  0  0  0  0  0  0  0  0
    6.1411  -15.9842   25.3322 N   0  0  0  0  0  0  0  0  0  0  0  0
    8.5667  -15.8736   25.3576 C   0  0  0  0  0  0  0  0  0  0  0  0
    8.7924  -16.6003   26.3565 O   0  0  0  0  0  0  0  0  0  0  0  0
   12.1131  -18.0335   22.7197 C   0  0  0  0  0  0  0  0  0  0  0  0
   11.1136  -16.8957   22.7863 C   0  0  2  0  0  0  0  0  0  0  0  0
   11.8361  -15.6283   22.3953 C   0  0  0  0  0  0  0  0  0  0  0  0
   10.5874  -16.8363   24.2001 C   0  0  2  0  0  0  0  0  0  0  0  0
    9.5901  -15.7948   24.3616 N   0  0  0  0  0  0  0  0  0  0  0  0
   11.6498  -16.6201   25.1938 C   0  0  0  0  0  0  0  0  0  0  0  0
   12.3730  -17.6535   25.7762 O   0  0  0  0  0  0  0  0  0  0  0  0
   11.9464  -15.4582   25.5590 O   0  0  0  0  0  0  0  0  0  0  0  0
  2  1  1  0
  3  2  1  0
  4  3  2  0
  5  6  1  0
  7  8  1  6
  7  6  1  0
  9  7  1  0
  9 10  1  1
 10  3  1  0
 11 17  1  0
 11  9  1  0
 12 11  2  0
 14 15  1  1
 14 13  1  0
 16 17  1  6
 16 14  1  0
 18 19  1  0
 18 16  1  0
 20 18  2  0
M  END
$$$$
