GIV.pdb
     RDKit          3D

 20 19  0  0  1  0  0  0  0  0999 V2000
    5.7898  -16.2173   20.7449 N   0  0  0  0  0  0  0  0  0  0  0  0
    5.4636  -16.1580   22.1525 C   0  0  0  0  0  0  0  0  0  0  0  0
    6.5437  -15.5134   22.8841 C   0  0  0  0  0  0  0  0  0  0  0  0
    7.6332  -15.2749   22.3107 O   0  0  0  0  0  0  0  0  0  0  0  0
    5.9480  -11.7242   26.9914 C   0  0  0  0  0  0  0  0  0  0  0  0
    6.3915  -12.4458   25.7403 C   0  0  0  0  0  0  0  0  0  0  0  0
    7.2155  -13.6299   26.0997 C   0  0  2  0  0  0  0  0  0  0  0  0
    8.4499  -13.2570   26.8962 C   0  0  0  0  0  0  0  0  0  0  0  0
    7.5412  -14.5890   25.0158 C   0  0  2  0  0  0  0  0  0  0  0  0
    6.4430  -15.1176   24.2678 N   0  0  0  0  0  0  0  0  0  0  0  0
    8.4696  -15.6786   25.4821 C   0  0  0  0  0  0  0  0  0  0  0  0
    8.0865  -16.5633   26.2867 O   0  0  0  0  0  0  0  0  0  0  0  0
   11.0802  -17.0230   22.7325 C   0  0  0  0  0  0  0  0  0  0  0  0
   11.7187  -17.0056   24.1072 C   0  0  2  0  0  0  0  0  0  0  0  0
   12.5644  -18.2505   24.2349 C   0  0  0  0  0  0  0  0  0  0  0  0
   10.6040  -16.9696   25.1247 C   0  0  2  0  0  0  0  0  0  0  0  0
    9.8239  -15.7498   25.0280 N   0  0  0  0  0  0  0  0  0  0  0  0
   11.0906  -17.1012   26.5064 C   0  0  0  0  0  0  0  0  0  0  0  0
   11.4182  -16.0146   27.3078 O   0  0  0  0  0  0  0  0  0  0  0  0
   11.2298  -18.2353   27.0219 O   0  0  0  0  0  0  0  0  0  0  0  0
  2  1  1  0
  3  2  1  0
  4  3  2  0
  5  6  1  0
  7  8  1  6
  7  6  1  0
  9  7  1  0
  9 10  1  1
 10  3  1  0
 11 17  1  0
 11  9  1  0
 12 11  2  0
 14 15  1  1
 14 13  1  0
 16 17  1  1
 16 14  1  0
 18 19  1  0
 18 16  1  0
 20 18  2  0
M  END
$$$$
