GIV.pdb
     RDKit          3D

 20 19  0  0  1  0  0  0  0  0999 V2000
    6.2744  -15.3800   20.2165 N   0  0  0  0  0  0  0  0  0  0  0  0
    5.7456  -15.4251   21.5616 C   0  0  0  0  0  0  0  0  0  0  0  0
    6.7595  -14.9832   22.5071 C   0  0  0  0  0  0  0  0  0  0  0  0
    7.9430  -14.8203   22.1254 O   0  0  0  0  0  0  0  0  0  0  0  0
    5.6803  -11.5578   26.6849 C   0  0  0  0  0  0  0  0  0  0  0  0
    6.3658  -12.1764   25.4891 C   0  0  0  0  0  0  0  0  0  0  0  0
    7.1170  -13.3905   25.9037 C   0  0  2  0  0  0  0  0  0  0  0  0
    8.2922  -13.0657   26.8041 C   0  0  0  0  0  0  0  0  0  0  0  0
    7.5000  -14.3520   24.8410 C   0  0  2  0  0  0  0  0  0  0  0  0
    6.4872  -14.7112   23.8976 N   0  0  0  0  0  0  0  0  0  0  0  0
    8.1945  -15.5663   25.3977 C   0  0  0  0  0  0  0  0  0  0  0  0
    7.5816  -16.4015   26.1074 O   0  0  0  0  0  0  0  0  0  0  0  0
   12.2437  -16.4253   24.3057 C   0  0  0  0  0  0  0  0  0  0  0  0
   11.1957  -17.5146   24.4197 C   0  0  2  0  0  0  0  0  0  0  0  0
   10.5492  -17.6715   23.0637 C   0  0  0  0  0  0  0  0  0  0  0  0
   10.2055  -17.0829   25.4744 C   0  0  2  0  0  0  0  0  0  0  0  0
    9.5789  -15.8173   25.1409 N   0  0  0  0  0  0  0  0  0  0  0  0
   10.8119  -16.9634   26.8089 C   0  0  0  0  0  0  0  0  0  0  0  0
   11.1490  -18.0578   27.5958 O   0  0  0  0  0  0  0  0  0  0  0  0
   11.0518  -15.8332   27.2951 O   0  0  0  0  0  0  0  0  0  0  0  0
  2  1  1  0
  3  2  1  0
  4  3  2  0
  5  6  1  0
  7  8  1  6
  7  6  1  0
  9  7  1  0
  9 10  1  1
 10  3  1  0
 11 17  1  0
 11  9  1  0
 12 11  2  0
 14 15  1  6
 14 13  1  0
 16 17  1  6
 16 14  1  0
 18 19  1  0
 18 16  1  0
 20 18  2  0
M  END
$$$$
