GIV.pdb
     RDKit          3D

 20 19  0  0  1  0  0  0  0  0999 V2000
   10.6503  -18.4583   20.2520 N   0  0  0  0  0  0  0  0  0  0  0  0
    9.5800  -18.2021   21.1901 C   0  0  0  0  0  0  0  0  0  0  0  0
    9.5733  -16.7950   21.5611 C   0  0  0  0  0  0  0  0  0  0  0  0
   10.6563  -16.1947   21.7596 O   0  0  0  0  0  0  0  0  0  0  0  0
    7.1149  -12.7127   19.1225 C   0  0  0  0  0  0  0  0  0  0  0  0
    8.0500  -13.6269   19.8792 C   0  0  0  0  0  0  0  0  0  0  0  0
    7.6679  -13.6717   21.3152 C   0  0  2  0  0  0  0  0  0  0  0  0
    7.6576  -12.2980   21.9555 C   0  0  0  0  0  0  0  0  0  0  0  0
    8.3595  -14.6633   22.1747 C   0  0  2  0  0  0  0  0  0  0  0  0
    8.3673  -16.0195   21.7210 N   0  0  0  0  0  0  0  0  0  0  0  0
    7.9310  -14.5633   23.6145 C   0  0  0  0  0  0  0  0  0  0  0  0
    6.8549  -15.0735   24.0128 O   0  0  0  0  0  0  0  0  0  0  0  0
    7.0211  -11.8124   25.4283 C   0  0  0  0  0  0  0  0  0  0  0  0
    6.9784  -13.1518   26.1368 C   0  0  2  0  0  0  0  0  0  0  0  0
    6.6372  -12.8928   27.5852 C   0  0  0  0  0  0  0  0  0  0  0  0
    8.3365  -13.7920   25.9790 C   0  0  2  0  0  0  0  0  0  0  0  0
    8.7314  -13.8838   24.5857 N   0  0  0  0  0  0  0  0  0  0  0  0
    8.4035  -15.1369   26.5703 C   0  0  0  0  0  0  0  0  0  0  0  0
    8.5923  -16.2921   25.8217 O   0  0  0  0  0  0  0  0  0  0  0  0
    8.2887  -15.2889   27.8092 O   0  0  0  0  0  0  0  0  0  0  0  0
  2  1  1  0
  3  2  1  0
  4  3  2  0
  5  6  1  0
  7  8  1  1
  7  6  1  0
  9  7  1  0
  9 10  1  6
 10  3  1  0
 11 17  1  0
 11  9  1  0
 12 11  2  0
 14 15  1  1
 14 13  1  0
 16 17  1  6
 16 14  1  0
 18 19  1  0
 18 16  1  0
 20 18  2  0
M  END
$$$$
