GIV.pdb
     RDKit          3D

 20 19  0  0  1  0  0  0  0  0999 V2000
    5.2931  -17.7235   21.8698 N   0  0  0  0  0  0  0  0  0  0  0  0
    5.1252  -17.2848   23.2375 C   0  0  0  0  0  0  0  0  0  0  0  0
    6.2832  -16.5082   23.6539 C   0  0  0  0  0  0  0  0  0  0  0  0
    7.3350  -16.5377   22.9716 O   0  0  0  0  0  0  0  0  0  0  0  0
    6.1196  -11.8579   26.7879 C   0  0  0  0  0  0  0  0  0  0  0  0
    6.4671  -12.8275   25.6827 C   0  0  0  0  0  0  0  0  0  0  0  0
    7.3581  -13.8972   26.2044 C   0  0  2  0  0  0  0  0  0  0  0  0
    8.7078  -13.3649   26.6427 C   0  0  0  0  0  0  0  0  0  0  0  0
    7.5017  -15.1255   25.3851 C   0  0  2  0  0  0  0  0  0  0  0  0
    6.3039  -15.6807   24.8355 N   0  0  0  0  0  0  0  0  0  0  0  0
    8.3325  -16.1742   26.0754 C   0  0  0  0  0  0  0  0  0  0  0  0
    7.9077  -16.7814   27.0892 O   0  0  0  0  0  0  0  0  0  0  0  0
   12.3932  -17.0657   24.9155 C   0  0  0  0  0  0  0  0  0  0  0  0
   11.3825  -18.1761   25.1235 C   0  0  2  0  0  0  0  0  0  0  0  0
   10.7703  -18.4953   23.7801 C   0  0  0  0  0  0  0  0  0  0  0  0
   10.3558  -17.6760   26.1109 C   0  0  2  0  0  0  0  0  0  0  0  0
    9.6379  -16.5209   25.6049 N   0  0  0  0  0  0  0  0  0  0  0  0
   10.9429  -17.3241   27.4126 C   0  0  0  0  0  0  0  0  0  0  0  0
   11.3036  -18.2663   28.3679 O   0  0  0  0  0  0  0  0  0  0  0  0
   11.1431  -16.1233   27.7117 O   0  0  0  0  0  0  0  0  0  0  0  0
  2  1  1  0
  3  2  1  0
  4  3  2  0
  5  6  1  0
  7  8  1  6
  7  6  1  0
  9  7  1  0
  9 10  1  1
 10  3  1  0
 11 17  1  0
 11  9  1  0
 12 11  2  0
 14 15  1  6
 14 13  1  0
 16 17  1  6
 16 14  1  0
 18 19  1  0
 18 16  1  0
 20 18  2  0
M  END
$$$$
