IAM.pdb
     RDKit          3D

 22 21  0  0  1  0  0  0  0  0999 V2000
   26.4325  -26.7031  -16.7709 C   0  0  0  0  0  0  0  0  0  0  0  0
   26.2249  -25.2392  -16.5830 C   0  0  0  0  0  0  0  0  0  0  0  0
   25.0648  -24.8822  -15.7154 C   0  0  2  0  0  0  0  0  0  0  0  0
   23.8136  -25.5012  -16.3369 C   0  0  0  0  0  0  0  0  0  0  0  0
   24.8091  -23.4110  -15.5863 C   0  0  2  0  0  0  0  0  0  0  0  0
   26.0402  -22.8284  -15.0370 N   0  0  0  0  0  0  0  0  0  0  0  0
   23.7083  -23.1413  -14.6360 C   0  0  0  0  0  0  0  0  0  0  0  0
   23.7223  -23.5734  -13.4415 O   0  0  0  0  0  0  0  0  0  0  0  0
   20.6135  -20.9583  -14.7034 C   0  0  0  0  0  0  0  0  0  0  0  0
   21.4853  -22.0566  -14.1364 C   0  0  2  0  0  0  0  0  0  0  0  0
   22.5854  -22.3861  -15.0166 N   0  0  0  0  0  0  0  0  0  0  0  0
   20.6315  -23.2681  -14.0224 C   0  0  0  0  0  0  0  0  0  0  0  0
   20.4931  -24.0849  -14.9693 O   0  0  0  0  0  0  0  0  0  0  0  0
   18.0016  -28.6493   -9.0522 C   0  0  0  0  0  0  0  0  0  0  0  0
   18.8769  -27.0707   -9.3008 S   0  0  0  0  0  0  0  0  0  0  0  0
   18.5758  -26.6008  -11.0494 C   0  0  0  0  0  0  0  0  0  0  0  0
   19.3685  -25.3318  -11.2732 C   0  0  0  0  0  0  0  0  0  0  0  0
   19.2111  -24.7911  -12.6824 C   0  0  2  0  0  0  0  0  0  0  0  0
   19.9332  -23.5435  -12.8165 N   0  0  0  0  0  0  0  0  0  0  0  0
   17.8164  -24.5828  -13.0561 C   0  0  0  0  0  0  0  0  0  0  0  0
   17.2943  -23.4503  -12.9527 O   0  0  0  0  0  0  0  0  0  0  0  0
   17.0443  -25.6266  -13.5307 O   0  0  0  0  0  0  0  0  0  0  0  0
  1  2  1  0
  3  2  1  0
  3  5  1  0
  3  4  1  6
  5  7  1  0
  5  6  1  1
  7 11  1  0
  7  8  2  0
 10  9  1  6
 10 12  1  0
 11 10  1  0
 12 13  2  0
 15 14  1  0
 15 16  1  0
 16 17  1  0
 18 17  1  1
 19 18  1  0
 19 12  1  0
 20 18  1  0
 20 22  1  0
 21 20  2  0
M  END
$$$$
