IAM.pdb
     RDKit          3D

 22 21  0  0  1  0  0  0  0  0999 V2000
   13.8349  -18.2831    2.1326 C   0  0  0  0  0  0  0  0  0  0  0  0
   14.4248  -19.6477    2.0270 C   0  0  0  0  0  0  0  0  0  0  0  0
   15.3528  -20.0114    3.1374 C   0  0  2  0  0  0  0  0  0  0  0  0
   16.5286  -19.0363    3.0967 C   0  0  0  0  0  0  0  0  0  0  0  0
   15.9252  -21.3936    3.0473 C   0  0  2  0  0  0  0  0  0  0  0  0
   14.7823  -22.3142    3.1039 N   0  0  0  0  0  0  0  0  0  0  0  0
   16.8067  -21.6830    4.1991 C   0  0  0  0  0  0  0  0  0  0  0  0
   16.4159  -21.5560    5.4012 O   0  0  0  0  0  0  0  0  0  0  0  0
   20.3359  -23.0307    4.5850 C   0  0  0  0  0  0  0  0  0  0  0  0
   19.0592  -22.3939    5.0874 C   0  0  2  0  0  0  0  0  0  0  0  0
   18.1309  -22.1166    4.0127 N   0  0  0  0  0  0  0  0  0  0  0  0
   19.4380  -21.0901    5.6926 C   0  0  0  0  0  0  0  0  0  0  0  0
   19.3708  -20.0077    5.0548 O   0  0  0  0  0  0  0  0  0  0  0  0
   17.2067  -16.0558    6.6086 C   0  0  0  0  0  0  0  0  0  0  0  0
   17.1045  -16.9323    8.2026 S   0  0  0  0  0  0  0  0  0  0  0  0
   18.7466  -17.7141    8.4508 C   0  0  0  0  0  0  0  0  0  0  0  0
   18.6939  -19.0231    7.6941 C   0  0  0  0  0  0  0  0  0  0  0  0
   20.0317  -19.7395    7.6816 C   0  0  2  0  0  0  0  0  0  0  0  0
   19.8961  -21.0280    7.0358 N   0  0  0  0  0  0  0  0  0  0  0  0
   20.5860  -19.9267    9.0179 C   0  0  0  0  0  0  0  0  0  0  0  0
   20.5098  -21.0389    9.5863 O   0  0  0  0  0  0  0  0  0  0  0  0
   21.2049  -18.8848    9.6829 O   0  0  0  0  0  0  0  0  0  0  0  0
  1  2  1  0
  3  2  1  0
  3  5  1  0
  3  4  1  6
  5  7  1  0
  5  6  1  1
  7 11  1  0
  7  8  2  0
 10  9  1  6
 10 12  1  0
 11 10  1  0
 12 13  2  0
 15 14  1  0
 15 16  1  0
 16 17  1  0
 18 17  1  1
 19 18  1  0
 19 12  1  0
 20 18  1  0
 20 22  1  0
 21 20  2  0
M  END
$$$$
