IAM.pdb
     RDKit          3D

 22 21  0  0  1  0  0  0  0  0999 V2000
   26.2392  -26.6056  -16.3519 C   0  0  0  0  0  0  0  0  0  0  0  0
   26.5268  -25.3049  -17.0204 C   0  0  0  0  0  0  0  0  0  0  0  0
   26.0705  -24.1027  -16.2636 C   0  0  2  0  0  0  0  0  0  0  0  0
   24.5756  -24.2658  -15.9924 C   0  0  0  0  0  0  0  0  0  0  0  0
   26.2461  -22.8028  -16.9886 C   0  0  2  0  0  0  0  0  0  0  0  0
   27.6942  -22.6114  -17.1407 N   0  0  0  0  0  0  0  0  0  0  0  0
   25.7132  -21.6730  -16.1967 C   0  0  0  0  0  0  0  0  0  0  0  0
   26.2093  -21.3359  -15.0770 O   0  0  0  0  0  0  0  0  0  0  0  0
   22.9556  -19.1122  -16.7170 C   0  0  0  0  0  0  0  0  0  0  0  0
   23.9980  -19.8456  -15.9024 C   0  0  2  0  0  0  0  0  0  0  0  0
   24.6220  -20.9134  -16.6534 N   0  0  0  0  0  0  0  0  0  0  0  0
   23.2873  -20.4683  -14.7548 C   0  0  0  0  0  0  0  0  0  0  0  0
   22.8657  -21.6532  -14.7876 O   0  0  0  0  0  0  0  0  0  0  0  0
   23.1480  -21.2432   -7.1095 C   0  0  0  0  0  0  0  0  0  0  0  0
   23.8926  -20.5138   -8.6038 S   0  0  0  0  0  0  0  0  0  0  0  0
   22.7091  -20.8461   -9.9668 C   0  0  0  0  0  0  0  0  0  0  0  0
   23.3235  -20.2244  -11.2016 C   0  0  0  0  0  0  0  0  0  0  0  0
   22.4437  -20.3807  -12.4281 C   0  0  2  0  0  0  0  0  0  0  0  0
   23.0593  -19.7278  -13.5642 N   0  0  0  0  0  0  0  0  0  0  0  0
   21.1012  -19.8439  -12.2337 C   0  0  0  0  0  0  0  0  0  0  0  0
   20.7908  -18.7259  -12.7023 O   0  0  0  0  0  0  0  0  0  0  0  0
   20.1465  -20.5550  -11.5310 O   0  0  0  0  0  0  0  0  0  0  0  0
  1  2  1  0
  3  2  1  0
  3  5  1  0
  3  4  1  6
  5  7  1  0
  5  6  1  1
  7 11  1  0
  7  8  2  0
 10  9  1  6
 10 12  1  0
 11 10  1  0
 12 13  2  0
 15 14  1  0
 15 16  1  0
 16 17  1  0
 18 17  1  1
 19 18  1  0
 19 12  1  0
 20 18  1  0
 20 22  1  0
 21 20  2  0
M  END
$$$$
