IAM.pdb
     RDKit          3D

 22 21  0  0  1  0  0  0  0  0999 V2000
   18.5633  -15.7423  -20.0108 C   0  0  0  0  0  0  0  0  0  0  0  0
   18.2592  -15.0189  -18.7437 C   0  0  0  0  0  0  0  0  0  0  0  0
   18.5186  -13.5502  -18.7888 C   0  0  2  0  0  0  0  0  0  0  0  0
   20.0127  -13.3510  -19.0391 C   0  0  0  0  0  0  0  0  0  0  0  0
   18.1832  -12.8164  -17.5257 C   0  0  2  0  0  0  0  0  0  0  0  0
   16.7503  -13.0375  -17.2921 N   0  0  0  0  0  0  0  0  0  0  0  0
   18.4058  -11.3621  -17.6774 C   0  0  0  0  0  0  0  0  0  0  0  0
   19.5539  -10.8728  -17.9146 O   0  0  0  0  0  0  0  0  0  0  0  0
   16.1621   -8.2958  -17.5695 C   0  0  0  0  0  0  0  0  0  0  0  0
   17.4938   -9.0094  -17.6413 C   0  0  2  0  0  0  0  0  0  0  0  0
   17.3449  -10.4466  -17.5651 N   0  0  0  0  0  0  0  0  0  0  0  0
   18.2758   -8.5818  -16.4516 C   0  0  0  0  0  0  0  0  0  0  0  0
   18.3955   -9.3057  -15.4296 O   0  0  0  0  0  0  0  0  0  0  0  0
   22.6911  -10.4833  -13.5472 C   0  0  0  0  0  0  0  0  0  0  0  0
   23.3172   -9.2081  -14.6881 S   0  0  0  0  0  0  0  0  0  0  0  0
   22.1615   -7.7901  -14.5376 C   0  0  0  0  0  0  0  0  0  0  0  0
   21.0332   -8.0789  -15.5032 C   0  0  0  0  0  0  0  0  0  0  0  0
   19.9246   -7.0455  -15.4249 C   0  0  2  0  0  0  0  0  0  0  0  0
   18.9234   -7.3176  -16.4346 N   0  0  0  0  0  0  0  0  0  0  0  0
   20.4116   -5.6798  -15.5856 C   0  0  0  0  0  0  0  0  0  0  0  0
   20.1175   -5.0172  -16.6056 O   0  0  0  0  0  0  0  0  0  0  0  0
   21.2049   -5.0899  -14.6193 O   0  0  0  0  0  0  0  0  0  0  0  0
  1  2  1  0
  3  2  1  0
  3  5  1  0
  3  4  1  1
  5  7  1  0
  5  6  1  6
  7 11  1  0
  7  8  2  0
 10  9  1  1
 10 12  1  0
 11 10  1  0
 12 13  2  0
 15 14  1  0
 15 16  1  0
 16 17  1  0
 18 17  1  6
 19 18  1  0
 19 12  1  0
 20 18  1  0
 20 22  1  0
 21 20  2  0
M  END
$$$$
