IAM.pdb
     RDKit          3D

 22 21  0  0  1  0  0  0  0  0999 V2000
   25.5617  -14.3009  -15.6668 C   0  0  0  0  0  0  0  0  0  0  0  0
   24.1675  -14.1081  -16.1569 C   0  0  0  0  0  0  0  0  0  0  0  0
   23.7446  -12.6829  -16.2838 C   0  0  2  0  0  0  0  0  0  0  0  0
   23.7321  -12.0767  -14.8812 C   0  0  0  0  0  0  0  0  0  0  0  0
   22.3752  -12.4852  -16.8599 C   0  0  2  0  0  0  0  0  0  0  0  0
   22.3850  -13.1423  -18.1733 N   0  0  0  0  0  0  0  0  0  0  0  0
   22.0841  -11.0498  -17.0655 C   0  0  0  0  0  0  0  0  0  0  0  0
   22.8317  -10.2998  -17.7671 O   0  0  0  0  0  0  0  0  0  0  0  0
   19.0679   -8.8748  -16.4516 C   0  0  0  0  0  0  0  0  0  0  0  0
   20.5387   -9.0819  -16.7380 C   0  0  2  0  0  0  0  0  0  0  0  0
   20.9542  -10.4451  -16.4876 N   0  0  0  0  0  0  0  0  0  0  0  0
   21.2875   -8.2105  -15.7948 C   0  0  0  0  0  0  0  0  0  0  0  0
   21.5065   -8.5431  -14.6013 O   0  0  0  0  0  0  0  0  0  0  0  0
   27.1638   -6.8598  -18.0385 C   0  0  0  0  0  0  0  0  0  0  0  0
   25.9868   -5.6132  -17.4216 S   0  0  0  0  0  0  0  0  0  0  0  0
   24.6871   -6.5507  -16.5267 C   0  0  0  0  0  0  0  0  0  0  0  0
   23.7281   -5.5099  -15.9921 C   0  0  0  0  0  0  0  0  0  0  0  0
   22.5317   -6.1289  -15.2931 C   0  0  2  0  0  0  0  0  0  0  0  0
   21.7873   -6.9517  -16.2230 N   0  0  0  0  0  0  0  0  0  0  0  0
   21.6392   -5.1331  -14.7102 C   0  0  0  0  0  0  0  0  0  0  0  0
   22.0141   -4.4342  -13.7422 O   0  0  0  0  0  0  0  0  0  0  0  0
   20.3656   -4.9400  -15.2118 O   0  0  0  0  0  0  0  0  0  0  0  0
  1  2  1  0
  3  2  1  0
  3  5  1  0
  3  4  1  1
  5  7  1  0
  5  6  1  6
  7 11  1  0
  7  8  2  0
 10  9  1  1
 10 12  1  0
 11 10  1  0
 12 13  2  0
 15 14  1  0
 15 16  1  0
 16 17  1  0
 18 17  1  6
 19 18  1  0
 19 12  1  0
 20 18  1  0
 20 22  1  0
 21 20  2  0
M  END
$$$$
