IAM.pdb
     RDKit          3D

 22 21  0  0  1  0  0  0  0  0999 V2000
   19.3427  -14.3766  -21.3660 C   0  0  0  0  0  0  0  0  0  0  0  0
   20.3786  -14.8341  -20.3970 C   0  0  0  0  0  0  0  0  0  0  0  0
   20.5858  -13.9243  -19.2327 C   0  0  2  0  0  0  0  0  0  0  0  0
   21.0743  -12.5818  -19.7749 C   0  0  0  0  0  0  0  0  0  0  0  0
   21.6078  -14.3966  -18.2434 C   0  0  2  0  0  0  0  0  0  0  0  0
   21.1466  -15.7094  -17.7738 N   0  0  0  0  0  0  0  0  0  0  0  0
   21.6812  -13.4902  -17.0770 C   0  0  0  0  0  0  0  0  0  0  0  0
   20.6513  -13.1527  -16.4144 O   0  0  0  0  0  0  0  0  0  0  0  0
   24.4899  -11.7161  -15.2362 C   0  0  0  0  0  0  0  0  0  0  0  0
   23.0437  -11.9536  -15.6105 C   0  0  2  0  0  0  0  0  0  0  0  0
   22.9078  -12.9563  -16.6447 N   0  0  0  0  0  0  0  0  0  0  0  0
   22.5268  -10.6743  -16.1638 C   0  0  0  0  0  0  0  0  0  0  0  0
   22.7546  -10.3124  -17.3470 O   0  0  0  0  0  0  0  0  0  0  0  0
   17.0047   -6.1628  -18.2055 C   0  0  0  0  0  0  0  0  0  0  0  0
   17.7413   -7.7639  -17.7435 S   0  0  0  0  0  0  0  0  0  0  0  0
   19.3919   -7.3725  -17.0425 C   0  0  0  0  0  0  0  0  0  0  0  0
   19.9481   -8.6897  -16.5482 C   0  0  0  0  0  0  0  0  0  0  0  0
   21.3086   -8.5352  -15.8937 C   0  0  2  0  0  0  0  0  0  0  0  0
   21.7451   -9.8063  -15.3555 N   0  0  0  0  0  0  0  0  0  0  0  0
   21.3154   -7.5349  -14.8319 C   0  0  0  0  0  0  0  0  0  0  0  0
   21.3843   -7.8837  -13.6320 O   0  0  0  0  0  0  0  0  0  0  0  0
   21.2465   -6.1859  -15.1259 O   0  0  0  0  0  0  0  0  0  0  0  0
  1  2  1  0
  3  2  1  0
  3  5  1  0
  3  4  1  6
  5  7  1  0
  5  6  1  1
  7 11  1  0
  7  8  2  0
 10  9  1  6
 10 12  1  0
 11 10  1  0
 12 13  2  0
 15 14  1  0
 15 16  1  0
 16 17  1  0
 18 17  1  1
 19 18  1  0
 19 12  1  0
 20 18  1  0
 20 22  1  0
 21 20  2  0
M  END
$$$$
