IAM.pdb
     RDKit          3D

 22 21  0  0  1  0  0  0  0  0999 V2000
   30.6708  -21.9350  -11.6147 C   0  0  0  0  0  0  0  0  0  0  0  0
   30.0605  -20.5923  -11.3993 C   0  0  0  0  0  0  0  0  0  0  0  0
   28.6947  -20.4303  -11.9777 C   0  0  2  0  0  0  0  0  0  0  0  0
   27.8292  -21.5733  -11.4492 C   0  0  0  0  0  0  0  0  0  0  0  0
   28.6374  -20.4916  -13.4741 C   0  0  2  0  0  0  0  0  0  0  0  0
   29.6411  -19.5368  -13.9615 N   0  0  0  0  0  0  0  0  0  0  0  0
   27.3135  -20.0641  -13.9761 C   0  0  0  0  0  0  0  0  0  0  0  0
   26.6194  -19.1770  -13.3886 O   0  0  0  0  0  0  0  0  0  0  0  0
   25.2268  -20.8339  -17.0458 C   0  0  0  0  0  0  0  0  0  0  0  0
   25.4277  -20.3409  -15.6300 C   0  0  2  0  0  0  0  0  0  0  0  0
   26.7585  -20.6263  -15.1389 N   0  0  0  0  0  0  0  0  0  0  0  0
   24.4701  -21.0891  -14.7739 C   0  0  0  0  0  0  0  0  0  0  0  0
   24.8103  -22.1036  -14.1121 O   0  0  0  0  0  0  0  0  0  0  0  0
   24.9365  -20.3791   -9.8775 C   0  0  0  0  0  0  0  0  0  0  0  0
   23.2339  -19.7644   -9.6708 S   0  0  0  0  0  0  0  0  0  0  0  0
   22.2485  -20.5622  -10.9980 C   0  0  0  0  0  0  0  0  0  0  0  0
   23.0581  -20.3937  -12.2649 C   0  0  0  0  0  0  0  0  0  0  0  0
   22.3616  -20.9781  -13.4799 C   0  0  2  0  0  0  0  0  0  0  0  0
   23.1159  -20.6715  -14.6769 N   0  0  0  0  0  0  0  0  0  0  0  0
   20.9941  -20.4944  -13.6354 C   0  0  0  0  0  0  0  0  0  0  0  0
   20.0283  -21.1834  -13.2374 O   0  0  0  0  0  0  0  0  0  0  0  0
   20.7359  -19.2700  -14.2229 O   0  0  0  0  0  0  0  0  0  0  0  0
  1  2  1  0
  3  2  1  0
  3  5  1  0
  3  4  1  1
  5  7  1  0
  5  6  1  6
  7 11  1  0
  7  8  2  0
 10  9  1  6
 10 12  1  0
 11 10  1  0
 12 13  2  0
 15 14  1  0
 15 16  1  0
 16 17  1  0
 18 17  1  1
 19 18  1  0
 19 12  1  0
 20 18  1  0
 20 22  1  0
 21 20  2  0
M  END
$$$$
