IAM.pdb
     RDKit          3D

 22 21  0  0  1  0  0  0  0  0999 V2000
   21.2033  -12.0509  -21.0843 C   0  0  0  0  0  0  0  0  0  0  0  0
   21.1635  -12.1829  -19.6003 C   0  0  0  0  0  0  0  0  0  0  0  0
   20.6689  -10.9725  -18.8816 C   0  0  2  0  0  0  0  0  0  0  0  0
   21.6524   -9.8360  -19.1568 C   0  0  0  0  0  0  0  0  0  0  0  0
   20.5764  -11.1226  -17.3932 C   0  0  2  0  0  0  0  0  0  0  0  0
   19.6853  -12.2646  -17.1516 N   0  0  0  0  0  0  0  0  0  0  0  0
   19.9692   -9.9255  -16.7722 C   0  0  0  0  0  0  0  0  0  0  0  0
   18.8670   -9.4381  -17.1739 O   0  0  0  0  0  0  0  0  0  0  0  0
   20.7759   -7.7702  -13.7606 C   0  0  0  0  0  0  0  0  0  0  0  0
   20.0891   -8.0602  -15.0767 C   0  0  2  0  0  0  0  0  0  0  0  0
   20.5916   -9.2667  -15.6975 N   0  0  0  0  0  0  0  0  0  0  0  0
   20.4073   -6.9287  -15.9866 C   0  0  0  0  0  0  0  0  0  0  0  0
   21.4966   -6.8540  -16.6117 O   0  0  0  0  0  0  0  0  0  0  0  0
   20.2467   -5.1891  -21.7236 C   0  0  0  0  0  0  0  0  0  0  0  0
   18.8186   -4.3323  -20.9846 S   0  0  0  0  0  0  0  0  0  0  0  0
   19.3710   -3.7783  -19.3242 C   0  0  0  0  0  0  0  0  0  0  0  0
   19.1482   -4.9590  -18.4049 C   0  0  0  0  0  0  0  0  0  0  0  0
   19.8121   -4.7742  -17.0528 C   0  0  2  0  0  0  0  0  0  0  0  0
   19.4713   -5.8778  -16.1801 N   0  0  0  0  0  0  0  0  0  0  0  0
   19.4431   -3.5187  -16.4080 C   0  0  0  0  0  0  0  0  0  0  0  0
   18.5095   -3.4835  -15.5755 O   0  0  0  0  0  0  0  0  0  0  0  0
   20.1134   -2.3457  -16.7006 O   0  0  0  0  0  0  0  0  0  0  0  0
  1  2  1  0
  3  2  1  0
  3  5  1  0
  3  4  1  1
  5  7  1  0
  5  6  1  6
  7 11  1  0
  7  8  2  0
 10  9  1  1
 10 12  1  0
 11 10  1  0
 12 13  2  0
 15 14  1  0
 15 16  1  0
 16 17  1  0
 18 17  1  6
 19 18  1  0
 19 12  1  0
 20 18  1  0
 20 22  1  0
 21 20  2  0
M  END
$$$$
