IAM.pdb
     RDKit          3D

 22 21  0  0  1  0  0  0  0  0999 V2000
   30.2889  -22.0506  -15.0800 C   0  0  0  0  0  0  0  0  0  0  0  0
   30.5706  -20.7763  -14.3600 C   0  0  0  0  0  0  0  0  0  0  0  0
   29.5149  -20.3641  -13.3895 C   0  0  2  0  0  0  0  0  0  0  0  0
   29.3426  -21.5001  -12.3822 C   0  0  0  0  0  0  0  0  0  0  0  0
   28.1695  -20.1097  -13.9989 C   0  0  2  0  0  0  0  0  0  0  0  0
   28.3349  -18.9520  -14.8873 N   0  0  0  0  0  0  0  0  0  0  0  0
   27.1724  -19.7575  -12.9649 C   0  0  0  0  0  0  0  0  0  0  0  0
   27.3456  -18.7932  -12.1562 O   0  0  0  0  0  0  0  0  0  0  0  0
   23.6308  -20.8147  -12.1836 C   0  0  0  0  0  0  0  0  0  0  0  0
   24.9749  -20.2261  -11.8163 C   0  0  2  0  0  0  0  0  0  0  0  0
   25.9753  -20.4821  -12.8297 N   0  0  0  0  0  0  0  0  0  0  0  0
   25.4189  -20.9101  -10.5733 C   0  0  0  0  0  0  0  0  0  0  0  0
   25.8840  -22.0790  -10.5783 O   0  0  0  0  0  0  0  0  0  0  0  0
   29.2798  -19.2429   -6.1686 C   0  0  0  0  0  0  0  0  0  0  0  0
   27.9284  -19.5785   -4.9935 S   0  0  0  0  0  0  0  0  0  0  0  0
   26.7802  -20.7169   -5.8622 C   0  0  0  0  0  0  0  0  0  0  0  0
   26.5564  -20.1066   -7.2283 C   0  0  0  0  0  0  0  0  0  0  0  0
   25.6727  -20.9690   -8.1106 C   0  0  2  0  0  0  0  0  0  0  0  0
   25.3286  -20.2496   -9.3189 N   0  0  0  0  0  0  0  0  0  0  0  0
   24.4497  -21.3973   -7.4405 C   0  0  0  0  0  0  0  0  0  0  0  0
   23.3377  -20.9551   -7.8062 O   0  0  0  0  0  0  0  0  0  0  0  0
   24.4918  -22.2970   -6.3918 O   0  0  0  0  0  0  0  0  0  0  0  0
  1  2  1  0
  3  2  1  0
  3  5  1  0
  3  4  1  1
  5  7  1  0
  5  6  1  6
  7 11  1  0
  7  8  2  0
 10  9  1  6
 10 12  1  0
 11 10  1  0
 12 13  2  0
 15 14  1  0
 15 16  1  0
 16 17  1  0
 18 17  1  1
 19 18  1  0
 19 12  1  0
 20 18  1  0
 20 22  1  0
 21 20  2  0
M  END
$$$$
