IAM.pdb
     RDKit          3D

 22 21  0  0  1  0  0  0  0  0999 V2000
   15.4669  -11.5258  -19.0041 C   0  0  0  0  0  0  0  0  0  0  0  0
   16.7525  -11.5932  -18.2531 C   0  0  0  0  0  0  0  0  0  0  0  0
   17.0217  -10.4175  -17.3747 C   0  0  2  0  0  0  0  0  0  0  0  0
   17.1685   -9.1910  -18.2742 C   0  0  0  0  0  0  0  0  0  0  0  0
   18.2765  -10.5182  -16.5613 C   0  0  2  0  0  0  0  0  0  0  0  0
   18.1331  -11.7242  -15.7354 N   0  0  0  0  0  0  0  0  0  0  0  0
   18.4223   -9.3564  -15.6578 C   0  0  0  0  0  0  0  0  0  0  0  0
   17.5089   -9.0097  -14.8458 O   0  0  0  0  0  0  0  0  0  0  0  0
   21.2577   -7.0521  -14.6942 C   0  0  0  0  0  0  0  0  0  0  0  0
   19.7934   -7.4070  -14.8283 C   0  0  2  0  0  0  0  0  0  0  0  0
   19.5913   -8.5756  -15.6572 N   0  0  0  0  0  0  0  0  0  0  0  0
   19.1338   -6.2620  -15.5091 C   0  0  0  0  0  0  0  0  0  0  0  0
   19.0782   -6.1660  -16.7624 O   0  0  0  0  0  0  0  0  0  0  0  0
   13.3980   -4.4148  -14.8837 C   0  0  0  0  0  0  0  0  0  0  0  0
   14.0870   -2.7470  -14.6324 S   0  0  0  0  0  0  0  0  0  0  0  0
   15.7421   -2.7639  -15.4258 C   0  0  0  0  0  0  0  0  0  0  0  0
   16.4697   -3.9474  -14.8269 C   0  0  0  0  0  0  0  0  0  0  0  0
   17.8471   -4.1474  -15.4318 C   0  0  2  0  0  0  0  0  0  0  0  0
   18.5354   -5.2222  -14.7484 N   0  0  0  0  0  0  0  0  0  0  0  0
   18.6674   -2.9421  -15.3823 C   0  0  0  0  0  0  0  0  0  0  0  0
   19.6124   -2.8508  -14.5670 O   0  0  0  0  0  0  0  0  0  0  0  0
   18.4206   -1.8792  -16.2309 O   0  0  0  0  0  0  0  0  0  0  0  0
  1  2  1  0
  3  2  1  0
  3  5  1  0
  3  4  1  6
  5  7  1  0
  5  6  1  1
  7 11  1  0
  7  8  2  0
 10  9  1  6
 10 12  1  0
 11 10  1  0
 12 13  2  0
 15 14  1  0
 15 16  1  0
 16 17  1  0
 18 17  1  1
 19 18  1  0
 19 12  1  0
 20 18  1  0
 20 22  1  0
 21 20  2  0
M  END
$$$$
