IAM.pdb
     RDKit          3D

 22 21  0  0  1  0  0  0  0  0999 V2000
   16.9129  -12.2990  -12.6047 C   0  0  0  0  0  0  0  0  0  0  0  0
   16.2226  -11.9546  -11.3295 C   0  0  0  0  0  0  0  0  0  0  0  0
   15.8201  -10.5231  -11.2074 C   0  0  2  0  0  0  0  0  0  0  0  0
   17.0912   -9.6774  -11.2714 C   0  0  0  0  0  0  0  0  0  0  0  0
   15.1253  -10.1753   -9.9258 C   0  0  2  0  0  0  0  0  0  0  0  0
   13.8801  -10.9538   -9.9110 N   0  0  0  0  0  0  0  0  0  0  0  0
   14.7714   -8.7400   -9.8822 C   0  0  0  0  0  0  0  0  0  0  0  0
   14.0130   -8.2018  -10.7477 O   0  0  0  0  0  0  0  0  0  0  0  0
   15.3177   -5.9391   -7.3917 C   0  0  0  0  0  0  0  0  0  0  0  0
   14.9465   -6.4915   -8.7500 C   0  0  2  0  0  0  0  0  0  0  0  0
   15.2636   -7.8982   -8.8696 N   0  0  0  0  0  0  0  0  0  0  0  0
   15.7721   -5.7651   -9.7502 C   0  0  0  0  0  0  0  0  0  0  0  0
   16.9955   -6.0077   -9.9162 O   0  0  0  0  0  0  0  0  0  0  0  0
   16.6453   -3.4493  -16.9005 C   0  0  0  0  0  0  0  0  0  0  0  0
   15.6412   -4.2526  -15.6096 S   0  0  0  0  0  0  0  0  0  0  0  0
   16.3678   -3.7248  -14.0088 C   0  0  0  0  0  0  0  0  0  0  0  0
   15.5662   -4.4377  -12.9420 C   0  0  0  0  0  0  0  0  0  0  0  0
   16.0121   -4.0694  -11.5390 C   0  0  2  0  0  0  0  0  0  0  0  0
   15.1914   -4.7557  -10.5636 N   0  0  0  0  0  0  0  0  0  0  0  0
   15.9598   -2.6334  -11.2872 C   0  0  0  0  0  0  0  0  0  0  0  0
   14.9741   -2.1267  -10.7062 O   0  0  0  0  0  0  0  0  0  0  0  0
   16.9929   -1.8045  -11.6826 O   0  0  0  0  0  0  0  0  0  0  0  0
  1  2  1  0
  3  2  1  0
  3  5  1  0
  3  4  1  1
  5  7  1  0
  5  6  1  6
  7 11  1  0
  7  8  2  0
 10  9  1  1
 10 12  1  0
 11 10  1  0
 12 13  2  0
 15 14  1  0
 15 16  1  0
 16 17  1  0
 18 17  1  6
 19 18  1  0
 19 12  1  0
 20 18  1  0
 20 22  1  0
 21 20  2  0
M  END
$$$$
