IAM.pdb
     RDKit          3D

 22 21  0  0  1  0  0  0  0  0999 V2000
   15.8073  -23.4438  -10.3669 C   0  0  0  0  0  0  0  0  0  0  0  0
   16.9506  -23.4560   -9.4107 C   0  0  0  0  0  0  0  0  0  0  0  0
   16.9059  -24.5550   -8.4025 C   0  0  2  0  0  0  0  0  0  0  0  0
   15.6774  -24.3271   -7.5228 C   0  0  0  0  0  0  0  0  0  0  0  0
   18.0937  -24.6164   -7.4906 C   0  0  2  0  0  0  0  0  0  0  0  0
   19.2604  -24.8444   -8.3530 N   0  0  0  0  0  0  0  0  0  0  0  0
   17.9873  -25.7530   -6.5502 C   0  0  0  0  0  0  0  0  0  0  0  0
   17.9267  -26.9582   -6.9470 O   0  0  0  0  0  0  0  0  0  0  0  0
   18.3097  -26.1248   -2.8017 C   0  0  0  0  0  0  0  0  0  0  0  0
   17.9103  -26.6095   -4.1778 C   0  0  2  0  0  0  0  0  0  0  0  0
   17.9485  -25.5477   -5.1600 N   0  0  0  0  0  0  0  0  0  0  0  0
   16.5006  -27.0707   -4.0791 C   0  0  0  0  0  0  0  0  0  0  0  0
   15.5294  -26.2709   -4.0821 O   0  0  0  0  0  0  0  0  0  0  0  0
   14.1294  -32.2961   -6.5346 C   0  0  0  0  0  0  0  0  0  0  0  0
   13.2451  -32.4803   -4.9523 S   0  0  0  0  0  0  0  0  0  0  0  0
   13.2536  -30.8166   -4.1770 C   0  0  0  0  0  0  0  0  0  0  0  0
   14.6750  -30.3144   -4.3040 C   0  0  0  0  0  0  0  0  0  0  0  0
   14.8268  -28.8794   -3.8344 C   0  0  2  0  0  0  0  0  0  0  0  0
   16.2040  -28.4561   -3.9764 N   0  0  0  0  0  0  0  0  0  0  0  0
   14.4049  -28.6890   -2.4509 C   0  0  0  0  0  0  0  0  0  0  0  0
   13.2202  -28.3862   -2.1848 O   0  0  0  0  0  0  0  0  0  0  0  0
   15.2999  -28.8384   -1.4081 O   0  0  0  0  0  0  0  0  0  0  0  0
  1  2  1  0
  3  2  1  0
  3  5  1  0
  3  4  1  1
  5  7  1  0
  5  6  1  6
  7 11  1  0
  7  8  2  0
 10  9  1  1
 10 12  1  0
 11 10  1  0
 12 13  2  0
 15 14  1  0
 15 16  1  0
 16 17  1  0
 18 17  1  1
 19 18  1  0
 19 12  1  0
 20 18  1  0
 20 22  1  0
 21 20  2  0
M  END
$$$$
