IAM.pdb
     RDKit          3D

 22 21  0  0  1  0  0  0  0  0999 V2000
   29.5460  -19.5402   -3.0787 C   0  0  0  0  0  0  0  0  0  0  0  0
   29.0297  -18.8658   -4.3035 C   0  0  0  0  0  0  0  0  0  0  0  0
   28.6622  -19.7913   -5.4147 C   0  0  2  0  0  0  0  0  0  0  0  0
   29.9224  -20.5564   -5.8162 C   0  0  0  0  0  0  0  0  0  0  0  0
   28.1476  -19.1142   -6.6488 C   0  0  2  0  0  0  0  0  0  0  0  0
   27.0753  -18.2142   -6.2048 N   0  0  0  0  0  0  0  0  0  0  0  0
   27.5655  -20.0933   -7.5921 C   0  0  0  0  0  0  0  0  0  0  0  0
   28.2773  -20.9426   -8.2134 O   0  0  0  0  0  0  0  0  0  0  0  0
   24.0913  -21.2470   -8.4764 C   0  0  0  0  0  0  0  0  0  0  0  0
   25.5495  -21.0107   -8.8014 C   0  0  2  0  0  0  0  0  0  0  0  0
   26.1832  -20.1283   -7.8457 N   0  0  0  0  0  0  0  0  0  0  0  0
   25.5912  -20.3338  -10.1242 C   0  0  0  0  0  0  0  0  0  0  0  0
   25.5373  -19.0823  -10.2414 O   0  0  0  0  0  0  0  0  0  0  0  0
   28.9822  -19.6772  -16.8988 C   0  0  0  0  0  0  0  0  0  0  0  0
   28.8469  -20.4737  -15.2657 S   0  0  0  0  0  0  0  0  0  0  0  0
   27.1825  -20.0329  -14.6296 C   0  0  0  0  0  0  0  0  0  0  0  0
   27.0976  -20.6463  -13.2492 C   0  0  0  0  0  0  0  0  0  0  0  0
   25.7482  -20.4152  -12.5944 C   0  0  2  0  0  0  0  0  0  0  0  0
   25.6952  -21.0965  -11.3181 N   0  0  0  0  0  0  0  0  0  0  0  0
   24.6332  -20.8590  -13.4237 C   0  0  0  0  0  0  0  0  0  0  0  0
   24.1607  -22.0098  -13.2886 O   0  0  0  0  0  0  0  0  0  0  0  0
   24.0762  -20.0222  -14.3726 O   0  0  0  0  0  0  0  0  0  0  0  0
  1  2  1  0
  3  2  1  0
  3  5  1  0
  3  4  1  6
  5  7  1  0
  5  6  1  1
  7 11  1  0
  7  8  2  0
 10  9  1  1
 10 12  1  0
 11 10  1  0
 12 13  2  0
 15 14  1  0
 15 16  1  0
 16 17  1  0
 18 17  1  6
 19 18  1  0
 19 12  1  0
 20 18  1  0
 20 22  1  0
 21 20  2  0
M  END
$$$$
