NPE.pdb
     RDKit          3D

 25 25  0  0  1  0  0  0  0  0999 V2000
   21.8076  -13.5921  -20.3759 N   0  0  0  0  0  0  0  0  0  0  0  0
   21.3534  -12.2543  -20.4415 C   0  0  0  0  0  0  0  0  0  0  0  0
   21.1958  -11.6883  -21.5390 O   0  0  0  0  0  0  0  0  0  0  0  0
   21.0727  -11.5515  -19.1678 C   0  0  0  0  0  0  0  0  0  0  0  0
   21.3757  -12.4976  -18.0123 C   0  0  2  0  0  0  0  0  0  0  0  0
   20.3591  -13.5002  -17.9312 N   0  0  0  0  0  0  0  0  0  0  0  0
   21.5055  -11.6794  -16.8032 C   0  0  0  0  0  0  0  0  0  0  0  0
   20.4343  -11.4257  -16.1755 O   0  0  0  0  0  0  0  0  0  0  0  0
   22.7318  -11.1593  -16.2957 N   0  0  0  0  0  0  0  0  0  0  0  0
   23.9875  -11.3978  -16.9953 C   0  0  0  0  0  0  0  0  0  0  0  0
   25.0718  -11.0017  -16.0514 C   0  0  0  0  0  0  0  0  0  0  0  0
   24.3825  -10.8621  -14.6956 C   0  0  0  0  0  0  0  0  0  0  0  0
   23.0034  -10.3761  -15.1440 C   0  0  1  0  0  0  0  0  0  0  0  0
   23.0206   -8.9269  -15.4340 C   0  0  0  0  0  0  0  0  0  0  0  0
   23.4207   -8.4867  -16.5572 O   0  0  0  0  0  0  0  0  0  0  0  0
   22.5996   -7.9947  -14.4878 N   0  0  0  0  0  0  0  0  0  0  0  0
   22.1348   -6.6583  -14.8959 C   0  0  1  0  0  0  0  0  0  0  0  0
   20.7991   -6.7557  -15.5555 C   0  0  0  0  0  0  0  0  0  0  0  0
   19.8964   -5.6235  -15.2132 C   0  0  0  0  0  0  0  0  0  0  0  0
   18.5678   -5.7794  -15.9189 C   0  0  0  0  0  0  0  0  0  0  0  0
   17.6312   -6.2550  -15.2565 O   0  0  0  0  0  0  0  0  0  0  0  0
   22.1124   -5.7439  -13.7429 C   0  0  0  0  0  0  0  0  0  0  0  0
   22.2474   -4.5040  -13.9682 O   0  0  0  0  0  0  0  0  0  0  0  0
   18.4093   -5.4082  -17.2399 O   0  0  0  0  0  0  0  0  0  0  0  0
   21.9518   -6.1556  -12.4485 O   0  0  0  0  0  0  0  0  0  0  0  0
  1  2  1  0
  2  3  2  0
  4  2  1  0
  5  4  1  0
  5  6  1  1
  7  5  1  0
  8  7  2  0
  9  7  1  0
  9 13  1  0
 10  9  1  0
 11 12  1  0
 11 10  1  0
 12 13  1  0
 13 14  1  6
 14 15  2  0
 16 14  1  0
 16 17  1  0
 17 22  1  0
 17 18  1  1
 19 18  1  0
 20 21  2  0
 20 19  1  0
 22 23  2  0
 22 25  1  0
 24 20  1  0
M  END
$$$$
