NPE.pdb
     RDKit          3D

 25 25  0  0  1  0  0  0  0  0999 V2000
   20.6187  -11.8031  -20.6109 N   0  0  0  0  0  0  0  0  0  0  0  0
   19.4933  -11.7543  -19.7557 C   0  0  0  0  0  0  0  0  0  0  0  0
   18.4598  -12.3934  -20.0260 O   0  0  0  0  0  0  0  0  0  0  0  0
   19.5838  -10.9219  -18.5334 C   0  0  0  0  0  0  0  0  0  0  0  0
   19.8253  -11.8359  -17.3383 C   0  0  2  0  0  0  0  0  0  0  0  0
   18.6800  -12.6660  -17.1273 N   0  0  0  0  0  0  0  0  0  0  0  0
   20.1607  -10.9796  -16.1969 C   0  0  0  0  0  0  0  0  0  0  0  0
   19.1918  -10.5909  -15.4787 O   0  0  0  0  0  0  0  0  0  0  0  0
   21.4780  -10.5621  -15.8475 N   0  0  0  0  0  0  0  0  0  0  0  0
   22.6224  -10.9508  -16.6613 C   0  0  0  0  0  0  0  0  0  0  0  0
   23.8352  -10.6250  -15.8573 C   0  0  0  0  0  0  0  0  0  0  0  0
   23.3136  -10.3634  -14.4457 C   0  0  0  0  0  0  0  0  0  0  0  0
   21.9452   -9.7632  -14.7717 C   0  0  1  0  0  0  0  0  0  0  0  0
   22.0656   -8.3356  -15.1354 C   0  0  0  0  0  0  0  0  0  0  0  0
   22.4532   -7.9834  -16.2935 O   0  0  0  0  0  0  0  0  0  0  0  0
   21.7592   -7.3283  -14.2227 N   0  0  0  0  0  0  0  0  0  0  0  0
   21.6136   -5.9294  -14.6593 C   0  0  1  0  0  0  0  0  0  0  0  0
   20.1688   -5.5779  -14.7915 C   0  0  0  0  0  0  0  0  0  0  0  0
   19.9494   -4.1859  -15.2693 C   0  0  0  0  0  0  0  0  0  0  0  0
   18.4745   -3.9323  -15.4883 C   0  0  0  0  0  0  0  0  0  0  0  0
   17.7597   -4.9237  -15.7086 O   0  0  0  0  0  0  0  0  0  0  0  0
   22.3171   -5.0236  -13.7368 C   0  0  0  0  0  0  0  0  0  0  0  0
   22.6483   -3.8791  -14.1689 O   0  0  0  0  0  0  0  0  0  0  0  0
   17.9522   -2.6543  -15.4445 O   0  0  0  0  0  0  0  0  0  0  0  0
   22.6289   -5.3458  -12.4446 O   0  0  0  0  0  0  0  0  0  0  0  0
  1  2  1  0
  2  3  2  0
  4  2  1  0
  5  4  1  0
  5  6  1  1
  7  5  1  0
  8  7  2  0
  9  7  1  0
  9 13  1  0
 10  9  1  0
 11 12  1  0
 11 10  1  0
 12 13  1  0
 13 14  1  6
 14 15  2  0
 16 14  1  0
 16 17  1  0
 17 22  1  0
 17 18  1  1
 19 18  1  0
 20 21  2  0
 20 19  1  0
 22 23  2  0
 22 25  1  0
 24 20  1  0
M  END
$$$$
