NPE.pdb
     RDKit          3D

 25 25  0  0  1  0  0  0  0  0999 V2000
   16.6377  -10.3801  -19.6002 N   0  0  0  0  0  0  0  0  0  0  0  0
   18.0079  -10.1903  -19.3058 C   0  0  0  0  0  0  0  0  0  0  0  0
   18.8680  -10.2625  -20.2028 O   0  0  0  0  0  0  0  0  0  0  0  0
   18.3848   -9.9040  -17.9019 C   0  0  0  0  0  0  0  0  0  0  0  0
   19.2969  -11.0191  -17.4053 C   0  0  2  0  0  0  0  0  0  0  0  0
   18.5419  -12.2228  -17.2429 N   0  0  0  0  0  0  0  0  0  0  0  0
   19.9345  -10.5433  -16.1742 C   0  0  0  0  0  0  0  0  0  0  0  0
   19.3681  -10.8606  -15.0860 O   0  0  0  0  0  0  0  0  0  0  0  0
   21.1257   -9.7623  -16.1196 N   0  0  0  0  0  0  0  0  0  0  0  0
   21.8415   -9.4105  -17.3390 C   0  0  0  0  0  0  0  0  0  0  0  0
   23.1677   -8.8839  -16.9062 C   0  0  0  0  0  0  0  0  0  0  0  0
   23.2863   -9.2759  -15.4348 C   0  0  0  0  0  0  0  0  0  0  0  0
   21.8172   -9.1977  -15.0165 C   0  0  1  0  0  0  0  0  0  0  0  0
   21.4157   -7.8005  -14.7497 C   0  0  0  0  0  0  0  0  0  0  0  0
   20.9934   -7.0488  -15.6836 O   0  0  0  0  0  0  0  0  0  0  0  0
   21.4864   -7.2598  -13.4674 N   0  0  0  0  0  0  0  0  0  0  0  0
   20.6673   -6.0955  -13.0903 C   0  0  1  0  0  0  0  0  0  0  0  0
   19.8486   -6.4101  -11.8824 C   0  0  0  0  0  0  0  0  0  0  0  0
   18.9979   -5.2713  -11.4424 C   0  0  0  0  0  0  0  0  0  0  0  0
   18.1503   -5.6763  -10.2570 C   0  0  0  0  0  0  0  0  0  0  0  0
   18.2171   -6.8629   -9.8967 O   0  0  0  0  0  0  0  0  0  0  0  0
   21.5159   -4.9106  -12.8851 C   0  0  0  0  0  0  0  0  0  0  0  0
   20.9648   -3.7707  -12.9431 O   0  0  0  0  0  0  0  0  0  0  0  0
   17.3407   -4.7638   -9.6090 O   0  0  0  0  0  0  0  0  0  0  0  0
   22.8590   -4.9712  -12.6336 O   0  0  0  0  0  0  0  0  0  0  0  0
  1  2  1  0
  2  3  2  0
  4  2  1  0
  5  4  1  0
  5  6  1  1
  7  5  1  0
  8  7  2  0
  9  7  1  0
  9 13  1  0
 10  9  1  0
 11 12  1  0
 11 10  1  0
 12 13  1  0
 13 14  1  6
 14 15  2  0
 16 14  1  0
 16 17  1  0
 17 22  1  0
 17 18  1  1
 19 18  1  0
 20 21  2  0
 20 19  1  0
 22 23  2  0
 22 25  1  0
 24 20  1  0
M  END
$$$$
