NPE.pdb
     RDKit          3D

 25 25  0  0  1  0  0  0  0  0999 V2000
   29.6999  -23.7871  -17.7227 N   0  0  0  0  0  0  0  0  0  0  0  0
   28.5280  -23.3386  -18.3753 C   0  0  0  0  0  0  0  0  0  0  0  0
   28.4364  -23.3750  -19.6162 O   0  0  0  0  0  0  0  0  0  0  0  0
   27.4180  -22.8265  -17.5381 C   0  0  0  0  0  0  0  0  0  0  0  0
   27.8153  -22.9522  -16.0723 C   0  0  2  0  0  0  0  0  0  0  0  0
   27.8096  -24.3297  -15.6880 N   0  0  0  0  0  0  0  0  0  0  0  0
   26.8956  -22.1126  -15.2992 C   0  0  0  0  0  0  0  0  0  0  0  0
   26.1718  -22.7063  -14.4451 O   0  0  0  0  0  0  0  0  0  0  0  0
   26.7627  -20.7006  -15.4410 N   0  0  0  0  0  0  0  0  0  0  0  0
   27.5477  -19.9748  -16.4310 C   0  0  0  0  0  0  0  0  0  0  0  0
   27.4025  -18.5283  -16.0988 C   0  0  0  0  0  0  0  0  0  0  0  0
   26.7941  -18.5050  -14.6980 C   0  0  0  0  0  0  0  0  0  0  0  0
   25.9381  -19.7711  -14.7554 C   0  0  1  0  0  0  0  0  0  0  0  0
   24.6628  -19.5173  -15.4583 C   0  0  0  0  0  0  0  0  0  0  0  0
   24.6088  -19.4791  -16.7276 O   0  0  0  0  0  0  0  0  0  0  0  0
   23.4778  -19.3112  -14.7549 N   0  0  0  0  0  0  0  0  0  0  0  0
   22.1762  -19.3249  -15.4436 C   0  0  1  0  0  0  0  0  0  0  0  0
   21.1093  -19.8139  -14.5211 C   0  0  0  0  0  0  0  0  0  0  0  0
   21.3500  -21.1992  -14.0344 C   0  0  0  0  0  0  0  0  0  0  0  0
   20.2181  -21.6440  -13.1352 C   0  0  0  0  0  0  0  0  0  0  0  0
   19.3068  -20.8254  -12.9311 O   0  0  0  0  0  0  0  0  0  0  0  0
   21.8643  -17.9930  -15.9869 C   0  0  0  0  0  0  0  0  0  0  0  0
   20.8476  -17.8823  -16.7355 O   0  0  0  0  0  0  0  0  0  0  0  0
   20.2041  -22.9041  -12.5697 O   0  0  0  0  0  0  0  0  0  0  0  0
   22.6055  -16.8731  -15.7275 O   0  0  0  0  0  0  0  0  0  0  0  0
  1  2  1  0
  2  3  2  0
  4  2  1  0
  5  4  1  0
  5  6  1  1
  7  5  1  0
  8  7  2  0
  9  7  1  0
  9 13  1  0
 10  9  1  0
 11 12  1  0
 11 10  1  0
 12 13  1  0
 13 14  1  6
 14 15  2  0
 16 14  1  0
 16 17  1  0
 17 22  1  0
 17 18  1  1
 19 18  1  0
 20 21  2  0
 20 19  1  0
 22 23  2  0
 22 25  1  0
 24 20  1  0
M  END
$$$$
