NPE.pdb
     RDKit          3D

 25 25  0  0  1  0  0  0  0  0999 V2000
   17.9028  -11.7800  -19.8585 N   0  0  0  0  0  0  0  0  0  0  0  0
   19.1701  -11.7464  -19.2315 C   0  0  0  0  0  0  0  0  0  0  0  0
   20.1298  -12.3857  -19.7004 O   0  0  0  0  0  0  0  0  0  0  0  0
   19.3178  -10.9296  -18.0043 C   0  0  0  0  0  0  0  0  0  0  0  0
   19.7574  -11.8393  -16.8636 C   0  0  2  0  0  0  0  0  0  0  0  0
   18.7121  -12.7656  -16.5558 N   0  0  0  0  0  0  0  0  0  0  0  0
   20.1402  -10.9764  -15.7423 C   0  0  0  0  0  0  0  0  0  0  0  0
   19.2031  -10.5899  -14.9818 O   0  0  0  0  0  0  0  0  0  0  0  0
   21.4698  -10.5504  -15.4554 N   0  0  0  0  0  0  0  0  0  0  0  0
   22.5859  -10.9850  -16.2850 C   0  0  0  0  0  0  0  0  0  0  0  0
   23.8252  -10.6279  -15.5366 C   0  0  0  0  0  0  0  0  0  0  0  0
   23.3499  -10.2950  -14.1236 C   0  0  0  0  0  0  0  0  0  0  0  0
   21.9746   -9.7030  -14.4351 C   0  0  1  0  0  0  0  0  0  0  0  0
   22.0898   -8.2955  -14.8715 C   0  0  0  0  0  0  0  0  0  0  0  0
   22.5127   -8.0007  -16.0333 O   0  0  0  0  0  0  0  0  0  0  0  0
   21.7396   -7.2449  -14.0258 N   0  0  0  0  0  0  0  0  0  0  0  0
   21.5298   -5.8860  -14.5530 C   0  0  1  0  0  0  0  0  0  0  0  0
   20.0759   -5.5475  -14.5432 C   0  0  0  0  0  0  0  0  0  0  0  0
   19.7885   -4.1970  -15.0977 C   0  0  0  0  0  0  0  0  0  0  0  0
   18.3008   -3.9252  -15.0739 C   0  0  0  0  0  0  0  0  0  0  0  0
   17.9292   -2.7965  -15.4345 O   0  0  0  0  0  0  0  0  0  0  0  0
   22.3265   -4.9081  -13.7946 C   0  0  0  0  0  0  0  0  0  0  0  0
   22.5912   -5.1722  -12.5836 O   0  0  0  0  0  0  0  0  0  0  0  0
   17.4014   -4.8921  -14.6685 O   0  0  0  0  0  0  0  0  0  0  0  0
   22.7973   -3.7375  -14.3225 O   0  0  0  0  0  0  0  0  0  0  0  0
  1  2  1  0
  2  3  2  0
  4  2  1  0
  5  4  1  0
  5  6  1  1
  7  5  1  0
  8  7  2  0
  9  7  1  0
  9 13  1  0
 10  9  1  0
 11 12  1  0
 11 10  1  0
 12 13  1  0
 13 14  1  6
 14 15  2  0
 16 14  1  0
 16 17  1  0
 17 22  1  0
 17 18  1  1
 19 18  1  0
 20 21  2  0
 20 19  1  0
 22 23  2  0
 22 25  1  0
 24 20  1  0
M  END
$$$$
