NPE.pdb
     RDKit          3D

 25 25  0  0  1  0  0  0  0  0999 V2000
   24.1865  -12.7427  -19.4331 N   0  0  0  0  0  0  0  0  0  0  0  0
   24.3342  -11.3478  -19.6139 C   0  0  0  0  0  0  0  0  0  0  0  0
   25.2656  -10.8898  -20.3014 O   0  0  0  0  0  0  0  0  0  0  0  0
   23.3494  -10.4535  -18.9618 C   0  0  0  0  0  0  0  0  0  0  0  0
   22.3183  -11.3101  -18.2373 C   0  0  2  0  0  0  0  0  0  0  0  0
   21.4612  -11.9428  -19.1915 N   0  0  0  0  0  0  0  0  0  0  0  0
   21.6171  -10.4384  -17.2903 C   0  0  0  0  0  0  0  0  0  0  0  0
   20.5521   -9.8927  -17.7073 O   0  0  0  0  0  0  0  0  0  0  0  0
   22.0444  -10.1679  -15.9577 N   0  0  0  0  0  0  0  0  0  0  0  0
   23.2931  -10.7208  -15.4497 C   0  0  0  0  0  0  0  0  0  0  0  0
   23.2714  -10.5115  -13.9735 C   0  0  0  0  0  0  0  0  0  0  0  0
   21.8265  -10.1362  -13.6500 C   0  0  0  0  0  0  0  0  0  0  0  0
   21.4494   -9.3900  -14.9306 C   0  0  1  0  0  0  0  0  0  0  0  0
   21.9563   -8.0018  -14.9040 C   0  0  0  0  0  0  0  0  0  0  0  0
   23.1631   -7.7375  -15.2027 O   0  0  0  0  0  0  0  0  0  0  0  0
   21.1302   -6.9367  -14.5509 N   0  0  0  0  0  0  0  0  0  0  0  0
   21.5830   -5.5438  -14.7047 C   0  0  1  0  0  0  0  0  0  0  0  0
   20.4394   -4.6703  -15.1016 C   0  0  0  0  0  0  0  0  0  0  0  0
   20.8222   -3.2399  -15.2475 C   0  0  0  0  0  0  0  0  0  0  0  0
   19.6836   -2.4509  -15.8547 C   0  0  0  0  0  0  0  0  0  0  0  0
   18.6506   -3.0799  -16.1365 O   0  0  0  0  0  0  0  0  0  0  0  0
   22.2323   -5.0717  -13.4711 C   0  0  0  0  0  0  0  0  0  0  0  0
   22.9551   -4.0331  -13.5429 O   0  0  0  0  0  0  0  0  0  0  0  0
   19.7936   -1.0931  -16.0833 O   0  0  0  0  0  0  0  0  0  0  0  0
   22.0971   -5.6869  -12.2570 O   0  0  0  0  0  0  0  0  0  0  0  0
  1  2  1  0
  2  3  2  0
  4  2  1  0
  5  4  1  0
  5  6  1  6
  7  5  1  0
  8  7  2  0
  9  7  1  0
  9 13  1  0
 10  9  1  0
 11 12  1  0
 11 10  1  0
 12 13  1  0
 13 14  1  1
 14 15  2  0
 16 14  1  0
 16 17  1  0
 17 22  1  0
 17 18  1  1
 19 18  1  0
 20 21  2  0
 20 19  1  0
 22 23  2  0
 22 25  1  0
 24 20  1  0
M  END
$$$$
