NPE.pdb
     RDKit          3D

 25 25  0  0  1  0  0  0  0  0999 V2000
   26.2910  -24.9621  -14.9716 N   0  0  0  0  0  0  0  0  0  0  0  0
   26.6533  -23.6087  -15.1654 C   0  0  0  0  0  0  0  0  0  0  0  0
   27.8024  -23.3035  -15.5342 O   0  0  0  0  0  0  0  0  0  0  0  0
   25.6257  -22.5708  -14.9165 C   0  0  0  0  0  0  0  0  0  0  0  0
   26.0498  -21.7454  -13.7079 C   0  0  2  0  0  0  0  0  0  0  0  0
   25.8074  -22.4866  -12.5091 N   0  0  0  0  0  0  0  0  0  0  0  0
   25.3298  -20.4706  -13.7778 C   0  0  0  0  0  0  0  0  0  0  0  0
   24.3084  -20.3577  -13.0363 O   0  0  0  0  0  0  0  0  0  0  0  0
   25.6937  -19.3706  -14.6081 N   0  0  0  0  0  0  0  0  0  0  0  0
   26.8494  -19.4552  -15.4913 C   0  0  0  0  0  0  0  0  0  0  0  0
   27.1205  -18.0648  -15.9569 C   0  0  0  0  0  0  0  0  0  0  0  0
   26.2916  -17.1721  -15.0355 C   0  0  0  0  0  0  0  0  0  0  0  0
   25.0991  -18.0925  -14.7710 C   0  0  1  0  0  0  0  0  0  0  0  0
   24.1390  -18.0520  -15.8941 C   0  0  0  0  0  0  0  0  0  0  0  0
   24.4446  -18.5179  -17.0364 O   0  0  0  0  0  0  0  0  0  0  0  0
   22.8679  -17.5024  -15.7396 N   0  0  0  0  0  0  0  0  0  0  0  0
   21.7517  -17.9209  -16.6043 C   0  0  1  0  0  0  0  0  0  0  0  0
   20.8817  -18.8989  -15.8866 C   0  0  0  0  0  0  0  0  0  0  0  0
   20.2014  -18.3125  -14.7004 C   0  0  0  0  0  0  0  0  0  0  0  0
   19.2476  -19.3166  -14.0923 C   0  0  0  0  0  0  0  0  0  0  0  0
   19.1726  -20.4268  -14.6437 O   0  0  0  0  0  0  0  0  0  0  0  0
   20.9922  -16.7501  -17.0717 C   0  0  0  0  0  0  0  0  0  0  0  0
   21.2654  -15.6239  -16.5583 O   0  0  0  0  0  0  0  0  0  0  0  0
   18.4968  -19.0072  -12.9749 O   0  0  0  0  0  0  0  0  0  0  0  0
   20.0148  -16.8092  -18.0267 O   0  0  0  0  0  0  0  0  0  0  0  0
  1  2  1  0
  2  3  2  0
  4  2  1  0
  5  4  1  0
  5  6  1  1
  7  5  1  0
  8  7  2  0
  9  7  1  0
  9 13  1  0
 10  9  1  0
 11 12  1  0
 11 10  1  0
 12 13  1  0
 13 14  1  6
 14 15  2  0
 16 14  1  0
 16 17  1  0
 17 22  1  0
 17 18  1  1
 19 18  1  0
 20 21  2  0
 20 19  1  0
 22 23  2  0
 22 25  1  0
 24 20  1  0
M  END
$$$$
