NPE.pdb
     RDKit          3D

 25 25  0  0  1  0  0  0  0  0999 V2000
   17.1886   -2.6245  -14.7250 N   0  0  0  0  0  0  0  0  0  0  0  0
   16.9918   -3.9944  -14.4336 C   0  0  0  0  0  0  0  0  0  0  0  0
   16.1779   -4.3495  -13.5612 O   0  0  0  0  0  0  0  0  0  0  0  0
   17.7820   -4.9885  -15.1967 C   0  0  0  0  0  0  0  0  0  0  0  0
   18.6215   -4.2518  -16.2333 C   0  0  2  0  0  0  0  0  0  0  0  0
   17.7727   -3.7358  -17.2622 N   0  0  0  0  0  0  0  0  0  0  0  0
   19.6403   -5.1896  -16.7138 C   0  0  0  0  0  0  0  0  0  0  0  0
   19.3372   -5.8793  -17.7327 O   0  0  0  0  0  0  0  0  0  0  0  0
   20.9243   -5.3749  -16.1232 N   0  0  0  0  0  0  0  0  0  0  0  0
   21.2977   -4.6549  -14.9127 C   0  0  0  0  0  0  0  0  0  0  0  0
   22.7700   -4.8345  -14.7586 C   0  0  0  0  0  0  0  0  0  0  0  0
   23.2423   -5.3865  -16.1022 C   0  0  0  0  0  0  0  0  0  0  0  0
   22.0126   -6.2016  -16.5053 C   0  0  1  0  0  0  0  0  0  0  0  0
   21.9977   -7.5118  -15.8214 C   0  0  0  0  0  0  0  0  0  0  0  0
   21.5873   -7.6228  -14.6236 O   0  0  0  0  0  0  0  0  0  0  0  0
   22.4325   -8.6687  -16.4649 N   0  0  0  0  0  0  0  0  0  0  0  0
   21.8756   -9.9858  -16.1131 C   0  0  1  0  0  0  0  0  0  0  0  0
   20.3873   -9.9640  -16.2273 C   0  0  0  0  0  0  0  0  0  0  0  0
   19.7635  -11.2893  -15.9660 C   0  0  0  0  0  0  0  0  0  0  0  0
   18.2574  -11.1887  -16.0611 C   0  0  0  0  0  0  0  0  0  0  0  0
   17.7232  -10.2100  -15.5143 O   0  0  0  0  0  0  0  0  0  0  0  0
   22.4749  -11.0404  -16.9468 C   0  0  0  0  0  0  0  0  0  0  0  0
   23.0121  -12.0261  -16.3585 O   0  0  0  0  0  0  0  0  0  0  0  0
   17.5152  -12.1449  -16.7266 O   0  0  0  0  0  0  0  0  0  0  0  0
   22.4815  -11.0171  -18.3143 O   0  0  0  0  0  0  0  0  0  0  0  0
  1  2  1  0
  2  3  2  0
  4  2  1  0
  5  4  1  0
  5  6  1  6
  7  5  1  0
  8  7  2  0
  9  7  1  0
  9 13  1  0
 10  9  1  0
 11 12  1  0
 11 10  1  0
 12 13  1  0
 13 14  1  1
 14 15  2  0
 16 14  1  0
 16 17  1  0
 17 22  1  0
 17 18  1  6
 19 18  1  0
 20 21  2  0
 20 19  1  0
 22 23  2  0
 22 25  1  0
 24 20  1  0
M  END
$$$$
