NPE.pdb
     RDKit          3D

 25 25  0  0  1  0  0  0  0  0999 V2000
   22.8666  -12.1588  -21.9278 N   0  0  0  0  0  0  0  0  0  0  0  0
   23.7547  -12.2001  -20.8279 C   0  0  0  0  0  0  0  0  0  0  0  0
   24.7789  -12.9068  -20.8626 O   0  0  0  0  0  0  0  0  0  0  0  0
   23.4282  -11.3791  -19.6387 C   0  0  0  0  0  0  0  0  0  0  0  0
   23.4969  -12.2653  -18.4010 C   0  0  2  0  0  0  0  0  0  0  0  0
   22.4489  -13.2375  -18.4457 N   0  0  0  0  0  0  0  0  0  0  0  0
   23.4440  -11.3834  -17.2314 C   0  0  0  0  0  0  0  0  0  0  0  0
   22.2984  -11.1793  -16.7296 O   0  0  0  0  0  0  0  0  0  0  0  0
   24.5725  -10.7516  -16.6323 N   0  0  0  0  0  0  0  0  0  0  0  0
   25.9041  -10.9111  -17.2017 C   0  0  0  0  0  0  0  0  0  0  0  0
   26.8593  -10.4005  -16.1768 C   0  0  0  0  0  0  0  0  0  0  0  0
   26.0342  -10.2738  -14.8977 C   0  0  0  0  0  0  0  0  0  0  0  0
   24.6715   -9.9136  -15.4914 C   0  0  1  0  0  0  0  0  0  0  0  0
   24.6058   -8.4774  -15.8345 C   0  0  0  0  0  0  0  0  0  0  0  0
   25.0694   -8.0434  -16.9356 O   0  0  0  0  0  0  0  0  0  0  0  0
   24.0346   -7.5511  -14.9643 N   0  0  0  0  0  0  0  0  0  0  0  0
   23.1489   -6.4868  -15.4659 C   0  0  1  0  0  0  0  0  0  0  0  0
   22.0258   -7.0779  -16.2518 C   0  0  0  0  0  0  0  0  0  0  0  0
   21.0912   -6.0542  -16.7927 C   0  0  0  0  0  0  0  0  0  0  0  0
   20.0007   -6.7159  -17.6055 C   0  0  0  0  0  0  0  0  0  0  0  0
   18.8660   -6.7502  -17.1021 O   0  0  0  0  0  0  0  0  0  0  0  0
   22.6626   -5.6523  -14.3554 C   0  0  0  0  0  0  0  0  0  0  0  0
   22.6417   -4.3963  -14.5240 O   0  0  0  0  0  0  0  0  0  0  0  0
   20.2611   -7.2559  -18.8499 O   0  0  0  0  0  0  0  0  0  0  0  0
   22.2312   -6.1548  -13.1586 O   0  0  0  0  0  0  0  0  0  0  0  0
  1  2  1  0
  2  3  2  0
  4  2  1  0
  5  4  1  0
  5  6  1  1
  7  5  1  0
  8  7  2  0
  9  7  1  0
  9 13  1  0
 10  9  1  0
 11 12  1  0
 11 10  1  0
 12 13  1  0
 13 14  1  6
 14 15  2  0
 16 14  1  0
 16 17  1  0
 17 22  1  0
 17 18  1  1
 19 18  1  0
 20 21  2  0
 20 19  1  0
 22 23  2  0
 22 25  1  0
 24 20  1  0
M  END
$$$$
