NPE.pdb
     RDKit          3D

 25 25  0  0  1  0  0  0  0  0999 V2000
   29.3552  -20.0919  -16.3532 N   0  0  0  0  0  0  0  0  0  0  0  0
   28.0838  -19.5093  -16.5638 C   0  0  0  0  0  0  0  0  0  0  0  0
   27.9652  -18.4605  -17.2239 O   0  0  0  0  0  0  0  0  0  0  0  0
   26.9031  -20.1843  -15.9761 C   0  0  0  0  0  0  0  0  0  0  0  0
   27.3670  -21.4562  -15.2767 C   0  0  2  0  0  0  0  0  0  0  0  0
   27.9100  -22.3645  -16.2387 N   0  0  0  0  0  0  0  0  0  0  0  0
   26.2200  -21.9873  -14.5347 C   0  0  0  0  0  0  0  0  0  0  0  0
   25.5818  -22.9343  -15.0839 O   0  0  0  0  0  0  0  0  0  0  0  0
   25.7821  -21.5190  -13.2616 N   0  0  0  0  0  0  0  0  0  0  0  0
   26.4910  -20.4440  -12.5799 C   0  0  0  0  0  0  0  0  0  0  0  0
   25.9764  -20.4275  -11.1804 C   0  0  0  0  0  0  0  0  0  0  0  0
   25.2155  -21.7427  -11.0249 C   0  0  0  0  0  0  0  0  0  0  0  0
   24.6888  -21.9187  -12.4500 C   0  0  1  0  0  0  0  0  0  0  0  0
   23.4832  -21.0936  -12.6751 C   0  0  0  0  0  0  0  0  0  0  0  0
   23.5684  -19.8349  -12.8297 O   0  0  0  0  0  0  0  0  0  0  0  0
   22.2139  -21.6662  -12.7254 N   0  0  0  0  0  0  0  0  0  0  0  0
   21.0513  -20.8909  -13.1903 C   0  0  1  0  0  0  0  0  0  0  0  0
   20.2293  -21.7078  -14.1314 C   0  0  0  0  0  0  0  0  0  0  0  0
   20.9812  -22.1333  -15.3428 C   0  0  0  0  0  0  0  0  0  0  0  0
   20.1025  -22.9813  -16.2352 C   0  0  0  0  0  0  0  0  0  0  0  0
   18.9588  -23.2342  -15.8225 O   0  0  0  0  0  0  0  0  0  0  0  0
   20.2602  -20.4088  -12.0467 C   0  0  0  0  0  0  0  0  0  0  0  0
   20.4721  -20.9386  -10.9150 O   0  0  0  0  0  0  0  0  0  0  0  0
   20.5568  -23.4506  -17.4524 O   0  0  0  0  0  0  0  0  0  0  0  0
   19.3159  -19.4234  -12.1365 O   0  0  0  0  0  0  0  0  0  0  0  0
  1  2  1  0
  2  3  2  0
  4  2  1  0
  5  4  1  0
  5  6  1  6
  7  5  1  0
  8  7  2  0
  9  7  1  0
  9 13  1  0
 10  9  1  0
 11 12  1  0
 11 10  1  0
 12 13  1  0
 13 14  1  1
 14 15  2  0
 16 14  1  0
 16 17  1  0
 17 22  1  0
 17 18  1  6
 19 18  1  0
 20 21  2  0
 20 19  1  0
 22 23  2  0
 22 25  1  0
 24 20  1  0
M  END
$$$$
