NPE.pdb
     RDKit          3D

 25 25  0  0  1  0  0  0  0  0999 V2000
   34.2453  -24.8321  -14.8809 N   0  0  0  0  0  0  0  0  0  0  0  0
   33.5532  -25.9730  -15.3495 C   0  0  0  0  0  0  0  0  0  0  0  0
   32.3577  -26.1580  -15.0558 O   0  0  0  0  0  0  0  0  0  0  0  0
   34.2935  -26.9365  -16.1973 C   0  0  0  0  0  0  0  0  0  0  0  0
   35.7258  -26.4423  -16.3596 C   0  0  2  0  0  0  0  0  0  0  0  0
   35.7298  -25.2020  -17.0717 N   0  0  0  0  0  0  0  0  0  0  0  0
   36.4825  -27.5113  -17.0177 C   0  0  0  0  0  0  0  0  0  0  0  0
   36.6638  -27.3887  -18.2659 O   0  0  0  0  0  0  0  0  0  0  0  0
   37.0175  -28.6577  -16.3610 N   0  0  0  0  0  0  0  0  0  0  0  0
   36.5921  -29.0091  -15.0125 C   0  0  0  0  0  0  0  0  0  0  0  0
   37.5549  -30.0391  -14.5271 C   0  0  0  0  0  0  0  0  0  0  0  0
   38.7162  -29.9910  -15.5181 C   0  0  0  0  0  0  0  0  0  0  0  0
   37.9630  -29.6219  -16.7970 C   0  0  1  0  0  0  0  0  0  0  0  0
   37.3246  -30.8116  -17.3983 C   0  0  0  0  0  0  0  0  0  0  0  0
   38.0224  -31.7601  -17.8768 O   0  0  0  0  0  0  0  0  0  0  0  0
   35.9380  -30.9345  -17.4614 N   0  0  0  0  0  0  0  0  0  0  0  0
   35.3086  -32.1819  -17.9264 C   0  0  1  0  0  0  0  0  0  0  0  0
   36.1396  -32.8122  -18.9944 C   0  0  0  0  0  0  0  0  0  0  0  0
   35.5061  -34.0203  -19.5886 C   0  0  0  0  0  0  0  0  0  0  0  0
   36.4475  -34.6760  -20.5743 C   0  0  0  0  0  0  0  0  0  0  0  0
   36.2462  -35.8738  -20.8331 O   0  0  0  0  0  0  0  0  0  0  0  0
   35.0788  -33.0976  -16.7973 C   0  0  0  0  0  0  0  0  0  0  0  0
   35.5678  -32.7830  -15.6712 O   0  0  0  0  0  0  0  0  0  0  0  0
   37.4820  -33.9698  -21.1566 O   0  0  0  0  0  0  0  0  0  0  0  0
   34.3676  -34.2619  -16.8948 O   0  0  0  0  0  0  0  0  0  0  0  0
  1  2  1  0
  2  3  2  0
  4  2  1  0
  5  4  1  0
  5  6  1  6
  7  5  1  0
  8  7  2  0
  9  7  1  0
  9 13  1  0
 10  9  1  0
 11 12  1  0
 11 10  1  0
 12 13  1  0
 13 14  1  1
 14 15  2  0
 16 14  1  0
 16 17  1  0
 17 22  1  0
 17 18  1  6
 19 18  1  0
 20 21  2  0
 20 19  1  0
 22 23  2  0
 22 25  1  0
 24 20  1  0
M  END
$$$$
