NPE.pdb
     RDKit          3D

 25 25  0  0  1  0  0  0  0  0999 V2000
   29.2433  -19.9317  -16.8625 N   0  0  0  0  0  0  0  0  0  0  0  0
   28.0257  -19.2125  -16.8889 C   0  0  0  0  0  0  0  0  0  0  0  0
   27.9405  -18.1263  -17.4912 O   0  0  0  0  0  0  0  0  0  0  0  0
   26.8605  -19.7908  -16.1799 C   0  0  0  0  0  0  0  0  0  0  0  0
   27.2881  -21.0993  -15.5264 C   0  0  2  0  0  0  0  0  0  0  0  0
   27.7236  -22.0197  -16.5306 N   0  0  0  0  0  0  0  0  0  0  0  0
   26.1550  -21.5774  -14.7289 C   0  0  0  0  0  0  0  0  0  0  0  0
   25.3294  -22.3362  -15.3193 O   0  0  0  0  0  0  0  0  0  0  0  0
   25.9233  -21.2524  -13.3606 N   0  0  0  0  0  0  0  0  0  0  0  0
   26.8162  -20.3471  -12.6492 C   0  0  0  0  0  0  0  0  0  0  0  0
   26.4771  -20.4785  -11.2031 C   0  0  0  0  0  0  0  0  0  0  0  0
   25.6080  -21.7314  -11.1145 C   0  0  0  0  0  0  0  0  0  0  0  0
   24.8993  -21.6632  -12.4681 C   0  0  1  0  0  0  0  0  0  0  0  0
   23.7676  -20.7133  -12.4267 C   0  0  0  0  0  0  0  0  0  0  0  0
   23.9485  -19.4682  -12.6064 O   0  0  0  0  0  0  0  0  0  0  0  0
   22.4656  -21.1493  -12.1895 N   0  0  0  0  0  0  0  0  0  0  0  0
   21.3081  -20.3490  -12.6235 C   0  0  1  0  0  0  0  0  0  0  0  0
   21.3179  -20.1903  -14.1078 C   0  0  0  0  0  0  0  0  0  0  0  0
   21.0712  -21.4666  -14.8317 C   0  0  0  0  0  0  0  0  0  0  0  0
   20.2998  -21.2066  -16.1065 C   0  0  0  0  0  0  0  0  0  0  0  0
   20.0236  -20.0239  -16.3658 O   0  0  0  0  0  0  0  0  0  0  0  0
   20.0537  -20.9512  -12.1438 C   0  0  0  0  0  0  0  0  0  0  0  0
   19.0108  -20.2310  -12.1510 O   0  0  0  0  0  0  0  0  0  0  0  0
   19.9223  -22.2413  -16.9401 O   0  0  0  0  0  0  0  0  0  0  0  0
   19.9510  -22.2394  -11.6959 O   0  0  0  0  0  0  0  0  0  0  0  0
  1  2  1  0
  2  3  2  0
  4  2  1  0
  5  4  1  0
  5  6  1  6
  7  5  1  0
  8  7  2  0
  9  7  1  0
  9 13  1  0
 10  9  1  0
 11 12  1  0
 11 10  1  0
 12 13  1  0
 13 14  1  1
 14 15  2  0
 16 14  1  0
 16 17  1  0
 17 22  1  0
 17 18  1  6
 19 18  1  0
 20 21  2  0
 20 19  1  0
 22 23  2  0
 22 25  1  0
 24 20  1  0
M  END
$$$$
