NPE.pdb
     RDKit          3D

 25 25  0  0  1  0  0  0  0  0999 V2000
   25.5276  -12.7414  -15.8980 N   0  0  0  0  0  0  0  0  0  0  0  0
   26.0892  -11.4462  -15.8132 C   0  0  0  0  0  0  0  0  0  0  0  0
   27.3052  -11.2921  -15.5960 O   0  0  0  0  0  0  0  0  0  0  0  0
   25.1876  -10.2839  -15.9902 C   0  0  0  0  0  0  0  0  0  0  0  0
   23.7653  -10.7957  -16.1837 C   0  0  2  0  0  0  0  0  0  0  0  0
   23.6543  -11.4409  -17.4552 N   0  0  0  0  0  0  0  0  0  0  0  0
   22.8649   -9.6516  -16.0138 C   0  0  0  0  0  0  0  0  0  0  0  0
   22.5972   -8.9840  -17.0571 O   0  0  0  0  0  0  0  0  0  0  0  0
   22.2816   -9.2469  -14.7778 N   0  0  0  0  0  0  0  0  0  0  0  0
   22.6604   -9.8944  -13.5287 C   0  0  0  0  0  0  0  0  0  0  0  0
   21.6574   -9.4610  -12.5140 C   0  0  0  0  0  0  0  0  0  0  0  0
   20.5253   -8.8310  -13.3230 C   0  0  0  0  0  0  0  0  0  0  0  0
   21.3228   -8.2418  -14.4875 C   0  0  1  0  0  0  0  0  0  0  0  0
   21.9452   -6.9564  -14.1069 C   0  0  0  0  0  0  0  0  0  0  0  0
   22.8951   -6.9109  -13.2636 O   0  0  0  0  0  0  0  0  0  0  0  0
   21.5130   -5.7519  -14.6584 N   0  0  0  0  0  0  0  0  0  0  0  0
   22.2416   -4.4978  -14.4039 C   0  0  1  0  0  0  0  0  0  0  0  0
   23.0322   -4.1068  -15.6082 C   0  0  0  0  0  0  0  0  0  0  0  0
   22.1837   -3.8435  -16.8018 C   0  0  0  0  0  0  0  0  0  0  0  0
   23.0365   -3.3721  -17.9586 C   0  0  0  0  0  0  0  0  0  0  0  0
   23.4470   -2.2008  -17.9144 O   0  0  0  0  0  0  0  0  0  0  0  0
   21.3124   -3.4348  -13.9882 C   0  0  0  0  0  0  0  0  0  0  0  0
   20.0702   -3.6507  -14.1175 O   0  0  0  0  0  0  0  0  0  0  0  0
   23.3412   -4.2103  -19.0134 O   0  0  0  0  0  0  0  0  0  0  0  0
   21.7130   -2.2341  -13.4698 O   0  0  0  0  0  0  0  0  0  0  0  0
  1  2  1  0
  2  3  2  0
  4  2  1  0
  5  4  1  0
  5  6  1  6
  7  5  1  0
  8  7  2  0
  9  7  1  0
  9 13  1  0
 10  9  1  0
 11 12  1  0
 11 10  1  0
 12 13  1  0
 13 14  1  1
 14 15  2  0
 16 14  1  0
 16 17  1  0
 17 22  1  0
 17 18  1  6
 19 18  1  0
 20 21  2  0
 20 19  1  0
 22 23  2  0
 22 25  1  0
 24 20  1  0
M  END
$$$$
