NPE.pdb
     RDKit          3D

 25 25  0  0  1  0  0  0  0  0999 V2000
   23.8445  -14.5208  -19.8431 N   0  0  0  0  0  0  0  0  0  0  0  0
   23.6405  -13.1796  -20.2428 C   0  0  0  0  0  0  0  0  0  0  0  0
   23.5536  -12.8803  -21.4480 O   0  0  0  0  0  0  0  0  0  0  0  0
   23.5340  -12.1470  -19.1857 C   0  0  0  0  0  0  0  0  0  0  0  0
   23.7274  -12.8158  -17.8302 C   0  0  2  0  0  0  0  0  0  0  0  0
   22.7874  -13.8832  -17.6810 N   0  0  0  0  0  0  0  0  0  0  0  0
   23.6111  -11.7705  -16.8092 C   0  0  0  0  0  0  0  0  0  0  0  0
   22.4812  -11.6531  -16.2476 O   0  0  0  0  0  0  0  0  0  0  0  0
   24.6629  -10.8936  -16.4136 N   0  0  0  0  0  0  0  0  0  0  0  0
   25.9650  -10.9517  -17.0649 C   0  0  0  0  0  0  0  0  0  0  0  0
   26.8913  -10.1480  -16.2166 C   0  0  0  0  0  0  0  0  0  0  0  0
   26.1379   -9.9326  -14.9054 C   0  0  0  0  0  0  0  0  0  0  0  0
   24.7015   -9.8741  -15.4272 C   0  0  1  0  0  0  0  0  0  0  0  0
   24.3921   -8.5382  -15.9791 C   0  0  0  0  0  0  0  0  0  0  0  0
   24.7944   -8.1960  -17.1352 O   0  0  0  0  0  0  0  0  0  0  0  0
   23.6501   -7.6094  -15.2523 N   0  0  0  0  0  0  0  0  0  0  0  0
   23.0717   -6.4235  -15.9064 C   0  0  1  0  0  0  0  0  0  0  0  0
   21.6312   -6.2835  -15.5406 C   0  0  0  0  0  0  0  0  0  0  0  0
   20.9785   -5.1105  -16.1826 C   0  0  0  0  0  0  0  0  0  0  0  0
   19.5217   -5.0363  -15.7828 C   0  0  0  0  0  0  0  0  0  0  0  0
   19.0908   -5.9460  -15.0554 O   0  0  0  0  0  0  0  0  0  0  0  0
   23.8441   -5.2174  -15.5674 C   0  0  0  0  0  0  0  0  0  0  0  0
   24.4421   -5.1921  -14.4503 O   0  0  0  0  0  0  0  0  0  0  0  0
   18.7123   -4.0018  -16.2105 O   0  0  0  0  0  0  0  0  0  0  0  0
   23.9541   -4.1289  -16.3884 O   0  0  0  0  0  0  0  0  0  0  0  0
  1  2  1  0
  2  3  2  0
  4  2  1  0
  5  4  1  0
  5  6  1  1
  7  5  1  0
  8  7  2  0
  9  7  1  0
  9 13  1  0
 10  9  1  0
 11 12  1  0
 11 10  1  0
 12 13  1  0
 13 14  1  6
 14 15  2  0
 16 14  1  0
 16 17  1  0
 17 22  1  0
 17 18  1  1
 19 18  1  0
 20 21  2  0
 20 19  1  0
 22 23  2  0
 22 25  1  0
 24 20  1  0
M  END
$$$$
