CKD.pdb
     RDKit          3D

 24 23  0  0  1  0  0  0  0  0999 V2000
   27.1777  -10.4219  -17.6982 N   0  0  0  0  0  0  0  0  0  0  0  0
   26.0805  -10.8060  -16.8421 C   0  0  1  0  0  0  0  0  0  0  0  0
   26.5529  -10.9064  -15.4167 C   0  0  0  0  0  0  0  0  0  0  0  0
   27.7836  -12.1766  -15.1475 S   0  0  0  0  0  0  0  0  0  0  0  0
   24.9559   -9.8941  -17.0369 C   0  0  0  0  0  0  0  0  0  0  0  0
   25.1931   -8.6945  -17.3330 O   0  0  0  0  0  0  0  0  0  0  0  0
   23.5929  -10.2378  -16.9219 N   0  0  0  0  0  0  0  0  0  0  0  0
   22.4767   -9.3467  -17.1696 C   0  0  1  0  0  0  0  0  0  0  0  0
   21.2191  -10.1099  -17.5122 C   0  0  0  0  0  0  0  0  0  0  0  0
   20.0897   -9.1818  -17.9065 C   0  0  0  0  0  0  0  0  0  0  0  0
   18.8352   -9.9154  -18.2514 C   0  0  0  0  0  0  0  0  0  0  0  0
   17.7126   -9.0066  -18.6804 C   0  0  0  0  0  0  0  0  0  0  0  0
   16.5220   -9.8220  -18.8332 N   0  0  0  0  0  0  0  0  0  0  0  0
   22.2019   -8.4427  -16.0626 C   0  0  0  0  0  0  0  0  0  0  0  0
   22.2677   -8.7969  -14.8651 O   0  0  0  0  0  0  0  0  0  0  0  0
   21.8435   -7.1006  -16.3280 N   0  0  0  0  0  0  0  0  0  0  0  0
   21.4599   -6.2298  -15.2439 C   0  0  1  0  0  0  0  0  0  0  0  0
   22.5264   -5.2017  -15.0362 C   0  0  0  0  0  0  0  0  0  0  0  0
   22.1532   -4.2342  -14.0076 C   0  0  0  0  0  0  0  0  0  0  0  0
   21.7085   -3.0884  -14.2194 O   0  0  0  0  0  0  0  0  0  0  0  0
   20.1277   -5.6215  -15.4742 C   0  0  0  0  0  0  0  0  0  0  0  0
   19.3177   -5.2876  -14.4119 O   0  0  0  0  0  0  0  0  0  0  0  0
   22.3196   -4.6569  -12.6681 O   0  0  0  0  0  0  0  0  0  0  0  0
   19.7544   -5.4177  -16.6533 O   0  0  0  0  0  0  0  0  0  0  0  0
  2  1  1  6
  2  5  1  0
  3  2  1  0
  3  4  1  0
  5  6  2  0
  7  5  1  0
  7  8  1  0
  8  9  1  1
 10  9  1  0
 11 10  1  0
 12 11  1  0
 13 12  1  0
 14  8  1  0
 14 15  2  0
 16 14  1  0
 17 16  1  0
 17 18  1  6
 19 18  1  0
 19 20  2  0
 21 22  1  0
 21 17  1  0
 23 19  1  0
 24 21  2  0
M  END
$$$$
