CKD.pdb
     RDKit          3D

 24 23  0  0  1  0  0  0  0  0999 V2000
   28.3155  -21.5597  -10.3582 N   0  0  0  0  0  0  0  0  0  0  0  0
   27.0110  -21.0208  -10.0546 C   0  0  1  0  0  0  0  0  0  0  0  0
   27.1408  -19.5961   -9.5870 C   0  0  0  0  0  0  0  0  0  0  0  0
   26.7471  -19.3608   -7.8578 S   0  0  0  0  0  0  0  0  0  0  0  0
   26.1224  -21.1957  -11.2010 C   0  0  0  0  0  0  0  0  0  0  0  0
   26.6272  -21.4466  -12.3258 O   0  0  0  0  0  0  0  0  0  0  0  0
   24.7152  -21.1081  -11.1677 N   0  0  0  0  0  0  0  0  0  0  0  0
   23.8359  -21.2552  -12.3107 C   0  0  1  0  0  0  0  0  0  0  0  0
   22.3841  -21.2975  -11.8957 C   0  0  0  0  0  0  0  0  0  0  0  0
   21.4829  -21.6903  -13.0472 C   0  0  0  0  0  0  0  0  0  0  0  0
   20.0367  -21.6881  -12.6733 C   0  0  0  0  0  0  0  0  0  0  0  0
   19.1375  -22.1981  -13.7694 C   0  0  0  0  0  0  0  0  0  0  0  0
   17.7748  -22.1600  -13.2721 N   0  0  0  0  0  0  0  0  0  0  0  0
   24.0166  -20.2189  -13.3165 C   0  0  0  0  0  0  0  0  0  0  0  0
   24.2853  -19.0324  -13.0273 O   0  0  0  0  0  0  0  0  0  0  0  0
   23.8882  -20.5442  -14.6868 N   0  0  0  0  0  0  0  0  0  0  0  0
   24.2101  -19.5623  -15.6932 C   0  0  1  0  0  0  0  0  0  0  0  0
   25.6555  -19.6859  -16.0580 C   0  0  0  0  0  0  0  0  0  0  0  0
   26.0162  -18.7896  -17.1535 C   0  0  0  0  0  0  0  0  0  0  0  0
   26.1450  -17.5523  -17.0634 O   0  0  0  0  0  0  0  0  0  0  0  0
   23.3194  -19.6739  -16.8731 C   0  0  0  0  0  0  0  0  0  0  0  0
   22.4560  -20.7390  -17.0001 O   0  0  0  0  0  0  0  0  0  0  0  0
   26.2320  -19.4011  -18.4105 O   0  0  0  0  0  0  0  0  0  0  0  0
   23.3683  -18.7806  -17.7511 O   0  0  0  0  0  0  0  0  0  0  0  0
  2  1  1  6
  2  5  1  0
  3  2  1  0
  3  4  1  0
  5  6  2  0
  7  5  1  0
  7  8  1  0
  8  9  1  1
 10  9  1  0
 11 10  1  0
 12 11  1  0
 13 12  1  0
 14  8  1  0
 14 15  2  0
 16 14  1  0
 17 16  1  0
 17 18  1  6
 19 18  1  0
 19 20  2  0
 21 22  1  0
 21 17  1  0
 23 19  1  0
 24 21  2  0
M  END
$$$$
