CKD.pdb
     RDKit          3D

 24 23  0  0  1  0  0  0  0  0999 V2000
   21.3848  -10.4831  -16.3260 N   0  0  0  0  0  0  0  0  0  0  0  0
   21.0127   -9.7152  -15.1615 C   0  0  1  0  0  0  0  0  0  0  0  0
   22.2106   -8.9737  -14.6318 C   0  0  0  0  0  0  0  0  0  0  0  0
   23.4234  -10.0244  -13.8410 S   0  0  0  0  0  0  0  0  0  0  0  0
   19.8702   -8.8602  -15.4747 C   0  0  0  0  0  0  0  0  0  0  0  0
   19.8118   -8.3189  -16.6090 O   0  0  0  0  0  0  0  0  0  0  0  0
   18.7973   -8.5752  -14.6048 N   0  0  0  0  0  0  0  0  0  0  0  0
   17.6073   -7.8249  -14.9545 C   0  0  1  0  0  0  0  0  0  0  0  0
   16.3786   -8.3784  -14.2722 C   0  0  0  0  0  0  0  0  0  0  0  0
   15.9065   -9.6619  -14.9219 C   0  0  0  0  0  0  0  0  0  0  0  0
   14.5793  -10.1139  -14.4067 C   0  0  0  0  0  0  0  0  0  0  0  0
   14.0037  -11.2723  -15.1793 C   0  0  0  0  0  0  0  0  0  0  0  0
   12.6832  -11.5445  -14.6429 N   0  0  0  0  0  0  0  0  0  0  0  0
   17.7152   -6.4024  -14.6666 C   0  0  0  0  0  0  0  0  0  0  0  0
   18.2220   -5.9601  -13.6125 O   0  0  0  0  0  0  0  0  0  0  0  0
   17.2336   -5.4604  -15.6052 N   0  0  0  0  0  0  0  0  0  0  0  0
   17.4385   -4.0504  -15.3803 C   0  0  1  0  0  0  0  0  0  0  0  0
   17.3584   -3.3260  -16.6866 C   0  0  0  0  0  0  0  0  0  0  0  0
   17.4669   -1.8800  -16.5116 C   0  0  0  0  0  0  0  0  0  0  0  0
   18.2855   -1.3004  -15.7703 O   0  0  0  0  0  0  0  0  0  0  0  0
   16.4891   -3.5112  -14.3775 C   0  0  0  0  0  0  0  0  0  0  0  0
   15.1877   -3.9589  -14.3342 O   0  0  0  0  0  0  0  0  0  0  0  0
   16.5564   -1.0944  -17.2561 O   0  0  0  0  0  0  0  0  0  0  0  0
   16.8944   -2.6411  -13.5713 O   0  0  0  0  0  0  0  0  0  0  0  0
  2  1  1  6
  2  5  1  0
  3  2  1  0
  3  4  1  0
  5  6  2  0
  7  5  1  0
  7  8  1  0
  8  9  1  1
 10  9  1  0
 11 10  1  0
 12 11  1  0
 13 12  1  0
 14  8  1  0
 14 15  2  0
 16 14  1  0
 17 16  1  0
 17 18  1  6
 19 18  1  0
 19 20  2  0
 21 22  1  0
 21 17  1  0
 23 19  1  0
 24 21  2  0
M  END
$$$$
