CKD.pdb
     RDKit          3D

 24 23  0  0  1  0  0  0  0  0999 V2000
   27.2862  -20.7594   -9.8699 N   0  0  0  0  0  0  0  0  0  0  0  0
   25.8670  -21.0082   -9.9602 C   0  0  1  0  0  0  0  0  0  0  0  0
   25.1425  -20.2411   -8.8870 C   0  0  0  0  0  0  0  0  0  0  0  0
   23.3735  -20.5078   -8.8725 S   0  0  0  0  0  0  0  0  0  0  0  0
   25.3989  -20.7280  -11.3155 C   0  0  0  0  0  0  0  0  0  0  0  0
   25.7833  -19.6729  -11.8829 O   0  0  0  0  0  0  0  0  0  0  0  0
   24.5344  -21.5482  -12.0697 N   0  0  0  0  0  0  0  0  0  0  0  0
   24.0548  -21.2597  -13.4069 C   0  0  1  0  0  0  0  0  0  0  0  0
   24.1628  -22.4652  -14.3104 C   0  0  0  0  0  0  0  0  0  0  0  0
   25.2578  -22.2963  -15.3424 C   0  0  0  0  0  0  0  0  0  0  0  0
   25.3023  -23.4210  -16.3242 C   0  0  0  0  0  0  0  0  0  0  0  0
   26.4869  -23.3543  -17.2529 C   0  0  0  0  0  0  0  0  0  0  0  0
   26.4970  -24.5737  -18.0394 N   0  0  0  0  0  0  0  0  0  0  0  0
   22.6880  -20.7605  -13.4356 C   0  0  0  0  0  0  0  0  0  0  0  0
   21.7979  -21.1749  -12.6612 O   0  0  0  0  0  0  0  0  0  0  0  0
   22.3273  -19.7628  -14.3710 N   0  0  0  0  0  0  0  0  0  0  0  0
   21.0073  -19.1825  -14.3318 C   0  0  1  0  0  0  0  0  0  0  0  0
   20.9788  -17.9635  -15.1983 C   0  0  0  0  0  0  0  0  0  0  0  0
   19.6569  -17.3425  -15.2163 C   0  0  0  0  0  0  0  0  0  0  0  0
   18.9522  -17.1119  -14.2134 O   0  0  0  0  0  0  0  0  0  0  0  0
   19.9642  -20.1663  -14.7084 C   0  0  0  0  0  0  0  0  0  0  0  0
   18.7734  -20.2222  -14.0194 O   0  0  0  0  0  0  0  0  0  0  0  0
   19.1574  -16.9824  -16.4896 O   0  0  0  0  0  0  0  0  0  0  0  0
   20.1880  -20.9449  -15.6651 O   0  0  0  0  0  0  0  0  0  0  0  0
  2  1  1  6
  2  5  1  0
  3  2  1  0
  3  4  1  0
  5  6  2  0
  7  5  1  0
  7  8  1  0
  8  9  1  6
 10  9  1  0
 11 10  1  0
 12 11  1  0
 13 12  1  0
 14  8  1  0
 14 15  2  0
 16 14  1  0
 17 16  1  0
 17 18  1  6
 19 18  1  0
 19 20  2  0
 21 22  1  0
 21 17  1  0
 23 19  1  0
 24 21  2  0
M  END
$$$$
