CKD.pdb
     RDKit          3D

 24 23  0  0  1  0  0  0  0  0999 V2000
   18.4912   -9.8372  -11.5659 N   0  0  0  0  0  0  0  0  0  0  0  0
   17.8320   -9.0550  -12.5846 C   0  0  1  0  0  0  0  0  0  0  0  0
   17.2539   -9.9642  -13.6355 C   0  0  0  0  0  0  0  0  0  0  0  0
   17.9018  -11.6311  -13.5895 S   0  0  0  0  0  0  0  0  0  0  0  0
   16.8578   -8.1572  -11.9686 C   0  0  0  0  0  0  0  0  0  0  0  0
   16.1873   -7.3916  -12.7083 O   0  0  0  0  0  0  0  0  0  0  0  0
   16.5891   -8.0634  -10.5873 N   0  0  0  0  0  0  0  0  0  0  0  0
   15.6224   -7.1722   -9.9769 C   0  0  1  0  0  0  0  0  0  0  0  0
   14.8880   -7.8410   -8.8390 C   0  0  0  0  0  0  0  0  0  0  0  0
   13.4181   -8.0255   -9.1516 C   0  0  0  0  0  0  0  0  0  0  0  0
   12.6835   -8.7401   -8.0650 C   0  0  0  0  0  0  0  0  0  0  0  0
   11.2244   -8.9542   -8.3736 C   0  0  0  0  0  0  0  0  0  0  0  0
   10.6476   -9.7004   -7.2708 N   0  0  0  0  0  0  0  0  0  0  0  0
   16.2039   -5.9246   -9.5042 C   0  0  0  0  0  0  0  0  0  0  0  0
   17.1975   -5.8836   -8.7460 O   0  0  0  0  0  0  0  0  0  0  0  0
   15.6384   -4.6924   -9.9070 N   0  0  0  0  0  0  0  0  0  0  0  0
   16.1929   -3.4526   -9.4213 C   0  0  1  0  0  0  0  0  0  0  0  0
   16.8788   -2.7450  -10.5466 C   0  0  0  0  0  0  0  0  0  0  0  0
   17.3319   -1.4133  -10.1531 C   0  0  0  0  0  0  0  0  0  0  0  0
   17.2834   -0.9445   -8.9984 O   0  0  0  0  0  0  0  0  0  0  0  0
   15.1628   -2.6090   -8.7694 C   0  0  0  0  0  0  0  0  0  0  0  0
   15.5291   -1.5552   -7.9625 O   0  0  0  0  0  0  0  0  0  0  0  0
   17.8659   -0.6086  -11.1865 O   0  0  0  0  0  0  0  0  0  0  0  0
   13.9537   -2.8742   -8.9674 O   0  0  0  0  0  0  0  0  0  0  0  0
  2  1  1  1
  2  5  1  0
  3  2  1  0
  3  4  1  0
  5  6  2  0
  7  5  1  0
  7  8  1  0
  8  9  1  1
 10  9  1  0
 11 10  1  0
 12 11  1  0
 13 12  1  0
 14  8  1  0
 14 15  2  0
 16 14  1  0
 17 16  1  0
 17 18  1  6
 19 18  1  0
 19 20  2  0
 21 22  1  0
 21 17  1  0
 23 19  1  0
 24 21  2  0
M  END
$$$$
