CKD.pdb
     RDKit          3D

 24 23  0  0  1  0  0  0  0  0999 V2000
   17.8583  -13.6156  -15.3367 N   0  0  0  0  0  0  0  0  0  0  0  0
   17.6461  -12.3142  -15.9246 C   0  0  1  0  0  0  0  0  0  0  0  0
   16.5504  -11.5912  -15.1884 C   0  0  0  0  0  0  0  0  0  0  0  0
   14.9414  -12.3571  -15.3467 S   0  0  0  0  0  0  0  0  0  0  0  0
   18.9101  -11.5839  -15.9836 C   0  0  0  0  0  0  0  0  0  0  0  0
   19.6548  -11.5792  -14.9695 O   0  0  0  0  0  0  0  0  0  0  0  0
   19.3892  -10.8642  -17.0979 N   0  0  0  0  0  0  0  0  0  0  0  0
   20.6304  -10.1170  -17.1463 C   0  0  1  0  0  0  0  0  0  0  0  0
   21.1839  -10.0455  -18.5499 C   0  0  0  0  0  0  0  0  0  0  0  0
   22.5336   -9.3602  -18.5863 C   0  0  0  0  0  0  0  0  0  0  0  0
   23.0657   -9.2096  -19.9738 C   0  0  0  0  0  0  0  0  0  0  0  0
   24.4288   -8.5696  -20.0225 C   0  0  0  0  0  0  0  0  0  0  0  0
   24.8022   -8.4383  -21.4187 N   0  0  0  0  0  0  0  0  0  0  0  0
   20.5158   -8.7699  -16.6074 C   0  0  0  0  0  0  0  0  0  0  0  0
   19.5359   -8.0281  -16.8381 O   0  0  0  0  0  0  0  0  0  0  0  0
   21.5445   -8.2561  -15.7841 N   0  0  0  0  0  0  0  0  0  0  0  0
   21.4546   -6.9094  -15.2753 C   0  0  1  0  0  0  0  0  0  0  0  0
   22.1172   -6.8431  -13.9358 C   0  0  0  0  0  0  0  0  0  0  0  0
   22.0947   -5.4898  -13.3867 C   0  0  0  0  0  0  0  0  0  0  0  0
   21.0741   -4.7910  -13.2265 O   0  0  0  0  0  0  0  0  0  0  0  0
   22.0145   -5.9236  -16.2305 C   0  0  0  0  0  0  0  0  0  0  0  0
   23.1477   -6.2172  -16.9556 O   0  0  0  0  0  0  0  0  0  0  0  0
   23.3477   -4.9504  -13.0134 O   0  0  0  0  0  0  0  0  0  0  0  0
   21.4364   -4.8194  -16.3644 O   0  0  0  0  0  0  0  0  0  0  0  0
  2  1  1  1
  2  5  1  0
  3  2  1  0
  3  4  1  0
  5  6  2  0
  7  5  1  0
  7  8  1  0
  8  9  1  6
 10  9  1  0
 11 10  1  0
 12 11  1  0
 13 12  1  0
 14  8  1  0
 14 15  2  0
 16 14  1  0
 17 16  1  0
 17 18  1  1
 19 18  1  0
 19 20  2  0
 21 22  1  0
 21 17  1  0
 23 19  1  0
 24 21  2  0
M  END
$$$$
