CKD.pdb
     RDKit          3D

 24 23  0  0  1  0  0  0  0  0999 V2000
   36.4292   -8.7042  -16.2604 N   0  0  0  0  0  0  0  0  0  0  0  0
   35.1047   -8.8764  -15.7124 C   0  0  1  0  0  0  0  0  0  0  0  0
   34.8055   -7.7703  -14.7366 C   0  0  0  0  0  0  0  0  0  0  0  0
   35.7871   -7.8352  -13.2424 S   0  0  0  0  0  0  0  0  0  0  0  0
   34.1314   -8.9986  -16.7951 C   0  0  0  0  0  0  0  0  0  0  0  0
   34.2812   -8.2938  -17.8265 O   0  0  0  0  0  0  0  0  0  0  0  0
   33.0097   -9.8535  -16.7959 N   0  0  0  0  0  0  0  0  0  0  0  0
   31.9826   -9.8928  -17.8181 C   0  0  1  0  0  0  0  0  0  0  0  0
   31.2599  -11.2191  -17.8317 C   0  0  0  0  0  0  0  0  0  0  0  0
   31.9050  -12.1995  -18.7884 C   0  0  0  0  0  0  0  0  0  0  0  0
   31.1971  -13.5141  -18.8300 C   0  0  0  0  0  0  0  0  0  0  0  0
   31.9476  -14.5705  -19.5986 C   0  0  0  0  0  0  0  0  0  0  0  0
   31.2542  -15.8303  -19.4040 N   0  0  0  0  0  0  0  0  0  0  0  0
   31.0087   -8.8178  -17.7008 C   0  0  0  0  0  0  0  0  0  0  0  0
   30.4907   -8.4875  -16.6116 O   0  0  0  0  0  0  0  0  0  0  0  0
   30.6160   -8.1007  -18.8548 N   0  0  0  0  0  0  0  0  0  0  0  0
   29.6453   -7.0392  -18.7475 C   0  0  1  0  0  0  0  0  0  0  0  0
   30.3510   -5.7207  -18.7805 C   0  0  0  0  0  0  0  0  0  0  0  0
   29.4114   -4.6055  -18.8642 C   0  0  0  0  0  0  0  0  0  0  0  0
   28.3436   -4.5096  -18.2269 O   0  0  0  0  0  0  0  0  0  0  0  0
   28.5991   -7.1449  -19.7925 C   0  0  0  0  0  0  0  0  0  0  0  0
   28.7509   -8.0142  -20.8495 O   0  0  0  0  0  0  0  0  0  0  0  0
   29.7656   -3.5604  -19.7490 O   0  0  0  0  0  0  0  0  0  0  0  0
   27.5753   -6.4282  -19.6944 O   0  0  0  0  0  0  0  0  0  0  0  0
  2  1  1  6
  2  5  1  0
  3  2  1  0
  3  4  1  0
  5  6  2  0
  7  5  1  0
  7  8  1  0
  8  9  1  1
 10  9  1  0
 11 10  1  0
 12 11  1  0
 13 12  1  0
 14  8  1  0
 14 15  2  0
 16 14  1  0
 17 16  1  0
 17 18  1  6
 19 18  1  0
 19 20  2  0
 21 22  1  0
 21 17  1  0
 23 19  1  0
 24 21  2  0
M  END
$$$$
