CKD.pdb
     RDKit          3D

 24 23  0  0  1  0  0  0  0  0999 V2000
   34.0572  -35.4439   -5.0620 N   0  0  0  0  0  0  0  0  0  0  0  0
   32.8948  -36.0761   -5.6394 C   0  0  1  0  0  0  0  0  0  0  0  0
   32.8312  -37.5185   -5.2145 C   0  0  0  0  0  0  0  0  0  0  0  0
   32.5598  -37.7475   -3.4611 S   0  0  0  0  0  0  0  0  0  0  0  0
   31.6975  -35.3038   -5.3162 C   0  0  0  0  0  0  0  0  0  0  0  0
   31.7409  -34.4929   -4.3552 O   0  0  0  0  0  0  0  0  0  0  0  0
   30.4642  -35.3815   -5.9959 N   0  0  0  0  0  0  0  0  0  0  0  0
   29.2871  -34.5905   -5.6961 C   0  0  1  0  0  0  0  0  0  0  0  0
   28.5641  -34.1679   -6.9532 C   0  0  0  0  0  0  0  0  0  0  0  0
   27.4043  -33.2433   -6.6492 C   0  0  0  0  0  0  0  0  0  0  0  0
   26.5866  -32.9282   -7.8588 C   0  0  0  0  0  0  0  0  0  0  0  0
   25.3265  -32.1648   -7.5435 C   0  0  0  0  0  0  0  0  0  0  0  0
   24.5200  -32.1323   -8.7494 N   0  0  0  0  0  0  0  0  0  0  0  0
   28.3502  -35.2618   -4.8074 C   0  0  0  0  0  0  0  0  0  0  0  0
   27.8102  -36.3537   -5.0904 O   0  0  0  0  0  0  0  0  0  0  0  0
   28.0213  -34.6733   -3.5642 N   0  0  0  0  0  0  0  0  0  0  0  0
   27.1678  -35.3764   -2.6380 C   0  0  1  0  0  0  0  0  0  0  0  0
   27.5822  -35.0477   -1.2387 C   0  0  0  0  0  0  0  0  0  0  0  0
   28.7390  -35.8338   -0.8176 C   0  0  0  0  0  0  0  0  0  0  0  0
   29.5082  -35.5436    0.1203 O   0  0  0  0  0  0  0  0  0  0  0  0
   25.7349  -35.0868   -2.8843 C   0  0  0  0  0  0  0  0  0  0  0  0
   25.3619  -34.0323   -3.6874 O   0  0  0  0  0  0  0  0  0  0  0  0
   28.9851  -37.0180   -1.5508 O   0  0  0  0  0  0  0  0  0  0  0  0
   24.8714  -35.8200   -2.3475 O   0  0  0  0  0  0  0  0  0  0  0  0
  2  1  1  1
  2  5  1  0
  3  2  1  0
  3  4  1  0
  5  6  2  0
  7  5  1  0
  7  8  1  0
  8  9  1  6
 10  9  1  0
 11 10  1  0
 12 11  1  0
 13 12  1  0
 14  8  1  0
 14 15  2  0
 16 14  1  0
 17 16  1  0
 17 18  1  1
 19 18  1  0
 19 20  2  0
 21 22  1  0
 21 17  1  0
 23 19  1  0
 24 21  2  0
M  END
$$$$
