CKD.pdb
     RDKit          3D

 24 23  0  0  1  0  0  0  0  0999 V2000
   16.1558  -12.8093  -13.8616 N   0  0  0  0  0  0  0  0  0  0  0  0
   15.3224  -11.6380  -13.7290 C   0  0  1  0  0  0  0  0  0  0  0  0
   13.9333  -12.0411  -13.3131 C   0  0  0  0  0  0  0  0  0  0  0  0
   12.9510  -12.7337  -14.6382 S   0  0  0  0  0  0  0  0  0  0  0  0
   15.9589  -10.6744  -12.8341 C   0  0  0  0  0  0  0  0  0  0  0  0
   16.3912  -11.0743  -11.7223 O   0  0  0  0  0  0  0  0  0  0  0  0
   16.1406   -9.3020  -13.1035 N   0  0  0  0  0  0  0  0  0  0  0  0
   16.8374   -8.3618  -12.2480 C   0  0  1  0  0  0  0  0  0  0  0  0
   17.8053   -7.5067  -13.0312 C   0  0  0  0  0  0  0  0  0  0  0  0
   17.0896   -6.6158  -14.0245 C   0  0  0  0  0  0  0  0  0  0  0  0
   18.0234   -5.7233  -14.7747 C   0  0  0  0  0  0  0  0  0  0  0  0
   17.3288   -4.8536  -15.7902 C   0  0  0  0  0  0  0  0  0  0  0  0
   18.3326   -3.9973  -16.3942 N   0  0  0  0  0  0  0  0  0  0  0  0
   15.9443   -7.5005  -11.4874 C   0  0  0  0  0  0  0  0  0  0  0  0
   14.8993   -7.0117  -11.9699 O   0  0  0  0  0  0  0  0  0  0  0  0
   16.2505   -7.1891  -10.1422 N   0  0  0  0  0  0  0  0  0  0  0  0
   15.4081   -6.2805   -9.4037 C   0  0  1  0  0  0  0  0  0  0  0  0
   14.7168   -7.0289   -8.3084 C   0  0  0  0  0  0  0  0  0  0  0  0
   13.8222   -6.1647   -7.5427 C   0  0  0  0  0  0  0  0  0  0  0  0
   13.6566   -4.9435   -7.7346 O   0  0  0  0  0  0  0  0  0  0  0  0
   16.1709   -5.1152   -8.8959 C   0  0  0  0  0  0  0  0  0  0  0  0
   15.5825   -3.8726   -8.8200 O   0  0  0  0  0  0  0  0  0  0  0  0
   13.0949   -6.7895   -6.5029 O   0  0  0  0  0  0  0  0  0  0  0  0
   17.3603   -5.2838   -8.5377 O   0  0  0  0  0  0  0  0  0  0  0  0
  2  1  1  1
  2  5  1  0
  3  2  1  0
  3  4  1  0
  5  6  2  0
  7  5  1  0
  7  8  1  0
  8  9  1  6
 10  9  1  0
 11 10  1  0
 12 11  1  0
 13 12  1  0
 14  8  1  0
 14 15  2  0
 16 14  1  0
 17 16  1  0
 17 18  1  1
 19 18  1  0
 19 20  2  0
 21 22  1  0
 21 17  1  0
 23 19  1  0
 24 21  2  0
M  END
$$$$
