CKD.pdb
     RDKit          3D

 24 23  0  0  1  0  0  0  0  0999 V2000
   26.3393  -10.1473  -18.4355 N   0  0  0  0  0  0  0  0  0  0  0  0
   25.9879  -10.0216  -17.0409 C   0  0  1  0  0  0  0  0  0  0  0  0
   27.0652   -9.2700  -16.3063 C   0  0  0  0  0  0  0  0  0  0  0  0
   28.5938  -10.1821  -16.1272 S   0  0  0  0  0  0  0  0  0  0  0  0
   24.6563   -9.4337  -16.9153 C   0  0  0  0  0  0  0  0  0  0  0  0
   24.3126   -8.5342  -17.7251 O   0  0  0  0  0  0  0  0  0  0  0  0
   23.6928   -9.7868  -15.9479 N   0  0  0  0  0  0  0  0  0  0  0  0
   22.3628   -9.2205  -15.8394 C   0  0  1  0  0  0  0  0  0  0  0  0
   21.4050  -10.1720  -15.1622 C   0  0  0  0  0  0  0  0  0  0  0  0
   19.9907   -9.6314  -15.1521 C   0  0  0  0  0  0  0  0  0  0  0  0
   19.0495  -10.4659  -15.9576 C   0  0  0  0  0  0  0  0  0  0  0  0
   17.6443   -9.9229  -15.9824 C   0  0  0  0  0  0  0  0  0  0  0  0
   16.8110  -10.8933  -16.6677 N   0  0  0  0  0  0  0  0  0  0  0  0
   22.3343   -7.9398  -15.1486 C   0  0  0  0  0  0  0  0  0  0  0  0
   22.9004   -7.7488  -14.0501 O   0  0  0  0  0  0  0  0  0  0  0  0
   21.6432   -6.8491  -15.7256 N   0  0  0  0  0  0  0  0  0  0  0  0
   21.6160   -5.5751  -15.0498 C   0  0  1  0  0  0  0  0  0  0  0  0
   22.0653   -4.5061  -15.9948 C   0  0  0  0  0  0  0  0  0  0  0  0
   21.9948   -3.1802  -15.3859 C   0  0  0  0  0  0  0  0  0  0  0  0
   21.0086   -2.7130  -14.7819 O   0  0  0  0  0  0  0  0  0  0  0  0
   20.2818   -5.2902  -14.4696 C   0  0  0  0  0  0  0  0  0  0  0  0
   20.1659   -4.5728  -13.3000 O   0  0  0  0  0  0  0  0  0  0  0  0
   23.1547   -2.3797  -15.5054 O   0  0  0  0  0  0  0  0  0  0  0  0
   19.2633   -5.7150  -15.0643 O   0  0  0  0  0  0  0  0  0  0  0  0
  2  1  1  6
  2  5  1  0
  3  2  1  0
  3  4  1  0
  5  6  2  0
  7  5  1  0
  7  8  1  0
  8  9  1  1
 10  9  1  0
 11 10  1  0
 12 11  1  0
 13 12  1  0
 14  8  1  0
 14 15  2  0
 16 14  1  0
 17 16  1  0
 17 18  1  6
 19 18  1  0
 19 20  2  0
 21 22  1  0
 21 17  1  0
 23 19  1  0
 24 21  2  0
M  END
$$$$
