CKD.pdb
     RDKit          3D

 24 23  0  0  1  0  0  0  0  0999 V2000
   25.6209  -21.7719  -12.5979 N   0  0  0  0  0  0  0  0  0  0  0  0
   25.4541  -21.4618  -13.9981 C   0  0  1  0  0  0  0  0  0  0  0  0
   25.4515  -22.7305  -14.8076 C   0  0  0  0  0  0  0  0  0  0  0  0
   27.0030  -23.6204  -14.7676 S   0  0  0  0  0  0  0  0  0  0  0  0
   24.2672  -20.6306  -14.1846 C   0  0  0  0  0  0  0  0  0  0  0  0
   23.4107  -20.5826  -13.2642 O   0  0  0  0  0  0  0  0  0  0  0  0
   23.9809  -19.8559  -15.3278 N   0  0  0  0  0  0  0  0  0  0  0  0
   22.8334  -18.9848  -15.4880 C   0  0  1  0  0  0  0  0  0  0  0  0
   23.0839  -17.9178  -16.5273 C   0  0  0  0  0  0  0  0  0  0  0  0
   22.2289  -16.6911  -16.2892 C   0  0  0  0  0  0  0  0  0  0  0  0
   22.4898  -15.6058  -17.2816 C   0  0  0  0  0  0  0  0  0  0  0  0
   21.6814  -14.3599  -17.0279 C   0  0  0  0  0  0  0  0  0  0  0  0
   21.9628  -13.4277  -18.1037 N   0  0  0  0  0  0  0  0  0  0  0  0
   21.6082  -19.6974  -15.8187 C   0  0  0  0  0  0  0  0  0  0  0  0
   21.5793  -20.6669  -16.6080 O   0  0  0  0  0  0  0  0  0  0  0  0
   20.3851  -19.2945  -15.2339 N   0  0  0  0  0  0  0  0  0  0  0  0
   19.1715  -20.0132  -15.5356 C   0  0  1  0  0  0  0  0  0  0  0  0
   18.5388  -20.4699  -14.2594 C   0  0  0  0  0  0  0  0  0  0  0  0
   17.2686  -21.1505  -14.4977 C   0  0  0  0  0  0  0  0  0  0  0  0
   16.7365  -21.3194  -15.6130 O   0  0  0  0  0  0  0  0  0  0  0  0
   18.2467  -19.2043  -16.3652 C   0  0  0  0  0  0  0  0  0  0  0  0
   18.0927  -17.8563  -16.1300 O   0  0  0  0  0  0  0  0  0  0  0  0
   16.6073  -21.6502  -13.3516 O   0  0  0  0  0  0  0  0  0  0  0  0
   17.6091  -19.7713  -17.2835 O   0  0  0  0  0  0  0  0  0  0  0  0
  2  1  1  1
  2  5  1  0
  3  2  1  0
  3  4  1  0
  5  6  2  0
  7  5  1  0
  7  8  1  0
  8  9  1  6
 10  9  1  0
 11 10  1  0
 12 11  1  0
 13 12  1  0
 14  8  1  0
 14 15  2  0
 16 14  1  0
 17 16  1  0
 17 18  1  1
 19 18  1  0
 19 20  2  0
 21 22  1  0
 21 17  1  0
 23 19  1  0
 24 21  2  0
M  END
$$$$
