CKD.pdb
     RDKit          3D

 24 23  0  0  1  0  0  0  0  0999 V2000
   27.4100  -20.7336  -10.4715 N   0  0  0  0  0  0  0  0  0  0  0  0
   25.9775  -20.9119  -10.4530 C   0  0  1  0  0  0  0  0  0  0  0  0
   25.3759  -20.1155   -9.3266 C   0  0  0  0  0  0  0  0  0  0  0  0
   25.9333  -20.6190   -7.7029 S   0  0  0  0  0  0  0  0  0  0  0  0
   25.4215  -20.6024  -11.7682 C   0  0  0  0  0  0  0  0  0  0  0  0
   25.7437  -19.5198  -12.3223 O   0  0  0  0  0  0  0  0  0  0  0  0
   24.5345  -21.4221  -12.4964 N   0  0  0  0  0  0  0  0  0  0  0  0
   24.0305  -21.1426  -13.8264 C   0  0  1  0  0  0  0  0  0  0  0  0
   24.4478  -22.2051  -14.8157 C   0  0  0  0  0  0  0  0  0  0  0  0
   25.9042  -22.0670  -15.2059 C   0  0  0  0  0  0  0  0  0  0  0  0
   26.3129  -23.0427  -16.2605 C   0  0  0  0  0  0  0  0  0  0  0  0
   27.7348  -22.8586  -16.7233 C   0  0  0  0  0  0  0  0  0  0  0  0
   28.0406  -23.9394  -17.6420 N   0  0  0  0  0  0  0  0  0  0  0  0
   22.5846  -20.9840  -13.8753 C   0  0  0  0  0  0  0  0  0  0  0  0
   21.8110  -21.5679  -13.0852 O   0  0  0  0  0  0  0  0  0  0  0  0
   22.0064  -20.1375  -14.8497 N   0  0  0  0  0  0  0  0  0  0  0  0
   20.5734  -19.9858  -14.9128 C   0  0  1  0  0  0  0  0  0  0  0  0
   20.2421  -18.7486  -15.6855 C   0  0  0  0  0  0  0  0  0  0  0  0
   20.3084  -17.5533  -14.8487 C   0  0  0  0  0  0  0  0  0  0  0  0
   20.0812  -17.5148  -13.6229 O   0  0  0  0  0  0  0  0  0  0  0  0
   19.9182  -21.1923  -15.4722 C   0  0  0  0  0  0  0  0  0  0  0  0
   18.6205  -21.5046  -15.1339 O   0  0  0  0  0  0  0  0  0  0  0  0
   20.6617  -16.3527  -15.5078 O   0  0  0  0  0  0  0  0  0  0  0  0
   20.5685  -21.9209  -16.2582 O   0  0  0  0  0  0  0  0  0  0  0  0
  2  1  1  6
  2  5  1  0
  3  2  1  0
  3  4  1  0
  5  6  2  0
  7  5  1  0
  7  8  1  0
  8  9  1  6
 10  9  1  0
 11 10  1  0
 12 11  1  0
 13 12  1  0
 14  8  1  0
 14 15  2  0
 16 14  1  0
 17 16  1  0
 17 18  1  6
 19 18  1  0
 19 20  2  0
 21 22  1  0
 21 17  1  0
 23 19  1  0
 24 21  2  0
M  END
$$$$
