KYQ.pdb
     RDKit          3D

 31 31  0  0  1  0  0  0  0  0999 V2000
   27.5294  -22.8674  -17.4872 N   0  0  0  0  0  0  0  0  0  0  0  0
   27.3529  -21.5580  -16.8938 C   0  0  1  0  0  0  0  0  0  0  0  0
   26.5806  -20.7271  -17.9112 C   0  0  0  0  0  0  0  0  0  0  0  0
   27.2885  -20.9120  -19.2247 C   0  0  0  0  0  0  0  0  0  0  0  0
   28.4624  -20.0350  -19.4645 C   0  0  0  0  0  0  0  0  0  0  0  0
   29.0505  -20.1286  -20.8399 C   0  0  0  0  0  0  0  0  0  0  0  0
   30.1444  -19.2383  -21.0269 N   0  0  0  0  0  0  0  0  0  0  0  0
   26.5959  -21.7163  -15.6345 C   0  0  0  0  0  0  0  0  0  0  0  0
   25.4904  -22.3053  -15.6582 O   0  0  0  0  0  0  0  0  0  0  0  0
   24.5403  -20.2818   -7.0300 O   0  0  0  0  0  0  0  0  0  0  0  0
   25.1613  -20.4112   -8.2465 C   0  0  0  0  0  0  0  0  0  0  0  0
   25.1356  -21.6355   -8.9122 C   0  0  0  0  0  0  0  0  0  0  0  0
   25.7587  -21.7665  -10.1333 C   0  0  0  0  0  0  0  0  0  0  0  0
   26.4202  -20.7245  -10.7422 C   0  0  0  0  0  0  0  0  0  0  0  0
   27.1056  -20.7717  -12.0320 C   0  0  0  0  0  0  0  0  0  0  0  0
   26.2526  -21.1883  -13.1854 C   0  0  2  0  0  0  0  0  0  0  0  0
   27.0531  -21.2353  -14.3893 N   0  0  0  0  0  0  0  0  0  0  0  0
   24.9955  -20.4556  -13.3141 C   0  0  0  0  0  0  0  0  0  0  0  0
   24.8856  -19.2872  -13.7701 O   0  0  0  0  0  0  0  0  0  0  0  0
   26.4475  -19.4882  -10.0725 C   0  0  0  0  0  0  0  0  0  0  0  0
   25.8258  -19.3500   -8.8497 C   0  0  0  0  0  0  0  0  0  0  0  0
   20.8871  -21.2414  -16.7978 N   0  0  0  0  0  0  0  0  0  0  0  0
   20.0657  -20.4659  -15.9637 C   0  0  0  0  0  0  0  0  0  0  0  0
   18.9378  -20.0718  -16.3624 O   0  0  0  0  0  0  0  0  0  0  0  0
   20.5778  -20.1254  -14.5868 C   0  0  0  0  0  0  0  0  0  0  0  0
   21.9223  -20.7205  -14.3493 C   0  0  0  0  0  0  0  0  0  0  0  0
   22.5211  -20.3801  -12.9885 C   0  0  2  0  0  0  0  0  0  0  0  0
   23.7932  -21.0961  -12.8996 N   0  0  0  0  0  0  0  0  0  0  0  0
   21.6328  -20.9311  -11.9447 C   0  0  0  0  0  0  0  0  0  0  0  0
   21.8163  -22.0736  -11.4513 O   0  0  0  0  0  0  0  0  0  0  0  0
   20.5538  -20.1985  -11.4669 O   0  0  0  0  0  0  0  0  0  0  0  0
  2  1  1  6
  2  3  1  0
  3  4  1  0
  5  4  1  0
  5  6  1  0
  7  6  1  0
  8  2  1  0
  8  9  2  0
 10 11  1  0
 11 12  2  0
 12 13  1  0
 14 15  1  0
 14 13  2  0
 16 17  1  0
 16 15  1  1
 17  8  1  0
 18 16  1  0
 19 18  2  0
 20 14  1  0
 21 20  2  0
 21 11  1  0
 22 23  1  0
 23 25  1  0
 23 24  2  0
 25 26  1  0
 27 26  1  6
 27 28  1  0
 28 18  1  0
 29 27  1  0
 29 31  1  0
 30 29  2  0
M  END
$$$$
