KYQ.pdb
     RDKit          3D

 31 31  0  0  1  0  0  0  0  0999 V2000
   26.0030  -32.8407  -16.9497 N   0  0  0  0  0  0  0  0  0  0  0  0
   26.7360  -33.1261  -15.7335 C   0  0  1  0  0  0  0  0  0  0  0  0
   27.4689  -31.8424  -15.3635 C   0  0  0  0  0  0  0  0  0  0  0  0
   28.7925  -31.8978  -16.0746 C   0  0  0  0  0  0  0  0  0  0  0  0
   29.7904  -32.8509  -15.5263 C   0  0  0  0  0  0  0  0  0  0  0  0
   31.0904  -32.9020  -16.2703 C   0  0  0  0  0  0  0  0  0  0  0  0
   32.0398  -33.7617  -15.6507 N   0  0  0  0  0  0  0  0  0  0  0  0
   25.7679  -33.5196  -14.6885 C   0  0  0  0  0  0  0  0  0  0  0  0
   24.6029  -33.0612  -14.7337 O   0  0  0  0  0  0  0  0  0  0  0  0
   21.6353  -37.3077  -17.2562 O   0  0  0  0  0  0  0  0  0  0  0  0
   22.3863  -37.0289  -16.1424 C   0  0  0  0  0  0  0  0  0  0  0  0
   21.7570  -36.6496  -14.9580 C   0  0  0  0  0  0  0  0  0  0  0  0
   22.5099  -36.3694  -13.8394 C   0  0  0  0  0  0  0  0  0  0  0  0
   23.8839  -36.4475  -13.8336 C   0  0  0  0  0  0  0  0  0  0  0  0
   24.7606  -36.1708  -12.6975 C   0  0  0  0  0  0  0  0  0  0  0  0
   25.1789  -34.7437  -12.5557 C   0  0  2  0  0  0  0  0  0  0  0  0
   26.0848  -34.3944  -13.6278 N   0  0  0  0  0  0  0  0  0  0  0  0
   25.6373  -34.3693  -11.2202 C   0  0  0  0  0  0  0  0  0  0  0  0
   26.8436  -34.2622  -10.8759 O   0  0  0  0  0  0  0  0  0  0  0  0
   24.5212  -36.8300  -15.0274 C   0  0  0  0  0  0  0  0  0  0  0  0
   23.7736  -37.1119  -16.1509 C   0  0  0  0  0  0  0  0  0  0  0  0
   27.6754  -32.9193   -7.8413 N   0  0  0  0  0  0  0  0  0  0  0  0
   26.8848  -32.1449   -6.9770 C   0  0  0  0  0  0  0  0  0  0  0  0
   27.3008  -31.8415   -5.8275 O   0  0  0  0  0  0  0  0  0  0  0  0
   25.5328  -31.6940   -7.4700 C   0  0  0  0  0  0  0  0  0  0  0  0
   25.2437  -32.2401   -8.8252 C   0  0  0  0  0  0  0  0  0  0  0  0
   25.0854  -33.7565   -8.8635 C   0  0  2  0  0  0  0  0  0  0  0  0
   24.6603  -34.0993  -10.2202 N   0  0  0  0  0  0  0  0  0  0  0  0
   23.9842  -34.1269   -7.9512 C   0  0  0  0  0  0  0  0  0  0  0  0
   24.1543  -34.9256   -6.9943 O   0  0  0  0  0  0  0  0  0  0  0  0
   22.7103  -33.5998   -8.1200 O   0  0  0  0  0  0  0  0  0  0  0  0
  2  1  1  6
  2  3  1  0
  3  4  1  0
  5  4  1  0
  5  6  1  0
  7  6  1  0
  8  2  1  0
  8  9  2  0
 10 11  1  0
 11 12  2  0
 12 13  1  0
 14 15  1  0
 14 13  2  0
 16 17  1  0
 16 15  1  1
 17  8  1  0
 18 16  1  0
 19 18  2  0
 20 14  1  0
 21 20  2  0
 21 11  1  0
 22 23  1  0
 23 25  1  0
 23 24  2  0
 25 26  1  0
 27 26  1  6
 27 28  1  0
 28 18  1  0
 29 27  1  0
 29 31  1  0
 30 29  2  0
M  END
$$$$
