KYQ.pdb
     RDKit          3D

 31 31  0  0  1  0  0  0  0  0999 V2000
   27.5561  -20.2509  -17.5714 N   0  0  0  0  0  0  0  0  0  0  0  0
   26.1964  -20.7500  -17.5786 C   0  0  1  0  0  0  0  0  0  0  0  0
   26.1433  -21.8336  -18.6486 C   0  0  0  0  0  0  0  0  0  0  0  0
   27.0587  -21.3773  -19.7506 C   0  0  0  0  0  0  0  0  0  0  0  0
   28.4822  -21.7814  -19.6283 C   0  0  0  0  0  0  0  0  0  0  0  0
   29.0915  -22.3354  -20.8805 C   0  0  0  0  0  0  0  0  0  0  0  0
   30.4676  -22.6592  -20.7203 N   0  0  0  0  0  0  0  0  0  0  0  0
   25.8936  -21.2942  -16.2385 C   0  0  0  0  0  0  0  0  0  0  0  0
   24.9856  -22.1490  -16.1191 O   0  0  0  0  0  0  0  0  0  0  0  0
   25.1953  -20.4765   -7.4089 O   0  0  0  0  0  0  0  0  0  0  0  0
   25.6476  -20.4896   -8.7040 C   0  0  0  0  0  0  0  0  0  0  0  0
   25.9770  -19.2920   -9.3364 C   0  0  0  0  0  0  0  0  0  0  0  0
   26.4311  -19.3039  -10.6365 C   0  0  0  0  0  0  0  0  0  0  0  0
   26.5789  -20.4665  -11.3581 C   0  0  0  0  0  0  0  0  0  0  0  0
   27.0531  -20.5740  -12.7362 C   0  0  0  0  0  0  0  0  0  0  0  0
   25.9969  -20.8889  -13.7446 C   0  0  2  0  0  0  0  0  0  0  0  0
   26.5781  -20.9008  -15.0690 N   0  0  0  0  0  0  0  0  0  0  0  0
   24.7748  -20.0986  -13.6192 C   0  0  0  0  0  0  0  0  0  0  0  0
   24.6826  -18.8688  -13.8727 O   0  0  0  0  0  0  0  0  0  0  0  0
   26.2473  -21.6762  -10.7222 C   0  0  0  0  0  0  0  0  0  0  0  0
   25.7921  -21.6715   -9.4208 C   0  0  0  0  0  0  0  0  0  0  0  0
   20.5816  -18.7899  -16.8574 N   0  0  0  0  0  0  0  0  0  0  0  0
   21.1657  -20.0340  -16.5693 C   0  0  0  0  0  0  0  0  0  0  0  0
   21.6214  -20.7574  -17.4942 O   0  0  0  0  0  0  0  0  0  0  0  0
   21.2269  -20.4684  -15.1265 C   0  0  0  0  0  0  0  0  0  0  0  0
   21.9087  -19.4465  -14.2843 C   0  0  0  0  0  0  0  0  0  0  0  0
   22.3782  -19.9695  -12.9308 C   0  0  2  0  0  0  0  0  0  0  0  0
   23.5882  -20.7521  -13.1807 N   0  0  0  0  0  0  0  0  0  0  0  0
   21.3521  -20.8991  -12.4161 C   0  0  0  0  0  0  0  0  0  0  0  0
   20.2161  -20.4995  -12.0523 O   0  0  0  0  0  0  0  0  0  0  0  0
   21.6088  -22.2604  -12.3159 O   0  0  0  0  0  0  0  0  0  0  0  0
  2  1  1  1
  2  3  1  0
  3  4  1  0
  5  4  1  0
  5  6  1  0
  7  6  1  0
  8  2  1  0
  8  9  2  0
 10 11  1  0
 11 12  2  0
 12 13  1  0
 14 15  1  0
 14 13  2  0
 16 17  1  0
 16 15  1  1
 17  8  1  0
 18 16  1  0
 19 18  2  0
 20 14  1  0
 21 20  2  0
 21 11  1  0
 22 23  1  0
 23 25  1  0
 23 24  2  0
 25 26  1  0
 27 26  1  6
 27 28  1  0
 28 18  1  0
 29 27  1  0
 29 31  1  0
 30 29  2  0
M  END
$$$$
