KYQ.pdb
     RDKit          3D

 31 31  0  0  1  0  0  0  0  0999 V2000
   26.9836  -23.4392  -17.7345 N   0  0  0  0  0  0  0  0  0  0  0  0
   26.6626  -22.0690  -17.3921 C   0  0  1  0  0  0  0  0  0  0  0  0
   25.7342  -21.5597  -18.4878 C   0  0  0  0  0  0  0  0  0  0  0  0
   26.6243  -21.1020  -19.6098 C   0  0  0  0  0  0  0  0  0  0  0  0
   27.2983  -19.7929  -19.4179 C   0  0  0  0  0  0  0  0  0  0  0  0
   28.0802  -19.3057  -20.6000 C   0  0  0  0  0  0  0  0  0  0  0  0
   28.6872  -18.0399  -20.3681 N   0  0  0  0  0  0  0  0  0  0  0  0
   25.9995  -22.0626  -16.0715 C   0  0  0  0  0  0  0  0  0  0  0  0
   24.8651  -22.5816  -15.9570 O   0  0  0  0  0  0  0  0  0  0  0  0
   24.7217  -20.3410   -7.4151 O   0  0  0  0  0  0  0  0  0  0  0  0
   25.2384  -20.4643   -8.6800 C   0  0  0  0  0  0  0  0  0  0  0  0
   25.1526  -19.3966   -9.5719 C   0  0  0  0  0  0  0  0  0  0  0  0
   25.6709  -19.5192  -10.8420 C   0  0  0  0  0  0  0  0  0  0  0  0
   26.2830  -20.6700  -11.2835 C   0  0  0  0  0  0  0  0  0  0  0  0
   26.8603  -20.8884  -12.6082 C   0  0  0  0  0  0  0  0  0  0  0  0
   25.8872  -21.3144  -13.6586 C   0  0  2  0  0  0  0  0  0  0  0  0
   26.5789  -21.4976  -14.9156 N   0  0  0  0  0  0  0  0  0  0  0  0
   24.6766  -20.5009  -13.7387 C   0  0  0  0  0  0  0  0  0  0  0  0
   24.5976  -19.3802  -14.3071 O   0  0  0  0  0  0  0  0  0  0  0  0
   26.3708  -21.7487  -10.3855 C   0  0  0  0  0  0  0  0  0  0  0  0
   25.8541  -21.6328   -9.1126 C   0  0  0  0  0  0  0  0  0  0  0  0
   20.9622  -20.0492  -17.1794 N   0  0  0  0  0  0  0  0  0  0  0  0
   20.0677  -19.4978  -16.2479 C   0  0  0  0  0  0  0  0  0  0  0  0
   18.9721  -19.0047  -16.6261 O   0  0  0  0  0  0  0  0  0  0  0  0
   20.4625  -19.5170  -14.7926 C   0  0  0  0  0  0  0  0  0  0  0  0
   21.8137  -20.1160  -14.6085 C   0  0  0  0  0  0  0  0  0  0  0  0
   22.2695  -20.1864  -13.1548 C   0  0  2  0  0  0  0  0  0  0  0  0
   23.4861  -20.9977  -13.1360 N   0  0  0  0  0  0  0  0  0  0  0  0
   21.2418  -20.9175  -12.3857 C   0  0  0  0  0  0  0  0  0  0  0  0
   20.1309  -20.4000  -12.1020 O   0  0  0  0  0  0  0  0  0  0  0  0
   21.4690  -22.2152  -11.9456 O   0  0  0  0  0  0  0  0  0  0  0  0
  2  1  1  6
  2  3  1  0
  3  4  1  0
  5  4  1  0
  5  6  1  0
  7  6  1  0
  8  2  1  0
  8  9  2  0
 10 11  1  0
 11 12  2  0
 12 13  1  0
 14 15  1  0
 14 13  2  0
 16 17  1  0
 16 15  1  1
 17  8  1  0
 18 16  1  0
 19 18  2  0
 20 14  1  0
 21 20  2  0
 21 11  1  0
 22 23  1  0
 23 25  1  0
 23 24  2  0
 25 26  1  0
 27 26  1  6
 27 28  1  0
 28 18  1  0
 29 27  1  0
 29 31  1  0
 30 29  2  0
M  END
$$$$
