KYQ.pdb
     RDKit          3D

 31 31  0  0  1  0  0  0  0  0999 V2000
   23.0640  -13.6646  -19.8155 N   0  0  0  0  0  0  0  0  0  0  0  0
   23.5450  -12.3004  -19.8891 C   0  0  1  0  0  0  0  0  0  0  0  0
   23.2360  -11.8125  -21.2992 C   0  0  0  0  0  0  0  0  0  0  0  0
   24.0485  -12.6735  -22.2261 C   0  0  0  0  0  0  0  0  0  0  0  0
   24.0014  -12.3112  -23.6653 C   0  0  0  0  0  0  0  0  0  0  0  0
   24.7631  -13.2288  -24.5730 C   0  0  0  0  0  0  0  0  0  0  0  0
   26.1697  -13.1477  -24.3749 N   0  0  0  0  0  0  0  0  0  0  0  0
   22.8342  -11.5010  -18.8695 C   0  0  0  0  0  0  0  0  0  0  0  0
   21.6078  -11.6878  -18.6950 O   0  0  0  0  0  0  0  0  0  0  0  0
   20.3682   -7.3110  -11.6868 O   0  0  0  0  0  0  0  0  0  0  0  0
   21.1076   -7.8732  -12.6964 C   0  0  0  0  0  0  0  0  0  0  0  0
   21.9058   -7.0656  -13.5047 C   0  0  0  0  0  0  0  0  0  0  0  0
   22.6484   -7.6288  -14.5186 C   0  0  0  0  0  0  0  0  0  0  0  0
   22.6407   -8.9802  -14.7786 C   0  0  0  0  0  0  0  0  0  0  0  0
   23.3947   -9.6628  -15.8280 C   0  0  0  0  0  0  0  0  0  0  0  0
   22.7721   -9.6158  -17.1851 C   0  0  2  0  0  0  0  0  0  0  0  0
   23.4665  -10.5255  -18.0697 N   0  0  0  0  0  0  0  0  0  0  0  0
   22.5731   -8.2719  -17.7220 C   0  0  0  0  0  0  0  0  0  0  0  0
   23.4663   -7.5765  -18.2733 O   0  0  0  0  0  0  0  0  0  0  0  0
   21.8361   -9.7972  -13.9644 C   0  0  0  0  0  0  0  0  0  0  0  0
   21.0902   -9.2399  -12.9477 C   0  0  0  0  0  0  0  0  0  0  0  0
   17.4864   -6.7304  -20.3775 N   0  0  0  0  0  0  0  0  0  0  0  0
   18.6696   -6.8058  -21.1299 C   0  0  0  0  0  0  0  0  0  0  0  0
   18.6276   -7.0237  -22.3698 O   0  0  0  0  0  0  0  0  0  0  0  0
   19.9797   -6.6184  -20.4068 C   0  0  0  0  0  0  0  0  0  0  0  0
   19.7639   -6.3881  -18.9513 C   0  0  0  0  0  0  0  0  0  0  0  0
   21.0497   -6.3368  -18.1328 C   0  0  2  0  0  0  0  0  0  0  0  0
   21.2775   -7.6894  -17.6252 N   0  0  0  0  0  0  0  0  0  0  0  0
   20.8167   -5.4627  -16.9650 C   0  0  0  0  0  0  0  0  0  0  0  0
   20.1919   -5.8632  -15.9493 O   0  0  0  0  0  0  0  0  0  0  0  0
   21.2850   -4.1552  -16.9481 O   0  0  0  0  0  0  0  0  0  0  0  0
  2  1  1  6
  2  3  1  0
  3  4  1  0
  5  4  1  0
  5  6  1  0
  7  6  1  0
  8  2  1  0
  8  9  2  0
 10 11  1  0
 11 12  2  0
 12 13  1  0
 14 15  1  0
 14 13  2  0
 16 17  1  0
 16 15  1  1
 17  8  1  0
 18 16  1  0
 19 18  2  0
 20 14  1  0
 21 20  2  0
 21 11  1  0
 22 23  1  0
 23 25  1  0
 23 24  2  0
 25 26  1  0
 27 26  1  6
 27 28  1  0
 28 18  1  0
 29 27  1  0
 29 31  1  0
 30 29  2  0
M  END
$$$$
