KYQ.pdb
     RDKit          3D

 31 31  0  0  1  0  0  0  0  0999 V2000
   27.4258  -22.4879  -18.5489 N   0  0  0  0  0  0  0  0  0  0  0  0
   27.4296  -21.2947  -17.7279 C   0  0  1  0  0  0  0  0  0  0  0  0
   26.7436  -20.2085  -18.5473 C   0  0  0  0  0  0  0  0  0  0  0  0
   27.7642  -19.7284  -19.5415 C   0  0  0  0  0  0  0  0  0  0  0  0
   27.6509  -20.2820  -20.9147 C   0  0  0  0  0  0  0  0  0  0  0  0
   28.6060  -19.6988  -21.9117 C   0  0  0  0  0  0  0  0  0  0  0  0
   28.4931  -20.3049  -23.1939 N   0  0  0  0  0  0  0  0  0  0  0  0
   26.6894  -21.5849  -16.4822 C   0  0  0  0  0  0  0  0  0  0  0  0
   25.7359  -22.3968  -16.5153 O   0  0  0  0  0  0  0  0  0  0  0  0
   24.1351  -20.7598   -7.9503 O   0  0  0  0  0  0  0  0  0  0  0  0
   24.8054  -20.7356   -9.1471 C   0  0  0  0  0  0  0  0  0  0  0  0
   24.3794  -19.8829  -10.1641 C   0  0  0  0  0  0  0  0  0  0  0  0
   25.0514  -19.8578  -11.3659 C   0  0  0  0  0  0  0  0  0  0  0  0
   26.1475  -20.6511  -11.6176 C   0  0  0  0  0  0  0  0  0  0  0  0
   26.9202  -20.6897  -12.8574 C   0  0  0  0  0  0  0  0  0  0  0  0
   26.1300  -21.0102  -14.0840 C   0  0  2  0  0  0  0  0  0  0  0  0
   26.9992  -20.9916  -15.2401 N   0  0  0  0  0  0  0  0  0  0  0  0
   24.8946  -20.2454  -14.2345 C   0  0  0  0  0  0  0  0  0  0  0  0
   24.8126  -19.1048  -14.7612 O   0  0  0  0  0  0  0  0  0  0  0  0
   26.5793  -21.5122  -10.5930 C   0  0  0  0  0  0  0  0  0  0  0  0
   25.9111  -21.5424   -9.3874 C   0  0  0  0  0  0  0  0  0  0  0  0
   21.5912  -20.5643  -18.1328 N   0  0  0  0  0  0  0  0  0  0  0  0
   20.5623  -19.9700  -17.3846 C   0  0  0  0  0  0  0  0  0  0  0  0
   19.4863  -19.6213  -17.9389 O   0  0  0  0  0  0  0  0  0  0  0  0
   20.7898  -19.7663  -15.9078 C   0  0  0  0  0  0  0  0  0  0  0  0
   22.1408  -20.2424  -15.4998 C   0  0  0  0  0  0  0  0  0  0  0  0
   22.4109  -20.1370  -14.0025 C   0  0  2  0  0  0  0  0  0  0  0  0
   23.6816  -20.8182  -13.7571 N   0  0  0  0  0  0  0  0  0  0  0  0
   21.3613  -20.8953  -13.2916 C   0  0  0  0  0  0  0  0  0  0  0  0
   21.5339  -22.0869  -12.9272 O   0  0  0  0  0  0  0  0  0  0  0  0
   20.1354  -20.3123  -12.9975 O   0  0  0  0  0  0  0  0  0  0  0  0
  2  1  1  6
  2  3  1  0
  3  4  1  0
  5  4  1  0
  5  6  1  0
  7  6  1  0
  8  2  1  0
  8  9  2  0
 10 11  1  0
 11 12  2  0
 12 13  1  0
 14 15  1  0
 14 13  2  0
 16 17  1  0
 16 15  1  1
 17  8  1  0
 18 16  1  0
 19 18  2  0
 20 14  1  0
 21 20  2  0
 21 11  1  0
 22 23  1  0
 23 25  1  0
 23 24  2  0
 25 26  1  0
 27 26  1  6
 27 28  1  0
 28 18  1  0
 29 27  1  0
 29 31  1  0
 30 29  2  0
M  END
$$$$
