KYQ.pdb
     RDKit          3D

 31 31  0  0  1  0  0  0  0  0999 V2000
   28.2751  -22.2102  -17.1339 N   0  0  0  0  0  0  0  0  0  0  0  0
   27.9446  -21.0034  -16.4043 C   0  0  1  0  0  0  0  0  0  0  0  0
   27.3025  -20.0564  -17.4107 C   0  0  0  0  0  0  0  0  0  0  0  0
   28.4085  -19.6059  -18.3243 C   0  0  0  0  0  0  0  0  0  0  0  0
   28.0246  -18.6523  -19.3957 C   0  0  0  0  0  0  0  0  0  0  0  0
   29.1407  -18.2462  -20.3098 C   0  0  0  0  0  0  0  0  0  0  0  0
   28.7329  -17.2823  -21.2735 N   0  0  0  0  0  0  0  0  0  0  0  0
   27.0078  -21.3585  -15.3180 C   0  0  0  0  0  0  0  0  0  0  0  0
   26.1334  -22.2306  -15.5284 O   0  0  0  0  0  0  0  0  0  0  0  0
   22.8045  -21.0026   -7.5017 O   0  0  0  0  0  0  0  0  0  0  0  0
   23.7158  -20.8844   -8.5205 C   0  0  0  0  0  0  0  0  0  0  0  0
   24.7892  -21.7701   -8.5978 C   0  0  0  0  0  0  0  0  0  0  0  0
   25.7046  -21.6523   -9.6199 C   0  0  0  0  0  0  0  0  0  0  0  0
   25.6093  -20.6813  -10.5905 C   0  0  0  0  0  0  0  0  0  0  0  0
   26.5298  -20.4830  -11.7081 C   0  0  0  0  0  0  0  0  0  0  0  0
   26.0048  -20.9062  -13.0411 C   0  0  2  0  0  0  0  0  0  0  0  0
   27.0420  -20.7633  -14.0391 N   0  0  0  0  0  0  0  0  0  0  0  0
   24.7179  -20.3201  -13.4072 C   0  0  0  0  0  0  0  0  0  0  0  0
   24.5515  -19.1368  -13.8039 O   0  0  0  0  0  0  0  0  0  0  0  0
   24.5271  -19.7864  -10.5147 C   0  0  0  0  0  0  0  0  0  0  0  0
   23.6070  -19.8986   -9.4941 C   0  0  0  0  0  0  0  0  0  0  0  0
   21.7374  -21.0156  -17.8307 N   0  0  0  0  0  0  0  0  0  0  0  0
   21.6318  -22.2052  -17.0921 C   0  0  0  0  0  0  0  0  0  0  0  0
   21.3971  -23.2994  -17.6701 O   0  0  0  0  0  0  0  0  0  0  0  0
   21.8077  -22.1260  -15.5965 C   0  0  0  0  0  0  0  0  0  0  0  0
   22.0744  -20.7277  -15.1584 C   0  0  0  0  0  0  0  0  0  0  0  0
   22.2456  -20.5706  -13.6511 C   0  0  2  0  0  0  0  0  0  0  0  0
   23.5532  -21.1341  -13.3169 N   0  0  0  0  0  0  0  0  0  0  0  0
   21.2245  -21.4033  -12.9833 C   0  0  0  0  0  0  0  0  0  0  0  0
   21.5143  -22.4982  -12.4357 O   0  0  0  0  0  0  0  0  0  0  0  0
   19.8958  -21.0014  -12.9360 O   0  0  0  0  0  0  0  0  0  0  0  0
  2  1  1  6
  2  3  1  0
  3  4  1  0
  5  4  1  0
  5  6  1  0
  7  6  1  0
  8  2  1  0
  8  9  2  0
 10 11  1  0
 11 12  2  0
 12 13  1  0
 14 15  1  0
 14 13  2  0
 16 17  1  0
 16 15  1  1
 17  8  1  0
 18 16  1  0
 19 18  2  0
 20 14  1  0
 21 20  2  0
 21 11  1  0
 22 23  1  0
 23 25  1  0
 23 24  2  0
 25 26  1  0
 27 26  1  6
 27 28  1  0
 28 18  1  0
 29 27  1  0
 29 31  1  0
 30 29  2  0
M  END
$$$$
