KYQ.pdb
     RDKit          3D

 31 31  0  0  1  0  0  0  0  0999 V2000
   20.6598  -19.4284  -10.0950 N   0  0  0  0  0  0  0  0  0  0  0  0
   20.9568  -20.4155  -11.1124 C   0  0  1  0  0  0  0  0  0  0  0  0
   19.6307  -20.7512  -11.7839 C   0  0  0  0  0  0  0  0  0  0  0  0
   19.2548  -22.1249  -11.3017 C   0  0  0  0  0  0  0  0  0  0  0  0
   19.5715  -23.2494  -12.2182 C   0  0  0  0  0  0  0  0  0  0  0  0
   19.1675  -24.6037  -11.7195 C   0  0  0  0  0  0  0  0  0  0  0  0
   19.4877  -25.6412  -12.6390 N   0  0  0  0  0  0  0  0  0  0  0  0
   21.9156  -19.8239  -12.0687 C   0  0  0  0  0  0  0  0  0  0  0  0
   21.5775  -18.8095  -12.7215 O   0  0  0  0  0  0  0  0  0  0  0  0
   29.5620  -18.8122  -16.5895 O   0  0  0  0  0  0  0  0  0  0  0  0
   28.5805  -19.1523  -15.6933 C   0  0  0  0  0  0  0  0  0  0  0  0
   28.0147  -18.1729  -14.8787 C   0  0  0  0  0  0  0  0  0  0  0  0
   27.0295  -18.5132  -13.9787 C   0  0  0  0  0  0  0  0  0  0  0  0
   26.5657  -19.8016  -13.8410 C   0  0  0  0  0  0  0  0  0  0  0  0
   25.5269  -20.2522  -12.9172 C   0  0  0  0  0  0  0  0  0  0  0  0
   24.1388  -19.8306  -13.2737 C   0  0  2  0  0  0  0  0  0  0  0  0
   23.2084  -20.3433  -12.2919 N   0  0  0  0  0  0  0  0  0  0  0  0
   23.7609  -20.0776  -14.6629 C   0  0  0  0  0  0  0  0  0  0  0  0
   23.3524  -21.1799  -15.1137 O   0  0  0  0  0  0  0  0  0  0  0  0
   27.1350  -20.7915  -14.6618 C   0  0  0  0  0  0  0  0  0  0  0  0
   28.1217  -20.4579  -15.5650 C   0  0  0  0  0  0  0  0  0  0  0  0
   20.1326  -16.5910  -17.5312 N   0  0  0  0  0  0  0  0  0  0  0  0
   19.8729  -17.9406  -17.8189 C   0  0  0  0  0  0  0  0  0  0  0  0
   18.7283  -18.3064  -18.1966 O   0  0  0  0  0  0  0  0  0  0  0  0
   21.0028  -18.9267  -17.6606 C   0  0  0  0  0  0  0  0  0  0  0  0
   22.2489  -18.2501  -17.2047 C   0  0  0  0  0  0  0  0  0  0  0  0
   23.4219  -19.1972  -16.9747 C   0  0  2  0  0  0  0  0  0  0  0  0
   23.8533  -19.0017  -15.5910 N   0  0  0  0  0  0  0  0  0  0  0  0
   24.5352  -18.7701  -17.8466 C   0  0  0  0  0  0  0  0  0  0  0  0
   25.4070  -17.9508  -17.4578 O   0  0  0  0  0  0  0  0  0  0  0  0
   24.6593  -19.2643  -19.1387 O   0  0  0  0  0  0  0  0  0  0  0  0
  2  1  1  1
  2  3  1  0
  3  4  1  0
  5  4  1  0
  5  6  1  0
  7  6  1  0
  8  2  1  0
  8  9  2  0
 10 11  1  0
 11 12  2  0
 12 13  1  0
 14 15  1  0
 14 13  2  0
 16 17  1  0
 16 15  1  1
 17  8  1  0
 18 16  1  0
 19 18  2  0
 20 14  1  0
 21 20  2  0
 21 11  1  0
 22 23  1  0
 23 25  1  0
 23 24  2  0
 25 26  1  0
 27 26  1  6
 27 28  1  0
 28 18  1  0
 29 27  1  0
 29 31  1  0
 30 29  2  0
M  END
$$$$
