KYQ.pdb
     RDKit          3D

 31 31  0  0  1  0  0  0  0  0999 V2000
   28.9563  -21.4333  -19.0652 N   0  0  0  0  0  0  0  0  0  0  0  0
   28.2843  -20.2961  -18.4712 C   0  0  1  0  0  0  0  0  0  0  0  0
   27.2955  -19.7898  -19.5141 C   0  0  0  0  0  0  0  0  0  0  0  0
   28.1125  -19.0612  -20.5448 C   0  0  0  0  0  0  0  0  0  0  0  0
   28.6864  -17.7582  -20.1233 C   0  0  0  0  0  0  0  0  0  0  0  0
   29.3950  -17.0006  -21.2050 C   0  0  0  0  0  0  0  0  0  0  0  0
   29.9014  -15.7502  -20.7529 N   0  0  0  0  0  0  0  0  0  0  0  0
   27.5958  -20.7509  -17.2452 C   0  0  0  0  0  0  0  0  0  0  0  0
   26.8183  -21.7310  -17.3112 O   0  0  0  0  0  0  0  0  0  0  0  0
   24.8485  -20.8428   -8.7785 O   0  0  0  0  0  0  0  0  0  0  0  0
   25.5160  -20.5996   -9.9522 C   0  0  0  0  0  0  0  0  0  0  0  0
   25.3056  -19.4030  -10.6353 C   0  0  0  0  0  0  0  0  0  0  0  0
   25.9750  -19.1579  -11.8137 C   0  0  0  0  0  0  0  0  0  0  0  0
   26.8613  -20.0567  -12.3620 C   0  0  0  0  0  0  0  0  0  0  0  0
   27.6143  -19.8811  -13.6021 C   0  0  0  0  0  0  0  0  0  0  0  0
   26.9355  -20.3923  -14.8307 C   0  0  2  0  0  0  0  0  0  0  0  0
   27.7663  -20.1361  -15.9867 N   0  0  0  0  0  0  0  0  0  0  0  0
   25.5409  -19.9824  -14.9759 C   0  0  0  0  0  0  0  0  0  0  0  0
   25.1599  -18.8656  -15.4149 O   0  0  0  0  0  0  0  0  0  0  0  0
   27.0753  -21.2648  -11.6746 C   0  0  0  0  0  0  0  0  0  0  0  0
   26.4085  -21.5166  -10.4945 C   0  0  0  0  0  0  0  0  0  0  0  0
   21.8830  -22.9007  -17.9060 N   0  0  0  0  0  0  0  0  0  0  0  0
   21.4771  -21.5589  -17.9876 C   0  0  0  0  0  0  0  0  0  0  0  0
   20.8899  -21.1287  -19.0154 O   0  0  0  0  0  0  0  0  0  0  0  0
   21.7671  -20.6605  -16.8117 C   0  0  0  0  0  0  0  0  0  0  0  0
   22.4668  -21.4023  -15.7261 C   0  0  0  0  0  0  0  0  0  0  0  0
   23.1174  -20.5043  -14.6790 C   0  0  2  0  0  0  0  0  0  0  0  0
   24.5222  -20.9032  -14.5995 N   0  0  0  0  0  0  0  0  0  0  0  0
   22.5009  -20.8031  -13.3703 C   0  0  0  0  0  0  0  0  0  0  0  0
   22.7098  -21.8886  -12.7698 O   0  0  0  0  0  0  0  0  0  0  0  0
   21.6613  -19.8860  -12.7513 O   0  0  0  0  0  0  0  0  0  0  0  0
  2  1  1  6
  2  3  1  0
  3  4  1  0
  5  4  1  0
  5  6  1  0
  7  6  1  0
  8  2  1  0
  8  9  2  0
 10 11  1  0
 11 12  2  0
 12 13  1  0
 14 15  1  0
 14 13  2  0
 16 17  1  0
 16 15  1  1
 17  8  1  0
 18 16  1  0
 19 18  2  0
 20 14  1  0
 21 20  2  0
 21 11  1  0
 22 23  1  0
 23 25  1  0
 23 24  2  0
 25 26  1  0
 27 26  1  6
 27 28  1  0
 28 18  1  0
 29 27  1  0
 29 31  1  0
 30 29  2  0
M  END
$$$$
