KYQ.pdb
     RDKit          3D

 31 31  0  0  1  0  0  0  0  0999 V2000
   25.5879  -24.6371  -15.1887 N   0  0  0  0  0  0  0  0  0  0  0  0
   26.1084  -23.3030  -14.9726 C   0  0  1  0  0  0  0  0  0  0  0  0
   25.9658  -22.5672  -16.2993 C   0  0  0  0  0  0  0  0  0  0  0  0
   26.1270  -23.6074  -17.3729 C   0  0  0  0  0  0  0  0  0  0  0  0
   26.1448  -23.1076  -18.7709 C   0  0  0  0  0  0  0  0  0  0  0  0
   26.2894  -24.1687  -19.8194 C   0  0  0  0  0  0  0  0  0  0  0  0
   26.3146  -23.6331  -21.1373 N   0  0  0  0  0  0  0  0  0  0  0  0
   25.3123  -22.6601  -13.9063 C   0  0  0  0  0  0  0  0  0  0  0  0
   24.1012  -22.9576  -13.7869 O   0  0  0  0  0  0  0  0  0  0  0  0
   26.4706  -20.8618   -6.1012 O   0  0  0  0  0  0  0  0  0  0  0  0
   26.3545  -20.5845   -7.4398 C   0  0  0  0  0  0  0  0  0  0  0  0
   26.8339  -19.3761   -7.9425 C   0  0  0  0  0  0  0  0  0  0  0  0
   26.7178  -19.0967   -9.2860 C   0  0  0  0  0  0  0  0  0  0  0  0
   26.1387  -19.9717  -10.1765 C   0  0  0  0  0  0  0  0  0  0  0  0
   25.9746  -19.7604  -11.6132 C   0  0  0  0  0  0  0  0  0  0  0  0
   25.0627  -20.7285  -12.2936 C   0  0  2  0  0  0  0  0  0  0  0  0
   25.8454  -21.7172  -13.0022 N   0  0  0  0  0  0  0  0  0  0  0  0
   23.9942  -20.1157  -13.0790 C   0  0  0  0  0  0  0  0  0  0  0  0
   24.1313  -19.6445  -14.2385 O   0  0  0  0  0  0  0  0  0  0  0  0
   25.6543  -21.1917   -9.6718 C   0  0  0  0  0  0  0  0  0  0  0  0
   25.7673  -21.4778   -8.3279 C   0  0  0  0  0  0  0  0  0  0  0  0
   21.2003  -23.8323  -15.1586 N   0  0  0  0  0  0  0  0  0  0  0  0
   20.1753  -22.9350  -15.4991 C   0  0  0  0  0  0  0  0  0  0  0  0
   19.2609  -23.2787  -16.2943 O   0  0  0  0  0  0  0  0  0  0  0  0
   20.2085  -21.5583  -14.8845 C   0  0  0  0  0  0  0  0  0  0  0  0
   21.3792  -21.4012  -13.9772 C   0  0  0  0  0  0  0  0  0  0  0  0
   21.5177  -20.0058  -13.3773 C   0  0  2  0  0  0  0  0  0  0  0  0
   22.6926  -20.0387  -12.5070 N   0  0  0  0  0  0  0  0  0  0  0  0
   20.3418  -19.7558  -12.5190 C   0  0  0  0  0  0  0  0  0  0  0  0
   20.3064  -20.1241  -11.3166 O   0  0  0  0  0  0  0  0  0  0  0  0
   19.2236  -19.0981  -13.0151 O   0  0  0  0  0  0  0  0  0  0  0  0
  2  1  1  6
  2  3  1  0
  3  4  1  0
  5  4  1  0
  5  6  1  0
  7  6  1  0
  8  2  1  0
  8  9  2  0
 10 11  1  0
 11 12  2  0
 12 13  1  0
 14 15  1  0
 14 13  2  0
 16 17  1  0
 16 15  1  6
 17  8  1  0
 18 16  1  0
 19 18  2  0
 20 14  1  0
 21 20  2  0
 21 11  1  0
 22 23  1  0
 23 25  1  0
 23 24  2  0
 25 26  1  0
 27 26  1  1
 27 28  1  0
 28 18  1  0
 29 27  1  0
 29 31  1  0
 30 29  2  0
M  END
$$$$
