EIR.pdb
     RDKit          3D

 29 28  0  0  1  0  0  0  0  0999 V2000
    7.9026  -14.6393   20.3940 N   0  0  0  0  0  0  0  0  0  0  0  0
    7.2804  -15.2644   21.5747 C   0  0  1  0  0  0  0  0  0  0  0  0
    7.3791  -16.7457   21.3305 C   0  0  0  0  0  0  0  0  0  0  0  0
    6.5283  -17.2678   20.2248 C   0  0  0  0  0  0  0  0  0  0  0  0
    6.5029  -18.7423   20.1338 C   0  0  0  0  0  0  0  0  0  0  0  0
    6.4301  -19.5136   21.1154 O   0  0  0  0  0  0  0  0  0  0  0  0
    8.0467  -14.9195   22.7887 C   0  0  0  0  0  0  0  0  0  0  0  0
    9.2985  -14.8574   22.7462 O   0  0  0  0  0  0  0  0  0  0  0  0
    6.5638  -19.3424   18.8637 O   0  0  0  0  0  0  0  0  0  0  0  0
    6.1230  -11.2945   26.1957 C   0  0  0  0  0  0  0  0  0  0  0  0
    7.0985  -12.0866   25.3009 C   0  0  0  0  0  0  0  0  0  0  0  0
    7.4372  -13.3481   26.0025 C   0  0  2  0  0  0  0  0  0  0  0  0
    8.1097  -12.9729   27.3326 C   0  0  0  0  0  0  0  0  0  0  0  0
    8.2373  -14.3587   25.2567 C   0  0  2  0  0  0  0  0  0  0  0  0
    7.4332  -14.6450   24.0411 N   0  0  0  0  0  0  0  0  0  0  0  0
    8.5142  -15.6187   25.9415 C   0  0  0  0  0  0  0  0  0  0  0  0
    7.5282  -16.3608   26.3003 O   0  0  0  0  0  0  0  0  0  0  0  0
   11.9093  -16.8957   21.6857 N   0  0  0  0  0  0  0  0  0  0  0  0
   12.1881  -18.2979   21.6400 C   0  0  0  0  0  0  0  0  0  0  0  0
   12.9587  -18.7846   20.7372 N   0  0  0  0  0  0  0  0  0  0  0  0
   11.6065  -19.1515   22.6017 N   0  0  0  0  0  0  0  0  0  0  0  0
   11.8731  -19.0388   24.0163 C   0  0  0  0  0  0  0  0  0  0  0  0
   10.7164  -18.3760   24.7652 C   0  0  0  0  0  0  0  0  0  0  0  0
   11.0374  -18.2130   26.2211 C   0  0  0  0  0  0  0  0  0  0  0  0
    9.9811  -17.4261   26.9127 C   0  0  2  0  0  0  0  0  0  0  0  0
    9.7739  -16.1312   26.2604 N   0  0  0  0  0  0  0  0  0  0  0  0
   10.2941  -17.1521   28.3130 C   0  0  0  0  0  0  0  0  0  0  0  0
   10.5239  -15.9899   28.7102 O   0  0  0  0  0  0  0  0  0  0  0  0
   10.3520  -18.1533   29.2636 O   0  0  0  0  0  0  0  0  0  0  0  0
  2  1  1  6
  2  3  1  0
  4  5  1  0
  4  3  1  0
  5  6  2  0
  7  2  1  0
  7  8  2  0
  9  5  1  0
 11 10  1  0
 12 11  1  0
 12 14  1  0
 12 13  1  1
 14 15  1  6
 15  7  1  0
 16 26  1  0
 16 14  1  0
 17 16  2  0
 18 19  1  0
 19 20  2  0
 21 19  1  0
 21 22  1  0
 22 23  1  0
 23 24  1  0
 25 24  1  6
 25 26  1  0
 25 27  1  0
 27 29  1  0
 28 27  2  0
M  END
$$$$
