EIR.pdb
     RDKit          3D

 29 28  0  0  1  0  0  0  0  0999 V2000
    8.2444  -15.0469   20.4616 N   0  0  0  0  0  0  0  0  0  0  0  0
    7.5785  -15.6708   21.6190 C   0  0  1  0  0  0  0  0  0  0  0  0
    7.7373  -17.1522   21.4096 C   0  0  0  0  0  0  0  0  0  0  0  0
    6.7187  -17.7841   20.5252 C   0  0  0  0  0  0  0  0  0  0  0  0
    5.4968  -18.2175   21.2336 C   0  0  0  0  0  0  0  0  0  0  0  0
    5.4540  -19.1392   22.0777 O   0  0  0  0  0  0  0  0  0  0  0  0
    8.2659  -15.2794   22.8657 C   0  0  0  0  0  0  0  0  0  0  0  0
    9.5179  -15.2179   22.9013 O   0  0  0  0  0  0  0  0  0  0  0  0
    4.2848  -17.5616   20.9546 O   0  0  0  0  0  0  0  0  0  0  0  0
    5.8669  -11.7605   26.2143 C   0  0  0  0  0  0  0  0  0  0  0  0
    6.9091  -12.4653   25.3217 C   0  0  0  0  0  0  0  0  0  0  0  0
    7.3650  -13.6850   26.0308 C   0  0  2  0  0  0  0  0  0  0  0  0
    7.9467  -13.2450   27.3836 C   0  0  0  0  0  0  0  0  0  0  0  0
    8.2983  -14.5940   25.3092 C   0  0  2  0  0  0  0  0  0  0  0  0
    7.5736  -14.9580   24.0648 N   0  0  0  0  0  0  0  0  0  0  0  0
    8.6902  -15.8209   25.9979 C   0  0  0  0  0  0  0  0  0  0  0  0
    7.7849  -16.5233   26.5799 O   0  0  0  0  0  0  0  0  0  0  0  0
   11.9947  -17.7888   21.3746 N   0  0  0  0  0  0  0  0  0  0  0  0
   13.0690  -18.5259   21.9650 C   0  0  0  0  0  0  0  0  0  0  0  0
   13.6246  -19.4949   21.3340 N   0  0  0  0  0  0  0  0  0  0  0  0
   13.5196  -18.1789   23.2567 N   0  0  0  0  0  0  0  0  0  0  0  0
   12.7408  -17.3785   24.1720 C   0  0  0  0  0  0  0  0  0  0  0  0
   11.5097  -18.1282   24.6823 C   0  0  0  0  0  0  0  0  0  0  0  0
   11.5193  -18.2285   26.1787 C   0  0  0  0  0  0  0  0  0  0  0  0
   10.2985  -17.6081   26.7602 C   0  0  2  0  0  0  0  0  0  0  0  0
    9.9830  -16.3403   26.0979 N   0  0  0  0  0  0  0  0  0  0  0  0
   10.4241  -17.3232   28.1874 C   0  0  0  0  0  0  0  0  0  0  0  0
   10.4008  -16.1506   28.6186 O   0  0  0  0  0  0  0  0  0  0  0  0
   10.5735  -18.3250   29.1274 O   0  0  0  0  0  0  0  0  0  0  0  0
  2  1  1  6
  2  3  1  0
  4  5  1  0
  4  3  1  0
  5  6  2  0
  7  2  1  0
  7  8  2  0
  9  5  1  0
 11 10  1  0
 12 11  1  0
 12 14  1  0
 12 13  1  1
 14 15  1  6
 15  7  1  0
 16 26  1  0
 16 14  1  0
 17 16  2  0
 18 19  1  0
 19 20  2  0
 21 19  1  0
 21 22  1  0
 22 23  1  0
 23 24  1  0
 25 24  1  6
 25 26  1  0
 25 27  1  0
 27 29  1  0
 28 27  2  0
M  END
$$$$
