EIR.pdb
     RDKit          3D

 29 28  0  0  1  0  0  0  0  0999 V2000
    7.9256  -15.9591   20.6981 N   0  0  0  0  0  0  0  0  0  0  0  0
    7.3046  -16.0429   22.0320 C   0  0  1  0  0  0  0  0  0  0  0  0
    7.3015  -17.5089   22.3704 C   0  0  0  0  0  0  0  0  0  0  0  0
    7.7117  -18.4194   21.2651 C   0  0  0  0  0  0  0  0  0  0  0  0
    7.7330  -19.8477   21.6423 C   0  0  0  0  0  0  0  0  0  0  0  0
    6.7143  -20.5458   21.8392 O   0  0  0  0  0  0  0  0  0  0  0  0
    8.1309  -15.3180   23.0178 C   0  0  0  0  0  0  0  0  0  0  0  0
    9.3423  -15.0957   22.7814 O   0  0  0  0  0  0  0  0  0  0  0  0
    8.9753  -20.4879   21.7964 O   0  0  0  0  0  0  0  0  0  0  0  0
    5.7487  -11.3344   25.7983 C   0  0  0  0  0  0  0  0  0  0  0  0
    6.7914  -12.0800   24.9401 C   0  0  0  0  0  0  0  0  0  0  0  0
    7.4616  -13.0802   25.8054 C   0  0  2  0  0  0  0  0  0  0  0  0
    8.0929  -12.3240   26.9852 C   0  0  0  0  0  0  0  0  0  0  0  0
    8.4417  -14.0002   25.1645 C   0  0  2  0  0  0  0  0  0  0  0  0
    7.6214  -14.8419   24.2564 N   0  0  0  0  0  0  0  0  0  0  0  0
    9.2042  -14.8751   26.0513 C   0  0  0  0  0  0  0  0  0  0  0  0
   10.0781  -14.3549   26.8369 O   0  0  0  0  0  0  0  0  0  0  0  0
    9.4166  -21.8380   30.2683 N   0  0  0  0  0  0  0  0  0  0  0  0
   10.7910  -21.4434   30.3047 C   0  0  0  0  0  0  0  0  0  0  0  0
   11.5616  -21.8362   31.2523 N   0  0  0  0  0  0  0  0  0  0  0  0
   11.3005  -20.6127   29.2840 N   0  0  0  0  0  0  0  0  0  0  0  0
   10.4559  -19.8309   28.4120 C   0  0  0  0  0  0  0  0  0  0  0  0
   11.2644  -19.0874   27.3482 C   0  0  0  0  0  0  0  0  0  0  0  0
   10.3664  -18.3173   26.4264 C   0  0  0  0  0  0  0  0  0  0  0  0
    9.8678  -17.0789   27.0831 C   0  0  2  0  0  0  0  0  0  0  0  0
    9.0866  -16.2635   26.1503 N   0  0  0  0  0  0  0  0  0  0  0  0
   10.9403  -16.2299   27.5957 C   0  0  0  0  0  0  0  0  0  0  0  0
   11.7632  -15.6898   26.8260 O   0  0  0  0  0  0  0  0  0  0  0  0
   11.1003  -15.9809   28.9455 O   0  0  0  0  0  0  0  0  0  0  0  0
  2  1  1  6
  2  3  1  0
  4  5  1  0
  4  3  1  0
  5  6  2  0
  7  2  1  0
  7  8  2  0
  9  5  1  0
 11 10  1  0
 12 11  1  0
 12 14  1  0
 12 13  1  1
 14 15  1  6
 15  7  1  0
 16 26  1  0
 16 14  1  0
 17 16  2  0
 18 19  1  0
 19 20  2  0
 21 19  1  0
 21 22  1  0
 22 23  1  0
 23 24  1  0
 25 24  1  6
 25 26  1  0
 25 27  1  0
 27 29  1  0
 28 27  2  0
M  END
$$$$
