EIR.pdb
     RDKit          3D

 29 28  0  0  1  0  0  0  0  0999 V2000
    8.5299  -18.7591   21.0659 N   0  0  0  0  0  0  0  0  0  0  0  0
    9.8864  -18.1950   21.1832 C   0  0  1  0  0  0  0  0  0  0  0  0
   10.3497  -17.9930   19.7661 C   0  0  0  0  0  0  0  0  0  0  0  0
   11.8028  -17.7074   19.6049 C   0  0  0  0  0  0  0  0  0  0  0  0
   12.4972  -18.6347   18.6878 C   0  0  0  0  0  0  0  0  0  0  0  0
   12.5687  -19.8727   18.8491 O   0  0  0  0  0  0  0  0  0  0  0  0
    9.8299  -16.8878   21.8674 C   0  0  0  0  0  0  0  0  0  0  0  0
   10.1410  -15.8410   21.2510 O   0  0  0  0  0  0  0  0  0  0  0  0
   13.1295  -18.1101   17.5467 O   0  0  0  0  0  0  0  0  0  0  0  0
    8.0801  -13.3785   20.8444 C   0  0  0  0  0  0  0  0  0  0  0  0
    9.1229  -14.1925   21.6378 C   0  0  0  0  0  0  0  0  0  0  0  0
    8.5013  -14.6011   22.9204 C   0  0  2  0  0  0  0  0  0  0  0  0
    7.9537  -13.3333   23.5950 C   0  0  0  0  0  0  0  0  0  0  0  0
    9.3294  -15.4025   23.8637 C   0  0  2  0  0  0  0  0  0  0  0  0
    9.4320  -16.7390   23.2238 N   0  0  0  0  0  0  0  0  0  0  0  0
    8.8108  -15.5715   25.2186 C   0  0  0  0  0  0  0  0  0  0  0  0
    8.0076  -16.5452   25.4598 O   0  0  0  0  0  0  0  0  0  0  0  0
   13.1021  -19.3418   30.3771 N   0  0  0  0  0  0  0  0  0  0  0  0
   11.8202  -18.7763   30.6650 C   0  0  0  0  0  0  0  0  0  0  0  0
   11.3273  -18.8360   31.8479 N   0  0  0  0  0  0  0  0  0  0  0  0
   11.0933  -18.1462   29.6324 N   0  0  0  0  0  0  0  0  0  0  0  0
   11.2727  -18.4673   28.2361 C   0  0  0  0  0  0  0  0  0  0  0  0
   10.3833  -17.6114   27.3335 C   0  0  0  0  0  0  0  0  0  0  0  0
   10.7871  -16.1680   27.3881 C   0  0  0  0  0  0  0  0  0  0  0  0
    9.6023  -15.2929   27.5972 C   0  0  2  0  0  0  0  0  0  0  0  0
    9.1006  -14.7692   26.3247 N   0  0  0  0  0  0  0  0  0  0  0  0
    9.8833  -14.1411   28.4505 C   0  0  0  0  0  0  0  0  0  0  0  0
    9.8799  -14.2412   29.6961 O   0  0  0  0  0  0  0  0  0  0  0  0
   10.1655  -12.8920   27.9313 O   0  0  0  0  0  0  0  0  0  0  0  0
  2  1  1  6
  2  3  1  0
  4  5  1  0
  4  3  1  0
  5  6  2  0
  7  2  1  0
  7  8  2  0
  9  5  1  0
 11 10  1  0
 12 11  1  0
 12 14  1  0
 12 13  1  1
 14 15  1  6
 15  7  1  0
 16 26  1  0
 16 14  1  0
 17 16  2  0
 18 19  1  0
 19 20  2  0
 21 19  1  0
 21 22  1  0
 22 23  1  0
 23 24  1  0
 25 24  1  6
 25 26  1  0
 25 27  1  0
 27 29  1  0
 28 27  2  0
M  END
$$$$
