EIR.pdb
     RDKit          3D

 29 28  0  0  1  0  0  0  0  0999 V2000
    7.5326  -14.2882   20.2185 N   0  0  0  0  0  0  0  0  0  0  0  0
    7.0646  -15.0291   21.4034 C   0  0  1  0  0  0  0  0  0  0  0  0
    7.3395  -16.4756   21.0938 C   0  0  0  0  0  0  0  0  0  0  0  0
    6.5462  -17.0493   19.9711 C   0  0  0  0  0  0  0  0  0  0  0  0
    6.8237  -18.4767   19.7099 C   0  0  0  0  0  0  0  0  0  0  0  0
    7.6341  -19.1734   20.3592 O   0  0  0  0  0  0  0  0  0  0  0  0
    7.8481  -14.6281   22.5890 C   0  0  0  0  0  0  0  0  0  0  0  0
    9.0587  -14.3233   22.4695 O   0  0  0  0  0  0  0  0  0  0  0  0
    6.1398  -19.1177   18.6618 O   0  0  0  0  0  0  0  0  0  0  0  0
    5.7348  -11.6285   26.5315 C   0  0  0  0  0  0  0  0  0  0  0  0
    6.7677  -12.1537   25.5132 C   0  0  0  0  0  0  0  0  0  0  0  0
    7.2360  -13.4797   25.9828 C   0  0  2  0  0  0  0  0  0  0  0  0
    7.8667  -13.2840   27.3707 C   0  0  0  0  0  0  0  0  0  0  0  0
    8.1364  -14.2518   25.0823 C   0  0  2  0  0  0  0  0  0  0  0  0
    7.2969  -14.5644   23.8975 N   0  0  0  0  0  0  0  0  0  0  0  0
    8.6859  -15.4988   25.6081 C   0  0  0  0  0  0  0  0  0  0  0  0
    7.8788  -16.3966   26.0489 O   0  0  0  0  0  0  0  0  0  0  0  0
   12.5896  -22.7368   24.2786 N   0  0  0  0  0  0  0  0  0  0  0  0
   13.4455  -21.5972   24.1573 C   0  0  0  0  0  0  0  0  0  0  0  0
   14.7138  -21.7400   24.0273 N   0  0  0  0  0  0  0  0  0  0  0  0
   12.8834  -20.3029   24.1811 N   0  0  0  0  0  0  0  0  0  0  0  0
   11.8984  -19.8916   25.1534 C   0  0  0  0  0  0  0  0  0  0  0  0
   12.4048  -18.7468   26.0315 C   0  0  0  0  0  0  0  0  0  0  0  0
   11.8838  -17.4252   25.5508 C   0  0  0  0  0  0  0  0  0  0  0  0
   10.5146  -17.1720   26.0747 C   0  0  2  0  0  0  0  0  0  0  0  0
   10.0374  -15.8427   25.6869 N   0  0  0  0  0  0  0  0  0  0  0  0
   10.4354  -17.2445   27.5315 C   0  0  0  0  0  0  0  0  0  0  0  0
   10.5664  -16.2230   28.2392 O   0  0  0  0  0  0  0  0  0  0  0  0
   10.2133  -18.4344   28.1982 O   0  0  0  0  0  0  0  0  0  0  0  0
  2  1  1  6
  2  3  1  0
  4  5  1  0
  4  3  1  0
  5  6  2  0
  7  2  1  0
  7  8  2  0
  9  5  1  0
 11 10  1  0
 12 11  1  0
 12 14  1  0
 12 13  1  1
 14 15  1  6
 15  7  1  0
 16 26  1  0
 16 14  1  0
 17 16  2  0
 18 19  1  0
 19 20  2  0
 21 19  1  0
 21 22  1  0
 22 23  1  0
 23 24  1  0
 25 24  1  1
 25 26  1  0
 25 27  1  0
 27 29  1  0
 28 27  2  0
M  END
$$$$
