EIR.pdb
     RDKit          3D

 29 28  0  0  1  0  0  0  0  0999 V2000
   10.4053  -16.7674   16.0624 N   0  0  0  0  0  0  0  0  0  0  0  0
    9.8646  -17.3762   17.2909 C   0  0  1  0  0  0  0  0  0  0  0  0
   10.7420  -18.5696   17.5546 C   0  0  0  0  0  0  0  0  0  0  0  0
   10.8637  -19.5336   16.4256 C   0  0  0  0  0  0  0  0  0  0  0  0
   11.7438  -20.6850   16.7132 C   0  0  0  0  0  0  0  0  0  0  0  0
   11.4089  -21.6847   17.3857 O   0  0  0  0  0  0  0  0  0  0  0  0
    9.9825  -16.4276   18.4162 C   0  0  0  0  0  0  0  0  0  0  0  0
   11.0096  -15.7181   18.5359 O   0  0  0  0  0  0  0  0  0  0  0  0
   13.0547  -20.6775   16.2051 O   0  0  0  0  0  0  0  0  0  0  0  0
    6.0880  -13.0992   19.6295 C   0  0  0  0  0  0  0  0  0  0  0  0
    7.5198  -13.6373   19.4296 C   0  0  0  0  0  0  0  0  0  0  0  0
    7.8170  -14.5659   20.5466 C   0  0  2  0  0  0  0  0  0  0  0  0
    7.6453  -13.7835   21.8584 C   0  0  0  0  0  0  0  0  0  0  0  0
    9.1177  -15.2903   20.5138 C   0  0  2  0  0  0  0  0  0  0  0  0
    8.9719  -16.2645   19.4022 N   0  0  0  0  0  0  0  0  0  0  0  0
    9.5014  -16.0146   21.7228 C   0  0  0  0  0  0  0  0  0  0  0  0
    8.9610  -17.1559   21.9614 O   0  0  0  0  0  0  0  0  0  0  0  0
   18.1267  -16.3571   23.9017 N   0  0  0  0  0  0  0  0  0  0  0  0
   17.2408  -17.4763   23.8107 C   0  0  0  0  0  0  0  0  0  0  0  0
   17.5663  -18.5177   23.1359 N   0  0  0  0  0  0  0  0  0  0  0  0
   15.9954  -17.4296   24.4730 N   0  0  0  0  0  0  0  0  0  0  0  0
   15.0303  -16.3773   24.2586 C   0  0  0  0  0  0  0  0  0  0  0  0
   13.5992  -16.9141   24.2136 C   0  0  0  0  0  0  0  0  0  0  0  0
   12.7182  -16.0361   23.3756 C   0  0  0  0  0  0  0  0  0  0  0  0
   11.3084  -16.5100   23.4112 C   0  0  2  0  0  0  0  0  0  0  0  0
   10.4248  -15.5961   22.6836 N   0  0  0  0  0  0  0  0  0  0  0  0
   10.7768  -16.6271   24.7668 C   0  0  0  0  0  0  0  0  0  0  0  0
   11.3027  -17.3896   25.6054 O   0  0  0  0  0  0  0  0  0  0  0  0
    9.6753  -15.9079   25.1899 O   0  0  0  0  0  0  0  0  0  0  0  0
  2  1  1  6
  2  3  1  0
  4  5  1  0
  4  3  1  0
  5  6  2  0
  7  2  1  0
  7  8  2  0
  9  5  1  0
 11 10  1  0
 12 11  1  0
 12 14  1  0
 12 13  1  1
 14 15  1  6
 15  7  1  0
 16 26  1  0
 16 14  1  0
 17 16  2  0
 18 19  1  0
 19 20  2  0
 21 19  1  0
 21 22  1  0
 22 23  1  0
 23 24  1  0
 25 24  1  1
 25 26  1  0
 25 27  1  0
 27 29  1  0
 28 27  2  0
M  END
$$$$
