EIR.pdb
     RDKit          3D

 29 28  0  0  1  0  0  0  0  0999 V2000
   12.0426  -16.8161   18.1701 N   0  0  0  0  0  0  0  0  0  0  0  0
   10.7811  -17.3742   18.6889 C   0  0  1  0  0  0  0  0  0  0  0  0
   11.0799  -18.8220   18.9687 C   0  0  0  0  0  0  0  0  0  0  0  0
   10.0015  -19.5714   19.6719 C   0  0  0  0  0  0  0  0  0  0  0  0
   10.3359  -20.9837   19.9483 C   0  0  0  0  0  0  0  0  0  0  0  0
   11.0165  -21.3753   20.9216 O   0  0  0  0  0  0  0  0  0  0  0  0
   10.4145  -16.7006   19.9507 C   0  0  0  0  0  0  0  0  0  0  0  0
   11.2655  -16.5649   20.8617 O   0  0  0  0  0  0  0  0  0  0  0  0
    9.8663  -21.9745   19.0682 O   0  0  0  0  0  0  0  0  0  0  0  0
    7.0115  -12.5322   19.7746 C   0  0  0  0  0  0  0  0  0  0  0  0
    8.2431  -13.3818   20.1499 C   0  0  0  0  0  0  0  0  0  0  0  0
    7.7957  -14.4446   21.0820 C   0  0  2  0  0  0  0  0  0  0  0  0
    7.1918  -13.7553   22.3159 C   0  0  0  0  0  0  0  0  0  0  0  0
    8.7898  -15.4823   21.4730 C   0  0  2  0  0  0  0  0  0  0  0  0
    9.1161  -16.1805   20.2032 N   0  0  0  0  0  0  0  0  0  0  0  0
    8.3582  -16.4742   22.4543 C   0  0  0  0  0  0  0  0  0  0  0  0
    7.3934  -17.2679   22.1529 O   0  0  0  0  0  0  0  0  0  0  0  0
   11.5721  -14.4227   27.3710 N   0  0  0  0  0  0  0  0  0  0  0  0
   10.6258  -14.3896   28.4430 C   0  0  0  0  0  0  0  0  0  0  0  0
   10.4124  -13.3065   29.0967 N   0  0  0  0  0  0  0  0  0  0  0  0
    9.9210  -15.5645   28.7815 N   0  0  0  0  0  0  0  0  0  0  0  0
   10.0043  -16.7812   28.0084 C   0  0  0  0  0  0  0  0  0  0  0  0
    8.9395  -16.8366   26.9124 C   0  0  0  0  0  0  0  0  0  0  0  0
    9.3193  -17.8115   25.8380 C   0  0  0  0  0  0  0  0  0  0  0  0
    8.4131  -17.6880   24.6646 C   0  0  2  0  0  0  0  0  0  0  0  0
    8.8953  -16.6696   23.7289 N   0  0  0  0  0  0  0  0  0  0  0  0
    7.0481  -17.3179   25.0305 C   0  0  0  0  0  0  0  0  0  0  0  0
    6.6397  -16.1436   24.9059 O   0  0  0  0  0  0  0  0  0  0  0  0
    6.1448  -18.2374   25.5286 O   0  0  0  0  0  0  0  0  0  0  0  0
  2  1  1  1
  2  3  1  0
  4  5  1  0
  4  3  1  0
  5  6  2  0
  7  2  1  0
  7  8  2  0
  9  5  1  0
 11 10  1  0
 12 11  1  0
 12 14  1  0
 12 13  1  1
 14 15  1  6
 15  7  1  0
 16 26  1  0
 16 14  1  0
 17 16  2  0
 18 19  1  0
 19 20  2  0
 21 19  1  0
 21 22  1  0
 22 23  1  0
 23 24  1  0
 25 24  1  1
 25 26  1  0
 25 27  1  0
 27 29  1  0
 28 27  2  0
M  END
$$$$
