EIR.pdb
     RDKit          3D

 29 28  0  0  1  0  0  0  0  0999 V2000
    6.5321  -14.4498   21.1687 N   0  0  0  0  0  0  0  0  0  0  0  0
    7.1782  -15.5710   21.8739 C   0  0  1  0  0  0  0  0  0  0  0  0
    8.0618  -16.2228   20.8453 C   0  0  0  0  0  0  0  0  0  0  0  0
    7.5150  -17.4639   20.2292 C   0  0  0  0  0  0  0  0  0  0  0  0
    8.5339  -18.3006   19.5623 C   0  0  0  0  0  0  0  0  0  0  0  0
    8.2893  -19.3585   18.9420 O   0  0  0  0  0  0  0  0  0  0  0  0
    8.0138  -15.0565   22.9771 C   0  0  0  0  0  0  0  0  0  0  0  0
    9.2158  -14.7635   22.7721 O   0  0  0  0  0  0  0  0  0  0  0  0
    9.8800  -17.8981   19.6159 O   0  0  0  0  0  0  0  0  0  0  0  0
    6.1439  -11.2983   26.0777 C   0  0  0  0  0  0  0  0  0  0  0  0
    7.1057  -12.1474   25.2212 C   0  0  0  0  0  0  0  0  0  0  0  0
    7.5570  -13.2943   26.0453 C   0  0  2  0  0  0  0  0  0  0  0  0
    8.2597  -12.7245   27.2878 C   0  0  0  0  0  0  0  0  0  0  0  0
    8.3895  -14.3354   25.3814 C   0  0  2  0  0  0  0  0  0  0  0  0
    7.5239  -14.8672   24.2979 N   0  0  0  0  0  0  0  0  0  0  0  0
    8.8385  -15.4505   26.2109 C   0  0  0  0  0  0  0  0  0  0  0  0
    7.9595  -16.2162   26.7518 O   0  0  0  0  0  0  0  0  0  0  0  0
   15.4522  -19.5005   23.4998 N   0  0  0  0  0  0  0  0  0  0  0  0
   14.2242  -19.2656   22.8051 C   0  0  0  0  0  0  0  0  0  0  0  0
   14.1524  -19.4095   21.5323 N   0  0  0  0  0  0  0  0  0  0  0  0
   13.0811  -18.8713   23.5328 N   0  0  0  0  0  0  0  0  0  0  0  0
   13.1392  -18.4177   24.9024 C   0  0  0  0  0  0  0  0  0  0  0  0
   11.7638  -18.0027   25.4263 C   0  0  0  0  0  0  0  0  0  0  0  0
   11.8483  -17.5183   26.8432 C   0  0  0  0  0  0  0  0  0  0  0  0
   10.5439  -16.9617   27.2925 C   0  0  2  0  0  0  0  0  0  0  0  0
   10.1625  -15.7960   26.4919 N   0  0  0  0  0  0  0  0  0  0  0  0
   10.5533  -16.5342   28.6893 C   0  0  0  0  0  0  0  0  0  0  0  0
   10.5557  -15.3230   28.9963 O   0  0  0  0  0  0  0  0  0  0  0  0
   10.5596  -17.4373   29.7352 O   0  0  0  0  0  0  0  0  0  0  0  0
  2  1  1  6
  2  3  1  0
  4  5  1  0
  4  3  1  0
  5  6  2  0
  7  2  1  0
  7  8  2  0
  9  5  1  0
 11 10  1  0
 12 11  1  0
 12 14  1  0
 12 13  1  1
 14 15  1  6
 15  7  1  0
 16 26  1  0
 16 14  1  0
 17 16  2  0
 18 19  1  0
 19 20  2  0
 21 19  1  0
 21 22  1  0
 22 23  1  0
 23 24  1  0
 25 24  1  6
 25 26  1  0
 25 27  1  0
 27 29  1  0
 28 27  2  0
M  END
$$$$
