EIR.pdb
     RDKit          3D

 29 28  0  0  1  0  0  0  0  0999 V2000
    9.3176  -14.9781   14.0694 N   0  0  0  0  0  0  0  0  0  0  0  0
    9.3623  -15.9583   15.1691 C   0  0  1  0  0  0  0  0  0  0  0  0
   10.4391  -16.9342   14.7796 C   0  0  0  0  0  0  0  0  0  0  0  0
   10.1823  -17.7014   13.5288 C   0  0  0  0  0  0  0  0  0  0  0  0
   11.2469  -18.6682   13.1900 C   0  0  0  0  0  0  0  0  0  0  0  0
   12.4611  -18.3839   13.0958 O   0  0  0  0  0  0  0  0  0  0  0  0
    9.7467  -15.2862   16.4264 C   0  0  0  0  0  0  0  0  0  0  0  0
   10.7366  -14.5168   16.4514 O   0  0  0  0  0  0  0  0  0  0  0  0
   10.8930  -20.0080   12.9525 O   0  0  0  0  0  0  0  0  0  0  0  0
    6.1869  -12.9050   19.3044 C   0  0  0  0  0  0  0  0  0  0  0  0
    7.4920  -13.2860   18.5756 C   0  0  0  0  0  0  0  0  0  0  0  0
    8.2621  -14.1896   19.4639 C   0  0  2  0  0  0  0  0  0  0  0  0
    8.5647  -13.4194   20.7591 C   0  0  0  0  0  0  0  0  0  0  0  0
    9.4916  -14.8198   18.9081 C   0  0  2  0  0  0  0  0  0  0  0  0
    9.0412  -15.4634   17.6475 N   0  0  0  0  0  0  0  0  0  0  0  0
   10.1510  -15.8256   19.7369 C   0  0  0  0  0  0  0  0  0  0  0  0
    9.9926  -17.0683   19.4501 O   0  0  0  0  0  0  0  0  0  0  0  0
   17.0076  -12.8695   16.9781 N   0  0  0  0  0  0  0  0  0  0  0  0
   17.5051  -13.9993   17.7005 C   0  0  0  0  0  0  0  0  0  0  0  0
   18.7145  -14.3979   17.5435 N   0  0  0  0  0  0  0  0  0  0  0  0
   16.6521  -14.6798   18.5954 N   0  0  0  0  0  0  0  0  0  0  0  0
   15.2698  -14.3136   18.7955 C   0  0  0  0  0  0  0  0  0  0  0  0
   14.5428  -15.3015   19.7087 C   0  0  0  0  0  0  0  0  0  0  0  0
   13.0758  -14.9971   19.7758 C   0  0  0  0  0  0  0  0  0  0  0  0
   12.4166  -15.7947   20.8448 C   0  0  2  0  0  0  0  0  0  0  0  0
   10.9672  -15.5838   20.8443 N   0  0  0  0  0  0  0  0  0  0  0  0
   12.8946  -15.4635   22.1849 C   0  0  0  0  0  0  0  0  0  0  0  0
   12.2442  -14.7055   22.9358 O   0  0  0  0  0  0  0  0  0  0  0  0
   14.0792  -15.9658   22.6887 O   0  0  0  0  0  0  0  0  0  0  0  0
  2  1  1  6
  2  3  1  0
  4  5  1  0
  4  3  1  0
  5  6  2  0
  7  2  1  0
  7  8  2  0
  9  5  1  0
 11 10  1  0
 12 11  1  0
 12 14  1  0
 12 13  1  1
 14 15  1  6
 15  7  1  0
 16 26  1  0
 16 14  1  0
 17 16  2  0
 18 19  1  0
 19 20  2  0
 21 19  1  0
 21 22  1  0
 22 23  1  0
 23 24  1  0
 25 24  1  6
 25 26  1  0
 25 27  1  0
 27 29  1  0
 28 27  2  0
M  END
$$$$
