EIR.pdb
     RDKit          3D

 29 28  0  0  1  0  0  0  0  0999 V2000
   10.8559  -18.0518   27.1164 N   0  0  0  0  0  0  0  0  0  0  0  0
   10.6260  -16.9838   26.1271 C   0  0  1  0  0  0  0  0  0  0  0  0
   10.8544  -17.6341   24.7897 C   0  0  0  0  0  0  0  0  0  0  0  0
   12.2803  -17.7620   24.3779 C   0  0  0  0  0  0  0  0  0  0  0  0
   12.4693  -18.4272   23.0723 C   0  0  0  0  0  0  0  0  0  0  0  0
   11.9392  -18.0558   22.0023 O   0  0  0  0  0  0  0  0  0  0  0  0
    9.2280  -16.5159   26.2080 C   0  0  0  0  0  0  0  0  0  0  0  0
    8.3499  -17.2440   26.7291 O   0  0  0  0  0  0  0  0  0  0  0  0
   13.2996  -19.5599   23.0045 O   0  0  0  0  0  0  0  0  0  0  0  0
    7.9613  -11.4720   27.2526 C   0  0  0  0  0  0  0  0  0  0  0  0
    7.9688  -13.0143   27.2203 C   0  0  0  0  0  0  0  0  0  0  0  0
    7.3171  -13.4462   25.9605 C   0  0  2  0  0  0  0  0  0  0  0  0
    5.8717  -12.9243   25.9835 C   0  0  0  0  0  0  0  0  0  0  0  0
    7.3649  -14.8955   25.6211 C   0  0  2  0  0  0  0  0  0  0  0  0
    8.8037  -15.2516   25.7162 N   0  0  0  0  0  0  0  0  0  0  0  0
    6.8741  -15.2813   24.3006 C   0  0  0  0  0  0  0  0  0  0  0  0
    6.6659  -14.3659   23.4230 O   0  0  0  0  0  0  0  0  0  0  0  0
    9.4102  -12.7906   19.9180 N   0  0  0  0  0  0  0  0  0  0  0  0
    8.3694  -13.2368   19.0441 C   0  0  0  0  0  0  0  0  0  0  0  0
    8.5110  -13.1761   17.7704 N   0  0  0  0  0  0  0  0  0  0  0  0
    7.1750  -13.7491   19.5942 N   0  0  0  0  0  0  0  0  0  0  0  0
    7.1459  -14.5736   20.7792 C   0  0  0  0  0  0  0  0  0  0  0  0
    7.7086  -15.9711   20.5175 C   0  0  0  0  0  0  0  0  0  0  0  0
    7.8774  -16.7347   21.7973 C   0  0  0  0  0  0  0  0  0  0  0  0
    6.5626  -16.9694   22.4527 C   0  0  2  0  0  0  0  0  0  0  0  0
    6.5980  -16.5791   23.8639 N   0  0  0  0  0  0  0  0  0  0  0  0
    6.1410  -18.3674   22.4081 C   0  0  0  0  0  0  0  0  0  0  0  0
    6.3677  -19.1433   23.3610 O   0  0  0  0  0  0  0  0  0  0  0  0
    5.4754  -18.9009   21.3210 O   0  0  0  0  0  0  0  0  0  0  0  0
  2  1  1  1
  2  3  1  0
  4  5  1  0
  4  3  1  0
  5  6  2  0
  7  2  1  0
  7  8  2  0
  9  5  1  0
 11 10  1  0
 12 11  1  0
 12 14  1  0
 12 13  1  1
 14 15  1  6
 15  7  1  0
 16 26  1  0
 16 14  1  0
 17 16  2  0
 18 19  1  0
 19 20  2  0
 21 19  1  0
 21 22  1  0
 22 23  1  0
 23 24  1  0
 25 24  1  1
 25 26  1  0
 25 27  1  0
 27 29  1  0
 28 27  2  0
M  END
$$$$
