EIR.pdb
     RDKit          3D

 29 28  0  0  1  0  0  0  0  0999 V2000
    7.6575  -14.4362   20.3577 N   0  0  0  0  0  0  0  0  0  0  0  0
    7.5973  -15.4528   21.4231 C   0  0  1  0  0  0  0  0  0  0  0  0
    8.3157  -16.6499   20.8622 C   0  0  0  0  0  0  0  0  0  0  0  0
    7.5114  -17.9018   20.7932 C   0  0  0  0  0  0  0  0  0  0  0  0
    8.2661  -19.0721   20.2998 C   0  0  0  0  0  0  0  0  0  0  0  0
    9.4723  -19.0524   19.9705 O   0  0  0  0  0  0  0  0  0  0  0  0
    8.3160  -14.9707   22.6194 C   0  0  0  0  0  0  0  0  0  0  0  0
    9.4832  -14.5242   22.5148 O   0  0  0  0  0  0  0  0  0  0  0  0
    7.6012  -20.3057   20.1840 O   0  0  0  0  0  0  0  0  0  0  0  0
    5.7111  -11.8428   25.7403 C   0  0  0  0  0  0  0  0  0  0  0  0
    6.8817  -12.4477   24.9381 C   0  0  0  0  0  0  0  0  0  0  0  0
    7.4801  -13.5317   25.7536 C   0  0  2  0  0  0  0  0  0  0  0  0
    8.0629  -12.8897   27.0226 C   0  0  0  0  0  0  0  0  0  0  0  0
    8.4723  -14.4243   25.0929 C   0  0  2  0  0  0  0  0  0  0  0  0
    7.7480  -14.9820   23.9222 N   0  0  0  0  0  0  0  0  0  0  0  0
    8.9979  -15.5310   25.8880 C   0  0  0  0  0  0  0  0  0  0  0  0
    8.1764  -16.2702   26.5440 O   0  0  0  0  0  0  0  0  0  0  0  0
   15.8368  -20.2913   28.5766 N   0  0  0  0  0  0  0  0  0  0  0  0
   15.9537  -18.9136   28.2104 C   0  0  0  0  0  0  0  0  0  0  0  0
   16.8877  -18.1818   28.6984 N   0  0  0  0  0  0  0  0  0  0  0  0
   15.0288  -18.3576   27.3009 N   0  0  0  0  0  0  0  0  0  0  0  0
   14.0043  -19.1370   26.6468 C   0  0  0  0  0  0  0  0  0  0  0  0
   12.5999  -18.7120   27.0772 C   0  0  0  0  0  0  0  0  0  0  0  0
   12.1706  -17.4638   26.3651 C   0  0  0  0  0  0  0  0  0  0  0  0
   10.7916  -17.0730   26.7637 C   0  0  2  0  0  0  0  0  0  0  0  0
   10.3401  -15.8947   26.0201 N   0  0  0  0  0  0  0  0  0  0  0  0
   10.6745  -16.7508   28.1837 C   0  0  0  0  0  0  0  0  0  0  0  0
   10.5199  -17.6468   29.0408 O   0  0  0  0  0  0  0  0  0  0  0  0
   10.7283  -15.4513   28.6504 O   0  0  0  0  0  0  0  0  0  0  0  0
  2  1  1  6
  2  3  1  0
  4  5  1  0
  4  3  1  0
  5  6  2  0
  7  2  1  0
  7  8  2  0
  9  5  1  0
 11 10  1  0
 12 11  1  0
 12 14  1  0
 12 13  1  1
 14 15  1  6
 15  7  1  0
 16 26  1  0
 16 14  1  0
 17 16  2  0
 18 19  1  0
 19 20  2  0
 21 19  1  0
 21 22  1  0
 22 23  1  0
 23 24  1  0
 25 24  1  6
 25 26  1  0
 25 27  1  0
 27 29  1  0
 28 27  2  0
M  END
$$$$
