EIR.pdb
     RDKit          3D

 29 28  0  0  1  0  0  0  0  0999 V2000
    7.5859  -13.9176   20.2314 N   0  0  0  0  0  0  0  0  0  0  0  0
    7.1391  -14.7984   21.3252 C   0  0  1  0  0  0  0  0  0  0  0  0
    7.5673  -16.1808   20.9137 C   0  0  0  0  0  0  0  0  0  0  0  0
    6.8996  -16.7190   19.6957 C   0  0  0  0  0  0  0  0  0  0  0  0
    7.1822  -18.1463   19.4391 C   0  0  0  0  0  0  0  0  0  0  0  0
    8.1154  -18.5680   18.7213 O   0  0  0  0  0  0  0  0  0  0  0  0
    7.8253  -14.4300   22.5796 C   0  0  0  0  0  0  0  0  0  0  0  0
    8.9920  -13.9713   22.5473 O   0  0  0  0  0  0  0  0  0  0  0  0
    6.3563  -19.1166   20.0335 O   0  0  0  0  0  0  0  0  0  0  0  0
    5.4271  -11.7124   26.4106 C   0  0  0  0  0  0  0  0  0  0  0  0
    6.5747  -12.1844   25.4942 C   0  0  0  0  0  0  0  0  0  0  0  0
    7.0043  -13.5258   25.9572 C   0  0  2  0  0  0  0  0  0  0  0  0
    7.5202  -13.3762   27.3972 C   0  0  0  0  0  0  0  0  0  0  0  0
    7.9753  -14.2702   25.1081 C   0  0  2  0  0  0  0  0  0  0  0  0
    7.2257  -14.5677   23.8609 N   0  0  0  0  0  0  0  0  0  0  0  0
    8.5009  -15.5217   25.6474 C   0  0  0  0  0  0  0  0  0  0  0  0
    7.6765  -16.4481   25.9843 O   0  0  0  0  0  0  0  0  0  0  0  0
   13.6447  -18.8100   20.7005 N   0  0  0  0  0  0  0  0  0  0  0  0
   13.3375  -19.8352   21.6495 C   0  0  0  0  0  0  0  0  0  0  0  0
   13.9238  -20.9751   21.5969 N   0  0  0  0  0  0  0  0  0  0  0  0
   12.3779  -19.5848   22.6536 N   0  0  0  0  0  0  0  0  0  0  0  0
   12.5773  -18.6187   23.7079 C   0  0  0  0  0  0  0  0  0  0  0  0
   11.3824  -18.5561   24.6599 C   0  0  0  0  0  0  0  0  0  0  0  0
   11.5982  -17.5299   25.7321 C   0  0  0  0  0  0  0  0  0  0  0  0
   10.3067  -17.1340   26.3556 C   0  0  2  0  0  0  0  0  0  0  0  0
    9.8465  -15.8412   25.8433 N   0  0  0  0  0  0  0  0  0  0  0  0
   10.3849  -17.0125   27.8092 C   0  0  0  0  0  0  0  0  0  0  0  0
   10.4776  -15.8957   28.3621 O   0  0  0  0  0  0  0  0  0  0  0  0
   10.3606  -18.1148   28.6421 O   0  0  0  0  0  0  0  0  0  0  0  0
  2  1  1  6
  2  3  1  0
  4  5  1  0
  4  3  1  0
  5  6  2  0
  7  2  1  0
  7  8  2  0
  9  5  1  0
 11 10  1  0
 12 11  1  0
 12 14  1  0
 12 13  1  1
 14 15  1  6
 15  7  1  0
 16 26  1  0
 16 14  1  0
 17 16  2  0
 18 19  1  0
 19 20  2  0
 21 19  1  0
 21 22  1  0
 22 23  1  0
 23 24  1  0
 25 24  1  6
 25 26  1  0
 25 27  1  0
 27 29  1  0
 28 27  2  0
M  END
$$$$
