EIR.pdb
     RDKit          3D

 29 28  0  0  1  0  0  0  0  0999 V2000
   10.8225  -17.3468   17.4974 N   0  0  0  0  0  0  0  0  0  0  0  0
    9.8032  -17.6999   18.5016 C   0  0  1  0  0  0  0  0  0  0  0  0
   10.1819  -19.0767   18.9755 C   0  0  0  0  0  0  0  0  0  0  0  0
   10.5121  -20.0529   17.8999 C   0  0  0  0  0  0  0  0  0  0  0  0
   10.8595  -21.3994   18.3992 C   0  0  0  0  0  0  0  0  0  0  0  0
   11.8501  -21.6570   19.1177 O   0  0  0  0  0  0  0  0  0  0  0  0
    9.8696  -16.7591   19.6377 C   0  0  0  0  0  0  0  0  0  0  0  0
   10.9552  -16.2055   19.9335 O   0  0  0  0  0  0  0  0  0  0  0  0
   10.0320  -22.4826   18.0545 O   0  0  0  0  0  0  0  0  0  0  0  0
    6.7744  -12.6881   19.8942 C   0  0  0  0  0  0  0  0  0  0  0  0
    7.9881  -13.6314   20.0237 C   0  0  0  0  0  0  0  0  0  0  0  0
    7.8106  -14.4346   21.2573 C   0  0  2  0  0  0  0  0  0  0  0  0
    7.6347  -13.4541   22.4277 C   0  0  0  0  0  0  0  0  0  0  0  0
    8.8412  -15.4650   21.5636 C   0  0  2  0  0  0  0  0  0  0  0  0
    8.7434  -16.4326   20.4410 N   0  0  0  0  0  0  0  0  0  0  0  0
    8.6949  -16.1923   22.8217 C   0  0  0  0  0  0  0  0  0  0  0  0
    7.9945  -17.2697   22.8390 O   0  0  0  0  0  0  0  0  0  0  0  0
   15.8290  -18.3998   22.3990 N   0  0  0  0  0  0  0  0  0  0  0  0
   15.8081  -17.1392   23.0745 C   0  0  0  0  0  0  0  0  0  0  0  0
   16.8748  -16.4346   23.1820 N   0  0  0  0  0  0  0  0  0  0  0  0
   14.5975  -16.6693   23.6270 N   0  0  0  0  0  0  0  0  0  0  0  0
   13.3774  -17.4413   23.6175 C   0  0  0  0  0  0  0  0  0  0  0  0
   12.2452  -16.7309   24.3602 C   0  0  0  0  0  0  0  0  0  0  0  0
   10.9808  -17.5362   24.3168 C   0  0  0  0  0  0  0  0  0  0  0  0
    9.8629  -16.8049   24.9716 C   0  0  2  0  0  0  0  0  0  0  0  0
    9.2519  -15.8410   24.0536 N   0  0  0  0  0  0  0  0  0  0  0  0
   10.2812  -16.0588   26.1558 C   0  0  0  0  0  0  0  0  0  0  0  0
   10.3640  -14.8121   26.1404 O   0  0  0  0  0  0  0  0  0  0  0  0
   10.6042  -16.6855   27.3443 O   0  0  0  0  0  0  0  0  0  0  0  0
  2  1  1  6
  2  3  1  0
  4  5  1  0
  4  3  1  0
  5  6  2  0
  7  2  1  0
  7  8  2  0
  9  5  1  0
 11 10  1  0
 12 11  1  0
 12 14  1  0
 12 13  1  1
 14 15  1  6
 15  7  1  0
 16 26  1  0
 16 14  1  0
 17 16  2  0
 18 19  1  0
 19 20  2  0
 21 19  1  0
 21 22  1  0
 22 23  1  0
 23 24  1  0
 25 24  1  6
 25 26  1  0
 25 27  1  0
 27 29  1  0
 28 27  2  0
M  END
$$$$
