EIR.pdb
     RDKit          3D

 29 28  0  0  1  0  0  0  0  0999 V2000
    8.0036  -14.9091   20.3998 N   0  0  0  0  0  0  0  0  0  0  0  0
    7.2206  -15.2947   21.5874 C   0  0  1  0  0  0  0  0  0  0  0  0
    7.0865  -16.7906   21.4984 C   0  0  0  0  0  0  0  0  0  0  0  0
    7.4747  -17.3889   20.1906 C   0  0  0  0  0  0  0  0  0  0  0  0
    7.2653  -18.8495   20.1145 C   0  0  0  0  0  0  0  0  0  0  0  0
    7.6147  -19.6643   20.9965 O   0  0  0  0  0  0  0  0  0  0  0  0
    7.9634  -14.9451   22.8146 C   0  0  0  0  0  0  0  0  0  0  0  0
    9.2170  -14.9742   22.8212 O   0  0  0  0  0  0  0  0  0  0  0  0
    6.6302  -19.3833   18.9792 O   0  0  0  0  0  0  0  0  0  0  0  0
    5.6175  -11.3497   26.1130 C   0  0  0  0  0  0  0  0  0  0  0  0
    6.6927  -12.0197   25.2328 C   0  0  0  0  0  0  0  0  0  0  0  0
    7.1840  -13.2209   25.9499 C   0  0  2  0  0  0  0  0  0  0  0  0
    7.8051  -12.7488   27.2741 C   0  0  0  0  0  0  0  0  0  0  0  0
    8.1025  -14.1348   25.2158 C   0  0  2  0  0  0  0  0  0  0  0  0
    7.3244  -14.5658   24.0263 N   0  0  0  0  0  0  0  0  0  0  0  0
    8.5619  -15.3233   25.9297 C   0  0  0  0  0  0  0  0  0  0  0  0
    7.7126  -16.2454   26.2126 O   0  0  0  0  0  0  0  0  0  0  0  0
   15.2500  -17.4083   28.9021 N   0  0  0  0  0  0  0  0  0  0  0  0
   14.6639  -18.6930   29.1298 C   0  0  0  0  0  0  0  0  0  0  0  0
   14.8936  -19.3358   30.2161 N   0  0  0  0  0  0  0  0  0  0  0  0
   13.8237  -19.2555   28.1453 N   0  0  0  0  0  0  0  0  0  0  0  0
   13.5417  -18.6046   26.8876 C   0  0  0  0  0  0  0  0  0  0  0  0
   12.6669  -17.3637   27.0693 C   0  0  0  0  0  0  0  0  0  0  0  0
   11.3809  -17.4923   26.3084 C   0  0  0  0  0  0  0  0  0  0  0  0
   10.2673  -16.8202   27.0307 C   0  0  2  0  0  0  0  0  0  0  0  0
    9.8670  -15.5850   26.3531 N   0  0  0  0  0  0  0  0  0  0  0  0
   10.6092  -16.4606   28.4046 C   0  0  0  0  0  0  0  0  0  0  0  0
   10.7233  -15.2659   28.7525 O   0  0  0  0  0  0  0  0  0  0  0  0
   10.8222  -17.4128   29.3832 O   0  0  0  0  0  0  0  0  0  0  0  0
  2  1  1  6
  2  3  1  0
  4  5  1  0
  4  3  1  0
  5  6  2  0
  7  2  1  0
  7  8  2  0
  9  5  1  0
 11 10  1  0
 12 11  1  0
 12 14  1  0
 12 13  1  1
 14 15  1  6
 15  7  1  0
 16 26  1  0
 16 14  1  0
 17 16  2  0
 18 19  1  0
 19 20  2  0
 21 19  1  0
 21 22  1  0
 22 23  1  0
 23 24  1  0
 25 24  1  6
 25 26  1  0
 25 27  1  0
 27 29  1  0
 28 27  2  0
M  END
$$$$
