EIR.pdb
     RDKit          3D

 29 28  0  0  1  0  0  0  0  0999 V2000
    7.8626  -14.1910   20.1759 N   0  0  0  0  0  0  0  0  0  0  0  0
    7.4054  -14.9790   21.3344 C   0  0  1  0  0  0  0  0  0  0  0  0
    7.8610  -16.3854   21.0548 C   0  0  0  0  0  0  0  0  0  0  0  0
    7.1930  -17.0552   19.9041 C   0  0  0  0  0  0  0  0  0  0  0  0
    7.5501  -18.4807   19.7512 C   0  0  0  0  0  0  0  0  0  0  0  0
    8.1519  -19.1587   20.6126 O   0  0  0  0  0  0  0  0  0  0  0  0
    8.0604  -14.4911   22.5645 C   0  0  0  0  0  0  0  0  0  0  0  0
    9.2461  -14.0844   22.5271 O   0  0  0  0  0  0  0  0  0  0  0  0
    7.1984  -19.1420   18.5613 O   0  0  0  0  0  0  0  0  0  0  0  0
    5.6654  -11.3551   26.1609 C   0  0  0  0  0  0  0  0  0  0  0  0
    6.7521  -11.9624   25.2499 C   0  0  0  0  0  0  0  0  0  0  0  0
    7.1666  -13.2587   25.8381 C   0  0  2  0  0  0  0  0  0  0  0  0
    7.6739  -12.9809   27.2620 C   0  0  0  0  0  0  0  0  0  0  0  0
    8.1368  -14.0863   25.0688 C   0  0  2  0  0  0  0  0  0  0  0  0
    7.4089  -14.4530   23.8271 N   0  0  0  0  0  0  0  0  0  0  0  0
    8.6153  -15.3090   25.7085 C   0  0  0  0  0  0  0  0  0  0  0  0
    7.7652  -16.2205   26.0215 O   0  0  0  0  0  0  0  0  0  0  0  0
   10.8579  -20.2693   21.9799 N   0  0  0  0  0  0  0  0  0  0  0  0
   11.2943  -20.9490   23.1603 C   0  0  0  0  0  0  0  0  0  0  0  0
   10.8424  -22.1137   23.4519 N   0  0  0  0  0  0  0  0  0  0  0  0
   12.2334  -20.3271   24.0106 N   0  0  0  0  0  0  0  0  0  0  0  0
   12.1967  -18.9183   24.3251 C   0  0  0  0  0  0  0  0  0  0  0  0
   11.9706  -18.6710   25.8170 C   0  0  0  0  0  0  0  0  0  0  0  0
   11.7788  -17.2108   26.1003 C   0  0  0  0  0  0  0  0  0  0  0  0
   10.3760  -16.9288   26.5074 C   0  0  2  0  0  0  0  0  0  0  0  0
    9.9402  -15.6151   26.0283 N   0  0  0  0  0  0  0  0  0  0  0  0
   10.1861  -16.9381   27.9558 C   0  0  0  0  0  0  0  0  0  0  0  0
   10.0593  -15.8747   28.5996 O   0  0  0  0  0  0  0  0  0  0  0  0
   10.1369  -18.1115   28.6839 O   0  0  0  0  0  0  0  0  0  0  0  0
  2  1  1  6
  2  3  1  0
  4  5  1  0
  4  3  1  0
  5  6  2  0
  7  2  1  0
  7  8  2  0
  9  5  1  0
 11 10  1  0
 12 11  1  0
 12 14  1  0
 12 13  1  1
 14 15  1  6
 15  7  1  0
 16 26  1  0
 16 14  1  0
 17 16  2  0
 18 19  1  0
 19 20  2  0
 21 19  1  0
 21 22  1  0
 22 23  1  0
 23 24  1  0
 25 24  1  1
 25 26  1  0
 25 27  1  0
 27 29  1  0
 28 27  2  0
M  END
$$$$
