EIR.pdb
     RDKit          3D

 29 28  0  0  1  0  0  0  0  0999 V2000
    9.3533  -16.5943   15.1904 N   0  0  0  0  0  0  0  0  0  0  0  0
    8.7446  -17.0978   16.4345 C   0  0  1  0  0  0  0  0  0  0  0  0
    9.1293  -18.5510   16.4976 C   0  0  0  0  0  0  0  0  0  0  0  0
    8.7895  -19.2459   17.7707 C   0  0  0  0  0  0  0  0  0  0  0  0
    9.2385  -20.6525   17.8236 C   0  0  0  0  0  0  0  0  0  0  0  0
    8.4815  -21.6342   17.9878 O   0  0  0  0  0  0  0  0  0  0  0  0
    9.3192  -16.3917   17.5970 C   0  0  0  0  0  0  0  0  0  0  0  0
   10.5489  -16.1501   17.6416 O   0  0  0  0  0  0  0  0  0  0  0  0
   10.6095  -20.9304   17.6816 O   0  0  0  0  0  0  0  0  0  0  0  0
    6.2287  -12.6812   20.0858 C   0  0  0  0  0  0  0  0  0  0  0  0
    7.4944  -13.2719   19.4311 C   0  0  0  0  0  0  0  0  0  0  0  0
    8.0143  -14.3355   20.3237 C   0  0  2  0  0  0  0  0  0  0  0  0
    8.3696  -13.6803   21.6678 C   0  0  0  0  0  0  0  0  0  0  0  0
    9.1352  -15.1746   19.8165 C   0  0  2  0  0  0  0  0  0  0  0  0
    8.5394  -15.9556   18.7025 N   0  0  0  0  0  0  0  0  0  0  0  0
    9.7466  -16.1032   20.7638 C   0  0  0  0  0  0  0  0  0  0  0  0
    9.0898  -17.1483   21.1215 O   0  0  0  0  0  0  0  0  0  0  0  0
   16.3732  -19.3921   24.7173 N   0  0  0  0  0  0  0  0  0  0  0  0
   16.2618  -20.3395   23.6515 C   0  0  0  0  0  0  0  0  0  0  0  0
   16.9254  -21.4373   23.6773 N   0  0  0  0  0  0  0  0  0  0  0  0
   15.4106  -20.0591   22.5613 N   0  0  0  0  0  0  0  0  0  0  0  0
   15.0317  -18.7175   22.1849 C   0  0  0  0  0  0  0  0  0  0  0  0
   13.6133  -18.3744   22.6415 C   0  0  0  0  0  0  0  0  0  0  0  0
   12.9963  -17.3343   21.7544 C   0  0  0  0  0  0  0  0  0  0  0  0
   11.6126  -17.0129   22.1963 C   0  0  2  0  0  0  0  0  0  0  0  0
   11.0112  -15.9840   21.3449 N   0  0  0  0  0  0  0  0  0  0  0  0
   11.5491  -16.5195   23.5698 C   0  0  0  0  0  0  0  0  0  0  0  0
   11.8302  -17.2586   24.5374 O   0  0  0  0  0  0  0  0  0  0  0  0
   11.1789  -15.2224   23.8694 O   0  0  0  0  0  0  0  0  0  0  0  0
  2  1  1  6
  2  3  1  0
  4  5  1  0
  4  3  1  0
  5  6  2  0
  7  2  1  0
  7  8  2  0
  9  5  1  0
 11 10  1  0
 12 11  1  0
 12 14  1  0
 12 13  1  1
 14 15  1  6
 15  7  1  0
 16 26  1  0
 16 14  1  0
 17 16  2  0
 18 19  1  0
 19 20  2  0
 21 19  1  0
 21 22  1  0
 22 23  1  0
 23 24  1  0
 25 24  1  6
 25 26  1  0
 25 27  1  0
 27 29  1  0
 28 27  2  0
M  END
$$$$
