EIR.pdb
     RDKit          3D

 29 28  0  0  1  0  0  0  0  0999 V2000
    7.6873  -12.2343   19.6806 N   0  0  0  0  0  0  0  0  0  0  0  0
    7.2916  -13.4675   20.3840 C   0  0  1  0  0  0  0  0  0  0  0  0
    7.8238  -14.5898   19.5350 C   0  0  0  0  0  0  0  0  0  0  0  0
    7.5661  -15.9612   20.0563 C   0  0  0  0  0  0  0  0  0  0  0  0
    8.1189  -17.0378   19.2087 C   0  0  0  0  0  0  0  0  0  0  0  0
    9.1807  -17.6543   19.4458 O   0  0  0  0  0  0  0  0  0  0  0  0
    7.9334  -13.5163   21.7129 C   0  0  0  0  0  0  0  0  0  0  0  0
    9.1329  -13.1756   21.8452 O   0  0  0  0  0  0  0  0  0  0  0  0
    7.4183  -17.4121   18.0485 O   0  0  0  0  0  0  0  0  0  0  0  0
    5.3493  -11.6879   25.9660 C   0  0  0  0  0  0  0  0  0  0  0  0
    6.4790  -11.9862   24.9589 C   0  0  0  0  0  0  0  0  0  0  0  0
    6.8958  -13.3966   25.1471 C   0  0  2  0  0  0  0  0  0  0  0  0
    7.3290  -13.5606   26.6126 C   0  0  0  0  0  0  0  0  0  0  0  0
    7.9201  -13.9434   24.2146 C   0  0  2  0  0  0  0  0  0  0  0  0
    7.2535  -13.9390   22.8873 N   0  0  0  0  0  0  0  0  0  0  0  0
    8.4091  -15.2924   24.4876 C   0  0  0  0  0  0  0  0  0  0  0  0
    7.5596  -16.2493   24.6063 O   0  0  0  0  0  0  0  0  0  0  0  0
   13.5178  -16.4633   19.3258 N   0  0  0  0  0  0  0  0  0  0  0  0
   13.8777  -15.7888   20.5346 C   0  0  0  0  0  0  0  0  0  0  0  0
   14.7023  -14.8061   20.5172 N   0  0  0  0  0  0  0  0  0  0  0  0
   13.3163  -16.2127   21.7580 N   0  0  0  0  0  0  0  0  0  0  0  0
   12.5066  -17.4019   21.8809 C   0  0  0  0  0  0  0  0  0  0  0  0
   11.2154  -17.1372   22.6561 C   0  0  0  0  0  0  0  0  0  0  0  0
   11.4055  -17.3824   24.1234 C   0  0  0  0  0  0  0  0  0  0  0  0
   10.1665  -17.0584   24.8806 C   0  0  2  0  0  0  0  0  0  0  0  0
    9.7435  -15.6775   24.6366 N   0  0  0  0  0  0  0  0  0  0  0  0
   10.3219  -17.2072   26.3254 C   0  0  0  0  0  0  0  0  0  0  0  0
   10.3289  -16.2128   27.0822 O   0  0  0  0  0  0  0  0  0  0  0  0
   10.4675  -18.4428   26.9266 O   0  0  0  0  0  0  0  0  0  0  0  0
  2  1  1  6
  2  3  1  0
  4  5  1  0
  4  3  1  0
  5  6  2  0
  7  2  1  0
  7  8  2  0
  9  5  1  0
 11 10  1  0
 12 11  1  0
 12 14  1  0
 12 13  1  1
 14 15  1  6
 15  7  1  0
 16 26  1  0
 16 14  1  0
 17 16  2  0
 18 19  1  0
 19 20  2  0
 21 19  1  0
 21 22  1  0
 22 23  1  0
 23 24  1  0
 25 24  1  6
 25 26  1  0
 25 27  1  0
 27 29  1  0
 28 27  2  0
M  END
$$$$
