DST.pdb
     RDKit          3D

 22 21  0  0  1  0  0  0  0  0999 V2000
   16.1129  -11.7174  -16.5800 N   0  0  0  0  0  0  0  0  0  0  0  0
   15.9471  -10.8240  -15.4718 C   0  0  1  0  0  0  0  0  0  0  0  0
   16.2002  -11.4860  -14.1485 C   0  0  0  0  0  0  0  0  0  0  0  0
   15.2057  -12.5537  -13.8599 C   0  0  0  0  0  0  0  0  0  0  0  0
   14.0238  -12.3885  -14.2483 O   0  0  0  0  0  0  0  0  0  0  0  0
   16.8983   -9.6868  -15.6126 C   0  0  0  0  0  0  0  0  0  0  0  0
   18.0731   -9.9062  -16.0111 O   0  0  0  0  0  0  0  0  0  0  0  0
   15.5363  -13.7132  -13.1836 O   0  0  0  0  0  0  0  0  0  0  0  0
   17.6906   -4.9205  -16.0562 O   0  0  0  0  0  0  0  0  0  0  0  0
   16.8080   -5.9317  -15.7317 C   0  0  0  0  0  0  0  0  0  0  0  0
   17.4560   -7.2755  -15.5871 C   0  0  2  0  0  0  0  0  0  0  0  0
   16.5585   -8.3436  -15.3201 N   0  0  0  0  0  0  0  0  0  0  0  0
   18.4391   -7.1585  -14.4466 C   0  0  0  0  0  0  0  0  0  0  0  0
   18.0290   -7.3073  -13.2687 O   0  0  0  0  0  0  0  0  0  0  0  0
   22.6228   -7.9507  -14.7602 C   0  0  0  0  0  0  0  0  0  0  0  0
   21.7256   -7.8829  -13.5479 C   0  0  1  0  0  0  0  0  0  0  0  0
   22.5301   -7.6819  -12.4231 O   0  0  0  0  0  0  0  0  0  0  0  0
   20.8010   -6.7100  -13.6854 C   0  0  2  0  0  0  0  0  0  0  0  0
   19.7996   -6.8854  -14.7092 N   0  0  0  0  0  0  0  0  0  0  0  0
   21.5402   -5.4214  -13.8045 C   0  0  0  0  0  0  0  0  0  0  0  0
   22.3517   -5.0813  -12.9218 O   0  0  0  0  0  0  0  0  0  0  0  0
   21.3674   -4.5644  -14.8690 O   0  0  0  0  0  0  0  0  0  0  0  0
  2  1  1  6
  2  6  1  0
  2  3  1  0
  3  4  1  0
  4  8  1  0
  5  4  2  0
  6 12  1  0
  7  6  2  0
 10  9  1  0
 11 10  1  1
 11 13  1  0
 12 11  1  0
 13 14  2  0
 13 19  1  0
 16 15  1  6
 17 16  1  0
 18 16  1  0
 18 20  1  0
 18 19  1  6
 20 22  1  0
 21 20  2  0
M  END
$$$$
