DST.pdb
     RDKit          3D

 22 21  0  0  1  0  0  0  0  0999 V2000
   15.4548   -9.7695   -9.3283 N   0  0  0  0  0  0  0  0  0  0  0  0
   15.4958   -9.6583  -10.7564 C   0  0  1  0  0  0  0  0  0  0  0  0
   14.1290   -9.6185  -11.3759 C   0  0  0  0  0  0  0  0  0  0  0  0
   13.3482  -10.8502  -11.0834 C   0  0  0  0  0  0  0  0  0  0  0  0
   12.5000  -10.8131  -10.1592 O   0  0  0  0  0  0  0  0  0  0  0  0
   16.2125   -8.4075  -11.1302 C   0  0  0  0  0  0  0  0  0  0  0  0
   16.3217   -8.0945  -12.3457 O   0  0  0  0  0  0  0  0  0  0  0  0
   13.5236  -12.0257  -11.7895 O   0  0  0  0  0  0  0  0  0  0  0  0
   17.6230   -5.6491   -8.2711 O   0  0  0  0  0  0  0  0  0  0  0  0
   17.3517   -5.2167   -9.5542 C   0  0  0  0  0  0  0  0  0  0  0  0
   17.4010   -6.3068  -10.5818 C   0  0  2  0  0  0  0  0  0  0  0  0
   16.7925   -7.5273  -10.1847 N   0  0  0  0  0  0  0  0  0  0  0  0
   18.8614   -6.5548  -10.8762 C   0  0  0  0  0  0  0  0  0  0  0  0
   19.5848   -7.0702   -9.9880 O   0  0  0  0  0  0  0  0  0  0  0  0
   20.5059   -8.7616  -13.1596 C   0  0  0  0  0  0  0  0  0  0  0  0
   20.9533   -7.3976  -13.6269 C   0  0  1  0  0  0  0  0  0  0  0  0
   20.1318   -7.0116  -14.6895 O   0  0  0  0  0  0  0  0  0  0  0  0
   20.7774   -6.4128  -12.5095 C   0  0  2  0  0  0  0  0  0  0  0  0
   19.3989   -6.2091  -12.1356 N   0  0  0  0  0  0  0  0  0  0  0  0
   21.5099   -5.1395  -12.7609 C   0  0  0  0  0  0  0  0  0  0  0  0
   20.8804   -4.0744  -12.9122 O   0  0  0  0  0  0  0  0  0  0  0  0
   22.8839   -5.0783  -12.8364 O   0  0  0  0  0  0  0  0  0  0  0  0
  2  1  1  1
  2  6  1  0
  2  3  1  0
  3  4  1  0
  4  8  1  0
  5  4  2  0
  6 12  1  0
  7  6  2  0
 10  9  1  0
 11 10  1  1
 11 13  1  0
 12 11  1  0
 13 14  2  0
 13 19  1  0
 16 15  1  1
 17 16  1  0
 18 16  1  0
 18 20  1  0
 18 19  1  6
 20 22  1  0
 21 20  2  0
M  END
$$$$
