DST.pdb
     RDKit          3D

 22 21  0  0  1  0  0  0  0  0999 V2000
   24.0945  -20.3191  -17.8099 N   0  0  0  0  0  0  0  0  0  0  0  0
   23.9999  -19.2880  -16.8192 C   0  0  1  0  0  0  0  0  0  0  0  0
   24.3688  -17.9340  -17.3522 C   0  0  0  0  0  0  0  0  0  0  0  0
   25.7928  -17.8711  -17.7772 C   0  0  0  0  0  0  0  0  0  0  0  0
   26.6826  -17.9820  -16.8991 O   0  0  0  0  0  0  0  0  0  0  0  0
   22.6014  -19.2229  -16.3116 C   0  0  0  0  0  0  0  0  0  0  0  0
   21.6427  -19.2555  -17.1283 O   0  0  0  0  0  0  0  0  0  0  0  0
   26.1669  -17.6960  -19.0964 O   0  0  0  0  0  0  0  0  0  0  0  0
   21.3830  -20.7293  -12.6891 O   0  0  0  0  0  0  0  0  0  0  0  0
   20.7627  -19.5475  -13.0432 C   0  0  0  0  0  0  0  0  0  0  0  0
   20.9267  -19.1892  -14.4894 C   0  0  2  0  0  0  0  0  0  0  0  0
   22.2730  -19.1243  -14.9377 N   0  0  0  0  0  0  0  0  0  0  0  0
   20.2780  -17.8378  -14.6740 C   0  0  0  0  0  0  0  0  0  0  0  0
   20.9474  -16.8015  -14.4383 O   0  0  0  0  0  0  0  0  0  0  0  0
   16.6815  -15.2128  -16.7239 C   0  0  0  0  0  0  0  0  0  0  0  0
   17.2223  -16.5935  -16.4400 C   0  0  1  0  0  0  0  0  0  0  0  0
   17.8511  -17.0599  -17.5976 O   0  0  0  0  0  0  0  0  0  0  0  0
   18.2454  -16.5057  -15.3470 C   0  0  2  0  0  0  0  0  0  0  0  0
   18.9364  -17.7491  -15.1063 N   0  0  0  0  0  0  0  0  0  0  0  0
   17.6921  -15.8939  -14.1057 C   0  0  0  0  0  0  0  0  0  0  0  0
   17.2016  -16.6165  -13.2165 O   0  0  0  0  0  0  0  0  0  0  0  0
   17.6954  -14.5341  -13.8855 O   0  0  0  0  0  0  0  0  0  0  0  0
  2  1  1  6
  2  6  1  0
  2  3  1  0
  3  4  1  0
  4  8  1  0
  5  4  2  0
  6 12  1  0
  7  6  2  0
 10  9  1  0
 11 10  1  1
 11 13  1  0
 12 11  1  0
 13 14  2  0
 13 19  1  0
 16 15  1  6
 17 16  1  0
 18 16  1  0
 18 20  1  0
 18 19  1  1
 20 22  1  0
 21 20  2  0
M  END
$$$$
