DST.pdb
     RDKit          3D

 22 21  0  0  1  0  0  0  0  0999 V2000
   17.0856  -10.3833  -15.7062 N   0  0  0  0  0  0  0  0  0  0  0  0
   18.0378   -9.5747  -16.4083 C   0  0  1  0  0  0  0  0  0  0  0  0
   17.4141   -8.7646  -17.5076 C   0  0  0  0  0  0  0  0  0  0  0  0
   16.7389   -9.6221  -18.5179 C   0  0  0  0  0  0  0  0  0  0  0  0
   17.4032  -10.5362  -19.0639 O   0  0  0  0  0  0  0  0  0  0  0  0
   18.6860   -8.6372  -15.4498 C   0  0  0  0  0  0  0  0  0  0  0  0
   17.9867   -8.0672  -14.5704 O   0  0  0  0  0  0  0  0  0  0  0  0
   15.4144   -9.4481  -18.8736 O   0  0  0  0  0  0  0  0  0  0  0  0
   21.6651   -8.7736  -12.8279 O   0  0  0  0  0  0  0  0  0  0  0  0
   21.8934   -7.9003  -13.8730 C   0  0  0  0  0  0  0  0  0  0  0  0
   20.6416   -7.4206  -14.5434 C   0  0  2  0  0  0  0  0  0  0  0  0
   20.0701   -8.3387  -15.4644 N   0  0  0  0  0  0  0  0  0  0  0  0
   21.0045   -6.1490  -15.2731 C   0  0  0  0  0  0  0  0  0  0  0  0
   21.4596   -6.2237  -16.4414 O   0  0  0  0  0  0  0  0  0  0  0  0
   20.6322   -1.2400  -15.4570 C   0  0  0  0  0  0  0  0  0  0  0  0
   20.5045   -2.4594  -14.5760 C   0  0  1  0  0  0  0  0  0  0  0  0
   19.1444   -2.7318  -14.4063 O   0  0  0  0  0  0  0  0  0  0  0  0
   21.1407   -3.6311  -15.2628 C   0  0  2  0  0  0  0  0  0  0  0  0
   20.8315   -4.8968  -14.6433 N   0  0  0  0  0  0  0  0  0  0  0  0
   22.6006   -3.4290  -15.4843 C   0  0  0  0  0  0  0  0  0  0  0  0
   23.4094   -3.6409  -14.5600 O   0  0  0  0  0  0  0  0  0  0  0  0
   23.1151   -3.0088  -16.6911 O   0  0  0  0  0  0  0  0  0  0  0  0
  2  1  1  1
  2  6  1  0
  2  3  1  0
  3  4  1  0
  4  8  1  0
  5  4  2  0
  6 12  1  0
  7  6  2  0
 10  9  1  0
 11 10  1  6
 11 13  1  0
 12 11  1  0
 13 14  2  0
 13 19  1  0
 16 15  1  6
 17 16  1  0
 18 16  1  0
 18 20  1  0
 18 19  1  1
 20 22  1  0
 21 20  2  0
M  END
$$$$
