DST.pdb
     RDKit          3D

 22 21  0  0  1  0  0  0  0  0999 V2000
   15.3930  -13.5600  -16.9625 N   0  0  0  0  0  0  0  0  0  0  0  0
   15.4885  -12.3405  -16.2159 C   0  0  1  0  0  0  0  0  0  0  0  0
   15.4814  -12.5654  -14.7317 C   0  0  0  0  0  0  0  0  0  0  0  0
   14.2025  -13.1641  -14.2646 C   0  0  0  0  0  0  0  0  0  0  0  0
   13.1370  -12.5366  -14.4790 O   0  0  0  0  0  0  0  0  0  0  0  0
   16.7550  -11.6441  -16.5748 C   0  0  0  0  0  0  0  0  0  0  0  0
   17.7907  -12.3218  -16.8099 O   0  0  0  0  0  0  0  0  0  0  0  0
   14.1477  -14.3790  -13.6073 O   0  0  0  0  0  0  0  0  0  0  0  0
   16.9500   -7.6345  -18.0232 O   0  0  0  0  0  0  0  0  0  0  0  0
   17.7953   -8.6804  -18.3370 C   0  0  0  0  0  0  0  0  0  0  0  0
   18.0398   -9.6221  -17.1969 C   0  0  2  0  0  0  0  0  0  0  0  0
   16.8719  -10.2362  -16.6709 N   0  0  0  0  0  0  0  0  0  0  0  0
   18.7077   -8.8157  -16.1085 C   0  0  0  0  0  0  0  0  0  0  0  0
   18.0080   -8.3548  -15.1727 O   0  0  0  0  0  0  0  0  0  0  0  0
   21.7763   -9.9004  -14.0722 C   0  0  0  0  0  0  0  0  0  0  0  0
   22.1094   -8.5824  -14.7289 C   0  0  1  0  0  0  0  0  0  0  0  0
   22.8433   -8.8482  -15.8882 O   0  0  0  0  0  0  0  0  0  0  0  0
   20.8366   -7.8928  -15.1211 C   0  0  2  0  0  0  0  0  0  0  0  0
   20.1009   -8.5873  -16.1495 N   0  0  0  0  0  0  0  0  0  0  0  0
   21.0494   -6.4498  -15.4267 C   0  0  0  0  0  0  0  0  0  0  0  0
   20.8303   -6.0138  -16.5736 O   0  0  0  0  0  0  0  0  0  0  0  0
   21.4876   -5.5494  -14.4808 O   0  0  0  0  0  0  0  0  0  0  0  0
  2  1  1  6
  2  6  1  0
  2  3  1  0
  3  4  1  0
  4  8  1  0
  5  4  2  0
  6 12  1  0
  7  6  2  0
 10  9  1  0
 11 10  1  6
 11 13  1  0
 12 11  1  0
 13 14  2  0
 13 19  1  0
 16 15  1  6
 17 16  1  0
 18 16  1  0
 18 20  1  0
 18 19  1  6
 20 22  1  0
 21 20  2  0
M  END
$$$$
