DST.pdb
     RDKit          3D

 22 21  0  0  1  0  0  0  0  0999 V2000
   29.9262  -36.4824   -6.0870 N   0  0  0  0  0  0  0  0  0  0  0  0
   28.6672  -36.1207   -6.6680 C   0  0  1  0  0  0  0  0  0  0  0  0
   27.7637  -37.3008   -6.8790 C   0  0  0  0  0  0  0  0  0  0  0  0
   28.1665  -38.1068   -8.0623 C   0  0  0  0  0  0  0  0  0  0  0  0
   29.2000  -37.7699   -8.6896 O   0  0  0  0  0  0  0  0  0  0  0  0
   27.9718  -35.1571   -5.7702 C   0  0  0  0  0  0  0  0  0  0  0  0
   28.3743  -35.0119   -4.5853 O   0  0  0  0  0  0  0  0  0  0  0  0
   27.4468  -39.2063   -8.4918 O   0  0  0  0  0  0  0  0  0  0  0  0
   25.6952  -32.1700   -7.2887 O   0  0  0  0  0  0  0  0  0  0  0  0
   25.3569  -32.4403   -5.9774 C   0  0  0  0  0  0  0  0  0  0  0  0
   26.2754  -33.4158   -5.3056 C   0  0  2  0  0  0  0  0  0  0  0  0
   26.8616  -34.3759   -6.1729 N   0  0  0  0  0  0  0  0  0  0  0  0
   25.4532  -34.1307   -4.2597 C   0  0  0  0  0  0  0  0  0  0  0  0
   24.7093  -35.0798   -4.6109 O   0  0  0  0  0  0  0  0  0  0  0  0
   24.7518  -34.8926    0.5723 C   0  0  0  0  0  0  0  0  0  0  0  0
   25.2537  -33.9218   -0.4692 C   0  0  1  0  0  0  0  0  0  0  0  0
   26.6500  -33.9067   -0.4115 O   0  0  0  0  0  0  0  0  0  0  0  0
   24.8404  -34.4018   -1.8287 C   0  0  2  0  0  0  0  0  0  0  0  0
   25.5254  -33.7313   -2.9069 N   0  0  0  0  0  0  0  0  0  0  0  0
   23.3594  -34.4151   -1.9947 C   0  0  0  0  0  0  0  0  0  0  0  0
   22.7880  -33.4827   -2.5926 O   0  0  0  0  0  0  0  0  0  0  0  0
   22.5690  -35.4328   -1.5079 O   0  0  0  0  0  0  0  0  0  0  0  0
  2  1  1  1
  2  6  1  0
  2  3  1  0
  3  4  1  0
  4  8  1  0
  5  4  2  0
  6 12  1  0
  7  6  2  0
 10  9  1  0
 11 10  1  6
 11 13  1  0
 12 11  1  0
 13 14  2  0
 13 19  1  0
 16 15  1  1
 17 16  1  0
 18 16  1  0
 18 20  1  0
 18 19  1  6
 20 22  1  0
 21 20  2  0
M  END
$$$$
