DST.pdb
     RDKit          3D

 22 21  0  0  1  0  0  0  0  0999 V2000
   25.2586  -21.5766  -14.2754 N   0  0  0  0  0  0  0  0  0  0  0  0
   24.1646  -21.4500  -15.1922 C   0  0  1  0  0  0  0  0  0  0  0  0
   23.2041  -22.6010  -15.1136 C   0  0  0  0  0  0  0  0  0  0  0  0
   23.8559  -23.8951  -15.4492 C   0  0  0  0  0  0  0  0  0  0  0  0
   23.1298  -24.9079  -15.5970 O   0  0  0  0  0  0  0  0  0  0  0  0
   23.4159  -20.1981  -14.8922 C   0  0  0  0  0  0  0  0  0  0  0  0
   23.1620  -19.8988  -13.6950 O   0  0  0  0  0  0  0  0  0  0  0  0
   25.2242  -24.0195  -15.6026 O   0  0  0  0  0  0  0  0  0  0  0  0
   24.0543  -16.6453  -16.6377 O   0  0  0  0  0  0  0  0  0  0  0  0
   22.7096  -16.9413  -16.5322 C   0  0  0  0  0  0  0  0  0  0  0  0
   22.4073  -18.0373  -15.5555 C   0  0  2  0  0  0  0  0  0  0  0  0
   22.9608  -19.3021  -15.8897 N   0  0  0  0  0  0  0  0  0  0  0  0
   20.9030  -18.1562  -15.4941 C   0  0  0  0  0  0  0  0  0  0  0  0
   20.3355  -19.0709  -16.1414 O   0  0  0  0  0  0  0  0  0  0  0  0
   16.8307  -17.3318  -12.9493 C   0  0  0  0  0  0  0  0  0  0  0  0
   18.3312  -17.2101  -13.0626 C   0  0  1  0  0  0  0  0  0  0  0  0
   18.9076  -18.2581  -12.3397 O   0  0  0  0  0  0  0  0  0  0  0  0
   18.7289  -17.3517  -14.5017 C   0  0  2  0  0  0  0  0  0  0  0  0
   20.1516  -17.2472  -14.7171 N   0  0  0  0  0  0  0  0  0  0  0  0
   17.9348  -16.4617  -15.3953 C   0  0  0  0  0  0  0  0  0  0  0  0
   16.9034  -16.8895  -15.9490 O   0  0  0  0  0  0  0  0  0  0  0  0
   18.2925  -15.1554  -15.6468 O   0  0  0  0  0  0  0  0  0  0  0  0
  2  1  1  1
  2  6  1  0
  2  3  1  0
  3  4  1  0
  4  8  1  0
  5  4  2  0
  6 12  1  0
  7  6  2  0
 10  9  1  0
 11 10  1  6
 11 13  1  0
 12 11  1  0
 13 14  2  0
 13 19  1  0
 16 15  1  6
 17 16  1  0
 18 16  1  0
 18 20  1  0
 18 19  1  1
 20 22  1  0
 21 20  2  0
M  END
$$$$
