DST.pdb
     RDKit          3D

 22 21  0  0  1  0  0  0  0  0999 V2000
   19.9724  -12.8465  -17.6219 N   0  0  0  0  0  0  0  0  0  0  0  0
   20.7091  -12.1351  -16.6196 C   0  0  1  0  0  0  0  0  0  0  0  0
   22.1947  -12.2883  -16.7717 C   0  0  0  0  0  0  0  0  0  0  0  0
   22.6369  -13.6899  -16.5432 C   0  0  0  0  0  0  0  0  0  0  0  0
   21.7659  -14.5551  -16.2829 O   0  0  0  0  0  0  0  0  0  0  0  0
   20.3797  -10.6853  -16.7057 C   0  0  0  0  0  0  0  0  0  0  0  0
   20.2661  -10.1409  -17.8362 O   0  0  0  0  0  0  0  0  0  0  0  0
   23.9647  -14.0693  -16.6074 O   0  0  0  0  0  0  0  0  0  0  0  0
   18.4617   -8.5548  -13.7231 O   0  0  0  0  0  0  0  0  0  0  0  0
   18.5669   -8.0896  -15.0191 C   0  0  0  0  0  0  0  0  0  0  0  0
   19.8402   -8.4881  -15.7021 C   0  0  2  0  0  0  0  0  0  0  0  0
   20.1815   -9.8608  -15.5717 N   0  0  0  0  0  0  0  0  0  0  0  0
   20.9365   -7.6458  -15.0940 C   0  0  0  0  0  0  0  0  0  0  0  0
   21.7080   -8.1643  -14.2493 O   0  0  0  0  0  0  0  0  0  0  0  0
   23.3817   -3.3472  -15.1308 C   0  0  0  0  0  0  0  0  0  0  0  0
   22.1600   -4.0859  -15.6220 C   0  0  1  0  0  0  0  0  0  0  0  0
   22.3326   -4.3535  -16.9828 O   0  0  0  0  0  0  0  0  0  0  0  0
   22.0482   -5.3914  -14.8924 C   0  0  2  0  0  0  0  0  0  0  0  0
   21.0856   -6.2941  -15.4754 N   0  0  0  0  0  0  0  0  0  0  0  0
   21.8601   -5.2024  -13.4261 C   0  0  0  0  0  0  0  0  0  0  0  0
   20.7182   -5.0257  -12.9590 O   0  0  0  0  0  0  0  0  0  0  0  0
   22.9124   -5.2135  -12.5372 O   0  0  0  0  0  0  0  0  0  0  0  0
  2  1  1  6
  2  6  1  0
  2  3  1  0
  3  4  1  0
  4  8  1  0
  5  4  2  0
  6 12  1  0
  7  6  2  0
 10  9  1  0
 11 10  1  1
 11 13  1  0
 12 11  1  0
 13 14  2  0
 13 19  1  0
 16 15  1  1
 17 16  1  0
 18 16  1  0
 18 20  1  0
 18 19  1  6
 20 22  1  0
 21 20  2  0
M  END
$$$$
