DST.pdb
     RDKit          3D

 22 21  0  0  1  0  0  0  0  0999 V2000
   19.3891  -11.3899  -18.2211 N   0  0  0  0  0  0  0  0  0  0  0  0
   20.3876  -10.3626  -18.1888 C   0  0  1  0  0  0  0  0  0  0  0  0
   20.4733   -9.5946  -19.4758 C   0  0  0  0  0  0  0  0  0  0  0  0
   20.8858  -10.4585  -20.6141 C   0  0  0  0  0  0  0  0  0  0  0  0
   21.9844  -11.0604  -20.5385 O   0  0  0  0  0  0  0  0  0  0  0  0
   20.0688   -9.4034  -17.0950 C   0  0  0  0  0  0  0  0  0  0  0  0
   18.9254   -8.8767  -17.0455 O   0  0  0  0  0  0  0  0  0  0  0  0
   20.1061  -10.6199  -21.7443 O   0  0  0  0  0  0  0  0  0  0  0  0
   22.4795   -8.9719  -13.6809 O   0  0  0  0  0  0  0  0  0  0  0  0
   21.1415   -8.6307  -13.6631 C   0  0  0  0  0  0  0  0  0  0  0  0
   20.6092   -8.2049  -14.9980 C   0  0  2  0  0  0  0  0  0  0  0  0
   20.9902   -9.0374  -16.0841 N   0  0  0  0  0  0  0  0  0  0  0  0
   21.1260   -6.8068  -15.2412 C   0  0  0  0  0  0  0  0  0  0  0  0
   22.1511   -6.6490  -15.9497 O   0  0  0  0  0  0  0  0  0  0  0  0
   20.3403   -1.9566  -14.9041 C   0  0  0  0  0  0  0  0  0  0  0  0
   19.8740   -3.3184  -14.4487 C   0  0  1  0  0  0  0  0  0  0  0  0
   18.7102   -3.6369  -15.1538 O   0  0  0  0  0  0  0  0  0  0  0  0
   20.9245   -4.3352  -14.7833 C   0  0  2  0  0  0  0  0  0  0  0  0
   20.4601   -5.6970  -14.6761 N   0  0  0  0  0  0  0  0  0  0  0  0
   22.1979   -4.0917  -14.0483 C   0  0  0  0  0  0  0  0  0  0  0  0
   22.3269   -4.4834  -12.8722 O   0  0  0  0  0  0  0  0  0  0  0  0
   23.2683   -3.4381  -14.6183 O   0  0  0  0  0  0  0  0  0  0  0  0
  2  1  1  6
  2  6  1  0
  2  3  1  0
  3  4  1  0
  4  8  1  0
  5  4  2  0
  6 12  1  0
  7  6  2  0
 10  9  1  0
 11 10  1  1
 11 13  1  0
 12 11  1  0
 13 14  2  0
 13 19  1  0
 16 15  1  6
 17 16  1  0
 18 16  1  0
 18 20  1  0
 18 19  1  1
 20 22  1  0
 21 20  2  0
M  END
$$$$
