DST.pdb
     RDKit          3D

 22 21  0  0  1  0  0  0  0  0999 V2000
   15.9598  -11.0834  -16.0647 N   0  0  0  0  0  0  0  0  0  0  0  0
   17.0674  -10.8971  -15.1748 C   0  0  1  0  0  0  0  0  0  0  0  0
   18.2552  -11.7390  -15.5409 C   0  0  0  0  0  0  0  0  0  0  0  0
   17.9853  -13.1909  -15.3640 C   0  0  0  0  0  0  0  0  0  0  0  0
   18.5052  -13.9970  -16.1732 O   0  0  0  0  0  0  0  0  0  0  0  0
   17.4840   -9.4676  -15.2032 C   0  0  0  0  0  0  0  0  0  0  0  0
   17.6348   -8.8872  -16.3111 O   0  0  0  0  0  0  0  0  0  0  0  0
   17.1874  -13.6792  -14.3462 O   0  0  0  0  0  0  0  0  0  0  0  0
   17.7929   -7.0079  -11.7206 O   0  0  0  0  0  0  0  0  0  0  0  0
   17.4497   -6.5075  -12.9611 C   0  0  0  0  0  0  0  0  0  0  0  0
   17.9923   -7.3078  -14.1063 C   0  0  2  0  0  0  0  0  0  0  0  0
   17.7268   -8.7016  -14.0373 N   0  0  0  0  0  0  0  0  0  0  0  0
   19.4866   -7.0886  -14.1146 C   0  0  0  0  0  0  0  0  0  0  0  0
   20.2236   -7.8791  -13.4746 O   0  0  0  0  0  0  0  0  0  0  0  0
   23.3875   -4.8546  -16.0940 C   0  0  0  0  0  0  0  0  0  0  0  0
   21.8820   -4.9672  -16.0910 C   0  0  1  0  0  0  0  0  0  0  0  0
   21.5021   -5.7369  -17.1939 O   0  0  0  0  0  0  0  0  0  0  0  0
   21.4443   -5.6767  -14.8443 C   0  0  2  0  0  0  0  0  0  0  0  0
   20.0400   -6.0071  -14.8348 N   0  0  0  0  0  0  0  0  0  0  0  0
   21.8876   -4.9698  -13.6093 C   0  0  0  0  0  0  0  0  0  0  0  0
   21.2248   -4.0132  -13.1634 O   0  0  0  0  0  0  0  0  0  0  0  0
   23.0230   -5.3298  -12.9174 O   0  0  0  0  0  0  0  0  0  0  0  0
  2  1  1  6
  2  6  1  0
  2  3  1  0
  3  4  1  0
  4  8  1  0
  5  4  2  0
  6 12  1  0
  7  6  2  0
 10  9  1  0
 11 10  1  1
 11 13  1  0
 12 11  1  0
 13 14  2  0
 13 19  1  0
 16 15  1  1
 17 16  1  0
 18 16  1  0
 18 20  1  0
 18 19  1  1
 20 22  1  0
 21 20  2  0
M  END
$$$$
