DST.pdb
     RDKit          3D

 22 21  0  0  1  0  0  0  0  0999 V2000
   18.1895  -11.9377  -17.9440 N   0  0  0  0  0  0  0  0  0  0  0  0
   19.4043  -11.3320  -17.4849 C   0  0  1  0  0  0  0  0  0  0  0  0
   20.4723  -11.2993  -18.5393 C   0  0  0  0  0  0  0  0  0  0  0  0
   20.9688  -12.6612  -18.8723 C   0  0  0  0  0  0  0  0  0  0  0  0
   20.4117  -13.2872  -19.8064 O   0  0  0  0  0  0  0  0  0  0  0  0
   19.1245   -9.9315  -17.0626 C   0  0  0  0  0  0  0  0  0  0  0  0
   18.5970   -9.1307  -17.8797 O   0  0  0  0  0  0  0  0  0  0  0  0
   22.0154  -13.2566  -18.1930 O   0  0  0  0  0  0  0  0  0  0  0  0
   18.9088   -8.7192  -13.0582 O   0  0  0  0  0  0  0  0  0  0  0  0
   18.3234   -8.0113  -14.0893 C   0  0  0  0  0  0  0  0  0  0  0  0
   19.0660   -8.1103  -15.3875 C   0  0  2  0  0  0  0  0  0  0  0  0
   19.4205   -9.4312  -15.7715 N   0  0  0  0  0  0  0  0  0  0  0  0
   20.3223   -7.2873  -15.2284 C   0  0  0  0  0  0  0  0  0  0  0  0
   21.3884   -7.8589  -14.8902 O   0  0  0  0  0  0  0  0  0  0  0  0
   22.4782   -2.8538  -15.6758 C   0  0  0  0  0  0  0  0  0  0  0  0
   21.1721   -3.6106  -15.7039 C   0  0  1  0  0  0  0  0  0  0  0  0
   20.7350   -3.6730  -17.0298 O   0  0  0  0  0  0  0  0  0  0  0  0
   21.4035   -5.0092  -15.2144 C   0  0  2  0  0  0  0  0  0  0  0  0
   20.2906   -5.8942  -15.4586 N   0  0  0  0  0  0  0  0  0  0  0  0
   21.8767   -5.0401  -13.8015 C   0  0  0  0  0  0  0  0  0  0  0  0
   21.0543   -5.0965  -12.8668 O   0  0  0  0  0  0  0  0  0  0  0  0
   23.2127   -5.0086  -13.4674 O   0  0  0  0  0  0  0  0  0  0  0  0
  2  1  1  6
  2  6  1  0
  2  3  1  0
  3  4  1  0
  4  8  1  0
  5  4  2  0
  6 12  1  0
  7  6  2  0
 10  9  1  0
 11 10  1  1
 11 13  1  0
 12 11  1  0
 13 14  2  0
 13 19  1  0
 16 15  1  6
 17 16  1  0
 18 16  1  0
 18 20  1  0
 18 19  1  1
 20 22  1  0
 21 20  2  0
M  END
$$$$
