DST.pdb
     RDKit          3D

 22 21  0  0  1  0  0  0  0  0999 V2000
   20.7218  -10.0277  -15.6187 N   0  0  0  0  0  0  0  0  0  0  0  0
   20.3011   -9.6786  -16.9433 C   0  0  1  0  0  0  0  0  0  0  0  0
   19.8881  -10.8717  -17.7555 C   0  0  0  0  0  0  0  0  0  0  0  0
   19.6653  -12.0732  -16.9076 C   0  0  0  0  0  0  0  0  0  0  0  0
   18.6568  -12.7848  -17.1350 O   0  0  0  0  0  0  0  0  0  0  0  0
   19.1410   -8.7485  -16.8600 C   0  0  0  0  0  0  0  0  0  0  0  0
   18.5222   -8.4327  -17.9109 O   0  0  0  0  0  0  0  0  0  0  0  0
   20.5246  -12.4303  -15.8853 O   0  0  0  0  0  0  0  0  0  0  0  0
   17.3812   -7.5432  -13.2172 O   0  0  0  0  0  0  0  0  0  0  0  0
   16.6809   -7.4652  -14.4048 C   0  0  0  0  0  0  0  0  0  0  0  0
   17.5556   -7.3144  -15.6127 C   0  0  2  0  0  0  0  0  0  0  0  0
   18.6787   -8.1834  -15.6468 N   0  0  0  0  0  0  0  0  0  0  0  0
   18.0372   -5.8830  -15.6192 C   0  0  0  0  0  0  0  0  0  0  0  0
   19.1125   -5.5975  -15.0363 O   0  0  0  0  0  0  0  0  0  0  0  0
   17.4973   -1.3662  -17.5227 C   0  0  0  0  0  0  0  0  0  0  0  0
   16.7970   -2.6721  -17.2339 C   0  0  1  0  0  0  0  0  0  0  0  0
   16.6671   -3.3704  -18.4374 O   0  0  0  0  0  0  0  0  0  0  0  0
   17.6422   -3.4876  -16.3012 C   0  0  2  0  0  0  0  0  0  0  0  0
   17.2829   -4.8846  -16.2741 N   0  0  0  0  0  0  0  0  0  0  0  0
   17.7296   -2.8793  -14.9434 C   0  0  0  0  0  0  0  0  0  0  0  0
   18.5412   -1.9602  -14.7202 O   0  0  0  0  0  0  0  0  0  0  0  0
   16.9378   -3.2925  -13.8947 O   0  0  0  0  0  0  0  0  0  0  0  0
  2  1  1  1
  2  6  1  0
  2  3  1  0
  3  4  1  0
  4  8  1  0
  5  4  2  0
  6 12  1  0
  7  6  2  0
 10  9  1  0
 11 10  1  1
 11 13  1  0
 12 11  1  0
 13 14  2  0
 13 19  1  0
 16 15  1  6
 17 16  1  0
 18 16  1  0
 18 20  1  0
 18 19  1  1
 20 22  1  0
 21 20  2  0
M  END
$$$$
