DST.pdb
     RDKit          3D

 22 21  0  0  1  0  0  0  0  0999 V2000
   17.0414  -11.7945  -15.3240 N   0  0  0  0  0  0  0  0  0  0  0  0
   17.0445  -10.4103  -15.6950 C   0  0  1  0  0  0  0  0  0  0  0  0
   15.6881   -9.7764  -15.5865 C   0  0  0  0  0  0  0  0  0  0  0  0
   14.7140  -10.3779  -16.5360 C   0  0  0  0  0  0  0  0  0  0  0  0
   15.0825  -10.5837  -17.7178 O   0  0  0  0  0  0  0  0  0  0  0  0
   17.9783   -9.6664  -14.8048 C   0  0  0  0  0  0  0  0  0  0  0  0
   17.7922   -9.6817  -13.5589 O   0  0  0  0  0  0  0  0  0  0  0  0
   13.4261  -10.7155  -16.1639 O   0  0  0  0  0  0  0  0  0  0  0  0
   21.8681   -9.4503  -15.3878 O   0  0  0  0  0  0  0  0  0  0  0  0
   21.2976   -9.0217  -14.2055 C   0  0  0  0  0  0  0  0  0  0  0  0
   19.9982   -8.2976  -14.3897 C   0  0  2  0  0  0  0  0  0  0  0  0
   19.0875   -8.9259  -15.2805 N   0  0  0  0  0  0  0  0  0  0  0  0
   20.3416   -6.9256  -14.9196 C   0  0  0  0  0  0  0  0  0  0  0  0
   20.3887   -6.7445  -16.1616 O   0  0  0  0  0  0  0  0  0  0  0  0
   20.6837   -2.1299  -14.4498 C   0  0  0  0  0  0  0  0  0  0  0  0
   20.2203   -3.4413  -13.8626 C   0  0  1  0  0  0  0  0  0  0  0  0
   18.8903   -3.6411  -14.2425 O   0  0  0  0  0  0  0  0  0  0  0  0
   21.0485   -4.5547  -14.4314 C   0  0  2  0  0  0  0  0  0  0  0  0
   20.6050   -5.8658  -14.0240 N   0  0  0  0  0  0  0  0  0  0  0  0
   22.5072   -4.3375  -14.2170 C   0  0  0  0  0  0  0  0  0  0  0  0
   23.0163   -4.5613  -13.1017 O   0  0  0  0  0  0  0  0  0  0  0  0
   23.3437   -3.8898  -15.2157 O   0  0  0  0  0  0  0  0  0  0  0  0
  2  1  1  1
  2  6  1  0
  2  3  1  0
  3  4  1  0
  4  8  1  0
  5  4  2  0
  6 12  1  0
  7  6  2  0
 10  9  1  0
 11 10  1  6
 11 13  1  0
 12 11  1  0
 13 14  2  0
 13 19  1  0
 16 15  1  6
 17 16  1  0
 18 16  1  0
 18 20  1  0
 18 19  1  1
 20 22  1  0
 21 20  2  0
M  END
$$$$
