NGW.pdb
     RDKit          3D

 27 28  0  0  1  0  0  0  0  0999 V2000
   27.1065  -22.9769  -18.4571 N   0  0  0  0  0  0  0  0  0  0  0  0
   25.7686  -22.5019  -18.3349 C   0  0  0  0  0  0  0  0  0  0  0  0
   24.9238  -22.8577  -19.1824 O   0  0  0  0  0  0  0  0  0  0  0  0
   25.3517  -21.6031  -17.2383 C   0  0  0  0  0  0  0  0  0  0  0  0
   25.7789  -22.1745  -15.9256 C   0  0  2  0  0  0  0  0  0  0  0  0
   25.0088  -23.3560  -15.6549 N   0  0  0  0  0  0  0  0  0  0  0  0
   25.6350  -21.1568  -14.8414 C   0  0  0  0  0  0  0  0  0  0  0  0
   26.2930  -20.0890  -14.9206 O   0  0  0  0  0  0  0  0  0  0  0  0
   24.7886  -21.3428  -13.7271 N   0  0  0  0  0  0  0  0  0  0  0  0
   24.6322  -20.3451  -12.6780 C   0  0  0  0  0  0  0  0  0  0  0  0
   25.3195  -20.8909  -11.4640 C   0  0  0  0  0  0  0  0  0  0  0  0
   25.5302  -22.1385  -11.3271 O   0  0  0  0  0  0  0  0  0  0  0  0
   25.7659  -20.0523  -10.4153 N   0  0  0  0  0  0  0  0  0  0  0  0
   26.4476  -20.6203   -9.2423 C   0  0  1  0  0  0  0  0  0  0  0  0
   27.5443  -19.7047   -8.7851 C   0  0  0  0  0  0  0  0  0  0  0  0
   28.3412  -20.1380   -7.6618 C   0  0  0  0  0  0  0  0  0  0  0  0
   29.2082  -21.2404   -7.6993 C   0  0  0  0  0  0  0  0  0  0  0  0
   29.8245  -21.3620   -6.5205 N   0  0  0  0  0  0  0  0  0  0  0  0
   29.4110  -20.3925   -5.6920 C   0  0  0  0  0  0  0  0  0  0  0  0
   29.7347  -20.0942   -4.3890 C   0  0  0  0  0  0  0  0  0  0  0  0
   29.1326  -19.0171   -3.7656 C   0  0  0  0  0  0  0  0  0  0  0  0
   28.2259  -18.2534   -4.4281 C   0  0  0  0  0  0  0  0  0  0  0  0
   27.9069  -18.5610   -5.7381 C   0  0  0  0  0  0  0  0  0  0  0  0
   28.4808  -19.6243   -6.4048 C   0  0  0  0  0  0  0  0  0  0  0  0
   25.4487  -21.0096   -8.2715 C   0  0  0  0  0  0  0  0  0  0  0  0
   25.6994  -21.7883   -7.3193 O   0  0  0  0  0  0  0  0  0  0  0  0
   24.1500  -20.5312   -8.3526 O   0  0  0  0  0  0  0  0  0  0  0  0
  2  3  2  0
  2  1  1  0
  4  2  1  0
  5  4  1  0
  5  6  1  1
  7  8  2  0
  7  5  1  0
  9  7  1  0
 10  9  1  0
 11 10  1  0
 11 12  2  0
 13 11  1  0
 14 13  1  0
 14 25  1  0
 14 15  1  1
 16 15  1  0
 17 16  2  0
 18 17  1  0
 19 18  1  0
 19 24  2  0
 20 21  2  0
 20 19  1  0
 21 22  1  0
 22 23  2  0
 24 23  1  0
 24 16  1  0
 25 27  1  0
 26 25  2  0
M  END
$$$$
