NGW.pdb
     RDKit          3D

 27 28  0  0  1  0  0  0  0  0999 V2000
   28.5726  -16.7997  -19.4125 N   0  0  0  0  0  0  0  0  0  0  0  0
   28.4836  -17.8778  -18.4849 C   0  0  0  0  0  0  0  0  0  0  0  0
   28.4161  -19.0448  -18.9231 O   0  0  0  0  0  0  0  0  0  0  0  0
   28.4688  -17.6570  -17.0237 C   0  0  0  0  0  0  0  0  0  0  0  0
   27.4690  -18.5649  -16.3848 C   0  0  2  0  0  0  0  0  0  0  0  0
   26.1468  -18.1302  -16.7385 N   0  0  0  0  0  0  0  0  0  0  0  0
   27.6655  -18.5987  -14.9042 C   0  0  0  0  0  0  0  0  0  0  0  0
   28.7362  -19.0700  -14.4450 O   0  0  0  0  0  0  0  0  0  0  0  0
   26.6969  -18.1225  -13.9945 N   0  0  0  0  0  0  0  0  0  0  0  0
   26.9336  -18.0379  -12.5601 C   0  0  0  0  0  0  0  0  0  0  0  0
   26.5184  -19.3555  -11.9806 C   0  0  0  0  0  0  0  0  0  0  0  0
   25.8841  -20.2136  -12.6742 O   0  0  0  0  0  0  0  0  0  0  0  0
   26.8085  -19.7097  -10.6417 N   0  0  0  0  0  0  0  0  0  0  0  0
   26.4150  -21.0251  -10.1142 C   0  0  1  0  0  0  0  0  0  0  0  0
   27.3465  -21.4439   -9.0155 C   0  0  0  0  0  0  0  0  0  0  0  0
   27.5590  -20.5078   -7.9371 C   0  0  0  0  0  0  0  0  0  0  0  0
   27.0036  -19.2200   -7.9009 C   0  0  0  0  0  0  0  0  0  0  0  0
   27.3560  -18.6152   -6.7633 N   0  0  0  0  0  0  0  0  0  0  0  0
   28.1236  -19.4370   -6.0333 C   0  0  0  0  0  0  0  0  0  0  0  0
   28.7338  -19.2834   -4.8104 C   0  0  0  0  0  0  0  0  0  0  0  0
   29.4915  -20.3167   -4.2912 C   0  0  0  0  0  0  0  0  0  0  0  0
   29.6377  -21.4792   -4.9778 C   0  0  0  0  0  0  0  0  0  0  0  0
   29.0201  -21.6244   -6.2066 C   0  0  0  0  0  0  0  0  0  0  0  0
   28.2528  -20.6237   -6.7672 C   0  0  0  0  0  0  0  0  0  0  0  0
   24.9989  -21.0002   -9.8215 C   0  0  0  0  0  0  0  0  0  0  0  0
   24.3547  -22.0322   -9.5119 O   0  0  0  0  0  0  0  0  0  0  0  0
   24.2804  -19.8155   -9.8713 O   0  0  0  0  0  0  0  0  0  0  0  0
  2  3  2  0
  2  1  1  0
  4  2  1  0
  5  4  1  0
  5  6  1  1
  7  8  2  0
  7  5  1  0
  9  7  1  0
 10  9  1  0
 11 10  1  0
 11 12  2  0
 13 11  1  0
 14 13  1  0
 14 25  1  0
 14 15  1  1
 16 15  1  0
 17 16  2  0
 18 17  1  0
 19 18  1  0
 19 24  2  0
 20 21  2  0
 20 19  1  0
 21 22  1  0
 22 23  2  0
 24 23  1  0
 24 16  1  0
 25 27  1  0
 26 25  2  0
M  END
$$$$
