NGW.pdb
     RDKit          3D

 27 28  0  0  1  0  0  0  0  0999 V2000
   21.9691  -19.3613  -18.4321 N   0  0  0  0  0  0  0  0  0  0  0  0
   22.7838  -18.3623  -17.8249 C   0  0  0  0  0  0  0  0  0  0  0  0
   22.9775  -17.2906  -18.4353 O   0  0  0  0  0  0  0  0  0  0  0  0
   23.4049  -18.5557  -16.4979 C   0  0  0  0  0  0  0  0  0  0  0  0
   24.7384  -17.8829  -16.4604 C   0  0  2  0  0  0  0  0  0  0  0  0
   25.6468  -18.5932  -17.3164 N   0  0  0  0  0  0  0  0  0  0  0  0
   25.2441  -17.8038  -15.0568 C   0  0  0  0  0  0  0  0  0  0  0  0
   24.4956  -17.3243  -14.1685 O   0  0  0  0  0  0  0  0  0  0  0  0
   26.5316  -18.2461  -14.6832 N   0  0  0  0  0  0  0  0  0  0  0  0
   26.9952  -18.2532  -13.3028 C   0  0  0  0  0  0  0  0  0  0  0  0
   26.5774  -19.5679  -12.7188 C   0  0  0  0  0  0  0  0  0  0  0  0
   25.8835  -20.3990  -13.3878 O   0  0  0  0  0  0  0  0  0  0  0  0
   26.9307  -19.9492  -11.4027 N   0  0  0  0  0  0  0  0  0  0  0  0
   26.5902  -21.2869  -10.8949 C   0  0  1  0  0  0  0  0  0  0  0  0
   27.4441  -21.6250   -9.7089 C   0  0  0  0  0  0  0  0  0  0  0  0
   27.2804  -20.8151   -8.5249 C   0  0  0  0  0  0  0  0  0  0  0  0
   26.1495  -20.0250   -8.2702 C   0  0  0  0  0  0  0  0  0  0  0  0
   26.2831  -19.4259   -7.0839 N   0  0  0  0  0  0  0  0  0  0  0  0
   27.4525  -19.7764   -6.5296 C   0  0  0  0  0  0  0  0  0  0  0  0
   28.0486  -19.4292   -5.3399 C   0  0  0  0  0  0  0  0  0  0  0  0
   29.2914  -19.9454   -5.0231 C   0  0  0  0  0  0  0  0  0  0  0  0
   29.9267  -20.7903   -5.8756 C   0  0  0  0  0  0  0  0  0  0  0  0
   29.3192  -21.1338   -7.0695 C   0  0  0  0  0  0  0  0  0  0  0  0
   28.0797  -20.6468   -7.4311 C   0  0  0  0  0  0  0  0  0  0  0  0
   25.1551  -21.3685  -10.7350 C   0  0  0  0  0  0  0  0  0  0  0  0
   24.4219  -20.3507  -10.6852 O   0  0  0  0  0  0  0  0  0  0  0  0
   24.5174  -22.5948  -10.6280 O   0  0  0  0  0  0  0  0  0  0  0  0
  2  3  2  0
  2  1  1  0
  4  2  1  0
  5  4  1  0
  5  6  1  6
  7  8  2  0
  7  5  1  0
  9  7  1  0
 10  9  1  0
 11 10  1  0
 11 12  2  0
 13 11  1  0
 14 13  1  0
 14 25  1  0
 14 15  1  1
 16 15  1  0
 17 16  2  0
 18 17  1  0
 19 18  1  0
 19 24  2  0
 20 21  2  0
 20 19  1  0
 21 22  1  0
 22 23  2  0
 24 23  1  0
 24 16  1  0
 25 27  1  0
 26 25  2  0
M  END
$$$$
