NGW.pdb
     RDKit          3D

 27 28  0  0  1  0  0  0  0  0999 V2000
   28.0601  -18.2716  -18.7417 N   0  0  0  0  0  0  0  0  0  0  0  0
   27.7818  -19.5164  -18.1064 C   0  0  0  0  0  0  0  0  0  0  0  0
   27.0896  -20.3601  -18.7126 O   0  0  0  0  0  0  0  0  0  0  0  0
   28.2863  -19.8381  -16.7550 C   0  0  0  0  0  0  0  0  0  0  0  0
   27.1378  -20.0668  -15.8272 C   0  0  2  0  0  0  0  0  0  0  0  0
   26.4346  -18.8292  -15.6366 N   0  0  0  0  0  0  0  0  0  0  0  0
   27.6177  -20.6385  -14.5332 C   0  0  0  0  0  0  0  0  0  0  0  0
   28.0953  -21.8009  -14.5235 O   0  0  0  0  0  0  0  0  0  0  0  0
   27.5578  -19.9271  -13.3154 N   0  0  0  0  0  0  0  0  0  0  0  0
   28.0854  -20.4549  -12.0649 C   0  0  0  0  0  0  0  0  0  0  0  0
   26.9207  -21.0320  -11.3200 C   0  0  0  0  0  0  0  0  0  0  0  0
   26.0941  -21.8156  -11.8878 O   0  0  0  0  0  0  0  0  0  0  0  0
   26.6828  -20.7367   -9.9568 N   0  0  0  0  0  0  0  0  0  0  0  0
   25.5569  -21.3578   -9.2426 C   0  0  1  0  0  0  0  0  0  0  0  0
   25.8090  -21.3445   -7.7640 C   0  0  0  0  0  0  0  0  0  0  0  0
   26.6984  -20.3275   -7.2547 C   0  0  0  0  0  0  0  0  0  0  0  0
   26.7959  -19.0356   -7.7929 C   0  0  0  0  0  0  0  0  0  0  0  0
   27.6765  -18.3238   -7.0845 N   0  0  0  0  0  0  0  0  0  0  0  0
   28.1762  -19.0781   -6.0952 C   0  0  0  0  0  0  0  0  0  0  0  0
   29.1039  -18.8147   -5.1146 C   0  0  0  0  0  0  0  0  0  0  0  0
   29.4443  -19.8061   -4.2131 C   0  0  0  0  0  0  0  0  0  0  0  0
   28.8714  -21.0350   -4.2883 C   0  0  0  0  0  0  0  0  0  0  0  0
   27.9394  -21.2904   -5.2776 C   0  0  0  0  0  0  0  0  0  0  0  0
   27.5650  -20.3347   -6.2001 C   0  0  0  0  0  0  0  0  0  0  0  0
   24.3257  -20.7678   -9.7198 C   0  0  0  0  0  0  0  0  0  0  0  0
   24.3051  -19.7638  -10.4730 O   0  0  0  0  0  0  0  0  0  0  0  0
   23.0950  -21.2949   -9.3596 O   0  0  0  0  0  0  0  0  0  0  0  0
  2  3  2  0
  2  1  1  0
  4  2  1  0
  5  4  1  0
  5  6  1  1
  7  8  2  0
  7  5  1  0
  9  7  1  0
 10  9  1  0
 11 10  1  0
 11 12  2  0
 13 11  1  0
 14 13  1  0
 14 25  1  0
 14 15  1  1
 16 15  1  0
 17 16  2  0
 18 17  1  0
 19 18  1  0
 19 24  2  0
 20 21  2  0
 20 19  1  0
 21 22  1  0
 22 23  2  0
 24 23  1  0
 24 16  1  0
 25 27  1  0
 26 25  2  0
M  END
$$$$
