NGW.pdb
     RDKit          3D

 27 28  0  0  1  0  0  0  0  0999 V2000
   24.4303  -15.7292  -15.8478 N   0  0  0  0  0  0  0  0  0  0  0  0
   25.6179  -16.0745  -16.5557 C   0  0  0  0  0  0  0  0  0  0  0  0
   25.9376  -15.4030  -17.5584 O   0  0  0  0  0  0  0  0  0  0  0  0
   26.4802  -17.2004  -16.1401 C   0  0  0  0  0  0  0  0  0  0  0  0
   25.8663  -17.9046  -14.9742 C   0  0  2  0  0  0  0  0  0  0  0  0
   25.7386  -16.9809  -13.8820 N   0  0  0  0  0  0  0  0  0  0  0  0
   26.6796  -19.1002  -14.5988 C   0  0  0  0  0  0  0  0  0  0  0  0
   26.5036  -20.1748  -15.2261 O   0  0  0  0  0  0  0  0  0  0  0  0
   27.6413  -19.0755  -13.5657 N   0  0  0  0  0  0  0  0  0  0  0  0
   28.5022  -20.2095  -13.2600 C   0  0  0  0  0  0  0  0  0  0  0  0
   27.8874  -20.9078  -12.0858 C   0  0  0  0  0  0  0  0  0  0  0  0
   28.5083  -21.8277  -11.4630 O   0  0  0  0  0  0  0  0  0  0  0  0
   26.5939  -20.5820  -11.6136 N   0  0  0  0  0  0  0  0  0  0  0  0
   26.1870  -20.9341  -10.2447 C   0  0  1  0  0  0  0  0  0  0  0  0
   27.2041  -20.4423   -9.2579 C   0  0  0  0  0  0  0  0  0  0  0  0
   26.8397  -20.4767   -7.8613 C   0  0  0  0  0  0  0  0  0  0  0  0
   25.6490  -21.0406   -7.3792 C   0  0  0  0  0  0  0  0  0  0  0  0
   25.6200  -20.9476   -6.0471 N   0  0  0  0  0  0  0  0  0  0  0  0
   26.7363  -20.3462   -5.6114 C   0  0  0  0  0  0  0  0  0  0  0  0
   27.1716  -20.0149   -4.3496 C   0  0  0  0  0  0  0  0  0  0  0  0
   28.3874  -19.3757   -4.1931 C   0  0  0  0  0  0  0  0  0  0  0  0
   29.1531  -19.0728   -5.2729 C   0  0  0  0  0  0  0  0  0  0  0  0
   28.7071  -19.4101   -6.5378 C   0  0  0  0  0  0  0  0  0  0  0  0
   27.5022  -20.0496   -6.7467 C   0  0  0  0  0  0  0  0  0  0  0  0
   24.8126  -20.5270  -10.0526 C   0  0  0  0  0  0  0  0  0  0  0  0
   24.3333  -19.4948  -10.5824 O   0  0  0  0  0  0  0  0  0  0  0  0
   23.9514  -21.2720   -9.2617 O   0  0  0  0  0  0  0  0  0  0  0  0
  2  3  2  0
  2  1  1  0
  4  2  1  0
  5  4  1  0
  5  6  1  1
  7  8  2  0
  7  5  1  0
  9  7  1  0
 10  9  1  0
 11 10  1  0
 11 12  2  0
 13 11  1  0
 14 13  1  0
 14 25  1  0
 14 15  1  1
 16 15  1  0
 17 16  2  0
 18 17  1  0
 19 18  1  0
 19 24  2  0
 20 21  2  0
 20 19  1  0
 21 22  1  0
 22 23  2  0
 24 23  1  0
 24 16  1  0
 25 27  1  0
 26 25  2  0
M  END
$$$$
