NGW.pdb
     RDKit          3D

 27 28  0  0  1  0  0  0  0  0999 V2000
   26.7575  -17.1700  -17.4979 N   0  0  0  0  0  0  0  0  0  0  0  0
   27.7125  -17.6829  -16.5729 C   0  0  0  0  0  0  0  0  0  0  0  0
   28.9271  -17.5107  -16.8043 O   0  0  0  0  0  0  0  0  0  0  0  0
   27.3098  -18.4107  -15.3513 C   0  0  0  0  0  0  0  0  0  0  0  0
   27.9998  -19.7349  -15.3005 C   0  0  2  0  0  0  0  0  0  0  0  0
   27.5353  -20.5482  -16.3891 N   0  0  0  0  0  0  0  0  0  0  0  0
   27.7714  -20.3923  -13.9786 C   0  0  0  0  0  0  0  0  0  0  0  0
   28.0821  -19.7719  -12.9308 O   0  0  0  0  0  0  0  0  0  0  0  0
   27.2196  -21.6857  -13.8544 N   0  0  0  0  0  0  0  0  0  0  0  0
   25.8229  -21.9199  -13.5154 C   0  0  0  0  0  0  0  0  0  0  0  0
   25.7481  -21.9634  -12.0198 C   0  0  0  0  0  0  0  0  0  0  0  0
   24.6972  -22.3586  -11.4206 O   0  0  0  0  0  0  0  0  0  0  0  0
   26.8350  -21.5697  -11.2037 N   0  0  0  0  0  0  0  0  0  0  0  0
   26.6349  -21.2975   -9.7722 C   0  0  1  0  0  0  0  0  0  0  0  0
   27.9015  -20.7758   -9.1608 C   0  0  0  0  0  0  0  0  0  0  0  0
   27.7900  -20.0877   -7.8964 C   0  0  0  0  0  0  0  0  0  0  0  0
   26.8206  -19.1113   -7.6224 C   0  0  0  0  0  0  0  0  0  0  0  0
   26.9566  -18.6907   -6.3620 N   0  0  0  0  0  0  0  0  0  0  0  0
   27.9735  -19.3390   -5.7762 C   0  0  0  0  0  0  0  0  0  0  0  0
   28.5098  -19.2605   -4.5122 C   0  0  0  0  0  0  0  0  0  0  0  0
   29.5881  -20.0586   -4.1777 C   0  0  0  0  0  0  0  0  0  0  0  0
   30.1206  -20.9169   -5.0853 C   0  0  0  0  0  0  0  0  0  0  0  0
   29.5744  -20.9889   -6.3537 C   0  0  0  0  0  0  0  0  0  0  0  0
   28.4978  -20.2149   -6.7362 C   0  0  0  0  0  0  0  0  0  0  0  0
   25.4366  -20.5030   -9.6164 C   0  0  0  0  0  0  0  0  0  0  0  0
   25.1270  -19.5839  -10.4134 O   0  0  0  0  0  0  0  0  0  0  0  0
   24.5640  -20.7264   -8.5624 O   0  0  0  0  0  0  0  0  0  0  0  0
  2  3  2  0
  2  1  1  0
  4  2  1  0
  5  4  1  0
  5  6  1  6
  7  8  2  0
  7  5  1  0
  9  7  1  0
 10  9  1  0
 11 10  1  0
 11 12  2  0
 13 11  1  0
 14 13  1  0
 14 25  1  0
 14 15  1  6
 16 15  1  0
 17 16  2  0
 18 17  1  0
 19 18  1  0
 19 24  2  0
 20 21  2  0
 20 19  1  0
 21 22  1  0
 22 23  2  0
 24 23  1  0
 24 16  1  0
 25 27  1  0
 26 25  2  0
M  END
$$$$
