NGW.pdb
     RDKit          3D

 27 28  0  0  1  0  0  0  0  0999 V2000
   26.3846  -14.9744  -18.2952 N   0  0  0  0  0  0  0  0  0  0  0  0
   26.3164  -15.6376  -17.0359 C   0  0  0  0  0  0  0  0  0  0  0  0
   26.0439  -14.9690  -16.0174 O   0  0  0  0  0  0  0  0  0  0  0  0
   26.5577  -17.0893  -16.8990 C   0  0  0  0  0  0  0  0  0  0  0  0
   26.1980  -17.5342  -15.5189 C   0  0  2  0  0  0  0  0  0  0  0  0
   27.0199  -16.8353  -14.5711 N   0  0  0  0  0  0  0  0  0  0  0  0
   26.3422  -19.0159  -15.3937 C   0  0  0  0  0  0  0  0  0  0  0  0
   25.6864  -19.7568  -16.1683 O   0  0  0  0  0  0  0  0  0  0  0  0
   27.1867  -19.6227  -14.4390 N   0  0  0  0  0  0  0  0  0  0  0  0
   27.3033  -21.0666  -14.2912 C   0  0  0  0  0  0  0  0  0  0  0  0
   26.4702  -21.4429  -13.1043 C   0  0  0  0  0  0  0  0  0  0  0  0
   26.2055  -22.6593  -12.8400 O   0  0  0  0  0  0  0  0  0  0  0  0
   25.9391  -20.4711  -12.2235 N   0  0  0  0  0  0  0  0  0  0  0  0
   25.0470  -20.8671  -11.1233 C   0  0  1  0  0  0  0  0  0  0  0  0
   25.4805  -20.2161   -9.8432 C   0  0  0  0  0  0  0  0  0  0  0  0
   26.7799  -20.5753   -9.3265 C   0  0  0  0  0  0  0  0  0  0  0  0
   27.7037  -21.3699  -10.0219 C   0  0  0  0  0  0  0  0  0  0  0  0
   28.8189  -21.4932   -9.2973 N   0  0  0  0  0  0  0  0  0  0  0  0
   28.6870  -20.8187   -8.1462 C   0  0  0  0  0  0  0  0  0  0  0  0
   29.5354  -20.6456   -7.0776 C   0  0  0  0  0  0  0  0  0  0  0  0
   29.1240  -19.8906   -5.9950 C   0  0  0  0  0  0  0  0  0  0  0  0
   27.8917  -19.3202   -5.9783 C   0  0  0  0  0  0  0  0  0  0  0  0
   27.0458  -19.4997   -7.0575 C   0  0  0  0  0  0  0  0  0  0  0  0
   27.4096  -20.2429   -8.1619 C   0  0  0  0  0  0  0  0  0  0  0  0
   23.6778  -20.6723  -11.5462 C   0  0  0  0  0  0  0  0  0  0  0  0
   23.3784  -20.2072  -12.6731 O   0  0  0  0  0  0  0  0  0  0  0  0
   22.6197  -20.9964  -10.7109 O   0  0  0  0  0  0  0  0  0  0  0  0
  2  3  2  0
  2  1  1  0
  4  2  1  0
  5  4  1  0
  5  6  1  1
  7  8  2  0
  7  5  1  0
  9  7  1  0
 10  9  1  0
 11 10  1  0
 11 12  2  0
 13 11  1  0
 14 13  1  0
 14 25  1  0
 14 15  1  1
 16 15  1  0
 17 16  2  0
 18 17  1  0
 19 18  1  0
 19 24  2  0
 20 21  2  0
 20 19  1  0
 21 22  1  0
 22 23  2  0
 24 23  1  0
 24 16  1  0
 25 27  1  0
 26 25  2  0
M  END
$$$$
