NGW.pdb
     RDKit          3D

 27 28  0  0  1  0  0  0  0  0999 V2000
   25.8407  -15.2242  -15.0177 N   0  0  0  0  0  0  0  0  0  0  0  0
   27.1718  -15.2074  -15.5261 C   0  0  0  0  0  0  0  0  0  0  0  0
   27.7992  -14.1282  -15.5348 O   0  0  0  0  0  0  0  0  0  0  0  0
   27.8304  -16.4256  -16.0421 C   0  0  0  0  0  0  0  0  0  0  0  0
   26.9610  -17.6149  -15.7937 C   0  0  2  0  0  0  0  0  0  0  0  0
   26.1648  -17.3779  -14.6222 N   0  0  0  0  0  0  0  0  0  0  0  0
   27.7909  -18.8500  -15.6612 C   0  0  0  0  0  0  0  0  0  0  0  0
   28.6354  -19.1121  -16.5542 O   0  0  0  0  0  0  0  0  0  0  0  0
   27.6676  -19.7394  -14.5719 N   0  0  0  0  0  0  0  0  0  0  0  0
   27.4962  -21.1757  -14.7397 C   0  0  0  0  0  0  0  0  0  0  0  0
   27.1414  -21.7237  -13.3913 C   0  0  0  0  0  0  0  0  0  0  0  0
   26.8924  -22.9604  -13.2238 O   0  0  0  0  0  0  0  0  0  0  0  0
   27.0657  -20.8991  -12.2439 N   0  0  0  0  0  0  0  0  0  0  0  0
   26.5212  -21.4223  -10.9817 C   0  0  1  0  0  0  0  0  0  0  0  0
   27.5626  -21.3652   -9.9036 C   0  0  0  0  0  0  0  0  0  0  0  0
   27.2571  -20.5799   -8.7312 C   0  0  0  0  0  0  0  0  0  0  0  0
   26.0175  -19.9623   -8.5070 C   0  0  0  0  0  0  0  0  0  0  0  0
   26.0369  -19.3420   -7.3243 N   0  0  0  0  0  0  0  0  0  0  0  0
   27.2330  -19.5135   -6.7433 C   0  0  0  0  0  0  0  0  0  0  0  0
   27.7466  -19.0744   -5.5454 C   0  0  0  0  0  0  0  0  0  0  0  0
   29.0446  -19.4007   -5.1989 C   0  0  0  0  0  0  0  0  0  0  0  0
   29.8146  -20.1492   -6.0301 C   0  0  0  0  0  0  0  0  0  0  0  0
   29.2893  -20.5863   -7.2324 C   0  0  0  0  0  0  0  0  0  0  0  0
   27.9998  -20.2887   -7.6235 C   0  0  0  0  0  0  0  0  0  0  0  0
   25.2518  -20.7788  -10.7247 C   0  0  0  0  0  0  0  0  0  0  0  0
   24.8733  -19.7575  -11.3490 O   0  0  0  0  0  0  0  0  0  0  0  0
   24.3842  -21.2706   -9.7616 O   0  0  0  0  0  0  0  0  0  0  0  0
  2  3  2  0
  2  1  1  0
  4  2  1  0
  5  4  1  0
  5  6  1  1
  7  8  2  0
  7  5  1  0
  9  7  1  0
 10  9  1  0
 11 10  1  0
 11 12  2  0
 13 11  1  0
 14 13  1  0
 14 25  1  0
 14 15  1  1
 16 15  1  0
 17 16  2  0
 18 17  1  0
 19 18  1  0
 19 24  2  0
 20 21  2  0
 20 19  1  0
 21 22  1  0
 22 23  2  0
 24 23  1  0
 24 16  1  0
 25 27  1  0
 26 25  2  0
M  END
$$$$
