NGW.pdb
     RDKit          3D

 27 28  0  0  1  0  0  0  0  0999 V2000
   28.1718  -24.7692  -18.7284 N   0  0  0  0  0  0  0  0  0  0  0  0
   27.3614  -23.6301  -19.0048 C   0  0  0  0  0  0  0  0  0  0  0  0
   26.4106  -23.7478  -19.8052 O   0  0  0  0  0  0  0  0  0  0  0  0
   27.6117  -22.3171  -18.3744 C   0  0  0  0  0  0  0  0  0  0  0  0
   28.8119  -22.4015  -17.4886 C   0  0  2  0  0  0  0  0  0  0  0  0
   29.4924  -23.6415  -17.7371 N   0  0  0  0  0  0  0  0  0  0  0  0
   28.4138  -22.2634  -16.0553 C   0  0  0  0  0  0  0  0  0  0  0  0
   27.8670  -23.2384  -15.4810 O   0  0  0  0  0  0  0  0  0  0  0  0
   28.6260  -21.0806  -15.3146 N   0  0  0  0  0  0  0  0  0  0  0  0
   27.5643  -20.1258  -15.0289 C   0  0  0  0  0  0  0  0  0  0  0  0
   26.5231  -20.8665  -14.2469 C   0  0  0  0  0  0  0  0  0  0  0  0
   25.7376  -21.6951  -14.8091 O   0  0  0  0  0  0  0  0  0  0  0  0
   26.3617  -20.6832  -12.8531 N   0  0  0  0  0  0  0  0  0  0  0  0
   25.3017  -21.3951  -12.1232 C   0  0  1  0  0  0  0  0  0  0  0  0
   25.8519  -21.9958  -10.8635 C   0  0  0  0  0  0  0  0  0  0  0  0
   26.3519  -21.0849   -9.8611 C   0  0  0  0  0  0  0  0  0  0  0  0
   25.5526  -20.1466   -9.1911 C   0  0  0  0  0  0  0  0  0  0  0  0
   26.2968  -19.4803   -8.3045 N   0  0  0  0  0  0  0  0  0  0  0  0
   27.5601  -19.9270   -8.3482 C   0  0  0  0  0  0  0  0  0  0  0  0
   28.6895  -19.5657   -7.6513 C   0  0  0  0  0  0  0  0  0  0  0  0
   29.8875  -20.2032   -7.9154 C   0  0  0  0  0  0  0  0  0  0  0  0
   29.9577  -21.1807   -8.8554 C   0  0  0  0  0  0  0  0  0  0  0  0
   28.8167  -21.5374   -9.5508 C   0  0  0  0  0  0  0  0  0  0  0  0
   27.5974  -20.9325   -9.3234 C   0  0  0  0  0  0  0  0  0  0  0  0
   24.1551  -20.5215  -12.0060 C   0  0  0  0  0  0  0  0  0  0  0  0
   24.2297  -19.2812  -12.1847 O   0  0  0  0  0  0  0  0  0  0  0  0
   22.9037  -21.0251  -11.6859 O   0  0  0  0  0  0  0  0  0  0  0  0
  2  3  2  0
  2  1  1  0
  4  2  1  0
  5  4  1  0
  5  6  1  1
  7  8  2  0
  7  5  1  0
  9  7  1  0
 10  9  1  0
 11 10  1  0
 11 12  2  0
 13 11  1  0
 14 13  1  0
 14 25  1  0
 14 15  1  1
 16 15  1  0
 17 16  2  0
 18 17  1  0
 19 18  1  0
 19 24  2  0
 20 21  2  0
 20 19  1  0
 21 22  1  0
 22 23  2  0
 24 23  1  0
 24 16  1  0
 25 27  1  0
 26 25  2  0
M  END
$$$$
