NGW.pdb
     RDKit          3D

 27 28  0  0  1  0  0  0  0  0999 V2000
   30.5845  -18.3490  -20.7539 N   0  0  0  0  0  0  0  0  0  0  0  0
   29.7283  -19.0625  -19.8659 C   0  0  0  0  0  0  0  0  0  0  0  0
   29.2011  -20.1231  -20.2605 O   0  0  0  0  0  0  0  0  0  0  0  0
   29.4460  -18.5863  -18.4956 C   0  0  0  0  0  0  0  0  0  0  0  0
   28.2136  -19.2498  -17.9731 C   0  0  2  0  0  0  0  0  0  0  0  0
   27.0614  -18.6462  -18.5819 N   0  0  0  0  0  0  0  0  0  0  0  0
   28.1650  -19.1616  -16.4826 C   0  0  0  0  0  0  0  0  0  0  0  0
   29.0722  -19.7157  -15.8122 O   0  0  0  0  0  0  0  0  0  0  0  0
   27.1401  -18.4801  -15.7912 N   0  0  0  0  0  0  0  0  0  0  0  0
   27.1037  -18.3704  -14.3396 C   0  0  0  0  0  0  0  0  0  0  0  0
   26.4257  -19.6073  -13.8349 C   0  0  0  0  0  0  0  0  0  0  0  0
   25.6410  -20.2815  -14.5760 O   0  0  0  0  0  0  0  0  0  0  0  0
   26.6223  -20.0848  -12.5174 N   0  0  0  0  0  0  0  0  0  0  0  0
   26.0127  -21.3506  -12.0821 C   0  0  1  0  0  0  0  0  0  0  0  0
   26.7220  -21.8790  -10.8705 C   0  0  0  0  0  0  0  0  0  0  0  0
   26.7337  -21.0415   -9.6945 C   0  0  0  0  0  0  0  0  0  0  0  0
   25.6300  -20.2932   -9.2584 C   0  0  0  0  0  0  0  0  0  0  0  0
   25.9444  -19.6535   -8.1288 N   0  0  0  0  0  0  0  0  0  0  0  0
   27.2092  -19.9367   -7.7859 C   0  0  0  0  0  0  0  0  0  0  0  0
   27.9908  -19.5285   -6.7304 C   0  0  0  0  0  0  0  0  0  0  0  0
   29.2933  -19.9811   -6.6306 C   0  0  0  0  0  0  0  0  0  0  0  0
   29.8058  -20.8233   -7.5645 C   0  0  0  0  0  0  0  0  0  0  0  0
   29.0122  -21.2284   -8.6221 C   0  0  0  0  0  0  0  0  0  0  0  0
   27.7063  -20.8061   -8.7660 C   0  0  0  0  0  0  0  0  0  0  0  0
   24.5806  -21.1677  -11.9961 C   0  0  0  0  0  0  0  0  0  0  0  0
   24.0547  -20.0511  -11.7670 O   0  0  0  0  0  0  0  0  0  0  0  0
   23.7131  -22.2357  -12.1658 O   0  0  0  0  0  0  0  0  0  0  0  0
  2  3  2  0
  2  1  1  0
  4  2  1  0
  5  4  1  0
  5  6  1  6
  7  8  2  0
  7  5  1  0
  9  7  1  0
 10  9  1  0
 11 10  1  0
 11 12  2  0
 13 11  1  0
 14 13  1  0
 14 25  1  0
 14 15  1  1
 16 15  1  0
 17 16  2  0
 18 17  1  0
 19 18  1  0
 19 24  2  0
 20 21  2  0
 20 19  1  0
 21 22  1  0
 22 23  2  0
 24 23  1  0
 24 16  1  0
 25 27  1  0
 26 25  2  0
M  END
$$$$
