NGW.pdb
     RDKit          3D

 27 28  0  0  1  0  0  0  0  0999 V2000
   25.3636  -21.7688  -18.7756 N   0  0  0  0  0  0  0  0  0  0  0  0
   25.6947  -20.5603  -18.0969 C   0  0  0  0  0  0  0  0  0  0  0  0
   25.8283  -19.5130  -18.7632 O   0  0  0  0  0  0  0  0  0  0  0  0
   25.8844  -20.5092  -16.6321 C   0  0  0  0  0  0  0  0  0  0  0  0
   27.3428  -20.4589  -16.3121 C   0  0  2  0  0  0  0  0  0  0  0  0
   27.8783  -21.7909  -16.3516 N   0  0  0  0  0  0  0  0  0  0  0  0
   27.5642  -19.8099  -14.9849 C   0  0  0  0  0  0  0  0  0  0  0  0
   27.1443  -18.6392  -14.8045 O   0  0  0  0  0  0  0  0  0  0  0  0
   28.2273  -20.4570  -13.9198 N   0  0  0  0  0  0  0  0  0  0  0  0
   28.3966  -19.8483  -12.6078 C   0  0  0  0  0  0  0  0  0  0  0  0
   27.7264  -20.7589  -11.6250 C   0  0  0  0  0  0  0  0  0  0  0  0
   28.0952  -21.9689  -11.4853 O   0  0  0  0  0  0  0  0  0  0  0  0
   26.6564  -20.3223  -10.8083 N   0  0  0  0  0  0  0  0  0  0  0  0
   26.0689  -21.2204   -9.8025 C   0  0  1  0  0  0  0  0  0  0  0  0
   27.0793  -21.5444   -8.7422 C   0  0  0  0  0  0  0  0  0  0  0  0
   27.3663  -20.5184   -7.7677 C   0  0  0  0  0  0  0  0  0  0  0  0
   26.8561  -19.2133   -7.8355 C   0  0  0  0  0  0  0  0  0  0  0  0
   27.2739  -18.5165   -6.7754 N   0  0  0  0  0  0  0  0  0  0  0  0
   28.0424  -19.2931   -5.9983 C   0  0  0  0  0  0  0  0  0  0  0  0
   28.7061  -19.0466   -4.8192 C   0  0  0  0  0  0  0  0  0  0  0  0
   29.4491  -20.0533   -4.2310 C   0  0  0  0  0  0  0  0  0  0  0  0
   29.5287  -21.2804   -4.8071 C   0  0  0  0  0  0  0  0  0  0  0  0
   28.8576  -21.5189   -5.9925 C   0  0  0  0  0  0  0  0  0  0  0  0
   28.1022  -20.5483   -6.6184 C   0  0  0  0  0  0  0  0  0  0  0  0
   24.8010  -20.6701   -9.3768 C   0  0  0  0  0  0  0  0  0  0  0  0
   24.3056  -19.6378   -9.8914 O   0  0  0  0  0  0  0  0  0  0  0  0
   24.0663  -21.2694   -8.3653 O   0  0  0  0  0  0  0  0  0  0  0  0
  2  3  2  0
  2  1  1  0
  4  2  1  0
  5  4  1  0
  5  6  1  1
  7  8  2  0
  7  5  1  0
  9  7  1  0
 10  9  1  0
 11 10  1  0
 11 12  2  0
 13 11  1  0
 14 13  1  0
 14 25  1  0
 14 15  1  1
 16 15  1  0
 17 16  2  0
 18 17  1  0
 19 18  1  0
 19 24  2  0
 20 21  2  0
 20 19  1  0
 21 22  1  0
 22 23  2  0
 24 23  1  0
 24 16  1  0
 25 27  1  0
 26 25  2  0
M  END
$$$$
