AYC.pdb
     RDKit          3D

 24 24  0  0  1  0  0  0  0  0999 V2000
   11.4404  -18.7416   25.4455 C   0  0  0  0  0  0  0  0  0  0  0  0
   10.9322  -17.9981   24.2290 C   0  0  2  0  0  0  0  0  0  0  0  0
   11.8365  -16.9360   23.8469 N   0  0  0  0  0  0  0  0  0  0  0  0
    9.5839  -17.4595   24.4304 C   0  0  0  0  0  0  0  0  0  0  0  0
    8.5771  -18.1701   24.7152 O   0  0  0  0  0  0  0  0  0  0  0  0
   10.9351  -15.7389   30.3218 O   0  0  0  0  0  0  0  0  0  0  0  0
   10.2636  -15.3965   29.1390 C   0  0  0  0  0  0  0  0  0  0  0  0
   10.7150  -14.3796   28.3247 C   0  0  0  0  0  0  0  0  0  0  0  0
   10.0546  -14.0436   27.1625 C   0  0  0  0  0  0  0  0  0  0  0  0
    8.9136  -14.7037   26.7554 C   0  0  0  0  0  0  0  0  0  0  0  0
    8.2402  -14.3148   25.5105 C   0  0  0  0  0  0  0  0  0  0  0  0
    8.0452  -15.4763   24.5601 C   0  0  2  0  0  0  0  0  0  0  0  0
    9.3483  -16.0598   24.3077 N   0  0  0  0  0  0  0  0  0  0  0  0
    7.4543  -14.9565   23.2824 C   0  0  0  0  0  0  0  0  0  0  0  0
    6.3601  -14.3396   23.2737 O   0  0  0  0  0  0  0  0  0  0  0  0
    8.4614  -15.7213   27.5697 C   0  0  0  0  0  0  0  0  0  0  0  0
    9.1241  -16.0658   28.7456 C   0  0  0  0  0  0  0  0  0  0  0  0
    8.1381  -15.1639   22.0725 N   0  0  0  0  0  0  0  0  0  0  0  0
    7.7726  -14.5764   20.8130 C   0  0  1  0  0  0  0  0  0  0  0  0
    7.6497  -13.0723   20.9012 C   0  0  0  0  0  0  0  0  0  0  0  0
    7.1572  -12.4961   19.2343 S   0  0  0  0  0  0  0  0  0  0  0  0
    8.6619  -15.0062   19.7074 C   0  0  0  0  0  0  0  0  0  0  0  0
    8.2670  -14.7412   18.4055 O   0  0  0  0  0  0  0  0  0  0  0  0
    9.7577  -15.5987   19.8665 O   0  0  0  0  0  0  0  0  0  0  0  0
  2  1  1  1
  2  4  1  0
  2  3  1  0
  4  5  2  0
  7  6  1  0
  7 17  2  0
  8  7  1  0
  9  8  2  0
  9 10  1  0
 10 16  2  0
 11 10  1  0
 12 11  1  1
 13 12  1  0
 13  4  1  0
 14 12  1  0
 14 15  2  0
 16 17  1  0
 18 14  1  0
 19 18  1  0
 19 22  1  0
 20 21  1  0
 19 20  1  1
 22 24  2  0
 22 23  1  0
M  END
$$$$
