AYC.pdb
     RDKit          3D

 24 24  0  0  1  0  0  0  0  0999 V2000
   10.5718  -18.9571   22.7721 C   0  0  0  0  0  0  0  0  0  0  0  0
   10.5644  -18.3468   24.1572 C   0  0  2  0  0  0  0  0  0  0  0  0
   10.7040  -19.3609   25.1788 N   0  0  0  0  0  0  0  0  0  0  0  0
    9.3609  -17.5479   24.4057 C   0  0  0  0  0  0  0  0  0  0  0  0
    8.3057  -18.0085   24.9293 O   0  0  0  0  0  0  0  0  0  0  0  0
   10.6556  -15.0152   30.2313 O   0  0  0  0  0  0  0  0  0  0  0  0
   10.1523  -14.7811   28.9433 C   0  0  0  0  0  0  0  0  0  0  0  0
   10.9665  -14.8383   27.8320 C   0  0  0  0  0  0  0  0  0  0  0  0
   10.4713  -14.6082   26.5665 C   0  0  0  0  0  0  0  0  0  0  0  0
    9.1424  -14.3103   26.3467 C   0  0  0  0  0  0  0  0  0  0  0  0
    8.6550  -14.0720   24.9828 C   0  0  0  0  0  0  0  0  0  0  0  0
    8.1739  -15.3348   24.3014 C   0  0  2  0  0  0  0  0  0  0  0  0
    9.3342  -16.1679   24.0525 N   0  0  0  0  0  0  0  0  0  0  0  0
    7.5178  -14.9600   23.0049 C   0  0  0  0  0  0  0  0  0  0  0  0
    6.3956  -14.3961   22.9813 O   0  0  0  0  0  0  0  0  0  0  0  0
    8.3272  -14.2530   27.4580 C   0  0  0  0  0  0  0  0  0  0  0  0
    8.8213  -14.4845   28.7398 C   0  0  0  0  0  0  0  0  0  0  0  0
    8.1712  -15.2454   21.7941 N   0  0  0  0  0  0  0  0  0  0  0  0
    7.9116  -14.5821   20.5461 C   0  0  1  0  0  0  0  0  0  0  0  0
    8.0739  -13.0831   20.6541 C   0  0  0  0  0  0  0  0  0  0  0  0
    7.4957  -12.3853   19.0628 S   0  0  0  0  0  0  0  0  0  0  0  0
    8.6949  -15.1554   19.4254 C   0  0  0  0  0  0  0  0  0  0  0  0
    8.3217  -14.8327   18.1302 O   0  0  0  0  0  0  0  0  0  0  0  0
    9.6815  -15.9196   19.5661 O   0  0  0  0  0  0  0  0  0  0  0  0
  2  1  1  6
  2  4  1  0
  2  3  1  0
  4  5  2  0
  7  6  1  0
  7 17  2  0
  8  7  1  0
  9  8  2  0
  9 10  1  0
 10 16  2  0
 11 10  1  0
 12 11  1  6
 13 12  1  0
 13  4  1  0
 14 12  1  0
 14 15  2  0
 16 17  1  0
 18 14  1  0
 19 18  1  0
 19 22  1  0
 20 21  1  0
 19 20  1  1
 22 24  2  0
 22 23  1  0
M  END
$$$$
