AYC.pdb
     RDKit          3D

 24 24  0  0  1  0  0  0  0  0999 V2000
    7.6440  -13.3159   19.8789 C   0  0  0  0  0  0  0  0  0  0  0  0
    8.2555  -14.6297   20.3159 C   0  0  2  0  0  0  0  0  0  0  0  0
    7.2714  -15.6895   20.3260 N   0  0  0  0  0  0  0  0  0  0  0  0
    8.9006  -14.5328   21.6285 C   0  0  0  0  0  0  0  0  0  0  0  0
    9.8686  -13.7592   21.8819 O   0  0  0  0  0  0  0  0  0  0  0  0
    5.9432  -10.5716   27.0929 O   0  0  0  0  0  0  0  0  0  0  0  0
    6.4583  -11.7752   26.5898 C   0  0  0  0  0  0  0  0  0  0  0  0
    5.6687  -12.8985   26.4646 C   0  0  0  0  0  0  0  0  0  0  0  0
    6.1755  -14.0810   25.9701 C   0  0  0  0  0  0  0  0  0  0  0  0
    7.4922  -14.2018   25.5766 C   0  0  0  0  0  0  0  0  0  0  0  0
    7.9926  -15.4793   25.0550 C   0  0  0  0  0  0  0  0  0  0  0  0
    9.0770  -15.3050   24.0139 C   0  0  2  0  0  0  0  0  0  0  0  0
    8.4427  -15.3386   22.7105 N   0  0  0  0  0  0  0  0  0  0  0  0
   10.0534  -16.4370   24.1440 C   0  0  0  0  0  0  0  0  0  0  0  0
   10.5517  -16.7436   25.2556 O   0  0  0  0  0  0  0  0  0  0  0  0
    8.2829  -13.0783   25.7015 C   0  0  0  0  0  0  0  0  0  0  0  0
    7.7769  -11.8802   26.2006 C   0  0  0  0  0  0  0  0  0  0  0  0
   10.4173  -17.1680   23.0005 N   0  0  0  0  0  0  0  0  0  0  0  0
   11.2794  -18.3177   23.0023 C   0  0  1  0  0  0  0  0  0  0  0  0
   10.9426  -19.2831   21.8889 C   0  0  0  0  0  0  0  0  0  0  0  0
    9.1666  -19.6879   22.0763 S   0  0  0  0  0  0  0  0  0  0  0  0
   12.7155  -17.9496   23.0150 C   0  0  0  0  0  0  0  0  0  0  0  0
   13.6552  -18.9676   22.9755 O   0  0  0  0  0  0  0  0  0  0  0  0
   13.1464  -16.7708   23.0596 O   0  0  0  0  0  0  0  0  0  0  0  0
  2  1  1  1
  2  4  1  0
  2  3  1  0
  4  5  2  0
  7  6  1  0
  7 17  2  0
  8  7  1  0
  9  8  2  0
  9 10  1  0
 10 16  2  0
 11 10  1  0
 12 11  1  1
 13 12  1  0
 13  4  1  0
 14 12  1  0
 14 15  2  0
 16 17  1  0
 18 14  1  0
 19 18  1  0
 19 22  1  0
 20 21  1  0
 19 20  1  6
 22 24  2  0
 22 23  1  0
M  END
$$$$
