AYC.pdb
     RDKit          3D

 24 24  0  0  1  0  0  0  0  0999 V2000
    7.2742  -12.4733   19.9339 C   0  0  0  0  0  0  0  0  0  0  0  0
    7.4492  -13.9241   20.3280 C   0  0  2  0  0  0  0  0  0  0  0  0
    6.1756  -14.5498   20.6077 N   0  0  0  0  0  0  0  0  0  0  0  0
    8.3480  -14.0836   21.4748 C   0  0  0  0  0  0  0  0  0  0  0  0
    9.6053  -13.9638   21.4061 O   0  0  0  0  0  0  0  0  0  0  0  0
   10.7581  -15.1965   29.9673 O   0  0  0  0  0  0  0  0  0  0  0  0
   10.0516  -14.9507   28.7809 C   0  0  0  0  0  0  0  0  0  0  0  0
    9.4151  -15.9665   28.0997 C   0  0  0  0  0  0  0  0  0  0  0  0
    8.7209  -15.7244   26.9339 C   0  0  0  0  0  0  0  0  0  0  0  0
    8.6271  -14.4598   26.3905 C   0  0  0  0  0  0  0  0  0  0  0  0
    7.8780  -14.2444   25.1468 C   0  0  0  0  0  0  0  0  0  0  0  0
    8.6724  -14.6087   23.9114 C   0  0  2  0  0  0  0  0  0  0  0  0
    7.8174  -14.3918   22.7606 N   0  0  0  0  0  0  0  0  0  0  0  0
    9.0628  -16.0549   24.0013 C   0  0  0  0  0  0  0  0  0  0  0  0
    8.2815  -16.9655   23.6295 O   0  0  0  0  0  0  0  0  0  0  0  0
    9.2637  -13.4429   27.0715 C   0  0  0  0  0  0  0  0  0  0  0  0
    9.9670  -13.6809   28.2503 C   0  0  0  0  0  0  0  0  0  0  0  0
   10.3267  -16.3969   24.5114 N   0  0  0  0  0  0  0  0  0  0  0  0
   11.0423  -17.6008   24.1894 C   0  0  1  0  0  0  0  0  0  0  0  0
   11.2333  -17.7678   22.6992 C   0  0  0  0  0  0  0  0  0  0  0  0
   12.1093  -19.3589   22.4662 S   0  0  0  0  0  0  0  0  0  0  0  0
   12.3160  -17.7209   24.9387 C   0  0  0  0  0  0  0  0  0  0  0  0
   12.9121  -18.9692   25.0254 O   0  0  0  0  0  0  0  0  0  0  0  0
   12.8994  -16.7644   25.5060 O   0  0  0  0  0  0  0  0  0  0  0  0
  2  1  1  1
  2  4  1  0
  2  3  1  0
  4  5  2  0
  7  6  1  0
  7 17  2  0
  8  7  1  0
  9  8  2  0
  9 10  1  0
 10 16  2  0
 11 10  1  0
 12 11  1  1
 13 12  1  0
 13  4  1  0
 14 12  1  0
 14 15  2  0
 16 17  1  0
 18 14  1  0
 19 18  1  0
 19 22  1  0
 20 21  1  0
 19 20  1  6
 22 24  2  0
 22 23  1  0
M  END
$$$$
