AYC.pdb
     RDKit          3D

 24 24  0  0  1  0  0  0  0  0999 V2000
   10.2755  -16.3550   18.7716 C   0  0  0  0  0  0  0  0  0  0  0  0
   10.0645  -17.2331   19.9863 C   0  0  2  0  0  0  0  0  0  0  0  0
    8.8472  -18.0055   19.8709 N   0  0  0  0  0  0  0  0  0  0  0  0
   10.0524  -16.4627   21.2332 C   0  0  0  0  0  0  0  0  0  0  0  0
   11.0960  -16.0439   21.8123 O   0  0  0  0  0  0  0  0  0  0  0  0
    6.4740  -11.6516   27.8371 O   0  0  0  0  0  0  0  0  0  0  0  0
    6.6994  -12.3986   26.6717 C   0  0  0  0  0  0  0  0  0  0  0  0
    6.1653  -13.6596   26.5116 C   0  0  0  0  0  0  0  0  0  0  0  0
    6.3872  -14.3932   25.3660 C   0  0  0  0  0  0  0  0  0  0  0  0
    7.1512  -13.9068   24.3254 C   0  0  0  0  0  0  0  0  0  0  0  0
    7.3632  -14.7203   23.1221 C   0  0  0  0  0  0  0  0  0  0  0  0
    8.7514  -15.3192   23.0545 C   0  0  2  0  0  0  0  0  0  0  0  0
    8.8153  -16.1445   21.8642 N   0  0  0  0  0  0  0  0  0  0  0  0
    8.9719  -16.1583   24.2789 C   0  0  0  0  0  0  0  0  0  0  0  0
    8.2221  -17.1296   24.5474 O   0  0  0  0  0  0  0  0  0  0  0  0
    7.6858  -12.6452   24.4848 C   0  0  0  0  0  0  0  0  0  0  0  0
    7.4654  -11.8985   25.6401 C   0  0  0  0  0  0  0  0  0  0  0  0
   10.0377  -15.8514   25.1418 N   0  0  0  0  0  0  0  0  0  0  0  0
   10.4136  -16.6300   26.2896 C   0  0  1  0  0  0  0  0  0  0  0  0
   11.8397  -17.1231   26.2003 C   0  0  0  0  0  0  0  0  0  0  0  0
   11.9479  -18.1145   24.6645 S   0  0  0  0  0  0  0  0  0  0  0  0
   10.1380  -15.9280   27.5660 C   0  0  0  0  0  0  0  0  0  0  0  0
   10.3570  -16.6108   28.7521 O   0  0  0  0  0  0  0  0  0  0  0  0
    9.7164  -14.7481   27.6512 O   0  0  0  0  0  0  0  0  0  0  0  0
  2  1  1  6
  2  4  1  0
  2  3  1  0
  4  5  2  0
  7  6  1  0
  7 17  2  0
  8  7  1  0
  9  8  2  0
  9 10  1  0
 10 16  2  0
 11 10  1  0
 12 11  1  1
 13 12  1  0
 13  4  1  0
 14 12  1  0
 14 15  2  0
 16 17  1  0
 18 14  1  0
 19 18  1  0
 19 22  1  0
 20 21  1  0
 19 20  1  6
 22 24  2  0
 22 23  1  0
M  END
$$$$
