AYC.pdb
     RDKit          3D

 24 24  0  0  1  0  0  0  0  0999 V2000
    7.4176  -14.4254   19.6116 C   0  0  0  0  0  0  0  0  0  0  0  0
    7.5563  -15.8875   19.9778 C   0  0  2  0  0  0  0  0  0  0  0  0
    6.6752  -16.7140   19.1828 N   0  0  0  0  0  0  0  0  0  0  0  0
    7.3172  -16.1280   21.4038 C   0  0  0  0  0  0  0  0  0  0  0  0
    6.1669  -16.2642   21.9117 O   0  0  0  0  0  0  0  0  0  0  0  0
    8.8465  -18.1726   29.8698 O   0  0  0  0  0  0  0  0  0  0  0  0
    8.9793  -17.9231   28.4960 C   0  0  0  0  0  0  0  0  0  0  0  0
    8.1848  -18.5637   27.5690 C   0  0  0  0  0  0  0  0  0  0  0  0
    8.3157  -18.3181   26.2191 C   0  0  0  0  0  0  0  0  0  0  0  0
    9.2436  -17.4233   25.7276 C   0  0  0  0  0  0  0  0  0  0  0  0
    9.3510  -17.1904   24.2823 C   0  0  0  0  0  0  0  0  0  0  0  0
    8.2234  -16.3400   23.7386 C   0  0  2  0  0  0  0  0  0  0  0  0
    8.4155  -16.2209   22.3064 N   0  0  0  0  0  0  0  0  0  0  0  0
    8.2887  -14.9870   24.3843 C   0  0  0  0  0  0  0  0  0  0  0  0
    9.2365  -14.1971   24.1484 O   0  0  0  0  0  0  0  0  0  0  0  0
   10.0390  -16.7821   26.6545 C   0  0  0  0  0  0  0  0  0  0  0  0
    9.9117  -17.0258   28.0202 C   0  0  0  0  0  0  0  0  0  0  0  0
    7.2700  -14.5962   25.2697 N   0  0  0  0  0  0  0  0  0  0  0  0
    7.1817  -13.3081   25.9007 C   0  0  1  0  0  0  0  0  0  0  0  0
    5.7563  -12.8118   25.9835 C   0  0  0  0  0  0  0  0  0  0  0  0
    5.8258  -11.1773   26.8062 S   0  0  0  0  0  0  0  0  0  0  0  0
    7.8694  -13.2713   27.2136 C   0  0  0  0  0  0  0  0  0  0  0  0
    8.2440  -12.0388   27.7249 O   0  0  0  0  0  0  0  0  0  0  0  0
    8.1397  -14.2859   27.9026 O   0  0  0  0  0  0  0  0  0  0  0  0
  2  1  1  1
  2  4  1  0
  2  3  1  0
  4  5  2  0
  7  6  1  0
  7 17  2  0
  8  7  1  0
  9  8  2  0
  9 10  1  0
 10 16  2  0
 11 10  1  0
 12 11  1  1
 13 12  1  0
 13  4  1  0
 14 12  1  0
 14 15  2  0
 16 17  1  0
 18 14  1  0
 19 18  1  0
 19 22  1  0
 20 21  1  0
 19 20  1  1
 22 24  2  0
 22 23  1  0
M  END
$$$$
