AYC.pdb
     RDKit          3D

 24 24  0  0  1  0  0  0  0  0999 V2000
   10.1948  -19.3344   21.8697 C   0  0  0  0  0  0  0  0  0  0  0  0
    9.9743  -18.1407   20.9656 C   0  0  2  0  0  0  0  0  0  0  0  0
   10.9207  -18.1282   19.8720 N   0  0  0  0  0  0  0  0  0  0  0  0
   10.0365  -16.8715   21.6962 C   0  0  0  0  0  0  0  0  0  0  0  0
   11.0822  -16.1670   21.7961 O   0  0  0  0  0  0  0  0  0  0  0  0
    7.7426  -12.7668   17.3181 O   0  0  0  0  0  0  0  0  0  0  0  0
    7.7488  -13.1395   18.6702 C   0  0  0  0  0  0  0  0  0  0  0  0
    6.9071  -14.1209   19.1492 C   0  0  0  0  0  0  0  0  0  0  0  0
    6.9137  -14.4867   20.4781 C   0  0  0  0  0  0  0  0  0  0  0  0
    7.7582  -13.8932   21.3934 C   0  0  0  0  0  0  0  0  0  0  0  0
    7.7339  -14.3120   22.8000 C   0  0  0  0  0  0  0  0  0  0  0  0
    8.9178  -15.1762   23.1766 C   0  0  2  0  0  0  0  0  0  0  0  0
    8.8749  -16.3643   22.3467 N   0  0  0  0  0  0  0  0  0  0  0  0
    8.7965  -15.5512   24.6246 C   0  0  0  0  0  0  0  0  0  0  0  0
    8.7049  -14.6747   25.5197 O   0  0  0  0  0  0  0  0  0  0  0  0
    8.6006  -12.9112   20.9149 C   0  0  0  0  0  0  0  0  0  0  0  0
    8.5989  -12.5368   19.5731 C   0  0  0  0  0  0  0  0  0  0  0  0
    8.7852  -16.9091   24.9860 N   0  0  0  0  0  0  0  0  0  0  0  0
    8.7714  -17.3977   26.3373 C   0  0  1  0  0  0  0  0  0  0  0  0
    7.5339  -18.2134   26.6347 C   0  0  0  0  0  0  0  0  0  0  0  0
    6.1023  -17.1417   26.2408 S   0  0  0  0  0  0  0  0  0  0  0  0
   10.0191  -18.1147   26.6939 C   0  0  0  0  0  0  0  0  0  0  0  0
   10.1330  -18.6401   27.9714 O   0  0  0  0  0  0  0  0  0  0  0  0
   10.9897  -18.2821   25.9147 O   0  0  0  0  0  0  0  0  0  0  0  0
  2  1  1  1
  2  4  1  0
  2  3  1  0
  4  5  2  0
  7  6  1  0
  7 17  2  0
  8  7  1  0
  9  8  2  0
  9 10  1  0
 10 16  2  0
 11 10  1  0
 12 11  1  6
 13 12  1  0
 13  4  1  0
 14 12  1  0
 14 15  2  0
 16 17  1  0
 18 14  1  0
 19 18  1  0
 19 22  1  0
 20 21  1  0
 19 20  1  6
 22 24  2  0
 22 23  1  0
M  END
$$$$
