AYC.pdb
     RDKit          3D

 24 24  0  0  1  0  0  0  0  0999 V2000
    7.4679  -19.8565   25.1069 C   0  0  0  0  0  0  0  0  0  0  0  0
    7.4915  -18.5391   25.8517 C   0  0  2  0  0  0  0  0  0  0  0  0
    6.6779  -18.5963   27.0460 N   0  0  0  0  0  0  0  0  0  0  0  0
    7.0665  -17.4172   25.0095 C   0  0  0  0  0  0  0  0  0  0  0  0
    5.8641  -17.1963   24.6850 O   0  0  0  0  0  0  0  0  0  0  0  0
    5.6244  -11.7260   28.4179 O   0  0  0  0  0  0  0  0  0  0  0  0
    6.3036  -12.3319   27.3509 C   0  0  0  0  0  0  0  0  0  0  0  0
    5.8333  -12.2455   26.0576 C   0  0  0  0  0  0  0  0  0  0  0  0
    6.5012  -12.8412   25.0094 C   0  0  0  0  0  0  0  0  0  0  0  0
    7.6689  -13.5512   25.1983 C   0  0  0  0  0  0  0  0  0  0  0  0
    8.3495  -14.1705   24.0547 C   0  0  0  0  0  0  0  0  0  0  0  0
    7.6709  -15.4381   23.5828 C   0  0  2  0  0  0  0  0  0  0  0  0
    8.0305  -16.4974   24.5052 N   0  0  0  0  0  0  0  0  0  0  0  0
    8.1657  -15.7622   22.2037 C   0  0  0  0  0  0  0  0  0  0  0  0
    9.0115  -16.6708   22.0112 O   0  0  0  0  0  0  0  0  0  0  0  0
    8.1400  -13.6381   26.4919 C   0  0  0  0  0  0  0  0  0  0  0  0
    7.4698  -13.0384   27.5558 C   0  0  0  0  0  0  0  0  0  0  0  0
    7.6735  -15.0352   21.1065 N   0  0  0  0  0  0  0  0  0  0  0  0
    7.9933  -15.3078   19.7323 C   0  0  1  0  0  0  0  0  0  0  0  0
    7.3367  -14.3253   18.7897 C   0  0  0  0  0  0  0  0  0  0  0  0
    7.9935  -12.6728   19.2268 S   0  0  0  0  0  0  0  0  0  0  0  0
    9.4534  -15.4217   19.5017 C   0  0  0  0  0  0  0  0  0  0  0  0
    9.8890  -15.9678   18.3046 O   0  0  0  0  0  0  0  0  0  0  0  0
   10.3326  -15.0558   20.3204 O   0  0  0  0  0  0  0  0  0  0  0  0
  2  1  1  6
  2  4  1  0
  2  3  1  0
  4  5  2  0
  7  6  1  0
  7 17  2  0
  8  7  1  0
  9  8  2  0
  9 10  1  0
 10 16  2  0
 11 10  1  0
 12 11  1  1
 13 12  1  0
 13  4  1  0
 14 12  1  0
 14 15  2  0
 16 17  1  0
 18 14  1  0
 19 18  1  0
 19 22  1  0
 20 21  1  0
 19 20  1  6
 22 24  2  0
 22 23  1  0
M  END
$$$$
