AYC.pdb
     RDKit          3D

 24 24  0  0  1  0  0  0  0  0999 V2000
    3.8626  -21.8119   20.5199 C   0  0  0  0  0  0  0  0  0  0  0  0
    4.6305  -22.9460   19.8756 C   0  0  2  0  0  0  0  0  0  0  0  0
    3.8030  -24.1227   19.7267 N   0  0  0  0  0  0  0  0  0  0  0  0
    5.8503  -23.2820   20.6157 C   0  0  0  0  0  0  0  0  0  0  0  0
    5.8758  -24.0525   21.6184 O   0  0  0  0  0  0  0  0  0  0  0  0
   14.6085  -23.5809   22.3391 O   0  0  0  0  0  0  0  0  0  0  0  0
   13.3423  -23.3612   21.7774 C   0  0  0  0  0  0  0  0  0  0  0  0
   13.1532  -22.4402   20.7689 C   0  0  0  0  0  0  0  0  0  0  0  0
   11.9085  -22.2248   20.2174 C   0  0  0  0  0  0  0  0  0  0  0  0
   10.7929  -22.9155   20.6432 C   0  0  0  0  0  0  0  0  0  0  0  0
    9.4851  -22.6562   20.0294 C   0  0  0  0  0  0  0  0  0  0  0  0
    8.3283  -23.0121   20.9379 C   0  0  2  0  0  0  0  0  0  0  0  0
    7.1022  -22.7310   20.2170 N   0  0  0  0  0  0  0  0  0  0  0  0
    8.4094  -22.1630   22.1726 C   0  0  0  0  0  0  0  0  0  0  0  0
    8.0225  -20.9680   22.1687 O   0  0  0  0  0  0  0  0  0  0  0  0
   10.9814  -23.8371   21.6523 C   0  0  0  0  0  0  0  0  0  0  0  0
   12.2366  -24.0597   22.2140 C   0  0  0  0  0  0  0  0  0  0  0  0
    8.9282  -22.7156   23.3559 N   0  0  0  0  0  0  0  0  0  0  0  0
    8.9470  -22.0528   24.6308 C   0  0  1  0  0  0  0  0  0  0  0  0
    7.5647  -21.9347   25.2310 C   0  0  0  0  0  0  0  0  0  0  0  0
    7.0602  -23.6306   25.7029 S   0  0  0  0  0  0  0  0  0  0  0  0
    9.9206  -22.6585   25.5706 C   0  0  0  0  0  0  0  0  0  0  0  0
   10.1852  -21.9971   26.7595 O   0  0  0  0  0  0  0  0  0  0  0  0
   10.5288  -23.7379   25.3654 O   0  0  0  0  0  0  0  0  0  0  0  0
  2  1  1  1
  2  4  1  0
  2  3  1  0
  4  5  2  0
  7  6  1  0
  7 17  2  0
  8  7  1  0
  9  8  2  0
  9 10  1  0
 10 16  2  0
 11 10  1  0
 12 11  1  6
 13 12  1  0
 13  4  1  0
 14 12  1  0
 14 15  2  0
 16 17  1  0
 18 14  1  0
 19 18  1  0
 19 22  1  0
 20 21  1  0
 19 20  1  1
 22 24  2  0
 22 23  1  0
M  END
$$$$
