AYC.pdb
     RDKit          3D

 24 24  0  0  1  0  0  0  0  0999 V2000
    8.2246  -18.2680   19.3346 C   0  0  0  0  0  0  0  0  0  0  0  0
    8.8685  -16.8999   19.2675 C   0  0  2  0  0  0  0  0  0  0  0  0
   10.0920  -16.9324   18.4971 N   0  0  0  0  0  0  0  0  0  0  0  0
    9.1292  -16.3429   20.5981 C   0  0  0  0  0  0  0  0  0  0  0  0
   10.2423  -16.4306   21.1924 O   0  0  0  0  0  0  0  0  0  0  0  0
    7.3140  -11.9801   28.1734 O   0  0  0  0  0  0  0  0  0  0  0  0
    7.2798  -12.5168   26.8781 C   0  0  0  0  0  0  0  0  0  0  0  0
    6.3543  -13.4744   26.5210 C   0  0  0  0  0  0  0  0  0  0  0  0
    6.3212  -14.0016   25.2479 C   0  0  0  0  0  0  0  0  0  0  0  0
    7.2075  -13.6008   24.2697 C   0  0  0  0  0  0  0  0  0  0  0  0
    7.1385  -14.1873   22.9258 C   0  0  0  0  0  0  0  0  0  0  0  0
    8.3072  -15.0994   22.6218 C   0  0  2  0  0  0  0  0  0  0  0  0
    8.0973  -15.6546   21.2990 N   0  0  0  0  0  0  0  0  0  0  0  0
    8.3381  -16.1966   23.6451 C   0  0  0  0  0  0  0  0  0  0  0  0
    7.4094  -17.0385   23.7266 O   0  0  0  0  0  0  0  0  0  0  0  0
    8.1338  -12.6428   24.6262 C   0  0  0  0  0  0  0  0  0  0  0  0
    8.1726  -12.1060   25.9111 C   0  0  0  0  0  0  0  0  0  0  0  0
    9.4269  -16.2839   24.5290 N   0  0  0  0  0  0  0  0  0  0  0  0
    9.5443  -17.2426   25.5931 C   0  0  1  0  0  0  0  0  0  0  0  0
   10.5464  -18.3280   25.2729 C   0  0  0  0  0  0  0  0  0  0  0  0
   11.1373  -17.9994   23.5712 S   0  0  0  0  0  0  0  0  0  0  0  0
    9.8039  -16.6040   26.9057 C   0  0  0  0  0  0  0  0  0  0  0  0
    9.7786  -17.3998   28.0402 O   0  0  0  0  0  0  0  0  0  0  0  0
   10.0473  -15.3824   27.0656 O   0  0  0  0  0  0  0  0  0  0  0  0
  2  1  1  1
  2  4  1  0
  2  3  1  0
  4  5  2  0
  7  6  1  0
  7 17  2  0
  8  7  1  0
  9  8  2  0
  9 10  1  0
 10 16  2  0
 11 10  1  0
 12 11  1  1
 13 12  1  0
 13  4  1  0
 14 12  1  0
 14 15  2  0
 16 17  1  0
 18 14  1  0
 19 18  1  0
 19 22  1  0
 20 21  1  0
 19 20  1  6
 22 24  2  0
 22 23  1  0
M  END
$$$$
