AYC.pdb
     RDKit          3D

 24 24  0  0  1  0  0  0  0  0999 V2000
    7.2902  -21.7125   14.4465 C   0  0  0  0  0  0  0  0  0  0  0  0
    8.4621  -21.9191   13.5112 C   0  0  2  0  0  0  0  0  0  0  0  0
    8.1977  -22.9798   12.5642 N   0  0  0  0  0  0  0  0  0  0  0  0
    9.7080  -22.1919   14.2336 C   0  0  0  0  0  0  0  0  0  0  0  0
   10.0442  -23.3380   14.6497 O   0  0  0  0  0  0  0  0  0  0  0  0
   17.7558  -20.7123   17.7135 O   0  0  0  0  0  0  0  0  0  0  0  0
   16.5389  -20.6068   17.0243 C   0  0  0  0  0  0  0  0  0  0  0  0
   15.5790  -19.6898   17.3966 C   0  0  0  0  0  0  0  0  0  0  0  0
   14.3833  -19.5866   16.7188 C   0  0  0  0  0  0  0  0  0  0  0  0
   14.0861  -20.3911   15.6382 C   0  0  0  0  0  0  0  0  0  0  0  0
   12.8008  -20.2493   14.9436 C   0  0  0  0  0  0  0  0  0  0  0  0
   11.8122  -21.3353   15.3088 C   0  0  2  0  0  0  0  0  0  0  0  0
   10.6227  -21.1338   14.5047 N   0  0  0  0  0  0  0  0  0  0  0  0
   11.4791  -21.2103   16.7666 C   0  0  0  0  0  0  0  0  0  0  0  0
   10.6400  -20.3690   17.1739 O   0  0  0  0  0  0  0  0  0  0  0  0
   15.0460  -21.3089   15.2651 C   0  0  0  0  0  0  0  0  0  0  0  0
   16.2565  -21.4183   15.9459 C   0  0  0  0  0  0  0  0  0  0  0  0
   12.1183  -22.0506   17.6940 N   0  0  0  0  0  0  0  0  0  0  0  0
   11.8472  -22.0705   19.1050 C   0  0  1  0  0  0  0  0  0  0  0  0
   10.6704  -22.9559   19.4458 C   0  0  0  0  0  0  0  0  0  0  0  0
   11.2401  -24.6815   19.2198 S   0  0  0  0  0  0  0  0  0  0  0  0
   13.0497  -22.3958   19.9090 C   0  0  0  0  0  0  0  0  0  0  0  0
   12.9460  -22.3595   21.2906 O   0  0  0  0  0  0  0  0  0  0  0  0
   14.1662  -22.7048   19.4241 O   0  0  0  0  0  0  0  0  0  0  0  0
  2  1  1  1
  2  4  1  0
  2  3  1  0
  4  5  2  0
  7  6  1  0
  7 17  2  0
  8  7  1  0
  9  8  2  0
  9 10  1  0
 10 16  2  0
 11 10  1  0
 12 11  1  6
 13 12  1  0
 13  4  1  0
 14 12  1  0
 14 15  2  0
 16 17  1  0
 18 14  1  0
 19 18  1  0
 19 22  1  0
 20 21  1  0
 19 20  1  6
 22 24  2  0
 22 23  1  0
M  END
$$$$
