AGW.pdb
     RDKit          3D

 24 25  0  0  1  0  0  0  0  0999 V2000
   19.3253  -23.9525  -15.2398 C   0  0  0  0  0  0  0  0  0  0  0  0
   20.8135  -23.7582  -14.9979 C   0  0  2  0  0  0  0  0  0  0  0  0
   21.2299  -24.8394  -14.1239 N   0  0  0  0  0  0  0  0  0  0  0  0
   21.0042  -22.4360  -14.3932 C   0  0  0  0  0  0  0  0  0  0  0  0
   20.2681  -21.4811  -14.7522 O   0  0  0  0  0  0  0  0  0  0  0  0
   21.9898  -22.1518  -13.4029 N   0  0  0  0  0  0  0  0  0  0  0  0
   21.9162  -20.9373  -12.6353 C   0  0  0  0  0  0  0  0  0  0  0  0
   23.1733  -20.2090  -12.4870 C   0  0  0  0  0  0  0  0  0  0  0  0
   23.0938  -19.1134  -11.8239 O   0  0  0  0  0  0  0  0  0  0  0  0
   24.4364  -20.5632  -12.9774 N   0  0  0  0  0  0  0  0  0  0  0  0
   25.6009  -19.7125  -12.9032 C   0  0  1  0  0  0  0  0  0  0  0  0
   26.7396  -20.3928  -12.1637 C   0  0  0  0  0  0  0  0  0  0  0  0
   26.3353  -20.8515  -10.8160 C   0  0  0  0  0  0  0  0  0  0  0  0
   25.4829  -21.9157  -10.5010 C   0  0  0  0  0  0  0  0  0  0  0  0
   25.3422  -22.0390   -9.1870 N   0  0  0  0  0  0  0  0  0  0  0  0
   26.0905  -21.0702   -8.6339 C   0  0  0  0  0  0  0  0  0  0  0  0
   26.2672  -20.7917   -7.2958 C   0  0  0  0  0  0  0  0  0  0  0  0
   27.0812  -19.7491   -6.9648 C   0  0  0  0  0  0  0  0  0  0  0  0
   27.7276  -18.9712   -7.9117 C   0  0  0  0  0  0  0  0  0  0  0  0
   27.5489  -19.2528   -9.2564 C   0  0  0  0  0  0  0  0  0  0  0  0
   26.7203  -20.3144   -9.5970 C   0  0  0  0  0  0  0  0  0  0  0  0
   26.0795  -19.3382  -14.2471 C   0  0  0  0  0  0  0  0  0  0  0  0
   27.1087  -18.4414  -14.4373 O   0  0  0  0  0  0  0  0  0  0  0  0
   25.5520  -19.8360  -15.2726 O   0  0  0  0  0  0  0  0  0  0  0  0
  2  1  1  1
  3  2  1  0
  4  6  1  0
  4  2  1  0
  5  4  2  0
  7  8  1  0
  7  6  1  0
  8 10  1  0
  9  8  2  0
 10 11  1  0
 11 12  1  6
 12 13  1  0
 13 14  2  0
 13 21  1  0
 14 15  1  0
 15 16  1  0
 16 17  2  0
 17 18  1  0
 19 18  2  0
 20 19  1  0
 21 20  2  0
 21 16  1  0
 22 23  1  0
 22 11  1  0
 24 22  2  0
M  END
$$$$
