AGW.pdb
     RDKit          3D

 24 25  0  0  1  0  0  0  0  0999 V2000
   29.3837  -17.1378  -18.1618 C   0  0  0  0  0  0  0  0  0  0  0  0
   28.4579  -18.3160  -17.9050 C   0  0  2  0  0  0  0  0  0  0  0  0
   27.2029  -18.0001  -18.5619 N   0  0  0  0  0  0  0  0  0  0  0  0
   28.3144  -18.4699  -16.4539 C   0  0  0  0  0  0  0  0  0  0  0  0
   29.2298  -19.0319  -15.7992 O   0  0  0  0  0  0  0  0  0  0  0  0
   27.1818  -18.0155  -15.7166 N   0  0  0  0  0  0  0  0  0  0  0  0
   27.1150  -18.2176  -14.2938 C   0  0  0  0  0  0  0  0  0  0  0  0
   26.3686  -19.3954  -13.8595 C   0  0  0  0  0  0  0  0  0  0  0  0
   25.4650  -19.7999  -14.6757 O   0  0  0  0  0  0  0  0  0  0  0  0
   26.5233  -20.1232  -12.6730 N   0  0  0  0  0  0  0  0  0  0  0  0
   25.8249  -21.3531  -12.3814 C   0  0  1  0  0  0  0  0  0  0  0  0
   26.4061  -22.0460  -11.1614 C   0  0  0  0  0  0  0  0  0  0  0  0
   26.3747  -21.1819   -9.9604 C   0  0  0  0  0  0  0  0  0  0  0  0
   25.2879  -20.4506   -9.4680 C   0  0  0  0  0  0  0  0  0  0  0  0
   25.6217  -19.7846   -8.3696 N   0  0  0  0  0  0  0  0  0  0  0  0
   26.9133  -20.0679   -8.1332 C   0  0  0  0  0  0  0  0  0  0  0  0
   27.7090  -19.6131   -7.1040 C   0  0  0  0  0  0  0  0  0  0  0  0
   29.0040  -20.0383   -7.0651 C   0  0  0  0  0  0  0  0  0  0  0  0
   29.5405  -20.8988   -8.0092 C   0  0  0  0  0  0  0  0  0  0  0  0
   28.7389  -21.3552   -9.0430 C   0  0  0  0  0  0  0  0  0  0  0  0
   27.4192  -20.9239   -9.0856 C   0  0  0  0  0  0  0  0  0  0  0  0
   24.3905  -21.1117  -12.1376 C   0  0  0  0  0  0  0  0  0  0  0  0
   23.4454  -22.1065  -12.2679 O   0  0  0  0  0  0  0  0  0  0  0  0
   23.9849  -19.9723  -11.7987 O   0  0  0  0  0  0  0  0  0  0  0  0
  2  1  1  1
  3  2  1  0
  4  6  1  0
  4  2  1  0
  5  4  2  0
  7  8  1  0
  7  6  1  0
  8 10  1  0
  9  8  2  0
 10 11  1  0
 11 12  1  1
 12 13  1  0
 13 14  2  0
 13 21  1  0
 14 15  1  0
 15 16  1  0
 16 17  2  0
 17 18  1  0
 19 18  2  0
 20 19  1  0
 21 20  2  0
 21 16  1  0
 22 23  1  0
 22 11  1  0
 24 22  2  0
M  END
$$$$
