AGW.pdb
     RDKit          3D

 24 25  0  0  1  0  0  0  0  0999 V2000
   27.4743  -17.9099  -16.9102 C   0  0  0  0  0  0  0  0  0  0  0  0
   26.5073  -18.4119  -15.8500 C   0  0  2  0  0  0  0  0  0  0  0  0
   26.1336  -17.2550  -15.0574 N   0  0  0  0  0  0  0  0  0  0  0  0
   27.1946  -19.4400  -15.0621 C   0  0  0  0  0  0  0  0  0  0  0  0
   27.2839  -20.6094  -15.5170 O   0  0  0  0  0  0  0  0  0  0  0  0
   27.7824  -19.1995  -13.7856 N   0  0  0  0  0  0  0  0  0  0  0  0
   28.3145  -20.2920  -13.0156 C   0  0  0  0  0  0  0  0  0  0  0  0
   27.3871  -20.9055  -12.0687 C   0  0  0  0  0  0  0  0  0  0  0  0
   26.5453  -21.7256  -12.5835 O   0  0  0  0  0  0  0  0  0  0  0  0
   27.3121  -20.7051  -10.6847 N   0  0  0  0  0  0  0  0  0  0  0  0
   26.4148  -21.4235   -9.8106 C   0  0  1  0  0  0  0  0  0  0  0  0
   27.0586  -21.7062   -8.4645 C   0  0  0  0  0  0  0  0  0  0  0  0
   27.2698  -20.4717   -7.6761 C   0  0  0  0  0  0  0  0  0  0  0  0
   26.8260  -19.1807   -7.9839 C   0  0  0  0  0  0  0  0  0  0  0  0
   27.2001  -18.3144   -7.0505 N   0  0  0  0  0  0  0  0  0  0  0  0
   27.8839  -19.0184   -6.1334 C   0  0  0  0  0  0  0  0  0  0  0  0
   28.4732  -18.5594   -4.9751 C   0  0  0  0  0  0  0  0  0  0  0  0
   29.1211  -19.4653   -4.1885 C   0  0  0  0  0  0  0  0  0  0  0  0
   29.2068  -20.8109   -4.5072 C   0  0  0  0  0  0  0  0  0  0  0  0
   28.6137  -21.2705   -5.6719 C   0  0  0  0  0  0  0  0  0  0  0  0
   27.9528  -20.3502   -6.4755 C   0  0  0  0  0  0  0  0  0  0  0  0
   25.1700  -20.6673   -9.5790 C   0  0  0  0  0  0  0  0  0  0  0  0
   24.0693  -21.2319   -8.9711 O   0  0  0  0  0  0  0  0  0  0  0  0
   25.0783  -19.4666   -9.9364 O   0  0  0  0  0  0  0  0  0  0  0  0
  2  1  1  6
  3  2  1  0
  4  6  1  0
  4  2  1  0
  5  4  2  0
  7  8  1  0
  7  6  1  0
  8 10  1  0
  9  8  2  0
 10 11  1  0
 11 12  1  1
 12 13  1  0
 13 14  2  0
 13 21  1  0
 14 15  1  0
 15 16  1  0
 16 17  2  0
 17 18  1  0
 19 18  2  0
 20 19  1  0
 21 20  2  0
 21 16  1  0
 22 23  1  0
 22 11  1  0
 24 22  2  0
M  END
$$$$
