AGW.pdb
     RDKit          3D

 24 25  0  0  1  0  0  0  0  0999 V2000
   29.0718  -21.7855  -17.5270 C   0  0  0  0  0  0  0  0  0  0  0  0
   29.2371  -21.3293  -16.0863 C   0  0  2  0  0  0  0  0  0  0  0  0
   28.4556  -22.2450  -15.2757 N   0  0  0  0  0  0  0  0  0  0  0  0
   28.7627  -19.9449  -15.9936 C   0  0  0  0  0  0  0  0  0  0  0  0
   28.6727  -19.2518  -17.0395 O   0  0  0  0  0  0  0  0  0  0  0  0
   28.3875  -19.3157  -14.7703 N   0  0  0  0  0  0  0  0  0  0  0  0
   27.1320  -18.6208  -14.6685 C   0  0  0  0  0  0  0  0  0  0  0  0
   26.0624  -19.3490  -13.9913 C   0  0  0  0  0  0  0  0  0  0  0  0
   24.9123  -19.2782  -14.5557 O   0  0  0  0  0  0  0  0  0  0  0  0
   26.1462  -20.1045  -12.8150 N   0  0  0  0  0  0  0  0  0  0  0  0
   25.2194  -21.1533  -12.4593 C   0  0  1  0  0  0  0  0  0  0  0  0
   25.7669  -22.0224  -11.3408 C   0  0  0  0  0  0  0  0  0  0  0  0
   26.1547  -21.2274  -10.1543 C   0  0  0  0  0  0  0  0  0  0  0  0
   25.3125  -20.4951   -9.3101 C   0  0  0  0  0  0  0  0  0  0  0  0
   26.0052  -19.9021   -8.3456 N   0  0  0  0  0  0  0  0  0  0  0  0
   27.2913  -20.2345   -8.5445 C   0  0  0  0  0  0  0  0  0  0  0  0
   28.3906  -19.8613   -7.8018 C   0  0  0  0  0  0  0  0  0  0  0  0
   29.6114  -20.3242   -8.1951 C   0  0  0  0  0  0  0  0  0  0  0  0
   29.7836  -21.1444   -9.2984 C   0  0  0  0  0  0  0  0  0  0  0  0
   28.6773  -21.5187  -10.0437 C   0  0  0  0  0  0  0  0  0  0  0  0
   27.4322  -21.0489   -9.6457 C   0  0  0  0  0  0  0  0  0  0  0  0
   23.9233  -20.6003  -12.0240 C   0  0  0  0  0  0  0  0  0  0  0  0
   22.7706  -21.3558  -12.0062 O   0  0  0  0  0  0  0  0  0  0  0  0
   23.8340  -19.4041  -11.6513 O   0  0  0  0  0  0  0  0  0  0  0  0
  2  1  1  6
  3  2  1  0
  4  6  1  0
  4  2  1  0
  5  4  2  0
  7  8  1  0
  7  6  1  0
  8 10  1  0
  9  8  2  0
 10 11  1  0
 11 12  1  1
 12 13  1  0
 13 14  2  0
 13 21  1  0
 14 15  1  0
 15 16  1  0
 16 17  2  0
 17 18  1  0
 19 18  2  0
 20 19  1  0
 21 20  2  0
 21 16  1  0
 22 23  1  0
 22 11  1  0
 24 22  2  0
M  END
$$$$
