AGW.pdb
     RDKit          3D

 24 25  0  0  1  0  0  0  0  0999 V2000
   26.4622  -15.7733  -16.7928 C   0  0  0  0  0  0  0  0  0  0  0  0
   25.9474  -16.7469  -15.7449 C   0  0  2  0  0  0  0  0  0  0  0  0
   25.8073  -15.9879  -14.5158 N   0  0  0  0  0  0  0  0  0  0  0  0
   26.9181  -17.8398  -15.6279 C   0  0  0  0  0  0  0  0  0  0  0  0
   27.0592  -18.6451  -16.5839 O   0  0  0  0  0  0  0  0  0  0  0  0
   27.7322  -18.0573  -14.4777 N   0  0  0  0  0  0  0  0  0  0  0  0
   28.4753  -19.2811  -14.3372 C   0  0  0  0  0  0  0  0  0  0  0  0
   27.7538  -20.3879  -13.7149 C   0  0  0  0  0  0  0  0  0  0  0  0
   28.2940  -21.5423  -13.8620 O   0  0  0  0  0  0  0  0  0  0  0  0
   26.5585  -20.3352  -12.9869 N   0  0  0  0  0  0  0  0  0  0  0  0
   25.8945  -21.4935  -12.4367 C   0  0  1  0  0  0  0  0  0  0  0  0
   26.6271  -22.0272  -11.2182 C   0  0  0  0  0  0  0  0  0  0  0  0
   26.4533  -21.1548  -10.0355 C   0  0  0  0  0  0  0  0  0  0  0  0
   25.3299  -20.3901   -9.7015 C   0  0  0  0  0  0  0  0  0  0  0  0
   25.5262  -19.7266   -8.5689 N   0  0  0  0  0  0  0  0  0  0  0  0
   26.7634  -20.0447   -8.1537 C   0  0  0  0  0  0  0  0  0  0  0  0
   27.4205  -19.6058   -7.0246 C   0  0  0  0  0  0  0  0  0  0  0  0
   28.6845  -20.0671   -6.8041 C   0  0  0  0  0  0  0  0  0  0  0  0
   29.3225  -20.9484   -7.6619 C   0  0  0  0  0  0  0  0  0  0  0  0
   28.6604  -21.3887   -8.7964 C   0  0  0  0  0  0  0  0  0  0  0  0
   27.3725  -20.9207   -9.0240 C   0  0  0  0  0  0  0  0  0  0  0  0
   24.5076  -21.1818  -12.0435 C   0  0  0  0  0  0  0  0  0  0  0  0
   23.5822  -22.1661  -11.7706 O   0  0  0  0  0  0  0  0  0  0  0  0
   24.1262  -19.9890  -11.9455 O   0  0  0  0  0  0  0  0  0  0  0  0
  2  1  1  6
  3  2  1  0
  4  6  1  0
  4  2  1  0
  5  4  2  0
  7  8  1  0
  7  6  1  0
  8 10  1  0
  9  8  2  0
 10 11  1  0
 11 12  1  1
 12 13  1  0
 13 14  2  0
 13 21  1  0
 14 15  1  0
 15 16  1  0
 16 17  2  0
 17 18  1  0
 19 18  2  0
 20 19  1  0
 21 20  2  0
 21 16  1  0
 22 23  1  0
 22 11  1  0
 24 22  2  0
M  END
$$$$
