AGW.pdb
     RDKit          3D

 24 25  0  0  1  0  0  0  0  0999 V2000
   27.4419  -18.7312  -19.0802 C   0  0  0  0  0  0  0  0  0  0  0  0
   28.4338  -18.3244  -18.0023 C   0  0  2  0  0  0  0  0  0  0  0  0
   29.4590  -19.3515  -17.9819 N   0  0  0  0  0  0  0  0  0  0  0  0
   27.7063  -18.2252  -16.7330 C   0  0  0  0  0  0  0  0  0  0  0  0
   26.5285  -17.7834  -16.7295 O   0  0  0  0  0  0  0  0  0  0  0  0
   28.2552  -18.6042  -15.4729 N   0  0  0  0  0  0  0  0  0  0  0  0
   27.4973  -18.4120  -14.2653 C   0  0  0  0  0  0  0  0  0  0  0  0
   26.6716  -19.5438  -13.8532 C   0  0  0  0  0  0  0  0  0  0  0  0
   25.9273  -20.0394  -14.7734 O   0  0  0  0  0  0  0  0  0  0  0  0
   26.5997  -20.1417  -12.5888 N   0  0  0  0  0  0  0  0  0  0  0  0
   25.9170  -21.3854  -12.3195 C   0  0  1  0  0  0  0  0  0  0  0  0
   26.4537  -22.0535  -11.0658 C   0  0  0  0  0  0  0  0  0  0  0  0
   26.4282  -21.1479   -9.8956 C   0  0  0  0  0  0  0  0  0  0  0  0
   25.3333  -20.4310   -9.3999 C   0  0  0  0  0  0  0  0  0  0  0  0
   25.6759  -19.7163   -8.3352 N   0  0  0  0  0  0  0  0  0  0  0  0
   26.9811  -19.9536   -8.1244 C   0  0  0  0  0  0  0  0  0  0  0  0
   27.7897  -19.4391   -7.1340 C   0  0  0  0  0  0  0  0  0  0  0  0
   29.0973  -19.8250   -7.1155 C   0  0  0  0  0  0  0  0  0  0  0  0
   29.6342  -20.7033   -8.0429 C   0  0  0  0  0  0  0  0  0  0  0  0
   28.8198  -21.2196   -9.0377 C   0  0  0  0  0  0  0  0  0  0  0  0
   27.4871  -20.8284   -9.0594 C   0  0  0  0  0  0  0  0  0  0  0  0
   24.4671  -21.1765  -12.1485 C   0  0  0  0  0  0  0  0  0  0  0  0
   23.5541  -22.1974  -12.3035 O   0  0  0  0  0  0  0  0  0  0  0  0
   24.0177  -20.0416  -11.8518 O   0  0  0  0  0  0  0  0  0  0  0  0
  2  1  1  6
  3  2  1  0
  4  6  1  0
  4  2  1  0
  5  4  2  0
  7  8  1  0
  7  6  1  0
  8 10  1  0
  9  8  2  0
 10 11  1  0
 11 12  1  1
 12 13  1  0
 13 14  2  0
 13 21  1  0
 14 15  1  0
 15 16  1  0
 16 17  2  0
 17 18  1  0
 19 18  2  0
 20 19  1  0
 21 20  2  0
 21 16  1  0
 22 23  1  0
 22 11  1  0
 24 22  2  0
M  END
$$$$
