AGW.pdb
     RDKit          3D

 24 25  0  0  1  0  0  0  0  0999 V2000
   29.3184  -17.9078  -18.3147 C   0  0  0  0  0  0  0  0  0  0  0  0
   28.0540  -18.6337  -17.8841 C   0  0  2  0  0  0  0  0  0  0  0  0
   26.9423  -17.8751  -18.4272 N   0  0  0  0  0  0  0  0  0  0  0  0
   28.0406  -18.6874  -16.4188 C   0  0  0  0  0  0  0  0  0  0  0  0
   28.8548  -19.4373  -15.8211 O   0  0  0  0  0  0  0  0  0  0  0  0
   27.1470  -17.9301  -15.6059 N   0  0  0  0  0  0  0  0  0  0  0  0
   27.1654  -18.0803  -14.1752 C   0  0  0  0  0  0  0  0  0  0  0  0
   26.5323  -19.2918  -13.6611 C   0  0  0  0  0  0  0  0  0  0  0  0
   25.6239  -19.7944  -14.4151 O   0  0  0  0  0  0  0  0  0  0  0  0
   26.7986  -19.9582  -12.4585 N   0  0  0  0  0  0  0  0  0  0  0  0
   26.2144  -21.2263  -12.0897 C   0  0  1  0  0  0  0  0  0  0  0  0
   26.8781  -21.8046  -10.8521 C   0  0  0  0  0  0  0  0  0  0  0  0
   26.7908  -20.8896   -9.6923 C   0  0  0  0  0  0  0  0  0  0  0  0
   25.7326  -20.0356   -9.3616 C   0  0  0  0  0  0  0  0  0  0  0  0
   25.9982  -19.3574   -8.2521 N   0  0  0  0  0  0  0  0  0  0  0  0
   27.2166  -19.7539   -7.8489 C   0  0  0  0  0  0  0  0  0  0  0  0
   27.9252  -19.3334   -6.7442 C   0  0  0  0  0  0  0  0  0  0  0  0
   29.1563  -19.8800   -6.5318 C   0  0  0  0  0  0  0  0  0  0  0  0
   29.7120  -20.8291   -7.3745 C   0  0  0  0  0  0  0  0  0  0  0  0
   28.9980  -21.2506   -8.4845 C   0  0  0  0  0  0  0  0  0  0  0  0
   27.7436  -20.6958   -8.7037 C   0  0  0  0  0  0  0  0  0  0  0  0
   24.7700  -21.0951  -11.8222 C   0  0  0  0  0  0  0  0  0  0  0  0
   23.9074  -22.1672  -11.9020 O   0  0  0  0  0  0  0  0  0  0  0  0
   24.2787  -19.9824  -11.5089 O   0  0  0  0  0  0  0  0  0  0  0  0
  2  1  1  1
  3  2  1  0
  4  6  1  0
  4  2  1  0
  5  4  2  0
  7  8  1  0
  7  6  1  0
  8 10  1  0
  9  8  2  0
 10 11  1  0
 11 12  1  1
 12 13  1  0
 13 14  2  0
 13 21  1  0
 14 15  1  0
 15 16  1  0
 16 17  2  0
 17 18  1  0
 19 18  2  0
 20 19  1  0
 21 20  2  0
 21 16  1  0
 22 23  1  0
 22 11  1  0
 24 22  2  0
M  END
$$$$
