AGW.pdb
     RDKit          3D

 24 25  0  0  1  0  0  0  0  0999 V2000
   26.3104  -18.8418  -17.5106 C   0  0  0  0  0  0  0  0  0  0  0  0
   26.8724  -20.1646  -17.0153 C   0  0  2  0  0  0  0  0  0  0  0  0
   25.7846  -21.1228  -17.0864 N   0  0  0  0  0  0  0  0  0  0  0  0
   27.3617  -19.9640  -15.6476 C   0  0  0  0  0  0  0  0  0  0  0  0
   28.3605  -19.2248  -15.4515 O   0  0  0  0  0  0  0  0  0  0  0  0
   26.7690  -20.5633  -14.4977 N   0  0  0  0  0  0  0  0  0  0  0  0
   27.2536  -20.2414  -13.1820 C   0  0  0  0  0  0  0  0  0  0  0  0
   26.5055  -20.8294  -12.0741 C   0  0  0  0  0  0  0  0  0  0  0  0
   25.4104  -21.4113  -12.4036 O   0  0  0  0  0  0  0  0  0  0  0  0
   26.8405  -20.8315  -10.7142 N   0  0  0  0  0  0  0  0  0  0  0  0
   26.0950  -21.5369   -9.6984 C   0  0  1  0  0  0  0  0  0  0  0  0
   26.9490  -21.8118   -8.4730 C   0  0  0  0  0  0  0  0  0  0  0  0
   27.2967  -20.5713   -7.7448 C   0  0  0  0  0  0  0  0  0  0  0  0
   26.8955  -19.2659   -8.0503 C   0  0  0  0  0  0  0  0  0  0  0  0
   27.3991  -18.3983   -7.1813 N   0  0  0  0  0  0  0  0  0  0  0  0
   28.1260  -19.1156   -6.3088 C   0  0  0  0  0  0  0  0  0  0  0  0
   28.8427  -18.6607   -5.2230 C   0  0  0  0  0  0  0  0  0  0  0  0
   29.5113  -19.5809   -4.4709 C   0  0  0  0  0  0  0  0  0  0  0  0
   29.4960  -20.9368   -4.7550 C   0  0  0  0  0  0  0  0  0  0  0  0
   28.7749  -21.3923   -5.8469 C   0  0  0  0  0  0  0  0  0  0  0  0
   28.0926  -20.4574   -6.6151 C   0  0  0  0  0  0  0  0  0  0  0  0
   24.9083  -20.7711   -9.2736 C   0  0  0  0  0  0  0  0  0  0  0  0
   23.8981  -21.3362   -8.5252 O   0  0  0  0  0  0  0  0  0  0  0  0
   24.7845  -19.5615   -9.5886 O   0  0  0  0  0  0  0  0  0  0  0  0
  2  1  1  1
  3  2  1  0
  4  6  1  0
  4  2  1  0
  5  4  2  0
  7  8  1  0
  7  6  1  0
  8 10  1  0
  9  8  2  0
 10 11  1  0
 11 12  1  1
 12 13  1  0
 13 14  2  0
 13 21  1  0
 14 15  1  0
 15 16  1  0
 16 17  2  0
 17 18  1  0
 19 18  2  0
 20 19  1  0
 21 20  2  0
 21 16  1  0
 22 23  1  0
 22 11  1  0
 24 22  2  0
M  END
$$$$
