AGW.pdb
     RDKit          3D

 24 25  0  0  1  0  0  0  0  0999 V2000
   28.8539  -22.5796  -18.2653 C   0  0  0  0  0  0  0  0  0  0  0  0
   27.6953  -22.6078  -17.2815 C   0  0  2  0  0  0  0  0  0  0  0  0
   26.7458  -21.6104  -17.7400 N   0  0  0  0  0  0  0  0  0  0  0  0
   28.2277  -22.3117  -15.9478 C   0  0  0  0  0  0  0  0  0  0  0  0
   28.8554  -23.2040  -15.3215 O   0  0  0  0  0  0  0  0  0  0  0  0
   28.0794  -21.0520  -15.2966 N   0  0  0  0  0  0  0  0  0  0  0  0
   28.5292  -20.8798  -13.9410 C   0  0  0  0  0  0  0  0  0  0  0  0
   27.4839  -20.9133  -12.9217 C   0  0  0  0  0  0  0  0  0  0  0  0
   27.8921  -20.7480  -11.7165 O   0  0  0  0  0  0  0  0  0  0  0  0
   26.1084  -21.1018  -13.1052 N   0  0  0  0  0  0  0  0  0  0  0  0
   25.1007  -20.6784  -12.1614 C   0  0  1  0  0  0  0  0  0  0  0  0
   24.8683  -19.1793  -12.2323 C   0  0  0  0  0  0  0  0  0  0  0  0
   24.5843  -18.7227  -13.6109 C   0  0  0  0  0  0  0  0  0  0  0  0
   23.3618  -18.7789  -14.2897 C   0  0  0  0  0  0  0  0  0  0  0  0
   23.4750  -18.2808  -15.5148 N   0  0  0  0  0  0  0  0  0  0  0  0
   24.7554  -17.8981  -15.6506 C   0  0  0  0  0  0  0  0  0  0  0  0
   25.3588  -17.3222  -16.7477 C   0  0  0  0  0  0  0  0  0  0  0  0
   26.6841  -17.0147  -16.6567 C   0  0  0  0  0  0  0  0  0  0  0  0
   27.4346  -17.2567  -15.5176 C   0  0  0  0  0  0  0  0  0  0  0  0
   26.8262  -17.8356  -14.4157 C   0  0  0  0  0  0  0  0  0  0  0  0
   25.4762  -18.1501  -14.5050 C   0  0  0  0  0  0  0  0  0  0  0  0
   23.8152  -21.3586  -12.4065 C   0  0  0  0  0  0  0  0  0  0  0  0
   22.7416  -21.2312  -11.5515 O   0  0  0  0  0  0  0  0  0  0  0  0
   23.6621  -22.0853  -13.4195 O   0  0  0  0  0  0  0  0  0  0  0  0
  2  1  1  6
  3  2  1  0
  4  6  1  0
  4  2  1  0
  5  4  2  0
  7  8  1  0
  7  6  1  0
  8 10  1  0
  9  8  2  0
 10 11  1  0
 11 12  1  6
 12 13  1  0
 13 14  2  0
 13 21  1  0
 14 15  1  0
 15 16  1  0
 16 17  2  0
 17 18  1  0
 19 18  2  0
 20 19  1  0
 21 20  2  0
 21 16  1  0
 22 23  1  0
 22 11  1  0
 24 22  2  0
M  END
$$$$
