AGW.pdb
     RDKit          3D

 24 25  0  0  1  0  0  0  0  0999 V2000
   26.9198  -18.0559  -16.1865 C   0  0  0  0  0  0  0  0  0  0  0  0
   27.0404  -18.0738  -14.6711 C   0  0  2  0  0  0  0  0  0  0  0  0
   28.4609  -18.0611  -14.3742 N   0  0  0  0  0  0  0  0  0  0  0  0
   26.3698  -19.2814  -14.1788 C   0  0  0  0  0  0  0  0  0  0  0  0
   25.1297  -19.4106  -14.3459 O   0  0  0  0  0  0  0  0  0  0  0  0
   27.0429  -20.3443  -13.5079 N   0  0  0  0  0  0  0  0  0  0  0  0
   26.3091  -21.2453  -12.6598 C   0  0  0  0  0  0  0  0  0  0  0  0
   26.8406  -21.4130  -11.3099 C   0  0  0  0  0  0  0  0  0  0  0  0
   28.0353  -20.9782  -11.1364 O   0  0  0  0  0  0  0  0  0  0  0  0
   26.2063  -21.9847  -10.1999 N   0  0  0  0  0  0  0  0  0  0  0  0
   25.6737  -21.2258   -9.0927 C   0  0  1  0  0  0  0  0  0  0  0  0
   26.4954  -19.9761   -8.8295 C   0  0  0  0  0  0  0  0  0  0  0  0
   27.7263  -20.2684   -8.0617 C   0  0  0  0  0  0  0  0  0  0  0  0
   28.9074  -20.8482   -8.5383 C   0  0  0  0  0  0  0  0  0  0  0  0
   29.8057  -20.9630   -7.5680 N   0  0  0  0  0  0  0  0  0  0  0  0
   29.2312  -20.4666   -6.4600 C   0  0  0  0  0  0  0  0  0  0  0  0
   29.7688  -20.3675   -5.1949 C   0  0  0  0  0  0  0  0  0  0  0  0
   28.9929  -19.8234   -4.2145 C   0  0  0  0  0  0  0  0  0  0  0  0
   27.7025  -19.3729   -4.4414 C   0  0  0  0  0  0  0  0  0  0  0  0
   27.1638  -19.4732   -5.7139 C   0  0  0  0  0  0  0  0  0  0  0  0
   27.9515  -20.0270   -6.7150 C   0  0  0  0  0  0  0  0  0  0  0  0
   24.2783  -20.8186   -9.3421 C   0  0  0  0  0  0  0  0  0  0  0  0
   23.3518  -20.7100   -8.3274 O   0  0  0  0  0  0  0  0  0  0  0  0
   23.8902  -20.5554  -10.5074 O   0  0  0  0  0  0  0  0  0  0  0  0
  2  1  1  6
  3  2  1  0
  4  6  1  0
  4  2  1  0
  5  4  2  0
  7  8  1  0
  7  6  1  0
  8 10  1  0
  9  8  2  0
 10 11  1  0
 11 12  1  6
 12 13  1  0
 13 14  2  0
 13 21  1  0
 14 15  1  0
 15 16  1  0
 16 17  2  0
 17 18  1  0
 19 18  2  0
 20 19  1  0
 21 20  2  0
 21 16  1  0
 22 23  1  0
 22 11  1  0
 24 22  2  0
M  END
$$$$
