AGW.pdb
     RDKit          3D

 24 25  0  0  1  0  0  0  0  0999 V2000
   26.8481  -17.0629  -17.0436 C   0  0  0  0  0  0  0  0  0  0  0  0
   27.5398  -18.3883  -16.7679 C   0  0  2  0  0  0  0  0  0  0  0  0
   26.5873  -19.4265  -17.1163 N   0  0  0  0  0  0  0  0  0  0  0  0
   27.9145  -18.4162  -15.3506 C   0  0  0  0  0  0  0  0  0  0  0  0
   28.7436  -17.5765  -14.9145 O   0  0  0  0  0  0  0  0  0  0  0  0
   27.3914  -19.3518  -14.4104 N   0  0  0  0  0  0  0  0  0  0  0  0
   27.6017  -19.1569  -13.0007 C   0  0  0  0  0  0  0  0  0  0  0  0
   26.9397  -20.1210  -12.1260 C   0  0  0  0  0  0  0  0  0  0  0  0
   26.1465  -20.9384  -12.7169 O   0  0  0  0  0  0  0  0  0  0  0  0
   27.0691  -20.2544  -10.7379 N   0  0  0  0  0  0  0  0  0  0  0  0
   26.4269  -21.2887   -9.9612 C   0  0  1  0  0  0  0  0  0  0  0  0
   27.2387  -21.6415   -8.7272 C   0  0  0  0  0  0  0  0  0  0  0  0
   27.3509  -20.5033   -7.7881 C   0  0  0  0  0  0  0  0  0  0  0  0
   26.8309  -19.2142   -7.9495 C   0  0  0  0  0  0  0  0  0  0  0  0
   27.1264  -18.4484   -6.9065 N   0  0  0  0  0  0  0  0  0  0  0  0
   27.8338  -19.2166   -6.0617 C   0  0  0  0  0  0  0  0  0  0  0  0
   28.3655  -18.8687   -4.8387 C   0  0  0  0  0  0  0  0  0  0  0  0
   29.0533  -19.8230   -4.1491 C   0  0  0  0  0  0  0  0  0  0  0  0
   29.2339  -21.1109   -4.6267 C   0  0  0  0  0  0  0  0  0  0  0  0
   28.6985  -21.4589   -5.8562 C   0  0  0  0  0  0  0  0  0  0  0  0
   27.9972  -20.4891   -6.5614 C   0  0  0  0  0  0  0  0  0  0  0  0
   25.0793  -20.8759   -9.5266 C   0  0  0  0  0  0  0  0  0  0  0  0
   24.1952  -21.7549   -8.9388 O   0  0  0  0  0  0  0  0  0  0  0  0
   24.6946  -19.6905   -9.6838 O   0  0  0  0  0  0  0  0  0  0  0  0
  2  1  1  1
  3  2  1  0
  4  6  1  0
  4  2  1  0
  5  4  2  0
  7  8  1  0
  7  6  1  0
  8 10  1  0
  9  8  2  0
 10 11  1  0
 11 12  1  1
 12 13  1  0
 13 14  2  0
 13 21  1  0
 14 15  1  0
 15 16  1  0
 16 17  2  0
 17 18  1  0
 19 18  2  0
 20 19  1  0
 21 20  2  0
 21 16  1  0
 22 23  1  0
 22 11  1  0
 24 22  2  0
M  END
$$$$
