AGW.pdb
     RDKit          3D

 24 25  0  0  1  0  0  0  0  0999 V2000
   26.0805  -15.0201  -16.6112 C   0  0  0  0  0  0  0  0  0  0  0  0
   25.5032  -16.1544  -15.7798 C   0  0  2  0  0  0  0  0  0  0  0  0
   25.3361  -15.6320  -14.4361 N   0  0  0  0  0  0  0  0  0  0  0  0
   26.4418  -17.2796  -15.8371 C   0  0  0  0  0  0  0  0  0  0  0  0
   26.5153  -17.9694  -16.8865 O   0  0  0  0  0  0  0  0  0  0  0  0
   27.2970  -17.6543  -14.7595 N   0  0  0  0  0  0  0  0  0  0  0  0
   28.1473  -18.8087  -14.8773 C   0  0  0  0  0  0  0  0  0  0  0  0
   27.6753  -20.0106  -14.1949 C   0  0  0  0  0  0  0  0  0  0  0  0
   28.3968  -21.0568  -14.3715 O   0  0  0  0  0  0  0  0  0  0  0  0
   26.5434  -20.1506  -13.3821 N   0  0  0  0  0  0  0  0  0  0  0  0
   26.0451  -21.4174  -12.9002 C   0  0  1  0  0  0  0  0  0  0  0  0
   26.8565  -21.9204  -11.7191 C   0  0  0  0  0  0  0  0  0  0  0  0
   26.5605  -21.1705  -10.4781 C   0  0  0  0  0  0  0  0  0  0  0  0
   25.3653  -20.5262  -10.1394 C   0  0  0  0  0  0  0  0  0  0  0  0
   25.4569  -19.9510   -8.9468 N   0  0  0  0  0  0  0  0  0  0  0  0
   26.6961  -20.2084   -8.4970 C   0  0  0  0  0  0  0  0  0  0  0  0
   27.2649  -19.8206   -7.3030 C   0  0  0  0  0  0  0  0  0  0  0  0
   28.5510  -20.2011   -7.0574 C   0  0  0  0  0  0  0  0  0  0  0  0
   29.2955  -20.9527   -7.9521 C   0  0  0  0  0  0  0  0  0  0  0  0
   28.7220  -21.3418   -9.1518 C   0  0  0  0  0  0  0  0  0  0  0  0
   27.4119  -20.9558   -9.4050 C   0  0  0  0  0  0  0  0  0  0  0  0
   24.6340  -21.3163  -12.4833 C   0  0  0  0  0  0  0  0  0  0  0  0
   24.0015  -20.1028  -12.3184 O   0  0  0  0  0  0  0  0  0  0  0  0
   23.9590  -22.3525  -12.2632 O   0  0  0  0  0  0  0  0  0  0  0  0
  2  1  1  6
  3  2  1  0
  4  6  1  0
  4  2  1  0
  5  4  2  0
  7  8  1  0
  7  6  1  0
  8 10  1  0
  9  8  2  0
 10 11  1  0
 11 12  1  1
 12 13  1  0
 13 14  2  0
 13 21  1  0
 14 15  1  0
 15 16  1  0
 16 17  2  0
 17 18  1  0
 19 18  2  0
 20 19  1  0
 21 20  2  0
 21 16  1  0
 22 23  1  0
 22 11  1  0
 24 22  2  0
M  END
$$$$
