YAF.pdb
     RDKit          3D

 29 30  0  0  1  0  0  0  0  0999 V2000
   34.7239  -28.1224  -24.6730 O   0  0  0  0  0  0  0  0  0  0  0  0
   33.7843  -28.1651  -23.6329 C   0  0  0  0  0  0  0  0  0  0  0  0
   32.4283  -28.1717  -23.8924 C   0  0  0  0  0  0  0  0  0  0  0  0
   31.4768  -28.2133  -22.8958 C   0  0  0  0  0  0  0  0  0  0  0  0
   31.8693  -28.2504  -21.5748 C   0  0  0  0  0  0  0  0  0  0  0  0
   30.9037  -28.2957  -20.4611 C   0  0  0  0  0  0  0  0  0  0  0  0
   30.0720  -27.0125  -20.4094 C   0  0  2  0  0  0  0  0  0  0  0  0
   30.9224  -25.9661  -19.9052 N   0  0  0  0  0  0  0  0  0  0  0  0
   28.9094  -27.2369  -19.5217 C   0  0  0  0  0  0  0  0  0  0  0  0
   29.0839  -26.9738  -18.2885 O   0  0  0  0  0  0  0  0  0  0  0  0
   33.2212  -28.2441  -21.3063 C   0  0  0  0  0  0  0  0  0  0  0  0
   34.1659  -28.2025  -22.3062 C   0  0  0  0  0  0  0  0  0  0  0  0
   25.3862  -26.9452  -19.4714 C   0  0  0  0  0  0  0  0  0  0  0  0
   26.5712  -27.8052  -19.0414 C   0  0  2  0  0  0  0  0  0  0  0  0
   27.6512  -27.7165  -19.9710 N   0  0  0  0  0  0  0  0  0  0  0  0
   26.0716  -29.1979  -18.8781 C   0  0  0  0  0  0  0  0  0  0  0  0
   25.9877  -29.9743  -19.8506 O   0  0  0  0  0  0  0  0  0  0  0  0
   25.6954  -29.6187  -17.5984 N   0  0  0  0  0  0  0  0  0  0  0  0
   25.1670  -30.9330  -17.2908 C   0  0  1  0  0  0  0  0  0  0  0  0
   25.9941  -31.4377  -16.1276 C   0  0  0  0  0  0  0  0  0  0  0  0
   27.3026  -31.9748  -16.4870 C   0  0  0  0  0  0  0  0  0  0  0  0
   27.4618  -33.2675  -16.9378 C   0  0  0  0  0  0  0  0  0  0  0  0
   28.7258  -33.7618  -17.2801 C   0  0  0  0  0  0  0  0  0  0  0  0
   29.8451  -32.9551  -17.1710 C   0  0  0  0  0  0  0  0  0  0  0  0
   29.6900  -31.6615  -16.7205 C   0  0  0  0  0  0  0  0  0  0  0  0
   28.4216  -31.1907  -16.3854 C   0  0  0  0  0  0  0  0  0  0  0  0
   23.7421  -30.7692  -16.9434 C   0  0  0  0  0  0  0  0  0  0  0  0
   23.2683  -29.5138  -16.6186 O   0  0  0  0  0  0  0  0  0  0  0  0
   22.9349  -31.7162  -16.9278 O   0  0  0  0  0  0  0  0  0  0  0  0
  2 12  2  0
  2  1  1  0
  3  2  1  0
  4  5  1  0
  4  3  2  0
  5 11  2  0
  6  5  1  0
  7  8  1  1
  7  6  1  0
  9  7  1  0
 10  9  2  0
 11 12  1  0
 14 13  1  6
 14 16  1  0
 14 15  1  0
 15  9  1  0
 16 17  2  0
 18 19  1  0
 18 16  1  0
 19 20  1  1
 20 21  1  0
 21 22  2  0
 22 23  1  0
 24 23  2  0
 25 24  1  0
 26 25  2  0
 26 21  1  0
 27 19  1  0
 28 27  1  0
 29 27  2  0
M  END
$$$$
