YAF.pdb
     RDKit          3D

 29 30  0  0  1  0  0  0  0  0999 V2000
   26.9805  -38.7844  -13.4516 O   0  0  0  0  0  0  0  0  0  0  0  0
   27.1027  -37.4302  -13.7943 C   0  0  0  0  0  0  0  0  0  0  0  0
   27.6921  -36.5241  -12.9352 C   0  0  0  0  0  0  0  0  0  0  0  0
   27.8292  -35.1865  -13.2386 C   0  0  0  0  0  0  0  0  0  0  0  0
   27.3663  -34.7067  -14.4453 C   0  0  0  0  0  0  0  0  0  0  0  0
   27.4815  -33.2882  -14.8320 C   0  0  0  0  0  0  0  0  0  0  0  0
   28.5303  -33.1072  -15.9311 C   0  0  2  0  0  0  0  0  0  0  0  0
   29.8253  -33.2703  -15.3241 N   0  0  0  0  0  0  0  0  0  0  0  0
   28.3754  -31.7567  -16.5160 C   0  0  0  0  0  0  0  0  0  0  0  0
   29.1825  -30.8660  -16.0970 O   0  0  0  0  0  0  0  0  0  0  0  0
   26.7766  -35.6040  -15.3094 C   0  0  0  0  0  0  0  0  0  0  0  0
   26.6429  -36.9384  -15.0000 C   0  0  0  0  0  0  0  0  0  0  0  0
   28.6540  -30.0251  -19.0542 C   0  0  0  0  0  0  0  0  0  0  0  0
   27.4547  -30.1419  -18.1178 C   0  0  2  0  0  0  0  0  0  0  0  0
   27.3988  -31.4233  -17.4908 N   0  0  0  0  0  0  0  0  0  0  0  0
   26.2361  -29.8451  -18.9196 C   0  0  0  0  0  0  0  0  0  0  0  0
   25.7579  -30.6861  -19.7068 O   0  0  0  0  0  0  0  0  0  0  0  0
   25.6353  -28.5912  -18.7682 N   0  0  0  0  0  0  0  0  0  0  0  0
   24.4536  -28.1573  -19.4869 C   0  0  1  0  0  0  0  0  0  0  0  0
   24.1379  -26.7783  -18.9478 C   0  0  0  0  0  0  0  0  0  0  0  0
   22.9930  -26.1195  -19.5683 C   0  0  0  0  0  0  0  0  0  0  0  0
   22.1227  -26.7955  -20.3961 C   0  0  0  0  0  0  0  0  0  0  0  0
   21.0288  -26.1450  -20.9786 C   0  0  0  0  0  0  0  0  0  0  0  0
   20.8009  -24.8025  -20.7317 C   0  0  0  0  0  0  0  0  0  0  0  0
   21.6691  -24.1228  -19.9042 C   0  0  0  0  0  0  0  0  0  0  0  0
   22.7518  -24.7911  -19.3351 C   0  0  0  0  0  0  0  0  0  0  0  0
   24.7883  -28.1403  -20.9240 C   0  0  0  0  0  0  0  0  0  0  0  0
   25.9696  -27.5544  -21.3332 O   0  0  0  0  0  0  0  0  0  0  0  0
   24.0516  -28.6329  -21.7977 O   0  0  0  0  0  0  0  0  0  0  0  0
  2 12  2  0
  2  1  1  0
  3  2  1  0
  4  5  1  0
  4  3  2  0
  5 11  2  0
  6  5  1  0
  7  8  1  1
  7  6  1  0
  9  7  1  0
 10  9  2  0
 11 12  1  0
 14 13  1  6
 14 16  1  0
 14 15  1  0
 15  9  1  0
 16 17  2  0
 18 19  1  0
 18 16  1  0
 19 20  1  1
 20 21  1  0
 21 22  2  0
 22 23  1  0
 24 23  2  0
 25 24  1  0
 26 25  2  0
 26 21  1  0
 27 19  1  0
 28 27  1  0
 29 27  2  0
M  END
$$$$
