YAF.pdb
     RDKit          3D

 29 30  0  0  1  0  0  0  0  0999 V2000
   22.1772  -17.7976  -24.6879 O   0  0  0  0  0  0  0  0  0  0  0  0
   22.1681  -18.2062  -23.3465 C   0  0  0  0  0  0  0  0  0  0  0  0
   23.1663  -19.0121  -22.8362 C   0  0  0  0  0  0  0  0  0  0  0  0
   23.1897  -19.4328  -21.5238 C   0  0  0  0  0  0  0  0  0  0  0  0
   22.1850  -19.0465  -20.6624 C   0  0  0  0  0  0  0  0  0  0  0  0
   22.1499  -19.4610  -19.2475 C   0  0  0  0  0  0  0  0  0  0  0  0
   22.6262  -18.3277  -18.3366 C   0  0  2  0  0  0  0  0  0  0  0  0
   24.0426  -18.1737  -18.5427 N   0  0  0  0  0  0  0  0  0  0  0  0
   22.3216  -18.6875  -16.9339 C   0  0  0  0  0  0  0  0  0  0  0  0
   23.1936  -19.3927  -16.3316 O   0  0  0  0  0  0  0  0  0  0  0  0
   21.1842  -18.2420  -21.1630 C   0  0  0  0  0  0  0  0  0  0  0  0
   21.1670  -17.8255  -22.4746 C   0  0  0  0  0  0  0  0  0  0  0  0
   19.9462  -17.7204  -14.1994 C   0  0  0  0  0  0  0  0  0  0  0  0
   21.0052  -18.5945  -14.8652 C   0  0  2  0  0  0  0  0  0  0  0  0
   21.1392  -18.2935  -16.2544 N   0  0  0  0  0  0  0  0  0  0  0  0
   20.6250  -20.0131  -14.6226 C   0  0  0  0  0  0  0  0  0  0  0  0
   20.0185  -20.6780  -15.4861 O   0  0  0  0  0  0  0  0  0  0  0  0
   20.9667  -20.5874  -13.3939 N   0  0  0  0  0  0  0  0  0  0  0  0
   20.6478  -21.9480  -13.0090 C   0  0  1  0  0  0  0  0  0  0  0  0
   21.8889  -22.4730  -12.3191 C   0  0  0  0  0  0  0  0  0  0  0  0
   23.0091  -22.7713  -13.2057 C   0  0  0  0  0  0  0  0  0  0  0  0
   24.0143  -21.8588  -13.4437 C   0  0  0  0  0  0  0  0  0  0  0  0
   25.0814  -22.1667  -14.2955 C   0  0  0  0  0  0  0  0  0  0  0  0
   25.1459  -23.4012  -14.9177 C   0  0  0  0  0  0  0  0  0  0  0  0
   24.1424  -24.3167  -14.6822 C   0  0  0  0  0  0  0  0  0  0  0  0
   23.0894  -23.9883  -13.8301 C   0  0  0  0  0  0  0  0  0  0  0  0
   19.4799  -21.8934  -12.1086 C   0  0  0  0  0  0  0  0  0  0  0  0
   18.7133  -23.0277  -11.9307 O   0  0  0  0  0  0  0  0  0  0  0  0
   19.1458  -20.8646  -11.4932 O   0  0  0  0  0  0  0  0  0  0  0  0
  2 12  2  0
  2  1  1  0
  3  2  1  0
  4  5  1  0
  4  3  2  0
  5 11  2  0
  6  5  1  0
  7  8  1  1
  7  6  1  0
  9  7  1  0
 10  9  2  0
 11 12  1  0
 14 13  1  6
 14 16  1  0
 14 15  1  0
 15  9  1  0
 16 17  2  0
 18 19  1  0
 18 16  1  0
 19 20  1  1
 20 21  1  0
 21 22  2  0
 22 23  1  0
 24 23  2  0
 25 24  1  0
 26 25  2  0
 26 21  1  0
 27 19  1  0
 28 27  1  0
 29 27  2  0
M  END
$$$$
