YAF.pdb
     RDKit          3D

 29 30  0  0  1  0  0  0  0  0999 V2000
   20.2339  -16.1907  -16.3393 O   0  0  0  0  0  0  0  0  0  0  0  0
   21.1244  -16.9794  -15.5968 C   0  0  0  0  0  0  0  0  0  0  0  0
   22.4322  -16.5859  -15.3943 C   0  0  0  0  0  0  0  0  0  0  0  0
   23.3348  -17.3353  -14.6704 C   0  0  0  0  0  0  0  0  0  0  0  0
   22.9402  -18.5333  -14.1140 C   0  0  0  0  0  0  0  0  0  0  0  0
   23.8549  -19.3829  -13.3289 C   0  0  0  0  0  0  0  0  0  0  0  0
   25.0457  -19.8308  -14.1787 C   0  0  2  0  0  0  0  0  0  0  0  0
   24.5231  -20.5532  -15.3088 N   0  0  0  0  0  0  0  0  0  0  0  0
   25.9234  -20.6873  -13.3504 C   0  0  0  0  0  0  0  0  0  0  0  0
   25.4547  -21.8253  -13.0251 O   0  0  0  0  0  0  0  0  0  0  0  0
   21.6364  -18.9342  -14.3110 C   0  0  0  0  0  0  0  0  0  0  0  0
   20.7404  -18.1810  -15.0349 C   0  0  0  0  0  0  0  0  0  0  0  0
   29.4547  -21.1048  -12.3270 C   0  0  0  0  0  0  0  0  0  0  0  0
   27.9534  -21.1889  -12.0666 C   0  0  2  0  0  0  0  0  0  0  0  0
   27.2210  -20.3075  -12.9180 N   0  0  0  0  0  0  0  0  0  0  0  0
   27.7374  -20.8983  -10.6228 C   0  0  0  0  0  0  0  0  0  0  0  0
   28.6822  -20.5625   -9.8810 O   0  0  0  0  0  0  0  0  0  0  0  0
   26.4397  -21.0116  -10.1134 N   0  0  0  0  0  0  0  0  0  0  0  0
   26.0854  -20.8095   -8.7224 C   0  0  1  0  0  0  0  0  0  0  0  0
   27.0149  -19.7236   -8.2237 C   0  0  0  0  0  0  0  0  0  0  0  0
   27.8462  -20.0973   -7.0838 C   0  0  0  0  0  0  0  0  0  0  0  0
   28.4248  -21.3439   -6.9805 C   0  0  0  0  0  0  0  0  0  0  0  0
   29.2213  -21.6807   -5.8799 C   0  0  0  0  0  0  0  0  0  0  0  0
   29.4429  -20.7612   -4.8696 C   0  0  0  0  0  0  0  0  0  0  0  0
   28.8660  -19.5131   -4.9694 C   0  0  0  0  0  0  0  0  0  0  0  0
   28.0766  -19.1998   -6.0745 C   0  0  0  0  0  0  0  0  0  0  0  0
   24.6670  -20.4045   -8.6791 C   0  0  0  0  0  0  0  0  0  0  0  0
   24.0359  -20.0363   -9.8505 O   0  0  0  0  0  0  0  0  0  0  0  0
   24.0015  -20.3773   -7.6279 O   0  0  0  0  0  0  0  0  0  0  0  0
  2 12  2  0
  2  1  1  0
  3  2  1  0
  4  5  1  0
  4  3  2  0
  5 11  2  0
  6  5  1  0
  7  8  1  6
  7  6  1  0
  9  7  1  0
 10  9  2  0
 11 12  1  0
 14 13  1  6
 14 16  1  0
 14 15  1  0
 15  9  1  0
 16 17  2  0
 18 19  1  0
 18 16  1  0
 19 20  1  6
 20 21  1  0
 21 22  2  0
 22 23  1  0
 24 23  2  0
 25 24  1  0
 26 25  2  0
 26 21  1  0
 27 19  1  0
 28 27  1  0
 29 27  2  0
M  END
$$$$
