YAF.pdb
     RDKit          3D

 29 30  0  0  1  0  0  0  0  0999 V2000
   23.2743  -17.1031  -22.3691 O   0  0  0  0  0  0  0  0  0  0  0  0
   23.0092  -17.0401  -20.9935 C   0  0  0  0  0  0  0  0  0  0  0  0
   22.1659  -16.0807  -20.4697 C   0  0  0  0  0  0  0  0  0  0  0  0
   21.8826  -15.9889  -19.1238 C   0  0  0  0  0  0  0  0  0  0  0  0
   22.4528  -16.8812  -18.2411 C   0  0  0  0  0  0  0  0  0  0  0  0
   22.1921  -16.8386  -16.7902 C   0  0  0  0  0  0  0  0  0  0  0  0
   21.2871  -17.9969  -16.3657 C   0  0  2  0  0  0  0  0  0  0  0  0
   20.0025  -17.4411  -16.0294 N   0  0  0  0  0  0  0  0  0  0  0  0
   21.9013  -18.6766  -15.2034 C   0  0  0  0  0  0  0  0  0  0  0  0
   21.9319  -18.0152  -14.1162 O   0  0  0  0  0  0  0  0  0  0  0  0
   23.2961  -17.8426  -18.7551 C   0  0  0  0  0  0  0  0  0  0  0  0
   23.5747  -17.9285  -20.1001 C   0  0  0  0  0  0  0  0  0  0  0  0
   22.7561  -21.9588  -13.8348 C   0  0  0  0  0  0  0  0  0  0  0  0
   23.1167  -20.4997  -14.0989 C   0  0  2  0  0  0  0  0  0  0  0  0
   22.4394  -19.9894  -15.2474 N   0  0  0  0  0  0  0  0  0  0  0  0
   24.5976  -20.4262  -14.2300 C   0  0  0  0  0  0  0  0  0  0  0  0
   25.1605  -20.6063  -15.3283 O   0  0  0  0  0  0  0  0  0  0  0  0
   25.3490  -20.1481  -13.0835 N   0  0  0  0  0  0  0  0  0  0  0  0
   26.7846  -19.9476  -13.0740 C   0  0  1  0  0  0  0  0  0  0  0  0
   27.0774  -19.1925  -11.7950 C   0  0  0  0  0  0  0  0  0  0  0  0
   26.8532  -19.9478  -10.5665 C   0  0  0  0  0  0  0  0  0  0  0  0
   27.8760  -20.6049   -9.9171 C   0  0  0  0  0  0  0  0  0  0  0  0
   27.6395  -21.3212   -8.7381 C   0  0  0  0  0  0  0  0  0  0  0  0
   26.3657  -21.3823   -8.2006 C   0  0  0  0  0  0  0  0  0  0  0  0
   25.3399  -20.7263   -8.8472 C   0  0  0  0  0  0  0  0  0  0  0  0
   25.5988  -20.0191  -10.0200 C   0  0  0  0  0  0  0  0  0  0  0  0
   27.4198  -21.2793  -13.1033 C   0  0  0  0  0  0  0  0  0  0  0  0
   28.7440  -21.3854  -13.4792 O   0  0  0  0  0  0  0  0  0  0  0  0
   26.8161  -22.3252  -12.8029 O   0  0  0  0  0  0  0  0  0  0  0  0
  2 12  2  0
  2  1  1  0
  3  2  1  0
  4  5  1  0
  4  3  2  0
  5 11  2  0
  6  5  1  0
  7  8  1  1
  7  6  1  0
  9  7  1  0
 10  9  2  0
 11 12  1  0
 14 13  1  6
 14 16  1  0
 14 15  1  0
 15  9  1  0
 16 17  2  0
 18 19  1  0
 18 16  1  0
 19 20  1  1
 20 21  1  0
 21 22  2  0
 22 23  1  0
 24 23  2  0
 25 24  1  0
 26 25  2  0
 26 21  1  0
 27 19  1  0
 28 27  1  0
 29 27  2  0
M  END
$$$$
