YAF.pdb
     RDKit          3D

 29 30  0  0  1  0  0  0  0  0999 V2000
   14.7324  -17.9743  -12.6131 O   0  0  0  0  0  0  0  0  0  0  0  0
   16.0225  -18.5092  -12.4871 C   0  0  0  0  0  0  0  0  0  0  0  0
   16.5324  -18.8674  -11.2550 C   0  0  0  0  0  0  0  0  0  0  0  0
   17.7953  -19.3957  -11.0936 C   0  0  0  0  0  0  0  0  0  0  0  0
   18.6046  -19.5848  -12.1935 C   0  0  0  0  0  0  0  0  0  0  0  0
   19.9649  -20.1451  -12.0908 C   0  0  0  0  0  0  0  0  0  0  0  0
   20.0166  -21.5590  -12.6732 C   0  0  2  0  0  0  0  0  0  0  0  0
   19.3027  -22.4244  -11.7712 N   0  0  0  0  0  0  0  0  0  0  0  0
   21.4332  -21.9664  -12.8032 C   0  0  0  0  0  0  0  0  0  0  0  0
   22.1000  -22.0371  -11.7212 O   0  0  0  0  0  0  0  0  0  0  0  0
   18.1039  -19.2301  -13.4276 C   0  0  0  0  0  0  0  0  0  0  0  0
   16.8420  -18.7030  -13.5816 C   0  0  0  0  0  0  0  0  0  0  0  0
   23.7463  -23.5858  -15.2235 C   0  0  0  0  0  0  0  0  0  0  0  0
   23.4296  -22.6712  -14.0437 C   0  0  2  0  0  0  0  0  0  0  0  0
   22.0591  -22.2713  -14.0403 N   0  0  0  0  0  0  0  0  0  0  0  0
   24.3619  -21.5131  -14.1184 C   0  0  0  0  0  0  0  0  0  0  0  0
   23.9900  -20.4098  -14.5656 O   0  0  0  0  0  0  0  0  0  0  0  0
   25.6751  -21.6928  -13.6717 N   0  0  0  0  0  0  0  0  0  0  0  0
   26.6702  -20.6406  -13.6101 C   0  0  1  0  0  0  0  0  0  0  0  0
   27.5284  -20.9677  -12.4066 C   0  0  0  0  0  0  0  0  0  0  0  0
   26.8714  -20.7972  -11.1147 C   0  0  0  0  0  0  0  0  0  0  0  0
   26.5799  -19.5510  -10.6032 C   0  0  0  0  0  0  0  0  0  0  0  0
   25.9463  -19.4101   -9.3631 C   0  0  0  0  0  0  0  0  0  0  0  0
   25.5993  -20.5276   -8.6242 C   0  0  0  0  0  0  0  0  0  0  0  0
   25.8892  -21.7760   -9.1323 C   0  0  0  0  0  0  0  0  0  0  0  0
   26.5205  -21.8921  -10.3695 C   0  0  0  0  0  0  0  0  0  0  0  0
   27.4314  -20.6738  -14.8740 C   0  0  0  0  0  0  0  0  0  0  0  0
   27.8968  -19.4901  -15.4109 O   0  0  0  0  0  0  0  0  0  0  0  0
   27.6787  -21.7270  -15.4890 O   0  0  0  0  0  0  0  0  0  0  0  0
  2 12  2  0
  2  1  1  0
  3  2  1  0
  4  5  1  0
  4  3  2  0
  5 11  2  0
  6  5  1  0
  7  8  1  1
  7  6  1  0
  9  7  1  0
 10  9  2  0
 11 12  1  0
 14 13  1  6
 14 16  1  0
 14 15  1  0
 15  9  1  0
 16 17  2  0
 18 19  1  0
 18 16  1  0
 19 20  1  1
 20 21  1  0
 21 22  2  0
 22 23  1  0
 24 23  2  0
 25 24  1  0
 26 25  2  0
 26 21  1  0
 27 19  1  0
 28 27  1  0
 29 27  2  0
M  END
$$$$
