YAF.pdb
     RDKit          3D

 29 30  0  0  1  0  0  0  0  0999 V2000
   22.9716   -8.2738  -26.1689 O   0  0  0  0  0  0  0  0  0  0  0  0
   22.7106   -8.1091  -24.8009 C   0  0  0  0  0  0  0  0  0  0  0  0
   23.6054   -8.5437  -23.8435 C   0  0  0  0  0  0  0  0  0  0  0  0
   23.3821   -8.3986  -22.4910 C   0  0  0  0  0  0  0  0  0  0  0  0
   22.2233   -7.7970  -22.0485 C   0  0  0  0  0  0  0  0  0  0  0  0
   21.9227   -7.6107  -20.6168 C   0  0  0  0  0  0  0  0  0  0  0  0
   21.5066   -8.9341  -19.9714 C   0  0  2  0  0  0  0  0  0  0  0  0
   20.2200   -9.2916  -20.5091 N   0  0  0  0  0  0  0  0  0  0  0  0
   21.4448   -8.7472  -18.5047 C   0  0  0  0  0  0  0  0  0  0  0  0
   20.5741   -7.9220  -18.0788 O   0  0  0  0  0  0  0  0  0  0  0  0
   21.3241   -7.3600  -22.9973 C   0  0  0  0  0  0  0  0  0  0  0  0
   21.5534   -7.5081  -24.3462 C   0  0  0  0  0  0  0  0  0  0  0  0
   22.8621  -10.1910  -15.3355 C   0  0  0  0  0  0  0  0  0  0  0  0
   22.1609   -9.1396  -16.1908 C   0  0  2  0  0  0  0  0  0  0  0  0
   22.2860   -9.4253  -17.5841 N   0  0  0  0  0  0  0  0  0  0  0  0
   22.7359   -7.8161  -15.8256 C   0  0  0  0  0  0  0  0  0  0  0  0
   23.7632   -7.3801  -16.3826 O   0  0  0  0  0  0  0  0  0  0  0  0
   22.0921   -7.0670  -14.8353 N   0  0  0  0  0  0  0  0  0  0  0  0
   22.5873   -5.8115  -14.3066 C   0  0  1  0  0  0  0  0  0  0  0  0
   22.4005   -4.8036  -15.4207 C   0  0  0  0  0  0  0  0  0  0  0  0
   21.0198   -4.3959  -15.6599 C   0  0  0  0  0  0  0  0  0  0  0  0
   20.3993   -3.4347  -14.8913 C   0  0  0  0  0  0  0  0  0  0  0  0
   19.0749   -3.0562  -15.1398 C   0  0  0  0  0  0  0  0  0  0  0  0
   18.3608   -3.6448  -16.1689 C   0  0  0  0  0  0  0  0  0  0  0  0
   18.9779   -4.6067  -16.9400 C   0  0  0  0  0  0  0  0  0  0  0  0
   20.2977   -4.9677  -16.6742 C   0  0  0  0  0  0  0  0  0  0  0  0
   21.7876   -5.4868  -13.1095 C   0  0  0  0  0  0  0  0  0  0  0  0
   22.1101   -4.3681  -12.3676 O   0  0  0  0  0  0  0  0  0  0  0  0
   20.8251   -6.1779  -12.7292 O   0  0  0  0  0  0  0  0  0  0  0  0
  2 12  2  0
  2  1  1  0
  3  2  1  0
  4  5  1  0
  4  3  2  0
  5 11  2  0
  6  5  1  0
  7  8  1  6
  7  6  1  0
  9  7  1  0
 10  9  2  0
 11 12  1  0
 14 13  1  1
 14 16  1  0
 14 15  1  0
 15  9  1  0
 16 17  2  0
 18 19  1  0
 18 16  1  0
 19 20  1  6
 20 21  1  0
 21 22  2  0
 22 23  1  0
 24 23  2  0
 25 24  1  0
 26 25  2  0
 26 21  1  0
 27 19  1  0
 28 27  1  0
 29 27  2  0
M  END
$$$$
