YAF.pdb
     RDKit          3D

 29 30  0  0  1  0  0  0  0  0999 V2000
   20.5872  -16.1889  -18.7403 O   0  0  0  0  0  0  0  0  0  0  0  0
   21.2108  -17.0031  -17.7841 C   0  0  0  0  0  0  0  0  0  0  0  0
   20.7805  -18.2944  -17.5523 C   0  0  0  0  0  0  0  0  0  0  0  0
   21.3692  -19.1226  -16.6209 C   0  0  0  0  0  0  0  0  0  0  0  0
   22.4353  -18.6667  -15.8752 C   0  0  0  0  0  0  0  0  0  0  0  0
   23.1101  -19.5005  -14.8632 C   0  0  0  0  0  0  0  0  0  0  0  0
   24.2202  -20.3385  -15.5008 C   0  0  2  0  0  0  0  0  0  0  0  0
   23.5944  -21.4526  -16.1635 N   0  0  0  0  0  0  0  0  0  0  0  0
   25.1417  -20.7931  -14.4359 C   0  0  0  0  0  0  0  0  0  0  0  0
   24.7185  -21.7328  -13.6888 O   0  0  0  0  0  0  0  0  0  0  0  0
   22.8718  -17.3788  -16.0998 C   0  0  0  0  0  0  0  0  0  0  0  0
   22.2794  -16.5571  -17.0314 C   0  0  0  0  0  0  0  0  0  0  0  0
   28.5878  -20.1109  -13.0730 C   0  0  0  0  0  0  0  0  0  0  0  0
   27.1368  -20.5808  -13.0232 C   0  0  2  0  0  0  0  0  0  0  0  0
   26.4332  -20.2450  -14.2193 N   0  0  0  0  0  0  0  0  0  0  0  0
   26.5183  -19.9807  -11.8095 C   0  0  0  0  0  0  0  0  0  0  0  0
   26.1510  -18.7889  -11.7914 O   0  0  0  0  0  0  0  0  0  0  0  0
   26.3574  -20.7912  -10.6810 N   0  0  0  0  0  0  0  0  0  0  0  0
   25.8506  -20.3267   -9.4048 C   0  0  1  0  0  0  0  0  0  0  0  0
   24.5618  -21.0891   -9.1816 C   0  0  0  0  0  0  0  0  0  0  0  0
   23.4248  -20.6247   -9.9700 C   0  0  0  0  0  0  0  0  0  0  0  0
   22.6099  -19.5992   -9.5412 C   0  0  0  0  0  0  0  0  0  0  0  0
   21.5262  -19.1672  -10.3146 C   0  0  0  0  0  0  0  0  0  0  0  0
   21.2527  -19.7666  -11.5316 C   0  0  0  0  0  0  0  0  0  0  0  0
   22.0655  -20.7927  -11.9641 C   0  0  0  0  0  0  0  0  0  0  0  0
   23.1391  -21.2063  -11.1772 C   0  0  0  0  0  0  0  0  0  0  0  0
   26.8719  -20.6301   -8.3837 C   0  0  0  0  0  0  0  0  0  0  0  0
   27.9686  -21.3919   -8.7340 O   0  0  0  0  0  0  0  0  0  0  0  0
   26.7949  -20.2297   -7.2079 O   0  0  0  0  0  0  0  0  0  0  0  0
  2 12  2  0
  2  1  1  0
  3  2  1  0
  4  5  1  0
  4  3  2  0
  5 11  2  0
  6  5  1  0
  7  8  1  1
  7  6  1  0
  9  7  1  0
 10  9  2  0
 11 12  1  0
 14 13  1  6
 14 16  1  0
 14 15  1  0
 15  9  1  0
 16 17  2  0
 18 19  1  0
 18 16  1  0
 19 20  1  1
 20 21  1  0
 21 22  2  0
 22 23  1  0
 24 23  2  0
 25 24  1  0
 26 25  2  0
 26 21  1  0
 27 19  1  0
 28 27  1  0
 29 27  2  0
M  END
$$$$
