YAF.pdb
     RDKit          3D

 29 30  0  0  1  0  0  0  0  0999 V2000
   18.3888  -16.7295  -15.4168 O   0  0  0  0  0  0  0  0  0  0  0  0
   19.2859  -17.4603  -14.6247 C   0  0  0  0  0  0  0  0  0  0  0  0
   20.6512  -17.3367  -14.7887 C   0  0  0  0  0  0  0  0  0  0  0  0
   21.5620  -18.0389  -14.0286 C   0  0  0  0  0  0  0  0  0  0  0  0
   21.1168  -18.9086  -13.0560 C   0  0  0  0  0  0  0  0  0  0  0  0
   22.0370  -19.6897  -12.2086 C   0  0  0  0  0  0  0  0  0  0  0  0
   22.8630  -20.6612  -13.0541 C   0  0  2  0  0  0  0  0  0  0  0  0
   21.9840  -21.7185  -13.4804 N   0  0  0  0  0  0  0  0  0  0  0  0
   23.9730  -21.1838  -12.2267 C   0  0  0  0  0  0  0  0  0  0  0  0
   23.6417  -21.7743  -11.1487 O   0  0  0  0  0  0  0  0  0  0  0  0
   19.7554  -19.0384  -12.8852 C   0  0  0  0  0  0  0  0  0  0  0  0
   18.8515  -18.3343  -13.6476 C   0  0  0  0  0  0  0  0  0  0  0  0
   27.7315  -21.4723  -12.2471 C   0  0  0  0  0  0  0  0  0  0  0  0
   26.3359  -21.4695  -11.6299 C   0  0  2  0  0  0  0  0  0  0  0  0
   25.3444  -21.0592  -12.5716 N   0  0  0  0  0  0  0  0  0  0  0  0
   26.3837  -20.5885  -10.4310 C   0  0  0  0  0  0  0  0  0  0  0  0
   25.8677  -19.4531  -10.4404 O   0  0  0  0  0  0  0  0  0  0  0  0
   27.0258  -21.0678   -9.2845 N   0  0  0  0  0  0  0  0  0  0  0  0
   27.7416  -20.2351   -8.3383 C   0  0  1  0  0  0  0  0  0  0  0  0
   26.9237  -20.2776   -7.0651 C   0  0  0  0  0  0  0  0  0  0  0  0
   27.5723  -19.6956   -5.8944 C   0  0  0  0  0  0  0  0  0  0  0  0
   27.7303  -18.3342   -5.7492 C   0  0  0  0  0  0  0  0  0  0  0  0
   28.3528  -17.7967   -4.6166 C   0  0  0  0  0  0  0  0  0  0  0  0
   28.8234  -18.6291   -3.6161 C   0  0  0  0  0  0  0  0  0  0  0  0
   28.6673  -19.9915   -3.7576 C   0  0  0  0  0  0  0  0  0  0  0  0
   28.0442  -20.5043   -4.8941 C   0  0  0  0  0  0  0  0  0  0  0  0
   29.0880  -20.8142   -8.1658 C   0  0  0  0  0  0  0  0  0  0  0  0
   29.3054  -22.1303   -8.5217 O   0  0  0  0  0  0  0  0  0  0  0  0
   30.0501  -20.1696   -7.7103 O   0  0  0  0  0  0  0  0  0  0  0  0
  2 12  2  0
  2  1  1  0
  3  2  1  0
  4  5  1  0
  4  3  2  0
  5 11  2  0
  6  5  1  0
  7  8  1  1
  7  6  1  0
  9  7  1  0
 10  9  2  0
 11 12  1  0
 14 13  1  6
 14 16  1  0
 14 15  1  0
 15  9  1  0
 16 17  2  0
 18 19  1  0
 18 16  1  0
 19 20  1  1
 20 21  1  0
 21 22  2  0
 22 23  1  0
 24 23  2  0
 25 24  1  0
 26 25  2  0
 26 21  1  0
 27 19  1  0
 28 27  1  0
 29 27  2  0
M  END
$$$$
