YAF.pdb
     RDKit          3D

 29 30  0  0  1  0  0  0  0  0999 V2000
   28.2344  -30.7313  -17.8383 O   0  0  0  0  0  0  0  0  0  0  0  0
   27.7704  -29.4665  -17.4489 C   0  0  0  0  0  0  0  0  0  0  0  0
   28.4073  -28.7429  -16.4606 C   0  0  0  0  0  0  0  0  0  0  0  0
   27.9796  -27.4976  -16.0525 C   0  0  0  0  0  0  0  0  0  0  0  0
   26.8706  -26.9274  -16.6405 C   0  0  0  0  0  0  0  0  0  0  0  0
   26.3605  -25.5995  -16.2512 C   0  0  0  0  0  0  0  0  0  0  0  0
   26.6591  -24.5625  -17.3358 C   0  0  2  0  0  0  0  0  0  0  0  0
   28.0548  -24.2237  -17.2375 N   0  0  0  0  0  0  0  0  0  0  0  0
   25.7999  -23.3791  -17.1093 C   0  0  0  0  0  0  0  0  0  0  0  0
   26.2543  -22.4984  -16.3103 O   0  0  0  0  0  0  0  0  0  0  0  0
   26.2284  -27.6427  -17.6282 C   0  0  0  0  0  0  0  0  0  0  0  0
   26.6609  -28.8856  -18.0307 C   0  0  0  0  0  0  0  0  0  0  0  0
   22.6438  -21.7989  -18.4050 C   0  0  0  0  0  0  0  0  0  0  0  0
   23.7788  -22.0204  -17.4093 C   0  0  2  0  0  0  0  0  0  0  0  0
   24.5342  -23.1905  -17.7235 N   0  0  0  0  0  0  0  0  0  0  0  0
   23.1716  -22.0806  -16.0516 C   0  0  0  0  0  0  0  0  0  0  0  0
   22.8841  -23.1707  -15.5182 O   0  0  0  0  0  0  0  0  0  0  0  0
   22.9291  -20.8763  -15.3828 N   0  0  0  0  0  0  0  0  0  0  0  0
   22.3807  -20.7789  -14.0445 C   0  0  1  0  0  0  0  0  0  0  0  0
   23.3265  -19.8718  -13.2866 C   0  0  0  0  0  0  0  0  0  0  0  0
   24.6223  -20.4611  -12.9644 C   0  0  0  0  0  0  0  0  0  0  0  0
   25.7473  -20.2067  -13.7189 C   0  0  0  0  0  0  0  0  0  0  0  0
   26.9812  -20.7800  -13.3903 C   0  0  0  0  0  0  0  0  0  0  0  0
   27.0934  -21.6178  -12.2946 C   0  0  0  0  0  0  0  0  0  0  0  0
   25.9704  -21.8747  -11.5373 C   0  0  0  0  0  0  0  0  0  0  0  0
   24.7521  -21.2927  -11.8833 C   0  0  0  0  0  0  0  0  0  0  0  0
   21.0233  -20.2116  -14.1603 C   0  0  0  0  0  0  0  0  0  0  0  0
   20.1894  -20.2311  -13.0603 O   0  0  0  0  0  0  0  0  0  0  0  0
   20.5856  -19.7099  -15.2117 O   0  0  0  0  0  0  0  0  0  0  0  0
  2 12  2  0
  2  1  1  0
  3  2  1  0
  4  5  1  0
  4  3  2  0
  5 11  2  0
  6  5  1  0
  7  8  1  1
  7  6  1  0
  9  7  1  0
 10  9  2  0
 11 12  1  0
 14 13  1  6
 14 16  1  0
 14 15  1  0
 15  9  1  0
 16 17  2  0
 18 19  1  0
 18 16  1  0
 19 20  1  1
 20 21  1  0
 21 22  2  0
 22 23  1  0
 24 23  2  0
 25 24  1  0
 26 25  2  0
 26 21  1  0
 27 19  1  0
 28 27  1  0
 29 27  2  0
M  END
$$$$
