YAF.pdb
     RDKit          3D

 29 30  0  0  1  0  0  0  0  0999 V2000
   30.7503  -19.5307  -19.1351 O   0  0  0  0  0  0  0  0  0  0  0  0
   30.0403  -19.3288  -17.9428 C   0  0  0  0  0  0  0  0  0  0  0  0
   29.6383  -20.3924  -17.1596 C   0  0  0  0  0  0  0  0  0  0  0  0
   28.9394  -20.2317  -15.9824 C   0  0  0  0  0  0  0  0  0  0  0  0
   28.6151  -18.9649  -15.5456 C   0  0  0  0  0  0  0  0  0  0  0  0
   27.8695  -18.7230  -14.2963 C   0  0  0  0  0  0  0  0  0  0  0  0
   26.4482  -19.2807  -14.3942 C   0  0  2  0  0  0  0  0  0  0  0  0
   25.6999  -18.4078  -15.2605 N   0  0  0  0  0  0  0  0  0  0  0  0
   25.8618  -19.3245  -13.0362 C   0  0  0  0  0  0  0  0  0  0  0  0
   25.5724  -18.2013  -12.5117 O   0  0  0  0  0  0  0  0  0  0  0  0
   29.0123  -17.8971  -16.3211 C   0  0  0  0  0  0  0  0  0  0  0  0
   29.7100  -18.0648  -17.4955 C   0  0  0  0  0  0  0  0  0  0  0  0
   23.7349  -21.2278  -10.9259 C   0  0  0  0  0  0  0  0  0  0  0  0
   25.0424  -20.4457  -11.0133 C   0  0  2  0  0  0  0  0  0  0  0  0
   25.6168  -20.5241  -12.3180 N   0  0  0  0  0  0  0  0  0  0  0  0
   25.9478  -20.9773   -9.9581 C   0  0  0  0  0  0  0  0  0  0  0  0
   26.4172  -22.1307  -10.0281 O   0  0  0  0  0  0  0  0  0  0  0  0
   26.2623  -20.1464   -8.8778 N   0  0  0  0  0  0  0  0  0  0  0  0
   27.0040  -20.5709   -7.7070 C   0  0  1  0  0  0  0  0  0  0  0  0
   27.6478  -19.3144   -7.1605 C   0  0  0  0  0  0  0  0  0  0  0  0
   28.2988  -19.4677   -5.8634 C   0  0  0  0  0  0  0  0  0  0  0  0
   27.8774  -18.7747   -4.7491 C   0  0  0  0  0  0  0  0  0  0  0  0
   28.5142  -18.9390   -3.5135 C   0  0  0  0  0  0  0  0  0  0  0  0
   29.5854  -19.8063   -3.3889 C   0  0  0  0  0  0  0  0  0  0  0  0
   30.0100  -20.5014   -4.5011 C   0  0  0  0  0  0  0  0  0  0  0  0
   29.3606  -20.3219   -5.7213 C   0  0  0  0  0  0  0  0  0  0  0  0
   26.0405  -21.1697   -6.7632 C   0  0  0  0  0  0  0  0  0  0  0  0
   26.5082  -21.9753   -5.7442 O   0  0  0  0  0  0  0  0  0  0  0  0
   24.8123  -20.9839   -6.8390 O   0  0  0  0  0  0  0  0  0  0  0  0
  2 12  2  0
  2  1  1  0
  3  2  1  0
  4  5  1  0
  4  3  2  0
  5 11  2  0
  6  5  1  0
  7  8  1  6
  7  6  1  0
  9  7  1  0
 10  9  2  0
 11 12  1  0
 14 13  1  6
 14 16  1  0
 14 15  1  0
 15  9  1  0
 16 17  2  0
 18 19  1  0
 18 16  1  0
 19 20  1  1
 20 21  1  0
 21 22  2  0
 22 23  1  0
 24 23  2  0
 25 24  1  0
 26 25  2  0
 26 21  1  0
 27 19  1  0
 28 27  1  0
 29 27  2  0
M  END
$$$$
