YAF.pdb
     RDKit          3D

 29 30  0  0  1  0  0  0  0  0999 V2000
   16.9503  -16.2192  -14.3985 O   0  0  0  0  0  0  0  0  0  0  0  0
   17.9971  -17.0260  -13.9298 C   0  0  0  0  0  0  0  0  0  0  0  0
   19.3089  -16.7702  -14.2762 C   0  0  0  0  0  0  0  0  0  0  0  0
   20.3626  -17.5415  -13.8345 C   0  0  0  0  0  0  0  0  0  0  0  0
   20.1237  -18.6206  -13.0104 C   0  0  0  0  0  0  0  0  0  0  0  0
   21.2046  -19.4859  -12.5027 C   0  0  0  0  0  0  0  0  0  0  0  0
   21.7646  -20.3691  -13.6196 C   0  0  2  0  0  0  0  0  0  0  0  0
   20.7643  -21.3556  -13.9332 N   0  0  0  0  0  0  0  0  0  0  0  0
   23.0142  -21.0016  -13.1419 C   0  0  0  0  0  0  0  0  0  0  0  0
   22.9121  -21.7420  -12.1114 O   0  0  0  0  0  0  0  0  0  0  0  0
   18.8171  -18.8834  -12.6594 C   0  0  0  0  0  0  0  0  0  0  0  0
   17.7698  -18.1092  -13.1040 C   0  0  0  0  0  0  0  0  0  0  0  0
   26.5147  -21.6921  -14.2327 C   0  0  0  0  0  0  0  0  0  0  0  0
   25.4254  -21.4541  -13.1908 C   0  0  2  0  0  0  0  0  0  0  0  0
   24.2787  -20.8243  -13.7622 N   0  0  0  0  0  0  0  0  0  0  0  0
   26.0302  -20.6510  -12.0931 C   0  0  0  0  0  0  0  0  0  0  0  0
   26.0093  -19.4041  -12.1154 O   0  0  0  0  0  0  0  0  0  0  0  0
   26.6273  -21.3328  -11.0278 N   0  0  0  0  0  0  0  0  0  0  0  0
   27.4887  -20.7143  -10.0396 C   0  0  1  0  0  0  0  0  0  0  0  0
   26.9707  -21.1905   -8.6991 C   0  0  0  0  0  0  0  0  0  0  0  0
   27.6954  -20.6797   -7.5399 C   0  0  0  0  0  0  0  0  0  0  0  0
   28.7546  -21.3631   -6.9824 C   0  0  0  0  0  0  0  0  0  0  0  0
   29.4379  -20.8535   -5.8722 C   0  0  0  0  0  0  0  0  0  0  0  0
   29.0590  -19.6463   -5.3115 C   0  0  0  0  0  0  0  0  0  0  0  0
   28.0001  -18.9597   -5.8663 C   0  0  0  0  0  0  0  0  0  0  0  0
   27.3344  -19.4863   -6.9717 C   0  0  0  0  0  0  0  0  0  0  0  0
   28.8679  -21.1662  -10.3066 C   0  0  0  0  0  0  0  0  0  0  0  0
   29.9177  -20.3022  -10.0672 O   0  0  0  0  0  0  0  0  0  0  0  0
   29.1374  -22.3004  -10.7420 O   0  0  0  0  0  0  0  0  0  0  0  0
  2 12  2  0
  2  1  1  0
  3  2  1  0
  4  5  1  0
  4  3  2  0
  5 11  2  0
  6  5  1  0
  7  8  1  1
  7  6  1  0
  9  7  1  0
 10  9  2  0
 11 12  1  0
 14 13  1  6
 14 16  1  0
 14 15  1  0
 15  9  1  0
 16 17  2  0
 18 19  1  0
 18 16  1  0
 19 20  1  1
 20 21  1  0
 21 22  2  0
 22 23  1  0
 24 23  2  0
 25 24  1  0
 26 25  2  0
 26 21  1  0
 27 19  1  0
 28 27  1  0
 29 27  2  0
M  END
$$$$
