YAF.pdb
     RDKit          3D

 29 30  0  0  1  0  0  0  0  0999 V2000
   15.0031   -0.7016  -24.1879 O   0  0  0  0  0  0  0  0  0  0  0  0
   15.6469   -1.2994  -23.0949 C   0  0  0  0  0  0  0  0  0  0  0  0
   15.3418   -0.9372  -21.7980 C   0  0  0  0  0  0  0  0  0  0  0  0
   15.9540   -1.5030  -20.7002 C   0  0  0  0  0  0  0  0  0  0  0  0
   16.9158   -2.4748  -20.8771 C   0  0  0  0  0  0  0  0  0  0  0  0
   17.6088   -3.1203  -19.7466 C   0  0  0  0  0  0  0  0  0  0  0  0
   17.2484   -4.6049  -19.6635 C   0  0  2  0  0  0  0  0  0  0  0  0
   15.8984   -4.6953  -19.1721 N   0  0  0  0  0  0  0  0  0  0  0  0
   18.2008   -5.2732  -18.7490 C   0  0  0  0  0  0  0  0  0  0  0  0
   17.9860   -5.1212  -17.5036 O   0  0  0  0  0  0  0  0  0  0  0  0
   17.2268   -2.8428  -22.1683 C   0  0  0  0  0  0  0  0  0  0  0  0
   16.6116   -2.2736  -23.2600 C   0  0  0  0  0  0  0  0  0  0  0  0
   20.8267   -7.9206  -18.7844 C   0  0  0  0  0  0  0  0  0  0  0  0
   20.1329   -6.6875  -18.2127 C   0  0  2  0  0  0  0  0  0  0  0  0
   19.3056   -6.0499  -19.1861 N   0  0  0  0  0  0  0  0  0  0  0  0
   21.1943   -5.7859  -17.6870 C   0  0  0  0  0  0  0  0  0  0  0  0
   21.4959   -4.7283  -18.2754 O   0  0  0  0  0  0  0  0  0  0  0  0
   21.8506   -6.1555  -16.5085 N   0  0  0  0  0  0  0  0  0  0  0  0
   22.9364   -5.4072  -15.9066 C   0  0  1  0  0  0  0  0  0  0  0  0
   23.0826   -5.9648  -14.5067 C   0  0  0  0  0  0  0  0  0  0  0  0
   23.2336   -7.4144  -14.4318 C   0  0  0  0  0  0  0  0  0  0  0  0
   22.2344   -8.2277  -13.9423 C   0  0  0  0  0  0  0  0  0  0  0  0
   22.3989   -9.6164  -13.8820 C   0  0  0  0  0  0  0  0  0  0  0  0
   23.5760  -10.2006  -14.3161 C   0  0  0  0  0  0  0  0  0  0  0  0
   24.5779   -9.3905  -14.8064 C   0  0  0  0  0  0  0  0  0  0  0  0
   24.3919   -8.0101  -14.8570 C   0  0  0  0  0  0  0  0  0  0  0  0
   24.1396   -5.6277  -16.7322 C   0  0  0  0  0  0  0  0  0  0  0  0
   24.0793   -6.5180  -17.7856 O   0  0  0  0  0  0  0  0  0  0  0  0
   25.2197   -5.0452  -16.5256 O   0  0  0  0  0  0  0  0  0  0  0  0
  2 12  2  0
  2  1  1  0
  3  2  1  0
  4  5  1  0
  4  3  2  0
  5 11  2  0
  6  5  1  0
  7  8  1  1
  7  6  1  0
  9  7  1  0
 10  9  2  0
 11 12  1  0
 14 13  1  6
 14 16  1  0
 14 15  1  0
 15  9  1  0
 16 17  2  0
 18 19  1  0
 18 16  1  0
 19 20  1  1
 20 21  1  0
 21 22  2  0
 22 23  1  0
 24 23  2  0
 25 24  1  0
 26 25  2  0
 26 21  1  0
 27 19  1  0
 28 27  1  0
 29 27  2  0
M  END
$$$$
