QWH.pdb
     RDKit          3D

 34 36  0  0  1  0  0  0  0  0999 V2000
    8.6569  -12.5188   16.6389 N   0  0  0  0  0  0  0  0  0  0  0  0
    7.8673  -13.6100   16.1583 C   0  0  0  0  0  0  0  0  0  0  0  0
    7.3747  -13.5538   15.0134 O   0  0  0  0  0  0  0  0  0  0  0  0
    7.6346  -14.8005   17.0133 C   0  0  0  0  0  0  0  0  0  0  0  0
    8.3145  -14.5929   18.3455 C   0  0  0  0  0  0  0  0  0  0  0  0
    8.9390  -15.8637   18.8652 C   0  0  2  0  0  0  0  0  0  0  0  0
    8.0762  -16.9823   18.6086 N   0  0  0  0  0  0  0  0  0  0  0  0
    9.1073  -15.7184   20.3394 C   0  0  0  0  0  0  0  0  0  0  0  0
   10.1812  -15.2562   20.8066 O   0  0  0  0  0  0  0  0  0  0  0  0
    8.0952  -16.0827   21.2647 N   0  0  0  0  0  0  0  0  0  0  0  0
    8.1674  -15.7823   22.6725 C   0  0  1  0  0  0  0  0  0  0  0  0
    6.8387  -15.3820   23.2280 C   0  0  0  0  0  0  0  0  0  0  0  0
    6.8388  -14.9366   24.6329 C   0  0  0  0  0  0  0  0  0  0  0  0
    6.6550  -15.7938   25.7483 C   0  0  0  0  0  0  0  0  0  0  0  0
    6.7279  -15.0866   26.8803 N   0  0  0  0  0  0  0  0  0  0  0  0
    6.9528  -13.7854   26.5859 C   0  0  0  0  0  0  0  0  0  0  0  0
    7.0996  -12.6779   27.3936 C   0  0  0  0  0  0  0  0  0  0  0  0
    7.3190  -11.4496   26.7951 C   0  0  0  0  0  0  0  0  0  0  0  0
    7.3903  -11.3256   25.4321 C   0  0  0  0  0  0  0  0  0  0  0  0
    7.2386  -12.4531   24.6729 C   0  0  0  0  0  0  0  0  0  0  0  0
    7.0191  -13.7059   25.1918 C   0  0  0  0  0  0  0  0  0  0  0  0
    8.8823  -16.7575   23.4977 C   0  0  0  0  0  0  0  0  0  0  0  0
    8.6309  -17.9905   23.4792 O   0  0  0  0  0  0  0  0  0  0  0  0
    9.9419  -16.3217   24.3838 N   0  0  0  0  0  0  0  0  0  0  0  0
   10.7127  -17.2295   25.1996 C   0  0  1  0  0  0  0  0  0  0  0  0
   12.1777  -16.7761   25.1183 C   0  0  0  0  0  0  0  0  0  0  0  0
   12.7597  -16.8650   23.7863 C   0  0  0  0  0  0  0  0  0  0  0  0
   12.5818  -17.8780   22.8392 C   0  0  0  0  0  0  0  0  0  0  0  0
   13.2838  -17.5883   21.7534 N   0  0  0  0  0  0  0  0  0  0  0  0
   13.9147  -16.4205   21.9581 C   0  0  0  0  0  0  0  0  0  0  0  0
   13.5840  -16.0044   23.1882 N   0  0  0  0  0  0  0  0  0  0  0  0
   10.3977  -17.0359   26.6639 C   0  0  0  0  0  0  0  0  0  0  0  0
   11.0832  -17.8299   27.5606 O   0  0  0  0  0  0  0  0  0  0  0  0
    9.5631  -16.2061   27.0345 O   0  0  0  0  0  0  0  0  0  0  0  0
  2  3  2  0
  2  1  1  0
  4  2  1  0
  5  4  1  0
  6  5  1  0
  6  7  1  1
  8  9  2  0
  8  6  1  0
 10  8  1  0
 11 12  1  1
 11 10  1  0
 12 13  1  0
 13 21  1  0
 13 14  2  0
 14 15  1  0
 16 15  1  0
 16 17  2  0
 18 17  1  0
 19 18  2  0
 20 21  2  0
 20 19  1  0
 21 16  1  0
 22 11  1  0
 23 22  2  0
 24 22  1  0
 25 24  1  0
 25 26  1  1
 26 27  1  0
 27 28  2  0
 28 29  1  0
 30 29  1  0
 31 27  1  0
 31 30  2  0
 32 25  1  0
 32 33  1  0
 34 32  2  0
M  END
$$$$
