QWH.pdb
     RDKit          3D

 34 36  0  0  1  0  0  0  0  0999 V2000
    8.1973  -16.4158   16.2029 N   0  0  0  0  0  0  0  0  0  0  0  0
    9.4453  -15.7483   16.4080 C   0  0  0  0  0  0  0  0  0  0  0  0
    9.8802  -14.9764   15.5296 O   0  0  0  0  0  0  0  0  0  0  0  0
   10.2184  -15.9710   17.6551 C   0  0  0  0  0  0  0  0  0  0  0  0
    9.4763  -16.9549   18.5277 C   0  0  0  0  0  0  0  0  0  0  0  0
   10.2179  -17.2454   19.8086 C   0  0  2  0  0  0  0  0  0  0  0  0
    9.8336  -18.5288   20.3250 N   0  0  0  0  0  0  0  0  0  0  0  0
    9.8402  -16.1986   20.8007 C   0  0  0  0  0  0  0  0  0  0  0  0
   10.3505  -15.0499   20.7270 O   0  0  0  0  0  0  0  0  0  0  0  0
    8.9133  -16.4361   21.8483 N   0  0  0  0  0  0  0  0  0  0  0  0
    8.6200  -15.4702   22.8770 C   0  0  1  0  0  0  0  0  0  0  0  0
    7.1604  -15.4175   23.1952 C   0  0  0  0  0  0  0  0  0  0  0  0
    6.8066  -14.7909   24.4815 C   0  0  0  0  0  0  0  0  0  0  0  0
    6.3258  -15.4965   25.6144 C   0  0  0  0  0  0  0  0  0  0  0  0
    6.1176  -14.6453   26.6238 N   0  0  0  0  0  0  0  0  0  0  0  0
    6.4347  -13.3908   26.2290 C   0  0  0  0  0  0  0  0  0  0  0  0
    6.3888  -12.1843   26.8943 C   0  0  0  0  0  0  0  0  0  0  0  0
    6.7776  -11.0421   26.2166 C   0  0  0  0  0  0  0  0  0  0  0  0
    7.2000  -11.0976   24.9140 C   0  0  0  0  0  0  0  0  0  0  0  0
    7.2284  -12.3176   24.2963 C   0  0  0  0  0  0  0  0  0  0  0  0
    6.8595  -13.4945   24.9011 C   0  0  0  0  0  0  0  0  0  0  0  0
    9.4804  -15.5163   24.0604 C   0  0  0  0  0  0  0  0  0  0  0  0
    9.5146  -14.6003   24.9225 O   0  0  0  0  0  0  0  0  0  0  0  0
   10.3411  -16.6587   24.2888 N   0  0  0  0  0  0  0  0  0  0  0  0
   10.9852  -16.9221   25.5536 C   0  0  1  0  0  0  0  0  0  0  0  0
    9.9031  -17.4417   26.5114 C   0  0  0  0  0  0  0  0  0  0  0  0
   10.3660  -17.6665   27.8736 C   0  0  0  0  0  0  0  0  0  0  0  0
   10.8711  -18.8487   28.4231 C   0  0  0  0  0  0  0  0  0  0  0  0
   11.1800  -18.6417   29.6949 N   0  0  0  0  0  0  0  0  0  0  0  0
   10.8943  -17.3645   29.9959 C   0  0  0  0  0  0  0  0  0  0  0  0
   10.4058  -16.7976   28.8843 N   0  0  0  0  0  0  0  0  0  0  0  0
   11.9152  -18.1071   25.4468 C   0  0  0  0  0  0  0  0  0  0  0  0
   11.9271  -18.7856   24.2452 O   0  0  0  0  0  0  0  0  0  0  0  0
   12.6273  -18.4490   26.3948 O   0  0  0  0  0  0  0  0  0  0  0  0
  2  3  2  0
  2  1  1  0
  4  2  1  0
  5  4  1  0
  6  5  1  0
  6  7  1  1
  8  9  2  0
  8  6  1  0
 10  8  1  0
 11 12  1  1
 11 10  1  0
 12 13  1  0
 13 21  1  0
 13 14  2  0
 14 15  1  0
 16 15  1  0
 16 17  2  0
 18 17  1  0
 19 18  2  0
 20 21  2  0
 20 19  1  0
 21 16  1  0
 22 11  1  0
 23 22  2  0
 24 22  1  0
 25 24  1  0
 25 26  1  1
 26 27  1  0
 27 28  2  0
 28 29  1  0
 30 29  1  0
 31 27  1  0
 31 30  2  0
 32 25  1  0
 32 33  1  0
 34 32  2  0
M  END
$$$$
