QWH.pdb
     RDKit          3D

 34 36  0  0  1  0  0  0  0  0999 V2000
    8.2584  -12.6173   18.2950 N   0  0  0  0  0  0  0  0  0  0  0  0
    8.7578  -13.8745   17.8310 C   0  0  0  0  0  0  0  0  0  0  0  0
    9.2178  -13.9633   16.6746 O   0  0  0  0  0  0  0  0  0  0  0  0
    8.7296  -15.0652   18.7165 C   0  0  0  0  0  0  0  0  0  0  0  0
    9.5008  -14.7609   19.9785 C   0  0  0  0  0  0  0  0  0  0  0  0
   10.0056  -16.0146   20.6483 C   0  0  2  0  0  0  0  0  0  0  0  0
    9.1213  -17.1130   20.3777 N   0  0  0  0  0  0  0  0  0  0  0  0
   10.0259  -15.7686   22.1186 C   0  0  0  0  0  0  0  0  0  0  0  0
   10.7119  -14.8228   22.5879 O   0  0  0  0  0  0  0  0  0  0  0  0
    9.2945  -16.5644   23.0377 N   0  0  0  0  0  0  0  0  0  0  0  0
    9.3572  -16.3802   24.4658 C   0  0  1  0  0  0  0  0  0  0  0  0
    7.9975  -16.3429   25.0854 C   0  0  0  0  0  0  0  0  0  0  0  0
    7.2204  -15.1122   24.8535 C   0  0  0  0  0  0  0  0  0  0  0  0
    6.2937  -14.9339   23.7942 C   0  0  0  0  0  0  0  0  0  0  0  0
    5.7436  -13.7182   23.8731 N   0  0  0  0  0  0  0  0  0  0  0  0
    6.2546  -13.0598   24.9388 C   0  0  0  0  0  0  0  0  0  0  0  0
    6.0143  -11.7955   25.4330 C   0  0  0  0  0  0  0  0  0  0  0  0
    6.7055  -11.3855   26.5596 C   0  0  0  0  0  0  0  0  0  0  0  0
    7.6103  -12.2089   27.1775 C   0  0  0  0  0  0  0  0  0  0  0  0
    7.8144  -13.4541   26.6500 C   0  0  0  0  0  0  0  0  0  0  0  0
    7.1676  -13.9334   25.5369 C   0  0  0  0  0  0  0  0  0  0  0  0
   10.3071  -17.2358   25.1789 C   0  0  0  0  0  0  0  0  0  0  0  0
   10.7644  -18.3055   24.6990 O   0  0  0  0  0  0  0  0  0  0  0  0
   10.7729  -16.8620   26.4985 N   0  0  0  0  0  0  0  0  0  0  0  0
   11.4958  -17.7620   27.3653 C   0  0  1  0  0  0  0  0  0  0  0  0
   11.4427  -17.1661   28.7796 C   0  0  0  0  0  0  0  0  0  0  0  0
   12.0719  -17.9909   29.8016 C   0  0  0  0  0  0  0  0  0  0  0  0
   12.6352  -19.2615   29.6505 C   0  0  0  0  0  0  0  0  0  0  0  0
   13.1027  -19.6735   30.8199 N   0  0  0  0  0  0  0  0  0  0  0  0
   12.8643  -18.7156   31.7306 C   0  0  0  0  0  0  0  0  0  0  0  0
   12.2432  -17.7131   31.0944 N   0  0  0  0  0  0  0  0  0  0  0  0
   10.7461  -19.0618   27.5363 C   0  0  0  0  0  0  0  0  0  0  0  0
   11.4871  -20.1667   27.9031 O   0  0  0  0  0  0  0  0  0  0  0  0
    9.5276  -19.1265   27.3527 O   0  0  0  0  0  0  0  0  0  0  0  0
  2  3  2  0
  2  1  1  0
  4  2  1  0
  5  4  1  0
  6  5  1  0
  6  7  1  1
  8  9  2  0
  8  6  1  0
 10  8  1  0
 11 12  1  1
 11 10  1  0
 12 13  1  0
 13 21  1  0
 13 14  2  0
 14 15  1  0
 16 15  1  0
 16 17  2  0
 18 17  1  0
 19 18  2  0
 20 21  2  0
 20 19  1  0
 21 16  1  0
 22 11  1  0
 23 22  2  0
 24 22  1  0
 25 24  1  0
 25 26  1  1
 26 27  1  0
 27 28  2  0
 28 29  1  0
 30 29  1  0
 31 27  1  0
 31 30  2  0
 32 25  1  0
 32 33  1  0
 34 32  2  0
M  END
$$$$
