QWH.pdb
     RDKit          3D

 34 36  0  0  1  0  0  0  0  0999 V2000
    9.0386  -12.3412   19.1323 N   0  0  0  0  0  0  0  0  0  0  0  0
    8.4745  -13.5140   18.5395 C   0  0  0  0  0  0  0  0  0  0  0  0
    7.7374  -13.4024   17.5390 O   0  0  0  0  0  0  0  0  0  0  0  0
    8.7624  -14.8542   19.1086 C   0  0  0  0  0  0  0  0  0  0  0  0
    9.6173  -14.6938   20.3429 C   0  0  0  0  0  0  0  0  0  0  0  0
    9.9859  -16.0236   20.9516 C   0  0  2  0  0  0  0  0  0  0  0  0
    8.9481  -16.9858   20.7088 N   0  0  0  0  0  0  0  0  0  0  0  0
   10.1218  -15.8287   22.4234 C   0  0  0  0  0  0  0  0  0  0  0  0
   10.9413  -14.9847   22.8723 O   0  0  0  0  0  0  0  0  0  0  0  0
    9.3568  -16.5626   23.3664 N   0  0  0  0  0  0  0  0  0  0  0  0
    9.4248  -16.3334   24.7877 C   0  0  1  0  0  0  0  0  0  0  0  0
    8.0775  -16.0631   25.3759 C   0  0  0  0  0  0  0  0  0  0  0  0
    7.4218  -14.8198   24.9327 C   0  0  0  0  0  0  0  0  0  0  0  0
    6.7774  -14.6531   23.6798 C   0  0  0  0  0  0  0  0  0  0  0  0
    6.2684  -13.4202   23.5924 N   0  0  0  0  0  0  0  0  0  0  0  0
    6.5376  -12.7390   24.7300 C   0  0  0  0  0  0  0  0  0  0  0  0
    6.2336  -11.4516   25.1179 C   0  0  0  0  0  0  0  0  0  0  0  0
    6.6546  -11.0215   26.3640 C   0  0  0  0  0  0  0  0  0  0  0  0
    7.3582  -11.8478   27.2010 C   0  0  0  0  0  0  0  0  0  0  0  0
    7.6357  -13.1164   26.7716 C   0  0  0  0  0  0  0  0  0  0  0  0
    7.2522  -13.6163   25.5510 C   0  0  0  0  0  0  0  0  0  0  0  0
   10.2200  -17.2956   25.5524 C   0  0  0  0  0  0  0  0  0  0  0  0
   10.2577  -17.3119   26.8101 O   0  0  0  0  0  0  0  0  0  0  0  0
   11.0073  -18.2976   24.8638 N   0  0  0  0  0  0  0  0  0  0  0  0
   11.7501  -19.3276   25.5503 C   0  0  1  0  0  0  0  0  0  0  0  0
   11.5439  -20.6315   24.7658 C   0  0  0  0  0  0  0  0  0  0  0  0
   12.1643  -21.8008   25.3728 C   0  0  0  0  0  0  0  0  0  0  0  0
   12.9347  -21.8544   26.5382 C   0  0  0  0  0  0  0  0  0  0  0  0
   13.3161  -23.1052   26.7521 N   0  0  0  0  0  0  0  0  0  0  0  0
   12.8214  -23.8714   25.7663 C   0  0  0  0  0  0  0  0  0  0  0  0
   12.1318  -23.0645   24.9485 N   0  0  0  0  0  0  0  0  0  0  0  0
   13.2368  -19.1013   25.4118 C   0  0  0  0  0  0  0  0  0  0  0  0
   14.0628  -19.8770   26.1994 O   0  0  0  0  0  0  0  0  0  0  0  0
   13.6855  -18.2583   24.6303 O   0  0  0  0  0  0  0  0  0  0  0  0
  2  3  2  0
  2  1  1  0
  4  2  1  0
  5  4  1  0
  6  5  1  0
  6  7  1  1
  8  9  2  0
  8  6  1  0
 10  8  1  0
 11 12  1  1
 11 10  1  0
 12 13  1  0
 13 21  1  0
 13 14  2  0
 14 15  1  0
 16 15  1  0
 16 17  2  0
 18 17  1  0
 19 18  2  0
 20 21  2  0
 20 19  1  0
 21 16  1  0
 22 11  1  0
 23 22  2  0
 24 22  1  0
 25 24  1  0
 25 26  1  6
 26 27  1  0
 27 28  2  0
 28 29  1  0
 30 29  1  0
 31 27  1  0
 31 30  2  0
 32 25  1  0
 32 33  1  0
 34 32  2  0
M  END
$$$$
