QWH.pdb
     RDKit          3D

 34 36  0  0  1  0  0  0  0  0999 V2000
   13.3035  -15.7665   19.5944 N   0  0  0  0  0  0  0  0  0  0  0  0
   12.2788  -16.3103   18.7580 C   0  0  0  0  0  0  0  0  0  0  0  0
   12.4706  -16.3945   17.5281 O   0  0  0  0  0  0  0  0  0  0  0  0
   10.9968  -16.7712   19.3468 C   0  0  0  0  0  0  0  0  0  0  0  0
   11.0664  -16.6373   20.8492 C   0  0  0  0  0  0  0  0  0  0  0  0
   10.4041  -17.7966   21.5510 C   0  0  2  0  0  0  0  0  0  0  0  0
    9.0915  -18.0188   21.0131 N   0  0  0  0  0  0  0  0  0  0  0  0
   10.2757  -17.4423   22.9934 C   0  0  0  0  0  0  0  0  0  0  0  0
   11.3000  -17.1374   23.6591 O   0  0  0  0  0  0  0  0  0  0  0  0
    9.0288  -17.4306   23.6704 N   0  0  0  0  0  0  0  0  0  0  0  0
    8.8932  -17.1123   25.0696 C   0  0  1  0  0  0  0  0  0  0  0  0
    7.5797  -16.4656   25.3714 C   0  0  0  0  0  0  0  0  0  0  0  0
    7.3652  -15.1376   24.7692 C   0  0  0  0  0  0  0  0  0  0  0  0
    7.1548  -14.9068   23.3854 C   0  0  0  0  0  0  0  0  0  0  0  0
    6.9743  -13.6005   23.1661 N   0  0  0  0  0  0  0  0  0  0  0  0
    7.0526  -12.9309   24.3391 C   0  0  0  0  0  0  0  0  0  0  0  0
    6.9406  -11.5890   24.6345 C   0  0  0  0  0  0  0  0  0  0  0  0
    7.0750  -11.1906   25.9529 C   0  0  0  0  0  0  0  0  0  0  0  0
    7.3141  -12.1003   26.9496 C   0  0  0  0  0  0  0  0  0  0  0  0
    7.4171  -13.4204   26.6071 C   0  0  0  0  0  0  0  0  0  0  0  0
    7.2952  -13.8936   25.3233 C   0  0  0  0  0  0  0  0  0  0  0  0
    9.2544  -18.1787   26.0051 C   0  0  0  0  0  0  0  0  0  0  0  0
    9.1214  -19.4016   25.7393 O   0  0  0  0  0  0  0  0  0  0  0  0
    9.8024  -17.8502   27.3050 N   0  0  0  0  0  0  0  0  0  0  0  0
   10.5917  -18.7730   28.0856 C   0  0  1  0  0  0  0  0  0  0  0  0
   11.9225  -18.9676   27.3444 C   0  0  0  0  0  0  0  0  0  0  0  0
   12.7630  -20.0247   27.8890 C   0  0  0  0  0  0  0  0  0  0  0  0
   12.4351  -20.9560   28.8790 C   0  0  0  0  0  0  0  0  0  0  0  0
   13.4749  -21.7486   29.0940 N   0  0  0  0  0  0  0  0  0  0  0  0
   14.4716  -21.3675   28.2785 C   0  0  0  0  0  0  0  0  0  0  0  0
   14.0197  -20.3285   27.5630 N   0  0  0  0  0  0  0  0  0  0  0  0
   11.0360  -18.1376   29.3816 C   0  0  0  0  0  0  0  0  0  0  0  0
   11.3264  -18.9895   30.4277 O   0  0  0  0  0  0  0  0  0  0  0  0
   11.1307  -16.9124   29.4940 O   0  0  0  0  0  0  0  0  0  0  0  0
  2  3  2  0
  2  1  1  0
  4  2  1  0
  5  4  1  0
  6  5  1  0
  6  7  1  6
  8  9  2  0
  8  6  1  0
 10  8  1  0
 11 12  1  6
 11 10  1  0
 12 13  1  0
 13 21  1  0
 13 14  2  0
 14 15  1  0
 16 15  1  0
 16 17  2  0
 18 17  1  0
 19 18  2  0
 20 21  2  0
 20 19  1  0
 21 16  1  0
 22 11  1  0
 23 22  2  0
 24 22  1  0
 25 24  1  0
 25 26  1  6
 26 27  1  0
 27 28  2  0
 28 29  1  0
 30 29  1  0
 31 27  1  0
 31 30  2  0
 32 25  1  0
 32 33  1  0
 34 32  2  0
M  END
$$$$
