QWH.pdb
     RDKit          3D

 34 36  0  0  1  0  0  0  0  0999 V2000
    8.9563  -12.4241   18.9600 N   0  0  0  0  0  0  0  0  0  0  0  0
    8.5131  -13.5522   18.2010 C   0  0  0  0  0  0  0  0  0  0  0  0
    7.9753  -13.3716   17.0898 O   0  0  0  0  0  0  0  0  0  0  0  0
    8.6907  -14.9277   18.7295 C   0  0  0  0  0  0  0  0  0  0  0  0
    9.3368  -14.8540   20.0922 C   0  0  0  0  0  0  0  0  0  0  0  0
    9.7436  -16.2152   20.5990 C   0  0  2  0  0  0  0  0  0  0  0  0
    8.6845  -17.1613   20.3866 N   0  0  0  0  0  0  0  0  0  0  0  0
    9.9940  -16.0994   22.0640 C   0  0  0  0  0  0  0  0  0  0  0  0
   10.9147  -15.3517   22.4869 O   0  0  0  0  0  0  0  0  0  0  0  0
    9.2300  -16.8051   23.0291 N   0  0  0  0  0  0  0  0  0  0  0  0
    9.4871  -16.7337   24.4455 C   0  0  1  0  0  0  0  0  0  0  0  0
    8.2352  -16.5085   25.2307 C   0  0  0  0  0  0  0  0  0  0  0  0
    7.4975  -15.2708   24.9206 C   0  0  0  0  0  0  0  0  0  0  0  0
    6.4592  -15.1731   23.9588 C   0  0  0  0  0  0  0  0  0  0  0  0
    5.9834  -13.9243   23.9308 N   0  0  0  0  0  0  0  0  0  0  0  0
    6.6516  -13.1664   24.8305 C   0  0  0  0  0  0  0  0  0  0  0  0
    6.5356  -11.8352   25.1694 C   0  0  0  0  0  0  0  0  0  0  0  0
    7.3776  -11.3267   26.1429 C   0  0  0  0  0  0  0  0  0  0  0  0
    8.3088  -12.1191   26.7620 C   0  0  0  0  0  0  0  0  0  0  0  0
    8.3858  -13.4335   26.3918 C   0  0  0  0  0  0  0  0  0  0  0  0
    7.5861  -14.0115   25.4361 C   0  0  0  0  0  0  0  0  0  0  0  0
   10.3452  -17.7859   24.9926 C   0  0  0  0  0  0  0  0  0  0  0  0
   10.2913  -18.9846   24.6132 O   0  0  0  0  0  0  0  0  0  0  0  0
   11.3214  -17.4692   26.0147 N   0  0  0  0  0  0  0  0  0  0  0  0
   12.1461  -18.4658   26.6553 C   0  0  1  0  0  0  0  0  0  0  0  0
   13.0972  -17.7223   27.6044 C   0  0  0  0  0  0  0  0  0  0  0  0
   13.9494  -18.5927   28.4024 C   0  0  0  0  0  0  0  0  0  0  0  0
   13.8513  -19.9785   28.5594 C   0  0  0  0  0  0  0  0  0  0  0  0
   14.8145  -20.3952   29.3683 N   0  0  0  0  0  0  0  0  0  0  0  0
   15.5391  -19.3293   29.7456 C   0  0  0  0  0  0  0  0  0  0  0  0
   14.9996  -18.2561   29.1517 N   0  0  0  0  0  0  0  0  0  0  0  0
   11.3311  -19.3051   27.6103 C   0  0  0  0  0  0  0  0  0  0  0  0
   10.1086  -18.7978   28.0007 O   0  0  0  0  0  0  0  0  0  0  0  0
   11.7460  -20.3924   28.0206 O   0  0  0  0  0  0  0  0  0  0  0  0
  2  3  2  0
  2  1  1  0
  4  2  1  0
  5  4  1  0
  6  5  1  0
  6  7  1  1
  8  9  2  0
  8  6  1  0
 10  8  1  0
 11 12  1  1
 11 10  1  0
 12 13  1  0
 13 21  1  0
 13 14  2  0
 14 15  1  0
 16 15  1  0
 16 17  2  0
 18 17  1  0
 19 18  2  0
 20 21  2  0
 20 19  1  0
 21 16  1  0
 22 11  1  0
 23 22  2  0
 24 22  1  0
 25 24  1  0
 25 26  1  1
 26 27  1  0
 27 28  2  0
 28 29  1  0
 30 29  1  0
 31 27  1  0
 31 30  2  0
 32 25  1  0
 32 33  1  0
 34 32  2  0
M  END
$$$$
