QWH.pdb
     RDKit          3D

 34 36  0  0  1  0  0  0  0  0999 V2000
   12.7489  -20.2059   19.5338 N   0  0  0  0  0  0  0  0  0  0  0  0
   11.8581  -20.3889   18.4301 C   0  0  0  0  0  0  0  0  0  0  0  0
   12.1127  -21.2596   17.5736 O   0  0  0  0  0  0  0  0  0  0  0  0
   10.6402  -19.5504   18.3029 C   0  0  0  0  0  0  0  0  0  0  0  0
   10.5211  -18.6639   19.5194 C   0  0  0  0  0  0  0  0  0  0  0  0
    9.5385  -17.5398   19.3054 C   0  0  2  0  0  0  0  0  0  0  0  0
    9.9945  -16.6747   18.2540 N   0  0  0  0  0  0  0  0  0  0  0  0
    9.4621  -16.7548   20.5705 C   0  0  0  0  0  0  0  0  0  0  0  0
   10.4330  -16.0344   20.9225 O   0  0  0  0  0  0  0  0  0  0  0  0
    8.3245  -16.7782   21.4181 N   0  0  0  0  0  0  0  0  0  0  0  0
    8.3028  -16.1755   22.7271 C   0  0  1  0  0  0  0  0  0  0  0  0
    6.9394  -15.6851   23.0948 C   0  0  0  0  0  0  0  0  0  0  0  0
    6.8088  -15.1039   24.4429 C   0  0  0  0  0  0  0  0  0  0  0  0
    6.5426  -15.8518   25.6186 C   0  0  0  0  0  0  0  0  0  0  0  0
    6.5040  -15.0352   26.6763 N   0  0  0  0  0  0  0  0  0  0  0  0
    6.7316  -13.7639   26.2734 C   0  0  0  0  0  0  0  0  0  0  0  0
    6.7881  -12.5790   26.9757 C   0  0  0  0  0  0  0  0  0  0  0  0
    7.0381  -11.4102   26.2782 C   0  0  0  0  0  0  0  0  0  0  0  0
    7.2264  -11.4189   24.9207 C   0  0  0  0  0  0  0  0  0  0  0  0
    7.1611  -12.6191   24.2680 C   0  0  0  0  0  0  0  0  0  0  0  0
    6.9184  -13.8200   24.8891 C   0  0  0  0  0  0  0  0  0  0  0  0
    8.9633  -16.9343   23.7905 C   0  0  0  0  0  0  0  0  0  0  0  0
    8.6367  -18.1088   24.1027 O   0  0  0  0  0  0  0  0  0  0  0  0
   10.0551  -16.3417   24.5355 N   0  0  0  0  0  0  0  0  0  0  0  0
   10.8131  -17.0602   25.5320 C   0  0  1  0  0  0  0  0  0  0  0  0
   12.2341  -16.4779   25.5245 C   0  0  0  0  0  0  0  0  0  0  0  0
   13.0117  -16.8098   24.3388 C   0  0  0  0  0  0  0  0  0  0  0  0
   12.6284  -17.6110   23.2591 C   0  0  0  0  0  0  0  0  0  0  0  0
   13.6211  -17.6669   22.3832 N   0  0  0  0  0  0  0  0  0  0  0  0
   14.6404  -16.9295   22.8532 C   0  0  0  0  0  0  0  0  0  0  0  0
   14.2503  -16.4237   24.0311 N   0  0  0  0  0  0  0  0  0  0  0  0
   10.3333  -16.7180   26.9224 C   0  0  0  0  0  0  0  0  0  0  0  0
    9.2838  -15.8272   27.0196 O   0  0  0  0  0  0  0  0  0  0  0  0
   10.8614  -17.2137   27.9215 O   0  0  0  0  0  0  0  0  0  0  0  0
  2  3  2  0
  2  1  1  0
  4  2  1  0
  5  4  1  0
  6  5  1  0
  6  7  1  6
  8  9  2  0
  8  6  1  0
 10  8  1  0
 11 12  1  1
 11 10  1  0
 12 13  1  0
 13 21  1  0
 13 14  2  0
 14 15  1  0
 16 15  1  0
 16 17  2  0
 18 17  1  0
 19 18  2  0
 20 21  2  0
 20 19  1  0
 21 16  1  0
 22 11  1  0
 23 22  2  0
 24 22  1  0
 25 24  1  0
 25 26  1  1
 26 27  1  0
 27 28  2  0
 28 29  1  0
 30 29  1  0
 31 27  1  0
 31 30  2  0
 32 25  1  0
 32 33  1  0
 34 32  2  0
M  END
$$$$
