QWH.pdb
     RDKit          3D

 34 36  0  0  1  0  0  0  0  0999 V2000
    8.4210  -12.3209   19.2428 N   0  0  0  0  0  0  0  0  0  0  0  0
    8.4691  -13.4026   18.3086 C   0  0  0  0  0  0  0  0  0  0  0  0
    8.0892  -13.2173   17.1347 O   0  0  0  0  0  0  0  0  0  0  0  0
    8.9664  -14.7357   18.7305 C   0  0  0  0  0  0  0  0  0  0  0  0
    9.1662  -14.7379   20.2271 C   0  0  0  0  0  0  0  0  0  0  0  0
    9.6692  -16.0687   20.7281 C   0  0  2  0  0  0  0  0  0  0  0  0
    8.7650  -17.1169   20.3471 N   0  0  0  0  0  0  0  0  0  0  0  0
    9.7249  -16.0033   22.2165 C   0  0  0  0  0  0  0  0  0  0  0  0
   10.4587  -15.1498   22.7808 O   0  0  0  0  0  0  0  0  0  0  0  0
    8.9757  -16.8740   23.0493 N   0  0  0  0  0  0  0  0  0  0  0  0
    9.0054  -16.8091   24.4888 C   0  0  1  0  0  0  0  0  0  0  0  0
    7.6652  -16.4773   25.0617 C   0  0  0  0  0  0  0  0  0  0  0  0
    7.1456  -15.1355   24.7427 C   0  0  0  0  0  0  0  0  0  0  0  0
    6.5226  -14.7849   23.5174 C   0  0  0  0  0  0  0  0  0  0  0  0
    6.1479  -13.5022   23.5502 N   0  0  0  0  0  0  0  0  0  0  0  0
    6.4881  -12.9630   24.7435 C   0  0  0  0  0  0  0  0  0  0  0  0
    6.3229  -11.6926   25.2526 C   0  0  0  0  0  0  0  0  0  0  0  0
    6.7873  -11.4281   26.5292 C   0  0  0  0  0  0  0  0  0  0  0  0
    7.3990  -12.3991   27.2784 C   0  0  0  0  0  0  0  0  0  0  0  0
    7.5398  -13.6441   26.7301 C   0  0  0  0  0  0  0  0  0  0  0  0
    7.1052  -13.9841   25.4721 C   0  0  0  0  0  0  0  0  0  0  0  0
    9.6769  -17.9207   25.1644 C   0  0  0  0  0  0  0  0  0  0  0  0
    9.2654  -19.1087   25.1100 O   0  0  0  0  0  0  0  0  0  0  0  0
   10.8802  -17.6826   25.9346 N   0  0  0  0  0  0  0  0  0  0  0  0
   11.5565  -18.7153   26.6828 C   0  0  1  0  0  0  0  0  0  0  0  0
   13.0548  -18.3790   26.6634 C   0  0  0  0  0  0  0  0  0  0  0  0
   13.6620  -18.4236   25.3405 C   0  0  0  0  0  0  0  0  0  0  0  0
   13.2870  -19.2162   24.2516 C   0  0  0  0  0  0  0  0  0  0  0  0
   14.0916  -18.9629   23.2298 N   0  0  0  0  0  0  0  0  0  0  0  0
   14.9801  -18.0317   23.6133 C   0  0  0  0  0  0  0  0  0  0  0  0
   14.7017  -17.7226   24.8871 N   0  0  0  0  0  0  0  0  0  0  0  0
   11.2250  -18.6188   28.1530 C   0  0  0  0  0  0  0  0  0  0  0  0
   10.4073  -17.5773   28.5420 O   0  0  0  0  0  0  0  0  0  0  0  0
   11.6700  -19.4352   28.9642 O   0  0  0  0  0  0  0  0  0  0  0  0
  2  3  2  0
  2  1  1  0
  4  2  1  0
  5  4  1  0
  6  5  1  0
  6  7  1  1
  8  9  2  0
  8  6  1  0
 10  8  1  0
 11 12  1  1
 11 10  1  0
 12 13  1  0
 13 21  1  0
 13 14  2  0
 14 15  1  0
 16 15  1  0
 16 17  2  0
 18 17  1  0
 19 18  2  0
 20 21  2  0
 20 19  1  0
 21 16  1  0
 22 11  1  0
 23 22  2  0
 24 22  1  0
 25 24  1  0
 25 26  1  1
 26 27  1  0
 27 28  2  0
 28 29  1  0
 30 29  1  0
 31 27  1  0
 31 30  2  0
 32 25  1  0
 32 33  1  0
 34 32  2  0
M  END
$$$$
