QWH.pdb
     RDKit          3D

 34 36  0  0  1  0  0  0  0  0999 V2000
   10.0579  -21.3343   19.9895 N   0  0  0  0  0  0  0  0  0  0  0  0
   10.6517  -20.3809   19.1042 C   0  0  0  0  0  0  0  0  0  0  0  0
   11.1068  -20.7624   18.0070 O   0  0  0  0  0  0  0  0  0  0  0  0
   10.7269  -18.9487   19.4861 C   0  0  0  0  0  0  0  0  0  0  0  0
   10.1584  -18.7769   20.8744 C   0  0  0  0  0  0  0  0  0  0  0  0
    9.4652  -17.4476   21.0405 C   0  0  2  0  0  0  0  0  0  0  0  0
   10.0732  -16.4609   20.1929 N   0  0  0  0  0  0  0  0  0  0  0  0
    9.6281  -17.0235   22.4604 C   0  0  0  0  0  0  0  0  0  0  0  0
   10.6532  -16.3817   22.8107 O   0  0  0  0  0  0  0  0  0  0  0  0
    8.6645  -17.3127   23.4608 N   0  0  0  0  0  0  0  0  0  0  0  0
    8.8681  -17.0278   24.8589 C   0  0  1  0  0  0  0  0  0  0  0  0
    7.6557  -16.4211   25.4886 C   0  0  0  0  0  0  0  0  0  0  0  0
    7.2769  -15.0852   24.9947 C   0  0  0  0  0  0  0  0  0  0  0  0
    6.6795  -14.8341   23.7327 C   0  0  0  0  0  0  0  0  0  0  0  0
    6.4427  -13.5257   23.5956 N   0  0  0  0  0  0  0  0  0  0  0  0
    6.8526  -12.8738   24.7080 C   0  0  0  0  0  0  0  0  0  0  0  0
    6.8287  -11.5373   25.0450 C   0  0  0  0  0  0  0  0  0  0  0  0
    7.3341  -11.1585   26.2763 C   0  0  0  0  0  0  0  0  0  0  0  0
    7.8489  -12.0822   27.1481 C   0  0  0  0  0  0  0  0  0  0  0  0
    7.8507  -13.3963   26.7689 C   0  0  0  0  0  0  0  0  0  0  0  0
    7.3672  -13.8503   25.5659 C   0  0  0  0  0  0  0  0  0  0  0  0
    9.4671  -18.1046   25.6494 C   0  0  0  0  0  0  0  0  0  0  0  0
    8.9096  -19.2183   25.8292 O   0  0  0  0  0  0  0  0  0  0  0  0
   10.7664  -17.9198   26.2621 N   0  0  0  0  0  0  0  0  0  0  0  0
   11.4347  -18.9487   27.0226 C   0  0  1  0  0  0  0  0  0  0  0  0
   12.9315  -18.6056   27.0281 C   0  0  0  0  0  0  0  0  0  0  0  0
   13.5835  -18.7461   25.7336 C   0  0  0  0  0  0  0  0  0  0  0  0
   13.0555  -19.3008   24.5638 C   0  0  0  0  0  0  0  0  0  0  0  0
   13.9668  -19.2430   23.6036 N   0  0  0  0  0  0  0  0  0  0  0  0
   15.0726  -18.6694   24.1055 C   0  0  0  0  0  0  0  0  0  0  0  0
   14.8180  -18.3791   25.3886 N   0  0  0  0  0  0  0  0  0  0  0  0
   11.0780  -18.8523   28.4870 C   0  0  0  0  0  0  0  0  0  0  0  0
   10.2471  -17.8158   28.8606 O   0  0  0  0  0  0  0  0  0  0  0  0
   11.5146  -19.6648   29.3067 O   0  0  0  0  0  0  0  0  0  0  0  0
  2  3  2  0
  2  1  1  0
  4  2  1  0
  5  4  1  0
  6  5  1  0
  6  7  1  6
  8  9  2  0
  8  6  1  0
 10  8  1  0
 11 12  1  1
 11 10  1  0
 12 13  1  0
 13 21  1  0
 13 14  2  0
 14 15  1  0
 16 15  1  0
 16 17  2  0
 18 17  1  0
 19 18  2  0
 20 21  2  0
 20 19  1  0
 21 16  1  0
 22 11  1  0
 23 22  2  0
 24 22  1  0
 25 24  1  0
 25 26  1  1
 26 27  1  0
 27 28  2  0
 28 29  1  0
 30 29  1  0
 31 27  1  0
 31 30  2  0
 32 25  1  0
 32 33  1  0
 34 32  2  0
M  END
$$$$
