YLC.pdb
     RDKit          3D

 27 27  0  0  1  0  0  0  0  0999 V2000
   17.9740  -20.7887  -15.7772 O   0  0  0  0  0  0  0  0  0  0  0  0
   18.3747  -19.4581  -15.7849 C   0  0  0  0  0  0  0  0  0  0  0  0
   19.0644  -18.9539  -14.7127 C   0  0  0  0  0  0  0  0  0  0  0  0
   19.4665  -17.6132  -14.7241 C   0  0  0  0  0  0  0  0  0  0  0  0
   19.1758  -16.8060  -15.7959 C   0  0  0  0  0  0  0  0  0  0  0  0
   19.5974  -15.4007  -15.7996 C   0  0  0  0  0  0  0  0  0  0  0  0
   20.7723  -15.2760  -16.7745 C   0  0  2  0  0  0  0  0  0  0  0  0
   21.8872  -15.9721  -16.1618 N   0  0  0  0  0  0  0  0  0  0  0  0
   21.0642  -13.8253  -16.9208 C   0  0  0  0  0  0  0  0  0  0  0  0
   21.7641  -13.2154  -16.0777 O   0  0  0  0  0  0  0  0  0  0  0  0
   18.4859  -17.3280  -16.8575 C   0  0  0  0  0  0  0  0  0  0  0  0
   18.0763  -18.6525  -16.8715 C   0  0  0  0  0  0  0  0  0  0  0  0
   22.8673  -11.6905  -21.4470 C   0  0  0  0  0  0  0  0  0  0  0  0
   22.5749  -11.7818  -19.9527 C   0  0  1  0  0  0  0  0  0  0  0  0
   23.3355  -10.5688  -19.3650 C   0  0  0  0  0  0  0  0  0  0  0  0
   21.1436  -11.5390  -19.6458 C   0  0  0  0  0  0  0  0  0  0  0  0
   20.7411  -11.6800  -18.2007 C   0  0  2  0  0  0  0  0  0  0  0  0
   20.5442  -13.1369  -18.0229 N   0  0  0  0  0  0  0  0  0  0  0  0
   19.4906  -11.0262  -17.8290 C   0  0  0  0  0  0  0  0  0  0  0  0
   18.3979  -11.5178  -18.2829 O   0  0  0  0  0  0  0  0  0  0  0  0
   19.3604   -9.8830  -17.0005 N   0  0  0  0  0  0  0  0  0  0  0  0
   18.0283   -9.3607  -16.7524 C   0  0  1  0  0  0  0  0  0  0  0  0
   17.7453   -9.4263  -15.2693 C   0  0  0  0  0  0  0  0  0  0  0  0
   16.2709   -8.4677  -14.8367 S   0  0  0  0  0  0  0  0  0  0  0  0
   17.9720   -7.9659  -17.2479 C   0  0  0  0  0  0  0  0  0  0  0  0
   18.9818   -7.2122  -17.1867 O   0  0  0  0  0  0  0  0  0  0  0  0
   16.8206   -7.4264  -17.7970 O   0  0  0  0  0  0  0  0  0  0  0  0
  2  3  2  0
  2  1  1  0
  4  3  1  0
  5  4  2  0
  6  5  1  0
  7  9  1  0
  7  6  1  0
  7  8  1  1
  9 10  2  0
 11  5  1  0
 11 12  2  0
 12  2  1  0
 14 13  1  6
 14 16  1  0
 15 14  1  0
 17 16  1  6
 18  9  1  0
 18 17  1  0
 19 21  1  0
 19 17  1  0
 20 19  2  0
 22 21  1  0
 22 23  1  1
 23 24  1  0
 25 22  1  0
 26 25  2  0
 27 25  1  0
M  END
$$$$
