YLC.pdb
     RDKit          3D

 27 27  0  0  1  0  0  0  0  0999 V2000
   12.4237  -13.8490   -9.8319 O   0  0  0  0  0  0  0  0  0  0  0  0
   13.0899  -12.6811  -10.1826 C   0  0  0  0  0  0  0  0  0  0  0  0
   14.4607  -12.6568  -10.1753 C   0  0  0  0  0  0  0  0  0  0  0  0
   15.1283  -11.4786  -10.5293 C   0  0  0  0  0  0  0  0  0  0  0  0
   14.4226  -10.3548  -10.8814 C   0  0  0  0  0  0  0  0  0  0  0  0
   15.1289   -9.1222  -11.2481 C   0  0  0  0  0  0  0  0  0  0  0  0
   15.5290   -8.4178   -9.9481 C   0  0  2  0  0  0  0  0  0  0  0  0
   14.3510   -7.7077   -9.4889 N   0  0  0  0  0  0  0  0  0  0  0  0
   16.6251   -7.4712  -10.2857 C   0  0  0  0  0  0  0  0  0  0  0  0
   16.3823   -6.2807  -10.5964 O   0  0  0  0  0  0  0  0  0  0  0  0
   13.0538  -10.3987  -10.8826 C   0  0  0  0  0  0  0  0  0  0  0  0
   12.3682  -11.5530  -10.5363 C   0  0  0  0  0  0  0  0  0  0  0  0
   21.3984   -5.6015  -10.8223 C   0  0  0  0  0  0  0  0  0  0  0  0
   21.5289   -6.8684   -9.9828 C   0  0  1  0  0  0  0  0  0  0  0  0
   21.9391   -6.3333   -8.5897 C   0  0  0  0  0  0  0  0  0  0  0  0
   20.2230   -7.5432   -9.7795 C   0  0  0  0  0  0  0  0  0  0  0  0
   19.0846   -7.0596  -10.6401 C   0  0  2  0  0  0  0  0  0  0  0  0
   17.9481   -7.9264  -10.2530 N   0  0  0  0  0  0  0  0  0  0  0  0
   19.2744   -7.2122  -12.0788 C   0  0  0  0  0  0  0  0  0  0  0  0
   20.0320   -6.3699  -12.6773 O   0  0  0  0  0  0  0  0  0  0  0  0
   18.6961   -8.2170  -12.8952 N   0  0  0  0  0  0  0  0  0  0  0  0
   19.0043   -8.2127  -14.3144 C   0  0  1  0  0  0  0  0  0  0  0  0
   19.2307   -9.6357  -14.7703 C   0  0  0  0  0  0  0  0  0  0  0  0
   19.3774   -9.7348  -16.5726 S   0  0  0  0  0  0  0  0  0  0  0  0
   17.8710   -7.5916  -15.0381 C   0  0  0  0  0  0  0  0  0  0  0  0
   16.6798   -7.7833  -14.6695 O   0  0  0  0  0  0  0  0  0  0  0  0
   18.0611   -6.7784  -16.1431 O   0  0  0  0  0  0  0  0  0  0  0  0
  2  3  2  0
  2  1  1  0
  4  3  1  0
  5  4  2  0
  6  5  1  0
  7  9  1  0
  7  6  1  0
  7  8  1  6
  9 10  2  0
 11  5  1  0
 11 12  2  0
 12  2  1  0
 14 13  1  6
 14 16  1  0
 15 14  1  0
 17 16  1  1
 18  9  1  0
 18 17  1  0
 19 21  1  0
 19 17  1  0
 20 19  2  0
 22 21  1  0
 22 23  1  6
 23 24  1  0
 25 22  1  0
 26 25  2  0
 27 25  1  0
M  END
$$$$
