YLC.pdb
     RDKit          3D

 27 27  0  0  1  0  0  0  0  0999 V2000
   18.4066  -14.2231  -24.7277 O   0  0  0  0  0  0  0  0  0  0  0  0
   18.6317  -13.6377  -23.4877 C   0  0  0  0  0  0  0  0  0  0  0  0
   18.1374  -14.2368  -22.3579 C   0  0  0  0  0  0  0  0  0  0  0  0
   18.3664  -13.6443  -21.1106 C   0  0  0  0  0  0  0  0  0  0  0  0
   19.0783  -12.4744  -21.0132 C   0  0  0  0  0  0  0  0  0  0  0  0
   19.3116  -11.8572  -19.7028 C   0  0  0  0  0  0  0  0  0  0  0  0
   20.7449  -12.1973  -19.2832 C   0  0  2  0  0  0  0  0  0  0  0  0
   20.7977  -13.6395  -19.1411 N   0  0  0  0  0  0  0  0  0  0  0  0
   20.9885  -11.5232  -17.9803 C   0  0  0  0  0  0  0  0  0  0  0  0
   20.1529  -11.5915  -17.0476 O   0  0  0  0  0  0  0  0  0  0  0  0
   19.5639  -11.8912  -22.1531 C   0  0  0  0  0  0  0  0  0  0  0  0
   19.3514  -12.4574  -23.4008 C   0  0  0  0  0  0  0  0  0  0  0  0
   23.9747  -10.0491  -13.7997 C   0  0  0  0  0  0  0  0  0  0  0  0
   24.5408   -9.6306  -15.1529 C   0  0  1  0  0  0  0  0  0  0  0  0
   26.0067  -10.1235  -15.0949 C   0  0  0  0  0  0  0  0  0  0  0  0
   23.9167  -10.3736  -16.2756 C   0  0  0  0  0  0  0  0  0  0  0  0
   22.4656  -10.0719  -16.5463 C   0  0  2  0  0  0  0  0  0  0  0  0
   22.1746  -10.8023  -17.8012 N   0  0  0  0  0  0  0  0  0  0  0  0
   22.1478   -8.6670  -16.7802 C   0  0  0  0  0  0  0  0  0  0  0  0
   22.6079   -8.1159  -17.8415 O   0  0  0  0  0  0  0  0  0  0  0  0
   21.3665   -7.8363  -15.9377 N   0  0  0  0  0  0  0  0  0  0  0  0
   21.2137   -6.4382  -16.2994 C   0  0  1  0  0  0  0  0  0  0  0  0
   19.7519   -6.0658  -16.2075 C   0  0  0  0  0  0  0  0  0  0  0  0
   19.5271   -4.2689  -16.2261 S   0  0  0  0  0  0  0  0  0  0  0  0
   22.0340   -5.6226  -15.3742 C   0  0  0  0  0  0  0  0  0  0  0  0
   22.6413   -4.5932  -15.7779 O   0  0  0  0  0  0  0  0  0  0  0  0
   22.1730   -5.9463  -14.0347 O   0  0  0  0  0  0  0  0  0  0  0  0
  2  3  2  0
  2  1  1  0
  4  3  1  0
  5  4  2  0
  6  5  1  0
  7  9  1  0
  7  6  1  0
  7  8  1  1
  9 10  2  0
 11  5  1  0
 11 12  2  0
 12  2  1  0
 14 13  1  1
 14 16  1  0
 15 14  1  0
 17 16  1  6
 18  9  1  0
 18 17  1  0
 19 21  1  0
 19 17  1  0
 20 19  2  0
 22 21  1  0
 22 23  1  1
 23 24  1  0
 25 22  1  0
 26 25  2  0
 27 25  1  0
M  END
$$$$
