YLC.pdb
     RDKit          3D

 27 27  0  0  1  0  0  0  0  0999 V2000
   19.8464  -16.5218  -23.8054 O   0  0  0  0  0  0  0  0  0  0  0  0
   20.0146  -15.7463  -22.6647 C   0  0  0  0  0  0  0  0  0  0  0  0
   21.0908  -14.9018  -22.5744 C   0  0  0  0  0  0  0  0  0  0  0  0
   21.2569  -14.1221  -21.4239 C   0  0  0  0  0  0  0  0  0  0  0  0
   20.3541  -14.1980  -20.3923 C   0  0  0  0  0  0  0  0  0  0  0  0
   20.5364  -13.3803  -19.1879 C   0  0  0  0  0  0  0  0  0  0  0  0
   21.6595  -14.0185  -18.3648 C   0  0  2  0  0  0  0  0  0  0  0  0
   21.1188  -15.2494  -17.8211 N   0  0  0  0  0  0  0  0  0  0  0  0
   22.0021  -13.0609  -17.2800 C   0  0  0  0  0  0  0  0  0  0  0  0
   21.3984  -13.0815  -16.1809 O   0  0  0  0  0  0  0  0  0  0  0  0
   19.2856  -15.0476  -20.5012 C   0  0  0  0  0  0  0  0  0  0  0  0
   19.0977  -15.8306  -21.6298 C   0  0  0  0  0  0  0  0  0  0  0  0
   25.7833  -10.5553  -14.3792 C   0  0  0  0  0  0  0  0  0  0  0  0
   25.6364  -10.0495  -15.8108 C   0  0  1  0  0  0  0  0  0  0  0  0
   27.0948  -10.0103  -16.3273 C   0  0  0  0  0  0  0  0  0  0  0  0
   24.9337  -11.0249  -16.6806 C   0  0  0  0  0  0  0  0  0  0  0  0
   23.4538  -11.1798  -16.4443 C   0  0  2  0  0  0  0  0  0  0  0  0
   23.0181  -12.1236  -17.4989 N   0  0  0  0  0  0  0  0  0  0  0  0
   22.6613   -9.9641  -16.5979 C   0  0  0  0  0  0  0  0  0  0  0  0
   22.6543   -9.3928  -17.7447 O   0  0  0  0  0  0  0  0  0  0  0  0
   21.8836   -9.3415  -15.5891 N   0  0  0  0  0  0  0  0  0  0  0  0
   21.1524   -8.1341  -15.9304 C   0  0  1  0  0  0  0  0  0  0  0  0
   19.6869   -8.3479  -15.6294 C   0  0  0  0  0  0  0  0  0  0  0  0
   19.0827   -9.8916  -16.3587 S   0  0  0  0  0  0  0  0  0  0  0  0
   21.7046   -7.0118  -15.1371 C   0  0  0  0  0  0  0  0  0  0  0  0
   22.6483   -7.1945  -14.3200 O   0  0  0  0  0  0  0  0  0  0  0  0
   21.2176   -5.7202  -15.2521 O   0  0  0  0  0  0  0  0  0  0  0  0
  2  3  2  0
  2  1  1  0
  4  3  1  0
  5  4  2  0
  6  5  1  0
  7  9  1  0
  7  6  1  0
  7  8  1  1
  9 10  2  0
 11  5  1  0
 11 12  2  0
 12  2  1  0
 14 13  1  1
 14 16  1  0
 15 14  1  0
 17 16  1  6
 18  9  1  0
 18 17  1  0
 19 21  1  0
 19 17  1  0
 20 19  2  0
 22 21  1  0
 22 23  1  1
 23 24  1  0
 25 22  1  0
 26 25  2  0
 27 25  1  0
M  END
$$$$
