YLC.pdb
     RDKit          3D

 27 27  0  0  1  0  0  0  0  0999 V2000
   20.6529  -36.9845  -18.4649 O   0  0  0  0  0  0  0  0  0  0  0  0
   21.3258  -36.7401  -17.2739 C   0  0  0  0  0  0  0  0  0  0  0  0
   22.5415  -37.3333  -17.0507 C   0  0  0  0  0  0  0  0  0  0  0  0
   23.2165  -37.0846  -15.8500 C   0  0  0  0  0  0  0  0  0  0  0  0
   22.6714  -36.2556  -14.9010 C   0  0  0  0  0  0  0  0  0  0  0  0
   23.3829  -36.0021  -13.6432 C   0  0  0  0  0  0  0  0  0  0  0  0
   24.0065  -34.6065  -13.7412 C   0  0  2  0  0  0  0  0  0  0  0  0
   25.1863  -34.7437  -14.5733 N   0  0  0  0  0  0  0  0  0  0  0  0
   24.3724  -34.1954  -12.3598 C   0  0  0  0  0  0  0  0  0  0  0  0
   25.5699  -34.1579  -11.9891 O   0  0  0  0  0  0  0  0  0  0  0  0
   21.4560  -35.6725  -15.1424 C   0  0  0  0  0  0  0  0  0  0  0  0
   20.7668  -35.9019  -16.3233 C   0  0  0  0  0  0  0  0  0  0  0  0
   22.5936  -29.6321   -9.8718 C   0  0  0  0  0  0  0  0  0  0  0  0
   23.5365  -30.8305   -9.9112 C   0  0  1  0  0  0  0  0  0  0  0  0
   24.2177  -30.7952   -8.5219 C   0  0  0  0  0  0  0  0  0  0  0  0
   22.8030  -32.1195   -9.9606 C   0  0  0  0  0  0  0  0  0  0  0  0
   23.6480  -33.3596  -10.0969 C   0  0  2  0  0  0  0  0  0  0  0  0
   23.3550  -33.8457  -11.4646 N   0  0  0  0  0  0  0  0  0  0  0  0
   23.3273  -34.4441   -9.1747 C   0  0  0  0  0  0  0  0  0  0  0  0
   22.1758  -34.9970   -9.2751 O   0  0  0  0  0  0  0  0  0  0  0  0
   24.1766  -34.9577   -8.1623 N   0  0  0  0  0  0  0  0  0  0  0  0
   23.6895  -36.0561   -7.3467 C   0  0  1  0  0  0  0  0  0  0  0  0
   24.8701  -36.7608   -6.7193 C   0  0  0  0  0  0  0  0  0  0  0  0
   26.1538  -37.1160   -7.9464 S   0  0  0  0  0  0  0  0  0  0  0  0
   22.7822  -35.5059   -6.3132 C   0  0  0  0  0  0  0  0  0  0  0  0
   22.9583  -34.3491   -5.8415 O   0  0  0  0  0  0  0  0  0  0  0  0
   21.7074  -36.2264   -5.8192 O   0  0  0  0  0  0  0  0  0  0  0  0
  2  3  2  0
  2  1  1  0
  4  3  1  0
  5  4  2  0
  6  5  1  0
  7  9  1  0
  7  6  1  0
  7  8  1  6
  9 10  2  0
 11  5  1  0
 11 12  2  0
 12  2  1  0
 14 13  1  1
 14 16  1  0
 15 14  1  0
 17 16  1  1
 18  9  1  0
 18 17  1  0
 19 21  1  0
 19 17  1  0
 20 19  2  0
 22 21  1  0
 22 23  1  1
 23 24  1  0
 25 22  1  0
 26 25  2  0
 27 25  1  0
M  END
$$$$
