YLC.pdb
     RDKit          3D

 27 27  0  0  1  0  0  0  0  0999 V2000
   19.0560  -18.0487  -19.5267 O   0  0  0  0  0  0  0  0  0  0  0  0
   19.6707  -17.0180  -18.8261 C   0  0  0  0  0  0  0  0  0  0  0  0
   18.9798  -15.8586  -18.5852 C   0  0  0  0  0  0  0  0  0  0  0  0
   19.6022  -14.8227  -17.8790 C   0  0  0  0  0  0  0  0  0  0  0  0
   20.8922  -14.9604  -17.4296 C   0  0  0  0  0  0  0  0  0  0  0  0
   21.5395  -13.8691  -16.6930 C   0  0  0  0  0  0  0  0  0  0  0  0
   21.2968  -12.5769  -17.4789 C   0  0  2  0  0  0  0  0  0  0  0  0
   22.1905  -12.6188  -18.6202 N   0  0  0  0  0  0  0  0  0  0  0  0
   21.6384  -11.4470  -16.5746 C   0  0  0  0  0  0  0  0  0  0  0  0
   21.0669  -11.3057  -15.4673 O   0  0  0  0  0  0  0  0  0  0  0  0
   21.5659  -16.1260  -17.6803 C   0  0  0  0  0  0  0  0  0  0  0  0
   20.9726  -17.1675  -18.3771 C   0  0  0  0  0  0  0  0  0  0  0  0
   26.8139  -10.2329  -16.0926 C   0  0  0  0  0  0  0  0  0  0  0  0
   25.3300  -10.4026  -15.7829 C   0  0  1  0  0  0  0  0  0  0  0  0
   25.2658  -10.2461  -14.2445 C   0  0  0  0  0  0  0  0  0  0  0  0
   24.5127   -9.2910  -16.3291 C   0  0  0  0  0  0  0  0  0  0  0  0
   23.0246   -9.3943  -16.1167 C   0  0  2  0  0  0  0  0  0  0  0  0
   22.6170  -10.5301  -16.9751 N   0  0  0  0  0  0  0  0  0  0  0  0
   22.2468   -8.2336  -16.5373 C   0  0  0  0  0  0  0  0  0  0  0  0
   22.1181   -8.0203  -17.7942 O   0  0  0  0  0  0  0  0  0  0  0  0
   21.6066   -7.3026  -15.6807 N   0  0  0  0  0  0  0  0  0  0  0  0
   20.9420   -6.1592  -16.2805 C   0  0  1  0  0  0  0  0  0  0  0  0
   19.5695   -6.0125  -15.6650 C   0  0  0  0  0  0  0  0  0  0  0  0
   18.7835   -4.4609  -16.1694 S   0  0  0  0  0  0  0  0  0  0  0  0
   21.7701   -4.9554  -16.0375 C   0  0  0  0  0  0  0  0  0  0  0  0
   22.4291   -4.8232  -14.9700 O   0  0  0  0  0  0  0  0  0  0  0  0
   21.8609   -3.9267  -16.9606 O   0  0  0  0  0  0  0  0  0  0  0  0
  2  3  2  0
  2  1  1  0
  4  3  1  0
  5  4  2  0
  6  5  1  0
  7  9  1  0
  7  6  1  0
  7  8  1  6
  9 10  2  0
 11  5  1  0
 11 12  2  0
 12  2  1  0
 14 13  1  6
 14 16  1  0
 15 14  1  0
 17 16  1  6
 18  9  1  0
 18 17  1  0
 19 21  1  0
 19 17  1  0
 20 19  2  0
 22 21  1  0
 22 23  1  1
 23 24  1  0
 25 22  1  0
 26 25  2  0
 27 25  1  0
M  END
$$$$
