YLC.pdb
     RDKit          3D

 27 27  0  0  1  0  0  0  0  0999 V2000
   26.2691  -26.0828  -16.1034 O   0  0  0  0  0  0  0  0  0  0  0  0
   27.2285  -26.8824  -16.7126 C   0  0  0  0  0  0  0  0  0  0  0  0
   27.3331  -28.2023  -16.3567 C   0  0  0  0  0  0  0  0  0  0  0  0
   28.3006  -29.0047  -16.9726 C   0  0  0  0  0  0  0  0  0  0  0  0
   29.1397  -28.4807  -17.9247 C   0  0  0  0  0  0  0  0  0  0  0  0
   30.1537  -29.3269  -18.5637 C   0  0  0  0  0  0  0  0  0  0  0  0
   31.3922  -29.3199  -17.6624 C   0  0  2  0  0  0  0  0  0  0  0  0
   32.0552  -28.0502  -17.8890 N   0  0  0  0  0  0  0  0  0  0  0  0
   32.2507  -30.4548  -18.0939 C   0  0  0  0  0  0  0  0  0  0  0  0
   33.2915  -30.2627  -18.7667 O   0  0  0  0  0  0  0  0  0  0  0  0
   29.0197  -27.1601  -18.2666 C   0  0  0  0  0  0  0  0  0  0  0  0
   28.0699  -26.3436  -17.6720 C   0  0  0  0  0  0  0  0  0  0  0  0
   33.5517  -34.4054  -14.5224 C   0  0  0  0  0  0  0  0  0  0  0  0
   33.7706  -33.5845  -15.7893 C   0  0  1  0  0  0  0  0  0  0  0  0
   35.0040  -34.2549  -16.4408 C   0  0  0  0  0  0  0  0  0  0  0  0
   32.6655  -33.7539  -16.7650 C   0  0  0  0  0  0  0  0  0  0  0  0
   32.7527  -32.9219  -18.0182 C   0  0  2  0  0  0  0  0  0  0  0  0
   31.8824  -31.7571  -17.7376 N   0  0  0  0  0  0  0  0  0  0  0  0
   32.2479  -33.5566  -19.2313 C   0  0  0  0  0  0  0  0  0  0  0  0
   30.9933  -33.4703  -19.4767 O   0  0  0  0  0  0  0  0  0  0  0  0
   33.0193  -34.2701  -20.1832 N   0  0  0  0  0  0  0  0  0  0  0  0
   32.3616  -34.7390  -21.3901 C   0  0  1  0  0  0  0  0  0  0  0  0
   33.4071  -34.9838  -22.4536 C   0  0  0  0  0  0  0  0  0  0  0  0
   34.0365  -33.4261  -23.1299 S   0  0  0  0  0  0  0  0  0  0  0  0
   31.6227  -35.9817  -21.0684 C   0  0  0  0  0  0  0  0  0  0  0  0
   31.6925  -36.5022  -19.9213 O   0  0  0  0  0  0  0  0  0  0  0  0
   30.8271  -36.6267  -22.0009 O   0  0  0  0  0  0  0  0  0  0  0  0
  2  3  2  0
  2  1  1  0
  4  3  1  0
  5  4  2  0
  6  5  1  0
  7  9  1  0
  7  6  1  0
  7  8  1  6
  9 10  2  0
 11  5  1  0
 11 12  2  0
 12  2  1  0
 14 13  1  1
 14 16  1  0
 15 14  1  0
 17 16  1  1
 18  9  1  0
 18 17  1  0
 19 21  1  0
 19 17  1  0
 20 19  2  0
 22 21  1  0
 22 23  1  6
 23 24  1  0
 25 22  1  0
 26 25  2  0
 27 25  1  0
M  END
$$$$
