YLC.pdb
     RDKit          3D

 27 27  0  0  1  0  0  0  0  0999 V2000
   22.7351   -7.9266  -24.3895 O   0  0  0  0  0  0  0  0  0  0  0  0
   21.9180   -8.4293  -23.3843 C   0  0  0  0  0  0  0  0  0  0  0  0
   20.7452   -7.7868  -23.0822 C   0  0  0  0  0  0  0  0  0  0  0  0
   19.9246   -8.2962  -22.0691 C   0  0  0  0  0  0  0  0  0  0  0  0
   20.2854   -9.4281  -21.3809 C   0  0  0  0  0  0  0  0  0  0  0  0
   19.4221   -9.9545  -20.3179 C   0  0  0  0  0  0  0  0  0  0  0  0
   20.2845  -10.8568  -19.4301 C   0  0  2  0  0  0  0  0  0  0  0  0
   19.8903  -12.2202  -19.7279 N   0  0  0  0  0  0  0  0  0  0  0  0
   19.9713  -10.5066  -18.0192 C   0  0  0  0  0  0  0  0  0  0  0  0
   19.0337  -11.0676  -17.4037 O   0  0  0  0  0  0  0  0  0  0  0  0
   21.4608  -10.0557  -21.6972 C   0  0  0  0  0  0  0  0  0  0  0  0
   22.2916   -9.5721  -22.6963 C   0  0  0  0  0  0  0  0  0  0  0  0
   20.9537   -9.6511  -12.9350 C   0  0  0  0  0  0  0  0  0  0  0  0
   21.8352   -8.8267  -13.8677 C   0  0  1  0  0  0  0  0  0  0  0  0
   23.2689   -9.1490  -13.3821 C   0  0  0  0  0  0  0  0  0  0  0  0
   21.7735   -9.3094  -15.2695 C   0  0  0  0  0  0  0  0  0  0  0  0
   20.4635   -9.1048  -15.9853 C   0  0  2  0  0  0  0  0  0  0  0  0
   20.7427   -9.5325  -17.3752 N   0  0  0  0  0  0  0  0  0  0  0  0
   19.9871   -7.7268  -16.0443 C   0  0  0  0  0  0  0  0  0  0  0  0
   20.6840   -6.8783  -16.7047 O   0  0  0  0  0  0  0  0  0  0  0  0
   18.8097   -7.2237  -15.4354 N   0  0  0  0  0  0  0  0  0  0  0  0
   18.5032   -5.8127  -15.5910 C   0  0  1  0  0  0  0  0  0  0  0  0
   17.0192   -5.6092  -15.3898 C   0  0  0  0  0  0  0  0  0  0  0  0
   16.0530   -6.6563  -16.5077 S   0  0  0  0  0  0  0  0  0  0  0  0
   19.2891   -5.0497  -14.5939 C   0  0  0  0  0  0  0  0  0  0  0  0
   20.0215   -5.6395  -13.7529 O   0  0  0  0  0  0  0  0  0  0  0  0
   19.2591   -3.6662  -14.5364 O   0  0  0  0  0  0  0  0  0  0  0  0
  2  3  2  0
  2  1  1  0
  4  3  1  0
  5  4  2  0
  6  5  1  0
  7  9  1  0
  7  6  1  0
  7  8  1  1
  9 10  2  0
 11  5  1  0
 11 12  2  0
 12  2  1  0
 14 13  1  1
 14 16  1  0
 15 14  1  0
 17 16  1  1
 18  9  1  0
 18 17  1  0
 19 21  1  0
 19 17  1  0
 20 19  2  0
 22 21  1  0
 22 23  1  1
 23 24  1  0
 25 22  1  0
 26 25  2  0
 27 25  1  0
M  END
$$$$
