YLC.pdb
     RDKit          3D

 27 27  0  0  1  0  0  0  0  0999 V2000
   22.2258  -29.3126   -9.6850 O   0  0  0  0  0  0  0  0  0  0  0  0
   23.0095  -30.2618   -9.0400 C   0  0  0  0  0  0  0  0  0  0  0  0
   24.0682  -29.8539   -8.2703 C   0  0  0  0  0  0  0  0  0  0  0  0
   24.8552  -30.8128   -7.6220 C   0  0  0  0  0  0  0  0  0  0  0  0
   24.5748  -32.1505   -7.7520 C   0  0  0  0  0  0  0  0  0  0  0  0
   25.4061  -33.1502   -7.0724 C   0  0  0  0  0  0  0  0  0  0  0  0
   26.6310  -33.4065   -7.9557 C   0  0  2  0  0  0  0  0  0  0  0  0
   26.1514  -34.1238   -9.1212 N   0  0  0  0  0  0  0  0  0  0  0  0
   27.5713  -34.2429   -7.1636 C   0  0  0  0  0  0  0  0  0  0  0  0
   27.3512  -35.4624   -6.9710 O   0  0  0  0  0  0  0  0  0  0  0  0
   23.5131  -32.5382   -8.5253 C   0  0  0  0  0  0  0  0  0  0  0  0
   22.7176  -31.6088   -9.1779 C   0  0  0  0  0  0  0  0  0  0  0  0
   32.6288  -35.5628   -5.9802 C   0  0  0  0  0  0  0  0  0  0  0  0
   32.1993  -34.2306   -5.3738 C   0  0  1  0  0  0  0  0  0  0  0  0
   33.3641  -33.2794   -5.7395 C   0  0  0  0  0  0  0  0  0  0  0  0
   31.0021  -33.6685   -6.0465 C   0  0  0  0  0  0  0  0  0  0  0  0
   29.7144  -34.4264   -5.8528 C   0  0  2  0  0  0  0  0  0  0  0  0
   28.7200  -33.6495   -6.6277 N   0  0  0  0  0  0  0  0  0  0  0  0
   29.2288  -34.5014   -4.4788 C   0  0  0  0  0  0  0  0  0  0  0  0
   28.7392  -33.4390   -3.9561 O   0  0  0  0  0  0  0  0  0  0  0  0
   29.2430  -35.6516   -3.6500 N   0  0  0  0  0  0  0  0  0  0  0  0
   28.7132  -35.5360   -2.3028 C   0  0  1  0  0  0  0  0  0  0  0  0
   27.4630  -36.3783   -2.1946 C   0  0  0  0  0  0  0  0  0  0  0  0
   27.0185  -36.6786   -0.4648 S   0  0  0  0  0  0  0  0  0  0  0  0
   29.7515  -35.9926   -1.3502 C   0  0  0  0  0  0  0  0  0  0  0  0
   30.6798  -36.7632   -1.7191 O   0  0  0  0  0  0  0  0  0  0  0  0
   29.7546  -35.6001   -0.0219 O   0  0  0  0  0  0  0  0  0  0  0  0
  2  3  2  0
  2  1  1  0
  4  3  1  0
  5  4  2  0
  6  5  1  0
  7  9  1  0
  7  6  1  0
  7  8  1  6
  9 10  2  0
 11  5  1  0
 11 12  2  0
 12  2  1  0
 14 13  1  6
 14 16  1  0
 15 14  1  0
 17 16  1  1
 18  9  1  0
 18 17  1  0
 19 21  1  0
 19 17  1  0
 20 19  2  0
 22 21  1  0
 22 23  1  6
 23 24  1  0
 25 22  1  0
 26 25  2  0
 27 25  1  0
M  END
$$$$
