YLC.pdb
     RDKit          3D

 27 27  0  0  1  0  0  0  0  0999 V2000
   28.1164  -13.0607  -17.4725 O   0  0  0  0  0  0  0  0  0  0  0  0
   27.4497  -14.2216  -17.1001 C   0  0  0  0  0  0  0  0  0  0  0  0
   27.1014  -14.4092  -15.7874 C   0  0  0  0  0  0  0  0  0  0  0  0
   26.4297  -15.5798  -15.4160 C   0  0  0  0  0  0  0  0  0  0  0  0
   26.1200  -16.5345  -16.3527 C   0  0  0  0  0  0  0  0  0  0  0  0
   25.4188  -17.7606  -15.9556 C   0  0  0  0  0  0  0  0  0  0  0  0
   26.4113  -18.6239  -15.1708 C   0  0  2  0  0  0  0  0  0  0  0  0
   27.3775  -19.1143  -16.1346 N   0  0  0  0  0  0  0  0  0  0  0  0
   25.6365  -19.7442  -14.5742 C   0  0  0  0  0  0  0  0  0  0  0  0
   25.5121  -20.8390  -15.1730 O   0  0  0  0  0  0  0  0  0  0  0  0
   26.4763  -16.3289  -17.6589 C   0  0  0  0  0  0  0  0  0  0  0  0
   27.1420  -15.1784  -18.0533 C   0  0  0  0  0  0  0  0  0  0  0  0
   26.1140  -20.4220   -9.2005 C   0  0  0  0  0  0  0  0  0  0  0  0
   25.9767  -20.5856  -10.7109 C   0  0  1  0  0  0  0  0  0  0  0  0
   26.2943  -22.0832  -10.9384 C   0  0  0  0  0  0  0  0  0  0  0  0
   24.5775  -20.4028  -11.1697 C   0  0  0  0  0  0  0  0  0  0  0  0
   24.3192  -20.6589  -12.6319 C   0  0  2  0  0  0  0  0  0  0  0  0
   25.0396  -19.5639  -13.3213 N   0  0  0  0  0  0  0  0  0  0  0  0
   22.9221  -20.5855  -13.0465 C   0  0  0  0  0  0  0  0  0  0  0  0
   22.3621  -19.4332  -13.0691 O   0  0  0  0  0  0  0  0  0  0  0  0
   22.1080  -21.6793  -13.4351 N   0  0  0  0  0  0  0  0  0  0  0  0
   20.7320  -21.4126  -13.8151 C   0  0  1  0  0  0  0  0  0  0  0  0
   20.3498  -22.3356  -14.9492 C   0  0  0  0  0  0  0  0  0  0  0  0
   18.5815  -22.2225  -15.3235 S   0  0  0  0  0  0  0  0  0  0  0  0
   19.8684  -21.6309  -12.6318 C   0  0  0  0  0  0  0  0  0  0  0  0
   20.1653  -22.4923  -11.7592 O   0  0  0  0  0  0  0  0  0  0  0  0
   18.7048  -20.9079  -12.4270 O   0  0  0  0  0  0  0  0  0  0  0  0
  2  3  2  0
  2  1  1  0
  4  3  1  0
  5  4  2  0
  6  5  1  0
  7  9  1  0
  7  6  1  0
  7  8  1  6
  9 10  2  0
 11  5  1  0
 11 12  2  0
 12  2  1  0
 14 13  1  1
 14 16  1  0
 15 14  1  0
 17 16  1  1
 18  9  1  0
 18 17  1  0
 19 21  1  0
 19 17  1  0
 20 19  2  0
 22 21  1  0
 22 23  1  6
 23 24  1  0
 25 22  1  0
 26 25  2  0
 27 25  1  0
M  END
$$$$
