YLC.pdb
     RDKit          3D

 27 27  0  0  1  0  0  0  0  0999 V2000
   14.6060  -23.4277  -14.7602 O   0  0  0  0  0  0  0  0  0  0  0  0
   15.7741  -22.6917  -14.6030 C   0  0  0  0  0  0  0  0  0  0  0  0
   15.7328  -21.4918  -13.9411 C   0  0  0  0  0  0  0  0  0  0  0  0
   16.9115  -20.7533  -13.7846 C   0  0  0  0  0  0  0  0  0  0  0  0
   18.1006  -21.2208  -14.2869 C   0  0  0  0  0  0  0  0  0  0  0  0
   19.3316  -20.4397  -14.1221 C   0  0  0  0  0  0  0  0  0  0  0  0
   20.3336  -21.3158  -13.3640 C   0  0  2  0  0  0  0  0  0  0  0  0
   19.8489  -21.4043  -12.0001 N   0  0  0  0  0  0  0  0  0  0  0  0
   21.6476  -20.6218  -13.4196 C   0  0  0  0  0  0  0  0  0  0  0  0
   21.8244  -19.5194  -12.8484 O   0  0  0  0  0  0  0  0  0  0  0  0
   18.1215  -22.4215  -14.9451 C   0  0  0  0  0  0  0  0  0  0  0  0
   16.9685  -23.1728  -15.1137 C   0  0  0  0  0  0  0  0  0  0  0  0
   25.7690  -22.4226  -11.2542 C   0  0  0  0  0  0  0  0  0  0  0  0
   24.7622  -21.5165  -11.9557 C   0  0  1  0  0  0  0  0  0  0  0  0
   25.1836  -20.0973  -11.5047 C   0  0  0  0  0  0  0  0  0  0  0  0
   24.9285  -21.5297  -13.4302 C   0  0  0  0  0  0  0  0  0  0  0  0
   24.0399  -20.5932  -14.2071 C   0  0  2  0  0  0  0  0  0  0  0  0
   22.6997  -21.2177  -14.1243 N   0  0  0  0  0  0  0  0  0  0  0  0
   24.3628  -20.4488  -15.6228 C   0  0  0  0  0  0  0  0  0  0  0  0
   24.2778  -21.4882  -16.3672 O   0  0  0  0  0  0  0  0  0  0  0  0
   24.7665  -19.2532  -16.2693 N   0  0  0  0  0  0  0  0  0  0  0  0
   25.0361  -19.2991  -17.6956 C   0  0  1  0  0  0  0  0  0  0  0  0
   24.8493  -17.9152  -18.2736 C   0  0  0  0  0  0  0  0  0  0  0  0
   23.2673  -17.1961  -17.7637 S   0  0  0  0  0  0  0  0  0  0  0  0
   26.4224  -19.7809  -17.8951 C   0  0  0  0  0  0  0  0  0  0  0  0
   27.2501  -19.7951  -16.9431 O   0  0  0  0  0  0  0  0  0  0  0  0
   26.8736  -20.2350  -19.1234 O   0  0  0  0  0  0  0  0  0  0  0  0
  2  3  2  0
  2  1  1  0
  4  3  1  0
  5  4  2  0
  6  5  1  0
  7  9  1  0
  7  6  1  0
  7  8  1  1
  9 10  2  0
 11  5  1  0
 11 12  2  0
 12  2  1  0
 14 13  1  1
 14 16  1  0
 15 14  1  0
 17 16  1  1
 18  9  1  0
 18 17  1  0
 19 21  1  0
 19 17  1  0
 20 19  2  0
 22 21  1  0
 22 23  1  1
 23 24  1  0
 25 22  1  0
 26 25  2  0
 27 25  1  0
M  END
$$$$
