YLC.pdb
     RDKit          3D

 27 27  0  0  1  0  0  0  0  0999 V2000
   21.2114  -16.1786  -17.9184 O   0  0  0  0  0  0  0  0  0  0  0  0
   21.2563  -17.1657  -16.9412 C   0  0  0  0  0  0  0  0  0  0  0  0
   21.5835  -18.4498  -17.2925 C   0  0  0  0  0  0  0  0  0  0  0  0
   21.6279  -19.4413  -16.3055 C   0  0  0  0  0  0  0  0  0  0  0  0
   21.3472  -19.1369  -14.9965 C   0  0  0  0  0  0  0  0  0  0  0  0
   21.3922  -20.1820  -13.9677 C   0  0  0  0  0  0  0  0  0  0  0  0
   22.7321  -20.0502  -13.2372 C   0  0  2  0  0  0  0  0  0  0  0  0
   23.7568  -20.4249  -14.1925 N   0  0  0  0  0  0  0  0  0  0  0  0
   22.6981  -20.9977  -12.0917 C   0  0  0  0  0  0  0  0  0  0  0  0
   22.7086  -22.2383  -12.2745 O   0  0  0  0  0  0  0  0  0  0  0  0
   21.0223  -17.8484  -14.6654 C   0  0  0  0  0  0  0  0  0  0  0  0
   20.9714  -16.8476  -15.6235 C   0  0  0  0  0  0  0  0  0  0  0  0
   25.7345  -19.4995   -7.9284 C   0  0  0  0  0  0  0  0  0  0  0  0
   25.0132  -20.3733   -8.9497 C   0  0  1  0  0  0  0  0  0  0  0  0
   25.6551  -21.7666   -8.7447 C   0  0  0  0  0  0  0  0  0  0  0  0
   23.5761  -20.5469   -8.6235 C   0  0  0  0  0  0  0  0  0  0  0  0
   22.7671  -21.3606   -9.6001 C   0  0  2  0  0  0  0  0  0  0  0  0
   22.6541  -20.4860  -10.7898 N   0  0  0  0  0  0  0  0  0  0  0  0
   21.4105  -21.6884   -9.1741 C   0  0  0  0  0  0  0  0  0  0  0  0
   20.5408  -20.7475   -9.1626 O   0  0  0  0  0  0  0  0  0  0  0  0
   20.9493  -22.9655   -8.7661 N   0  0  0  0  0  0  0  0  0  0  0  0
   19.5606  -23.0995   -8.3629 C   0  0  1  0  0  0  0  0  0  0  0  0
   18.9541  -24.2824   -9.0819 C   0  0  0  0  0  0  0  0  0  0  0  0
   17.2984  -24.6584   -8.4519 S   0  0  0  0  0  0  0  0  0  0  0  0
   19.5149  -23.2838   -6.8939 C   0  0  0  0  0  0  0  0  0  0  0  0
   20.5305  -23.6731   -6.2548 O   0  0  0  0  0  0  0  0  0  0  0  0
   18.3673  -23.0403   -6.1575 O   0  0  0  0  0  0  0  0  0  0  0  0
  2  3  2  0
  2  1  1  0
  4  3  1  0
  5  4  2  0
  6  5  1  0
  7  9  1  0
  7  6  1  0
  7  8  1  6
  9 10  2  0
 11  5  1  0
 11 12  2  0
 12  2  1  0
 14 13  1  1
 14 16  1  0
 15 14  1  0
 17 16  1  1
 18  9  1  0
 18 17  1  0
 19 21  1  0
 19 17  1  0
 20 19  2  0
 22 21  1  0
 22 23  1  6
 23 24  1  0
 25 22  1  0
 26 25  2  0
 27 25  1  0
M  END
$$$$
