GWN.pdb
     RDKit          3D

 27 28  0  0  1  0  0  0  0  0999 V2000
    6.6410  -14.8517   20.2366 N   0  0  0  0  0  0  0  0  0  0  0  0
    6.7210  -15.8068   21.3239 C   0  0  0  0  0  0  0  0  0  0  0  0
    7.7729  -15.3820   22.2825 C   0  0  0  0  0  0  0  0  0  0  0  0
    8.4697  -14.3515   22.0957 O   0  0  0  0  0  0  0  0  0  0  0  0
    8.0163  -16.1353   23.4388 N   0  0  0  0  0  0  0  0  0  0  0  0
    9.0438  -15.8572   24.4190 C   0  0  1  0  0  0  0  0  0  0  0  0
    8.4305  -15.8419   25.8304 C   0  0  0  0  0  0  0  0  0  0  0  0
    7.3537  -14.8431   25.9266 C   0  0  0  0  0  0  0  0  0  0  0  0
    6.0081  -15.0774   25.8397 C   0  0  0  0  0  0  0  0  0  0  0  0
    5.3229  -13.9215   25.9722 N   0  0  0  0  0  0  0  0  0  0  0  0
    6.2410  -12.9481   26.1443 C   0  0  0  0  0  0  0  0  0  0  0  0
    6.1147  -11.5974   26.3266 C   0  0  0  0  0  0  0  0  0  0  0  0
    7.2363  -10.8268   26.4787 C   0  0  0  0  0  0  0  0  0  0  0  0
    8.5000  -11.3267   26.4604 C   0  0  0  0  0  0  0  0  0  0  0  0
    8.6396  -12.6960   26.2761 C   0  0  0  0  0  0  0  0  0  0  0  0
    7.5279  -13.4979   26.1201 C   0  0  0  0  0  0  0  0  0  0  0  0
   10.1215  -16.8590   24.4049 C   0  0  0  0  0  0  0  0  0  0  0  0
    9.8570  -18.0968   24.3160 O   0  0  0  0  0  0  0  0  0  0  0  0
   13.7482  -17.2865   21.7937 N   0  0  0  0  0  0  0  0  0  0  0  0
   13.8450  -16.4378   22.9509 C   0  0  0  0  0  0  0  0  0  0  0  0
   13.8861  -15.2222   22.7199 O   0  0  0  0  0  0  0  0  0  0  0  0
   13.8849  -17.0981   24.2708 C   0  0  0  0  0  0  0  0  0  0  0  0
   12.5297  -17.5767   24.6577 C   0  0  2  0  0  0  0  0  0  0  0  0
   11.5100  -16.5507   24.4856 N   0  0  0  0  0  0  0  0  0  0  0  0
   12.4126  -18.1376   26.0122 C   0  0  0  0  0  0  0  0  0  0  0  0
   13.1541  -19.1354   26.3430 O   0  0  0  0  0  0  0  0  0  0  0  0
   11.5710  -17.7106   27.0186 O   0  0  0  0  0  0  0  0  0  0  0  0
  1  2  1  0
  2  3  1  0
  3  4  2  0
  5  6  1  0
  5  3  1  0
  6 17  1  0
  7  8  1  0
  6  7  1  1
  8 16  1  0
  9  8  2  0
  9 10  1  0
 10 11  1  0
 11 12  1  0
 12 13  2  0
 14 13  1  0
 15 14  2  0
 16 11  2  0
 16 15  1  0
 17 18  2  0
 19 20  1  0
 20 22  1  0
 21 20  2  0
 23 22  1  1
 23 25  1  0
 24 23  1  0
 24 17  1  0
 25 26  2  0
 25 27  1  0
M  END
$$$$
