GWN.pdb
     RDKit          3D

 27 28  0  0  1  0  0  0  0  0999 V2000
    8.4207  -18.5181   20.5258 N   0  0  0  0  0  0  0  0  0  0  0  0
    7.8202  -18.5601   21.8443 C   0  0  0  0  0  0  0  0  0  0  0  0
    8.6101  -17.7166   22.7774 C   0  0  0  0  0  0  0  0  0  0  0  0
    9.6957  -17.1804   22.4364 O   0  0  0  0  0  0  0  0  0  0  0  0
    8.1535  -17.4957   24.0837 N   0  0  0  0  0  0  0  0  0  0  0  0
    8.8524  -16.7371   25.0985 C   0  0  1  0  0  0  0  0  0  0  0  0
    7.8480  -15.9035   25.9137 C   0  0  0  0  0  0  0  0  0  0  0  0
    7.4398  -14.6983   25.1738 C   0  0  0  0  0  0  0  0  0  0  0  0
    7.3886  -14.5490   23.8144 C   0  0  0  0  0  0  0  0  0  0  0  0
    6.9693  -13.3056   23.4962 N   0  0  0  0  0  0  0  0  0  0  0  0
    6.7533  -12.6627   24.6624 C   0  0  0  0  0  0  0  0  0  0  0  0
    6.3251  -11.3921   24.9375 C   0  0  0  0  0  0  0  0  0  0  0  0
    6.1904  -10.9898   26.2395 C   0  0  0  0  0  0  0  0  0  0  0  0
    6.4607  -11.7891   27.3050 C   0  0  0  0  0  0  0  0  0  0  0  0
    6.8959  -13.0803   27.0371 C   0  0  0  0  0  0  0  0  0  0  0  0
    7.0410  -13.5139   25.7355 C   0  0  0  0  0  0  0  0  0  0  0  0
    9.5918  -17.5975   26.0356 C   0  0  0  0  0  0  0  0  0  0  0  0
   10.2175  -17.0987   27.0203 O   0  0  0  0  0  0  0  0  0  0  0  0
    7.1550  -20.7040   27.6678 N   0  0  0  0  0  0  0  0  0  0  0  0
    8.4608  -20.4030   28.1905 C   0  0  0  0  0  0  0  0  0  0  0  0
    8.4786  -19.7183   29.2217 O   0  0  0  0  0  0  0  0  0  0  0  0
    9.6227  -20.9350   27.4512 C   0  0  0  0  0  0  0  0  0  0  0  0
   10.4323  -19.8246   26.8794 C   0  0  2  0  0  0  0  0  0  0  0  0
    9.6740  -19.0161   25.9342 N   0  0  0  0  0  0  0  0  0  0  0  0
   11.7034  -20.2176   26.2525 C   0  0  0  0  0  0  0  0  0  0  0  0
   11.9071  -19.9286   25.0156 O   0  0  0  0  0  0  0  0  0  0  0  0
   12.7524  -20.8866   26.8488 O   0  0  0  0  0  0  0  0  0  0  0  0
  1  2  1  0
  2  3  1  0
  3  4  2  0
  5  6  1  0
  5  3  1  0
  6 17  1  0
  7  8  1  0
  6  7  1  1
  8 16  1  0
  9  8  2  0
  9 10  1  0
 10 11  1  0
 11 12  1  0
 12 13  2  0
 14 13  1  0
 15 14  2  0
 16 11  2  0
 16 15  1  0
 17 18  2  0
 19 20  1  0
 20 22  1  0
 21 20  2  0
 23 22  1  6
 23 25  1  0
 24 23  1  0
 24 17  1  0
 25 26  2  0
 25 27  1  0
M  END
$$$$
