GWN.pdb
     RDKit          3D

 27 28  0  0  1  0  0  0  0  0999 V2000
    6.0168  -15.4254   20.6942 N   0  0  0  0  0  0  0  0  0  0  0  0
    6.9917  -16.4246   21.0840 C   0  0  0  0  0  0  0  0  0  0  0  0
    8.0323  -15.7973   21.9383 C   0  0  0  0  0  0  0  0  0  0  0  0
    8.6296  -14.7439   21.5979 O   0  0  0  0  0  0  0  0  0  0  0  0
    8.3776  -16.3773   23.1663 N   0  0  0  0  0  0  0  0  0  0  0  0
    9.4118  -15.8983   24.0578 C   0  0  1  0  0  0  0  0  0  0  0  0
    8.9219  -15.9705   25.5148 C   0  0  0  0  0  0  0  0  0  0  0  0
    7.6677  -15.2197   25.6872 C   0  0  0  0  0  0  0  0  0  0  0  0
    6.3962  -15.7217   25.6223 C   0  0  0  0  0  0  0  0  0  0  0  0
    5.4943  -14.7383   25.8290 N   0  0  0  0  0  0  0  0  0  0  0  0
    6.1995  -13.6054   26.0261 C   0  0  0  0  0  0  0  0  0  0  0  0
    5.8064  -12.3187   26.2781 C   0  0  0  0  0  0  0  0  0  0  0  0
    6.7515  -11.3412   26.4403 C   0  0  0  0  0  0  0  0  0  0  0  0
    8.0893  -11.5692   26.3657 C   0  0  0  0  0  0  0  0  0  0  0  0
    8.4991  -12.8712   26.1104 C   0  0  0  0  0  0  0  0  0  0  0  0
    7.5700  -13.8771   25.9426 C   0  0  0  0  0  0  0  0  0  0  0  0
   10.6509  -16.6857   23.9576 C   0  0  0  0  0  0  0  0  0  0  0  0
   10.6121  -17.9298   23.7108 O   0  0  0  0  0  0  0  0  0  0  0  0
   13.8033  -14.5083   21.6243 N   0  0  0  0  0  0  0  0  0  0  0  0
   13.9118  -15.9057   21.9473 C   0  0  0  0  0  0  0  0  0  0  0  0
   13.6849  -16.6884   21.0154 O   0  0  0  0  0  0  0  0  0  0  0  0
   14.2765  -16.2512   23.3355 C   0  0  0  0  0  0  0  0  0  0  0  0
   13.1598  -16.9714   24.0061 C   0  0  2  0  0  0  0  0  0  0  0  0
   11.9613  -16.1512   24.1204 N   0  0  0  0  0  0  0  0  0  0  0  0
   13.4690  -17.5433   25.3254 C   0  0  0  0  0  0  0  0  0  0  0  0
   12.8088  -17.1396   26.3531 O   0  0  0  0  0  0  0  0  0  0  0  0
   14.4196  -18.5006   25.6141 O   0  0  0  0  0  0  0  0  0  0  0  0
  1  2  1  0
  2  3  1  0
  3  4  2  0
  5  6  1  0
  5  3  1  0
  6 17  1  0
  7  8  1  0
  6  7  1  1
  8 16  1  0
  9  8  2  0
  9 10  1  0
 10 11  1  0
 11 12  1  0
 12 13  2  0
 14 13  1  0
 15 14  2  0
 16 11  2  0
 16 15  1  0
 17 18  2  0
 19 20  1  0
 20 22  1  0
 21 20  2  0
 23 22  1  1
 23 25  1  0
 24 23  1  0
 24 17  1  0
 25 26  2  0
 25 27  1  0
M  END
$$$$
