GWN.pdb
     RDKit          3D

 27 28  0  0  1  0  0  0  0  0999 V2000
    7.0458  -19.7075   20.5264 N   0  0  0  0  0  0  0  0  0  0  0  0
    6.8988  -18.7794   21.6298 C   0  0  0  0  0  0  0  0  0  0  0  0
    7.9169  -17.7042   21.5142 C   0  0  0  0  0  0  0  0  0  0  0  0
    8.7614  -17.6818   20.5822 O   0  0  0  0  0  0  0  0  0  0  0  0
    7.9592  -16.6710   22.4599 N   0  0  0  0  0  0  0  0  0  0  0  0
    8.8519  -15.5330   22.4183 C   0  0  1  0  0  0  0  0  0  0  0  0
    8.0726  -14.2442   22.7342 C   0  0  0  0  0  0  0  0  0  0  0  0
    7.4461  -14.3194   24.0640 C   0  0  0  0  0  0  0  0  0  0  0  0
    6.9293  -15.4352   24.6649 C   0  0  0  0  0  0  0  0  0  0  0  0
    6.4360  -15.1242   25.8827 N   0  0  0  0  0  0  0  0  0  0  0  0
    6.6418  -13.8021   26.0545 C   0  0  0  0  0  0  0  0  0  0  0  0
    6.3457  -12.9604   27.0926 C   0  0  0  0  0  0  0  0  0  0  0  0
    6.6727  -11.6337   27.0031 C   0  0  0  0  0  0  0  0  0  0  0  0
    7.2878  -11.0821   25.9239 C   0  0  0  0  0  0  0  0  0  0  0  0
    7.5928  -11.9272   24.8651 C   0  0  0  0  0  0  0  0  0  0  0  0
    7.2757  -13.2685   24.9265 C   0  0  0  0  0  0  0  0  0  0  0  0
    9.9529  -15.6451   23.3881 C   0  0  0  0  0  0  0  0  0  0  0  0
   10.8256  -14.7295   23.4891 O   0  0  0  0  0  0  0  0  0  0  0  0
   10.2002  -17.1087   27.8288 N   0  0  0  0  0  0  0  0  0  0  0  0
   10.1479  -18.0726   26.7625 C   0  0  0  0  0  0  0  0  0  0  0  0
    9.1064  -18.7386   26.6950 O   0  0  0  0  0  0  0  0  0  0  0  0
   11.3252  -18.1632   25.8762 C   0  0  0  0  0  0  0  0  0  0  0  0
   11.3939  -16.9808   24.9749 C   0  0  2  0  0  0  0  0  0  0  0  0
   10.1394  -16.7461   24.2726 N   0  0  0  0  0  0  0  0  0  0  0  0
   12.4905  -16.9871   23.9949 C   0  0  0  0  0  0  0  0  0  0  0  0
   13.5362  -16.2725   24.2208 O   0  0  0  0  0  0  0  0  0  0  0  0
   12.5431  -17.6935   22.8110 O   0  0  0  0  0  0  0  0  0  0  0  0
  1  2  1  0
  2  3  1  0
  3  4  2  0
  5  6  1  0
  5  3  1  0
  6 17  1  0
  7  8  1  0
  6  7  1  1
  8 16  1  0
  9  8  2  0
  9 10  1  0
 10 11  1  0
 11 12  1  0
 12 13  2  0
 14 13  1  0
 15 14  2  0
 16 11  2  0
 16 15  1  0
 17 18  2  0
 19 20  1  0
 20 22  1  0
 21 20  2  0
 23 22  1  6
 23 25  1  0
 24 23  1  0
 24 17  1  0
 25 26  2  0
 25 27  1  0
M  END
$$$$
