GWN.pdb
     RDKit          3D

 27 28  0  0  1  0  0  0  0  0999 V2000
    7.4779  -17.3431   20.1122 N   0  0  0  0  0  0  0  0  0  0  0  0
    7.4421  -17.9882   21.4096 C   0  0  0  0  0  0  0  0  0  0  0  0
    8.3055  -17.2417   22.3601 C   0  0  0  0  0  0  0  0  0  0  0  0
    9.0462  -16.2958   21.9876 O   0  0  0  0  0  0  0  0  0  0  0  0
    8.3132  -17.5820   23.7194 N   0  0  0  0  0  0  0  0  0  0  0  0
    9.2085  -17.0340   24.7153 C   0  0  1  0  0  0  0  0  0  0  0  0
    8.4320  -16.7358   26.0100 C   0  0  0  0  0  0  0  0  0  0  0  0
    7.4583  -15.6515   25.8031 C   0  0  0  0  0  0  0  0  0  0  0  0
    6.1328  -15.7886   25.4914 C   0  0  0  0  0  0  0  0  0  0  0  0
    5.5517  -14.5752   25.3769 N   0  0  0  0  0  0  0  0  0  0  0  0
    6.5160  -13.6630   25.6177 C   0  0  0  0  0  0  0  0  0  0  0  0
    6.4927  -12.2946   25.6361 C   0  0  0  0  0  0  0  0  0  0  0  0
    7.6400  -11.6014   25.9157 C   0  0  0  0  0  0  0  0  0  0  0  0
    8.8320  -12.1972   26.1832 C   0  0  0  0  0  0  0  0  0  0  0  0
    8.8668  -13.5853   26.1672 C   0  0  0  0  0  0  0  0  0  0  0  0
    7.7268  -14.3107   25.8888 C   0  0  0  0  0  0  0  0  0  0  0  0
   10.3091  -17.9519   25.0492 C   0  0  0  0  0  0  0  0  0  0  0  0
   10.0990  -19.1957   25.1867 O   0  0  0  0  0  0  0  0  0  0  0  0
   15.3710  -19.9736   24.6745 N   0  0  0  0  0  0  0  0  0  0  0  0
   15.1327  -18.9043   25.6065 C   0  0  0  0  0  0  0  0  0  0  0  0
   15.8445  -18.9101   26.6194 O   0  0  0  0  0  0  0  0  0  0  0  0
   14.0798  -17.9291   25.2601 C   0  0  0  0  0  0  0  0  0  0  0  0
   12.7302  -18.5065   25.5064 C   0  0  2  0  0  0  0  0  0  0  0  0
   11.6625  -17.5513   25.2422 N   0  0  0  0  0  0  0  0  0  0  0  0
   12.5200  -19.0945   26.8381 C   0  0  0  0  0  0  0  0  0  0  0  0
   12.9125  -20.2995   27.0594 O   0  0  0  0  0  0  0  0  0  0  0  0
   11.9290  -18.4913   27.9291 O   0  0  0  0  0  0  0  0  0  0  0  0
  1  2  1  0
  2  3  1  0
  3  4  2  0
  5  6  1  0
  5  3  1  0
  6 17  1  0
  7  8  1  0
  6  7  1  1
  8 16  1  0
  9  8  2  0
  9 10  1  0
 10 11  1  0
 11 12  1  0
 12 13  2  0
 14 13  1  0
 15 14  2  0
 16 11  2  0
 16 15  1  0
 17 18  2  0
 19 20  1  0
 20 22  1  0
 21 20  2  0
 23 22  1  1
 23 25  1  0
 24 23  1  0
 24 17  1  0
 25 26  2  0
 25 27  1  0
M  END
$$$$
