GWN.pdb
     RDKit          3D

 27 28  0  0  1  0  0  0  0  0999 V2000
   10.5564  -17.2942   24.7903 N   0  0  0  0  0  0  0  0  0  0  0  0
    9.5253  -18.3047   24.6620 C   0  0  0  0  0  0  0  0  0  0  0  0
    8.3736  -17.7469   23.9079 C   0  0  0  0  0  0  0  0  0  0  0  0
    7.3368  -18.4209   23.6778 O   0  0  0  0  0  0  0  0  0  0  0  0
    8.4185  -16.4314   23.4272 N   0  0  0  0  0  0  0  0  0  0  0  0
    7.4508  -15.8324   22.5336 C   0  0  1  0  0  0  0  0  0  0  0  0
    7.0385  -14.4468   23.0610 C   0  0  0  0  0  0  0  0  0  0  0  0
    6.9490  -14.4469   24.5301 C   0  0  0  0  0  0  0  0  0  0  0  0
    6.8052  -15.5388   25.3425 C   0  0  0  0  0  0  0  0  0  0  0  0
    6.7579  -15.1557   26.6364 N   0  0  0  0  0  0  0  0  0  0  0  0
    6.8726  -13.8116   26.6437 C   0  0  0  0  0  0  0  0  0  0  0  0
    6.8871  -12.9032   27.6674 C   0  0  0  0  0  0  0  0  0  0  0  0
    7.0186  -11.5693   27.3873 C   0  0  0  0  0  0  0  0  0  0  0  0
    7.1388  -11.0739   26.1274 C   0  0  0  0  0  0  0  0  0  0  0  0
    7.1253  -11.9870   25.0812 C   0  0  0  0  0  0  0  0  0  0  0  0
    6.9943  -13.3372   25.3325 C   0  0  0  0  0  0  0  0  0  0  0  0
    7.9752  -15.6596   21.1696 C   0  0  0  0  0  0  0  0  0  0  0  0
    7.1943  -15.6511   20.1694 O   0  0  0  0  0  0  0  0  0  0  0  0
    7.5756  -12.8055   18.8119 N   0  0  0  0  0  0  0  0  0  0  0  0
    8.4042  -13.8545   18.2812 C   0  0  0  0  0  0  0  0  0  0  0  0
    7.9180  -14.4947   17.3397 O   0  0  0  0  0  0  0  0  0  0  0  0
    9.7264  -14.0524   18.9076 C   0  0  0  0  0  0  0  0  0  0  0  0
    9.8355  -15.4228   19.4779 C   0  0  2  0  0  0  0  0  0  0  0  0
    9.3534  -15.4913   20.8509 N   0  0  0  0  0  0  0  0  0  0  0  0
   11.1703  -16.0373   19.4142 C   0  0  0  0  0  0  0  0  0  0  0  0
   11.6976  -16.5021   20.4916 O   0  0  0  0  0  0  0  0  0  0  0  0
   11.9645  -16.1853   18.2958 O   0  0  0  0  0  0  0  0  0  0  0  0
  1  2  1  0
  2  3  1  0
  3  4  2  0
  5  6  1  0
  5  3  1  0
  6 17  1  0
  7  8  1  0
  6  7  1  1
  8 16  1  0
  9  8  2  0
  9 10  1  0
 10 11  1  0
 11 12  1  0
 12 13  2  0
 14 13  1  0
 15 14  2  0
 16 11  2  0
 16 15  1  0
 17 18  2  0
 19 20  1  0
 20 22  1  0
 21 20  2  0
 23 22  1  1
 23 25  1  0
 24 23  1  0
 24 17  1  0
 25 26  2  0
 25 27  1  0
M  END
$$$$
