GWN.pdb
     RDKit          3D

 27 28  0  0  1  0  0  0  0  0999 V2000
    6.3494  -16.1185   19.6722 N   0  0  0  0  0  0  0  0  0  0  0  0
    6.5087  -16.7021   20.9893 C   0  0  0  0  0  0  0  0  0  0  0  0
    7.6059  -16.0086   21.7111 C   0  0  0  0  0  0  0  0  0  0  0  0
    8.2631  -15.0729   21.1868 O   0  0  0  0  0  0  0  0  0  0  0  0
    7.9391  -16.3895   23.0178 N   0  0  0  0  0  0  0  0  0  0  0  0
    8.9624  -15.7740   23.8349 C   0  0  1  0  0  0  0  0  0  0  0  0
    8.5952  -15.9084   25.3233 C   0  0  0  0  0  0  0  0  0  0  0  0
    7.5056  -14.9865   25.6830 C   0  0  0  0  0  0  0  0  0  0  0  0
    6.1897  -15.3087   25.8769 C   0  0  0  0  0  0  0  0  0  0  0  0
    5.4800  -14.2046   26.1940 N   0  0  0  0  0  0  0  0  0  0  0  0
    6.3525  -13.1758   26.2009 C   0  0  0  0  0  0  0  0  0  0  0  0
    6.1864  -11.8410   26.4542 C   0  0  0  0  0  0  0  0  0  0  0  0
    7.2654  -11.0003   26.3910 C   0  0  0  0  0  0  0  0  0  0  0  0
    8.5236  -11.4136   26.0854 C   0  0  0  0  0  0  0  0  0  0  0  0
    8.7033  -12.7660   25.8266 C   0  0  0  0  0  0  0  0  0  0  0  0
    7.6351  -13.6372   25.8829 C   0  0  0  0  0  0  0  0  0  0  0  0
   10.2852  -16.3878   23.6381 C   0  0  0  0  0  0  0  0  0  0  0  0
   10.4329  -17.6466   23.6984 O   0  0  0  0  0  0  0  0  0  0  0  0
   15.3156  -16.4542   20.8868 N   0  0  0  0  0  0  0  0  0  0  0  0
   15.0225  -16.1237   22.2556 C   0  0  0  0  0  0  0  0  0  0  0  0
   15.8700  -16.4802   23.0846 O   0  0  0  0  0  0  0  0  0  0  0  0
   13.7603  -15.4053   22.5210 C   0  0  0  0  0  0  0  0  0  0  0  0
   12.7607  -16.3159   23.1431 C   0  0  2  0  0  0  0  0  0  0  0  0
   11.4802  -15.6598   23.3710 N   0  0  0  0  0  0  0  0  0  0  0  0
   13.1835  -16.9737   24.3888 C   0  0  0  0  0  0  0  0  0  0  0  0
   12.9336  -16.4027   25.5142 O   0  0  0  0  0  0  0  0  0  0  0  0
   13.8435  -18.1792   24.5096 O   0  0  0  0  0  0  0  0  0  0  0  0
  1  2  1  0
  2  3  1  0
  3  4  2  0
  5  6  1  0
  5  3  1  0
  6 17  1  0
  7  8  1  0
  6  7  1  1
  8 16  1  0
  9  8  2  0
  9 10  1  0
 10 11  1  0
 11 12  1  0
 12 13  2  0
 14 13  1  0
 15 14  2  0
 16 11  2  0
 16 15  1  0
 17 18  2  0
 19 20  1  0
 20 22  1  0
 21 20  2  0
 23 22  1  1
 23 25  1  0
 24 23  1  0
 24 17  1  0
 25 26  2  0
 25 27  1  0
M  END
$$$$
