GWN.pdb
     RDKit          3D

 27 28  0  0  1  0  0  0  0  0999 V2000
   10.1628  -16.6518   19.8965 N   0  0  0  0  0  0  0  0  0  0  0  0
    9.1279  -17.0520   20.8290 C   0  0  0  0  0  0  0  0  0  0  0  0
    9.4374  -16.5112   22.1773 C   0  0  0  0  0  0  0  0  0  0  0  0
   10.2637  -15.5784   22.3489 O   0  0  0  0  0  0  0  0  0  0  0  0
    8.8027  -17.0392   23.3095 N   0  0  0  0  0  0  0  0  0  0  0  0
    9.0509  -16.6319   24.6756 C   0  0  1  0  0  0  0  0  0  0  0  0
    7.7446  -16.1342   25.3192 C   0  0  0  0  0  0  0  0  0  0  0  0
    7.3613  -14.8177   24.7840 C   0  0  0  0  0  0  0  0  0  0  0  0
    7.1298  -14.5017   23.4727 C   0  0  0  0  0  0  0  0  0  0  0  0
    6.8004  -13.1974   23.3574 N   0  0  0  0  0  0  0  0  0  0  0  0
    6.8235  -12.6835   24.6045 C   0  0  0  0  0  0  0  0  0  0  0  0
    6.5740  -11.4230   25.0761 C   0  0  0  0  0  0  0  0  0  0  0  0
    6.6716  -11.1705   26.4184 C   0  0  0  0  0  0  0  0  0  0  0  0
    7.0087  -12.1128   27.3381 C   0  0  0  0  0  0  0  0  0  0  0  0
    7.2638  -13.3952   26.8703 C   0  0  0  0  0  0  0  0  0  0  0  0
    7.1733  -13.6796   25.5234 C   0  0  0  0  0  0  0  0  0  0  0  0
    9.5739  -17.7296   25.5044 C   0  0  0  0  0  0  0  0  0  0  0  0
    9.1948  -17.8736   26.7067 O   0  0  0  0  0  0  0  0  0  0  0  0
   13.4988  -17.4642   22.7004 N   0  0  0  0  0  0  0  0  0  0  0  0
   13.1979  -18.4580   23.6957 C   0  0  0  0  0  0  0  0  0  0  0  0
   13.2574  -19.6335   23.3118 O   0  0  0  0  0  0  0  0  0  0  0  0
   12.8550  -17.9763   25.0485 C   0  0  0  0  0  0  0  0  0  0  0  0
   11.8285  -18.8551   25.6724 C   0  0  2  0  0  0  0  0  0  0  0  0
   10.5174  -18.6986   25.0571 N   0  0  0  0  0  0  0  0  0  0  0  0
   11.6840  -18.7332   27.1310 C   0  0  0  0  0  0  0  0  0  0  0  0
   12.2520  -19.6018   27.8911 O   0  0  0  0  0  0  0  0  0  0  0  0
   10.9857  -17.7622   27.8187 O   0  0  0  0  0  0  0  0  0  0  0  0
  1  2  1  0
  2  3  1  0
  3  4  2  0
  5  6  1  0
  5  3  1  0
  6 17  1  0
  7  8  1  0
  6  7  1  1
  8 16  1  0
  9  8  2  0
  9 10  1  0
 10 11  1  0
 11 12  1  0
 12 13  2  0
 14 13  1  0
 15 14  2  0
 16 11  2  0
 16 15  1  0
 17 18  2  0
 19 20  1  0
 20 22  1  0
 21 20  2  0
 23 22  1  6
 23 25  1  0
 24 23  1  0
 24 17  1  0
 25 26  2  0
 25 27  1  0
M  END
$$$$
