GWN.pdb
     RDKit          3D

 27 28  0  0  1  0  0  0  0  0999 V2000
    8.6880  -19.9467   19.5314 N   0  0  0  0  0  0  0  0  0  0  0  0
    8.8464  -19.4962   20.8999 C   0  0  0  0  0  0  0  0  0  0  0  0
    9.7690  -18.3328   20.9368 C   0  0  0  0  0  0  0  0  0  0  0  0
   10.3713  -17.9257   19.9103 O   0  0  0  0  0  0  0  0  0  0  0  0
    9.9925  -17.6504   22.1401 N   0  0  0  0  0  0  0  0  0  0  0  0
   10.7992  -16.4586   22.2900 C   0  0  1  0  0  0  0  0  0  0  0  0
   10.1159  -15.4829   23.2644 C   0  0  0  0  0  0  0  0  0  0  0  0
    8.8247  -15.0213   22.7295 C   0  0  0  0  0  0  0  0  0  0  0  0
    7.5853  -15.2621   23.2576 C   0  0  0  0  0  0  0  0  0  0  0  0
    6.6324  -14.6827   22.4966 N   0  0  0  0  0  0  0  0  0  0  0  0
    7.2726  -14.0704   21.4792 C   0  0  0  0  0  0  0  0  0  0  0  0
    6.8098  -13.3371   20.4201 C   0  0  0  0  0  0  0  0  0  0  0  0
    7.6977  -12.8197   19.5151 C   0  0  0  0  0  0  0  0  0  0  0  0
    9.0434  -12.9900   19.6005 C   0  0  0  0  0  0  0  0  0  0  0  0
    9.5237  -13.7324   20.6713 C   0  0  0  0  0  0  0  0  0  0  0  0
    8.6533  -14.2662   21.5991 C   0  0  0  0  0  0  0  0  0  0  0  0
   12.1440  -16.7506   22.8111 C   0  0  0  0  0  0  0  0  0  0  0  0
   12.3174  -17.6376   23.7018 O   0  0  0  0  0  0  0  0  0  0  0  0
   17.7064  -17.4994   21.9043 N   0  0  0  0  0  0  0  0  0  0  0  0
   17.0662  -16.3397   22.4646 C   0  0  0  0  0  0  0  0  0  0  0  0
   17.7039  -15.7520   23.3481 O   0  0  0  0  0  0  0  0  0  0  0  0
   15.7363  -15.9803   21.9336 C   0  0  0  0  0  0  0  0  0  0  0  0
   14.6599  -16.5300   22.8023 C   0  0  2  0  0  0  0  0  0  0  0  0
   13.3342  -16.0943   22.3843 N   0  0  0  0  0  0  0  0  0  0  0  0
   14.8090  -16.2752   24.2432 C   0  0  0  0  0  0  0  0  0  0  0  0
   14.2912  -15.2111   24.7476 O   0  0  0  0  0  0  0  0  0  0  0  0
   15.4627  -17.0677   25.1641 O   0  0  0  0  0  0  0  0  0  0  0  0
  1  2  1  0
  2  3  1  0
  3  4  2  0
  5  6  1  0
  5  3  1  0
  6 17  1  0
  7  8  1  0
  6  7  1  1
  8 16  1  0
  9  8  2  0
  9 10  1  0
 10 11  1  0
 11 12  1  0
 12 13  2  0
 14 13  1  0
 15 14  2  0
 16 11  2  0
 16 15  1  0
 17 18  2  0
 19 20  1  0
 20 22  1  0
 21 20  2  0
 23 22  1  6
 23 25  1  0
 24 23  1  0
 24 17  1  0
 25 26  2  0
 25 27  1  0
M  END
$$$$
