GWN.pdb
     RDKit          3D

 27 28  0  0  1  0  0  0  0  0999 V2000
    6.6504  -15.5577   20.1891 N   0  0  0  0  0  0  0  0  0  0  0  0
    6.8108  -16.3486   21.3930 C   0  0  0  0  0  0  0  0  0  0  0  0
    7.9288  -15.8005   22.2027 C   0  0  0  0  0  0  0  0  0  0  0  0
    8.6359  -14.8407   21.8013 O   0  0  0  0  0  0  0  0  0  0  0  0
    8.2257  -16.3519   23.4563 N   0  0  0  0  0  0  0  0  0  0  0  0
    9.2984  -15.9231   24.3276 C   0  0  1  0  0  0  0  0  0  0  0  0
    8.8109  -15.9025   25.7871 C   0  0  0  0  0  0  0  0  0  0  0  0
    7.6039  -15.0721   25.9283 C   0  0  0  0  0  0  0  0  0  0  0  0
    6.3048  -15.5008   25.8900 C   0  0  0  0  0  0  0  0  0  0  0  0
    5.4634  -14.4576   26.0538 N   0  0  0  0  0  0  0  0  0  0  0  0
    6.2350  -13.3603   26.1969 C   0  0  0  0  0  0  0  0  0  0  0  0
    5.9194  -12.0426   26.3908 C   0  0  0  0  0  0  0  0  0  0  0  0
    6.9211  -11.1161   26.5054 C   0  0  0  0  0  0  0  0  0  0  0  0
    8.2428  -11.4256   26.4377 C   0  0  0  0  0  0  0  0  0  0  0  0
    8.5741  -12.7598   26.2413 C   0  0  0  0  0  0  0  0  0  0  0  0
    7.5866  -13.7158   26.1222 C   0  0  0  0  0  0  0  0  0  0  0  0
   10.4713  -16.8087   24.2548 C   0  0  0  0  0  0  0  0  0  0  0  0
   10.3311  -18.0652   24.1470 O   0  0  0  0  0  0  0  0  0  0  0  0
   13.2114  -17.0460   21.4349 N   0  0  0  0  0  0  0  0  0  0  0  0
   13.9150  -16.1658   22.3288 C   0  0  0  0  0  0  0  0  0  0  0  0
   14.2353  -15.0678   21.8551 O   0  0  0  0  0  0  0  0  0  0  0  0
   14.1762  -16.6596   23.6955 C   0  0  0  0  0  0  0  0  0  0  0  0
   12.9521  -17.2815   24.2700 C   0  0  2  0  0  0  0  0  0  0  0  0
   11.8231  -16.3613   24.2957 N   0  0  0  0  0  0  0  0  0  0  0  0
   13.1054  -17.8794   25.6050 C   0  0  0  0  0  0  0  0  0  0  0  0
   12.4908  -17.3489   26.6029 O   0  0  0  0  0  0  0  0  0  0  0  0
   13.8582  -18.9864   25.9385 O   0  0  0  0  0  0  0  0  0  0  0  0
  1  2  1  0
  2  3  1  0
  3  4  2  0
  5  6  1  0
  5  3  1  0
  6 17  1  0
  7  8  1  0
  6  7  1  1
  8 16  1  0
  9  8  2  0
  9 10  1  0
 10 11  1  0
 11 12  1  0
 12 13  2  0
 14 13  1  0
 15 14  2  0
 16 11  2  0
 16 15  1  0
 17 18  2  0
 19 20  1  0
 20 22  1  0
 21 20  2  0
 23 22  1  1
 23 25  1  0
 24 23  1  0
 24 17  1  0
 25 26  2  0
 25 27  1  0
M  END
$$$$
