GWN.pdb
     RDKit          3D

 27 28  0  0  1  0  0  0  0  0999 V2000
    6.1541  -15.2933   20.3405 N   0  0  0  0  0  0  0  0  0  0  0  0
    6.5448  -16.2365   21.3692 C   0  0  0  0  0  0  0  0  0  0  0  0
    7.6640  -15.6698   22.1643 C   0  0  0  0  0  0  0  0  0  0  0  0
    8.3342  -14.6832   21.7648 O   0  0  0  0  0  0  0  0  0  0  0  0
    8.0040  -16.2335   23.4013 N   0  0  0  0  0  0  0  0  0  0  0  0
    9.0949  -15.8010   24.2478 C   0  0  1  0  0  0  0  0  0  0  0  0
    8.6578  -15.8338   25.7230 C   0  0  0  0  0  0  0  0  0  0  0  0
    7.5128  -14.9381   25.9537 C   0  0  0  0  0  0  0  0  0  0  0  0
    6.1971  -15.3000   26.0587 C   0  0  0  0  0  0  0  0  0  0  0  0
    5.4280  -14.2102   26.2684 N   0  0  0  0  0  0  0  0  0  0  0  0
    6.2624  -13.1506   26.2965 C   0  0  0  0  0  0  0  0  0  0  0  0
    6.0322  -11.8131   26.4748 C   0  0  0  0  0  0  0  0  0  0  0  0
    7.0842  -10.9367   26.4577 C   0  0  0  0  0  0  0  0  0  0  0  0
    8.3758  -11.3161   26.2707 C   0  0  0  0  0  0  0  0  0  0  0  0
    8.6206  -12.6709   26.0889 C   0  0  0  0  0  0  0  0  0  0  0  0
    7.5809  -13.5776   26.1012 C   0  0  0  0  0  0  0  0  0  0  0  0
   10.2867  -16.6530   24.1101 C   0  0  0  0  0  0  0  0  0  0  0  0
   10.1841  -17.9178   24.1043 O   0  0  0  0  0  0  0  0  0  0  0  0
   13.7034  -14.6047   21.5010 N   0  0  0  0  0  0  0  0  0  0  0  0
   13.5084  -15.9905   21.8335 C   0  0  0  0  0  0  0  0  0  0  0  0
   13.0097  -16.6888   20.9412 O   0  0  0  0  0  0  0  0  0  0  0  0
   13.9177  -16.4245   23.1839 C   0  0  0  0  0  0  0  0  0  0  0  0
   12.7727  -17.0467   23.9031 C   0  0  2  0  0  0  0  0  0  0  0  0
   11.6172  -16.1625   23.9746 N   0  0  0  0  0  0  0  0  0  0  0  0
   13.0649  -17.5533   25.2526 C   0  0  0  0  0  0  0  0  0  0  0  0
   14.0484  -18.3660   25.4169 O   0  0  0  0  0  0  0  0  0  0  0  0
   12.3882  -17.2543   26.4171 O   0  0  0  0  0  0  0  0  0  0  0  0
  1  2  1  0
  2  3  1  0
  3  4  2  0
  5  6  1  0
  5  3  1  0
  6 17  1  0
  7  8  1  0
  6  7  1  1
  8 16  1  0
  9  8  2  0
  9 10  1  0
 10 11  1  0
 11 12  1  0
 12 13  2  0
 14 13  1  0
 15 14  2  0
 16 11  2  0
 16 15  1  0
 17 18  2  0
 19 20  1  0
 20 22  1  0
 21 20  2  0
 23 22  1  1
 23 25  1  0
 24 23  1  0
 24 17  1  0
 25 26  2  0
 25 27  1  0
M  END
$$$$
