GWN.pdb
     RDKit          3D

 27 28  0  0  1  0  0  0  0  0999 V2000
    5.8877  -15.5209   20.1648 N   0  0  0  0  0  0  0  0  0  0  0  0
    6.6011  -16.4940   20.9679 C   0  0  0  0  0  0  0  0  0  0  0  0
    7.6608  -15.8103   21.7525 C   0  0  0  0  0  0  0  0  0  0  0  0
    8.3327  -14.8581   21.2790 O   0  0  0  0  0  0  0  0  0  0  0  0
    7.9402  -16.2196   23.0632 N   0  0  0  0  0  0  0  0  0  0  0  0
    8.9664  -15.6588   23.9154 C   0  0  1  0  0  0  0  0  0  0  0  0
    8.5415  -15.7713   25.3901 C   0  0  0  0  0  0  0  0  0  0  0  0
    7.3898  -14.9000   25.6750 C   0  0  0  0  0  0  0  0  0  0  0  0
    6.0766  -15.2770   25.7551 C   0  0  0  0  0  0  0  0  0  0  0  0
    5.2995  -14.2081   26.0318 N   0  0  0  0  0  0  0  0  0  0  0  0
    6.1263  -13.1464   26.1276 C   0  0  0  0  0  0  0  0  0  0  0  0
    5.8863  -11.8245   26.3892 C   0  0  0  0  0  0  0  0  0  0  0  0
    6.9320  -10.9413   26.4288 C   0  0  0  0  0  0  0  0  0  0  0  0
    8.2265  -11.2991   26.2202 C   0  0  0  0  0  0  0  0  0  0  0  0
    8.4812  -12.6379   25.9541 C   0  0  0  0  0  0  0  0  0  0  0  0
    7.4480  -13.5510   25.9078 C   0  0  0  0  0  0  0  0  0  0  0  0
   10.2603  -16.3430   23.7640 C   0  0  0  0  0  0  0  0  0  0  0  0
   10.3216  -17.6082   23.6898 O   0  0  0  0  0  0  0  0  0  0  0  0
   16.2353  -15.8656   23.0916 N   0  0  0  0  0  0  0  0  0  0  0  0
   15.0064  -16.2834   22.4719 C   0  0  0  0  0  0  0  0  0  0  0  0
   15.0937  -17.2623   21.7190 O   0  0  0  0  0  0  0  0  0  0  0  0
   13.7906  -15.5109   22.7955 C   0  0  0  0  0  0  0  0  0  0  0  0
   12.7610  -16.3901   23.4138 C   0  0  2  0  0  0  0  0  0  0  0  0
   11.5189  -15.6801   23.6882 N   0  0  0  0  0  0  0  0  0  0  0  0
   13.1770  -17.1032   24.6310 C   0  0  0  0  0  0  0  0  0  0  0  0
   12.8424  -16.6295   25.7793 O   0  0  0  0  0  0  0  0  0  0  0  0
   13.9134  -18.2677   24.7013 O   0  0  0  0  0  0  0  0  0  0  0  0
  1  2  1  0
  2  3  1  0
  3  4  2  0
  5  6  1  0
  5  3  1  0
  6 17  1  0
  7  8  1  0
  6  7  1  1
  8 16  1  0
  9  8  2  0
  9 10  1  0
 10 11  1  0
 11 12  1  0
 12 13  2  0
 14 13  1  0
 15 14  2  0
 16 11  2  0
 16 15  1  0
 17 18  2  0
 19 20  1  0
 20 22  1  0
 21 20  2  0
 23 22  1  1
 23 25  1  0
 24 23  1  0
 24 17  1  0
 25 26  2  0
 25 27  1  0
M  END
$$$$
