GWN.pdb
     RDKit          3D

 27 28  0  0  1  0  0  0  0  0999 V2000
    6.4281  -14.8851   20.1581 N   0  0  0  0  0  0  0  0  0  0  0  0
    6.5750  -15.7758   21.2920 C   0  0  0  0  0  0  0  0  0  0  0  0
    7.7112  -15.3239   22.1352 C   0  0  0  0  0  0  0  0  0  0  0  0
    8.4230  -14.3353   21.8222 O   0  0  0  0  0  0  0  0  0  0  0  0
    8.0204  -16.0032   23.3213 N   0  0  0  0  0  0  0  0  0  0  0  0
    9.0980  -15.6630   24.2250 C   0  0  1  0  0  0  0  0  0  0  0  0
    8.6144  -15.7739   25.6817 C   0  0  0  0  0  0  0  0  0  0  0  0
    7.4773  -14.8729   25.9299 C   0  0  0  0  0  0  0  0  0  0  0  0
    6.1548  -15.2197   25.9915 C   0  0  0  0  0  0  0  0  0  0  0  0
    5.3966  -14.1293   26.2352 N   0  0  0  0  0  0  0  0  0  0  0  0
    6.2448  -13.0845   26.3285 C   0  0  0  0  0  0  0  0  0  0  0  0
    6.0294  -11.7532   26.5629 C   0  0  0  0  0  0  0  0  0  0  0  0
    7.0935  -10.8925   26.6072 C   0  0  0  0  0  0  0  0  0  0  0  0
    8.3834  -11.2821   26.4293 C   0  0  0  0  0  0  0  0  0  0  0  0
    8.6132  -12.6306   26.1909 C   0  0  0  0  0  0  0  0  0  0  0  0
    7.5610  -13.5216   26.1407 C   0  0  0  0  0  0  0  0  0  0  0  0
   10.2650  -16.5455   24.0674 C   0  0  0  0  0  0  0  0  0  0  0  0
   10.1164  -17.7868   23.8504 O   0  0  0  0  0  0  0  0  0  0  0  0
   13.6743  -14.4722   21.7327 N   0  0  0  0  0  0  0  0  0  0  0  0
   13.5684  -15.8856   21.9775 C   0  0  0  0  0  0  0  0  0  0  0  0
   13.1916  -16.5676   21.0154 O   0  0  0  0  0  0  0  0  0  0  0  0
   13.9151  -16.3640   23.3305 C   0  0  0  0  0  0  0  0  0  0  0  0
   12.7430  -17.0230   23.9688 C   0  0  2  0  0  0  0  0  0  0  0  0
   11.6198  -16.1111   24.1392 N   0  0  0  0  0  0  0  0  0  0  0  0
   13.0067  -17.6934   25.2511 C   0  0  0  0  0  0  0  0  0  0  0  0
   12.3805  -17.2998   26.3037 O   0  0  0  0  0  0  0  0  0  0  0  0
   13.8792  -18.7375   25.4791 O   0  0  0  0  0  0  0  0  0  0  0  0
  1  2  1  0
  2  3  1  0
  3  4  2  0
  5  6  1  0
  5  3  1  0
  6 17  1  0
  7  8  1  0
  6  7  1  1
  8 16  1  0
  9  8  2  0
  9 10  1  0
 10 11  1  0
 11 12  1  0
 12 13  2  0
 14 13  1  0
 15 14  2  0
 16 11  2  0
 16 15  1  0
 17 18  2  0
 19 20  1  0
 20 22  1  0
 21 20  2  0
 23 22  1  1
 23 25  1  0
 24 23  1  0
 24 17  1  0
 25 26  2  0
 25 27  1  0
M  END
$$$$
