GWN.pdb
     RDKit          3D

 27 28  0  0  1  0  0  0  0  0999 V2000
    6.3316  -15.6945   20.4066 N   0  0  0  0  0  0  0  0  0  0  0  0
    6.8580  -16.5796   21.4264 C   0  0  0  0  0  0  0  0  0  0  0  0
    7.9822  -15.9125   22.1317 C   0  0  0  0  0  0  0  0  0  0  0  0
    8.6477  -14.9865   21.6009 O   0  0  0  0  0  0  0  0  0  0  0  0
    8.3322  -16.3086   23.4295 N   0  0  0  0  0  0  0  0  0  0  0  0
    9.3931  -15.7292   24.2248 C   0  0  1  0  0  0  0  0  0  0  0  0
    8.9662  -15.6677   25.7020 C   0  0  0  0  0  0  0  0  0  0  0  0
    7.6990  -14.9347   25.8547 C   0  0  0  0  0  0  0  0  0  0  0  0
    6.4428  -15.4738   25.9196 C   0  0  0  0  0  0  0  0  0  0  0  0
    5.5215  -14.4966   26.0594 N   0  0  0  0  0  0  0  0  0  0  0  0
    6.1990  -13.3303   26.0831 C   0  0  0  0  0  0  0  0  0  0  0  0
    5.7779  -12.0335   26.2042 C   0  0  0  0  0  0  0  0  0  0  0  0
    6.6981  -11.0194   26.1981 C   0  0  0  0  0  0  0  0  0  0  0  0
    8.0369  -11.2197   26.0766 C   0  0  0  0  0  0  0  0  0  0  0  0
    8.4748  -12.5317   25.9532 C   0  0  0  0  0  0  0  0  0  0  0  0
    7.5713  -13.5742   25.9562 C   0  0  0  0  0  0  0  0  0  0  0  0
   10.6423  -16.5030   24.1468 C   0  0  0  0  0  0  0  0  0  0  0  0
   10.8622  -17.4644   24.9452 O   0  0  0  0  0  0  0  0  0  0  0  0
   12.8615  -15.8730   19.8362 N   0  0  0  0  0  0  0  0  0  0  0  0
   12.9683  -16.9728   20.7570 C   0  0  0  0  0  0  0  0  0  0  0  0
   12.3858  -18.0114   20.4185 O   0  0  0  0  0  0  0  0  0  0  0  0
   13.7498  -16.7479   21.9892 C   0  0  0  0  0  0  0  0  0  0  0  0
   12.9210  -17.0291   23.1931 C   0  0  2  0  0  0  0  0  0  0  0  0
   11.6841  -16.2596   23.2061 N   0  0  0  0  0  0  0  0  0  0  0  0
   13.5971  -16.8596   24.4883 C   0  0  0  0  0  0  0  0  0  0  0  0
   14.2397  -17.8528   24.9937 O   0  0  0  0  0  0  0  0  0  0  0  0
   13.6315  -15.7199   25.2650 O   0  0  0  0  0  0  0  0  0  0  0  0
  1  2  1  0
  2  3  1  0
  3  4  2  0
  5  6  1  0
  5  3  1  0
  6 17  1  0
  7  8  1  0
  6  7  1  1
  8 16  1  0
  9  8  2  0
  9 10  1  0
 10 11  1  0
 11 12  1  0
 12 13  2  0
 14 13  1  0
 15 14  2  0
 16 11  2  0
 16 15  1  0
 17 18  2  0
 19 20  1  0
 20 22  1  0
 21 20  2  0
 23 22  1  6
 23 25  1  0
 24 23  1  0
 24 17  1  0
 25 26  2  0
 25 27  1  0
M  END
$$$$
