GWN.pdb
     RDKit          3D

 27 28  0  0  1  0  0  0  0  0999 V2000
    6.0217  -20.3234   22.5127 N   0  0  0  0  0  0  0  0  0  0  0  0
    6.0453  -19.0485   23.2017 C   0  0  0  0  0  0  0  0  0  0  0  0
    6.9869  -18.1288   22.5135 C   0  0  0  0  0  0  0  0  0  0  0  0
    7.6716  -18.4928   21.5231 O   0  0  0  0  0  0  0  0  0  0  0  0
    7.1355  -16.8096   22.9620 N   0  0  0  0  0  0  0  0  0  0  0  0
    7.9471  -15.7947   22.3256 C   0  0  1  0  0  0  0  0  0  0  0  0
    7.4400  -14.3960   22.7190 C   0  0  0  0  0  0  0  0  0  0  0  0
    7.1171  -14.3364   24.1538 C   0  0  0  0  0  0  0  0  0  0  0  0
    6.7842  -15.3883   24.9636 C   0  0  0  0  0  0  0  0  0  0  0  0
    6.5525  -14.9550   26.2212 N   0  0  0  0  0  0  0  0  0  0  0  0
    6.7400  -13.6191   26.2080 C   0  0  0  0  0  0  0  0  0  0  0  0
    6.6420  -12.6748   27.1940 C   0  0  0  0  0  0  0  0  0  0  0  0
    6.8914  -11.3607   26.9004 C   0  0  0  0  0  0  0  0  0  0  0  0
    7.2389  -10.9199   25.6626 C   0  0  0  0  0  0  0  0  0  0  0  0
    7.3413  -11.8697   24.6549 C   0  0  0  0  0  0  0  0  0  0  0  0
    7.0960  -13.2011   24.9206 C   0  0  0  0  0  0  0  0  0  0  0  0
    9.3651  -15.8858   22.7080 C   0  0  0  0  0  0  0  0  0  0  0  0
   10.2254  -15.0998   22.2058 O   0  0  0  0  0  0  0  0  0  0  0  0
   13.6826  -19.0017   25.5034 N   0  0  0  0  0  0  0  0  0  0  0  0
   13.0011  -17.7351   25.5125 C   0  0  0  0  0  0  0  0  0  0  0  0
   13.6981  -16.7556   25.8083 O   0  0  0  0  0  0  0  0  0  0  0  0
   11.5642  -17.7393   25.1733 C   0  0  0  0  0  0  0  0  0  0  0  0
   11.3032  -16.8748   23.9901 C   0  0  2  0  0  0  0  0  0  0  0  0
    9.8897  -16.8256   23.6412 N   0  0  0  0  0  0  0  0  0  0  0  0
   12.0779  -17.1948   22.7815 C   0  0  0  0  0  0  0  0  0  0  0  0
   13.1716  -16.5576   22.5520 O   0  0  0  0  0  0  0  0  0  0  0  0
   11.7670  -18.1333   21.8193 O   0  0  0  0  0  0  0  0  0  0  0  0
  1  2  1  0
  2  3  1  0
  3  4  2  0
  5  6  1  0
  5  3  1  0
  6 17  1  0
  7  8  1  0
  6  7  1  1
  8 16  1  0
  9  8  2  0
  9 10  1  0
 10 11  1  0
 11 12  1  0
 12 13  2  0
 14 13  1  0
 15 14  2  0
 16 11  2  0
 16 15  1  0
 17 18  2  0
 19 20  1  0
 20 22  1  0
 21 20  2  0
 23 22  1  1
 23 25  1  0
 24 23  1  0
 24 17  1  0
 25 26  2  0
 25 27  1  0
M  END
$$$$
