IMF.pdb
     RDKit          3D

 28 28  0  0  1  0  0  0  0  0999 V2000
    6.7610  -12.7315   17.9164 C   0  0  0  0  0  0  0  0  0  0  0  0
    7.4590  -14.0219   18.3732 C   0  0  0  0  0  0  0  0  0  0  0  0
    7.9593  -13.8620   19.7631 C   0  0  2  0  0  0  0  0  0  0  0  0
    8.8309  -12.6157   19.8878 C   0  0  0  0  0  0  0  0  0  0  0  0
    8.6063  -15.0542   20.3813 C   0  0  2  0  0  0  0  0  0  0  0  0
    7.6251  -16.1534   20.2164 N   0  0  0  0  0  0  0  0  0  0  0  0
    8.8271  -14.9654   21.8417 C   0  0  0  0  0  0  0  0  0  0  0  0
    9.7736  -14.2945   22.3649 O   0  0  0  0  0  0  0  0  0  0  0  0
    5.5727  -11.8066   26.2384 C   0  0  0  0  0  0  0  0  0  0  0  0
    6.6401  -13.2537   26.2142 S   0  0  0  0  0  0  0  0  0  0  0  0
    6.0780  -14.5110   25.0654 C   0  0  0  0  0  0  0  0  0  0  0  0
    6.9110  -15.7327   24.9849 C   0  0  0  0  0  0  0  0  0  0  0  0
    8.1899  -15.6231   24.1936 C   0  0  2  0  0  0  0  0  0  0  0  0
    7.9812  -15.6335   22.7863 N   0  0  0  0  0  0  0  0  0  0  0  0
    9.1588  -16.6628   24.6478 C   0  0  0  0  0  0  0  0  0  0  0  0
    9.1653  -17.7785   24.0714 O   0  0  0  0  0  0  0  0  0  0  0  0
   10.0710  -16.4244   25.7120 N   0  0  0  0  0  0  0  0  0  0  0  0
   11.0421  -17.3796   26.1558 C   0  0  1  0  0  0  0  0  0  0  0  0
   12.1182  -16.7362   26.9737 C   0  0  0  0  0  0  0  0  0  0  0  0
   11.6449  -15.8600   28.0447 C   0  0  0  0  0  0  0  0  0  0  0  0
   11.2602  -14.5676   27.7815 C   0  0  0  0  0  0  0  0  0  0  0  0
   10.8025  -13.7168   28.7807 C   0  0  0  0  0  0  0  0  0  0  0  0
   10.7201  -14.1529   30.0868 C   0  0  0  0  0  0  0  0  0  0  0  0
   11.1029  -15.4452   30.3609 C   0  0  0  0  0  0  0  0  0  0  0  0
   11.5592  -16.2873   29.3541 C   0  0  0  0  0  0  0  0  0  0  0  0
   10.3746  -18.4897   26.8724 C   0  0  0  0  0  0  0  0  0  0  0  0
   11.0478  -19.6365   27.2170 O   0  0  0  0  0  0  0  0  0  0  0  0
    9.1579  -18.3877   27.1781 O   0  0  0  0  0  0  0  0  0  0  0  0
  2  1  1  0
  3  5  1  0
  3  2  1  0
  3  4  1  6
  5  7  1  0
  5  6  1  1
  7  8  2  0
  9 10  1  0
 10 11  1  0
 11 12  1  0
 13 12  1  1
 14 13  1  0
 14  7  1  0
 15 16  2  0
 15 13  1  0
 17 15  1  0
 18 17  1  0
 18 26  1  0
 18 19  1  1
 20 19  1  0
 20 25  2  0
 21 20  1  0
 22 21  2  0
 22 23  1  0
 23 24  2  0
 24 25  1  0
 26 28  2  0
 26 27  1  0
M  END
$$$$
