IMF.pdb
     RDKit          3D

 28 28  0  0  1  0  0  0  0  0999 V2000
    7.4959  -11.7244   19.6683 C   0  0  0  0  0  0  0  0  0  0  0  0
    7.6683  -13.2339   19.4393 C   0  0  0  0  0  0  0  0  0  0  0  0
    7.9026  -13.9192   20.7366 C   0  0  2  0  0  0  0  0  0  0  0  0
    9.1021  -13.3162   21.4618 C   0  0  0  0  0  0  0  0  0  0  0  0
    7.9668  -15.4082   20.7034 C   0  0  2  0  0  0  0  0  0  0  0  0
    6.6565  -15.8379   20.1588 N   0  0  0  0  0  0  0  0  0  0  0  0
    8.0562  -16.0651   22.0262 C   0  0  0  0  0  0  0  0  0  0  0  0
    7.0880  -16.1075   22.8512 O   0  0  0  0  0  0  0  0  0  0  0  0
   10.5804  -22.1891   23.7592 C   0  0  0  0  0  0  0  0  0  0  0  0
   11.3396  -20.9139   24.7747 S   0  0  0  0  0  0  0  0  0  0  0  0
   10.3372  -19.4312   24.8903 C   0  0  0  0  0  0  0  0  0  0  0  0
   10.1461  -18.6794   23.6289 C   0  0  0  0  0  0  0  0  0  0  0  0
    9.3693  -17.3905   23.7258 C   0  0  2  0  0  0  0  0  0  0  0  0
    9.2516  -16.7117   22.4810 N   0  0  0  0  0  0  0  0  0  0  0  0
    9.9394  -16.5340   24.8063 C   0  0  0  0  0  0  0  0  0  0  0  0
   10.9440  -15.8249   24.5512 O   0  0  0  0  0  0  0  0  0  0  0  0
    9.3776  -16.5002   26.1119 N   0  0  0  0  0  0  0  0  0  0  0  0
    9.9192  -15.7288   27.1908 C   0  0  1  0  0  0  0  0  0  0  0  0
    8.8487  -15.0037   27.9451 C   0  0  0  0  0  0  0  0  0  0  0  0
    8.2292  -13.8897   27.2282 C   0  0  0  0  0  0  0  0  0  0  0  0
    6.9892  -14.0232   26.6519 C   0  0  0  0  0  0  0  0  0  0  0  0
    6.3771  -12.9785   25.9695 C   0  0  0  0  0  0  0  0  0  0  0  0
    7.0076  -11.7575   25.8494 C   0  0  0  0  0  0  0  0  0  0  0  0
    8.2494  -11.6133   26.4229 C   0  0  0  0  0  0  0  0  0  0  0  0
    8.8522  -12.6647   27.1027 C   0  0  0  0  0  0  0  0  0  0  0  0
   10.7452  -16.5889   28.0679 C   0  0  0  0  0  0  0  0  0  0  0  0
   11.5336  -16.0627   29.0623 O   0  0  0  0  0  0  0  0  0  0  0  0
   10.7301  -17.8369   27.9049 O   0  0  0  0  0  0  0  0  0  0  0  0
  2  1  1  0
  3  5  1  0
  3  2  1  0
  3  4  1  6
  5  7  1  0
  5  6  1  1
  7  8  2  0
  9 10  1  0
 10 11  1  0
 11 12  1  0
 13 12  1  6
 14 13  1  0
 14  7  1  0
 15 16  2  0
 15 13  1  0
 17 15  1  0
 18 17  1  0
 18 26  1  0
 18 19  1  1
 20 19  1  0
 20 25  2  0
 21 20  1  0
 22 21  2  0
 22 23  1  0
 23 24  2  0
 24 25  1  0
 26 28  2  0
 26 27  1  0
M  END
$$$$
