IMF.pdb
     RDKit          3D

 28 28  0  0  1  0  0  0  0  0999 V2000
    5.9170  -11.0300   26.7644 C   0  0  0  0  0  0  0  0  0  0  0  0
    5.4262  -12.4068   26.2906 C   0  0  0  0  0  0  0  0  0  0  0  0
    6.5435  -13.1511   25.6542 C   0  0  2  0  0  0  0  0  0  0  0  0
    7.2885  -12.2673   24.6580 C   0  0  0  0  0  0  0  0  0  0  0  0
    6.2131  -14.4835   25.0731 C   0  0  2  0  0  0  0  0  0  0  0  0
    5.7291  -15.2930   26.2171 N   0  0  0  0  0  0  0  0  0  0  0  0
    7.3658  -15.2419   24.5389 C   0  0  0  0  0  0  0  0  0  0  0  0
    8.1266  -15.9586   25.2650 O   0  0  0  0  0  0  0  0  0  0  0  0
    8.2129  -12.1928   19.9394 C   0  0  0  0  0  0  0  0  0  0  0  0
    8.2595  -13.8432   19.2268 S   0  0  0  0  0  0  0  0  0  0  0  0
    7.7949  -15.1183   20.3994 C   0  0  0  0  0  0  0  0  0  0  0  0
    8.9131  -15.7979   21.0929 C   0  0  0  0  0  0  0  0  0  0  0  0
    8.7503  -16.0165   22.5760 C   0  0  2  0  0  0  0  0  0  0  0  0
    7.7139  -15.2278   23.1487 N   0  0  0  0  0  0  0  0  0  0  0  0
   10.0637  -15.8421   23.2621 C   0  0  0  0  0  0  0  0  0  0  0  0
   10.6566  -14.7393   23.1650 O   0  0  0  0  0  0  0  0  0  0  0  0
   10.6591  -16.8877   24.0196 N   0  0  0  0  0  0  0  0  0  0  0  0
   11.9021  -16.7542   24.7191 C   0  0  1  0  0  0  0  0  0  0  0  0
   11.7659  -17.1183   26.1647 C   0  0  0  0  0  0  0  0  0  0  0  0
   10.8887  -16.2466   26.9452 C   0  0  0  0  0  0  0  0  0  0  0  0
   11.2741  -14.9698   27.2754 C   0  0  0  0  0  0  0  0  0  0  0  0
   10.4569  -14.1204   28.0120 C   0  0  0  0  0  0  0  0  0  0  0  0
    9.2151  -14.5421   28.4398 C   0  0  0  0  0  0  0  0  0  0  0  0
    8.8197  -15.8187   28.1145 C   0  0  0  0  0  0  0  0  0  0  0  0
    9.6449  -16.6596   27.3776 C   0  0  0  0  0  0  0  0  0  0  0  0
   12.9578  -17.5355   24.0362 C   0  0  0  0  0  0  0  0  0  0  0  0
   14.2665  -17.5014   24.4524 O   0  0  0  0  0  0  0  0  0  0  0  0
   12.6563  -18.2532   23.0472 O   0  0  0  0  0  0  0  0  0  0  0  0
  2  1  1  0
  3  5  1  0
  3  2  1  0
  3  4  1  6
  5  7  1  0
  5  6  1  1
  7  8  2  0
  9 10  1  0
 10 11  1  0
 11 12  1  0
 13 12  1  6
 14 13  1  0
 14  7  1  0
 15 16  2  0
 15 13  1  0
 17 15  1  0
 18 17  1  0
 18 26  1  0
 18 19  1  1
 20 19  1  0
 20 25  2  0
 21 20  1  0
 22 21  2  0
 22 23  1  0
 23 24  2  0
 24 25  1  0
 26 28  2  0
 26 27  1  0
M  END
$$$$
