IMF.pdb
     RDKit          3D

 28 28  0  0  1  0  0  0  0  0999 V2000
    8.4666  -20.2278   18.1711 C   0  0  0  0  0  0  0  0  0  0  0  0
    8.0422  -18.7600   18.3337 C   0  0  0  0  0  0  0  0  0  0  0  0
    8.6884  -18.1766   19.5377 C   0  0  2  0  0  0  0  0  0  0  0  0
    8.6541  -19.1598   20.7041 C   0  0  0  0  0  0  0  0  0  0  0  0
    8.2348  -16.8167   19.9464 C   0  0  2  0  0  0  0  0  0  0  0  0
    8.5534  -15.9418   18.7925 N   0  0  0  0  0  0  0  0  0  0  0  0
    8.9721  -16.2211   21.0827 C   0  0  0  0  0  0  0  0  0  0  0  0
   10.2242  -15.9942   21.0602 O   0  0  0  0  0  0  0  0  0  0  0  0
    5.5991  -12.5441   26.7786 C   0  0  0  0  0  0  0  0  0  0  0  0
    6.9715  -12.4281   25.6223 S   0  0  0  0  0  0  0  0  0  0  0  0
    7.3393  -13.9911   24.8234 C   0  0  0  0  0  0  0  0  0  0  0  0
    8.4817  -13.9830   23.8811 C   0  0  0  0  0  0  0  0  0  0  0  0
    9.0014  -15.3293   23.4435 C   0  0  2  0  0  0  0  0  0  0  0  0
    8.3239  -15.8491   22.3056 N   0  0  0  0  0  0  0  0  0  0  0  0
    9.0077  -16.2716   24.6002 C   0  0  0  0  0  0  0  0  0  0  0  0
    8.1652  -16.1110   25.5176 O   0  0  0  0  0  0  0  0  0  0  0  0
    9.9390  -17.3421   24.6907 N   0  0  0  0  0  0  0  0  0  0  0  0
   11.0606  -17.3470   25.5820 C   0  0  1  0  0  0  0  0  0  0  0  0
   11.4970  -15.9581   25.9305 C   0  0  0  0  0  0  0  0  0  0  0  0
   10.9340  -15.4221   27.1692 C   0  0  0  0  0  0  0  0  0  0  0  0
   10.9441  -16.1613   28.3273 C   0  0  0  0  0  0  0  0  0  0  0  0
   10.4197  -15.6728   29.5182 C   0  0  0  0  0  0  0  0  0  0  0  0
    9.8649  -14.4110   29.5723 C   0  0  0  0  0  0  0  0  0  0  0  0
    9.8499  -13.6628   28.4183 C   0  0  0  0  0  0  0  0  0  0  0  0
   10.3768  -14.1612   27.2330 C   0  0  0  0  0  0  0  0  0  0  0  0
   10.7560  -18.1613   26.7801 C   0  0  0  0  0  0  0  0  0  0  0  0
    9.4933  -18.6441   27.0245 O   0  0  0  0  0  0  0  0  0  0  0  0
   11.6730  -18.4232   27.6015 O   0  0  0  0  0  0  0  0  0  0  0  0
  2  1  1  0
  3  5  1  0
  3  2  1  0
  3  4  1  1
  5  7  1  0
  5  6  1  6
  7  8  2  0
  9 10  1  0
 10 11  1  0
 11 12  1  0
 13 12  1  1
 14 13  1  0
 14  7  1  0
 15 16  2  0
 15 13  1  0
 17 15  1  0
 18 17  1  0
 18 26  1  0
 18 19  1  1
 20 19  1  0
 20 25  2  0
 21 20  1  0
 22 21  2  0
 22 23  1  0
 23 24  2  0
 24 25  1  0
 26 28  2  0
 26 27  1  0
M  END
$$$$
