IMF.pdb
     RDKit          3D

 28 28  0  0  1  0  0  0  0  0999 V2000
    8.3599  -22.0768   16.6990 C   0  0  0  0  0  0  0  0  0  0  0  0
    8.9646  -21.7240   18.0668 C   0  0  0  0  0  0  0  0  0  0  0  0
    9.3909  -20.3007   18.0799 C   0  0  2  0  0  0  0  0  0  0  0  0
   10.2647  -19.9831   16.8700 C   0  0  0  0  0  0  0  0  0  0  0  0
    9.9939  -19.7958   19.3463 C   0  0  2  0  0  0  0  0  0  0  0  0
    8.9546  -20.0134   20.3810 N   0  0  0  0  0  0  0  0  0  0  0  0
   10.2591  -18.3405   19.3820 C   0  0  0  0  0  0  0  0  0  0  0  0
   10.4542  -17.6409   18.3370 O   0  0  0  0  0  0  0  0  0  0  0  0
    7.3746  -12.7844   20.4687 C   0  0  0  0  0  0  0  0  0  0  0  0
    8.3727  -13.8859   19.4566 S   0  0  0  0  0  0  0  0  0  0  0  0
    7.7072  -15.5495   19.3787 C   0  0  0  0  0  0  0  0  0  0  0  0
    8.1483  -16.4736   20.4485 C   0  0  0  0  0  0  0  0  0  0  0  0
    9.6002  -16.3948   20.8481 C   0  0  2  0  0  0  0  0  0  0  0  0
   10.3140  -17.6020   20.6090 N   0  0  0  0  0  0  0  0  0  0  0  0
    9.7139  -15.9187   22.2576 C   0  0  0  0  0  0  0  0  0  0  0  0
   10.8407  -15.5739   22.6920 O   0  0  0  0  0  0  0  0  0  0  0  0
    8.5846  -15.8459   23.1182 N   0  0  0  0  0  0  0  0  0  0  0  0
    8.4988  -14.9648   24.2446 C   0  0  1  0  0  0  0  0  0  0  0  0
    7.1038  -14.4619   24.4493 C   0  0  0  0  0  0  0  0  0  0  0  0
    6.9208  -13.5920   25.6106 C   0  0  0  0  0  0  0  0  0  0  0  0
    6.1404  -12.4641   25.5319 C   0  0  0  0  0  0  0  0  0  0  0  0
    5.9470  -11.6240   26.6221 C   0  0  0  0  0  0  0  0  0  0  0  0
    6.5432  -11.9033   27.8343 C   0  0  0  0  0  0  0  0  0  0  0  0
    7.3266  -13.0302   27.9237 C   0  0  0  0  0  0  0  0  0  0  0  0
    7.5132  -13.8632   26.8271 C   0  0  0  0  0  0  0  0  0  0  0  0
    9.0444  -15.6259   25.4515 C   0  0  0  0  0  0  0  0  0  0  0  0
    8.9266  -16.9801   25.6501 O   0  0  0  0  0  0  0  0  0  0  0  0
    9.6337  -14.9358   26.3236 O   0  0  0  0  0  0  0  0  0  0  0  0
  2  1  1  0
  3  5  1  0
  3  2  1  0
  3  4  1  6
  5  7  1  0
  5  6  1  1
  7  8  2  0
  9 10  1  0
 10 11  1  0
 11 12  1  0
 13 12  1  1
 14 13  1  0
 14  7  1  0
 15 16  2  0
 15 13  1  0
 17 15  1  0
 18 17  1  0
 18 26  1  0
 18 19  1  1
 20 19  1  0
 20 25  2  0
 21 20  1  0
 22 21  2  0
 22 23  1  0
 23 24  2  0
 24 25  1  0
 26 28  2  0
 26 27  1  0
M  END
$$$$
