IMF.pdb
     RDKit          3D

 28 28  0  0  1  0  0  0  0  0999 V2000
    7.8208  -11.9658   19.2649 C   0  0  0  0  0  0  0  0  0  0  0  0
    7.3975  -13.4277   19.4765 C   0  0  0  0  0  0  0  0  0  0  0  0
    8.5395  -14.3326   19.1854 C   0  0  2  0  0  0  0  0  0  0  0  0
    8.5620  -14.7235   17.7107 C   0  0  0  0  0  0  0  0  0  0  0  0
    8.6954  -15.5185   20.0750 C   0  0  2  0  0  0  0  0  0  0  0  0
    7.3340  -16.0942   20.1911 N   0  0  0  0  0  0  0  0  0  0  0  0
    9.0932  -15.2143   21.4674 C   0  0  0  0  0  0  0  0  0  0  0  0
    9.6869  -14.1403   21.8048 O   0  0  0  0  0  0  0  0  0  0  0  0
    7.0315  -12.4829   26.7408 C   0  0  0  0  0  0  0  0  0  0  0  0
    6.3519  -13.1114   25.1990 S   0  0  0  0  0  0  0  0  0  0  0  0
    7.5817  -13.9289   24.1813 C   0  0  0  0  0  0  0  0  0  0  0  0
    8.1084  -15.2095   24.7063 C   0  0  0  0  0  0  0  0  0  0  0  0
    9.2032  -15.8656   23.9033 C   0  0  2  0  0  0  0  0  0  0  0  0
    8.8349  -16.1150   22.5518 N   0  0  0  0  0  0  0  0  0  0  0  0
    9.6902  -17.0857   24.6104 C   0  0  0  0  0  0  0  0  0  0  0  0
    9.1955  -18.1997   24.3079 O   0  0  0  0  0  0  0  0  0  0  0  0
   10.6952  -17.0204   25.6139 N   0  0  0  0  0  0  0  0  0  0  0  0
   10.5815  -17.6508   26.8953 C   0  0  1  0  0  0  0  0  0  0  0  0
    9.5395  -16.9934   27.7454 C   0  0  0  0  0  0  0  0  0  0  0  0
    9.9035  -15.6769   28.2679 C   0  0  0  0  0  0  0  0  0  0  0  0
    9.0791  -14.5928   28.0871 C   0  0  0  0  0  0  0  0  0  0  0  0
    9.4001  -13.3326   28.5777 C   0  0  0  0  0  0  0  0  0  0  0  0
   10.5751  -13.1311   29.2718 C   0  0  0  0  0  0  0  0  0  0  0  0
   11.4074  -14.2100   29.4584 C   0  0  0  0  0  0  0  0  0  0  0  0
   11.0767  -15.4656   28.9632 C   0  0  0  0  0  0  0  0  0  0  0  0
   10.3430  -19.1024   26.7298 C   0  0  0  0  0  0  0  0  0  0  0  0
    9.2089  -19.5844   26.1226 O   0  0  0  0  0  0  0  0  0  0  0  0
   11.1975  -19.9236   27.1537 O   0  0  0  0  0  0  0  0  0  0  0  0
  2  1  1  0
  3  5  1  0
  3  2  1  0
  3  4  1  6
  5  7  1  0
  5  6  1  1
  7  8  2  0
  9 10  1  0
 10 11  1  0
 11 12  1  0
 13 12  1  1
 14 13  1  0
 14  7  1  0
 15 16  2  0
 15 13  1  0
 17 15  1  0
 18 17  1  0
 18 26  1  0
 18 19  1  6
 20 19  1  0
 20 25  2  0
 21 20  1  0
 22 21  2  0
 22 23  1  0
 23 24  2  0
 24 25  1  0
 26 28  2  0
 26 27  1  0
M  END
$$$$
