IMF.pdb
     RDKit          3D

 28 28  0  0  1  0  0  0  0  0999 V2000
    6.7650  -12.9791   17.2373 C   0  0  0  0  0  0  0  0  0  0  0  0
    7.7327  -14.0309   17.8013 C   0  0  0  0  0  0  0  0  0  0  0  0
    7.9291  -13.8090   19.2572 C   0  0  2  0  0  0  0  0  0  0  0  0
    8.3824  -12.3785   19.5335 C   0  0  0  0  0  0  0  0  0  0  0  0
    8.7721  -14.8057   19.9770 C   0  0  2  0  0  0  0  0  0  0  0  0
    8.0673  -16.0993   19.8084 N   0  0  0  0  0  0  0  0  0  0  0  0
    8.8610  -14.6159   21.4417 C   0  0  0  0  0  0  0  0  0  0  0  0
    8.9780  -13.4741   21.9916 O   0  0  0  0  0  0  0  0  0  0  0  0
    6.4858  -11.6804   25.9154 C   0  0  0  0  0  0  0  0  0  0  0  0
    6.1255  -13.4188   26.2020 S   0  0  0  0  0  0  0  0  0  0  0  0
    7.4612  -14.4982   25.6849 C   0  0  0  0  0  0  0  0  0  0  0  0
    7.6383  -14.6537   24.2229 C   0  0  0  0  0  0  0  0  0  0  0  0
    8.7461  -15.5731   23.7742 C   0  0  2  0  0  0  0  0  0  0  0  0
    8.8190  -15.7151   22.3604 N   0  0  0  0  0  0  0  0  0  0  0  0
    8.6422  -16.8793   24.4876 C   0  0  0  0  0  0  0  0  0  0  0  0
    7.5072  -17.2962   24.8268 O   0  0  0  0  0  0  0  0  0  0  0  0
    9.7900  -17.6611   24.7924 N   0  0  0  0  0  0  0  0  0  0  0  0
   10.6598  -17.3980   25.8999 C   0  0  1  0  0  0  0  0  0  0  0  0
   11.0071  -15.9452   25.9984 C   0  0  0  0  0  0  0  0  0  0  0  0
   10.7791  -15.3392   27.3097 C   0  0  0  0  0  0  0  0  0  0  0  0
   10.3820  -14.0288   27.4226 C   0  0  0  0  0  0  0  0  0  0  0  0
   10.1543  -13.4312   28.6566 C   0  0  0  0  0  0  0  0  0  0  0  0
   10.3235  -14.1486   29.8226 C   0  0  0  0  0  0  0  0  0  0  0  0
   10.7209  -15.4614   29.7206 C   0  0  0  0  0  0  0  0  0  0  0  0
   10.9459  -16.0488   28.4815 C   0  0  0  0  0  0  0  0  0  0  0  0
   10.0665  -17.9236   27.1501 C   0  0  0  0  0  0  0  0  0  0  0  0
    8.7137  -17.8761   27.3844 O   0  0  0  0  0  0  0  0  0  0  0  0
   10.8146  -18.4295   28.0268 O   0  0  0  0  0  0  0  0  0  0  0  0
  2  1  1  0
  3  5  1  0
  3  2  1  0
  3  4  1  6
  5  7  1  0
  5  6  1  1
  7  8  2  0
  9 10  1  0
 10 11  1  0
 11 12  1  0
 13 12  1  6
 14 13  1  0
 14  7  1  0
 15 16  2  0
 15 13  1  0
 17 15  1  0
 18 17  1  0
 18 26  1  0
 18 19  1  1
 20 19  1  0
 20 25  2  0
 21 20  1  0
 22 21  2  0
 22 23  1  0
 23 24  2  0
 24 25  1  0
 26 28  2  0
 26 27  1  0
M  END
$$$$
