IMF.pdb
     RDKit          3D

 28 28  0  0  1  0  0  0  0  0999 V2000
    2.5507  -18.4962   20.0324 C   0  0  0  0  0  0  0  0  0  0  0  0
    3.6084  -18.1208   21.0818 C   0  0  0  0  0  0  0  0  0  0  0  0
    4.2403  -19.3505   21.6261 C   0  0  2  0  0  0  0  0  0  0  0  0
    3.1834  -20.3234   22.1407 C   0  0  0  0  0  0  0  0  0  0  0  0
    5.3404  -19.1553   22.6129 C   0  0  2  0  0  0  0  0  0  0  0  0
    4.7063  -18.4732   23.7665 N   0  0  0  0  0  0  0  0  0  0  0  0
    6.4186  -18.2380   22.1819 C   0  0  0  0  0  0  0  0  0  0  0  0
    7.3801  -18.5961   21.4290 O   0  0  0  0  0  0  0  0  0  0  0  0
    6.9972  -12.3814   19.0094 C   0  0  0  0  0  0  0  0  0  0  0  0
    7.6266  -12.1410   20.6767 S   0  0  0  0  0  0  0  0  0  0  0  0
    8.1621  -13.6715   21.4432 C   0  0  0  0  0  0  0  0  0  0  0  0
    7.0948  -14.6540   21.7409 C   0  0  0  0  0  0  0  0  0  0  0  0
    7.5403  -15.9804   22.3033 C   0  0  2  0  0  0  0  0  0  0  0  0
    6.4595  -16.8626   22.5825 N   0  0  0  0  0  0  0  0  0  0  0  0
    8.4324  -15.7598   23.4786 C   0  0  0  0  0  0  0  0  0  0  0  0
    9.4690  -15.0663   23.3311 O   0  0  0  0  0  0  0  0  0  0  0  0
    8.1409  -16.3121   24.7559 N   0  0  0  0  0  0  0  0  0  0  0  0
    8.9726  -16.1323   25.9084 C   0  0  1  0  0  0  0  0  0  0  0  0
    8.2187  -15.5140   27.0443 C   0  0  0  0  0  0  0  0  0  0  0  0
    7.6483  -14.1961   26.7674 C   0  0  0  0  0  0  0  0  0  0  0  0
    6.3302  -14.0592   26.4049 C   0  0  0  0  0  0  0  0  0  0  0  0
    5.7633  -12.8179   26.1411 C   0  0  0  0  0  0  0  0  0  0  0  0
    6.5205  -11.6689   26.2374 C   0  0  0  0  0  0  0  0  0  0  0  0
    7.8414  -11.7950   26.5996 C   0  0  0  0  0  0  0  0  0  0  0  0
    8.3979  -13.0412   26.8609 C   0  0  0  0  0  0  0  0  0  0  0  0
    9.6081  -17.4155   26.2836 C   0  0  0  0  0  0  0  0  0  0  0  0
    9.3576  -18.5760   25.5925 O   0  0  0  0  0  0  0  0  0  0  0  0
   10.4008  -17.4527   27.2605 O   0  0  0  0  0  0  0  0  0  0  0  0
  2  1  1  0
  3  5  1  0
  3  2  1  0
  3  4  1  1
  5  7  1  0
  5  6  1  1
  7  8  2  0
  9 10  1  0
 10 11  1  0
 11 12  1  0
 13 12  1  1
 14 13  1  0
 14  7  1  0
 15 16  2  0
 15 13  1  0
 17 15  1  0
 18 17  1  0
 18 26  1  0
 18 19  1  1
 20 19  1  0
 20 25  2  0
 21 20  1  0
 22 21  2  0
 22 23  1  0
 23 24  2  0
 24 25  1  0
 26 28  2  0
 26 27  1  0
M  END
$$$$
