IMF.pdb
     RDKit          3D

 28 28  0  0  1  0  0  0  0  0999 V2000
    6.2154  -22.3548   24.0039 C   0  0  0  0  0  0  0  0  0  0  0  0
    5.9672  -21.3566   22.8625 C   0  0  0  0  0  0  0  0  0  0  0  0
    6.9023  -20.2082   22.9821 C   0  0  2  0  0  0  0  0  0  0  0  0
    6.9042  -19.6535   24.4036 C   0  0  0  0  0  0  0  0  0  0  0  0
    6.7648  -19.1263   21.9658 C   0  0  2  0  0  0  0  0  0  0  0  0
    6.8948  -19.8095   20.6563 N   0  0  0  0  0  0  0  0  0  0  0  0
    7.8460  -18.1161   21.9701 C   0  0  0  0  0  0  0  0  0  0  0  0
    9.0430  -18.3734   21.6226 O   0  0  0  0  0  0  0  0  0  0  0  0
    8.3183  -11.6482   20.1953 C   0  0  0  0  0  0  0  0  0  0  0  0
    6.9571  -12.8145   20.0504 S   0  0  0  0  0  0  0  0  0  0  0  0
    7.3473  -14.4246   20.7372 C   0  0  0  0  0  0  0  0  0  0  0  0
    8.2184  -14.4234   21.9347 C   0  0  0  0  0  0  0  0  0  0  0  0
    8.6456  -15.7722   22.4564 C   0  0  2  0  0  0  0  0  0  0  0  0
    7.6230  -16.7574   22.3677 N   0  0  0  0  0  0  0  0  0  0  0  0
    9.2025  -15.6310   23.8333 C   0  0  0  0  0  0  0  0  0  0  0  0
   10.2351  -14.9363   24.0013 O   0  0  0  0  0  0  0  0  0  0  0  0
    8.5973  -16.2603   24.9555 N   0  0  0  0  0  0  0  0  0  0  0  0
    9.1426  -16.2198   26.2796 C   0  0  1  0  0  0  0  0  0  0  0  0
    8.1854  -15.6079   27.2543 C   0  0  0  0  0  0  0  0  0  0  0  0
    7.6011  -14.3343   26.8356 C   0  0  0  0  0  0  0  0  0  0  0  0
    8.2969  -13.1581   26.9765 C   0  0  0  0  0  0  0  0  0  0  0  0
    7.7659  -11.9357   26.5821 C   0  0  0  0  0  0  0  0  0  0  0  0
    6.5041  -11.8675   26.0288 C   0  0  0  0  0  0  0  0  0  0  0  0
    5.7991  -13.0395   25.8833 C   0  0  0  0  0  0  0  0  0  0  0  0
    6.3398  -14.2562   26.2813 C   0  0  0  0  0  0  0  0  0  0  0  0
    9.5818  -17.5721   26.6915 C   0  0  0  0  0  0  0  0  0  0  0  0
    9.4967  -18.6497   25.8436 O   0  0  0  0  0  0  0  0  0  0  0  0
   10.0472  -17.7477   27.8476 O   0  0  0  0  0  0  0  0  0  0  0  0
  2  1  1  0
  3  5  1  0
  3  2  1  0
  3  4  1  1
  5  7  1  0
  5  6  1  6
  7  8  2  0
  9 10  1  0
 10 11  1  0
 11 12  1  0
 13 12  1  1
 14 13  1  0
 14  7  1  0
 15 16  2  0
 15 13  1  0
 17 15  1  0
 18 17  1  0
 18 26  1  0
 18 19  1  1
 20 19  1  0
 20 25  2  0
 21 20  1  0
 22 21  2  0
 22 23  1  0
 23 24  2  0
 24 25  1  0
 26 28  2  0
 26 27  1  0
M  END
$$$$
