IMF.pdb
     RDKit          3D

 28 28  0  0  1  0  0  0  0  0999 V2000
    3.6660  -21.3335   23.6853 C   0  0  0  0  0  0  0  0  0  0  0  0
    3.8055  -20.4774   22.4169 C   0  0  0  0  0  0  0  0  0  0  0  0
    5.0389  -19.6528   22.4958 C   0  0  2  0  0  0  0  0  0  0  0  0
    5.1038  -18.8959   23.8192 C   0  0  0  0  0  0  0  0  0  0  0  0
    5.3225  -18.7625   21.3343 C   0  0  2  0  0  0  0  0  0  0  0  0
    5.3493  -19.6630   20.1567 N   0  0  0  0  0  0  0  0  0  0  0  0
    6.6548  -18.1187   21.3438 C   0  0  0  0  0  0  0  0  0  0  0  0
    7.7422  -18.7629   21.1949 O   0  0  0  0  0  0  0  0  0  0  0  0
    7.8104  -11.5624   19.7615 C   0  0  0  0  0  0  0  0  0  0  0  0
    7.0176  -12.9617   18.9571 S   0  0  0  0  0  0  0  0  0  0  0  0
    6.8988  -14.3988   20.0236 C   0  0  0  0  0  0  0  0  0  0  0  0
    8.1766  -14.8978   20.5815 C   0  0  0  0  0  0  0  0  0  0  0  0
    8.0824  -16.0479   21.5522 C   0  0  2  0  0  0  0  0  0  0  0  0
    6.8216  -16.7064   21.5209 N   0  0  0  0  0  0  0  0  0  0  0  0
    8.4691  -15.5918   22.9191 C   0  0  0  0  0  0  0  0  0  0  0  0
    7.8021  -14.6782   23.4646 O   0  0  0  0  0  0  0  0  0  0  0  0
    9.5687  -16.1620   23.6171 N   0  0  0  0  0  0  0  0  0  0  0  0
   10.0563  -15.6692   24.8709 C   0  0  1  0  0  0  0  0  0  0  0  0
    8.9935  -15.6894   25.9249 C   0  0  0  0  0  0  0  0  0  0  0  0
    9.4045  -15.1777   27.2318 C   0  0  0  0  0  0  0  0  0  0  0  0
    9.2947  -13.8418   27.5333 C   0  0  0  0  0  0  0  0  0  0  0  0
    9.6738  -13.3315   28.7693 C   0  0  0  0  0  0  0  0  0  0  0  0
   10.1796  -14.1656   29.7447 C   0  0  0  0  0  0  0  0  0  0  0  0
   10.2936  -15.5049   29.4528 C   0  0  0  0  0  0  0  0  0  0  0  0
    9.9116  -16.0043   28.2136 C   0  0  0  0  0  0  0  0  0  0  0  0
   11.2683  -16.4166   25.2756 C   0  0  0  0  0  0  0  0  0  0  0  0
   12.4192  -15.7735   25.6617 O   0  0  0  0  0  0  0  0  0  0  0  0
   11.2520  -17.6751   25.2688 O   0  0  0  0  0  0  0  0  0  0  0  0
  2  1  1  0
  3  5  1  0
  3  2  1  0
  3  4  1  1
  5  7  1  0
  5  6  1  6
  7  8  2  0
  9 10  1  0
 10 11  1  0
 11 12  1  0
 13 12  1  6
 14 13  1  0
 14  7  1  0
 15 16  2  0
 15 13  1  0
 17 15  1  0
 18 17  1  0
 18 26  1  0
 18 19  1  1
 20 19  1  0
 20 25  2  0
 21 20  1  0
 22 21  2  0
 22 23  1  0
 23 24  2  0
 24 25  1  0
 26 28  2  0
 26 27  1  0
M  END
$$$$
