IMF.pdb
     RDKit          3D

 28 28  0  0  1  0  0  0  0  0999 V2000
   10.3507  -22.8725   21.2662 C   0  0  0  0  0  0  0  0  0  0  0  0
    9.2969  -21.7830   21.0142 C   0  0  0  0  0  0  0  0  0  0  0  0
    9.8026  -20.4697   21.4908 C   0  0  2  0  0  0  0  0  0  0  0  0
   10.4130  -20.5946   22.8837 C   0  0  0  0  0  0  0  0  0  0  0  0
    8.8600  -19.3184   21.4006 C   0  0  2  0  0  0  0  0  0  0  0  0
    8.3834  -19.3203   19.9966 N   0  0  0  0  0  0  0  0  0  0  0  0
    9.4739  -17.9849   21.5858 C   0  0  0  0  0  0  0  0  0  0  0  0
   10.6402  -17.6898   21.1708 O   0  0  0  0  0  0  0  0  0  0  0  0
    6.5899  -12.1215   21.0069 C   0  0  0  0  0  0  0  0  0  0  0  0
    7.3129  -13.2227   19.7828 S   0  0  0  0  0  0  0  0  0  0  0  0
    8.0975  -14.6579   20.5184 C   0  0  0  0  0  0  0  0  0  0  0  0
    8.5478  -14.5015   21.9205 C   0  0  0  0  0  0  0  0  0  0  0  0
    9.3622  -15.6331   22.4950 C   0  0  2  0  0  0  0  0  0  0  0  0
    8.7927  -16.9139   22.2514 N   0  0  0  0  0  0  0  0  0  0  0  0
    9.6344  -15.3805   23.9400 C   0  0  0  0  0  0  0  0  0  0  0  0
   10.1228  -14.2748   24.2805 O   0  0  0  0  0  0  0  0  0  0  0  0
    9.3566  -16.3550   24.9373 N   0  0  0  0  0  0  0  0  0  0  0  0
    9.5889  -16.1497   26.3360 C   0  0  1  0  0  0  0  0  0  0  0  0
    8.3509  -15.6910   27.0414 C   0  0  0  0  0  0  0  0  0  0  0  0
    7.7603  -14.4580   26.5221 C   0  0  0  0  0  0  0  0  0  0  0  0
    8.3087  -13.2335   26.8173 C   0  0  0  0  0  0  0  0  0  0  0  0
    7.7692  -12.0479   26.3323 C   0  0  0  0  0  0  0  0  0  0  0  0
    6.6491  -12.0673   25.5274 C   0  0  0  0  0  0  0  0  0  0  0  0
    6.0923  -13.2882   25.2259 C   0  0  0  0  0  0  0  0  0  0  0  0
    6.6399  -14.4675   25.7164 C   0  0  0  0  0  0  0  0  0  0  0  0
   10.1650  -17.3714   26.9416 C   0  0  0  0  0  0  0  0  0  0  0  0
   10.5480  -17.4135   28.2602 O   0  0  0  0  0  0  0  0  0  0  0  0
   10.3108  -18.4037   26.2364 O   0  0  0  0  0  0  0  0  0  0  0  0
  2  1  1  0
  3  5  1  0
  3  2  1  0
  3  4  1  1
  5  7  1  0
  5  6  1  6
  7  8  2  0
  9 10  1  0
 10 11  1  0
 11 12  1  0
 13 12  1  1
 14 13  1  0
 14  7  1  0
 15 16  2  0
 15 13  1  0
 17 15  1  0
 18 17  1  0
 18 26  1  0
 18 19  1  1
 20 19  1  0
 20 25  2  0
 21 20  1  0
 22 21  2  0
 22 23  1  0
 23 24  2  0
 24 25  1  0
 26 28  2  0
 26 27  1  0
M  END
$$$$
