IMF.pdb
     RDKit          3D

 28 28  0  0  1  0  0  0  0  0999 V2000
    2.4588  -17.7509   20.8984 C   0  0  0  0  0  0  0  0  0  0  0  0
    3.8074  -18.3813   20.5177 C   0  0  0  0  0  0  0  0  0  0  0  0
    4.1537  -19.4570   21.4824 C   0  0  2  0  0  0  0  0  0  0  0  0
    2.8945  -20.0799   22.0780 C   0  0  0  0  0  0  0  0  0  0  0  0
    5.1528  -19.1144   22.5343 C   0  0  2  0  0  0  0  0  0  0  0  0
    4.4108  -18.2859   23.5147 N   0  0  0  0  0  0  0  0  0  0  0  0
    6.2701  -18.2539   22.0864 C   0  0  0  0  0  0  0  0  0  0  0  0
    7.2204  -18.6712   21.3499 O   0  0  0  0  0  0  0  0  0  0  0  0
    6.6338  -11.7621   19.9336 C   0  0  0  0  0  0  0  0  0  0  0  0
    7.9828  -12.8754   19.5158 S   0  0  0  0  0  0  0  0  0  0  0  0
    8.3225  -14.0697   20.8099 C   0  0  0  0  0  0  0  0  0  0  0  0
    7.1798  -14.9142   21.2271 C   0  0  0  0  0  0  0  0  0  0  0  0
    7.4912  -16.0468   22.1727 C   0  0  2  0  0  0  0  0  0  0  0  0
    6.3653  -16.8711   22.4505 N   0  0  0  0  0  0  0  0  0  0  0  0
    8.1437  -15.5151   23.4046 C   0  0  0  0  0  0  0  0  0  0  0  0
    7.7381  -14.4277   23.8842 O   0  0  0  0  0  0  0  0  0  0  0  0
    9.2086  -16.2045   24.0466 N   0  0  0  0  0  0  0  0  0  0  0  0
    9.7468  -15.8272   25.3196 C   0  0  1  0  0  0  0  0  0  0  0  0
    8.6869  -15.7750   26.3755 C   0  0  0  0  0  0  0  0  0  0  0  0
    7.9473  -14.5156   26.4519 C   0  0  0  0  0  0  0  0  0  0  0  0
    6.5848  -14.4854   26.2784 C   0  0  0  0  0  0  0  0  0  0  0  0
    5.8586  -13.3025   26.3509 C   0  0  0  0  0  0  0  0  0  0  0  0
    6.4957  -12.1053   26.6033 C   0  0  0  0  0  0  0  0  0  0  0  0
    7.8597  -12.1248   26.7786 C   0  0  0  0  0  0  0  0  0  0  0  0
    8.5760  -13.3132   26.7037 C   0  0  0  0  0  0  0  0  0  0  0  0
   10.8661  -16.7241   25.6858 C   0  0  0  0  0  0  0  0  0  0  0  0
   11.9261  -16.2863   26.4421 O   0  0  0  0  0  0  0  0  0  0  0  0
   10.8535  -17.9215   25.2981 O   0  0  0  0  0  0  0  0  0  0  0  0
  2  1  1  0
  3  5  1  0
  3  2  1  0
  3  4  1  1
  5  7  1  0
  5  6  1  1
  7  8  2  0
  9 10  1  0
 10 11  1  0
 11 12  1  0
 13 12  1  6
 14 13  1  0
 14  7  1  0
 15 16  2  0
 15 13  1  0
 17 15  1  0
 18 17  1  0
 18 26  1  0
 18 19  1  1
 20 19  1  0
 20 25  2  0
 21 20  1  0
 22 21  2  0
 22 23  1  0
 23 24  2  0
 24 25  1  0
 26 28  2  0
 26 27  1  0
M  END
$$$$
