ILF.pdb
     RDKit          3D

 28 28  0  0  1  0  0  0  0  0999 V2000
   24.3417  -32.0874  -16.2781 C   0  0  0  0  0  0  0  0  0  0  0  0
   25.6065  -31.3141  -16.4682 C   0  0  0  0  0  0  0  0  0  0  0  0
   26.7561  -32.1676  -16.9372 C   0  0  2  0  0  0  0  0  0  0  0  0
   26.9265  -33.2470  -15.8816 C   0  0  0  0  0  0  0  0  0  0  0  0
   27.9663  -31.3314  -17.1058 C   0  0  2  0  0  0  0  0  0  0  0  0
   27.7628  -30.3284  -18.1191 N   0  0  0  0  0  0  0  0  0  0  0  0
   29.2023  -32.1080  -17.3725 C   0  0  0  0  0  0  0  0  0  0  0  0
   29.3691  -32.7898  -18.4098 O   0  0  0  0  0  0  0  0  0  0  0  0
   34.2863  -30.5233  -17.5793 C   0  0  0  0  0  0  0  0  0  0  0  0
   33.1365  -31.5022  -17.9685 C   0  0  1  0  0  0  0  0  0  0  0  0
   33.8193  -32.5694  -18.7684 C   0  0  0  0  0  0  0  0  0  0  0  0
   32.5402  -31.9225  -16.6846 C   0  0  0  0  0  0  0  0  0  0  0  0
   31.4503  -32.9375  -16.6520 C   0  0  2  0  0  0  0  0  0  0  0  0
   30.2317  -32.0768  -16.4178 N   0  0  0  0  0  0  0  0  0  0  0  0
   31.4991  -33.8759  -15.5364 C   0  0  0  0  0  0  0  0  0  0  0  0
   31.8221  -33.3985  -14.3906 O   0  0  0  0  0  0  0  0  0  0  0  0
   31.2199  -35.2641  -15.5563 N   0  0  0  0  0  0  0  0  0  0  0  0
   31.2679  -36.0051  -14.3339 C   0  0  1  0  0  0  0  0  0  0  0  0
   29.8397  -36.5138  -14.0929 C   0  0  0  0  0  0  0  0  0  0  0  0
   28.9555  -35.3800  -13.7678 C   0  0  0  0  0  0  0  0  0  0  0  0
   28.2735  -34.6581  -14.7249 C   0  0  0  0  0  0  0  0  0  0  0  0
   27.4653  -33.6104  -14.3379 C   0  0  0  0  0  0  0  0  0  0  0  0
   27.3250  -33.2697  -13.0124 C   0  0  0  0  0  0  0  0  0  0  0  0
   28.0076  -33.9937  -12.0658 C   0  0  0  0  0  0  0  0  0  0  0  0
   28.8191  -35.0428  -12.4320 C   0  0  0  0  0  0  0  0  0  0  0  0
   32.1946  -37.1402  -14.3518 C   0  0  0  0  0  0  0  0  0  0  0  0
   32.4192  -37.9904  -13.2910 O   0  0  0  0  0  0  0  0  0  0  0  0
   32.8624  -37.3957  -15.4044 O   0  0  0  0  0  0  0  0  0  0  0  0
  2  1  1  0
  3  2  1  0
  3  4  1  1
  5  6  1  6
  5  3  1  0
  7  5  1  0
  8  7  2  0
 10  9  1  1
 10 12  1  0
 11 10  1  0
 13 12  1  1
 13 14  1  0
 14  7  1  0
 15 13  1  0
 15 17  1  0
 16 15  2  0
 18 26  1  0
 18 19  1  6
 18 17  1  0
 20 19  1  0
 20 25  2  0
 21 20  1  0
 22 21  2  0
 22 23  1  0
 23 24  2  0
 24 25  1  0
 26 27  1  0
 28 26  2  0
M  END
$$$$
