ILF.pdb
     RDKit          3D

 28 28  0  0  1  0  0  0  0  0999 V2000
   19.5091  -20.3863  -13.4138 C   0  0  0  0  0  0  0  0  0  0  0  0
   20.9318  -20.2333  -13.8456 C   0  0  0  0  0  0  0  0  0  0  0  0
   21.9018  -20.9635  -12.9536 C   0  0  2  0  0  0  0  0  0  0  0  0
   21.6691  -20.4167  -11.5554 C   0  0  0  0  0  0  0  0  0  0  0  0
   23.2858  -20.7470  -13.4332 C   0  0  2  0  0  0  0  0  0  0  0  0
   23.4403  -21.2101  -14.7882 N   0  0  0  0  0  0  0  0  0  0  0  0
   24.3267  -21.3333  -12.5531 C   0  0  0  0  0  0  0  0  0  0  0  0
   24.5493  -22.5641  -12.4861 O   0  0  0  0  0  0  0  0  0  0  0  0
   29.2177  -21.3904  -10.3635 C   0  0  0  0  0  0  0  0  0  0  0  0
   28.6521  -20.3120  -11.3376 C   0  0  1  0  0  0  0  0  0  0  0  0
   29.7466  -20.1152  -12.3416 C   0  0  0  0  0  0  0  0  0  0  0  0
   27.3875  -20.8805  -11.8459 C   0  0  0  0  0  0  0  0  0  0  0  0
   26.2191  -21.0596  -10.9392 C   0  0  2  0  0  0  0  0  0  0  0  0
   25.0969  -20.4684  -11.7590 N   0  0  0  0  0  0  0  0  0  0  0  0
   26.2607  -20.2892   -9.7015 C   0  0  0  0  0  0  0  0  0  0  0  0
   26.0191  -19.0328   -9.7918 O   0  0  0  0  0  0  0  0  0  0  0  0
   26.5264  -20.7615   -8.3931 N   0  0  0  0  0  0  0  0  0  0  0  0
   26.5841  -19.8283   -7.3106 C   0  0  1  0  0  0  0  0  0  0  0  0
   26.6008  -20.6713   -6.0278 C   0  0  0  0  0  0  0  0  0  0  0  0
   27.9251  -20.5773   -5.3873 C   0  0  0  0  0  0  0  0  0  0  0  0
   29.0640  -21.1385   -5.9263 C   0  0  0  0  0  0  0  0  0  0  0  0
   30.2658  -21.0054   -5.2641 C   0  0  0  0  0  0  0  0  0  0  0  0
   30.3522  -20.3222   -4.0731 C   0  0  0  0  0  0  0  0  0  0  0  0
   29.2134  -19.7664   -3.5434 C   0  0  0  0  0  0  0  0  0  0  0  0
   28.0045  -19.8883   -4.1892 C   0  0  0  0  0  0  0  0  0  0  0  0
   27.7564  -18.9491   -7.3331 C   0  0  0  0  0  0  0  0  0  0  0  0
   27.8415  -17.7334   -6.6901 O   0  0  0  0  0  0  0  0  0  0  0  0
   28.7945  -19.2946   -7.9828 O   0  0  0  0  0  0  0  0  0  0  0  0
  2  1  1  0
  3  2  1  0
  3  4  1  1
  5  6  1  6
  5  3  1  0
  7  5  1  0
  8  7  2  0
 10  9  1  1
 10 12  1  0
 11 10  1  0
 13 12  1  6
 13 14  1  0
 14  7  1  0
 15 13  1  0
 15 17  1  0
 16 15  2  0
 18 26  1  0
 18 19  1  1
 18 17  1  0
 20 19  1  0
 20 25  2  0
 21 20  1  0
 22 21  2  0
 22 23  1  0
 23 24  2  0
 24 25  1  0
 26 27  1  0
 28 26  2  0
M  END
$$$$
