ILF.pdb
     RDKit          3D

 28 28  0  0  1  0  0  0  0  0999 V2000
   24.2343  -17.2701  -17.0107 C   0  0  0  0  0  0  0  0  0  0  0  0
   25.2741  -18.2937  -16.6870 C   0  0  0  0  0  0  0  0  0  0  0  0
   26.3444  -17.7766  -15.7613 C   0  0  2  0  0  0  0  0  0  0  0  0
   27.0425  -16.6605  -16.5199 C   0  0  0  0  0  0  0  0  0  0  0  0
   27.2600  -18.8784  -15.3871 C   0  0  2  0  0  0  0  0  0  0  0  0
   27.8718  -19.4592  -16.5545 N   0  0  0  0  0  0  0  0  0  0  0  0
   26.6299  -19.9252  -14.5452 C   0  0  0  0  0  0  0  0  0  0  0  0
   26.2297  -21.0200  -15.0036 O   0  0  0  0  0  0  0  0  0  0  0  0
   28.7145  -20.8612   -9.7637 C   0  0  0  0  0  0  0  0  0  0  0  0
   28.1649  -21.0037  -11.2160 C   0  0  1  0  0  0  0  0  0  0  0  0
   28.5493  -22.3947  -11.6184 C   0  0  0  0  0  0  0  0  0  0  0  0
   26.7184  -20.7264  -11.1071 C   0  0  0  0  0  0  0  0  0  0  0  0
   25.8491  -20.7524  -12.3165 C   0  0  2  0  0  0  0  0  0  0  0  0
   26.4753  -19.6767  -13.1718 N   0  0  0  0  0  0  0  0  0  0  0  0
   24.4657  -20.3418  -12.1046 C   0  0  0  0  0  0  0  0  0  0  0  0
   24.2670  -19.1153  -11.7862 O   0  0  0  0  0  0  0  0  0  0  0  0
   23.2974  -21.1340  -12.2188 N   0  0  0  0  0  0  0  0  0  0  0  0
   22.1492  -20.5961  -12.8805 C   0  0  1  0  0  0  0  0  0  0  0  0
   22.6243  -20.1837  -14.2808 C   0  0  0  0  0  0  0  0  0  0  0  0
   21.4876  -19.6562  -15.0571 C   0  0  0  0  0  0  0  0  0  0  0  0
   20.6839  -20.4492  -15.8493 C   0  0  0  0  0  0  0  0  0  0  0  0
   19.6394  -19.8779  -16.5444 C   0  0  0  0  0  0  0  0  0  0  0  0
   19.3820  -18.5288  -16.4636 C   0  0  0  0  0  0  0  0  0  0  0  0
   20.1872  -17.7464  -15.6726 C   0  0  0  0  0  0  0  0  0  0  0  0
   21.2346  -18.2978  -14.9710 C   0  0  0  0  0  0  0  0  0  0  0  0
   21.0278  -21.5319  -13.0008 C   0  0  0  0  0  0  0  0  0  0  0  0
   21.1246  -22.8195  -13.4820 O   0  0  0  0  0  0  0  0  0  0  0  0
   19.8604  -21.1700  -12.6467 O   0  0  0  0  0  0  0  0  0  0  0  0
  2  1  1  0
  3  2  1  0
  3  4  1  6
  5  6  1  6
  5  3  1  0
  7  5  1  0
  8  7  2  0
 10  9  1  1
 10 12  1  0
 11 10  1  0
 13 12  1  1
 13 14  1  0
 14  7  1  0
 15 13  1  0
 15 17  1  0
 16 15  2  0
 18 26  1  0
 18 19  1  6
 18 17  1  0
 20 19  1  0
 20 25  2  0
 21 20  1  0
 22 21  2  0
 22 23  1  0
 23 24  2  0
 24 25  1  0
 26 27  1  0
 28 26  2  0
M  END
$$$$
