ILF.pdb
     RDKit          3D

 28 28  0  0  1  0  0  0  0  0999 V2000
   19.9898  -20.5408  -13.2096 C   0  0  0  0  0  0  0  0  0  0  0  0
   21.3306  -20.0964  -13.6980 C   0  0  0  0  0  0  0  0  0  0  0  0
   22.4671  -20.8922  -13.1107 C   0  0  2  0  0  0  0  0  0  0  0  0
   22.3254  -20.7641  -11.6035 C   0  0  0  0  0  0  0  0  0  0  0  0
   23.7582  -20.3705  -13.6138 C   0  0  2  0  0  0  0  0  0  0  0  0
   23.7615  -20.3029  -15.0524 N   0  0  0  0  0  0  0  0  0  0  0  0
   24.9425  -21.1141  -13.1175 C   0  0  0  0  0  0  0  0  0  0  0  0
   25.1018  -22.3431  -13.2994 O   0  0  0  0  0  0  0  0  0  0  0  0
   29.6598  -19.1242  -13.8163 C   0  0  0  0  0  0  0  0  0  0  0  0
   28.3129  -19.9032  -13.7124 C   0  0  1  0  0  0  0  0  0  0  0  0
   28.4130  -20.9515  -14.7781 C   0  0  0  0  0  0  0  0  0  0  0  0
   28.2564  -20.3862  -12.3179 C   0  0  0  0  0  0  0  0  0  0  0  0
   27.0921  -21.1824  -11.8388 C   0  0  2  0  0  0  0  0  0  0  0  0
   25.9295  -20.4073  -12.4117 N   0  0  0  0  0  0  0  0  0  0  0  0
   26.8923  -21.1960  -10.3941 C   0  0  0  0  0  0  0  0  0  0  0  0
   27.9460  -21.2024   -9.6628 O   0  0  0  0  0  0  0  0  0  0  0  0
   25.6653  -21.1913   -9.6869 N   0  0  0  0  0  0  0  0  0  0  0  0
   25.6816  -21.1362   -8.2578 C   0  0  1  0  0  0  0  0  0  0  0  0
   26.3344  -19.7950   -7.8951 C   0  0  0  0  0  0  0  0  0  0  0  0
   27.2620  -19.9822   -6.7648 C   0  0  0  0  0  0  0  0  0  0  0  0
   27.1483  -21.0177   -5.8608 C   0  0  0  0  0  0  0  0  0  0  0  0
   28.0578  -21.1226   -4.8300 C   0  0  0  0  0  0  0  0  0  0  0  0
   29.0794  -20.2125   -4.6847 C   0  0  0  0  0  0  0  0  0  0  0  0
   29.1853  -19.1845   -5.5892 C   0  0  0  0  0  0  0  0  0  0  0  0
   28.2874  -19.0627   -6.6248 C   0  0  0  0  0  0  0  0  0  0  0  0
   24.3576  -21.2198   -7.6351 C   0  0  0  0  0  0  0  0  0  0  0  0
   24.1261  -21.5550   -6.3188 O   0  0  0  0  0  0  0  0  0  0  0  0
   23.3171  -20.9730   -8.3246 O   0  0  0  0  0  0  0  0  0  0  0  0
  2  1  1  0
  3  2  1  0
  3  4  1  1
  5  6  1  6
  5  3  1  0
  7  5  1  0
  8  7  2  0
 10  9  1  1
 10 12  1  0
 11 10  1  0
 13 12  1  1
 13 14  1  0
 14  7  1  0
 15 13  1  0
 15 17  1  0
 16 15  2  0
 18 26  1  0
 18 19  1  6
 18 17  1  0
 20 19  1  0
 20 25  2  0
 21 20  1  0
 22 21  2  0
 22 23  1  0
 23 24  2  0
 24 25  1  0
 26 27  1  0
 28 26  2  0
M  END
$$$$
