ILF.pdb
     RDKit          3D

 28 28  0  0  1  0  0  0  0  0999 V2000
   17.4312  -11.7345    4.0270 C   0  0  0  0  0  0  0  0  0  0  0  0
   17.2960  -12.5664    5.2613 C   0  0  0  0  0  0  0  0  0  0  0  0
   18.5881  -13.2191    5.6785 C   0  0  2  0  0  0  0  0  0  0  0  0
   19.0222  -14.0688    4.4962 C   0  0  0  0  0  0  0  0  0  0  0  0
   18.3751  -14.0129    6.9102 C   0  0  2  0  0  0  0  0  0  0  0  0
   17.8621  -13.1875    7.9731 N   0  0  0  0  0  0  0  0  0  0  0  0
   19.5741  -14.7643    7.3571 C   0  0  0  0  0  0  0  0  0  0  0  0
   20.2003  -15.5543    6.6138 O   0  0  0  0  0  0  0  0  0  0  0  0
   22.9156  -13.6685   12.1221 C   0  0  0  0  0  0  0  0  0  0  0  0
   22.9695  -14.3813   10.7362 C   0  0  1  0  0  0  0  0  0  0  0  0
   23.8903  -15.5424   10.9570 C   0  0  0  0  0  0  0  0  0  0  0  0
   21.5646  -14.7071   10.4181 C   0  0  0  0  0  0  0  0  0  0  0  0
   21.2157  -15.3874    9.1396 C   0  0  2  0  0  0  0  0  0  0  0  0
   20.0268  -14.5812    8.6737 N   0  0  0  0  0  0  0  0  0  0  0  0
   20.7434  -16.7614    9.2677 C   0  0  0  0  0  0  0  0  0  0  0  0
   19.4733  -16.9379    9.2953 O   0  0  0  0  0  0  0  0  0  0  0  0
   21.5202  -17.9422    9.3552 N   0  0  0  0  0  0  0  0  0  0  0  0
   20.8780  -19.2135    9.2244 C   0  0  1  0  0  0  0  0  0  0  0  0
   20.3290  -19.2631    7.7917 C   0  0  0  0  0  0  0  0  0  0  0  0
   19.6296  -20.5417    7.5704 C   0  0  0  0  0  0  0  0  0  0  0  0
   18.3846  -20.8198    8.0947 C   0  0  0  0  0  0  0  0  0  0  0  0
   17.7978  -22.0412    7.8408 C   0  0  0  0  0  0  0  0  0  0  0  0
   18.4311  -22.9909    7.0727 C   0  0  0  0  0  0  0  0  0  0  0  0
   19.6706  -22.7058    6.5544 C   0  0  0  0  0  0  0  0  0  0  0  0
   20.2728  -21.4925    6.7966 C   0  0  0  0  0  0  0  0  0  0  0  0
   21.7603  -20.3618    9.4498 C   0  0  0  0  0  0  0  0  0  0  0  0
   21.4050  -21.5065   10.1296 O   0  0  0  0  0  0  0  0  0  0  0  0
   22.9513  -20.3425    9.0023 O   0  0  0  0  0  0  0  0  0  0  0  0
  2  1  1  0
  3  2  1  0
  3  4  1  6
  5  6  1  1
  5  3  1  0
  7  5  1  0
  8  7  2  0
 10  9  1  1
 10 12  1  0
 11 10  1  0
 13 12  1  1
 13 14  1  0
 14  7  1  0
 15 13  1  0
 15 17  1  0
 16 15  2  0
 18 26  1  0
 18 19  1  6
 18 17  1  0
 20 19  1  0
 20 25  2  0
 21 20  1  0
 22 21  2  0
 22 23  1  0
 23 24  2  0
 24 25  1  0
 26 27  1  0
 28 26  2  0
M  END
$$$$
