ILF.pdb
     RDKit          3D

 28 28  0  0  1  0  0  0  0  0999 V2000
   19.8933  -18.4557  -16.2574 C   0  0  0  0  0  0  0  0  0  0  0  0
   21.1363  -18.9022  -16.9570 C   0  0  0  0  0  0  0  0  0  0  0  0
   22.1268  -17.7874  -17.1711 C   0  0  2  0  0  0  0  0  0  0  0  0
   21.3753  -16.7074  -17.9307 C   0  0  0  0  0  0  0  0  0  0  0  0
   23.3045  -18.2970  -17.9098 C   0  0  2  0  0  0  0  0  0  0  0  0
   22.9063  -18.9341  -19.1385 N   0  0  0  0  0  0  0  0  0  0  0  0
   24.1762  -19.1922  -17.1095 C   0  0  0  0  0  0  0  0  0  0  0  0
   24.0514  -20.4384  -17.1027 O   0  0  0  0  0  0  0  0  0  0  0  0
   29.5314  -18.4367  -16.6857 C   0  0  0  0  0  0  0  0  0  0  0  0
   28.2299  -19.2817  -16.8400 C   0  0  1  0  0  0  0  0  0  0  0  0
   28.7176  -20.6968  -16.9059 C   0  0  0  0  0  0  0  0  0  0  0  0
   27.4010  -18.9253  -15.6708 C   0  0  0  0  0  0  0  0  0  0  0  0
   26.0514  -19.5285  -15.4872 C   0  0  2  0  0  0  0  0  0  0  0  0
   25.1871  -18.6152  -16.3238 N   0  0  0  0  0  0  0  0  0  0  0  0
   25.5125  -19.4619  -14.1335 C   0  0  0  0  0  0  0  0  0  0  0  0
   24.8018  -18.4347  -13.8420 O   0  0  0  0  0  0  0  0  0  0  0  0
   25.6672  -20.4063  -13.0897 N   0  0  0  0  0  0  0  0  0  0  0  0
   24.8298  -20.3150  -11.9337 C   0  0  1  0  0  0  0  0  0  0  0  0
   23.3869  -20.4014  -12.4506 C   0  0  0  0  0  0  0  0  0  0  0  0
   22.4464  -20.3118  -11.3190 C   0  0  0  0  0  0  0  0  0  0  0  0
   22.0363  -21.4096  -10.5918 C   0  0  0  0  0  0  0  0  0  0  0  0
   21.1532  -21.2409   -9.5466 C   0  0  0  0  0  0  0  0  0  0  0  0
   20.6715  -19.9960   -9.2136 C   0  0  0  0  0  0  0  0  0  0  0  0
   21.0850  -18.9082   -9.9429 C   0  0  0  0  0  0  0  0  0  0  0  0
   21.9659  -19.0559  -10.9897 C   0  0  0  0  0  0  0  0  0  0  0  0
   25.0566  -21.3671  -10.9391 C   0  0  0  0  0  0  0  0  0  0  0  0
   25.3058  -22.6897  -11.2345 O   0  0  0  0  0  0  0  0  0  0  0  0
   25.0297  -21.0825   -9.6992 O   0  0  0  0  0  0  0  0  0  0  0  0
  2  1  1  0
  3  2  1  0
  3  4  1  6
  5  6  1  6
  5  3  1  0
  7  5  1  0
  8  7  2  0
 10  9  1  1
 10 12  1  0
 11 10  1  0
 13 12  1  1
 13 14  1  0
 14  7  1  0
 15 13  1  0
 15 17  1  0
 16 15  2  0
 18 26  1  0
 18 19  1  6
 18 17  1  0
 20 19  1  0
 20 25  2  0
 21 20  1  0
 22 21  2  0
 22 23  1  0
 23 24  2  0
 24 25  1  0
 26 27  1  0
 28 26  2  0
M  END
$$$$
