ILF.pdb
     RDKit          3D

 28 28  0  0  1  0  0  0  0  0999 V2000
   21.0313  -19.6339  -15.9068 C   0  0  0  0  0  0  0  0  0  0  0  0
   21.1414  -20.1347  -14.5029 C   0  0  0  0  0  0  0  0  0  0  0  0
   22.5339  -20.5830  -14.1429 C   0  0  2  0  0  0  0  0  0  0  0  0
   22.8714  -21.7020  -15.1136 C   0  0  0  0  0  0  0  0  0  0  0  0
   22.5715  -21.0178  -12.7280 C   0  0  2  0  0  0  0  0  0  0  0  0
   21.9358  -20.0481  -11.8736 N   0  0  0  0  0  0  0  0  0  0  0  0
   23.9321  -21.3447  -12.2345 C   0  0  0  0  0  0  0  0  0  0  0  0
   24.5300  -22.4039  -12.5334 O   0  0  0  0  0  0  0  0  0  0  0  0
   28.3140  -19.2675  -13.7707 C   0  0  0  0  0  0  0  0  0  0  0  0
   27.5914  -20.4583  -13.0697 C   0  0  1  0  0  0  0  0  0  0  0  0
   28.7090  -21.3253  -12.5756 C   0  0  0  0  0  0  0  0  0  0  0  0
   26.7374  -19.8349  -12.0388 C   0  0  0  0  0  0  0  0  0  0  0  0
   26.0243  -20.6751  -11.0365 C   0  0  2  0  0  0  0  0  0  0  0  0
   24.5785  -20.4242  -11.3938 N   0  0  0  0  0  0  0  0  0  0  0  0
   26.1725  -20.2570   -9.6470 C   0  0  0  0  0  0  0  0  0  0  0  0
   25.6780  -19.1173   -9.3284 O   0  0  0  0  0  0  0  0  0  0  0  0
   26.7916  -20.9651   -8.5883 N   0  0  0  0  0  0  0  0  0  0  0  0
   26.9480  -20.3277   -7.3175 C   0  0  1  0  0  0  0  0  0  0  0  0
   27.7075  -21.3280   -6.4348 C   0  0  0  0  0  0  0  0  0  0  0  0
   28.2113  -20.6457   -5.2292 C   0  0  0  0  0  0  0  0  0  0  0  0
   27.4265  -20.3924   -4.1236 C   0  0  0  0  0  0  0  0  0  0  0  0
   27.9743  -19.7484   -3.0347 C   0  0  0  0  0  0  0  0  0  0  0  0
   29.2918  -19.3524   -3.0286 C   0  0  0  0  0  0  0  0  0  0  0  0
   30.0663  -19.6086   -4.1334 C   0  0  0  0  0  0  0  0  0  0  0  0
   29.5380  -20.2501   -5.2301 C   0  0  0  0  0  0  0  0  0  0  0  0
   27.6827  -19.0605   -7.3638 C   0  0  0  0  0  0  0  0  0  0  0  0
   28.8099  -18.8309   -8.1222 O   0  0  0  0  0  0  0  0  0  0  0  0
   27.2854  -18.0726   -6.6670 O   0  0  0  0  0  0  0  0  0  0  0  0
  2  1  1  0
  3  2  1  0
  3  4  1  6
  5  6  1  1
  5  3  1  0
  7  5  1  0
  8  7  2  0
 10  9  1  1
 10 12  1  0
 11 10  1  0
 13 12  1  6
 13 14  1  0
 14  7  1  0
 15 13  1  0
 15 17  1  0
 16 15  2  0
 18 26  1  0
 18 19  1  1
 18 17  1  0
 20 19  1  0
 20 25  2  0
 21 20  1  0
 22 21  2  0
 22 23  1  0
 23 24  2  0
 24 25  1  0
 26 27  1  0
 28 26  2  0
M  END
$$$$
