ILF.pdb
     RDKit          3D

 28 28  0  0  1  0  0  0  0  0999 V2000
   15.2304   -7.6003  -18.4636 C   0  0  0  0  0  0  0  0  0  0  0  0
   16.2226   -8.7143  -18.3710 C   0  0  0  0  0  0  0  0  0  0  0  0
   17.2382   -8.5117  -17.2768 C   0  0  2  0  0  0  0  0  0  0  0  0
   17.9035   -7.1782  -17.5727 C   0  0  0  0  0  0  0  0  0  0  0  0
   18.1948   -9.6417  -17.2639 C   0  0  2  0  0  0  0  0  0  0  0  0
   17.5035  -10.9032  -17.3366 N   0  0  0  0  0  0  0  0  0  0  0  0
   19.1358   -9.6209  -16.1168 C   0  0  0  0  0  0  0  0  0  0  0  0
   18.8307  -10.0393  -14.9764 O   0  0  0  0  0  0  0  0  0  0  0  0
   23.6290  -10.7760  -13.9125 C   0  0  0  0  0  0  0  0  0  0  0  0
   23.8548   -9.5629  -14.8660 C   0  0  1  0  0  0  0  0  0  0  0  0
   25.1344   -9.8874  -15.5747 C   0  0  0  0  0  0  0  0  0  0  0  0
   22.6382   -9.5002  -15.7008 C   0  0  0  0  0  0  0  0  0  0  0  0
   21.3525   -9.0099  -15.1300 C   0  0  2  0  0  0  0  0  0  0  0  0
   20.4274   -9.1083  -16.3196 N   0  0  0  0  0  0  0  0  0  0  0  0
   21.3386   -7.6085  -14.7258 C   0  0  0  0  0  0  0  0  0  0  0  0
   21.7832   -7.3385  -13.5534 O   0  0  0  0  0  0  0  0  0  0  0  0
   20.9010   -6.4918  -15.4787 N   0  0  0  0  0  0  0  0  0  0  0  0
   21.0774   -5.1762  -14.9460 C   0  0  1  0  0  0  0  0  0  0  0  0
   19.7569   -4.8238  -14.2470 C   0  0  0  0  0  0  0  0  0  0  0  0
   18.6804   -4.7051  -15.2470 C   0  0  0  0  0  0  0  0  0  0  0  0
   18.8606   -4.1168  -16.4814 C   0  0  0  0  0  0  0  0  0  0  0  0
   17.8016   -4.0452  -17.3611 C   0  0  0  0  0  0  0  0  0  0  0  0
   16.5650   -4.5501  -17.0313 C   0  0  0  0  0  0  0  0  0  0  0  0
   16.3941   -5.1343  -15.8002 C   0  0  0  0  0  0  0  0  0  0  0  0
   17.4388   -5.2154  -14.9083 C   0  0  0  0  0  0  0  0  0  0  0  0
   22.1832   -5.0542  -13.9920 C   0  0  0  0  0  0  0  0  0  0  0  0
   23.0455   -6.0735  -13.6512 O   0  0  0  0  0  0  0  0  0  0  0  0
   22.3988   -3.9425  -13.4115 O   0  0  0  0  0  0  0  0  0  0  0  0
  2  1  1  0
  3  2  1  0
  3  4  1  6
  5  6  1  1
  5  3  1  0
  7  5  1  0
  8  7  2  0
 10  9  1  1
 10 12  1  0
 11 10  1  0
 13 12  1  6
 13 14  1  0
 14  7  1  0
 15 13  1  0
 15 17  1  0
 16 15  2  0
 18 26  1  0
 18 19  1  1
 18 17  1  0
 20 19  1  0
 20 25  2  0
 21 20  1  0
 22 21  2  0
 22 23  1  0
 23 24  2  0
 24 25  1  0
 26 27  1  0
 28 26  2  0
M  END
$$$$
