ILF.pdb
     RDKit          3D

 28 28  0  0  1  0  0  0  0  0999 V2000
   25.7519  -17.7913  -19.8721 C   0  0  0  0  0  0  0  0  0  0  0  0
   26.8550  -18.4773  -19.1328 C   0  0  0  0  0  0  0  0  0  0  0  0
   26.3709  -19.2521  -17.9349 C   0  0  2  0  0  0  0  0  0  0  0  0
   25.6365  -18.2479  -17.0627 C   0  0  0  0  0  0  0  0  0  0  0  0
   27.5204  -19.8809  -17.2453 C   0  0  2  0  0  0  0  0  0  0  0  0
   28.1972  -20.8096  -18.1135 N   0  0  0  0  0  0  0  0  0  0  0  0
   27.1701  -20.5240  -15.9548 C   0  0  0  0  0  0  0  0  0  0  0  0
   26.5369  -21.6021  -15.8796 O   0  0  0  0  0  0  0  0  0  0  0  0
   28.5591  -22.1673  -11.2066 C   0  0  0  0  0  0  0  0  0  0  0  0
   28.4647  -20.6108  -11.1946 C   0  0  1  0  0  0  0  0  0  0  0  0
   29.6767  -20.1763  -10.4284 C   0  0  0  0  0  0  0  0  0  0  0  0
   28.4107  -20.2194  -12.6175 C   0  0  0  0  0  0  0  0  0  0  0  0
   27.2272  -20.5651  -13.4537 C   0  0  2  0  0  0  0  0  0  0  0  0
   27.5667  -19.8948  -14.7637 N   0  0  0  0  0  0  0  0  0  0  0  0
   25.9614  -19.9835  -13.0216 C   0  0  0  0  0  0  0  0  0  0  0  0
   25.7838  -18.7363  -13.2624 O   0  0  0  0  0  0  0  0  0  0  0  0
   24.8842  -20.6333  -12.3712 N   0  0  0  0  0  0  0  0  0  0  0  0
   23.5470  -20.1910  -12.6204 C   0  0  1  0  0  0  0  0  0  0  0  0
   23.4072  -20.1109  -14.1470 C   0  0  0  0  0  0  0  0  0  0  0  0
   22.0185  -19.7669  -14.5025 C   0  0  0  0  0  0  0  0  0  0  0  0
   21.5242  -18.4804  -14.4500 C   0  0  0  0  0  0  0  0  0  0  0  0
   20.2121  -18.2419  -14.7992 C   0  0  0  0  0  0  0  0  0  0  0  0
   19.3835  -19.2644  -15.2001 C   0  0  0  0  0  0  0  0  0  0  0  0
   19.8837  -20.5425  -15.2496 C   0  0  0  0  0  0  0  0  0  0  0  0
   21.1906  -20.8009  -14.9050 C   0  0  0  0  0  0  0  0  0  0  0  0
   22.5087  -21.0727  -12.0800 C   0  0  0  0  0  0  0  0  0  0  0  0
   22.5936  -22.4468  -12.0229 O   0  0  0  0  0  0  0  0  0  0  0  0
   21.4321  -20.5747  -11.6195 O   0  0  0  0  0  0  0  0  0  0  0  0
  2  1  1  0
  3  2  1  0
  3  4  1  1
  5  6  1  6
  5  3  1  0
  7  5  1  0
  8  7  2  0
 10  9  1  6
 10 12  1  0
 11 10  1  0
 13 12  1  1
 13 14  1  0
 14  7  1  0
 15 13  1  0
 15 17  1  0
 16 15  2  0
 18 26  1  0
 18 19  1  6
 18 17  1  0
 20 19  1  0
 20 25  2  0
 21 20  1  0
 22 21  2  0
 22 23  1  0
 23 24  2  0
 24 25  1  0
 26 27  1  0
 28 26  2  0
M  END
$$$$
