ILF.pdb
     RDKit          3D

 28 28  0  0  1  0  0  0  0  0999 V2000
   20.6801  -14.2885  -17.6208 C   0  0  0  0  0  0  0  0  0  0  0  0
   21.0178  -15.4361  -16.7249 C   0  0  0  0  0  0  0  0  0  0  0  0
   22.3109  -16.1146  -17.0957 C   0  0  2  0  0  0  0  0  0  0  0  0
   22.1737  -16.4924  -18.5609 C   0  0  0  0  0  0  0  0  0  0  0  0
   22.5332  -17.2859  -16.2177 C   0  0  2  0  0  0  0  0  0  0  0  0
   22.6042  -16.8880  -14.8354 N   0  0  0  0  0  0  0  0  0  0  0  0
   23.7129  -18.1041  -16.5927 C   0  0  0  0  0  0  0  0  0  0  0  0
   23.8094  -18.6991  -17.6907 O   0  0  0  0  0  0  0  0  0  0  0  0
   28.5298  -16.2538  -15.7976 C   0  0  0  0  0  0  0  0  0  0  0  0
   27.2469  -16.8908  -16.4139 C   0  0  1  0  0  0  0  0  0  0  0  0
   27.5325  -16.9405  -17.8839 C   0  0  0  0  0  0  0  0  0  0  0  0
   27.0974  -18.1904  -15.7286 C   0  0  0  0  0  0  0  0  0  0  0  0
   25.9484  -19.0848  -16.0433 C   0  0  2  0  0  0  0  0  0  0  0  0
   24.7692  -18.2164  -15.6742 N   0  0  0  0  0  0  0  0  0  0  0  0
   25.8394  -20.2817  -15.2169 C   0  0  0  0  0  0  0  0  0  0  0  0
   26.6301  -21.2525  -15.4951 O   0  0  0  0  0  0  0  0  0  0  0  0
   24.9671  -20.5062  -14.1241 N   0  0  0  0  0  0  0  0  0  0  0  0
   24.8777  -21.8166  -13.5579 C   0  0  1  0  0  0  0  0  0  0  0  0
   26.1439  -21.9962  -12.7088 C   0  0  0  0  0  0  0  0  0  0  0  0
   26.1014  -21.0834  -11.5520 C   0  0  0  0  0  0  0  0  0  0  0  0
   26.3927  -19.7383  -11.6429 C   0  0  0  0  0  0  0  0  0  0  0  0
   26.3297  -18.9517  -10.5125 C   0  0  0  0  0  0  0  0  0  0  0  0
   25.9811  -19.4830   -9.2922 C   0  0  0  0  0  0  0  0  0  0  0  0
   25.6925  -20.8232   -9.2106 C   0  0  0  0  0  0  0  0  0  0  0  0
   25.7498  -21.6249  -10.3274 C   0  0  0  0  0  0  0  0  0  0  0  0
   23.6937  -22.0338  -12.7220 C   0  0  0  0  0  0  0  0  0  0  0  0
   23.3295  -23.2433  -12.1713 O   0  0  0  0  0  0  0  0  0  0  0  0
   22.9163  -21.0610  -12.4606 O   0  0  0  0  0  0  0  0  0  0  0  0
  2  1  1  0
  3  2  1  0
  3  4  1  6
  5  6  1  1
  5  3  1  0
  7  5  1  0
  8  7  2  0
 10  9  1  1
 10 12  1  0
 11 10  1  0
 13 12  1  1
 13 14  1  0
 14  7  1  0
 15 13  1  0
 15 17  1  0
 16 15  2  0
 18 26  1  0
 18 19  1  1
 18 17  1  0
 20 19  1  0
 20 25  2  0
 21 20  1  0
 22 21  2  0
 22 23  1  0
 23 24  2  0
 24 25  1  0
 26 27  1  0
 28 26  2  0
M  END
$$$$
