ILF.pdb
     RDKit          3D

 28 28  0  0  1  0  0  0  0  0999 V2000
   25.4485  -17.5045  -18.4036 C   0  0  0  0  0  0  0  0  0  0  0  0
   26.1762  -18.4110  -17.4641 C   0  0  0  0  0  0  0  0  0  0  0  0
   25.9014  -18.1040  -16.0149 C   0  0  2  0  0  0  0  0  0  0  0  0
   26.3284  -16.6603  -15.8105 C   0  0  0  0  0  0  0  0  0  0  0  0
   26.6429  -19.0511  -15.1515 C   0  0  2  0  0  0  0  0  0  0  0  0
   27.7245  -19.6691  -15.8743 N   0  0  0  0  0  0  0  0  0  0  0  0
   25.7852  -20.0761  -14.5069 C   0  0  0  0  0  0  0  0  0  0  0  0
   25.6181  -21.2228  -14.9821 O   0  0  0  0  0  0  0  0  0  0  0  0
   25.9571  -20.5065   -9.1737 C   0  0  0  0  0  0  0  0  0  0  0  0
   26.0141  -20.8315  -10.6978 C   0  0  1  0  0  0  0  0  0  0  0  0
   26.5005  -22.2475  -10.7524 C   0  0  0  0  0  0  0  0  0  0  0  0
   24.6445  -20.5869  -11.1931 C   0  0  0  0  0  0  0  0  0  0  0  0
   24.3064  -20.8100  -12.6266 C   0  0  2  0  0  0  0  0  0  0  0  0
   25.1311  -19.7448  -13.3092 N   0  0  0  0  0  0  0  0  0  0  0  0
   22.9207  -20.5417  -12.9943 C   0  0  0  0  0  0  0  0  0  0  0  0
   22.4832  -19.3551  -12.7804 O   0  0  0  0  0  0  0  0  0  0  0  0
   21.9881  -21.4345  -13.5762 N   0  0  0  0  0  0  0  0  0  0  0  0
   20.6369  -21.0070  -13.7692 C   0  0  1  0  0  0  0  0  0  0  0  0
   20.2740  -21.3941  -15.2097 C   0  0  0  0  0  0  0  0  0  0  0  0
   21.0545  -20.5771  -16.1565 C   0  0  0  0  0  0  0  0  0  0  0  0
   22.3034  -20.9419  -16.6143 C   0  0  0  0  0  0  0  0  0  0  0  0
   22.9687  -20.1213  -17.5000 C   0  0  0  0  0  0  0  0  0  0  0  0
   22.4104  -18.9424  -17.9375 C   0  0  0  0  0  0  0  0  0  0  0  0
   21.1665  -18.5867  -17.4766 C   0  0  0  0  0  0  0  0  0  0  0  0
   20.4865  -19.3923  -16.5924 C   0  0  0  0  0  0  0  0  0  0  0  0
   19.6743  -21.6108  -12.8436 C   0  0  0  0  0  0  0  0  0  0  0  0
   18.3384  -21.2813  -12.7710 O   0  0  0  0  0  0  0  0  0  0  0  0
   20.0580  -22.5095  -12.0286 O   0  0  0  0  0  0  0  0  0  0  0  0
  2  1  1  0
  3  2  1  0
  3  4  1  1
  5  6  1  6
  5  3  1  0
  7  5  1  0
  8  7  2  0
 10  9  1  1
 10 12  1  0
 11 10  1  0
 13 12  1  1
 13 14  1  0
 14  7  1  0
 15 13  1  0
 15 17  1  0
 16 15  2  0
 18 26  1  0
 18 19  1  6
 18 17  1  0
 20 19  1  0
 20 25  2  0
 21 20  1  0
 22 21  2  0
 22 23  1  0
 23 24  2  0
 24 25  1  0
 26 27  1  0
 28 26  2  0
M  END
$$$$
