ILF.pdb
     RDKit          3D

 28 28  0  0  1  0  0  0  0  0999 V2000
   18.5023  -16.2772  -18.5638 C   0  0  0  0  0  0  0  0  0  0  0  0
   19.2858  -15.0284  -18.8098 C   0  0  0  0  0  0  0  0  0  0  0  0
   18.4330  -13.8787  -19.2798 C   0  0  2  0  0  0  0  0  0  0  0  0
   17.8101  -14.3346  -20.5885 C   0  0  0  0  0  0  0  0  0  0  0  0
   19.2665  -12.6643  -19.4315 C   0  0  2  0  0  0  0  0  0  0  0  0
   20.3653  -12.9023  -20.3316 N   0  0  0  0  0  0  0  0  0  0  0  0
   19.7493  -12.1011  -18.1464 C   0  0  0  0  0  0  0  0  0  0  0  0
   19.0286  -12.0151  -17.1256 O   0  0  0  0  0  0  0  0  0  0  0  0
   24.9687  -12.4894  -16.2291 C   0  0  0  0  0  0  0  0  0  0  0  0
   23.4158  -12.4988  -16.0869 C   0  0  1  0  0  0  0  0  0  0  0  0
   23.1838  -12.5761  -14.6087 C   0  0  0  0  0  0  0  0  0  0  0  0
   22.9620  -11.2654  -16.7604 C   0  0  0  0  0  0  0  0  0  0  0  0
   21.5132  -10.9235  -16.8188 C   0  0  2  0  0  0  0  0  0  0  0  0
   21.0748  -11.6437  -18.0718 N   0  0  0  0  0  0  0  0  0  0  0  0
   21.2088   -9.5142  -17.0387 C   0  0  0  0  0  0  0  0  0  0  0  0
   21.6256   -8.9950  -18.1349 O   0  0  0  0  0  0  0  0  0  0  0  0
   20.4915   -8.6376  -16.1886 N   0  0  0  0  0  0  0  0  0  0  0  0
   20.3315   -7.2684  -16.5698 C   0  0  1  0  0  0  0  0  0  0  0  0
   18.8476   -7.1004  -16.9252 C   0  0  0  0  0  0  0  0  0  0  0  0
   18.5866   -5.7065  -17.3273 C   0  0  0  0  0  0  0  0  0  0  0  0
   18.9855   -5.1853  -18.5404 C   0  0  0  0  0  0  0  0  0  0  0  0
   18.7023   -3.8699  -18.8409 C   0  0  0  0  0  0  0  0  0  0  0  0
   18.0278   -3.0646  -17.9525 C   0  0  0  0  0  0  0  0  0  0  0  0
   17.6342   -3.5915  -16.7468 C   0  0  0  0  0  0  0  0  0  0  0  0
   17.9075   -4.9019  -16.4284 C   0  0  0  0  0  0  0  0  0  0  0  0
   20.6968   -6.3047  -15.5278 C   0  0  0  0  0  0  0  0  0  0  0  0
   21.2055   -5.0459  -15.7626 O   0  0  0  0  0  0  0  0  0  0  0  0
   20.5501   -6.6121  -14.3018 O   0  0  0  0  0  0  0  0  0  0  0  0
  2  1  1  0
  3  2  1  0
  3  4  1  6
  5  6  1  6
  5  3  1  0
  7  5  1  0
  8  7  2  0
 10  9  1  1
 10 12  1  0
 11 10  1  0
 13 12  1  6
 13 14  1  0
 14  7  1  0
 15 13  1  0
 15 17  1  0
 16 15  2  0
 18 26  1  0
 18 19  1  1
 18 17  1  0
 20 19  1  0
 20 25  2  0
 21 20  1  0
 22 21  2  0
 22 23  1  0
 23 24  2  0
 24 25  1  0
 26 27  1  0
 28 26  2  0
M  END
$$$$
