ILF.pdb
     RDKit          3D

 28 28  0  0  1  0  0  0  0  0999 V2000
   25.6003  -18.2678  -17.8078 C   0  0  0  0  0  0  0  0  0  0  0  0
   26.4935  -18.8693  -16.7713 C   0  0  0  0  0  0  0  0  0  0  0  0
   25.7405  -19.6346  -15.7145 C   0  0  2  0  0  0  0  0  0  0  0  0
   24.7352  -18.6552  -15.1328 C   0  0  0  0  0  0  0  0  0  0  0  0
   26.6868  -20.1570  -14.7025 C   0  0  2  0  0  0  0  0  0  0  0  0
   27.7491  -20.9026  -15.3266 N   0  0  0  0  0  0  0  0  0  0  0  0
   26.0418  -20.9540  -13.6299 C   0  0  0  0  0  0  0  0  0  0  0  0
   25.7628  -22.1685  -13.7564 O   0  0  0  0  0  0  0  0  0  0  0  0
   27.3173  -19.6521   -8.5260 C   0  0  0  0  0  0  0  0  0  0  0  0
   27.1464  -20.3860   -9.8913 C   0  0  1  0  0  0  0  0  0  0  0  0
   27.8799  -21.6793   -9.7062 C   0  0  0  0  0  0  0  0  0  0  0  0
   25.6868  -20.4808  -10.0950 C   0  0  0  0  0  0  0  0  0  0  0  0
   25.1331  -21.1475  -11.3067 C   0  0  2  0  0  0  0  0  0  0  0  0
   25.7301  -20.3171  -12.4178 N   0  0  0  0  0  0  0  0  0  0  0  0
   23.6866  -21.0544  -11.4690 C   0  0  0  0  0  0  0  0  0  0  0  0
   22.9646  -21.5639  -10.5394 O   0  0  0  0  0  0  0  0  0  0  0  0
   22.9688  -20.4543  -12.5321 N   0  0  0  0  0  0  0  0  0  0  0  0
   21.5390  -20.4915  -12.5198 C   0  0  1  0  0  0  0  0  0  0  0  0
   21.0850  -19.0987  -12.0610 C   0  0  0  0  0  0  0  0  0  0  0  0
   19.6129  -19.0246  -12.0766 C   0  0  0  0  0  0  0  0  0  0  0  0
   18.8905  -18.6253  -13.1817 C   0  0  0  0  0  0  0  0  0  0  0  0
   17.5142  -18.5830  -13.1147 C   0  0  0  0  0  0  0  0  0  0  0  0
   16.8449  -18.9321  -11.9645 C   0  0  0  0  0  0  0  0  0  0  0  0
   17.5718  -19.3286  -10.8688 C   0  0  0  0  0  0  0  0  0  0  0  0
   18.9461  -19.3773  -10.9158 C   0  0  0  0  0  0  0  0  0  0  0  0
   20.9318  -20.8009  -13.8172 C   0  0  0  0  0  0  0  0  0  0  0  0
   19.7076  -21.4097  -13.9887 O   0  0  0  0  0  0  0  0  0  0  0  0
   21.5463  -20.5031  -14.8909 O   0  0  0  0  0  0  0  0  0  0  0  0
  2  1  1  0
  3  2  1  0
  3  4  1  1
  5  6  1  6
  5  3  1  0
  7  5  1  0
  8  7  2  0
 10  9  1  1
 10 12  1  0
 11 10  1  0
 13 12  1  1
 13 14  1  0
 14  7  1  0
 15 13  1  0
 15 17  1  0
 16 15  2  0
 18 26  1  0
 18 19  1  6
 18 17  1  0
 20 19  1  0
 20 25  2  0
 21 20  1  0
 22 21  2  0
 22 23  1  0
 23 24  2  0
 24 25  1  0
 26 27  1  0
 28 26  2  0
M  END
$$$$
