HDA.pdb
     RDKit          3D

 24 24  0  0  1  0  0  0  0  0999 V2000
   14.4436   -8.1790  -12.1938 N   0  0  0  0  0  0  0  0  0  0  0  0
   15.4725   -9.1882  -11.9868 C   0  0  1  0  0  0  0  0  0  0  0  0
   14.9219  -10.5483  -12.3863 C   0  0  0  0  0  0  0  0  0  0  0  0
   13.6710  -10.8216  -11.6263 C   0  0  0  0  0  0  0  0  0  0  0  0
   13.5589  -11.2101  -10.3194 C   0  0  0  0  0  0  0  0  0  0  0  0
   12.2420  -11.3467  -10.0538 N   0  0  0  0  0  0  0  0  0  0  0  0
   11.5332  -11.0547  -11.1563 C   0  0  0  0  0  0  0  0  0  0  0  0
   12.4153  -10.7368  -12.1057 N   0  0  0  0  0  0  0  0  0  0  0  0
   16.6265   -8.8159  -12.8694 C   0  0  0  0  0  0  0  0  0  0  0  0
   17.6605   -9.5230  -12.9678 O   0  0  0  0  0  0  0  0  0  0  0  0
   16.6066   -7.6128  -13.6597 N   0  0  0  0  0  0  0  0  0  0  0  0
   17.6918   -7.2564  -14.5203 C   0  0  1  0  0  0  0  0  0  0  0  0
   17.2220   -6.0304  -15.3293 C   0  0  0  0  0  0  0  0  0  0  0  0
   18.2494   -5.6478  -16.3253 C   0  0  0  0  0  0  0  0  0  0  0  0
   18.9566   -6.4839  -16.9368 O   0  0  0  0  0  0  0  0  0  0  0  0
   18.9080   -6.8486  -13.7744 C   0  0  0  0  0  0  0  0  0  0  0  0
   18.8588   -5.9920  -12.8388 O   0  0  0  0  0  0  0  0  0  0  0  0
   18.4272   -4.2968  -16.5843 O   0  0  0  0  0  0  0  0  0  0  0  0
   22.5660   -7.8664  -13.5281 C   0  0  0  0  0  0  0  0  0  0  0  0
   21.3930   -6.9049  -13.3730 C   0  0  2  0  0  0  0  0  0  0  0  0
   20.2180   -7.3745  -14.0375 N   0  0  0  0  0  0  0  0  0  0  0  0
   21.8332   -5.5599  -13.7145 C   0  0  0  0  0  0  0  0  0  0  0  0
   21.5265   -5.1449  -14.8831 O   0  0  0  0  0  0  0  0  0  0  0  0
   22.5362   -4.6814  -12.9395 O   0  0  0  0  0  0  0  0  0  0  0  0
  2  1  1  6
  2  9  1  0
  3  4  1  0
  3  2  1  0
  4  8  1  0
  5  6  1  0
  5  4  2  0
  6  7  1  0
  7  8  2  0
  9 11  1  0
  9 10  2  0
 11 12  1  0
 12 16  1  0
 13 14  1  0
 12 13  1  6
 14 15  2  0
 16 17  2  0
 16 21  1  0
 18 14  1  0
 20 19  1  6
 20 22  1  0
 21 20  1  0
 22 24  1  0
 23 22  2  0
M  END
$$$$
