HDA.pdb
     RDKit          3D

 24 24  0  0  1  0  0  0  0  0999 V2000
   20.8846  -13.0095  -18.4836 N   0  0  0  0  0  0  0  0  0  0  0  0
   20.1073  -11.7785  -18.4708 C   0  0  1  0  0  0  0  0  0  0  0  0
   18.8233  -12.0097  -17.6895 C   0  0  0  0  0  0  0  0  0  0  0  0
   17.9067  -12.8742  -18.4829 C   0  0  0  0  0  0  0  0  0  0  0  0
   17.6498  -14.2051  -18.2985 C   0  0  0  0  0  0  0  0  0  0  0  0
   16.7641  -14.5773  -19.2474 N   0  0  0  0  0  0  0  0  0  0  0  0
   16.4634  -13.5176  -20.0154 C   0  0  0  0  0  0  0  0  0  0  0  0
   17.1656  -12.4879  -19.5391 N   0  0  0  0  0  0  0  0  0  0  0  0
   20.9502  -10.7424  -17.7888 C   0  0  0  0  0  0  0  0  0  0  0  0
   21.6249  -10.9885  -16.7577 O   0  0  0  0  0  0  0  0  0  0  0  0
   21.0300   -9.3949  -18.2890 N   0  0  0  0  0  0  0  0  0  0  0  0
   21.8852   -8.4167  -17.6912 C   0  0  1  0  0  0  0  0  0  0  0  0
   22.2133   -7.3914  -18.7955 C   0  0  0  0  0  0  0  0  0  0  0  0
   23.1822   -6.3893  -18.2946 C   0  0  0  0  0  0  0  0  0  0  0  0
   23.5574   -5.4011  -18.9697 O   0  0  0  0  0  0  0  0  0  0  0  0
   21.2278   -7.6751  -16.5868 C   0  0  0  0  0  0  0  0  0  0  0  0
   20.1295   -7.0622  -16.7581 O   0  0  0  0  0  0  0  0  0  0  0  0
   23.6906   -6.5645  -17.0161 O   0  0  0  0  0  0  0  0  0  0  0  0
   21.2094   -7.6588  -12.8688 C   0  0  0  0  0  0  0  0  0  0  0  0
   21.0917   -6.9104  -14.1917 C   0  0  2  0  0  0  0  0  0  0  0  0
   21.7624   -7.5872  -15.2570 N   0  0  0  0  0  0  0  0  0  0  0  0
   21.4558   -5.5164  -13.9829 C   0  0  0  0  0  0  0  0  0  0  0  0
   22.6223   -5.1726  -14.3739 O   0  0  0  0  0  0  0  0  0  0  0  0
   20.7041   -4.5248  -13.4186 O   0  0  0  0  0  0  0  0  0  0  0  0
  2  1  1  1
  2  9  1  0
  3  4  1  0
  3  2  1  0
  4  8  1  0
  5  6  1  0
  5  4  2  0
  6  7  1  0
  7  8  2  0
  9 11  1  0
  9 10  2  0
 11 12  1  0
 12 16  1  0
 13 14  1  0
 12 13  1  6
 14 15  2  0
 16 17  2  0
 16 21  1  0
 18 14  1  0
 20 19  1  1
 20 22  1  0
 21 20  1  0
 22 24  1  0
 23 22  2  0
M  END
$$$$
