HDA.pdb
     RDKit          3D

 24 24  0  0  1  0  0  0  0  0999 V2000
   20.7153  -10.6467  -17.6957 N   0  0  0  0  0  0  0  0  0  0  0  0
   19.3294  -10.2142  -17.5860 C   0  0  1  0  0  0  0  0  0  0  0  0
   18.5767  -11.1816  -16.6858 C   0  0  0  0  0  0  0  0  0  0  0  0
   19.1919  -12.5340  -16.7842 C   0  0  0  0  0  0  0  0  0  0  0  0
   20.5222  -12.8387  -16.8786 C   0  0  0  0  0  0  0  0  0  0  0  0
   20.6209  -14.1835  -16.9509 N   0  0  0  0  0  0  0  0  0  0  0  0
   19.3920  -14.7228  -16.9043 C   0  0  0  0  0  0  0  0  0  0  0  0
   18.5318  -13.7079  -16.8028 N   0  0  0  0  0  0  0  0  0  0  0  0
   19.3512   -8.8455  -16.9732 C   0  0  0  0  0  0  0  0  0  0  0  0
   18.3059   -8.1825  -16.7573 O   0  0  0  0  0  0  0  0  0  0  0  0
   20.5887   -8.2141  -16.5960 N   0  0  0  0  0  0  0  0  0  0  0  0
   20.6203   -6.9319  -15.9632 C   0  0  1  0  0  0  0  0  0  0  0  0
   21.3025   -7.1376  -14.5955 C   0  0  0  0  0  0  0  0  0  0  0  0
   21.3166   -5.8682  -13.8324 C   0  0  0  0  0  0  0  0  0  0  0  0
   20.2734   -5.2884  -13.4466 O   0  0  0  0  0  0  0  0  0  0  0  0
   21.4311   -5.9401  -16.7120 C   0  0  0  0  0  0  0  0  0  0  0  0
   22.6439   -6.1632  -17.0128 O   0  0  0  0  0  0  0  0  0  0  0  0
   22.5492   -5.3050  -13.5372 O   0  0  0  0  0  0  0  0  0  0  0  0
   20.8623   -2.7332  -18.6567 C   0  0  0  0  0  0  0  0  0  0  0  0
   21.7189   -3.7310  -17.8854 C   0  0  2  0  0  0  0  0  0  0  0  0
   20.9279   -4.6697  -17.1533 N   0  0  0  0  0  0  0  0  0  0  0  0
   22.7258   -3.0047  -17.1252 C   0  0  0  0  0  0  0  0  0  0  0  0
   22.5880   -3.0107  -15.8552 O   0  0  0  0  0  0  0  0  0  0  0  0
   23.8045   -2.3140  -17.6007 O   0  0  0  0  0  0  0  0  0  0  0  0
  2  1  1  1
  2  9  1  0
  3  4  1  0
  3  2  1  0
  4  8  1  0
  5  6  1  0
  5  4  2  0
  6  7  1  0
  7  8  2  0
  9 11  1  0
  9 10  2  0
 11 12  1  0
 12 16  1  0
 13 14  1  0
 12 13  1  1
 14 15  2  0
 16 17  2  0
 16 21  1  0
 18 14  1  0
 20 19  1  1
 20 22  1  0
 21 20  1  0
 22 24  1  0
 23 22  2  0
M  END
$$$$
