HDA.pdb
     RDKit          3D

 24 24  0  0  1  0  0  0  0  0999 V2000
   22.8261  -15.7519  -18.0365 N   0  0  0  0  0  0  0  0  0  0  0  0
   21.7310  -15.5980  -17.0894 C   0  0  1  0  0  0  0  0  0  0  0  0
   20.5438  -14.9678  -17.8006 C   0  0  0  0  0  0  0  0  0  0  0  0
   20.8467  -13.5426  -18.1074 C   0  0  0  0  0  0  0  0  0  0  0  0
   20.4737  -12.4391  -17.3901 C   0  0  0  0  0  0  0  0  0  0  0  0
   20.9601  -11.3579  -18.0367 N   0  0  0  0  0  0  0  0  0  0  0  0
   21.6238  -11.7570  -19.1337 C   0  0  0  0  0  0  0  0  0  0  0  0
   21.5469  -13.0888  -19.1646 N   0  0  0  0  0  0  0  0  0  0  0  0
   21.3778  -16.9746  -16.6101 C   0  0  0  0  0  0  0  0  0  0  0  0
   21.4010  -17.9810  -17.3620 O   0  0  0  0  0  0  0  0  0  0  0  0
   20.9894  -17.2149  -15.2449 N   0  0  0  0  0  0  0  0  0  0  0  0
   20.7082  -18.5308  -14.7601 C   0  0  1  0  0  0  0  0  0  0  0  0
   21.7137  -18.8001  -13.6222 C   0  0  0  0  0  0  0  0  0  0  0  0
   21.6033  -20.2033  -13.1607 C   0  0  0  0  0  0  0  0  0  0  0  0
   20.7868  -21.0225  -13.6458 O   0  0  0  0  0  0  0  0  0  0  0  0
   19.3479  -18.6520  -14.1800 C   0  0  0  0  0  0  0  0  0  0  0  0
   18.8924  -17.7909  -13.3662 O   0  0  0  0  0  0  0  0  0  0  0  0
   22.4495  -20.6174  -12.1427 O   0  0  0  0  0  0  0  0  0  0  0  0
   16.3381  -20.9798  -14.5412 C   0  0  0  0  0  0  0  0  0  0  0  0
   17.0934  -19.7620  -14.0212 C   0  0  2  0  0  0  0  0  0  0  0  0
   18.4464  -19.7285  -14.4807 N   0  0  0  0  0  0  0  0  0  0  0  0
   16.8984  -19.6609  -12.5820 C   0  0  0  0  0  0  0  0  0  0  0  0
   17.8566  -20.0845  -11.8511 O   0  0  0  0  0  0  0  0  0  0  0  0
   15.8148  -19.1682  -11.9113 O   0  0  0  0  0  0  0  0  0  0  0  0
  2  1  1  6
  2  9  1  0
  3  4  1  0
  3  2  1  0
  4  8  1  0
  5  6  1  0
  5  4  2  0
  6  7  1  0
  7  8  2  0
  9 11  1  0
  9 10  2  0
 11 12  1  0
 12 16  1  0
 13 14  1  0
 12 13  1  1
 14 15  2  0
 16 17  2  0
 16 21  1  0
 18 14  1  0
 20 19  1  1
 20 22  1  0
 21 20  1  0
 22 24  1  0
 23 22  2  0
M  END
$$$$
