HDA.pdb
     RDKit          3D

 24 24  0  0  1  0  0  0  0  0999 V2000
   19.5692  -12.6626  -17.8786 N   0  0  0  0  0  0  0  0  0  0  0  0
   18.4015  -12.5331  -17.0186 C   0  0  1  0  0  0  0  0  0  0  0  0
   18.1751  -13.8468  -16.2869 C   0  0  0  0  0  0  0  0  0  0  0  0
   17.7485  -14.8908  -17.2590 C   0  0  0  0  0  0  0  0  0  0  0  0
   16.5843  -14.9349  -17.9761 C   0  0  0  0  0  0  0  0  0  0  0  0
   16.6171  -16.0583  -18.7245 N   0  0  0  0  0  0  0  0  0  0  0  0
   17.7666  -16.7131  -18.4937 C   0  0  0  0  0  0  0  0  0  0  0  0
   18.4456  -15.9916  -17.6000 N   0  0  0  0  0  0  0  0  0  0  0  0
   18.7059  -11.4392  -16.0387 C   0  0  0  0  0  0  0  0  0  0  0  0
   19.7815  -11.3891  -15.3910 O   0  0  0  0  0  0  0  0  0  0  0  0
   17.7677  -10.3765  -15.7882 N   0  0  0  0  0  0  0  0  0  0  0  0
   18.0564   -9.3136  -14.8758 C   0  0  1  0  0  0  0  0  0  0  0  0
   18.1747   -8.0311  -15.7241 C   0  0  0  0  0  0  0  0  0  0  0  0
   18.5186   -6.8758  -14.8634 C   0  0  0  0  0  0  0  0  0  0  0  0
   19.2486   -6.9705  -13.8479 O   0  0  0  0  0  0  0  0  0  0  0  0
   16.9690   -9.0885  -13.8916 C   0  0  0  0  0  0  0  0  0  0  0  0
   15.7726   -8.8761  -14.2587 O   0  0  0  0  0  0  0  0  0  0  0  0
   18.0018   -5.6359  -15.2088 O   0  0  0  0  0  0  0  0  0  0  0  0
   16.5562   -9.1845  -10.0965 C   0  0  0  0  0  0  0  0  0  0  0  0
   16.0957   -8.9656  -11.5332 C   0  0  2  0  0  0  0  0  0  0  0  0
   17.1681   -9.0915  -12.4695 N   0  0  0  0  0  0  0  0  0  0  0  0
   15.3211   -7.7348  -11.6014 C   0  0  0  0  0  0  0  0  0  0  0  0
   14.2567   -7.6975  -10.8961 O   0  0  0  0  0  0  0  0  0  0  0  0
   15.5899   -6.6095  -12.3281 O   0  0  0  0  0  0  0  0  0  0  0  0
  2  1  1  6
  2  9  1  0
  3  4  1  0
  3  2  1  0
  4  8  1  0
  5  6  1  0
  5  4  2  0
  6  7  1  0
  7  8  2  0
  9 11  1  0
  9 10  2  0
 11 12  1  0
 12 16  1  0
 13 14  1  0
 12 13  1  6
 14 15  2  0
 16 17  2  0
 16 21  1  0
 18 14  1  0
 20 19  1  1
 20 22  1  0
 21 20  1  0
 22 24  1  0
 23 22  2  0
M  END
$$$$
