HDA.pdb
     RDKit          3D

 24 24  0  0  1  0  0  0  0  0999 V2000
   17.7031   -9.7635  -12.8550 N   0  0  0  0  0  0  0  0  0  0  0  0
   16.9553   -8.9593  -13.8110 C   0  0  1  0  0  0  0  0  0  0  0  0
   15.5441   -9.5133  -13.9299 C   0  0  0  0  0  0  0  0  0  0  0  0
   15.5946  -10.8835  -14.5104 C   0  0  0  0  0  0  0  0  0  0  0  0
   16.7030  -11.5768  -14.9131 C   0  0  0  0  0  0  0  0  0  0  0  0
   16.2807  -12.7719  -15.3788 N   0  0  0  0  0  0  0  0  0  0  0  0
   14.9435  -12.8414  -15.2773 C   0  0  0  0  0  0  0  0  0  0  0  0
   14.5390  -11.6857  -14.7473 N   0  0  0  0  0  0  0  0  0  0  0  0
   16.9202   -7.5624  -13.2663 C   0  0  0  0  0  0  0  0  0  0  0  0
   16.3057   -6.6271  -13.8377 O   0  0  0  0  0  0  0  0  0  0  0  0
   17.5981   -7.2186  -12.0438 N   0  0  0  0  0  0  0  0  0  0  0  0
   17.6332   -5.8763  -11.5513 C   0  0  1  0  0  0  0  0  0  0  0  0
   17.4676   -5.9691  -10.0209 C   0  0  0  0  0  0  0  0  0  0  0  0
   16.0437   -6.1777   -9.6700 C   0  0  0  0  0  0  0  0  0  0  0  0
   15.1197   -6.1662  -10.5181 O   0  0  0  0  0  0  0  0  0  0  0  0
   18.9289   -5.2014  -11.8112 C   0  0  0  0  0  0  0  0  0  0  0  0
   19.1333   -3.9975  -11.4647 O   0  0  0  0  0  0  0  0  0  0  0  0
   15.7318   -6.3950   -8.3362 O   0  0  0  0  0  0  0  0  0  0  0  0
   22.4030   -6.0688  -13.0792 C   0  0  0  0  0  0  0  0  0  0  0  0
   21.2252   -5.1305  -12.8416 C   0  0  2  0  0  0  0  0  0  0  0  0
   20.0411   -5.8351  -12.4619 N   0  0  0  0  0  0  0  0  0  0  0  0
   21.1018   -4.2264  -13.9760 C   0  0  0  0  0  0  0  0  0  0  0  0
   20.2144   -4.5272  -14.8442 O   0  0  0  0  0  0  0  0  0  0  0  0
   21.8189   -3.0916  -14.2306 O   0  0  0  0  0  0  0  0  0  0  0  0
  2  1  1  1
  2  9  1  0
  3  4  1  0
  3  2  1  0
  4  8  1  0
  5  6  1  0
  5  4  2  0
  6  7  1  0
  7  8  2  0
  9 11  1  0
  9 10  2  0
 11 12  1  0
 12 16  1  0
 13 14  1  0
 12 13  1  1
 14 15  2  0
 16 17  2  0
 16 21  1  0
 18 14  1  0
 20 19  1  6
 20 22  1  0
 21 20  1  0
 22 24  1  0
 23 22  2  0
M  END
$$$$
