HDA.pdb
     RDKit          3D

 24 24  0  0  1  0  0  0  0  0999 V2000
   31.7517  -36.5286   -6.0253 N   0  0  0  0  0  0  0  0  0  0  0  0
   32.3290  -35.9882   -4.8029 C   0  0  1  0  0  0  0  0  0  0  0  0
   31.7681  -34.5953   -4.5618 C   0  0  0  0  0  0  0  0  0  0  0  0
   32.3648  -33.6427   -5.5382 C   0  0  0  0  0  0  0  0  0  0  0  0
   31.7146  -32.9224   -6.5024 C   0  0  0  0  0  0  0  0  0  0  0  0
   32.6464  -32.1967   -7.1570 N   0  0  0  0  0  0  0  0  0  0  0  0
   33.8556  -32.4448   -6.6282 C   0  0  0  0  0  0  0  0  0  0  0  0
   33.6697  -33.3264   -5.6441 N   0  0  0  0  0  0  0  0  0  0  0  0
   31.9256  -36.9097   -3.6905 C   0  0  0  0  0  0  0  0  0  0  0  0
   30.9295  -37.6716   -3.7688 O   0  0  0  0  0  0  0  0  0  0  0  0
   32.6704  -36.9684   -2.4600 N   0  0  0  0  0  0  0  0  0  0  0  0
   32.3098  -37.8589   -1.4006 C   0  0  1  0  0  0  0  0  0  0  0  0
   33.6131  -38.1865   -0.6440 C   0  0  0  0  0  0  0  0  0  0  0  0
   33.3672  -39.2354    0.3726 C   0  0  0  0  0  0  0  0  0  0  0  0
   32.2263  -39.6910    0.6256 O   0  0  0  0  0  0  0  0  0  0  0  0
   31.3790  -37.2432   -0.4227 C   0  0  0  0  0  0  0  0  0  0  0  0
   31.6119  -36.1070    0.0932 O   0  0  0  0  0  0  0  0  0  0  0  0
   34.4598  -39.7282    1.0704 O   0  0  0  0  0  0  0  0  0  0  0  0
   27.9365  -38.0000    1.0414 C   0  0  0  0  0  0  0  0  0  0  0  0
   29.2479  -37.2324    0.9182 C   0  0  2  0  0  0  0  0  0  0  0  0
   30.1602  -37.8626    0.0164 N   0  0  0  0  0  0  0  0  0  0  0  0
   29.7557  -36.9426    2.2515 C   0  0  0  0  0  0  0  0  0  0  0  0
   30.7786  -37.6111    2.6240 O   0  0  0  0  0  0  0  0  0  0  0  0
   29.2741  -36.0420    3.1590 O   0  0  0  0  0  0  0  0  0  0  0  0
  2  1  1  6
  2  9  1  0
  3  4  1  0
  3  2  1  0
  4  8  1  0
  5  6  1  0
  5  4  2  0
  6  7  1  0
  7  8  2  0
  9 11  1  0
  9 10  2  0
 11 12  1  0
 12 16  1  0
 13 14  1  0
 12 13  1  1
 14 15  2  0
 16 17  2  0
 16 21  1  0
 18 14  1  0
 20 19  1  1
 20 22  1  0
 21 20  1  0
 22 24  1  0
 23 22  2  0
M  END
$$$$
