HDA.pdb
     RDKit          3D

 24 24  0  0  1  0  0  0  0  0999 V2000
   18.8589  -10.8764  -16.8843 N   0  0  0  0  0  0  0  0  0  0  0  0
   19.8606   -9.9177  -17.3283 C   0  0  1  0  0  0  0  0  0  0  0  0
   19.6685   -9.6500  -18.8130 C   0  0  0  0  0  0  0  0  0  0  0  0
   19.9760  -10.8853  -19.5852 C   0  0  0  0  0  0  0  0  0  0  0  0
   19.0871  -11.7929  -20.0926 C   0  0  0  0  0  0  0  0  0  0  0  0
   19.8055  -12.7537  -20.7125 N   0  0  0  0  0  0  0  0  0  0  0  0
   21.1136  -12.4699  -20.6052 C   0  0  0  0  0  0  0  0  0  0  0  0
   21.2032  -11.3303  -19.9170 N   0  0  0  0  0  0  0  0  0  0  0  0
   19.6349   -8.6613  -16.5411 C   0  0  0  0  0  0  0  0  0  0  0  0
   18.4945   -8.2941  -16.1622 O   0  0  0  0  0  0  0  0  0  0  0  0
   20.7294   -7.8010  -16.1746 N   0  0  0  0  0  0  0  0  0  0  0  0
   20.5289   -6.6047  -15.4168 C   0  0  1  0  0  0  0  0  0  0  0  0
   21.7795   -6.4355  -14.5304 C   0  0  0  0  0  0  0  0  0  0  0  0
   21.6295   -5.2531  -13.6509 C   0  0  0  0  0  0  0  0  0  0  0  0
   20.6046   -4.5302  -13.6427 O   0  0  0  0  0  0  0  0  0  0  0  0
   20.4288   -5.3938  -16.2684 C   0  0  0  0  0  0  0  0  0  0  0  0
   21.3267   -5.1007  -17.1165 O   0  0  0  0  0  0  0  0  0  0  0  0
   22.6806   -4.9423  -12.8009 O   0  0  0  0  0  0  0  0  0  0  0  0
   17.8273   -2.7640  -17.1304 C   0  0  0  0  0  0  0  0  0  0  0  0
   19.2482   -3.3098  -17.0449 C   0  0  2  0  0  0  0  0  0  0  0  0
   19.3330   -4.4675  -16.2111 N   0  0  0  0  0  0  0  0  0  0  0  0
   20.1579   -2.2183  -16.7274 C   0  0  0  0  0  0  0  0  0  0  0  0
   20.6113   -2.1901  -15.5335 O   0  0  0  0  0  0  0  0  0  0  0  0
   20.5898   -1.2157  -17.5490 O   0  0  0  0  0  0  0  0  0  0  0  0
  2  1  1  1
  2  9  1  0
  3  4  1  0
  3  2  1  0
  4  8  1  0
  5  6  1  0
  5  4  2  0
  6  7  1  0
  7  8  2  0
  9 11  1  0
  9 10  2  0
 11 12  1  0
 12 16  1  0
 13 14  1  0
 12 13  1  1
 14 15  2  0
 16 17  2  0
 16 21  1  0
 18 14  1  0
 20 19  1  1
 20 22  1  0
 21 20  1  0
 22 24  1  0
 23 22  2  0
M  END
$$$$
