HDA.pdb
     RDKit          3D

 24 24  0  0  1  0  0  0  0  0999 V2000
   31.4281  -32.0489  -16.8391 N   0  0  0  0  0  0  0  0  0  0  0  0
   30.2541  -31.2867  -17.2399 C   0  0  1  0  0  0  0  0  0  0  0  0
   30.3979  -30.8833  -18.6990 C   0  0  0  0  0  0  0  0  0  0  0  0
   31.5009  -29.8923  -18.8349 C   0  0  0  0  0  0  0  0  0  0  0  0
   31.4419  -28.5445  -18.6084 C   0  0  0  0  0  0  0  0  0  0  0  0
   32.6698  -28.0420  -18.8596 N   0  0  0  0  0  0  0  0  0  0  0  0
   33.4894  -29.0372  -19.2352 C   0  0  0  0  0  0  0  0  0  0  0  0
   32.7652  -30.1577  -19.2159 N   0  0  0  0  0  0  0  0  0  0  0  0
   29.0712  -32.1922  -17.0661 C   0  0  0  0  0  0  0  0  0  0  0  0
   29.1685  -33.4449  -17.0791 O   0  0  0  0  0  0  0  0  0  0  0  0
   27.7463  -31.6637  -16.8725 N   0  0  0  0  0  0  0  0  0  0  0  0
   26.7798  -32.3288  -16.0546 C   0  0  1  0  0  0  0  0  0  0  0  0
   27.3282  -32.2908  -14.6137 C   0  0  0  0  0  0  0  0  0  0  0  0
   26.4759  -33.1066  -13.7180 C   0  0  0  0  0  0  0  0  0  0  0  0
   25.6781  -32.6077  -12.8887 O   0  0  0  0  0  0  0  0  0  0  0  0
   25.4655  -31.6402  -16.0410 C   0  0  0  0  0  0  0  0  0  0  0  0
   25.3382  -30.4581  -15.5961 O   0  0  0  0  0  0  0  0  0  0  0  0
   26.5751  -34.4869  -13.8118 O   0  0  0  0  0  0  0  0  0  0  0  0
   21.8565  -32.4317  -17.0199 C   0  0  0  0  0  0  0  0  0  0  0  0
   22.9930  -31.5534  -16.5088 C   0  0  2  0  0  0  0  0  0  0  0  0
   24.2491  -32.2350  -16.5191 N   0  0  0  0  0  0  0  0  0  0  0  0
   22.5962  -30.9513  -15.2441 C   0  0  0  0  0  0  0  0  0  0  0  0
   21.6797  -30.0634  -15.3041 O   0  0  0  0  0  0  0  0  0  0  0  0
   23.0826  -31.2171  -13.9953 O   0  0  0  0  0  0  0  0  0  0  0  0
  2  1  1  6
  2  9  1  0
  3  4  1  0
  3  2  1  0
  4  8  1  0
  5  6  1  0
  5  4  2  0
  6  7  1  0
  7  8  2  0
  9 11  1  0
  9 10  2  0
 11 12  1  0
 12 16  1  0
 13 14  1  0
 12 13  1  1
 14 15  2  0
 16 17  2  0
 16 21  1  0
 18 14  1  0
 20 19  1  1
 20 22  1  0
 21 20  1  0
 22 24  1  0
 23 22  2  0
M  END
$$$$
