HDA.pdb
     RDKit          3D

 24 24  0  0  1  0  0  0  0  0999 V2000
   18.0350  -11.0589  -16.6662 N   0  0  0  0  0  0  0  0  0  0  0  0
   19.2561  -11.3597  -15.9327 C   0  0  1  0  0  0  0  0  0  0  0  0
   19.9049  -12.5968  -16.5336 C   0  0  0  0  0  0  0  0  0  0  0  0
   19.0065  -13.7697  -16.3484 C   0  0  0  0  0  0  0  0  0  0  0  0
   17.8546  -13.8281  -15.6128 C   0  0  0  0  0  0  0  0  0  0  0  0
   17.3726  -15.0847  -15.7226 N   0  0  0  0  0  0  0  0  0  0  0  0
   18.1905  -15.8081  -16.5041 C   0  0  0  0  0  0  0  0  0  0  0  0
   19.1807  -14.9957  -16.8781 N   0  0  0  0  0  0  0  0  0  0  0  0
   20.1584  -10.1721  -16.0905 C   0  0  0  0  0  0  0  0  0  0  0  0
   21.3364  -10.1527  -15.6538 O   0  0  0  0  0  0  0  0  0  0  0  0
   19.7135   -8.9780  -16.7603 N   0  0  0  0  0  0  0  0  0  0  0  0
   20.5804   -7.8590  -16.9647 C   0  0  1  0  0  0  0  0  0  0  0  0
   20.2242   -7.2788  -18.3485 C   0  0  0  0  0  0  0  0  0  0  0  0
   20.7553   -8.1493  -19.4228 C   0  0  0  0  0  0  0  0  0  0  0  0
   21.9296   -8.5902  -19.4305 O   0  0  0  0  0  0  0  0  0  0  0  0
   20.3701   -6.7785  -15.9697 C   0  0  0  0  0  0  0  0  0  0  0  0
   19.2058   -6.3951  -15.6399 O   0  0  0  0  0  0  0  0  0  0  0  0
   19.9024   -8.4851  -20.4637 O   0  0  0  0  0  0  0  0  0  0  0  0
   22.4749   -4.7445  -13.5343 C   0  0  0  0  0  0  0  0  0  0  0  0
   21.2190   -5.0571  -14.3401 C   0  0  2  0  0  0  0  0  0  0  0  0
   21.4394   -6.0870  -15.3063 N   0  0  0  0  0  0  0  0  0  0  0  0
   20.6543   -3.8125  -14.8415 C   0  0  0  0  0  0  0  0  0  0  0  0
   20.8579   -3.5570  -16.0765 O   0  0  0  0  0  0  0  0  0  0  0  0
   19.9309   -2.8787  -14.1548 O   0  0  0  0  0  0  0  0  0  0  0  0
  2  1  1  6
  2  9  1  0
  3  4  1  0
  3  2  1  0
  4  8  1  0
  5  6  1  0
  5  4  2  0
  6  7  1  0
  7  8  2  0
  9 11  1  0
  9 10  2  0
 11 12  1  0
 12 16  1  0
 13 14  1  0
 12 13  1  6
 14 15  2  0
 16 17  2  0
 16 21  1  0
 18 14  1  0
 20 19  1  6
 20 22  1  0
 21 20  1  0
 22 24  1  0
 23 22  2  0
M  END
$$$$
