HDA.pdb
     RDKit          3D

 24 24  0  0  1  0  0  0  0  0999 V2000
   15.1800   -9.3915  -10.5112 N   0  0  0  0  0  0  0  0  0  0  0  0
   15.2500   -7.9552  -10.7394 C   0  0  1  0  0  0  0  0  0  0  0  0
   15.5906   -7.2600   -9.4305 C   0  0  0  0  0  0  0  0  0  0  0  0
   14.4103   -7.3004   -8.5237 C   0  0  0  0  0  0  0  0  0  0  0  0
   14.2519   -8.0592   -7.3966 C   0  0  0  0  0  0  0  0  0  0  0  0
   13.0294   -7.7810   -6.8949 N   0  0  0  0  0  0  0  0  0  0  0  0
   12.4242   -6.8723   -7.6767 C   0  0  0  0  0  0  0  0  0  0  0  0
   13.2756   -6.5886   -8.6641 N   0  0  0  0  0  0  0  0  0  0  0  0
   16.3395   -7.7303  -11.7453 C   0  0  0  0  0  0  0  0  0  0  0  0
   17.2483   -8.5710  -11.9599 O   0  0  0  0  0  0  0  0  0  0  0  0
   16.3989   -6.5227  -12.5266 N   0  0  0  0  0  0  0  0  0  0  0  0
   17.3329   -6.3613  -13.5976 C   0  0  1  0  0  0  0  0  0  0  0  0
   16.6963   -5.3613  -14.5841 C   0  0  0  0  0  0  0  0  0  0  0  0
   17.5706   -5.1779  -15.7655 C   0  0  0  0  0  0  0  0  0  0  0  0
   18.3743   -6.0535  -16.1664 O   0  0  0  0  0  0  0  0  0  0  0  0
   18.6227   -5.7772  -13.1536 C   0  0  0  0  0  0  0  0  0  0  0  0
   18.6668   -4.7468  -12.4135 O   0  0  0  0  0  0  0  0  0  0  0  0
   17.4862   -3.9756  -16.4519 O   0  0  0  0  0  0  0  0  0  0  0  0
   22.2947   -6.7321  -13.1504 C   0  0  0  0  0  0  0  0  0  0  0  0
   21.1389   -5.7411  -13.0711 C   0  0  2  0  0  0  0  0  0  0  0  0
   19.9057   -6.3129  -13.5125 N   0  0  0  0  0  0  0  0  0  0  0  0
   21.5371   -4.4949  -13.7098 C   0  0  0  0  0  0  0  0  0  0  0  0
   21.0506   -4.2744  -14.8702 O   0  0  0  0  0  0  0  0  0  0  0  0
   22.3694   -3.5271  -13.2227 O   0  0  0  0  0  0  0  0  0  0  0  0
  2  1  1  1
  2  9  1  0
  3  4  1  0
  3  2  1  0
  4  8  1  0
  5  6  1  0
  5  4  2  0
  6  7  1  0
  7  8  2  0
  9 11  1  0
  9 10  2  0
 11 12  1  0
 12 16  1  0
 13 14  1  0
 12 13  1  6
 14 15  2  0
 16 17  2  0
 16 21  1  0
 18 14  1  0
 20 19  1  6
 20 22  1  0
 21 20  1  0
 22 24  1  0
 23 22  2  0
M  END
$$$$
