CNG.pdb
     RDKit          3D

 19 18  0  0  1  0  0  0  0  0999 V2000
   21.3670  -11.2071  -15.5547 N   0  0  0  0  0  0  0  0  0  0  0  0
   20.6343  -10.7606  -16.6981 C   0  0  1  0  0  0  0  0  0  0  0  0
   19.5938  -11.7953  -17.0632 C   0  0  0  0  0  0  0  0  0  0  0  0
   20.3727  -13.4423  -16.9587 S   0  0  0  0  0  0  0  0  0  0  0  0
   19.9754   -9.4412  -16.4566 C   0  0  0  0  0  0  0  0  0  0  0  0
   19.3231   -8.8724  -17.3877 O   0  0  0  0  0  0  0  0  0  0  0  0
   16.8032   -8.0654  -15.9502 N   0  0  0  0  0  0  0  0  0  0  0  0
   16.9819   -8.3312  -14.5497 C   0  0  0  0  0  0  0  0  0  0  0  0
   16.0012   -8.7593  -13.9433 O   0  0  0  0  0  0  0  0  0  0  0  0
   18.2706   -8.0760  -13.9946 C   0  0  0  0  0  0  0  0  0  0  0  0
   19.3916   -7.5799  -14.8660 C   0  0  2  0  0  0  0  0  0  0  0  0
   20.0950   -8.8570  -15.1928 N   0  0  0  0  0  0  0  0  0  0  0  0
   20.4210   -6.7820  -14.2043 C   0  0  0  0  0  0  0  0  0  0  0  0
   21.2434   -7.3466  -13.3854 O   0  0  0  0  0  0  0  0  0  0  0  0
   20.6433   -5.3950  -14.3613 N   0  0  0  0  0  0  0  0  0  0  0  0
   21.6977   -4.6913  -13.6042 C   0  0  0  0  0  0  0  0  0  0  0  0
   21.7325   -3.2987  -14.0888 C   0  0  0  0  0  0  0  0  0  0  0  0
   21.0928   -2.9318  -15.1101 O   0  0  0  0  0  0  0  0  0  0  0  0
   22.4792   -2.3593  -13.4192 O   0  0  0  0  0  0  0  0  0  0  0  0
  2  1  1  1
  3  2  1  0
  3  4  1  0
  5  6  2  0
  5  2  1  0
  7  8  1  0
  8  9  2  0
 10  8  1  0
 11 10  1  1
 11 12  1  0
 12  5  1  0
 13 15  1  0
 13 11  1  0
 14 13  2  0
 16 17  1  0
 16 15  1  0
 17 19  1  0
 18 17  2  0
M  END
$$$$
