CNG.pdb
     RDKit          3D

 19 18  0  0  1  0  0  0  0  0999 V2000
   25.7041  -12.0676  -16.7324 N   0  0  0  0  0  0  0  0  0  0  0  0
   25.7081  -10.7353  -16.2145 C   0  0  1  0  0  0  0  0  0  0  0  0
   26.9623  -10.0234  -16.6696 C   0  0  0  0  0  0  0  0  0  0  0  0
   28.3705  -10.6994  -15.7262 S   0  0  0  0  0  0  0  0  0  0  0  0
   24.5022   -9.9660  -16.6475 C   0  0  0  0  0  0  0  0  0  0  0  0
   24.0102  -10.1472  -17.8055 O   0  0  0  0  0  0  0  0  0  0  0  0
   20.0366   -8.2051  -17.1226 N   0  0  0  0  0  0  0  0  0  0  0  0
   20.2999   -9.1568  -16.0791 C   0  0  0  0  0  0  0  0  0  0  0  0
   19.3474   -9.8400  -15.7068 O   0  0  0  0  0  0  0  0  0  0  0  0
   21.6321   -9.2217  -15.5738 C   0  0  0  0  0  0  0  0  0  0  0  0
   22.6951   -8.3000  -16.1054 C   0  0  2  0  0  0  0  0  0  0  0  0
   23.9371   -9.0525  -15.7537 N   0  0  0  0  0  0  0  0  0  0  0  0
   22.8567   -7.0274  -15.4067 C   0  0  0  0  0  0  0  0  0  0  0  0
   23.0825   -7.0168  -14.1360 O   0  0  0  0  0  0  0  0  0  0  0  0
   22.7980   -5.7370  -15.9806 N   0  0  0  0  0  0  0  0  0  0  0  0
   22.8410   -4.5186  -15.1477 C   0  0  0  0  0  0  0  0  0  0  0  0
   21.4593   -4.2277  -14.7216 C   0  0  0  0  0  0  0  0  0  0  0  0
   20.4757   -4.8852  -15.1541 O   0  0  0  0  0  0  0  0  0  0  0  0
   21.2181   -3.2131  -13.8268 O   0  0  0  0  0  0  0  0  0  0  0  0
  2  1  1  6
  3  2  1  0
  3  4  1  0
  5  6  2  0
  5  2  1  0
  7  8  1  0
  8  9  2  0
 10  8  1  0
 11 10  1  1
 11 12  1  0
 12  5  1  0
 13 15  1  0
 13 11  1  0
 14 13  2  0
 16 17  1  0
 16 15  1  0
 17 19  1  0
 18 17  2  0
M  END
$$$$
