CNG.pdb
     RDKit          3D

 19 18  0  0  1  0  0  0  0  0999 V2000
   27.6547  -21.1128  -10.3155 N   0  0  0  0  0  0  0  0  0  0  0  0
   26.2733  -21.0310  -10.6738 C   0  0  1  0  0  0  0  0  0  0  0  0
   25.5058  -20.3500   -9.5629 C   0  0  0  0  0  0  0  0  0  0  0  0
   25.6698  -21.3666   -8.0563 S   0  0  0  0  0  0  0  0  0  0  0  0
   26.0738  -20.2907  -11.9566 C   0  0  0  0  0  0  0  0  0  0  0  0
   26.4916  -19.0961  -12.0769 O   0  0  0  0  0  0  0  0  0  0  0  0
   28.1367  -19.5495  -15.2174 N   0  0  0  0  0  0  0  0  0  0  0  0
   27.6798  -20.9024  -15.0599 C   0  0  0  0  0  0  0  0  0  0  0  0
   28.5443  -21.7528  -14.8550 O   0  0  0  0  0  0  0  0  0  0  0  0
   26.2757  -21.1340  -15.1550 C   0  0  0  0  0  0  0  0  0  0  0  0
   25.3100  -20.3038  -14.3548 C   0  0  2  0  0  0  0  0  0  0  0  0
   25.4225  -20.9410  -13.0081 N   0  0  0  0  0  0  0  0  0  0  0  0
   23.8958  -20.4555  -14.6879 C   0  0  0  0  0  0  0  0  0  0  0  0
   23.5011  -20.2866  -15.9051 O   0  0  0  0  0  0  0  0  0  0  0  0
   22.8503  -20.7866  -13.7961 N   0  0  0  0  0  0  0  0  0  0  0  0
   21.4376  -20.7795  -14.2255 C   0  0  0  0  0  0  0  0  0  0  0  0
   20.6509  -21.4302  -13.1610 C   0  0  0  0  0  0  0  0  0  0  0  0
   20.4045  -20.8552  -12.0676 O   0  0  0  0  0  0  0  0  0  0  0  0
   20.1637  -22.7011  -13.3496 O   0  0  0  0  0  0  0  0  0  0  0  0
  2  1  1  1
  3  2  1  0
  3  4  1  0
  5  6  2  0
  5  2  1  0
  7  8  1  0
  8  9  2  0
 10  8  1  0
 11 10  1  6
 11 12  1  0
 12  5  1  0
 13 15  1  0
 13 11  1  0
 14 13  2  0
 16 17  1  0
 16 15  1  0
 17 19  1  0
 18 17  2  0
M  END
$$$$
