CNG.pdb
     RDKit          3D

 19 18  0  0  1  0  0  0  0  0999 V2000
   21.2468  -10.2245  -14.9556 N   0  0  0  0  0  0  0  0  0  0  0  0
   22.3711  -10.7455  -15.6684 C   0  0  1  0  0  0  0  0  0  0  0  0
   21.9262  -11.9068  -16.5285 C   0  0  0  0  0  0  0  0  0  0  0  0
   20.6360  -12.8226  -15.6193 S   0  0  0  0  0  0  0  0  0  0  0  0
   23.0221   -9.7036  -16.5193 C   0  0  0  0  0  0  0  0  0  0  0  0
   24.0785   -9.9787  -17.1708 O   0  0  0  0  0  0  0  0  0  0  0  0
   20.7111   -8.2513  -20.1823 N   0  0  0  0  0  0  0  0  0  0  0  0
   21.9964   -7.9944  -19.5940 C   0  0  0  0  0  0  0  0  0  0  0  0
   22.9617   -8.5405  -20.1255 O   0  0  0  0  0  0  0  0  0  0  0  0
   22.0351   -7.1360  -18.4557 C   0  0  0  0  0  0  0  0  0  0  0  0
   23.0685   -7.3395  -17.3820 C   0  0  2  0  0  0  0  0  0  0  0  0
   22.4435   -8.4329  -16.5781 N   0  0  0  0  0  0  0  0  0  0  0  0
   23.2235   -6.2524  -16.4187 C   0  0  0  0  0  0  0  0  0  0  0  0
   23.5142   -5.0648  -16.8321 O   0  0  0  0  0  0  0  0  0  0  0  0
   23.0825   -6.3431  -15.0152 N   0  0  0  0  0  0  0  0  0  0  0  0
   23.2682   -5.1664  -14.1427 C   0  0  0  0  0  0  0  0  0  0  0  0
   21.9427   -4.5496  -13.9477 C   0  0  0  0  0  0  0  0  0  0  0  0
   20.9150   -4.9771  -14.5373 O   0  0  0  0  0  0  0  0  0  0  0  0
   21.8052   -3.4759  -13.1012 O   0  0  0  0  0  0  0  0  0  0  0  0
  2  1  1  6
  3  2  1  0
  3  4  1  0
  5  6  2  0
  5  2  1  0
  7  8  1  0
  8  9  2  0
 10  8  1  0
 11 10  1  6
 11 12  1  0
 12  5  1  0
 13 15  1  0
 13 11  1  0
 14 13  2  0
 16 17  1  0
 16 15  1  0
 17 19  1  0
 18 17  2  0
M  END
$$$$
