CNG.pdb
     RDKit          3D

 19 18  0  0  1  0  0  0  0  0999 V2000
   28.8412  -20.3471  -15.1039 N   0  0  0  0  0  0  0  0  0  0  0  0
   27.6745  -19.6511  -14.6592 C   0  0  1  0  0  0  0  0  0  0  0  0
   26.9672  -19.0444  -15.8501 C   0  0  0  0  0  0  0  0  0  0  0  0
   27.8865  -17.5507  -16.3536 S   0  0  0  0  0  0  0  0  0  0  0  0
   26.7393  -20.5498  -13.9168 C   0  0  0  0  0  0  0  0  0  0  0  0
   26.8896  -21.8110  -13.9673 O   0  0  0  0  0  0  0  0  0  0  0  0
   26.5581  -22.0013  -10.3293 N   0  0  0  0  0  0  0  0  0  0  0  0
   25.9775  -20.7323   -9.9876 C   0  0  0  0  0  0  0  0  0  0  0  0
   26.2865  -20.2651   -8.8926 O   0  0  0  0  0  0  0  0  0  0  0  0
   25.1022  -20.1350  -10.9420 C   0  0  0  0  0  0  0  0  0  0  0  0
   24.8534  -20.7986  -12.2686 C   0  0  2  0  0  0  0  0  0  0  0  0
   25.7065  -19.9712  -13.1742 N   0  0  0  0  0  0  0  0  0  0  0  0
   23.5124  -20.6453  -12.8274 C   0  0  0  0  0  0  0  0  0  0  0  0
   22.9911  -19.4692  -12.9322 O   0  0  0  0  0  0  0  0  0  0  0  0
   22.6715  -21.6796  -13.2974 N   0  0  0  0  0  0  0  0  0  0  0  0
   21.3198  -21.3982  -13.8210 C   0  0  0  0  0  0  0  0  0  0  0  0
   20.3747  -21.5384  -12.6974 C   0  0  0  0  0  0  0  0  0  0  0  0
   20.4682  -20.8363  -11.6557 O   0  0  0  0  0  0  0  0  0  0  0  0
   19.3552  -22.4568  -12.7711 O   0  0  0  0  0  0  0  0  0  0  0  0
  2  1  1  6
  3  2  1  0
  3  4  1  0
  5  6  2  0
  5  2  1  0
  7  8  1  0
  8  9  2  0
 10  8  1  0
 11 10  1  1
 11 12  1  0
 12  5  1  0
 13 15  1  0
 13 11  1  0
 14 13  2  0
 16 17  1  0
 16 15  1  0
 17 19  1  0
 18 17  2  0
M  END
$$$$
