CNG.pdb
     RDKit          3D

 19 18  0  0  1  0  0  0  0  0999 V2000
   20.8062  -11.8829  -16.8611 N   0  0  0  0  0  0  0  0  0  0  0  0
   20.5441  -10.4777  -16.8540 C   0  0  1  0  0  0  0  0  0  0  0  0
   19.8198  -10.1085  -15.5789 C   0  0  0  0  0  0  0  0  0  0  0  0
   18.0995  -10.7021  -15.7133 S   0  0  0  0  0  0  0  0  0  0  0  0
   21.7999   -9.6766  -16.9747 C   0  0  0  0  0  0  0  0  0  0  0  0
   22.8663  -10.0699  -16.4054 O   0  0  0  0  0  0  0  0  0  0  0  0
   24.1062   -9.5226  -19.9206 N   0  0  0  0  0  0  0  0  0  0  0  0
   23.4178   -8.3670  -20.4253 C   0  0  0  0  0  0  0  0  0  0  0  0
   23.3478   -8.2613  -21.6487 O   0  0  0  0  0  0  0  0  0  0  0  0
   22.8826   -7.4546  -19.4687 C   0  0  0  0  0  0  0  0  0  0  0  0
   23.0201   -7.7263  -17.9958 C   0  0  2  0  0  0  0  0  0  0  0  0
   21.7693   -8.4964  -17.7225 N   0  0  0  0  0  0  0  0  0  0  0  0
   22.9094   -6.5690  -17.1112 C   0  0  0  0  0  0  0  0  0  0  0  0
   23.8250   -5.6595  -17.1262 O   0  0  0  0  0  0  0  0  0  0  0  0
   21.8660   -6.3048  -16.1951 N   0  0  0  0  0  0  0  0  0  0  0  0
   21.8499   -5.0762  -15.3762 C   0  0  0  0  0  0  0  0  0  0  0  0
   21.9983   -5.4848  -13.9668 C   0  0  0  0  0  0  0  0  0  0  0  0
   22.1620   -6.6890  -13.6353 O   0  0  0  0  0  0  0  0  0  0  0  0
   21.9599   -4.5378  -12.9718 O   0  0  0  0  0  0  0  0  0  0  0  0
  2  1  1  1
  3  2  1  0
  3  4  1  0
  5  6  2  0
  5  2  1  0
  7  8  1  0
  8  9  2  0
 10  8  1  0
 11 10  1  6
 11 12  1  0
 12  5  1  0
 13 15  1  0
 13 11  1  0
 14 13  2  0
 16 17  1  0
 16 15  1  0
 17 19  1  0
 18 17  2  0
M  END
$$$$
