CNG.pdb
     RDKit          3D

 19 18  0  0  1  0  0  0  0  0999 V2000
   27.5667  -18.2229  -16.6286 N   0  0  0  0  0  0  0  0  0  0  0  0
   27.1242  -17.9368  -15.2997 C   0  0  1  0  0  0  0  0  0  0  0  0
   26.0634  -16.8600  -15.3446 C   0  0  0  0  0  0  0  0  0  0  0  0
   26.8909  -15.2632  -15.6535 S   0  0  0  0  0  0  0  0  0  0  0  0
   26.5848  -19.1527  -14.6186 C   0  0  0  0  0  0  0  0  0  0  0  0
   26.3306  -20.2018  -15.2901 O   0  0  0  0  0  0  0  0  0  0  0  0
   25.5484  -22.1217  -10.3098 N   0  0  0  0  0  0  0  0  0  0  0  0
   26.3010  -20.9294  -10.0341 C   0  0  0  0  0  0  0  0  0  0  0  0
   26.6917  -20.7828   -8.8771 O   0  0  0  0  0  0  0  0  0  0  0  0
   26.5244  -20.0312  -11.1191 C   0  0  0  0  0  0  0  0  0  0  0  0
   25.9583  -20.3251  -12.4813 C   0  0  2  0  0  0  0  0  0  0  0  0
   26.3702  -19.1047  -13.2386 N   0  0  0  0  0  0  0  0  0  0  0  0
   24.5017  -20.3206  -12.5914 C   0  0  0  0  0  0  0  0  0  0  0  0
   23.8042  -21.1714  -11.9166 O   0  0  0  0  0  0  0  0  0  0  0  0
   23.7188  -19.4507  -13.3840 N   0  0  0  0  0  0  0  0  0  0  0  0
   22.2449  -19.4420  -13.2958 C   0  0  0  0  0  0  0  0  0  0  0  0
   21.7358  -20.3446  -14.3454 C   0  0  0  0  0  0  0  0  0  0  0  0
   20.5027  -20.5062  -14.5455 O   0  0  0  0  0  0  0  0  0  0  0  0
   22.6179  -21.0381  -15.1387 O   0  0  0  0  0  0  0  0  0  0  0  0
  2  1  1  6
  3  2  1  0
  3  4  1  0
  5  6  2  0
  5  2  1  0
  7  8  1  0
  8  9  2  0
 10  8  1  0
 11 10  1  1
 11 12  1  0
 12  5  1  0
 13 15  1  0
 13 11  1  0
 14 13  2  0
 16 17  1  0
 16 15  1  0
 17 19  1  0
 18 17  2  0
M  END
$$$$
