CNG.pdb
     RDKit          3D

 19 18  0  0  1  0  0  0  0  0999 V2000
   23.9559  -10.0031  -17.0401 N   0  0  0  0  0  0  0  0  0  0  0  0
   23.0568  -10.1215  -18.1451 C   0  0  1  0  0  0  0  0  0  0  0  0
   22.7427  -11.5815  -18.3827 C   0  0  0  0  0  0  0  0  0  0  0  0
   24.3186  -12.5010  -18.4158 S   0  0  0  0  0  0  0  0  0  0  0  0
   21.7910   -9.3605  -17.9167 C   0  0  0  0  0  0  0  0  0  0  0  0
   20.8459   -9.4226  -18.7646 O   0  0  0  0  0  0  0  0  0  0  0  0
   17.6426   -7.4425  -16.8965 N   0  0  0  0  0  0  0  0  0  0  0  0
   18.0601   -8.7063  -16.3555 C   0  0  0  0  0  0  0  0  0  0  0  0
   17.1694   -9.5159  -16.1029 O   0  0  0  0  0  0  0  0  0  0  0  0
   19.4591   -8.9050  -16.1620 C   0  0  0  0  0  0  0  0  0  0  0  0
   20.4360   -7.8050  -16.4747 C   0  0  2  0  0  0  0  0  0  0  0  0
   21.6768   -8.5877  -16.7581 N   0  0  0  0  0  0  0  0  0  0  0  0
   20.8214   -6.9453  -15.3583 C   0  0  0  0  0  0  0  0  0  0  0  0
   19.9515   -6.1529  -14.8280 O   0  0  0  0  0  0  0  0  0  0  0  0
   22.0956   -6.8726  -14.7508 N   0  0  0  0  0  0  0  0  0  0  0  0
   22.3900   -5.8900  -13.6887 C   0  0  0  0  0  0  0  0  0  0  0  0
   22.3046   -4.5480  -14.2948 C   0  0  0  0  0  0  0  0  0  0  0  0
   21.5598   -3.6490  -13.8218 O   0  0  0  0  0  0  0  0  0  0  0  0
   23.0524   -4.2512  -15.4087 O   0  0  0  0  0  0  0  0  0  0  0  0
  2  1  1  1
  3  2  1  0
  3  4  1  0
  5  6  2  0
  5  2  1  0
  7  8  1  0
  8  9  2  0
 10  8  1  0
 11 10  1  1
 11 12  1  0
 12  5  1  0
 13 15  1  0
 13 11  1  0
 14 13  2  0
 16 17  1  0
 16 15  1  0
 17 19  1  0
 18 17  2  0
M  END
$$$$
