CNG.pdb
     RDKit          3D

 19 18  0  0  1  0  0  0  0  0999 V2000
   16.9523  -10.8003  -14.3966 N   0  0  0  0  0  0  0  0  0  0  0  0
   17.0243   -9.5133  -15.0147 C   0  0  1  0  0  0  0  0  0  0  0  0
   15.7269   -8.7717  -14.7830 C   0  0  0  0  0  0  0  0  0  0  0  0
   14.3963   -9.6772  -15.6430 S   0  0  0  0  0  0  0  0  0  0  0  0
   18.1696   -8.7081  -14.4921 C   0  0  0  0  0  0  0  0  0  0  0  0
   18.3912   -8.6482  -13.2417 O   0  0  0  0  0  0  0  0  0  0  0  0
   22.2257   -8.6727  -13.5305 N   0  0  0  0  0  0  0  0  0  0  0  0
   22.2514   -8.7587  -14.9643 C   0  0  0  0  0  0  0  0  0  0  0  0
   23.1133   -9.4863  -15.4546 O   0  0  0  0  0  0  0  0  0  0  0  0
   21.2825   -7.9979  -15.6829 C   0  0  0  0  0  0  0  0  0  0  0  0
   20.1862   -7.2735  -14.9511 C   0  0  2  0  0  0  0  0  0  0  0  0
   18.9810   -8.0305  -15.4060 N   0  0  0  0  0  0  0  0  0  0  0  0
   19.9139   -5.9050  -15.3837 C   0  0  0  0  0  0  0  0  0  0  0  0
   20.6520   -4.9371  -14.9544 O   0  0  0  0  0  0  0  0  0  0  0  0
   18.8908   -5.4870  -16.2648 N   0  0  0  0  0  0  0  0  0  0  0  0
   18.7476   -4.0736  -16.6671 C   0  0  0  0  0  0  0  0  0  0  0  0
   17.9605   -3.3956  -15.6201 C   0  0  0  0  0  0  0  0  0  0  0  0
   17.5807   -3.9940  -14.5787 O   0  0  0  0  0  0  0  0  0  0  0  0
   17.6220   -2.0720  -15.7674 O   0  0  0  0  0  0  0  0  0  0  0  0
  2  1  1  1
  3  2  1  0
  3  4  1  0
  5  6  2  0
  5  2  1  0
  7  8  1  0
  8  9  2  0
 10  8  1  0
 11 10  1  6
 11 12  1  0
 12  5  1  0
 13 15  1  0
 13 11  1  0
 14 13  2  0
 16 17  1  0
 16 15  1  0
 17 19  1  0
 18 17  2  0
M  END
$$$$
