CNG.pdb
     RDKit          3D

 19 18  0  0  1  0  0  0  0  0999 V2000
   15.8877  -11.5399  -14.2826 N   0  0  0  0  0  0  0  0  0  0  0  0
   16.7501  -10.7262  -13.4840 C   0  0  1  0  0  0  0  0  0  0  0  0
   17.8949  -10.2229  -14.3343 C   0  0  0  0  0  0  0  0  0  0  0  0
   18.9254  -11.6550  -14.8007 S   0  0  0  0  0  0  0  0  0  0  0  0
   16.0215   -9.5706  -12.8781 C   0  0  0  0  0  0  0  0  0  0  0  0
   15.1129   -8.9720  -13.5355 O   0  0  0  0  0  0  0  0  0  0  0  0
   13.3834   -7.1811   -9.4343 N   0  0  0  0  0  0  0  0  0  0  0  0
   14.1911   -8.2165   -8.8517 C   0  0  0  0  0  0  0  0  0  0  0  0
   13.8075   -8.6708   -7.7750 O   0  0  0  0  0  0  0  0  0  0  0  0
   15.3555   -8.6200   -9.5696 C   0  0  0  0  0  0  0  0  0  0  0  0
   15.6611   -8.0314  -10.9195 C   0  0  2  0  0  0  0  0  0  0  0  0
   16.3632   -9.1711  -11.5834 N   0  0  0  0  0  0  0  0  0  0  0  0
   16.6504   -6.9569  -10.9480 C   0  0  0  0  0  0  0  0  0  0  0  0
   16.3342   -5.7814  -10.5190 O   0  0  0  0  0  0  0  0  0  0  0  0
   17.9839   -7.0506  -11.4072 N   0  0  0  0  0  0  0  0  0  0  0  0
   18.8617   -5.8654  -11.4772 C   0  0  0  0  0  0  0  0  0  0  0  0
   20.1703   -6.2533  -10.9180 C   0  0  0  0  0  0  0  0  0  0  0  0
   21.1495   -5.4611  -10.9011 O   0  0  0  0  0  0  0  0  0  0  0  0
   20.3453   -7.5120  -10.3954 O   0  0  0  0  0  0  0  0  0  0  0  0
  2  1  1  6
  3  2  1  0
  3  4  1  0
  5  6  2  0
  5  2  1  0
  7  8  1  0
  8  9  2  0
 10  8  1  0
 11 10  1  1
 11 12  1  0
 12  5  1  0
 13 15  1  0
 13 11  1  0
 14 13  2  0
 16 17  1  0
 16 15  1  0
 17 19  1  0
 18 17  2  0
M  END
$$$$
