CNG.pdb
     RDKit          3D

 19 18  0  0  1  0  0  0  0  0999 V2000
   30.0472   -9.0853  -18.9514 N   0  0  0  0  0  0  0  0  0  0  0  0
   29.9499  -10.2855  -18.1810 C   0  0  1  0  0  0  0  0  0  0  0  0
   29.5370  -11.4281  -19.0814 C   0  0  0  0  0  0  0  0  0  0  0  0
   27.8538  -11.0837  -19.6966 S   0  0  0  0  0  0  0  0  0  0  0  0
   31.2385  -10.6159  -17.5001 C   0  0  0  0  0  0  0  0  0  0  0  0
   31.3128  -11.6208  -16.7250 O   0  0  0  0  0  0  0  0  0  0  0  0
   34.6225  -11.5815  -20.1590 N   0  0  0  0  0  0  0  0  0  0  0  0
   34.7662  -11.4884  -18.7326 C   0  0  0  0  0  0  0  0  0  0  0  0
   35.0274  -12.5332  -18.1385 O   0  0  0  0  0  0  0  0  0  0  0  0
   34.5938  -10.2026  -18.1402 C   0  0  0  0  0  0  0  0  0  0  0  0
   33.6303  -10.0107  -17.0014 C   0  0  2  0  0  0  0  0  0  0  0  0
   32.3470   -9.7985  -17.7367 N   0  0  0  0  0  0  0  0  0  0  0  0
   33.7850   -8.7846  -16.2225 C   0  0  0  0  0  0  0  0  0  0  0  0
   34.8914   -8.5556  -15.5986 O   0  0  0  0  0  0  0  0  0  0  0  0
   32.8240   -7.7606  -16.0622 N   0  0  0  0  0  0  0  0  0  0  0  0
   33.0141   -6.6688  -15.0865 C   0  0  0  0  0  0  0  0  0  0  0  0
   33.5190   -5.4984  -15.8286 C   0  0  0  0  0  0  0  0  0  0  0  0
   33.7091   -4.3857  -15.2697 O   0  0  0  0  0  0  0  0  0  0  0  0
   33.7961   -5.6060  -17.1702 O   0  0  0  0  0  0  0  0  0  0  0  0
  2  1  1  6
  3  2  1  0
  3  4  1  0
  5  6  2  0
  5  2  1  0
  7  8  1  0
  8  9  2  0
 10  8  1  0
 11 10  1  6
 11 12  1  0
 12  5  1  0
 13 15  1  0
 13 11  1  0
 14 13  2  0
 16 17  1  0
 16 15  1  0
 17 19  1  0
 18 17  2  0
M  END
$$$$
