CNG.pdb
     RDKit          3D

 19 18  0  0  1  0  0  0  0  0999 V2000
   13.3792  -10.5867   -9.9102 N   0  0  0  0  0  0  0  0  0  0  0  0
   14.7349  -10.1675   -9.7376 C   0  0  1  0  0  0  0  0  0  0  0  0
   15.6398  -11.0320  -10.5864 C   0  0  0  0  0  0  0  0  0  0  0  0
   15.8296  -12.6432   -9.7510 S   0  0  0  0  0  0  0  0  0  0  0  0
   14.9230   -8.7293  -10.0975 C   0  0  0  0  0  0  0  0  0  0  0  0
   14.2292   -8.2066  -11.0257 O   0  0  0  0  0  0  0  0  0  0  0  0
   16.2677   -3.7196   -9.4188 N   0  0  0  0  0  0  0  0  0  0  0  0
   15.4805   -4.4382   -8.4555 C   0  0  0  0  0  0  0  0  0  0  0  0
   14.9132   -3.7635   -7.5979 O   0  0  0  0  0  0  0  0  0  0  0  0
   15.4295   -5.8580   -8.5807 C   0  0  0  0  0  0  0  0  0  0  0  0
   16.1221   -6.5481   -9.7236 C   0  0  2  0  0  0  0  0  0  0  0  0
   15.8720   -7.9837   -9.3931 N   0  0  0  0  0  0  0  0  0  0  0  0
   17.5795   -6.4521   -9.7498 C   0  0  0  0  0  0  0  0  0  0  0  0
   18.2490   -6.5447   -8.6503 O   0  0  0  0  0  0  0  0  0  0  0  0
   18.3917   -6.2650  -10.8914 N   0  0  0  0  0  0  0  0  0  0  0  0
   19.8599   -6.1499  -10.7843 C   0  0  0  0  0  0  0  0  0  0  0  0
   20.4020   -6.1417  -12.1560 C   0  0  0  0  0  0  0  0  0  0  0  0
   19.6683   -6.3216  -13.1640 O   0  0  0  0  0  0  0  0  0  0  0  0
   21.7447   -5.9330  -12.3602 O   0  0  0  0  0  0  0  0  0  0  0  0
  2  1  1  6
  3  2  1  0
  3  4  1  0
  5  6  2  0
  5  2  1  0
  7  8  1  0
  8  9  2  0
 10  8  1  0
 11 10  1  1
 11 12  1  0
 12  5  1  0
 13 15  1  0
 13 11  1  0
 14 13  2  0
 16 17  1  0
 16 15  1  0
 17 19  1  0
 18 17  2  0
M  END
$$$$
