CNG.pdb
     RDKit          3D

 19 18  0  0  1  0  0  0  0  0999 V2000
   25.8122  -11.1229  -17.9123 N   0  0  0  0  0  0  0  0  0  0  0  0
   25.2646  -10.3538  -16.8390 C   0  0  1  0  0  0  0  0  0  0  0  0
   26.2804   -9.3294  -16.3859 C   0  0  0  0  0  0  0  0  0  0  0  0
   27.6272  -10.2102  -15.5255 S   0  0  0  0  0  0  0  0  0  0  0  0
   23.9960   -9.6702  -17.2348 C   0  0  0  0  0  0  0  0  0  0  0  0
   23.8152   -9.3052  -18.4390 O   0  0  0  0  0  0  0  0  0  0  0  0
   20.3030  -10.3878  -18.4739 N   0  0  0  0  0  0  0  0  0  0  0  0
   20.0268  -10.6184  -17.0831 C   0  0  0  0  0  0  0  0  0  0  0  0
   19.1908  -11.4832  -16.8260 O   0  0  0  0  0  0  0  0  0  0  0  0
   20.7418   -9.8292  -16.1344 C   0  0  0  0  0  0  0  0  0  0  0  0
   21.7264   -8.7897  -16.5949 C   0  0  2  0  0  0  0  0  0  0  0  0
   23.0250   -9.4461  -16.2551 N   0  0  0  0  0  0  0  0  0  0  0  0
   21.7607   -7.5464  -15.8287 C   0  0  0  0  0  0  0  0  0  0  0  0
   20.8462   -6.6543  -16.0114 O   0  0  0  0  0  0  0  0  0  0  0  0
   22.7197   -7.1813  -14.8566 N   0  0  0  0  0  0  0  0  0  0  0  0
   22.6309   -5.9007  -14.1270 C   0  0  0  0  0  0  0  0  0  0  0  0
   23.1188   -4.8436  -15.0326 C   0  0  0  0  0  0  0  0  0  0  0  0
   24.0700   -5.0394  -15.8348 O   0  0  0  0  0  0  0  0  0  0  0  0
   22.5304   -3.6019  -15.0150 O   0  0  0  0  0  0  0  0  0  0  0  0
  2  1  1  6
  3  2  1  0
  3  4  1  0
  5  6  2  0
  5  2  1  0
  7  8  1  0
  8  9  2  0
 10  8  1  0
 11 10  1  1
 11 12  1  0
 12  5  1  0
 13 15  1  0
 13 11  1  0
 14 13  2  0
 16 17  1  0
 16 15  1  0
 17 19  1  0
 18 17  2  0
M  END
$$$$
