CIC.pdb
     RDKit          3D

 21 20  0  0  1  0  0  0  0  0999 V2000
    9.4293  -17.4642   15.6282 N   0  0  0  0  0  0  0  0  0  0  0  0
    8.4346  -17.5080   16.6594 C   0  0  1  0  0  0  0  0  0  0  0  0
    7.9509  -18.9160   16.9355 C   0  0  0  0  0  0  0  0  0  0  0  0
    6.7707  -19.4182   15.6584 S   0  0  0  0  0  0  0  0  0  0  0  0
    8.9655  -16.8630   17.8748 C   0  0  0  0  0  0  0  0  0  0  0  0
   10.1984  -17.0095   18.1584 O   0  0  0  0  0  0  0  0  0  0  0  0
    6.7777  -12.2146   19.9832 C   0  0  0  0  0  0  0  0  0  0  0  0
    7.8063  -13.1907   19.4483 C   0  0  0  0  0  0  0  0  0  0  0  0
    7.8945  -14.3273   20.4360 C   0  0  2  0  0  0  0  0  0  0  0  0
    8.5354  -13.8238   21.6936 C   0  0  0  0  0  0  0  0  0  0  0  0
    8.7264  -15.4770   19.9098 C   0  0  2  0  0  0  0  0  0  0  0  0
    8.1625  -16.0835   18.7464 N   0  0  0  0  0  0  0  0  0  0  0  0
    8.8927  -16.5400   20.9398 C   0  0  0  0  0  0  0  0  0  0  0  0
    7.9484  -17.2952   21.2767 O   0  0  0  0  0  0  0  0  0  0  0  0
   10.1608  -16.7018   21.5584 N   0  0  0  0  0  0  0  0  0  0  0  0
   10.4405  -17.6709   22.5821 C   0  0  1  0  0  0  0  0  0  0  0  0
   11.3600  -18.7380   22.0520 C   0  0  0  0  0  0  0  0  0  0  0  0
   10.7245  -19.5679   20.6019 S   0  0  0  0  0  0  0  0  0  0  0  0
   10.9387  -17.0005   23.7771 C   0  0  0  0  0  0  0  0  0  0  0  0
   11.1133  -15.7583   23.7500 O   0  0  0  0  0  0  0  0  0  0  0  0
   11.2416  -17.6466   24.9702 O   0  0  0  0  0  0  0  0  0  0  0  0
  2  3  1  0
  2  1  1  6
  4  3  1  0
  5  6  2  0
  5  2  1  0
  8  7  1  0
  8  9  1  0
  9 10  1  1
  9 11  1  0
 11 12  1  6
 12  5  1  0
 13 15  1  0
 13 11  1  0
 14 13  2  0
 16 15  1  0
 16 19  1  0
 16 17  1  6
 17 18  1  0
 19 21  1  0
 20 19  2  0
M  END
$$$$
