CIC.pdb
     RDKit          3D

 21 20  0  0  1  0  0  0  0  0999 V2000
    7.9242  -14.9948   20.1610 N   0  0  0  0  0  0  0  0  0  0  0  0
    7.1514  -15.3984   21.2988 C   0  0  1  0  0  0  0  0  0  0  0  0
    6.7699  -16.8628   21.2475 C   0  0  0  0  0  0  0  0  0  0  0  0
    5.4708  -17.1130   20.0123 S   0  0  0  0  0  0  0  0  0  0  0  0
    7.8914  -15.0680   22.5310 C   0  0  0  0  0  0  0  0  0  0  0  0
    9.1623  -15.0023   22.4845 O   0  0  0  0  0  0  0  0  0  0  0  0
    6.0493  -11.6112   26.3064 C   0  0  0  0  0  0  0  0  0  0  0  0
    6.9407  -12.3324   25.3154 C   0  0  0  0  0  0  0  0  0  0  0  0
    7.3047  -13.6603   25.9313 C   0  0  2  0  0  0  0  0  0  0  0  0
    8.2212  -13.4178   27.0919 C   0  0  0  0  0  0  0  0  0  0  0  0
    8.0150  -14.5684   24.9506 C   0  0  2  0  0  0  0  0  0  0  0  0
    7.2496  -14.8188   23.7713 N   0  0  0  0  0  0  0  0  0  0  0  0
    8.3386  -15.8843   25.5689 C   0  0  0  0  0  0  0  0  0  0  0  0
    7.4518  -16.7319   25.8347 O   0  0  0  0  0  0  0  0  0  0  0  0
    9.6940  -16.1866   25.8659 N   0  0  0  0  0  0  0  0  0  0  0  0
   10.1523  -17.4697   26.3228 C   0  0  1  0  0  0  0  0  0  0  0  0
   11.2716  -17.9653   25.4471 C   0  0  0  0  0  0  0  0  0  0  0  0
   12.6279  -16.8097   25.3049 S   0  0  0  0  0  0  0  0  0  0  0  0
   10.4951  -17.3990   27.7381 C   0  0  0  0  0  0  0  0  0  0  0  0
   10.4892  -16.2826   28.3107 O   0  0  0  0  0  0  0  0  0  0  0  0
   10.8354  -18.4980   28.5186 O   0  0  0  0  0  0  0  0  0  0  0  0
  2  3  1  0
  2  1  1  6
  4  3  1  0
  5  6  2  0
  5  2  1  0
  8  7  1  0
  8  9  1  0
  9 10  1  1
  9 11  1  0
 11 12  1  6
 12  5  1  0
 13 15  1  0
 13 11  1  0
 14 13  2  0
 16 15  1  0
 16 19  1  0
 16 17  1  6
 17 18  1  0
 19 21  1  0
 20 19  2  0
M  END
$$$$
