CIC.pdb
     RDKit          3D

 21 20  0  0  1  0  0  0  0  0999 V2000
    6.6439  -18.3510   22.8435 N   0  0  0  0  0  0  0  0  0  0  0  0
    6.6089  -17.8935   24.2015 C   0  0  1  0  0  0  0  0  0  0  0  0
    7.0000  -18.9757   25.1855 C   0  0  0  0  0  0  0  0  0  0  0  0
    5.8767  -20.3854   25.0220 S   0  0  0  0  0  0  0  0  0  0  0  0
    7.4625  -16.6981   24.3339 C   0  0  0  0  0  0  0  0  0  0  0  0
    8.3064  -16.4421   23.4152 O   0  0  0  0  0  0  0  0  0  0  0  0
    5.3803  -12.1719   26.4630 C   0  0  0  0  0  0  0  0  0  0  0  0
    6.1898  -12.9875   25.4749 C   0  0  0  0  0  0  0  0  0  0  0  0
    7.4101  -13.4872   26.2073 C   0  0  2  0  0  0  0  0  0  0  0  0
    8.3689  -12.3483   26.3789 C   0  0  0  0  0  0  0  0  0  0  0  0
    8.1180  -14.5901   25.4500 C   0  0  2  0  0  0  0  0  0  0  0  0
    7.3864  -15.8164   25.4425 N   0  0  0  0  0  0  0  0  0  0  0  0
    9.4619  -14.8675   26.0294 C   0  0  0  0  0  0  0  0  0  0  0  0
   10.3826  -14.0145   26.0157 O   0  0  0  0  0  0  0  0  0  0  0  0
    9.7062  -16.1380   26.6151 N   0  0  0  0  0  0  0  0  0  0  0  0
   10.6083  -16.3602   27.7114 C   0  0  1  0  0  0  0  0  0  0  0  0
   10.1701  -15.5702   28.9152 C   0  0  0  0  0  0  0  0  0  0  0  0
   10.7420  -13.8766   28.9007 S   0  0  0  0  0  0  0  0  0  0  0  0
   10.7446  -17.7903   27.9597 C   0  0  0  0  0  0  0  0  0  0  0  0
   11.5183  -18.1794   28.8678 O   0  0  0  0  0  0  0  0  0  0  0  0
   10.0682  -18.7773   27.2519 O   0  0  0  0  0  0  0  0  0  0  0  0
  2  3  1  0
  2  1  1  6
  4  3  1  0
  5  6  2  0
  5  2  1  0
  8  7  1  0
  8  9  1  0
  9 10  1  6
  9 11  1  0
 11 12  1  1
 12  5  1  0
 13 15  1  0
 13 11  1  0
 14 13  2  0
 16 15  1  0
 16 19  1  0
 16 17  1  1
 17 18  1  0
 19 21  1  0
 20 19  2  0
M  END
$$$$
