CIC.pdb
     RDKit          3D

 21 20  0  0  1  0  0  0  0  0999 V2000
    5.6530  -19.1877   21.0975 N   0  0  0  0  0  0  0  0  0  0  0  0
    5.7995  -18.2435   22.1660 C   0  0  1  0  0  0  0  0  0  0  0  0
    5.9549  -18.9162   23.5135 C   0  0  0  0  0  0  0  0  0  0  0  0
    5.9333  -17.6692   24.8252 S   0  0  0  0  0  0  0  0  0  0  0  0
    6.9303  -17.3446   21.8688 C   0  0  0  0  0  0  0  0  0  0  0  0
    8.0079  -17.8452   21.4103 O   0  0  0  0  0  0  0  0  0  0  0  0
    6.6636  -12.6290   19.2480 C   0  0  0  0  0  0  0  0  0  0  0  0
    7.2058  -13.9663   19.7110 C   0  0  0  0  0  0  0  0  0  0  0  0
    7.6283  -13.7992   21.1494 C   0  0  2  0  0  0  0  0  0  0  0  0
    8.8243  -12.8975   21.1984 C   0  0  0  0  0  0  0  0  0  0  0  0
    8.0047  -15.1178   21.7901 C   0  0  2  0  0  0  0  0  0  0  0  0
    6.8727  -15.9418   22.0710 N   0  0  0  0  0  0  0  0  0  0  0  0
    8.7406  -14.9075   23.0680 C   0  0  0  0  0  0  0  0  0  0  0  0
    9.9085  -14.4485   23.0967 O   0  0  0  0  0  0  0  0  0  0  0  0
    8.0981  -15.2377   24.2906 N   0  0  0  0  0  0  0  0  0  0  0  0
    8.7038  -15.0895   25.5853 C   0  0  1  0  0  0  0  0  0  0  0  0
    7.9207  -14.1105   26.4181 C   0  0  0  0  0  0  0  0  0  0  0  0
    6.2497  -13.8585   25.8351 S   0  0  0  0  0  0  0  0  0  0  0  0
    8.8691  -16.3971   26.2084 C   0  0  0  0  0  0  0  0  0  0  0  0
    8.4347  -17.4135   25.6146 O   0  0  0  0  0  0  0  0  0  0  0  0
    9.4845  -16.6085   27.4370 O   0  0  0  0  0  0  0  0  0  0  0  0
  2  3  1  0
  2  1  1  6
  4  3  1  0
  5  6  2  0
  5  2  1  0
  8  7  1  0
  8  9  1  0
  9 10  1  6
  9 11  1  0
 11 12  1  1
 12  5  1  0
 13 15  1  0
 13 11  1  0
 14 13  2  0
 16 15  1  0
 16 19  1  0
 16 17  1  1
 17 18  1  0
 19 21  1  0
 20 19  2  0
M  END
$$$$
