CIC.pdb
     RDKit          3D

 21 20  0  0  1  0  0  0  0  0999 V2000
    9.1489  -15.4765   19.8701 N   0  0  0  0  0  0  0  0  0  0  0  0
    8.0563  -15.4803   20.7979 C   0  0  1  0  0  0  0  0  0  0  0  0
    7.2698  -16.7735   20.7584 C   0  0  0  0  0  0  0  0  0  0  0  0
    8.3497  -18.1591   21.1941 S   0  0  0  0  0  0  0  0  0  0  0  0
    8.5665  -15.1905   22.1510 C   0  0  0  0  0  0  0  0  0  0  0  0
    9.8127  -15.3219   22.3779 O   0  0  0  0  0  0  0  0  0  0  0  0
    7.2369  -11.9188   27.1481 C   0  0  0  0  0  0  0  0  0  0  0  0
    8.1038  -13.0028   26.5396 C   0  0  0  0  0  0  0  0  0  0  0  0
    7.4689  -13.3944   25.2286 C   0  0  2  0  0  0  0  0  0  0  0  0
    6.1126  -13.9697   25.5032 C   0  0  0  0  0  0  0  0  0  0  0  0
    8.2822  -14.4350   24.4893 C   0  0  2  0  0  0  0  0  0  0  0  0
    7.7292  -14.7702   23.2161 N   0  0  0  0  0  0  0  0  0  0  0  0
    8.3971  -15.6927   25.2789 C   0  0  0  0  0  0  0  0  0  0  0  0
    7.4445  -16.5033   25.3837 O   0  0  0  0  0  0  0  0  0  0  0  0
    9.6243  -15.9811   25.9328 N   0  0  0  0  0  0  0  0  0  0  0  0
    9.9120  -17.2232   26.5959 C   0  0  1  0  0  0  0  0  0  0  0  0
   11.1038  -17.8886   25.9617 C   0  0  0  0  0  0  0  0  0  0  0  0
   11.8620  -16.9098   24.6724 S   0  0  0  0  0  0  0  0  0  0  0  0
   10.0525  -16.9994   28.0296 C   0  0  0  0  0  0  0  0  0  0  0  0
   10.2122  -17.9869   28.7871 O   0  0  0  0  0  0  0  0  0  0  0  0
   10.0223  -15.7481   28.6348 O   0  0  0  0  0  0  0  0  0  0  0  0
  2  3  1  0
  2  1  1  6
  4  3  1  0
  5  6  2  0
  5  2  1  0
  8  7  1  0
  8  9  1  0
  9 10  1  1
  9 11  1  0
 11 12  1  6
 12  5  1  0
 13 15  1  0
 13 11  1  0
 14 13  2  0
 16 15  1  0
 16 19  1  0
 16 17  1  6
 17 18  1  0
 19 21  1  0
 20 19  2  0
M  END
$$$$
