CIC.pdb
     RDKit          3D

 21 20  0  0  1  0  0  0  0  0999 V2000
    6.2155  -17.2342   21.3787 N   0  0  0  0  0  0  0  0  0  0  0  0
    6.0547  -17.4142   22.7917 C   0  0  1  0  0  0  0  0  0  0  0  0
    6.0456  -18.8750   23.1902 C   0  0  0  0  0  0  0  0  0  0  0  0
    5.9842  -19.0161   24.9936 S   0  0  0  0  0  0  0  0  0  0  0  0
    7.1050  -16.6596   23.5006 C   0  0  0  0  0  0  0  0  0  0  0  0
    8.2775  -16.6265   23.0046 O   0  0  0  0  0  0  0  0  0  0  0  0
    6.0456  -12.1979   26.4285 C   0  0  0  0  0  0  0  0  0  0  0  0
    6.8708  -13.0384   25.4749 C   0  0  0  0  0  0  0  0  0  0  0  0
    7.4587  -14.1717   26.2781 C   0  0  2  0  0  0  0  0  0  0  0  0
    8.6337  -13.6550   27.0516 C   0  0  0  0  0  0  0  0  0  0  0  0
    7.9354  -15.3072   25.3982 C   0  0  2  0  0  0  0  0  0  0  0  0
    6.8682  -15.9657   24.7149 N   0  0  0  0  0  0  0  0  0  0  0  0
    8.6685  -16.3339   26.1900 C   0  0  0  0  0  0  0  0  0  0  0  0
    8.1042  -17.0197   27.0771 O   0  0  0  0  0  0  0  0  0  0  0  0
   10.0493  -16.5412   25.9309 N   0  0  0  0  0  0  0  0  0  0  0  0
   10.8405  -17.5684   26.5508 C   0  0  1  0  0  0  0  0  0  0  0  0
   12.1515  -17.7238   25.8281 C   0  0  0  0  0  0  0  0  0  0  0  0
   13.2728  -18.8640   26.6270 S   0  0  0  0  0  0  0  0  0  0  0  0
   10.9792  -17.2955   27.9763 C   0  0  0  0  0  0  0  0  0  0  0  0
   10.9410  -18.2534   28.7859 O   0  0  0  0  0  0  0  0  0  0  0  0
   11.1542  -16.0275   28.5188 O   0  0  0  0  0  0  0  0  0  0  0  0
  2  3  1  0
  2  1  1  6
  4  3  1  0
  5  6  2  0
  5  2  1  0
  8  7  1  0
  8  9  1  0
  9 10  1  6
  9 11  1  0
 11 12  1  1
 12  5  1  0
 13 15  1  0
 13 11  1  0
 14 13  2  0
 16 15  1  0
 16 19  1  0
 16 17  1  6
 17 18  1  0
 19 21  1  0
 20 19  2  0
M  END
$$$$
