CIC.pdb
     RDKit          3D

 21 20  0  0  1  0  0  0  0  0999 V2000
    5.6222  -17.6836   22.1599 N   0  0  0  0  0  0  0  0  0  0  0  0
    5.7905  -17.5926   23.5805 C   0  0  1  0  0  0  0  0  0  0  0  0
    6.2616  -18.8957   24.1908 C   0  0  0  0  0  0  0  0  0  0  0  0
    4.9440  -20.1321   24.0840 S   0  0  0  0  0  0  0  0  0  0  0  0
    6.7067  -16.4794   23.8912 C   0  0  0  0  0  0  0  0  0  0  0  0
    7.6754  -16.2428   23.0990 O   0  0  0  0  0  0  0  0  0  0  0  0
    5.1813  -12.0026   26.6554 C   0  0  0  0  0  0  0  0  0  0  0  0
    5.8672  -12.8170   25.5769 C   0  0  0  0  0  0  0  0  0  0  0  0
    6.9981  -13.5649   26.2380 C   0  0  2  0  0  0  0  0  0  0  0  0
    8.1122  -12.6029   26.5193 C   0  0  0  0  0  0  0  0  0  0  0  0
    7.5405  -14.6716   25.3595 C   0  0  2  0  0  0  0  0  0  0  0  0
    6.5580  -15.6564   25.0369 N   0  0  0  0  0  0  0  0  0  0  0  0
    8.6838  -15.3686   26.0118 C   0  0  0  0  0  0  0  0  0  0  0  0
    8.6290  -15.7714   27.1994 O   0  0  0  0  0  0  0  0  0  0  0  0
    9.8720  -15.5828   25.2641 N   0  0  0  0  0  0  0  0  0  0  0  0
   10.9378  -16.4544   25.6763 C   0  0  1  0  0  0  0  0  0  0  0  0
   10.3988  -17.8241   25.9904 C   0  0  0  0  0  0  0  0  0  0  0  0
   10.2021  -18.1262   27.7413 S   0  0  0  0  0  0  0  0  0  0  0  0
   11.9972  -16.4507   24.6747 C   0  0  0  0  0  0  0  0  0  0  0  0
   13.0466  -17.1020   24.8963 O   0  0  0  0  0  0  0  0  0  0  0  0
   11.9321  -15.7657   23.4666 O   0  0  0  0  0  0  0  0  0  0  0  0
  2  3  1  0
  2  1  1  6
  4  3  1  0
  5  6  2  0
  5  2  1  0
  8  7  1  0
  8  9  1  0
  9 10  1  6
  9 11  1  0
 11 12  1  1
 12  5  1  0
 13 15  1  0
 13 11  1  0
 14 13  2  0
 16 15  1  0
 16 19  1  0
 16 17  1  6
 17 18  1  0
 19 21  1  0
 20 19  2  0
M  END
$$$$
