CIC.pdb
     RDKit          3D

 21 20  0  0  1  0  0  0  0  0999 V2000
    8.1017  -15.4286   20.5529 N   0  0  0  0  0  0  0  0  0  0  0  0
    7.3735  -15.9113   21.6894 C   0  0  1  0  0  0  0  0  0  0  0  0
    7.1447  -17.4071   21.6358 C   0  0  0  0  0  0  0  0  0  0  0  0
    6.1554  -17.9255   23.0600 S   0  0  0  0  0  0  0  0  0  0  0  0
    8.0742  -15.5081   22.9229 C   0  0  0  0  0  0  0  0  0  0  0  0
    9.3475  -15.5275   22.9394 O   0  0  0  0  0  0  0  0  0  0  0  0
    6.0268  -11.8401   26.3999 C   0  0  0  0  0  0  0  0  0  0  0  0
    7.0222  -12.5631   25.5149 C   0  0  0  0  0  0  0  0  0  0  0  0
    7.3772  -13.8540   26.2097 C   0  0  2  0  0  0  0  0  0  0  0  0
    8.2663  -13.5446   27.3758 C   0  0  0  0  0  0  0  0  0  0  0  0
    8.1130  -14.8101   25.2957 C   0  0  2  0  0  0  0  0  0  0  0  0
    7.3922  -15.0978   24.0970 N   0  0  0  0  0  0  0  0  0  0  0  0
    8.3921  -16.1041   25.9785 C   0  0  0  0  0  0  0  0  0  0  0  0
    7.4814  -16.9237   26.2513 O   0  0  0  0  0  0  0  0  0  0  0  0
    9.7316  -16.4176   26.3308 N   0  0  0  0  0  0  0  0  0  0  0  0
   10.1236  -17.6120   27.0273 C   0  0  1  0  0  0  0  0  0  0  0  0
   11.1792  -18.3478   26.2467 C   0  0  0  0  0  0  0  0  0  0  0  0
   10.7513  -18.5927   24.5284 S   0  0  0  0  0  0  0  0  0  0  0  0
   10.5179  -17.2837   28.3920 C   0  0  0  0  0  0  0  0  0  0  0  0
   10.5583  -16.0791   28.7408 O   0  0  0  0  0  0  0  0  0  0  0  0
   10.8599  -18.2239   29.3573 O   0  0  0  0  0  0  0  0  0  0  0  0
  2  3  1  0
  2  1  1  6
  4  3  1  0
  5  6  2  0
  5  2  1  0
  8  7  1  0
  8  9  1  0
  9 10  1  1
  9 11  1  0
 11 12  1  6
 12  5  1  0
 13 15  1  0
 13 11  1  0
 14 13  2  0
 16 15  1  0
 16 19  1  0
 16 17  1  6
 17 18  1  0
 19 21  1  0
 20 19  2  0
M  END
$$$$
