CIC.pdb
     RDKit          3D

 21 20  0  0  1  0  0  0  0  0999 V2000
    8.0871  -15.1984   20.0986 N   0  0  0  0  0  0  0  0  0  0  0  0
    7.3157  -15.5963   21.2394 C   0  0  1  0  0  0  0  0  0  0  0  0
    6.9626  -17.0684   21.2125 C   0  0  0  0  0  0  0  0  0  0  0  0
    5.7347  -17.3789   19.9196 S   0  0  0  0  0  0  0  0  0  0  0  0
    8.0421  -15.2294   22.4694 C   0  0  0  0  0  0  0  0  0  0  0  0
    9.3136  -15.1659   22.4352 O   0  0  0  0  0  0  0  0  0  0  0  0
    5.9266  -11.8155   26.2489 C   0  0  0  0  0  0  0  0  0  0  0  0
    6.8577  -12.4570   25.2398 C   0  0  0  0  0  0  0  0  0  0  0  0
    7.3336  -13.7567   25.8393 C   0  0  2  0  0  0  0  0  0  0  0  0
    8.2095  -13.4520   27.0165 C   0  0  0  0  0  0  0  0  0  0  0  0
    8.1361  -14.5792   24.8542 C   0  0  2  0  0  0  0  0  0  0  0  0
    7.3867  -14.9428   23.6943 N   0  0  0  0  0  0  0  0  0  0  0  0
    8.6392  -15.8335   25.4805 C   0  0  0  0  0  0  0  0  0  0  0  0
    7.8750  -16.6398   26.0648 O   0  0  0  0  0  0  0  0  0  0  0  0
   10.0277  -16.1237   25.4127 N   0  0  0  0  0  0  0  0  0  0  0  0
   10.6328  -17.3033   25.9675 C   0  0  1  0  0  0  0  0  0  0  0  0
   12.0590  -17.4251   25.5027 C   0  0  0  0  0  0  0  0  0  0  0  0
   12.9444  -18.7745   26.2713 S   0  0  0  0  0  0  0  0  0  0  0  0
   10.4808  -17.3037   27.4175 C   0  0  0  0  0  0  0  0  0  0  0  0
   10.1497  -18.3676   27.9945 O   0  0  0  0  0  0  0  0  0  0  0  0
   10.6790  -16.1911   28.2273 O   0  0  0  0  0  0  0  0  0  0  0  0
  2  3  1  0
  2  1  1  6
  4  3  1  0
  5  6  2  0
  5  2  1  0
  8  7  1  0
  8  9  1  0
  9 10  1  1
  9 11  1  0
 11 12  1  6
 12  5  1  0
 13 15  1  0
 13 11  1  0
 14 13  2  0
 16 15  1  0
 16 19  1  0
 16 17  1  1
 17 18  1  0
 19 21  1  0
 20 19  2  0
M  END
$$$$
