CIC.pdb
     RDKit          3D

 21 20  0  0  1  0  0  0  0  0999 V2000
    8.5278  -14.5858   20.0384 N   0  0  0  0  0  0  0  0  0  0  0  0
    7.4654  -14.6246   20.9999 C   0  0  1  0  0  0  0  0  0  0  0  0
    6.5308  -15.7955   20.7806 C   0  0  0  0  0  0  0  0  0  0  0  0
    7.4117  -17.3464   21.0878 S   0  0  0  0  0  0  0  0  0  0  0  0
    8.0391  -14.6285   22.3585 C   0  0  0  0  0  0  0  0  0  0  0  0
    9.2754  -14.8986   22.5016 O   0  0  0  0  0  0  0  0  0  0  0  0
    6.0366  -11.4324   26.3904 C   0  0  0  0  0  0  0  0  0  0  0  0
    6.9794  -12.0971   25.4074 C   0  0  0  0  0  0  0  0  0  0  0  0
    7.1147  -13.5391   25.8288 C   0  0  2  0  0  0  0  0  0  0  0  0
    7.8598  -13.5933   27.1280 C   0  0  0  0  0  0  0  0  0  0  0  0
    7.8777  -14.3612   24.8125 C   0  0  2  0  0  0  0  0  0  0  0  0
    7.2738  -14.3441   23.5185 N   0  0  0  0  0  0  0  0  0  0  0  0
    7.9900  -15.7831   25.2415 C   0  0  0  0  0  0  0  0  0  0  0  0
    7.2435  -16.6798   24.7788 O   0  0  0  0  0  0  0  0  0  0  0  0
    8.9736  -16.1321   26.2046 N   0  0  0  0  0  0  0  0  0  0  0  0
    9.7259  -17.3564   26.1813 C   0  0  1  0  0  0  0  0  0  0  0  0
   10.4246  -17.5135   24.8576 C   0  0  0  0  0  0  0  0  0  0  0  0
   11.5406  -18.9090   24.8041 S   0  0  0  0  0  0  0  0  0  0  0  0
   10.6190  -17.4120   27.3323 C   0  0  0  0  0  0  0  0  0  0  0  0
   11.2449  -16.3774   27.6675 O   0  0  0  0  0  0  0  0  0  0  0  0
   10.8348  -18.5483   28.1035 O   0  0  0  0  0  0  0  0  0  0  0  0
  2  3  1  0
  2  1  1  6
  4  3  1  0
  5  6  2  0
  5  2  1  0
  8  7  1  0
  8  9  1  0
  9 10  1  1
  9 11  1  0
 11 12  1  6
 12  5  1  0
 13 15  1  0
 13 11  1  0
 14 13  2  0
 16 15  1  0
 16 19  1  0
 16 17  1  6
 17 18  1  0
 19 21  1  0
 20 19  2  0
M  END
$$$$
