CIC.pdb
     RDKit          3D

 21 20  0  0  1  0  0  0  0  0999 V2000
    8.7084  -15.5998   19.9476 N   0  0  0  0  0  0  0  0  0  0  0  0
    7.7103  -15.5433   20.9750 C   0  0  1  0  0  0  0  0  0  0  0  0
    7.0273  -16.8774   21.1903 C   0  0  0  0  0  0  0  0  0  0  0  0
    8.2711  -18.1646   21.4582 S   0  0  0  0  0  0  0  0  0  0  0  0
    8.3197  -15.0331   22.2173 C   0  0  0  0  0  0  0  0  0  0  0  0
    9.5894  -15.0090   22.3129 O   0  0  0  0  0  0  0  0  0  0  0  0
    7.2497  -11.6799   27.2415 C   0  0  0  0  0  0  0  0  0  0  0  0
    8.1234  -12.7175   26.5658 C   0  0  0  0  0  0  0  0  0  0  0  0
    7.3934  -13.1728   25.3268 C   0  0  2  0  0  0  0  0  0  0  0  0
    6.0959  -13.8014   25.7359 C   0  0  0  0  0  0  0  0  0  0  0  0
    8.1860  -14.1951   24.5409 C   0  0  2  0  0  0  0  0  0  0  0  0
    7.5532  -14.5657   23.3156 N   0  0  0  0  0  0  0  0  0  0  0  0
    8.4021  -15.4375   25.3335 C   0  0  0  0  0  0  0  0  0  0  0  0
    7.5386  -16.3463   25.3969 O   0  0  0  0  0  0  0  0  0  0  0  0
    9.6246  -15.5961   26.0386 N   0  0  0  0  0  0  0  0  0  0  0  0
    9.9840  -16.7778   26.7732 C   0  0  1  0  0  0  0  0  0  0  0  0
   11.2361  -17.3862   26.2011 C   0  0  0  0  0  0  0  0  0  0  0  0
   11.9141  -18.6975   27.2093 S   0  0  0  0  0  0  0  0  0  0  0  0
   10.0720  -16.4703   28.1956 C   0  0  0  0  0  0  0  0  0  0  0  0
   10.2673  -15.2828   28.5506 O   0  0  0  0  0  0  0  0  0  0  0  0
    9.9535  -17.4128   29.2106 O   0  0  0  0  0  0  0  0  0  0  0  0
  2  3  1  0
  2  1  1  6
  4  3  1  0
  5  6  2  0
  5  2  1  0
  8  7  1  0
  8  9  1  0
  9 10  1  1
  9 11  1  0
 11 12  1  6
 12  5  1  0
 13 15  1  0
 13 11  1  0
 14 13  2  0
 16 15  1  0
 16 19  1  0
 16 17  1  6
 17 18  1  0
 19 21  1  0
 20 19  2  0
M  END
$$$$
