CIC.pdb
     RDKit          3D

 21 20  0  0  1  0  0  0  0  0999 V2000
    6.8804  -18.8680   20.0173 N   0  0  0  0  0  0  0  0  0  0  0  0
    8.2449  -18.5365   19.7295 C   0  0  1  0  0  0  0  0  0  0  0  0
    8.4947  -18.3549   18.2472 C   0  0  0  0  0  0  0  0  0  0  0  0
    7.4156  -17.0536   17.6006 S   0  0  0  0  0  0  0  0  0  0  0  0
    8.6273  -17.3387   20.5003 C   0  0  0  0  0  0  0  0  0  0  0  0
    9.8502  -16.9834   20.5154 O   0  0  0  0  0  0  0  0  0  0  0  0
    7.1430  -12.5187   19.6799 C   0  0  0  0  0  0  0  0  0  0  0  0
    7.9570  -13.7233   20.1080 C   0  0  0  0  0  0  0  0  0  0  0  0
    7.4601  -14.1320   21.4723 C   0  0  2  0  0  0  0  0  0  0  0  0
    7.7810  -13.0412   22.4484 C   0  0  0  0  0  0  0  0  0  0  0  0
    8.1132  -15.4079   21.9586 C   0  0  2  0  0  0  0  0  0  0  0  0
    7.6914  -16.5606   21.2289 N   0  0  0  0  0  0  0  0  0  0  0  0
    7.8200  -15.6506   23.3986 C   0  0  0  0  0  0  0  0  0  0  0  0
    6.6818  -15.4529   23.8896 O   0  0  0  0  0  0  0  0  0  0  0  0
    8.8629  -16.1205   24.2402 N   0  0  0  0  0  0  0  0  0  0  0  0
    8.6478  -16.8422   25.4642 C   0  0  1  0  0  0  0  0  0  0  0  0
    7.7155  -18.0001   25.2294 C   0  0  0  0  0  0  0  0  0  0  0  0
    6.0063  -17.6213   25.5910 S   0  0  0  0  0  0  0  0  0  0  0  0
    9.9286  -17.2225   26.0476 C   0  0  0  0  0  0  0  0  0  0  0  0
   10.9606  -17.1721   25.3357 O   0  0  0  0  0  0  0  0  0  0  0  0
   10.0975  -17.6458   27.3610 O   0  0  0  0  0  0  0  0  0  0  0  0
  2  3  1  0
  2  1  1  6
  4  3  1  0
  5  6  2  0
  5  2  1  0
  8  7  1  0
  8  9  1  0
  9 10  1  1
  9 11  1  0
 11 12  1  6
 12  5  1  0
 13 15  1  0
 13 11  1  0
 14 13  2  0
 16 15  1  0
 16 19  1  0
 16 17  1  6
 17 18  1  0
 19 21  1  0
 20 19  2  0
M  END
$$$$
