CIC.pdb
     RDKit          3D

 21 20  0  0  1  0  0  0  0  0999 V2000
    6.8016  -16.5247   20.4235 N   0  0  0  0  0  0  0  0  0  0  0  0
    6.3537  -16.6971   21.7742 C   0  0  1  0  0  0  0  0  0  0  0  0
    6.1330  -18.1527   22.1279 C   0  0  0  0  0  0  0  0  0  0  0  0
    4.5435  -18.7086   21.4643 S   0  0  0  0  0  0  0  0  0  0  0  0
    7.3114  -16.0499   22.6902 C   0  0  0  0  0  0  0  0  0  0  0  0
    8.5379  -15.9891   22.3528 O   0  0  0  0  0  0  0  0  0  0  0  0
    7.6541  -11.8418   27.0997 C   0  0  0  0  0  0  0  0  0  0  0  0
    8.3495  -12.9858   26.3894 C   0  0  0  0  0  0  0  0  0  0  0  0
    7.3082  -13.6864   25.5526 C   0  0  2  0  0  0  0  0  0  0  0  0
    6.2412  -14.2205   26.4594 C   0  0  0  0  0  0  0  0  0  0  0  0
    7.8891  -14.8463   24.7728 C   0  0  2  0  0  0  0  0  0  0  0  0
    6.9275  -15.4894   23.9355 N   0  0  0  0  0  0  0  0  0  0  0  0
    8.4598  -15.8781   25.6829 C   0  0  0  0  0  0  0  0  0  0  0  0
    7.7393  -16.7252   26.2652 O   0  0  0  0  0  0  0  0  0  0  0  0
    9.8635  -15.9017   25.8967 N   0  0  0  0  0  0  0  0  0  0  0  0
   10.5587  -16.9646   26.5692 C   0  0  1  0  0  0  0  0  0  0  0  0
   11.9014  -17.1956   25.9295 C   0  0  0  0  0  0  0  0  0  0  0  0
   12.0003  -16.5964   24.2482 S   0  0  0  0  0  0  0  0  0  0  0  0
   10.6242  -16.6880   27.9991 C   0  0  0  0  0  0  0  0  0  0  0  0
   10.2055  -15.5846   28.4254 O   0  0  0  0  0  0  0  0  0  0  0  0
   11.1260  -17.5726   28.9470 O   0  0  0  0  0  0  0  0  0  0  0  0
  2  3  1  0
  2  1  1  6
  4  3  1  0
  5  6  2  0
  5  2  1  0
  8  7  1  0
  8  9  1  0
  9 10  1  1
  9 11  1  0
 11 12  1  1
 12  5  1  0
 13 15  1  0
 13 11  1  0
 14 13  2  0
 16 15  1  0
 16 19  1  0
 16 17  1  6
 17 18  1  0
 19 21  1  0
 20 19  2  0
M  END
$$$$
