MLE.pdb
     RDKit          3D

 26 25  0  0  1  0  0  0  0  0999 V2000
    8.3117  -12.0558   18.6500 C   0  0  0  0  0  0  0  0  0  0  0  0
    8.0167  -13.6694   17.8618 S   0  0  0  0  0  0  0  0  0  0  0  0
    7.9314  -14.9958   19.0820 C   0  0  0  0  0  0  0  0  0  0  0  0
    8.7062  -14.5603   20.3078 C   0  0  0  0  0  0  0  0  0  0  0  0
    8.6428  -15.6126   21.4008 C   0  0  2  0  0  0  0  0  0  0  0  0
    7.3067  -16.2359   21.3893 N   0  0  0  0  0  0  0  0  0  0  0  0
    8.8460  -15.0352   22.7346 C   0  0  0  0  0  0  0  0  0  0  0  0
   10.0017  -14.7376   23.1169 O   0  0  0  0  0  0  0  0  0  0  0  0
    7.5302  -11.5808   26.7952 C   0  0  0  0  0  0  0  0  0  0  0  0
    6.7108  -12.8393   26.7140 C   0  0  1  0  0  0  0  0  0  0  0  0
    5.2489  -12.4314   26.9795 C   0  0  0  0  0  0  0  0  0  0  0  0
    6.7064  -13.5244   25.4013 C   0  0  0  0  0  0  0  0  0  0  0  0
    7.9680  -14.1811   24.9543 C   0  0  2  0  0  0  0  0  0  0  0  0
    7.7927  -14.7786   23.6597 N   0  0  0  0  0  0  0  0  0  0  0  0
    8.2820  -15.2255   25.9937 C   0  0  0  0  0  0  0  0  0  0  0  0
    8.5195  -14.8111   27.1462 O   0  0  0  0  0  0  0  0  0  0  0  0
    8.3165  -16.6059   25.7259 N   0  0  0  0  0  0  0  0  0  0  0  0
    8.5513  -17.6176   26.7809 C   0  0  1  0  0  0  0  0  0  0  0  0
    7.7219  -18.8251   26.5225 C   0  0  0  0  0  0  0  0  0  0  0  0
    7.9596  -19.9054   27.5297 C   0  0  0  0  0  0  0  0  0  0  0  0
    7.1725  -21.1349   27.2723 C   0  0  0  0  0  0  0  0  0  0  0  0
    7.2547  -22.0894   28.1000 O   0  0  0  0  0  0  0  0  0  0  0  0
    9.9913  -17.9257   26.8118 C   0  0  0  0  0  0  0  0  0  0  0  0
   10.4924  -18.5124   27.7836 O   0  0  0  0  0  0  0  0  0  0  0  0
    6.3541  -21.3087   26.1855 O   0  0  0  0  0  0  0  0  0  0  0  0
   10.8054  -17.5639   25.7550 O   0  0  0  0  0  0  0  0  0  0  0  0
  2  1  1  0
  3  4  1  0
  3  2  1  0
  4  5  1  0
  5  6  1  1
  7  5  1  0
  7  8  2  0
 10  9  1  6
 11 10  1  0
 12 10  1  0
 13 12  1  1
 13 14  1  0
 14  7  1  0
 15 13  1  0
 16 15  2  0
 17 15  1  0
 18 17  1  0
 18 23  1  0
 18 19  1  6
 20 21  1  0
 20 19  1  0
 21 22  2  0
 21 25  1  0
 23 26  1  0
 24 23  2  0
M  END
$$$$
