MLE.pdb
     RDKit          3D

 26 25  0  0  1  0  0  0  0  0999 V2000
    8.1780  -11.5875   19.3607 C   0  0  0  0  0  0  0  0  0  0  0  0
    7.7257  -13.0021   18.3087 S   0  0  0  0  0  0  0  0  0  0  0  0
    7.6669  -14.5376   19.2543 C   0  0  0  0  0  0  0  0  0  0  0  0
    8.9165  -14.6160   20.1056 C   0  0  0  0  0  0  0  0  0  0  0  0
    8.8762  -15.8188   21.0317 C   0  0  2  0  0  0  0  0  0  0  0  0
    7.5147  -16.3844   21.0239 N   0  0  0  0  0  0  0  0  0  0  0  0
    9.1932  -15.4579   22.4185 C   0  0  0  0  0  0  0  0  0  0  0  0
   10.3889  -15.3626   22.7814 O   0  0  0  0  0  0  0  0  0  0  0  0
    8.4704  -12.4422   26.8873 C   0  0  0  0  0  0  0  0  0  0  0  0
    7.4818  -13.5664   26.7430 C   0  0  1  0  0  0  0  0  0  0  0  0
    6.1030  -12.9922   27.1210 C   0  0  0  0  0  0  0  0  0  0  0  0
    7.3277  -14.1206   25.3785 C   0  0  0  0  0  0  0  0  0  0  0  0
    8.5017  -14.8087   24.7696 C   0  0  2  0  0  0  0  0  0  0  0  0
    8.2109  -15.1987   23.4179 N   0  0  0  0  0  0  0  0  0  0  0  0
    8.7697  -16.0132   25.6340 C   0  0  0  0  0  0  0  0  0  0  0  0
    7.8202  -16.8063   25.7949 O   0  0  0  0  0  0  0  0  0  0  0  0
   10.0087  -16.2722   26.2474 N   0  0  0  0  0  0  0  0  0  0  0  0
   10.2783  -17.5131   27.0084 C   0  0  1  0  0  0  0  0  0  0  0  0
   11.5085  -18.1706   26.4917 C   0  0  0  0  0  0  0  0  0  0  0  0
   11.3961  -18.5316   25.0442 C   0  0  0  0  0  0  0  0  0  0  0  0
   12.6324  -19.1318   24.4887 C   0  0  0  0  0  0  0  0  0  0  0  0
   13.6197  -19.3059   25.2617 O   0  0  0  0  0  0  0  0  0  0  0  0
   10.3893  -17.1640   28.4351 C   0  0  0  0  0  0  0  0  0  0  0  0
   10.4108  -15.9772   28.7965 O   0  0  0  0  0  0  0  0  0  0  0  0
   12.7791  -19.5133   23.1795 O   0  0  0  0  0  0  0  0  0  0  0  0
   10.4712  -18.1576   29.3925 O   0  0  0  0  0  0  0  0  0  0  0  0
  2  1  1  0
  3  4  1  0
  3  2  1  0
  4  5  1  0
  5  6  1  1
  7  5  1  0
  7  8  2  0
 10  9  1  6
 11 10  1  0
 12 10  1  0
 13 12  1  1
 13 14  1  0
 14  7  1  0
 15 13  1  0
 16 15  2  0
 17 15  1  0
 18 17  1  0
 18 23  1  0
 18 19  1  6
 20 21  1  0
 20 19  1  0
 21 22  2  0
 21 25  1  0
 23 26  1  0
 24 23  2  0
M  END
$$$$
