MLE.pdb
     RDKit          3D

 26 25  0  0  1  0  0  0  0  0999 V2000
    6.0862  -11.9162   26.7158 C   0  0  0  0  0  0  0  0  0  0  0  0
    7.4972  -12.7227   27.5348 S   0  0  0  0  0  0  0  0  0  0  0  0
    7.4752  -14.5092   27.2835 C   0  0  0  0  0  0  0  0  0  0  0  0
    7.0915  -14.7788   25.8438 C   0  0  0  0  0  0  0  0  0  0  0  0
    7.0339  -16.2695   25.5602 C   0  0  2  0  0  0  0  0  0  0  0  0
    7.9571  -16.9674   26.4737 N   0  0  0  0  0  0  0  0  0  0  0  0
    7.4506  -16.5864   24.1892 C   0  0  0  0  0  0  0  0  0  0  0  0
    7.8516  -17.7402   23.9091 O   0  0  0  0  0  0  0  0  0  0  0  0
    7.7709  -12.3903   20.2299 C   0  0  0  0  0  0  0  0  0  0  0  0
    8.0724  -13.5334   21.1596 C   0  0  1  0  0  0  0  0  0  0  0  0
    7.5836  -13.1059   22.5568 C   0  0  0  0  0  0  0  0  0  0  0  0
    7.3800  -14.8082   20.8625 C   0  0  0  0  0  0  0  0  0  0  0  0
    7.6715  -15.9794   21.7376 C   0  0  2  0  0  0  0  0  0  0  0  0
    7.4332  -15.6496   23.1153 N   0  0  0  0  0  0  0  0  0  0  0  0
    9.1210  -16.3188   21.5058 C   0  0  0  0  0  0  0  0  0  0  0  0
    9.4196  -16.7431   20.3713 O   0  0  0  0  0  0  0  0  0  0  0  0
   10.1202  -16.1803   22.4861 N   0  0  0  0  0  0  0  0  0  0  0  0
   11.5331  -16.5491   22.2427 C   0  0  1  0  0  0  0  0  0  0  0  0
   12.2562  -15.4103   21.6156 C   0  0  0  0  0  0  0  0  0  0  0  0
   13.7112  -15.6980   21.4202 C   0  0  0  0  0  0  0  0  0  0  0  0
   14.2622  -15.1263   20.1684 C   0  0  0  0  0  0  0  0  0  0  0  0
   13.8835  -15.6144   19.0633 O   0  0  0  0  0  0  0  0  0  0  0  0
   12.1323  -16.9515   23.5266 C   0  0  0  0  0  0  0  0  0  0  0  0
   11.4903  -16.8514   24.5837 O   0  0  0  0  0  0  0  0  0  0  0  0
   15.1647  -14.0944   20.1280 O   0  0  0  0  0  0  0  0  0  0  0  0
   13.4218  -17.4474   23.5702 O   0  0  0  0  0  0  0  0  0  0  0  0
  2  1  1  0
  3  4  1  0
  3  2  1  0
  4  5  1  0
  5  6  1  1
  7  5  1  0
  7  8  2  0
 10  9  1  6
 11 10  1  0
 12 10  1  0
 13 12  1  6
 13 14  1  0
 14  7  1  0
 15 13  1  0
 16 15  2  0
 17 15  1  0
 18 17  1  0
 18 23  1  0
 18 19  1  1
 20 21  1  0
 20 19  1  0
 21 22  2  0
 21 25  1  0
 23 26  1  0
 24 23  2  0
M  END
$$$$
