MLE.pdb
     RDKit          3D

 26 25  0  0  1  0  0  0  0  0999 V2000
   10.5547  -13.9730   30.2551 C   0  0  0  0  0  0  0  0  0  0  0  0
   11.5697  -15.4415   29.9009 S   0  0  0  0  0  0  0  0  0  0  0  0
   10.5728  -16.7893   29.2338 C   0  0  0  0  0  0  0  0  0  0  0  0
    9.6282  -16.2116   28.2011 C   0  0  0  0  0  0  0  0  0  0  0  0
    8.7365  -17.2884   27.6084 C   0  0  2  0  0  0  0  0  0  0  0  0
    9.5323  -18.5132   27.4079 N   0  0  0  0  0  0  0  0  0  0  0  0
    8.1951  -16.8983   26.3014 C   0  0  0  0  0  0  0  0  0  0  0  0
    7.6361  -17.7539   25.5762 O   0  0  0  0  0  0  0  0  0  0  0  0
    7.8135  -11.4319   25.5497 C   0  0  0  0  0  0  0  0  0  0  0  0
    7.5654  -12.9108   25.6647 C   0  0  1  0  0  0  0  0  0  0  0  0
    6.1071  -13.0780   26.1330 C   0  0  0  0  0  0  0  0  0  0  0  0
    7.6766  -13.6848   24.4072 C   0  0  0  0  0  0  0  0  0  0  0  0
    7.7218  -15.1716   24.5063 C   0  0  2  0  0  0  0  0  0  0  0  0
    8.2590  -15.5750   25.7762 N   0  0  0  0  0  0  0  0  0  0  0  0
    8.6022  -15.6354   23.3751 C   0  0  0  0  0  0  0  0  0  0  0  0
    8.1600  -15.4689   22.2205 O   0  0  0  0  0  0  0  0  0  0  0  0
    9.8634  -16.2295   23.5621 N   0  0  0  0  0  0  0  0  0  0  0  0
   10.5892  -16.9204   22.4724 C   0  0  1  0  0  0  0  0  0  0  0  0
   11.8607  -16.2078   22.1754 C   0  0  0  0  0  0  0  0  0  0  0  0
   11.7850  -15.4106   20.9118 C   0  0  0  0  0  0  0  0  0  0  0  0
   13.0579  -14.7356   20.5634 C   0  0  0  0  0  0  0  0  0  0  0  0
   13.1467  -14.1547   19.4421 O   0  0  0  0  0  0  0  0  0  0  0  0
   10.8147  -18.3171   22.8820 C   0  0  0  0  0  0  0  0  0  0  0  0
   11.3583  -19.1230   22.1108 O   0  0  0  0  0  0  0  0  0  0  0  0
   14.1569  -14.6997   21.3833 O   0  0  0  0  0  0  0  0  0  0  0  0
   10.4222  -18.7492   24.1349 O   0  0  0  0  0  0  0  0  0  0  0  0
  2  1  1  0
  3  4  1  0
  3  2  1  0
  4  5  1  0
  5  6  1  6
  7  5  1  0
  7  8  2  0
 10  9  1  6
 11 10  1  0
 12 10  1  0
 13 12  1  1
 13 14  1  0
 14  7  1  0
 15 13  1  0
 16 15  2  0
 17 15  1  0
 18 17  1  0
 18 23  1  0
 18 19  1  1
 20 21  1  0
 20 19  1  0
 21 22  2  0
 21 25  1  0
 23 26  1  0
 24 23  2  0
M  END
$$$$
