MLE.pdb
     RDKit          3D

 26 25  0  0  1  0  0  0  0  0999 V2000
    7.7974  -12.7759   20.0430 C   0  0  0  0  0  0  0  0  0  0  0  0
    6.7392  -14.1888   19.6002 S   0  0  0  0  0  0  0  0  0  0  0  0
    7.5821  -15.7595   19.8791 C   0  0  0  0  0  0  0  0  0  0  0  0
    7.8244  -15.9077   21.3663 C   0  0  0  0  0  0  0  0  0  0  0  0
    9.0357  -15.1058   21.8086 C   0  0  2  0  0  0  0  0  0  0  0  0
   10.2408  -15.6662   21.1701 N   0  0  0  0  0  0  0  0  0  0  0  0
    9.2389  -15.1693   23.2606 C   0  0  0  0  0  0  0  0  0  0  0  0
   10.3140  -15.6186   23.7218 O   0  0  0  0  0  0  0  0  0  0  0  0
    5.5715  -12.1122   26.1275 C   0  0  0  0  0  0  0  0  0  0  0  0
    6.8418  -12.6784   25.5553 C   0  0  1  0  0  0  0  0  0  0  0  0
    7.9016  -11.5638   25.6463 C   0  0  0  0  0  0  0  0  0  0  0  0
    7.4141  -13.8391   26.2750 C   0  0  0  0  0  0  0  0  0  0  0  0
    8.5301  -14.5818   25.6228 C   0  0  2  0  0  0  0  0  0  0  0  0
    8.2733  -14.7443   24.2187 N   0  0  0  0  0  0  0  0  0  0  0  0
    8.6007  -15.9168   26.3175 C   0  0  0  0  0  0  0  0  0  0  0  0
    8.4990  -15.9043   27.5608 O   0  0  0  0  0  0  0  0  0  0  0  0
    8.7708  -17.1389   25.6420 N   0  0  0  0  0  0  0  0  0  0  0  0
    9.8344  -18.1054   25.9972 C   0  0  1  0  0  0  0  0  0  0  0  0
   11.0694  -17.8116   25.2219 C   0  0  0  0  0  0  0  0  0  0  0  0
   12.2142  -18.6883   25.6208 C   0  0  0  0  0  0  0  0  0  0  0  0
   13.0594  -19.1102   24.4784 C   0  0  0  0  0  0  0  0  0  0  0  0
   13.2258  -20.3486   24.2749 O   0  0  0  0  0  0  0  0  0  0  0  0
   10.0574  -18.0318   27.4512 C   0  0  0  0  0  0  0  0  0  0  0  0
   10.3261  -16.9500   27.9964 O   0  0  0  0  0  0  0  0  0  0  0  0
   13.6801  -18.2390   23.6201 O   0  0  0  0  0  0  0  0  0  0  0  0
    9.9698  -19.1708   28.2294 O   0  0  0  0  0  0  0  0  0  0  0  0
  2  1  1  0
  3  4  1  0
  3  2  1  0
  4  5  1  0
  5  6  1  6
  7  5  1  0
  7  8  2  0
 10  9  1  1
 11 10  1  0
 12 10  1  0
 13 12  1  1
 13 14  1  0
 14  7  1  0
 15 13  1  0
 16 15  2  0
 17 15  1  0
 18 17  1  0
 18 23  1  0
 18 19  1  6
 20 21  1  0
 20 19  1  0
 21 22  2  0
 21 25  1  0
 23 26  1  0
 24 23  2  0
M  END
$$$$
