MLE.pdb
     RDKit          3D

 26 25  0  0  1  0  0  0  0  0999 V2000
    7.0106  -11.6385   18.9537 C   0  0  0  0  0  0  0  0  0  0  0  0
    8.4050  -12.4331   19.8119 S   0  0  0  0  0  0  0  0  0  0  0  0
    8.2875  -14.2321   19.7396 C   0  0  0  0  0  0  0  0  0  0  0  0
    9.4040  -14.8124   20.5818 C   0  0  0  0  0  0  0  0  0  0  0  0
    8.8781  -15.8643   21.5425 C   0  0  2  0  0  0  0  0  0  0  0  0
    7.4045  -15.8644   21.4935 N   0  0  0  0  0  0  0  0  0  0  0  0
    9.2707  -15.5897   22.9296 C   0  0  0  0  0  0  0  0  0  0  0  0
   10.4816  -15.4483   23.2197 O   0  0  0  0  0  0  0  0  0  0  0  0
    5.8606  -12.8132   26.3650 C   0  0  0  0  0  0  0  0  0  0  0  0
    7.1167  -13.3105   25.7041 C   0  0  1  0  0  0  0  0  0  0  0  0
    8.2359  -12.3223   26.0845 C   0  0  0  0  0  0  0  0  0  0  0  0
    7.5912  -14.6442   26.1385 C   0  0  0  0  0  0  0  0  0  0  0  0
    8.7169  -15.2632   25.3820 C   0  0  2  0  0  0  0  0  0  0  0  0
    8.3479  -15.4675   24.0088 N   0  0  0  0  0  0  0  0  0  0  0  0
    9.0035  -16.5748   26.0657 C   0  0  0  0  0  0  0  0  0  0  0  0
    8.0173  -17.2891   26.3371 O   0  0  0  0  0  0  0  0  0  0  0  0
   10.2977  -17.0133   26.3995 N   0  0  0  0  0  0  0  0  0  0  0  0
   10.5557  -18.3217   27.0422 C   0  0  1  0  0  0  0  0  0  0  0  0
   11.7589  -18.9565   26.4405 C   0  0  0  0  0  0  0  0  0  0  0  0
   11.6625  -19.0617   24.9512 C   0  0  0  0  0  0  0  0  0  0  0  0
   12.9759  -19.2365   24.2865 C   0  0  0  0  0  0  0  0  0  0  0  0
   14.0162  -19.2822   25.0065 O   0  0  0  0  0  0  0  0  0  0  0  0
   10.7061  -18.1020   28.4909 C   0  0  0  0  0  0  0  0  0  0  0  0
   10.8529  -19.0608   29.2646 O   0  0  0  0  0  0  0  0  0  0  0  0
   13.1400  -19.3518   22.9297 O   0  0  0  0  0  0  0  0  0  0  0  0
   10.6854  -16.8205   29.0084 O   0  0  0  0  0  0  0  0  0  0  0  0
  2  1  1  0
  3  4  1  0
  3  2  1  0
  4  5  1  0
  5  6  1  1
  7  5  1  0
  7  8  2  0
 10  9  1  1
 11 10  1  0
 12 10  1  0
 13 12  1  1
 13 14  1  0
 14  7  1  0
 15 13  1  0
 16 15  2  0
 17 15  1  0
 18 17  1  0
 18 23  1  0
 18 19  1  6
 20 21  1  0
 20 19  1  0
 21 22  2  0
 21 25  1  0
 23 26  1  0
 24 23  2  0
M  END
$$$$
