MLE.pdb
     RDKit          3D

 26 25  0  0  1  0  0  0  0  0999 V2000
    8.9567  -14.1881   30.6761 C   0  0  0  0  0  0  0  0  0  0  0  0
    8.6713  -15.2119   29.1988 S   0  0  0  0  0  0  0  0  0  0  0  0
    8.8930  -16.9663   29.5570 C   0  0  0  0  0  0  0  0  0  0  0  0
    8.1754  -17.7611   28.4865 C   0  0  0  0  0  0  0  0  0  0  0  0
    8.8603  -17.6123   27.1394 C   0  0  2  0  0  0  0  0  0  0  0  0
   10.1223  -16.8723   27.3222 N   0  0  0  0  0  0  0  0  0  0  0  0
    8.0419  -16.8547   26.1854 C   0  0  0  0  0  0  0  0  0  0  0  0
    6.8948  -17.2609   25.8860 O   0  0  0  0  0  0  0  0  0  0  0  0
    7.8325  -11.5327   26.3971 C   0  0  0  0  0  0  0  0  0  0  0  0
    7.5552  -12.9921   26.1622 C   0  0  1  0  0  0  0  0  0  0  0  0
    6.0560  -13.2070   26.4452 C   0  0  0  0  0  0  0  0  0  0  0  0
    7.7790  -13.4787   24.7817 C   0  0  0  0  0  0  0  0  0  0  0  0
    7.7222  -14.9493   24.5439 C   0  0  2  0  0  0  0  0  0  0  0  0
    8.4672  -15.6511   25.5520 N   0  0  0  0  0  0  0  0  0  0  0  0
    8.3185  -15.1713   23.1783 C   0  0  0  0  0  0  0  0  0  0  0  0
    8.3646  -14.1799   22.4223 O   0  0  0  0  0  0  0  0  0  0  0  0
    8.8108  -16.4122   22.7350 N   0  0  0  0  0  0  0  0  0  0  0  0
   10.0678  -16.5424   21.9640 C   0  0  1  0  0  0  0  0  0  0  0  0
   11.1996  -15.9578   22.7322 C   0  0  0  0  0  0  0  0  0  0  0  0
   12.5221  -16.2148   22.0818 C   0  0  0  0  0  0  0  0  0  0  0  0
   13.6740  -15.7200   22.8728 C   0  0  0  0  0  0  0  0  0  0  0  0
   14.6836  -15.2715   22.2545 O   0  0  0  0  0  0  0  0  0  0  0  0
   10.2768  -17.9685   21.6607 C   0  0  0  0  0  0  0  0  0  0  0  0
   11.1048  -18.3190   20.8056 O   0  0  0  0  0  0  0  0  0  0  0  0
   13.7191  -15.7172   24.2436 O   0  0  0  0  0  0  0  0  0  0  0  0
    9.5506  -18.9377   22.3270 O   0  0  0  0  0  0  0  0  0  0  0  0
  2  1  1  0
  3  4  1  0
  3  2  1  0
  4  5  1  0
  5  6  1  1
  7  5  1  0
  7  8  2  0
 10  9  1  6
 11 10  1  0
 12 10  1  0
 13 12  1  1
 13 14  1  0
 14  7  1  0
 15 13  1  0
 16 15  2  0
 17 15  1  0
 18 17  1  0
 18 23  1  0
 18 19  1  1
 20 21  1  0
 20 19  1  0
 21 22  2  0
 21 25  1  0
 23 26  1  0
 24 23  2  0
M  END
$$$$
