MLE.pdb
     RDKit          3D

 26 25  0  0  1  0  0  0  0  0999 V2000
    8.6368  -11.6508   20.0908 C   0  0  0  0  0  0  0  0  0  0  0  0
    8.2709  -12.4233   18.4841 S   0  0  0  0  0  0  0  0  0  0  0  0
    8.0052  -14.2002   18.6497 C   0  0  0  0  0  0  0  0  0  0  0  0
    7.2256  -14.4443   19.9245 C   0  0  0  0  0  0  0  0  0  0  0  0
    7.8184  -15.5940   20.7199 C   0  0  2  0  0  0  0  0  0  0  0  0
    6.7632  -16.5895   20.9827 N   0  0  0  0  0  0  0  0  0  0  0  0
    8.3402  -15.1544   22.0192 C   0  0  0  0  0  0  0  0  0  0  0  0
    9.5753  -15.0210   22.1836 O   0  0  0  0  0  0  0  0  0  0  0  0
    8.3999  -12.3362   26.7127 C   0  0  0  0  0  0  0  0  0  0  0  0
    7.2892  -13.3437   26.5986 C   0  0  1  0  0  0  0  0  0  0  0  0
    6.0180  -12.6615   27.1394 C   0  0  0  0  0  0  0  0  0  0  0  0
    6.9564  -13.7864   25.2253 C   0  0  0  0  0  0  0  0  0  0  0  0
    8.0158  -14.4850   24.4429 C   0  0  2  0  0  0  0  0  0  0  0  0
    7.5207  -14.8577   23.1468 N   0  0  0  0  0  0  0  0  0  0  0  0
    8.3912  -15.7015   25.2485 C   0  0  0  0  0  0  0  0  0  0  0  0
    7.4900  -16.2070   25.9475 O   0  0  0  0  0  0  0  0  0  0  0  0
    9.6764  -16.2731   25.2441 N   0  0  0  0  0  0  0  0  0  0  0  0
    9.9746  -17.5709   25.8908 C   0  0  1  0  0  0  0  0  0  0  0  0
   11.0505  -18.2768   25.1445 C   0  0  0  0  0  0  0  0  0  0  0  0
   12.2916  -17.4510   25.0178 C   0  0  0  0  0  0  0  0  0  0  0  0
   13.2450  -17.9710   24.0089 C   0  0  0  0  0  0  0  0  0  0  0  0
   12.9232  -19.0020   23.3483 O   0  0  0  0  0  0  0  0  0  0  0  0
   10.3447  -17.3130   27.2930 C   0  0  0  0  0  0  0  0  0  0  0  0
   10.4918  -16.1521   27.7055 O   0  0  0  0  0  0  0  0  0  0  0  0
   14.4651  -17.4042   23.7422 O   0  0  0  0  0  0  0  0  0  0  0  0
   10.5337  -18.3647   28.1698 O   0  0  0  0  0  0  0  0  0  0  0  0
  2  1  1  0
  3  4  1  0
  3  2  1  0
  4  5  1  0
  5  6  1  1
  7  5  1  0
  7  8  2  0
 10  9  1  6
 11 10  1  0
 12 10  1  0
 13 12  1  1
 13 14  1  0
 14  7  1  0
 15 13  1  0
 16 15  2  0
 17 15  1  0
 18 17  1  0
 18 23  1  0
 18 19  1  6
 20 21  1  0
 20 19  1  0
 21 22  2  0
 21 25  1  0
 23 26  1  0
 24 23  2  0
M  END
$$$$
