MLE.pdb
     RDKit          3D

 26 25  0  0  1  0  0  0  0  0999 V2000
    8.2059  -13.0021   16.7146 C   0  0  0  0  0  0  0  0  0  0  0  0
    8.6934  -13.0175   18.4680 S   0  0  0  0  0  0  0  0  0  0  0  0
    7.2838  -13.3515   19.5435 C   0  0  0  0  0  0  0  0  0  0  0  0
    7.7702  -13.3380   20.9773 C   0  0  0  0  0  0  0  0  0  0  0  0
    8.2905  -14.7024   21.3941 C   0  0  2  0  0  0  0  0  0  0  0  0
    7.1899  -15.6802   21.3141 N   0  0  0  0  0  0  0  0  0  0  0  0
    8.7811  -14.7065   22.7773 C   0  0  0  0  0  0  0  0  0  0  0  0
    9.9731  -14.4040   23.0181 O   0  0  0  0  0  0  0  0  0  0  0  0
    5.6521  -12.6788   26.7786 C   0  0  0  0  0  0  0  0  0  0  0  0
    6.8520  -13.0846   25.9677 C   0  0  1  0  0  0  0  0  0  0  0  0
    8.0197  -12.1930   26.4318 C   0  0  0  0  0  0  0  0  0  0  0  0
    7.3130  -14.4801   26.1490 C   0  0  0  0  0  0  0  0  0  0  0  0
    8.4152  -14.9688   25.2722 C   0  0  2  0  0  0  0  0  0  0  0  0
    7.9773  -15.0398   23.9059 N   0  0  0  0  0  0  0  0  0  0  0  0
    8.7846  -16.3334   25.7932 C   0  0  0  0  0  0  0  0  0  0  0  0
    7.8547  -17.1574   25.9060 O   0  0  0  0  0  0  0  0  0  0  0  0
   10.0946  -16.7046   26.1459 N   0  0  0  0  0  0  0  0  0  0  0  0
   10.4317  -18.0528   26.6561 C   0  0  1  0  0  0  0  0  0  0  0  0
   11.6724  -18.5493   26.0027 C   0  0  0  0  0  0  0  0  0  0  0  0
   11.5752  -18.5335   24.5099 C   0  0  0  0  0  0  0  0  0  0  0  0
   12.8364  -18.9189   23.8330 C   0  0  0  0  0  0  0  0  0  0  0  0
   13.8363  -19.2246   24.5468 O   0  0  0  0  0  0  0  0  0  0  0  0
   10.5666  -17.9711   28.1206 C   0  0  0  0  0  0  0  0  0  0  0  0
   10.5460  -16.8729   28.6978 O   0  0  0  0  0  0  0  0  0  0  0  0
   12.9934  -18.9653   22.4713 O   0  0  0  0  0  0  0  0  0  0  0  0
   10.7184  -19.1207   28.8728 O   0  0  0  0  0  0  0  0  0  0  0  0
  2  1  1  0
  3  4  1  0
  3  2  1  0
  4  5  1  0
  5  6  1  1
  7  5  1  0
  7  8  2  0
 10  9  1  1
 11 10  1  0
 12 10  1  0
 13 12  1  1
 13 14  1  0
 14  7  1  0
 15 13  1  0
 16 15  2  0
 17 15  1  0
 18 17  1  0
 18 23  1  0
 18 19  1  6
 20 21  1  0
 20 19  1  0
 21 22  2  0
 21 25  1  0
 23 26  1  0
 24 23  2  0
M  END
$$$$
