MLE.pdb
     RDKit          3D

 26 25  0  0  1  0  0  0  0  0999 V2000
    9.1304  -18.1978   29.3561 C   0  0  0  0  0  0  0  0  0  0  0  0
    7.7624  -19.3950   29.4423 S   0  0  0  0  0  0  0  0  0  0  0  0
    7.1591  -19.8296   27.7984 C   0  0  0  0  0  0  0  0  0  0  0  0
    6.6647  -18.5655   27.1274 C   0  0  0  0  0  0  0  0  0  0  0  0
    7.2281  -18.4317   25.7237 C   0  0  2  0  0  0  0  0  0  0  0  0
    8.7006  -18.4169   25.7974 N   0  0  0  0  0  0  0  0  0  0  0  0
    6.8087  -17.1825   25.0778 C   0  0  0  0  0  0  0  0  0  0  0  0
    5.8360  -17.1837   24.2878 O   0  0  0  0  0  0  0  0  0  0  0  0
    7.5016  -12.3261   27.2509 C   0  0  0  0  0  0  0  0  0  0  0  0
    6.9655  -13.4325   26.3846 C   0  0  1  0  0  0  0  0  0  0  0  0
    5.4684  -13.1383   26.1702 C   0  0  0  0  0  0  0  0  0  0  0  0
    7.5544  -13.5359   25.0299 C   0  0  0  0  0  0  0  0  0  0  0  0
    7.4727  -14.8516   24.3337 C   0  0  2  0  0  0  0  0  0  0  0  0
    7.4455  -15.9250   25.2881 N   0  0  0  0  0  0  0  0  0  0  0  0
    8.6980  -14.9351   23.4610 C   0  0  0  0  0  0  0  0  0  0  0  0
    8.8131  -14.0624   22.5769 O   0  0  0  0  0  0  0  0  0  0  0  0
    9.6870  -15.9257   23.5987 N   0  0  0  0  0  0  0  0  0  0  0  0
   10.8507  -16.0233   22.6889 C   0  0  1  0  0  0  0  0  0  0  0  0
   12.0635  -16.4198   23.4536 C   0  0  0  0  0  0  0  0  0  0  0  0
   11.9922  -17.8321   23.9419 C   0  0  0  0  0  0  0  0  0  0  0  0
   13.2506  -18.3037   24.5675 C   0  0  0  0  0  0  0  0  0  0  0  0
   14.3141  -18.2757   23.8812 O   0  0  0  0  0  0  0  0  0  0  0  0
   10.5233  -16.9859   21.6233 C   0  0  0  0  0  0  0  0  0  0  0  0
    9.5078  -17.6947   21.7007 O   0  0  0  0  0  0  0  0  0  0  0  0
   13.3394  -18.7740   25.8528 O   0  0  0  0  0  0  0  0  0  0  0  0
   11.3461  -17.1123   20.5198 O   0  0  0  0  0  0  0  0  0  0  0  0
  2  1  1  0
  3  4  1  0
  3  2  1  0
  4  5  1  0
  5  6  1  1
  7  5  1  0
  7  8  2  0
 10  9  1  1
 11 10  1  0
 12 10  1  0
 13 12  1  1
 13 14  1  0
 14  7  1  0
 15 13  1  0
 16 15  2  0
 17 15  1  0
 18 17  1  0
 18 23  1  0
 18 19  1  1
 20 21  1  0
 20 19  1  0
 21 22  2  0
 21 25  1  0
 23 26  1  0
 24 23  2  0
M  END
$$$$
