PDY.pdb
     RDKit          3D

 28 29  0  0  1  0  0  0  0  0999 V2000
   21.0995  -13.9941  -17.4727 N   0  0  0  0  0  0  0  0  0  0  0  0
   20.0580  -14.3780  -18.3733 C   0  0  0  0  0  0  0  0  0  0  0  0
   20.8669  -14.7292  -19.6320 C   0  0  0  0  0  0  0  0  0  0  0  0
   21.8736  -13.5815  -19.6202 C   0  0  0  0  0  0  0  0  0  0  0  0
   21.9200  -13.0950  -18.1905 C   0  0  1  0  0  0  0  0  0  0  0  0
   21.4856  -11.6604  -18.1335 C   0  0  0  0  0  0  0  0  0  0  0  0
   22.2497  -10.8486  -18.7185 O   0  0  0  0  0  0  0  0  0  0  0  0
   20.3127  -11.2518  -17.4758 N   0  0  0  0  0  0  0  0  0  0  0  0
   19.7195   -9.9777  -17.3282 C   0  0  1  0  0  0  0  0  0  0  0  0
   18.4119   -9.7337  -18.0525 C   0  0  0  0  0  0  0  0  0  0  0  0
   17.3769  -10.6745  -17.6113 C   0  0  0  0  0  0  0  0  0  0  0  0
   17.5531  -11.9023  -17.6940 O   0  0  0  0  0  0  0  0  0  0  0  0
   19.7395   -9.5197  -15.9366 C   0  0  0  0  0  0  0  0  0  0  0  0
   19.0681  -10.1029  -15.0224 O   0  0  0  0  0  0  0  0  0  0  0  0
   16.1971  -10.1854  -17.1000 O   0  0  0  0  0  0  0  0  0  0  0  0
   23.5604   -2.7531  -16.3325 O   0  0  0  0  0  0  0  0  0  0  0  0
   23.1422   -3.8991  -15.6911 C   0  0  0  0  0  0  0  0  0  0  0  0
   23.4051   -5.1151  -16.2435 C   0  0  0  0  0  0  0  0  0  0  0  0
   22.9882   -6.2637  -15.6038 C   0  0  0  0  0  0  0  0  0  0  0  0
   22.3034   -6.2522  -14.4070 C   0  0  0  0  0  0  0  0  0  0  0  0
   21.8641   -7.4769  -13.7406 C   0  0  0  0  0  0  0  0  0  0  0  0
   20.4708   -7.9328  -14.1171 C   0  0  2  0  0  0  0  0  0  0  0  0
   20.5023   -8.3938  -15.4881 N   0  0  0  0  0  0  0  0  0  0  0  0
   19.4435   -6.8943  -13.8966 C   0  0  0  0  0  0  0  0  0  0  0  0
   18.9580   -6.3514  -14.9252 O   0  0  0  0  0  0  0  0  0  0  0  0
   22.0425   -5.0149  -13.8569 C   0  0  0  0  0  0  0  0  0  0  0  0
   22.4519   -3.8435  -14.4816 C   0  0  0  0  0  0  0  0  0  0  0  0
   19.0377   -6.5377  -12.6372 O   0  0  0  0  0  0  0  0  0  0  0  0
  1  5  1  0
  2  3  1  0
  2  1  1  0
  3  4  1  0
  4  5  1  0
  5  6  1  6
  6  7  2  0
  8  9  1  0
  8  6  1  0
  9 13  1  0
 10 11  1  0
  9 10  1  1
 11 12  2  0
 13 14  2  0
 15 11  1  0
 16 17  1  0
 17 27  2  0
 18 17  1  0
 18 19  2  0
 19 20  1  0
 20 26  2  0
 20 21  1  0
 22 21  1  6
 22 24  1  0
 23 22  1  0
 23 13  1  0
 24 25  2  0
 24 28  1  0
 27 26  1  0
M  END
$$$$
