PDY.pdb
     RDKit          3D

 28 29  0  0  1  0  0  0  0  0999 V2000
   10.5136  -21.5208   -8.8129 N   0  0  0  0  0  0  0  0  0  0  0  0
   10.0323  -20.2033   -9.0880 C   0  0  0  0  0  0  0  0  0  0  0  0
   11.0812  -19.7073  -10.0959 C   0  0  0  0  0  0  0  0  0  0  0  0
   12.3482  -20.2448   -9.4351 C   0  0  0  0  0  0  0  0  0  0  0  0
   11.8946  -21.3810   -8.5484 C   0  0  1  0  0  0  0  0  0  0  0  0
   12.2363  -21.0718   -7.1210 C   0  0  0  0  0  0  0  0  0  0  0  0
   13.4493  -20.8105   -6.9080 O   0  0  0  0  0  0  0  0  0  0  0  0
   11.2742  -21.0735   -6.0965 N   0  0  0  0  0  0  0  0  0  0  0  0
   11.3882  -20.8434   -4.7070 C   0  0  1  0  0  0  0  0  0  0  0  0
   10.1913  -20.2375   -4.0041 C   0  0  0  0  0  0  0  0  0  0  0  0
   10.3615  -18.7930   -3.8153 C   0  0  0  0  0  0  0  0  0  0  0  0
   11.4798  -18.2620   -3.9269 O   0  0  0  0  0  0  0  0  0  0  0  0
   11.9928  -21.9809   -4.0090 C   0  0  0  0  0  0  0  0  0  0  0  0
   11.4249  -23.1217   -3.9555 O   0  0  0  0  0  0  0  0  0  0  0  0
    9.2645  -18.0207   -3.5106 O   0  0  0  0  0  0  0  0  0  0  0  0
   18.0136  -27.3306   -0.3329 O   0  0  0  0  0  0  0  0  0  0  0  0
   17.3519  -26.2709   -0.9148 C   0  0  0  0  0  0  0  0  0  0  0  0
   17.1736  -26.2462   -2.2641 C   0  0  0  0  0  0  0  0  0  0  0  0
   16.5115  -25.1873   -2.8494 C   0  0  0  0  0  0  0  0  0  0  0  0
   16.0067  -24.1250   -2.1294 C   0  0  0  0  0  0  0  0  0  0  0  0
   15.3095  -23.0067   -2.7622 C   0  0  0  0  0  0  0  0  0  0  0  0
   13.8046  -23.0329   -2.6037 C   0  0  2  0  0  0  0  0  0  0  0  0
   13.2545  -21.9124   -3.3352 N   0  0  0  0  0  0  0  0  0  0  0  0
   13.3723  -23.0489   -1.1912 C   0  0  0  0  0  0  0  0  0  0  0  0
   13.2058  -24.1812   -0.6632 O   0  0  0  0  0  0  0  0  0  0  0  0
   16.1933  -24.1606   -0.7635 C   0  0  0  0  0  0  0  0  0  0  0  0
   16.8567  -25.2160   -0.1503 C   0  0  0  0  0  0  0  0  0  0  0  0
   13.1619  -21.8913   -0.4885 O   0  0  0  0  0  0  0  0  0  0  0  0
  1  5  1  0
  2  3  1  0
  2  1  1  0
  3  4  1  0
  4  5  1  0
  5  6  1  1
  6  7  2  0
  8  9  1  0
  8  6  1  0
  9 13  1  0
 10 11  1  0
  9 10  1  1
 11 12  2  0
 13 14  2  0
 15 11  1  0
 16 17  1  0
 17 27  2  0
 18 17  1  0
 18 19  2  0
 19 20  1  0
 20 26  2  0
 20 21  1  0
 22 21  1  1
 22 24  1  0
 23 22  1  0
 23 13  1  0
 24 25  2  0
 24 28  1  0
 27 26  1  0
M  END
$$$$
