PDY.pdb
     RDKit          3D

 28 29  0  0  1  0  0  0  0  0999 V2000
   24.2071  -11.8953  -17.4300 N   0  0  0  0  0  0  0  0  0  0  0  0
   25.6104  -12.0955  -17.6136 C   0  0  0  0  0  0  0  0  0  0  0  0
   26.0057  -12.6973  -16.2558 C   0  0  0  0  0  0  0  0  0  0  0  0
   25.1859  -11.8032  -15.3290 C   0  0  0  0  0  0  0  0  0  0  0  0
   24.0685  -11.2485  -16.1814 C   0  0  1  0  0  0  0  0  0  0  0  0
   24.1688   -9.7527  -16.2302 C   0  0  0  0  0  0  0  0  0  0  0  0
   24.2155   -9.1848  -15.1076 O   0  0  0  0  0  0  0  0  0  0  0  0
   24.2077   -9.0373  -17.4393 N   0  0  0  0  0  0  0  0  0  0  0  0
   24.2306   -7.6493  -17.7037 C   0  0  1  0  0  0  0  0  0  0  0  0
   25.0039   -7.1881  -18.9214 C   0  0  0  0  0  0  0  0  0  0  0  0
   26.4096   -7.5993  -18.8448 C   0  0  0  0  0  0  0  0  0  0  0  0
   27.0694   -7.4268  -17.8055 O   0  0  0  0  0  0  0  0  0  0  0  0
   22.9064   -7.0396  -17.5563 C   0  0  0  0  0  0  0  0  0  0  0  0
   21.9141   -7.3945  -18.2747 O   0  0  0  0  0  0  0  0  0  0  0  0
   27.0004   -8.1831  -19.9415 O   0  0  0  0  0  0  0  0  0  0  0  0
   14.9391   -4.7942  -15.9271 O   0  0  0  0  0  0  0  0  0  0  0  0
   16.2656   -5.1669  -15.8963 C   0  0  0  0  0  0  0  0  0  0  0  0
   16.7669   -5.9578  -16.8843 C   0  0  0  0  0  0  0  0  0  0  0  0
   18.0941   -6.3322  -16.8564 C   0  0  0  0  0  0  0  0  0  0  0  0
   18.9651   -5.9423  -15.8610 C   0  0  0  0  0  0  0  0  0  0  0  0
   20.3692   -6.3487  -15.8411 C   0  0  0  0  0  0  0  0  0  0  0  0
   21.3141   -5.3803  -16.5194 C   0  0  2  0  0  0  0  0  0  0  0  0
   22.6151   -6.0070  -16.6079 N   0  0  0  0  0  0  0  0  0  0  0  0
   21.3686   -4.0632  -15.8527 C   0  0  0  0  0  0  0  0  0  0  0  0
   22.3236   -3.8734  -15.0523 O   0  0  0  0  0  0  0  0  0  0  0  0
   18.4462   -5.1415  -14.8654 C   0  0  0  0  0  0  0  0  0  0  0  0
   17.1131   -4.7508  -14.8711 C   0  0  0  0  0  0  0  0  0  0  0  0
   20.4286   -3.0950  -16.0911 O   0  0  0  0  0  0  0  0  0  0  0  0
  1  5  1  0
  2  3  1  0
  2  1  1  0
  3  4  1  0
  4  5  1  0
  5  6  1  6
  6  7  2  0
  8  9  1  0
  8  6  1  0
  9 13  1  0
 10 11  1  0
  9 10  1  6
 11 12  2  0
 13 14  2  0
 15 11  1  0
 16 17  1  0
 17 27  2  0
 18 17  1  0
 18 19  2  0
 19 20  1  0
 20 26  2  0
 20 21  1  0
 22 21  1  1
 22 24  1  0
 23 22  1  0
 23 13  1  0
 24 25  2  0
 24 28  1  0
 27 26  1  0
M  END
$$$$
