PDY.pdb
     RDKit          3D

 28 29  0  0  1  0  0  0  0  0999 V2000
   21.2117  -14.5212  -17.3163 N   0  0  0  0  0  0  0  0  0  0  0  0
   20.2818  -15.5078  -17.7694 C   0  0  0  0  0  0  0  0  0  0  0  0
   20.6382  -15.5898  -19.2622 C   0  0  0  0  0  0  0  0  0  0  0  0
   20.8232  -14.1049  -19.5650 C   0  0  0  0  0  0  0  0  0  0  0  0
   21.1198  -13.4517  -18.2352 C   0  0  1  0  0  0  0  0  0  0  0  0
   20.0564  -12.4408  -17.9237 C   0  0  0  0  0  0  0  0  0  0  0  0
   19.7948  -11.6376  -18.8572 O   0  0  0  0  0  0  0  0  0  0  0  0
   19.4002  -12.3930  -16.6818 N   0  0  0  0  0  0  0  0  0  0  0  0
   18.3407  -11.5827  -16.2151 C   0  0  1  0  0  0  0  0  0  0  0  0
   17.5852  -12.0646  -14.9942 C   0  0  0  0  0  0  0  0  0  0  0  0
   16.6054  -13.0966  -15.3491 C   0  0  0  0  0  0  0  0  0  0  0  0
   16.5639  -13.5693  -16.4980 O   0  0  0  0  0  0  0  0  0  0  0  0
   18.7057  -10.1640  -16.1847 C   0  0  0  0  0  0  0  0  0  0  0  0
   19.7227   -9.7404  -15.5421 O   0  0  0  0  0  0  0  0  0  0  0  0
   15.7229  -13.5434  -14.3929 O   0  0  0  0  0  0  0  0  0  0  0  0
   19.0622   -1.5880  -18.4986 O   0  0  0  0  0  0  0  0  0  0  0  0
   18.8377   -2.9455  -18.4193 C   0  0  0  0  0  0  0  0  0  0  0  0
   19.8385   -3.8138  -18.7311 C   0  0  0  0  0  0  0  0  0  0  0  0
   19.6169   -5.1729  -18.6524 C   0  0  0  0  0  0  0  0  0  0  0  0
   18.4102   -5.7174  -18.2665 C   0  0  0  0  0  0  0  0  0  0  0  0
   18.1871   -7.1601  -18.1903 C   0  0  0  0  0  0  0  0  0  0  0  0
   18.3330   -7.7468  -16.8028 C   0  0  2  0  0  0  0  0  0  0  0  0
   17.9634   -9.1443  -16.8629 N   0  0  0  0  0  0  0  0  0  0  0  0
   17.5676   -7.0064  -15.7788 C   0  0  0  0  0  0  0  0  0  0  0  0
   16.4190   -7.4462  -15.5032 O   0  0  0  0  0  0  0  0  0  0  0  0
   17.4037   -4.8283  -17.9534 C   0  0  0  0  0  0  0  0  0  0  0  0
   17.6019   -3.4551  -18.0247 C   0  0  0  0  0  0  0  0  0  0  0  0
   18.0792   -5.8966  -15.1586 O   0  0  0  0  0  0  0  0  0  0  0  0
  1  5  1  0
  2  3  1  0
  2  1  1  0
  3  4  1  0
  4  5  1  0
  5  6  1  1
  6  7  2  0
  8  9  1  0
  8  6  1  0
  9 13  1  0
 10 11  1  0
  9 10  1  1
 11 12  2  0
 13 14  2  0
 15 11  1  0
 16 17  1  0
 17 27  2  0
 18 17  1  0
 18 19  2  0
 19 20  1  0
 20 26  2  0
 20 21  1  0
 22 21  1  6
 22 24  1  0
 23 22  1  0
 23 13  1  0
 24 25  2  0
 24 28  1  0
 27 26  1  0
M  END
$$$$
