PDY.pdb
     RDKit          3D

 28 29  0  0  1  0  0  0  0  0999 V2000
   28.0273  -21.7592  -15.9655 N   0  0  0  0  0  0  0  0  0  0  0  0
   27.1050  -22.4212  -16.8340 C   0  0  0  0  0  0  0  0  0  0  0  0
   27.0471  -21.4369  -18.0130 C   0  0  0  0  0  0  0  0  0  0  0  0
   27.0039  -20.1178  -17.2457 C   0  0  0  0  0  0  0  0  0  0  0  0
   27.5896  -20.4181  -15.8857 C   0  0  1  0  0  0  0  0  0  0  0  0
   26.5622  -20.1508  -14.8260 C   0  0  0  0  0  0  0  0  0  0  0  0
   26.1804  -18.9540  -14.7437 O   0  0  0  0  0  0  0  0  0  0  0  0
   26.0625  -21.1611  -13.9865 N   0  0  0  0  0  0  0  0  0  0  0  0
   25.1086  -21.1236  -12.9446 C   0  0  1  0  0  0  0  0  0  0  0  0
   23.7914  -21.8317  -13.1847 C   0  0  0  0  0  0  0  0  0  0  0  0
   22.6669  -21.0572  -12.6495 C   0  0  0  0  0  0  0  0  0  0  0  0
   21.8670  -21.5655  -11.8452 O   0  0  0  0  0  0  0  0  0  0  0  0
   25.7126  -21.3883  -11.6363 C   0  0  0  0  0  0  0  0  0  0  0  0
   26.2191  -22.5211  -11.3413 O   0  0  0  0  0  0  0  0  0  0  0  0
   22.5004  -19.7507  -13.0469 O   0  0  0  0  0  0  0  0  0  0  0  0
   29.0700  -20.1963   -3.5107 O   0  0  0  0  0  0  0  0  0  0  0  0
   28.6298  -20.0764   -4.8112 C   0  0  0  0  0  0  0  0  0  0  0  0
   29.1257  -20.9055   -5.7701 C   0  0  0  0  0  0  0  0  0  0  0  0
   28.6868  -20.7882   -7.0724 C   0  0  0  0  0  0  0  0  0  0  0  0
   27.7512  -19.8564   -7.4700 C   0  0  0  0  0  0  0  0  0  0  0  0
   27.2967  -19.7400   -8.8545 C   0  0  0  0  0  0  0  0  0  0  0  0
   26.2351  -20.7419   -9.2544 C   0  0  2  0  0  0  0  0  0  0  0  0
   25.7853  -20.4135  -10.5898 N   0  0  0  0  0  0  0  0  0  0  0  0
   25.1199  -20.8189   -8.2886 C   0  0  0  0  0  0  0  0  0  0  0  0
   24.0723  -20.1825   -8.5822 O   0  0  0  0  0  0  0  0  0  0  0  0
   27.2561  -19.0218   -6.4903 C   0  0  0  0  0  0  0  0  0  0  0  0
   27.6821  -19.1202   -5.1716 C   0  0  0  0  0  0  0  0  0  0  0  0
   25.2179  -21.5454   -7.1307 O   0  0  0  0  0  0  0  0  0  0  0  0
  1  5  1  0
  2  3  1  0
  2  1  1  0
  3  4  1  0
  4  5  1  0
  5  6  1  1
  6  7  2  0
  8  9  1  0
  8  6  1  0
  9 13  1  0
 10 11  1  0
  9 10  1  6
 11 12  2  0
 13 14  2  0
 15 11  1  0
 16 17  1  0
 17 27  2  0
 18 17  1  0
 18 19  2  0
 19 20  1  0
 20 26  2  0
 20 21  1  0
 22 21  1  1
 22 24  1  0
 23 22  1  0
 23 13  1  0
 24 25  2  0
 24 28  1  0
 27 26  1  0
M  END
$$$$
