PDY.pdb
     RDKit          3D

 28 29  0  0  1  0  0  0  0  0999 V2000
   16.1391  -10.7430  -11.1531 N   0  0  0  0  0  0  0  0  0  0  0  0
   14.7781  -10.8471  -10.7288 C   0  0  0  0  0  0  0  0  0  0  0  0
   14.0612  -11.0461  -12.0737 C   0  0  0  0  0  0  0  0  0  0  0  0
   14.8205  -10.0302  -12.9234 C   0  0  0  0  0  0  0  0  0  0  0  0
   16.1418   -9.8186  -12.2218 C   0  0  1  0  0  0  0  0  0  0  0  0
   16.2692   -8.3810  -11.8131 C   0  0  0  0  0  0  0  0  0  0  0  0
   16.1661   -7.5489  -12.7523 O   0  0  0  0  0  0  0  0  0  0  0  0
   16.4876   -7.9909  -10.4807 N   0  0  0  0  0  0  0  0  0  0  0  0
   16.7105   -6.7205   -9.9034 C   0  0  1  0  0  0  0  0  0  0  0  0
   16.1936   -6.4976   -8.4974 C   0  0  0  0  0  0  0  0  0  0  0  0
   14.7337   -6.6256   -8.4418 C   0  0  0  0  0  0  0  0  0  0  0  0
   14.0157   -6.1378   -9.3317 O   0  0  0  0  0  0  0  0  0  0  0  0
   18.0772   -6.2447  -10.1323 C   0  0  0  0  0  0  0  0  0  0  0  0
   18.9806   -6.3238   -9.2355 O   0  0  0  0  0  0  0  0  0  0  0  0
   14.1569   -7.2959   -7.3879 O   0  0  0  0  0  0  0  0  0  0  0  0
   21.4617   -9.8867  -15.5958 O   0  0  0  0  0  0  0  0  0  0  0  0
   21.3022   -9.0182  -14.5376 C   0  0  0  0  0  0  0  0  0  0  0  0
   21.5364   -7.6891  -14.7150 C   0  0  0  0  0  0  0  0  0  0  0  0
   21.3772   -6.8174  -13.6581 C   0  0  0  0  0  0  0  0  0  0  0  0
   20.9848   -7.2238  -12.4001 C   0  0  0  0  0  0  0  0  0  0  0  0
   20.8229   -6.2901  -11.2870 C   0  0  0  0  0  0  0  0  0  0  0  0
   19.8558   -5.1565  -11.5524 C   0  0  2  0  0  0  0  0  0  0  0  0
   18.5115   -5.6572  -11.3640 N   0  0  0  0  0  0  0  0  0  0  0  0
   20.0435   -4.5353  -12.8795 C   0  0  0  0  0  0  0  0  0  0  0  0
   19.1270   -4.7194  -13.7251 O   0  0  0  0  0  0  0  0  0  0  0  0
   20.7507   -8.5723  -12.2321 C   0  0  0  0  0  0  0  0  0  0  0  0
   20.9038   -9.4704  -13.2809 C   0  0  0  0  0  0  0  0  0  0  0  0
   21.1579   -3.7958  -13.1783 O   0  0  0  0  0  0  0  0  0  0  0  0
  1  5  1  0
  2  3  1  0
  2  1  1  0
  3  4  1  0
  4  5  1  0
  5  6  1  1
  6  7  2  0
  8  9  1  0
  8  6  1  0
  9 13  1  0
 10 11  1  0
  9 10  1  1
 11 12  2  0
 13 14  2  0
 15 11  1  0
 16 17  1  0
 17 27  2  0
 18 17  1  0
 18 19  2  0
 19 20  1  0
 20 26  2  0
 20 21  1  0
 22 21  1  6
 22 24  1  0
 23 22  1  0
 23 13  1  0
 24 25  2  0
 24 28  1  0
 27 26  1  0
M  END
$$$$
