PDY.pdb
     RDKit          3D

 28 29  0  0  1  0  0  0  0  0999 V2000
   20.7624  -12.7657  -18.8380 N   0  0  0  0  0  0  0  0  0  0  0  0
   19.4675  -12.8165  -19.4413 C   0  0  0  0  0  0  0  0  0  0  0  0
   19.8155  -13.3184  -20.8517 C   0  0  0  0  0  0  0  0  0  0  0  0
   21.0663  -12.4855  -21.1205 C   0  0  0  0  0  0  0  0  0  0  0  0
   21.5930  -12.0907  -19.7605 C   0  0  1  0  0  0  0  0  0  0  0  0
   21.5918  -10.5960  -19.6356 C   0  0  0  0  0  0  0  0  0  0  0  0
   22.3193   -9.9912  -20.4661 O   0  0  0  0  0  0  0  0  0  0  0  0
   20.8348   -9.9198  -18.6634 N   0  0  0  0  0  0  0  0  0  0  0  0
   20.6645   -8.5413  -18.4037 C   0  0  1  0  0  0  0  0  0  0  0  0
   19.3293   -7.9268  -18.7690 C   0  0  0  0  0  0  0  0  0  0  0  0
   19.3389   -6.4747  -18.5629 C   0  0  0  0  0  0  0  0  0  0  0  0
   19.8671   -5.7156  -19.3935 O   0  0  0  0  0  0  0  0  0  0  0  0
   21.1661   -8.1651  -17.0795 C   0  0  0  0  0  0  0  0  0  0  0  0
   20.6282   -8.5932  -16.0052 O   0  0  0  0  0  0  0  0  0  0  0  0
   18.7537   -5.9519  -17.4329 O   0  0  0  0  0  0  0  0  0  0  0  0
   26.5731   -3.1884  -19.1422 O   0  0  0  0  0  0  0  0  0  0  0  0
   26.0048   -4.0960  -18.2747 C   0  0  0  0  0  0  0  0  0  0  0  0
   25.5675   -3.6800  -17.0546 C   0  0  0  0  0  0  0  0  0  0  0  0
   24.9981   -4.5859  -16.1844 C   0  0  0  0  0  0  0  0  0  0  0  0
   24.8417   -5.9225  -16.4856 C   0  0  0  0  0  0  0  0  0  0  0  0
   24.2393   -6.8734  -15.5529 C   0  0  0  0  0  0  0  0  0  0  0  0
   22.7259   -6.8900  -15.5612 C   0  0  2  0  0  0  0  0  0  0  0  0
   22.2867   -7.2964  -16.8785 N   0  0  0  0  0  0  0  0  0  0  0  0
   22.1314   -5.6042  -15.1422 C   0  0  0  0  0  0  0  0  0  0  0  0
   21.5397   -4.9374  -16.0333 O   0  0  0  0  0  0  0  0  0  0  0  0
   25.2884   -6.3326  -17.7240 C   0  0  0  0  0  0  0  0  0  0  0  0
   25.8654   -5.4396  -18.6182 C   0  0  0  0  0  0  0  0  0  0  0  0
   22.2181   -5.1570  -13.8497 O   0  0  0  0  0  0  0  0  0  0  0  0
  1  5  1  0
  2  3  1  0
  2  1  1  0
  3  4  1  0
  4  5  1  0
  5  6  1  1
  6  7  2  0
  8  9  1  0
  8  6  1  0
  9 13  1  0
 10 11  1  0
  9 10  1  1
 11 12  2  0
 13 14  2  0
 15 11  1  0
 16 17  1  0
 17 27  2  0
 18 17  1  0
 18 19  2  0
 19 20  1  0
 20 26  2  0
 20 21  1  0
 22 21  1  6
 22 24  1  0
 23 22  1  0
 23 13  1  0
 24 25  2  0
 24 28  1  0
 27 26  1  0
M  END
$$$$
