PDY.pdb
     RDKit          3D

 28 29  0  0  1  0  0  0  0  0999 V2000
   17.1738  -10.3480  -15.6186 N   0  0  0  0  0  0  0  0  0  0  0  0
   17.0135   -9.3845  -16.6621 C   0  0  0  0  0  0  0  0  0  0  0  0
   17.8125  -10.0409  -17.7991 C   0  0  0  0  0  0  0  0  0  0  0  0
   19.0196  -10.5420  -17.0101 C   0  0  0  0  0  0  0  0  0  0  0  0
   18.5542  -10.6470  -15.5765 C   0  0  1  0  0  0  0  0  0  0  0  0
   19.3727   -9.7323  -14.7142 C   0  0  0  0  0  0  0  0  0  0  0  0
   20.6079   -9.9753  -14.7018 O   0  0  0  0  0  0  0  0  0  0  0  0
   18.8035   -8.6816  -13.9745 N   0  0  0  0  0  0  0  0  0  0  0  0
   19.3892   -7.6948  -13.1498 C   0  0  1  0  0  0  0  0  0  0  0  0
   20.6742   -7.0580  -13.6366 C   0  0  0  0  0  0  0  0  0  0  0  0
   21.2677   -6.2029  -12.6033 C   0  0  0  0  0  0  0  0  0  0  0  0
   21.2405   -6.5359  -11.4060 O   0  0  0  0  0  0  0  0  0  0  0  0
   18.3966   -6.7474  -12.6362 C   0  0  0  0  0  0  0  0  0  0  0  0
   17.6992   -6.0117  -13.4102 O   0  0  0  0  0  0  0  0  0  0  0  0
   21.8611   -5.0173  -12.9706 O   0  0  0  0  0  0  0  0  0  0  0  0
   13.0461  -10.0312   -8.4292 O   0  0  0  0  0  0  0  0  0  0  0  0
   13.7118   -9.0513   -9.1336 C   0  0  0  0  0  0  0  0  0  0  0  0
   14.3371   -9.3668  -10.3007 C   0  0  0  0  0  0  0  0  0  0  0  0
   15.0038   -8.3883  -11.0081 C   0  0  0  0  0  0  0  0  0  0  0  0
   15.0758   -7.0757  -10.5916 C   0  0  0  0  0  0  0  0  0  0  0  0
   15.7886   -6.0484  -11.3490 C   0  0  0  0  0  0  0  0  0  0  0  0
   17.1225   -5.6439  -10.7592 C   0  0  2  0  0  0  0  0  0  0  0  0
   18.1272   -6.5666  -11.2414 N   0  0  0  0  0  0  0  0  0  0  0  0
   17.1001   -5.5574   -9.2846 C   0  0  0  0  0  0  0  0  0  0  0  0
   16.3272   -4.6991   -8.7800 O   0  0  0  0  0  0  0  0  0  0  0  0
   14.4389   -6.7678   -9.4079 C   0  0  0  0  0  0  0  0  0  0  0  0
   13.7607   -7.7353   -8.6772 C   0  0  0  0  0  0  0  0  0  0  0  0
   17.8802   -6.3688   -8.5029 O   0  0  0  0  0  0  0  0  0  0  0  0
  1  5  1  0
  2  3  1  0
  2  1  1  0
  3  4  1  0
  4  5  1  0
  5  6  1  1
  6  7  2  0
  8  9  1  0
  8  6  1  0
  9 13  1  0
 10 11  1  0
  9 10  1  6
 11 12  2  0
 13 14  2  0
 15 11  1  0
 16 17  1  0
 17 27  2  0
 18 17  1  0
 18 19  2  0
 19 20  1  0
 20 26  2  0
 20 21  1  0
 22 21  1  1
 22 24  1  0
 23 22  1  0
 23 13  1  0
 24 25  2  0
 24 28  1  0
 27 26  1  0
M  END
$$$$
