PDY.pdb
     RDKit          3D

 28 29  0  0  1  0  0  0  0  0999 V2000
   19.4360  -14.2651  -17.2964 N   0  0  0  0  0  0  0  0  0  0  0  0
   18.1232  -14.6769  -17.6837 C   0  0  0  0  0  0  0  0  0  0  0  0
   18.3827  -15.2018  -19.1047 C   0  0  0  0  0  0  0  0  0  0  0  0
   19.3346  -14.1203  -19.6093 C   0  0  0  0  0  0  0  0  0  0  0  0
   19.9327  -13.4939  -18.3712 C   0  0  1  0  0  0  0  0  0  0  0  0
   19.5755  -12.0379  -18.3221 C   0  0  0  0  0  0  0  0  0  0  0  0
   20.0155  -11.3486  -19.2792 O   0  0  0  0  0  0  0  0  0  0  0  0
   18.8066  -11.4833  -17.2845 N   0  0  0  0  0  0  0  0  0  0  0  0
   18.3722  -10.1596  -17.0480 C   0  0  1  0  0  0  0  0  0  0  0  0
   16.8795   -9.9293  -16.9359 C   0  0  0  0  0  0  0  0  0  0  0  0
   16.5542   -8.5021  -17.0260 C   0  0  0  0  0  0  0  0  0  0  0  0
   17.4213   -7.6682  -17.3387 O   0  0  0  0  0  0  0  0  0  0  0  0
   19.1701   -9.4956  -16.0140 C   0  0  0  0  0  0  0  0  0  0  0  0
   19.1728   -9.8926  -14.8019 O   0  0  0  0  0  0  0  0  0  0  0  0
   15.2700   -8.0869  -16.7595 O   0  0  0  0  0  0  0  0  0  0  0  0
   24.0757  -13.2909  -15.7002 O   0  0  0  0  0  0  0  0  0  0  0  0
   23.6388  -11.9841  -15.6752 C   0  0  0  0  0  0  0  0  0  0  0  0
   23.2443  -11.3828  -16.8309 C   0  0  0  0  0  0  0  0  0  0  0  0
   22.8062  -10.0751  -16.8091 C   0  0  0  0  0  0  0  0  0  0  0  0
   22.7429   -9.3220  -15.6557 C   0  0  0  0  0  0  0  0  0  0  0  0
   22.2797   -7.9355  -15.6464 C   0  0  0  0  0  0  0  0  0  0  0  0
   20.8309   -7.7589  -15.2458 C   0  0  2  0  0  0  0  0  0  0  0  0
   20.0035   -8.3594  -16.2696 N   0  0  0  0  0  0  0  0  0  0  0  0
   20.4705   -6.3500  -14.9865 C   0  0  0  0  0  0  0  0  0  0  0  0
   19.6385   -5.8246  -15.7742 O   0  0  0  0  0  0  0  0  0  0  0  0
   23.1453   -9.9413  -14.4911 C   0  0  0  0  0  0  0  0  0  0  0  0
   23.5904  -11.2573  -14.4870 C   0  0  0  0  0  0  0  0  0  0  0  0
   21.0128   -5.6475  -13.9422 O   0  0  0  0  0  0  0  0  0  0  0  0
  1  5  1  0
  2  3  1  0
  2  1  1  0
  3  4  1  0
  4  5  1  0
  5  6  1  1
  6  7  2  0
  8  9  1  0
  8  6  1  0
  9 13  1  0
 10 11  1  0
  9 10  1  1
 11 12  2  0
 13 14  2  0
 15 11  1  0
 16 17  1  0
 17 27  2  0
 18 17  1  0
 18 19  2  0
 19 20  1  0
 20 26  2  0
 20 21  1  0
 22 21  1  6
 22 24  1  0
 23 22  1  0
 23 13  1  0
 24 25  2  0
 24 28  1  0
 27 26  1  0
M  END
$$$$
