PDY.pdb
     RDKit          3D

 28 29  0  0  1  0  0  0  0  0999 V2000
   23.4698  -18.4758  -14.8946 N   0  0  0  0  0  0  0  0  0  0  0  0
   24.1104  -17.5836  -15.8092 C   0  0  0  0  0  0  0  0  0  0  0  0
   23.1247  -17.6072  -16.9882 C   0  0  0  0  0  0  0  0  0  0  0  0
   22.8057  -19.0996  -17.0278 C   0  0  0  0  0  0  0  0  0  0  0  0
   23.1278  -19.6219  -15.6471 C   0  0  1  0  0  0  0  0  0  0  0  0
   24.2059  -20.6605  -15.7415 C   0  0  0  0  0  0  0  0  0  0  0  0
   23.8267  -21.7856  -16.1600 O   0  0  0  0  0  0  0  0  0  0  0  0
   25.5408  -20.3978  -15.3890 N   0  0  0  0  0  0  0  0  0  0  0  0
   26.6281  -21.2639  -15.1350 C   0  0  1  0  0  0  0  0  0  0  0  0
   27.9179  -20.9949  -15.8818 C   0  0  0  0  0  0  0  0  0  0  0  0
   27.6544  -20.4442  -17.2153 C   0  0  0  0  0  0  0  0  0  0  0  0
   27.0683  -21.1181  -18.0799 O   0  0  0  0  0  0  0  0  0  0  0  0
   26.7970  -21.5293  -13.7040 C   0  0  0  0  0  0  0  0  0  0  0  0
   27.4906  -22.5098  -13.2746 O   0  0  0  0  0  0  0  0  0  0  0  0
   28.0642  -19.1638  -17.5072 O   0  0  0  0  0  0  0  0  0  0  0  0
   28.4214  -20.1966   -5.2074 O   0  0  0  0  0  0  0  0  0  0  0  0
   28.1707  -20.1309   -6.5610 C   0  0  0  0  0  0  0  0  0  0  0  0
   28.9028  -20.8919   -7.4200 C   0  0  0  0  0  0  0  0  0  0  0  0
   28.6541  -20.8286   -8.7751 C   0  0  0  0  0  0  0  0  0  0  0  0
   27.6825  -20.0190   -9.3248 C   0  0  0  0  0  0  0  0  0  0  0  0
   27.4309  -19.9585  -10.7636 C   0  0  0  0  0  0  0  0  0  0  0  0
   26.4303  -20.9746  -11.2705 C   0  0  2  0  0  0  0  0  0  0  0  0
   26.2064  -20.7239  -12.6777 N   0  0  0  0  0  0  0  0  0  0  0  0
   25.1733  -20.9850  -10.4944 C   0  0  0  0  0  0  0  0  0  0  0  0
   24.2088  -20.3282  -10.9709 O   0  0  0  0  0  0  0  0  0  0  0  0
   26.9474  -19.2525   -8.4452 C   0  0  0  0  0  0  0  0  0  0  0  0
   27.1786  -19.2985   -7.0761 C   0  0  0  0  0  0  0  0  0  0  0  0
   25.0599  -21.6735   -9.3149 O   0  0  0  0  0  0  0  0  0  0  0  0
  1  5  1  0
  2  3  1  0
  2  1  1  0
  3  4  1  0
  4  5  1  0
  5  6  1  6
  6  7  2  0
  8  9  1  0
  8  6  1  0
  9 13  1  0
 10 11  1  0
  9 10  1  1
 11 12  2  0
 13 14  2  0
 15 11  1  0
 16 17  1  0
 17 27  2  0
 18 17  1  0
 18 19  2  0
 19 20  1  0
 20 26  2  0
 20 21  1  0
 22 21  1  1
 22 24  1  0
 23 22  1  0
 23 13  1  0
 24 25  2  0
 24 28  1  0
 27 26  1  0
M  END
$$$$
