PDY.pdb
     RDKit          3D

 28 29  0  0  1  0  0  0  0  0999 V2000
   29.2513  -24.1758  -18.7395 N   0  0  0  0  0  0  0  0  0  0  0  0
   28.5731  -24.0471  -19.9912 C   0  0  0  0  0  0  0  0  0  0  0  0
   29.6612  -23.3876  -20.8533 C   0  0  0  0  0  0  0  0  0  0  0  0
   30.2095  -22.3776  -19.8483 C   0  0  0  0  0  0  0  0  0  0  0  0
   29.8384  -22.9158  -18.4861 C   0  0  1  0  0  0  0  0  0  0  0  0
   28.9484  -21.9340  -17.7833 C   0  0  0  0  0  0  0  0  0  0  0  0
   29.5219  -20.8881  -17.3806 O   0  0  0  0  0  0  0  0  0  0  0  0
   27.5757  -22.1639  -17.5882 N   0  0  0  0  0  0  0  0  0  0  0  0
   26.5649  -21.3578  -17.0178 C   0  0  1  0  0  0  0  0  0  0  0  0
   25.2911  -21.1747  -17.8164 C   0  0  0  0  0  0  0  0  0  0  0  0
   25.3526  -19.9656  -18.6443 C   0  0  0  0  0  0  0  0  0  0  0  0
   25.8445  -18.9133  -18.2018 O   0  0  0  0  0  0  0  0  0  0  0  0
   26.3563  -21.6593  -15.5992 C   0  0  0  0  0  0  0  0  0  0  0  0
   25.9328  -22.7956  -15.2039 O   0  0  0  0  0  0  0  0  0  0  0  0
   24.8574  -20.0031  -19.9272 O   0  0  0  0  0  0  0  0  0  0  0  0
   25.6691  -20.3089   -6.8074 O   0  0  0  0  0  0  0  0  0  0  0  0
   26.0062  -20.2510   -8.1425 C   0  0  0  0  0  0  0  0  0  0  0  0
   26.6569  -21.2980   -8.7197 C   0  0  0  0  0  0  0  0  0  0  0  0
   26.9953  -21.2431  -10.0557 C   0  0  0  0  0  0  0  0  0  0  0  0
   26.7055  -20.1622  -10.8614 C   0  0  0  0  0  0  0  0  0  0  0  0
   27.0726  -20.1149  -12.2757 C   0  0  0  0  0  0  0  0  0  0  0  0
   26.2024  -20.9607  -13.1801 C   0  0  2  0  0  0  0  0  0  0  0  0
   26.6050  -20.7187  -14.5485 N   0  0  0  0  0  0  0  0  0  0  0  0
   24.7579  -20.7331  -12.9704 C   0  0  0  0  0  0  0  0  0  0  0  0
   24.2309  -19.7976  -13.6306 O   0  0  0  0  0  0  0  0  0  0  0  0
   26.0464  -19.1074  -10.2660 C   0  0  0  0  0  0  0  0  0  0  0  0
   25.6947  -19.1386   -8.9224 C   0  0  0  0  0  0  0  0  0  0  0  0
   24.0259  -21.4996  -12.1017 O   0  0  0  0  0  0  0  0  0  0  0  0
  1  5  1  0
  2  3  1  0
  2  1  1  0
  3  4  1  0
  4  5  1  0
  5  6  1  6
  6  7  2  0
  8  9  1  0
  8  6  1  0
  9 13  1  0
 10 11  1  0
  9 10  1  6
 11 12  2  0
 13 14  2  0
 15 11  1  0
 16 17  1  0
 17 27  2  0
 18 17  1  0
 18 19  2  0
 19 20  1  0
 20 26  2  0
 20 21  1  0
 22 21  1  1
 22 24  1  0
 23 22  1  0
 23 13  1  0
 24 25  2  0
 24 28  1  0
 27 26  1  0
M  END
$$$$
