PDY.pdb
     RDKit          3D

 28 29  0  0  1  0  0  0  0  0999 V2000
   26.2328  -21.4575  -16.3113 N   0  0  0  0  0  0  0  0  0  0  0  0
   26.4700  -20.1796  -16.9062 C   0  0  0  0  0  0  0  0  0  0  0  0
   28.0019  -20.1883  -17.0303 C   0  0  0  0  0  0  0  0  0  0  0  0
   28.3664  -20.8012  -15.6804 C   0  0  0  0  0  0  0  0  0  0  0  0
   27.1368  -21.5546  -15.2296 C   0  0  1  0  0  0  0  0  0  0  0  0
   26.6397  -20.9779  -13.9372 C   0  0  0  0  0  0  0  0  0  0  0  0
   27.5391  -20.6344  -13.1261 O   0  0  0  0  0  0  0  0  0  0  0  0
   25.2713  -20.8316  -13.6521 N   0  0  0  0  0  0  0  0  0  0  0  0
   24.6005  -20.4036  -12.4843 C   0  0  1  0  0  0  0  0  0  0  0  0
   23.0878  -20.3496  -12.5340 C   0  0  0  0  0  0  0  0  0  0  0  0
   22.6195  -19.7132  -13.7696 C   0  0  0  0  0  0  0  0  0  0  0  0
   23.0636  -18.6084  -14.1266 O   0  0  0  0  0  0  0  0  0  0  0  0
   25.1483  -21.0259  -11.2762 C   0  0  0  0  0  0  0  0  0  0  0  0
   24.9698  -22.2604  -11.0103 O   0  0  0  0  0  0  0  0  0  0  0  0
   21.6757  -20.3527  -14.5397 O   0  0  0  0  0  0  0  0  0  0  0  0
   29.0092  -19.2738   -3.4601 O   0  0  0  0  0  0  0  0  0  0  0  0
   28.7257  -19.5708   -4.7757 C   0  0  0  0  0  0  0  0  0  0  0  0
   28.1878  -18.6150   -5.5819 C   0  0  0  0  0  0  0  0  0  0  0  0
   27.9034  -18.9091   -6.8991 C   0  0  0  0  0  0  0  0  0  0  0  0
   28.1380  -20.1461   -7.4614 C   0  0  0  0  0  0  0  0  0  0  0  0
   27.8288  -20.4462   -8.8584 C   0  0  0  0  0  0  0  0  0  0  0  0
   26.4187  -20.9408   -9.0984 C   0  0  2  0  0  0  0  0  0  0  0  0
   25.9195  -20.3131  -10.3026 N   0  0  0  0  0  0  0  0  0  0  0  0
   25.5260  -20.7262   -7.9411 C   0  0  0  0  0  0  0  0  0  0  0  0
   24.7167  -19.7632   -8.0217 O   0  0  0  0  0  0  0  0  0  0  0  0
   28.6827  -21.1065   -6.6353 C   0  0  0  0  0  0  0  0  0  0  0  0
   28.9782  -20.8350   -5.3053 C   0  0  0  0  0  0  0  0  0  0  0  0
   25.5743  -21.5325   -6.8340 O   0  0  0  0  0  0  0  0  0  0  0  0
  1  5  1  0
  2  3  1  0
  2  1  1  0
  3  4  1  0
  4  5  1  0
  5  6  1  1
  6  7  2  0
  8  9  1  0
  8  6  1  0
  9 13  1  0
 10 11  1  0
  9 10  1  6
 11 12  2  0
 13 14  2  0
 15 11  1  0
 16 17  1  0
 17 27  2  0
 18 17  1  0
 18 19  2  0
 19 20  1  0
 20 26  2  0
 20 21  1  0
 22 21  1  1
 22 24  1  0
 23 22  1  0
 23 13  1  0
 24 25  2  0
 24 28  1  0
 27 26  1  0
M  END
$$$$
