ASH.pdb
     RDKit          3D

 22 22  0  0  1  0  0  0  0  0999 V2000
    8.3895  -12.3180   18.6692 C   0  0  0  0  0  0  0  0  0  0  0  0
    9.0261  -13.3150   17.7103 C   0  0  2  0  0  0  0  0  0  0  0  0
    8.0413  -13.8734   16.8369 N   0  0  0  0  0  0  0  0  0  0  0  0
    9.8055  -14.3422   18.4405 C   0  0  0  0  0  0  0  0  0  0  0  0
    9.1824  -15.2872   18.9867 O   0  0  0  0  0  0  0  0  0  0  0  0
   13.8405  -14.0457   18.9243 O   0  0  0  0  0  0  0  0  0  0  0  0
   13.3929  -15.3410   18.6831 C   0  0  0  0  0  0  0  0  0  0  0  0
   11.9430  -15.4629   19.1710 C   0  0  2  0  0  0  0  0  0  0  0  0
   11.2206  -14.3330   18.5671 N   0  0  0  0  0  0  0  0  0  0  0  0
   11.9771  -15.3345   20.6432 C   0  0  0  0  0  0  0  0  0  0  0  0
   12.3617  -14.2325   21.1292 O   0  0  0  0  0  0  0  0  0  0  0  0
   11.6156  -16.3408   21.5410 N   0  0  0  0  0  0  0  0  0  0  0  0
   11.6110  -16.1626   23.0186 C   0  0  1  0  0  0  0  0  0  0  0  0
   10.3349  -16.6882   23.5829 C   0  0  0  0  0  0  0  0  0  0  0  0
    9.1808  -15.8439   23.1957 C   0  0  0  0  0  0  0  0  0  0  0  0
    9.1446  -14.6264   22.5640 C   0  0  0  0  0  0  0  0  0  0  0  0
    7.8515  -14.2969   22.3669 N   0  0  0  0  0  0  0  0  0  0  0  0
    7.0903  -15.2762   22.8570 C   0  0  0  0  0  0  0  0  0  0  0  0
    7.8707  -16.2336   23.3686 N   0  0  0  0  0  0  0  0  0  0  0  0
   12.7218  -17.0836   23.4348 C   0  0  0  0  0  0  0  0  0  0  0  0
   13.2375  -17.8459   22.6001 O   0  0  0  0  0  0  0  0  0  0  0  0
   13.1759  -17.1035   24.7137 O   0  0  0  0  0  0  0  0  0  0  0  0
  2  1  1  1
  2  4  1  0
  2  3  1  0
  4  9  1  0
  5  4  2  0
  7  6  1  0
  8  7  1  6
  8 10  1  0
  9  8  1  0
 10 12  1  0
 10 11  2  0
 12 13  1  0
 13 20  1  0
 13 14  1  1
 14 15  1  0
 15 16  2  0
 15 19  1  0
 16 17  1  0
 17 18  1  0
 19 18  2  0
 20 22  1  0
 21 20  2  0
M  END
$$$$
