ASH.pdb
     RDKit          3D

 22 22  0  0  1  0  0  0  0  0999 V2000
    8.4285  -12.3809   18.6385 C   0  0  0  0  0  0  0  0  0  0  0  0
    8.6308  -13.7957   18.1129 C   0  0  2  0  0  0  0  0  0  0  0  0
    7.8372  -14.0174   16.9444 N   0  0  0  0  0  0  0  0  0  0  0  0
    8.3973  -14.8030   19.1744 C   0  0  0  0  0  0  0  0  0  0  0  0
    7.2242  -15.2154   19.3578 O   0  0  0  0  0  0  0  0  0  0  0  0
   11.3623  -17.1275   20.5590 O   0  0  0  0  0  0  0  0  0  0  0  0
   10.0464  -17.5787   20.5884 C   0  0  0  0  0  0  0  0  0  0  0  0
    9.1303  -16.4095   20.9745 C   0  0  2  0  0  0  0  0  0  0  0  0
    9.4162  -15.3397   20.0065 N   0  0  0  0  0  0  0  0  0  0  0  0
    9.5195  -15.9968   22.3396 C   0  0  0  0  0  0  0  0  0  0  0  0
   10.4173  -15.1141   22.4542 O   0  0  0  0  0  0  0  0  0  0  0  0
    8.9691  -16.5091   23.5160 N   0  0  0  0  0  0  0  0  0  0  0  0
    9.4126  -16.1025   24.8772 C   0  0  1  0  0  0  0  0  0  0  0  0
    8.2328  -16.0211   25.7853 C   0  0  0  0  0  0  0  0  0  0  0  0
    7.5377  -14.7190   25.6581 C   0  0  0  0  0  0  0  0  0  0  0  0
    7.8872  -13.5914   24.9587 C   0  0  0  0  0  0  0  0  0  0  0  0
    6.8926  -12.6905   25.0956 N   0  0  0  0  0  0  0  0  0  0  0  0
    5.9402  -13.2305   25.8573 C   0  0  0  0  0  0  0  0  0  0  0  0
    6.3035  -14.4663   26.2157 N   0  0  0  0  0  0  0  0  0  0  0  0
   10.2399  -17.2863   25.2889 C   0  0  0  0  0  0  0  0  0  0  0  0
   10.2605  -18.3035   24.5755 O   0  0  0  0  0  0  0  0  0  0  0  0
   10.9687  -17.2701   26.4337 O   0  0  0  0  0  0  0  0  0  0  0  0
  2  1  1  1
  2  4  1  0
  2  3  1  0
  4  9  1  0
  5  4  2  0
  7  6  1  0
  8  7  1  6
  8 10  1  0
  9  8  1  0
 10 12  1  0
 10 11  2  0
 12 13  1  0
 13 20  1  0
 13 14  1  1
 14 15  1  0
 15 16  2  0
 15 19  1  0
 16 17  1  0
 17 18  1  0
 19 18  2  0
 20 22  1  0
 21 20  2  0
M  END
$$$$
