ASH.pdb
     RDKit          3D

 22 22  0  0  1  0  0  0  0  0999 V2000
    4.5458  -17.8686   22.0443 C   0  0  0  0  0  0  0  0  0  0  0  0
    5.6257  -16.8983   21.5847 C   0  0  2  0  0  0  0  0  0  0  0  0
    6.2257  -17.3514   20.3686 N   0  0  0  0  0  0  0  0  0  0  0  0
    6.6125  -16.6420   22.6600 C   0  0  0  0  0  0  0  0  0  0  0  0
    7.5640  -17.4509   22.8016 O   0  0  0  0  0  0  0  0  0  0  0  0
    5.8621  -14.0828   25.7530 O   0  0  0  0  0  0  0  0  0  0  0  0
    7.1861  -14.0530   25.3260 C   0  0  0  0  0  0  0  0  0  0  0  0
    7.5196  -15.3912   24.6528 C   0  0  2  0  0  0  0  0  0  0  0  0
    6.5573  -15.5359   23.5499 N   0  0  0  0  0  0  0  0  0  0  0  0
    7.3106  -16.4431   25.6701 C   0  0  0  0  0  0  0  0  0  0  0  0
    6.1580  -16.9548   25.7596 O   0  0  0  0  0  0  0  0  0  0  0  0
    8.2925  -16.9164   26.5426 N   0  0  0  0  0  0  0  0  0  0  0  0
    8.1447  -18.1554   27.3537 C   0  0  1  0  0  0  0  0  0  0  0  0
    8.0073  -19.3330   26.4496 C   0  0  0  0  0  0  0  0  0  0  0  0
    7.9763  -20.6029   27.2120 C   0  0  0  0  0  0  0  0  0  0  0  0
    7.9815  -20.8252   28.5660 C   0  0  0  0  0  0  0  0  0  0  0  0
    7.8695  -22.1537   28.7712 N   0  0  0  0  0  0  0  0  0  0  0  0
    7.7938  -22.7560   27.5837 C   0  0  0  0  0  0  0  0  0  0  0  0
    7.8558  -21.8380   26.6136 N   0  0  0  0  0  0  0  0  0  0  0  0
    9.4851  -18.2349   28.0262 C   0  0  0  0  0  0  0  0  0  0  0  0
   10.4917  -17.7865   27.4521 O   0  0  0  0  0  0  0  0  0  0  0  0
    9.6222  -18.7928   29.2558 O   0  0  0  0  0  0  0  0  0  0  0  0
  2  1  1  1
  2  4  1  0
  2  3  1  0
  4  9  1  0
  5  4  2  0
  7  6  1  0
  8  7  1  1
  8 10  1  0
  9  8  1  0
 10 12  1  0
 10 11  2  0
 12 13  1  0
 13 20  1  0
 13 14  1  6
 14 15  1  0
 15 16  2  0
 15 19  1  0
 16 17  1  0
 17 18  1  0
 19 18  2  0
 20 22  1  0
 21 20  2  0
M  END
$$$$
