ASH.pdb
     RDKit          3D

 22 22  0  0  1  0  0  0  0  0999 V2000
    7.4723  -21.9027   21.4494 C   0  0  0  0  0  0  0  0  0  0  0  0
    7.4518  -20.3841   21.3401 C   0  0  2  0  0  0  0  0  0  0  0  0
    8.0752  -19.9578   20.1260 N   0  0  0  0  0  0  0  0  0  0  0  0
    8.0330  -19.7494   22.5465 C   0  0  0  0  0  0  0  0  0  0  0  0
    9.2792  -19.7957   22.7032 O   0  0  0  0  0  0  0  0  0  0  0  0
    7.4434  -16.8081   26.3624 O   0  0  0  0  0  0  0  0  0  0  0  0
    6.8729  -17.4951   25.2953 C   0  0  0  0  0  0  0  0  0  0  0  0
    7.9197  -18.4488   24.7038 C   0  0  2  0  0  0  0  0  0  0  0  0
    7.2728  -19.0863   23.5469 N   0  0  0  0  0  0  0  0  0  0  0  0
    8.2234  -19.4486   25.7493 C   0  0  0  0  0  0  0  0  0  0  0  0
    7.3102  -20.2624   26.0687 O   0  0  0  0  0  0  0  0  0  0  0  0
    9.4464  -19.5632   26.4132 N   0  0  0  0  0  0  0  0  0  0  0  0
    9.7211  -20.5830   27.4618 C   0  0  1  0  0  0  0  0  0  0  0  0
   11.0921  -21.1383   27.2741 C   0  0  0  0  0  0  0  0  0  0  0  0
   11.1570  -22.0415   26.1017 C   0  0  0  0  0  0  0  0  0  0  0  0
   10.1508  -22.6415   25.3872 C   0  0  0  0  0  0  0  0  0  0  0  0
   10.7114  -23.3138   24.3610 N   0  0  0  0  0  0  0  0  0  0  0  0
   12.0330  -23.1444   24.4213 C   0  0  0  0  0  0  0  0  0  0  0  0
   12.3359  -22.3734   25.4708 N   0  0  0  0  0  0  0  0  0  0  0  0
    9.7228  -19.7410   28.7054 C   0  0  0  0  0  0  0  0  0  0  0  0
    9.6325  -18.5051   28.6145 O   0  0  0  0  0  0  0  0  0  0  0  0
    9.8246  -20.3051   29.9356 O   0  0  0  0  0  0  0  0  0  0  0  0
  2  1  1  1
  2  4  1  0
  2  3  1  0
  4  9  1  0
  5  4  2  0
  7  6  1  0
  8  7  1  1
  8 10  1  0
  9  8  1  0
 10 12  1  0
 10 11  2  0
 12 13  1  0
 13 20  1  0
 13 14  1  6
 14 15  1  0
 15 16  2  0
 15 19  1  0
 16 17  1  0
 17 18  1  0
 19 18  2  0
 20 22  1  0
 21 20  2  0
M  END
$$$$
