ASH.pdb
     RDKit          3D

 22 22  0  0  1  0  0  0  0  0999 V2000
    4.2205  -22.2863   22.7449 C   0  0  0  0  0  0  0  0  0  0  0  0
    4.5996  -20.8212   22.9136 C   0  0  2  0  0  0  0  0  0  0  0  0
    4.0219  -20.0282   21.8735 N   0  0  0  0  0  0  0  0  0  0  0  0
    6.0678  -20.6542   23.0251 C   0  0  0  0  0  0  0  0  0  0  0  0
    6.7674  -21.6707   23.2637 O   0  0  0  0  0  0  0  0  0  0  0  0
    7.6841  -17.0814   22.3808 O   0  0  0  0  0  0  0  0  0  0  0  0
    8.6120  -18.0939   22.1570 C   0  0  0  0  0  0  0  0  0  0  0  0
    8.2101  -19.3250   22.9806 C   0  0  2  0  0  0  0  0  0  0  0  0
    6.7455  -19.4140   22.8797 N   0  0  0  0  0  0  0  0  0  0  0  0
    8.6227  -19.0575   24.3747 C   0  0  0  0  0  0  0  0  0  0  0  0
    7.8921  -18.2939   25.0686 O   0  0  0  0  0  0  0  0  0  0  0  0
    9.7615  -19.5860   24.9857 N   0  0  0  0  0  0  0  0  0  0  0  0
   10.1488  -19.2978   26.3934 C   0  0  1  0  0  0  0  0  0  0  0  0
    9.8056  -20.4640   27.2566 C   0  0  0  0  0  0  0  0  0  0  0  0
    8.3834  -20.4340   27.6706 C   0  0  0  0  0  0  0  0  0  0  0  0
    7.4242  -19.4716   27.4803 C   0  0  0  0  0  0  0  0  0  0  0  0
    6.2604  -19.9383   27.9776 N   0  0  0  0  0  0  0  0  0  0  0  0
    6.4742  -21.1604   28.4671 C   0  0  0  0  0  0  0  0  0  0  0  0
    7.7581  -21.4911   28.2947 N   0  0  0  0  0  0  0  0  0  0  0  0
   11.6446  -19.2210   26.2828 C   0  0  0  0  0  0  0  0  0  0  0  0
   12.1929  -19.4059   25.1832 O   0  0  0  0  0  0  0  0  0  0  0  0
   12.4164  -18.9547   27.3669 O   0  0  0  0  0  0  0  0  0  0  0  0
  2  1  1  6
  2  4  1  0
  2  3  1  0
  4  9  1  0
  5  4  2  0
  7  6  1  0
  8  7  1  6
  8 10  1  0
  9  8  1  0
 10 12  1  0
 10 11  2  0
 12 13  1  0
 13 20  1  0
 13 14  1  1
 14 15  1  0
 15 16  2  0
 15 19  1  0
 16 17  1  0
 17 18  1  0
 19 18  2  0
 20 22  1  0
 21 20  2  0
M  END
$$$$
