ASH.pdb
     RDKit          3D

 22 22  0  0  1  0  0  0  0  0999 V2000
    1.4822  -26.1687   21.5670 C   0  0  0  0  0  0  0  0  0  0  0  0
    1.2434  -24.6679   21.6641 C   0  0  2  0  0  0  0  0  0  0  0  0
    0.4672  -24.2084   20.5546 N   0  0  0  0  0  0  0  0  0  0  0  0
    2.5176  -23.9294   21.8282 C   0  0  0  0  0  0  0  0  0  0  0  0
    3.5906  -24.5218   21.5500 O   0  0  0  0  0  0  0  0  0  0  0  0
    2.2523  -20.1791   22.5212 O   0  0  0  0  0  0  0  0  0  0  0  0
    3.5787  -20.3959   22.1609 C   0  0  0  0  0  0  0  0  0  0  0  0
    3.9031  -21.8853   22.3386 C   0  0  2  0  0  0  0  0  0  0  0  0
    2.6114  -22.5864   22.2822 N   0  0  0  0  0  0  0  0  0  0  0  0
    4.5186  -22.0303   23.6748 C   0  0  0  0  0  0  0  0  0  0  0  0
    3.7467  -22.1127   24.6726 O   0  0  0  0  0  0  0  0  0  0  0  0
    5.8921  -22.0836   23.9196 N   0  0  0  0  0  0  0  0  0  0  0  0
    6.4798  -22.2778   25.2730 C   0  0  1  0  0  0  0  0  0  0  0  0
    7.2093  -23.5773   25.3211 C   0  0  0  0  0  0  0  0  0  0  0  0
    6.2758  -24.7202   25.4523 C   0  0  0  0  0  0  0  0  0  0  0  0
    5.2476  -24.9289   26.3365 C   0  0  0  0  0  0  0  0  0  0  0  0
    4.6433  -26.0891   26.0075 N   0  0  0  0  0  0  0  0  0  0  0  0
    5.2680  -26.6004   24.9458 C   0  0  0  0  0  0  0  0  0  0  0  0
    6.2671  -25.7893   24.5833 N   0  0  0  0  0  0  0  0  0  0  0  0
    7.4926  -21.1700   25.3216 C   0  0  0  0  0  0  0  0  0  0  0  0
    7.6263  -20.4122   24.3461 O   0  0  0  0  0  0  0  0  0  0  0  0
    8.2730  -20.9790   26.4155 O   0  0  0  0  0  0  0  0  0  0  0  0
  2  1  1  6
  2  4  1  0
  2  3  1  0
  4  9  1  0
  5  4  2  0
  7  6  1  0
  8  7  1  1
  8 10  1  0
  9  8  1  0
 10 12  1  0
 10 11  2  0
 12 13  1  0
 13 20  1  0
 13 14  1  6
 14 15  1  0
 15 16  2  0
 15 19  1  0
 16 17  1  0
 17 18  1  0
 19 18  2  0
 20 22  1  0
 21 20  2  0
M  END
$$$$
