ASH.pdb
     RDKit          3D

 22 22  0  0  1  0  0  0  0  0999 V2000
   12.1584  -18.0221   15.1691 C   0  0  0  0  0  0  0  0  0  0  0  0
   11.7845  -16.6032   14.7620 C   0  0  2  0  0  0  0  0  0  0  0  0
   12.3531  -16.2772   13.4912 N   0  0  0  0  0  0  0  0  0  0  0  0
   12.1337  -15.6290   15.8226 C   0  0  0  0  0  0  0  0  0  0  0  0
   13.2591  -15.0716   15.7736 O   0  0  0  0  0  0  0  0  0  0  0  0
    9.8331  -15.1954   19.1424 O   0  0  0  0  0  0  0  0  0  0  0  0
   10.4494  -14.0085   18.7584 C   0  0  0  0  0  0  0  0  0  0  0  0
   11.7105  -14.3440   17.9506 C   0  0  2  0  0  0  0  0  0  0  0  0
   11.2771  -15.2783   16.9006 N   0  0  0  0  0  0  0  0  0  0  0  0
   12.6495  -15.0039   18.8822 C   0  0  0  0  0  0  0  0  0  0  0  0
   12.6044  -16.2643   18.9690 O   0  0  0  0  0  0  0  0  0  0  0  0
   13.5860  -14.3389   19.6761 N   0  0  0  0  0  0  0  0  0  0  0  0
   14.5987  -15.0373   20.5136 C   0  0  1  0  0  0  0  0  0  0  0  0
   15.6062  -14.0545   21.0058 C   0  0  0  0  0  0  0  0  0  0  0  0
   16.6341  -14.7064   21.8503 C   0  0  0  0  0  0  0  0  0  0  0  0
   16.8864  -16.0367   22.0726 C   0  0  0  0  0  0  0  0  0  0  0  0
   17.9753  -16.1284   22.8635 N   0  0  0  0  0  0  0  0  0  0  0  0
   18.4020  -14.8939   23.1335 C   0  0  0  0  0  0  0  0  0  0  0  0
   17.6058  -14.0053   22.5303 N   0  0  0  0  0  0  0  0  0  0  0  0
   13.7666  -15.4804   21.6826 C   0  0  0  0  0  0  0  0  0  0  0  0
   14.2588  -16.2309   22.5420 O   0  0  0  0  0  0  0  0  0  0  0  0
   12.4776  -15.0781   21.8201 O   0  0  0  0  0  0  0  0  0  0  0  0
  2  1  1  1
  2  4  1  0
  2  3  1  0
  4  9  1  0
  5  4  2  0
  7  6  1  0
  8  7  1  1
  8 10  1  0
  9  8  1  0
 10 12  1  0
 10 11  2  0
 12 13  1  0
 13 20  1  0
 13 14  1  1
 14 15  1  0
 15 16  2  0
 15 19  1  0
 16 17  1  0
 17 18  1  0
 19 18  2  0
 20 22  1  0
 21 20  2  0
M  END
$$$$
