ASH.pdb
     RDKit          3D

 22 22  0  0  1  0  0  0  0  0999 V2000
    8.5330  -12.2159   19.1361 C   0  0  0  0  0  0  0  0  0  0  0  0
    8.5363  -13.6063   18.5151 C   0  0  2  0  0  0  0  0  0  0  0  0
    7.4576  -13.7463   17.5871 N   0  0  0  0  0  0  0  0  0  0  0  0
    8.5488  -14.6610   19.5559 C   0  0  0  0  0  0  0  0  0  0  0  0
    7.4628  -14.9638   20.1114 O   0  0  0  0  0  0  0  0  0  0  0  0
   10.2764  -18.2612   19.4178 O   0  0  0  0  0  0  0  0  0  0  0  0
   10.7461  -17.4681   20.4602 C   0  0  0  0  0  0  0  0  0  0  0  0
    9.6312  -16.5058   20.8916 C   0  0  2  0  0  0  0  0  0  0  0  0
    9.7133  -15.3598   19.9733 N   0  0  0  0  0  0  0  0  0  0  0  0
    9.9405  -16.0894   22.2758 C   0  0  0  0  0  0  0  0  0  0  0  0
   10.7945  -15.1713   22.4375 O   0  0  0  0  0  0  0  0  0  0  0  0
    9.3591  -16.6344   23.4223 N   0  0  0  0  0  0  0  0  0  0  0  0
    9.6408  -16.1460   24.7995 C   0  0  1  0  0  0  0  0  0  0  0  0
    8.3631  -16.0191   25.5576 C   0  0  0  0  0  0  0  0  0  0  0  0
    7.7026  -14.7191   25.2959 C   0  0  0  0  0  0  0  0  0  0  0  0
    8.1041  -13.6600   24.5213 C   0  0  0  0  0  0  0  0  0  0  0  0
    7.1252  -12.7322   24.5433 N   0  0  0  0  0  0  0  0  0  0  0  0
    6.1320  -13.1893   25.3072 C   0  0  0  0  0  0  0  0  0  0  0  0
    6.4534  -14.3978   25.7801 N   0  0  0  0  0  0  0  0  0  0  0  0
   10.4138  -17.2984   25.3738 C   0  0  0  0  0  0  0  0  0  0  0  0
   10.4532  -18.3805   24.7644 O   0  0  0  0  0  0  0  0  0  0  0  0
   11.0728  -17.1834   26.5547 O   0  0  0  0  0  0  0  0  0  0  0  0
  2  1  1  1
  2  4  1  0
  2  3  1  0
  4  9  1  0
  5  4  2  0
  7  6  1  0
  8  7  1  6
  8 10  1  0
  9  8  1  0
 10 12  1  0
 10 11  2  0
 12 13  1  0
 13 20  1  0
 13 14  1  1
 14 15  1  0
 15 16  2  0
 15 19  1  0
 16 17  1  0
 17 18  1  0
 19 18  2  0
 20 22  1  0
 21 20  2  0
M  END
$$$$
