ASH.pdb
     RDKit          3D

 22 22  0  0  1  0  0  0  0  0999 V2000
    7.9855  -12.4436   18.6004 C   0  0  0  0  0  0  0  0  0  0  0  0
    8.2028  -13.9090   18.9531 C   0  0  2  0  0  0  0  0  0  0  0  0
    7.0042  -14.6604   18.7453 N   0  0  0  0  0  0  0  0  0  0  0  0
    8.7529  -14.0578   20.3210 C   0  0  0  0  0  0  0  0  0  0  0  0
    9.9397  -13.7000   20.5288 O   0  0  0  0  0  0  0  0  0  0  0  0
    6.5859  -15.7695   23.3545 O   0  0  0  0  0  0  0  0  0  0  0  0
    7.5105  -14.8094   23.7540 C   0  0  0  0  0  0  0  0  0  0  0  0
    8.6591  -14.7744   22.7368 C   0  0  2  0  0  0  0  0  0  0  0  0
    8.0257  -14.5814   21.4235 N   0  0  0  0  0  0  0  0  0  0  0  0
    9.3287  -16.0905   22.8056 C   0  0  0  0  0  0  0  0  0  0  0  0
    9.3421  -16.7997   21.7591 O   0  0  0  0  0  0  0  0  0  0  0  0
    9.9500  -16.6116   23.9422 N   0  0  0  0  0  0  0  0  0  0  0  0
   11.2751  -17.2887   23.9183 C   0  0  1  0  0  0  0  0  0  0  0  0
   12.3131  -16.3417   23.4194 C   0  0  0  0  0  0  0  0  0  0  0  0
   12.6032  -16.5605   21.9832 C   0  0  0  0  0  0  0  0  0  0  0  0
   11.7537  -16.6398   20.9085 C   0  0  0  0  0  0  0  0  0  0  0  0
   12.5019  -16.7755   19.7944 N   0  0  0  0  0  0  0  0  0  0  0  0
   13.7871  -16.7805   20.1509 C   0  0  0  0  0  0  0  0  0  0  0  0
   13.8818  -16.6508   21.4782 N   0  0  0  0  0  0  0  0  0  0  0  0
   11.5187  -17.5222   25.3818 C   0  0  0  0  0  0  0  0  0  0  0  0
   11.9747  -18.6123   25.7657 O   0  0  0  0  0  0  0  0  0  0  0  0
   11.2465  -16.5617   26.3012 O   0  0  0  0  0  0  0  0  0  0  0  0
  2  1  1  1
  2  4  1  0
  2  3  1  0
  4  9  1  0
  5  4  2  0
  7  6  1  0
  8  7  1  1
  8 10  1  0
  9  8  1  0
 10 12  1  0
 10 11  2  0
 12 13  1  0
 13 20  1  0
 13 14  1  1
 14 15  1  0
 15 16  2  0
 15 19  1  0
 16 17  1  0
 17 18  1  0
 19 18  2  0
 20 22  1  0
 21 20  2  0
M  END
$$$$
