ASH.pdb
     RDKit          3D

 22 22  0  0  1  0  0  0  0  0999 V2000
    8.3837  -12.0942   19.7600 C   0  0  0  0  0  0  0  0  0  0  0  0
    8.4832  -13.4921   19.1643 C   0  0  2  0  0  0  0  0  0  0  0  0
    7.5459  -13.6526   18.0966 N   0  0  0  0  0  0  0  0  0  0  0  0
    8.3568  -14.5336   20.2108 C   0  0  0  0  0  0  0  0  0  0  0  0
    7.2079  -14.9547   20.4978 O   0  0  0  0  0  0  0  0  0  0  0  0
   10.0970  -18.4414   22.1524 O   0  0  0  0  0  0  0  0  0  0  0  0
   10.2842  -17.2941   21.3876 C   0  0  0  0  0  0  0  0  0  0  0  0
    9.2738  -16.2296   21.8360 C   0  0  2  0  0  0  0  0  0  0  0  0
    9.4539  -15.0943   20.9184 N   0  0  0  0  0  0  0  0  0  0  0  0
    9.6410  -15.8490   23.2164 C   0  0  0  0  0  0  0  0  0  0  0  0
   10.6278  -15.0739   23.3707 O   0  0  0  0  0  0  0  0  0  0  0  0
    8.9786  -16.2817   24.3669 N   0  0  0  0  0  0  0  0  0  0  0  0
    9.3598  -15.8620   25.7429 C   0  0  1  0  0  0  0  0  0  0  0  0
    8.1324  -15.6799   26.5696 C   0  0  0  0  0  0  0  0  0  0  0  0
    7.4464  -14.4061   26.2510 C   0  0  0  0  0  0  0  0  0  0  0  0
    7.9622  -13.1868   25.8903 C   0  0  0  0  0  0  0  0  0  0  0  0
    6.9304  -12.3568   25.6332 N   0  0  0  0  0  0  0  0  0  0  0  0
    5.7945  -13.0294   25.8234 C   0  0  0  0  0  0  0  0  0  0  0  0
    6.0754  -14.2811   26.2000 N   0  0  0  0  0  0  0  0  0  0  0  0
   10.0820  -17.0818   26.2389 C   0  0  0  0  0  0  0  0  0  0  0  0
   10.1159  -18.1071   25.5379 O   0  0  0  0  0  0  0  0  0  0  0  0
   10.7007  -17.0893   27.4469 O   0  0  0  0  0  0  0  0  0  0  0  0
  2  1  1  1
  2  4  1  0
  2  3  1  0
  4  9  1  0
  5  4  2  0
  7  6  1  0
  8  7  1  6
  8 10  1  0
  9  8  1  0
 10 12  1  0
 10 11  2  0
 12 13  1  0
 13 20  1  0
 13 14  1  1
 14 15  1  0
 15 16  2  0
 15 19  1  0
 16 17  1  0
 17 18  1  0
 19 18  2  0
 20 22  1  0
 21 20  2  0
M  END
$$$$
