ASH.pdb
     RDKit          3D

 22 22  0  0  1  0  0  0  0  0999 V2000
    4.9991  -19.2497   16.2644 C   0  0  0  0  0  0  0  0  0  0  0  0
    5.9133  -19.3763   17.4756 C   0  0  2  0  0  0  0  0  0  0  0  0
    6.1943  -20.7505   17.7533 N   0  0  0  0  0  0  0  0  0  0  0  0
    5.3646  -18.6473   18.6432 C   0  0  0  0  0  0  0  0  0  0  0  0
    5.1322  -17.4179   18.5234 O   0  0  0  0  0  0  0  0  0  0  0  0
    3.4244  -18.7080   23.0775 O   0  0  0  0  0  0  0  0  0  0  0  0
    3.7639  -19.3668   21.8999 C   0  0  0  0  0  0  0  0  0  0  0  0
    4.6472  -18.4417   21.0518 C   0  0  2  0  0  0  0  0  0  0  0  0
    5.0803  -19.2467   19.8995 N   0  0  0  0  0  0  0  0  0  0  0  0
    5.8040  -18.0689   21.8932 C   0  0  0  0  0  0  0  0  0  0  0  0
    6.7559  -18.8958   21.9852 O   0  0  0  0  0  0  0  0  0  0  0  0
    5.9260  -16.8688   22.5964 N   0  0  0  0  0  0  0  0  0  0  0  0
    7.1336  -16.4941   23.3814 C   0  0  1  0  0  0  0  0  0  0  0  0
    7.4012  -15.0358   23.2240 C   0  0  0  0  0  0  0  0  0  0  0  0
    7.8770  -14.7146   21.8584 C   0  0  0  0  0  0  0  0  0  0  0  0
    8.7103  -15.4138   21.0219 C   0  0  0  0  0  0  0  0  0  0  0  0
    8.7850  -14.7450   19.8528 N   0  0  0  0  0  0  0  0  0  0  0  0
    8.0212  -13.6555   19.9440 C   0  0  0  0  0  0  0  0  0  0  0  0
    7.4541  -13.6088   21.1539 N   0  0  0  0  0  0  0  0  0  0  0  0
    6.6638  -16.7353   24.7872 C   0  0  0  0  0  0  0  0  0  0  0  0
    7.4719  -16.6678   25.7286 O   0  0  0  0  0  0  0  0  0  0  0  0
    5.3660  -17.0305   25.0534 O   0  0  0  0  0  0  0  0  0  0  0  0
  2  1  1  6
  2  4  1  0
  2  3  1  0
  4  9  1  0
  5  4  2  0
  7  6  1  0
  8  7  1  1
  8 10  1  0
  9  8  1  0
 10 12  1  0
 10 11  2  0
 12 13  1  0
 13 20  1  0
 13 14  1  1
 14 15  1  0
 15 16  2  0
 15 19  1  0
 16 17  1  0
 17 18  1  0
 19 18  2  0
 20 22  1  0
 21 20  2  0
M  END
$$$$
