ASH.pdb
     RDKit          3D

 22 22  0  0  1  0  0  0  0  0999 V2000
    7.8452  -13.0506   18.8657 C   0  0  0  0  0  0  0  0  0  0  0  0
    8.2086  -14.4172   19.4307 C   0  0  2  0  0  0  0  0  0  0  0  0
    7.0932  -15.3082   19.3508 N   0  0  0  0  0  0  0  0  0  0  0  0
    8.7653  -14.3034   20.7993 C   0  0  0  0  0  0  0  0  0  0  0  0
    9.8944  -13.7700   20.9415 O   0  0  0  0  0  0  0  0  0  0  0  0
    6.6100  -15.2623   24.1515 O   0  0  0  0  0  0  0  0  0  0  0  0
    7.6490  -14.3471   24.2895 C   0  0  0  0  0  0  0  0  0  0  0  0
    8.7576  -14.7018   23.2892 C   0  0  2  0  0  0  0  0  0  0  0  0
    8.1056  -14.7594   21.9721 N   0  0  0  0  0  0  0  0  0  0  0  0
    9.2708  -16.0327   23.6770 C   0  0  0  0  0  0  0  0  0  0  0  0
    8.6252  -17.0483   23.2896 O   0  0  0  0  0  0  0  0  0  0  0  0
   10.4182  -16.2544   24.4410 N   0  0  0  0  0  0  0  0  0  0  0  0
   10.9129  -17.6090   24.8087 C   0  0  1  0  0  0  0  0  0  0  0  0
   12.4000  -17.6444   24.7066 C   0  0  0  0  0  0  0  0  0  0  0  0
   12.8468  -17.7021   23.2953 C   0  0  0  0  0  0  0  0  0  0  0  0
   12.1167  -17.7225   22.1338 C   0  0  0  0  0  0  0  0  0  0  0  0
   12.9803  -17.7035   21.0977 N   0  0  0  0  0  0  0  0  0  0  0  0
   14.2206  -17.6706   21.5869 C   0  0  0  0  0  0  0  0  0  0  0  0
   14.1728  -17.6684   22.9230 N   0  0  0  0  0  0  0  0  0  0  0  0
   10.5413  -17.6793   26.2621 C   0  0  0  0  0  0  0  0  0  0  0  0
   10.7156  -18.7349   26.8938 O   0  0  0  0  0  0  0  0  0  0  0  0
   10.0124  -16.6071   26.9046 O   0  0  0  0  0  0  0  0  0  0  0  0
  2  1  1  1
  2  4  1  0
  2  3  1  0
  4  9  1  0
  5  4  2  0
  7  6  1  0
  8  7  1  1
  8 10  1  0
  9  8  1  0
 10 12  1  0
 10 11  2  0
 12 13  1  0
 13 20  1  0
 13 14  1  1
 14 15  1  0
 15 16  2  0
 15 19  1  0
 16 17  1  0
 17 18  1  0
 19 18  2  0
 20 22  1  0
 21 20  2  0
M  END
$$$$
