ASH.pdb
     RDKit          3D

 22 22  0  0  1  0  0  0  0  0999 V2000
   13.1537  -16.4489   15.9880 C   0  0  0  0  0  0  0  0  0  0  0  0
   12.4324  -17.7895   16.0243 C   0  0  2  0  0  0  0  0  0  0  0  0
   11.6749  -17.9866   14.8277 N   0  0  0  0  0  0  0  0  0  0  0  0
   11.6213  -17.9314   17.2563 C   0  0  0  0  0  0  0  0  0  0  0  0
   10.3753  -17.7909   17.1697 O   0  0  0  0  0  0  0  0  0  0  0  0
   11.0377  -20.3809   20.9679 O   0  0  0  0  0  0  0  0  0  0  0  0
   11.9743  -19.4168   20.6080 C   0  0  0  0  0  0  0  0  0  0  0  0
   11.2908  -18.3705   19.7173 C   0  0  2  0  0  0  0  0  0  0  0  0
   12.1589  -18.2179   18.5398 N   0  0  0  0  0  0  0  0  0  0  0  0
   11.2415  -17.1153   20.4964 C   0  0  0  0  0  0  0  0  0  0  0  0
   12.2606  -16.3675   20.4730 O   0  0  0  0  0  0  0  0  0  0  0  0
   10.1514  -16.6909   21.2586 N   0  0  0  0  0  0  0  0  0  0  0  0
   10.1364  -15.4241   22.0394 C   0  0  1  0  0  0  0  0  0  0  0  0
    8.8027  -14.7705   21.9089 C   0  0  0  0  0  0  0  0  0  0  0  0
    8.6729  -14.0525   20.6196 C   0  0  0  0  0  0  0  0  0  0  0  0
    9.6308  -13.6851   19.7084 C   0  0  0  0  0  0  0  0  0  0  0  0
    9.0087  -13.1154   18.6558 N   0  0  0  0  0  0  0  0  0  0  0  0
    7.6959  -13.1226   18.8910 C   0  0  0  0  0  0  0  0  0  0  0  0
    7.4592  -13.6873   20.0795 N   0  0  0  0  0  0  0  0  0  0  0  0
   10.2716  -15.9365   23.4446 C   0  0  0  0  0  0  0  0  0  0  0  0
   10.4153  -15.1351   24.3831 O   0  0  0  0  0  0  0  0  0  0  0  0
   10.2428  -17.2666   23.7130 O   0  0  0  0  0  0  0  0  0  0  0  0
  2  1  1  6
  2  4  1  0
  2  3  1  0
  4  9  1  0
  5  4  2  0
  7  6  1  0
  8  7  1  1
  8 10  1  0
  9  8  1  0
 10 12  1  0
 10 11  2  0
 12 13  1  0
 13 20  1  0
 13 14  1  1
 14 15  1  0
 15 16  2  0
 15 19  1  0
 16 17  1  0
 17 18  1  0
 19 18  2  0
 20 22  1  0
 21 20  2  0
M  END
$$$$
