AKC.pdb
     RDKit          3D

 21 20  0  0  1  0  0  0  0  0999 V2000
   12.4565  -23.0846   19.9772 C   0  0  0  0  0  0  0  0  0  0  0  0
   13.1154  -22.1570   21.0004 C   0  0  2  0  0  0  0  0  0  0  0  0
   12.3223  -22.2566   22.2063 N   0  0  0  0  0  0  0  0  0  0  0  0
   13.0633  -20.7799   20.5017 C   0  0  0  0  0  0  0  0  0  0  0  0
   14.0720  -20.3239   19.8769 O   0  0  0  0  0  0  0  0  0  0  0  0
   11.9307  -19.9245   20.6847 N   0  0  0  0  0  0  0  0  0  0  0  0
   11.9496  -18.6186   20.1203 C   0  0  1  0  0  0  0  0  0  0  0  0
   10.7478  -18.3255   19.2486 C   0  0  0  0  0  0  0  0  0  0  0  0
   10.8314  -19.0398   17.9181 C   0  0  0  0  0  0  0  0  0  0  0  0
    9.5818  -18.6947   17.1431 C   0  0  0  0  0  0  0  0  0  0  0  0
    9.6349  -19.2215   15.7192 C   0  0  0  0  0  0  0  0  0  0  0  0
    8.4699  -18.8312   14.9639 N   0  0  0  0  0  0  0  0  0  0  0  0
   12.0220  -17.5383   21.1298 C   0  0  0  0  0  0  0  0  0  0  0  0
   10.9627  -16.9471   21.4354 O   0  0  0  0  0  0  0  0  0  0  0  0
   13.2238  -17.1428   21.7635 N   0  0  0  0  0  0  0  0  0  0  0  0
   13.2441  -16.0565   22.7361 C   0  0  1  0  0  0  0  0  0  0  0  0
   12.4285  -16.4190   23.9656 C   0  0  0  0  0  0  0  0  0  0  0  0
   12.9191  -18.0548   24.6072 S   0  0  0  0  0  0  0  0  0  0  0  0
   14.6361  -15.8130   23.1734 C   0  0  0  0  0  0  0  0  0  0  0  0
   15.5428  -16.5953   22.8294 O   0  0  0  0  0  0  0  0  0  0  0  0
   14.9994  -14.7348   23.9657 O   0  0  0  0  0  0  0  0  0  0  0  0
  2  1  1  6
  3  2  1  0
  4  2  1  0
  4  5  2  0
  6  7  1  0
  6  4  1  0
  7  8  1  1
  9  8  1  0
 10 11  1  0
 10  9  1  0
 11 12  1  0
 13  7  1  0
 14 13  2  0
 15 13  1  0
 16 15  1  0
 16 19  1  0
 16 17  1  1
 18 17  1  0
 19 21  1  0
 20 19  2  0
M  END
$$$$
