AKC.pdb
     RDKit          3D

 21 20  0  0  1  0  0  0  0  0999 V2000
    8.0307  -12.0173   19.3637 C   0  0  0  0  0  0  0  0  0  0  0  0
    8.5200  -13.0002   18.2977 C   0  0  2  0  0  0  0  0  0  0  0  0
    7.3414  -13.6726   17.7961 N   0  0  0  0  0  0  0  0  0  0  0  0
    9.4063  -13.9845   18.9248 C   0  0  0  0  0  0  0  0  0  0  0  0
    8.8837  -14.9957   19.4907 O   0  0  0  0  0  0  0  0  0  0  0  0
   10.8321  -13.8613   18.9302 N   0  0  0  0  0  0  0  0  0  0  0  0
   11.6175  -14.9188   19.4678 C   0  0  1  0  0  0  0  0  0  0  0  0
   13.0588  -14.8881   19.0075 C   0  0  0  0  0  0  0  0  0  0  0  0
   13.4386  -16.1506   18.2662 C   0  0  0  0  0  0  0  0  0  0  0  0
   14.8466  -15.9640   17.7523 C   0  0  0  0  0  0  0  0  0  0  0  0
   15.3168  -17.1600   16.9422 C   0  0  0  0  0  0  0  0  0  0  0  0
   16.6114  -16.9260   16.3509 N   0  0  0  0  0  0  0  0  0  0  0  0
   11.6396  -14.9465   20.9477 C   0  0  0  0  0  0  0  0  0  0  0  0
   11.1945  -13.9512   21.5613 O   0  0  0  0  0  0  0  0  0  0  0  0
   12.1366  -16.0373   21.6997 N   0  0  0  0  0  0  0  0  0  0  0  0
   11.8173  -16.1887   23.1145 C   0  0  1  0  0  0  0  0  0  0  0  0
   10.3402  -16.4897   23.3043 C   0  0  0  0  0  0  0  0  0  0  0  0
    9.9885  -16.9309   25.0391 S   0  0  0  0  0  0  0  0  0  0  0  0
   12.5847  -17.3229   23.6738 C   0  0  0  0  0  0  0  0  0  0  0  0
   12.9255  -18.2680   22.9370 O   0  0  0  0  0  0  0  0  0  0  0  0
   12.9566  -17.3965   25.0075 O   0  0  0  0  0  0  0  0  0  0  0  0
  2  1  1  1
  3  2  1  0
  4  2  1  0
  4  5  2  0
  6  7  1  0
  6  4  1  0
  7  8  1  6
  9  8  1  0
 10 11  1  0
 10  9  1  0
 11 12  1  0
 13  7  1  0
 14 13  2  0
 15 13  1  0
 16 15  1  0
 16 19  1  0
 16 17  1  6
 18 17  1  0
 19 21  1  0
 20 19  2  0
M  END
$$$$
