AKC.pdb
     RDKit          3D

 21 20  0  0  1  0  0  0  0  0999 V2000
    5.3716  -19.9023   24.1506 C   0  0  0  0  0  0  0  0  0  0  0  0
    5.3372  -19.5250   22.6680 C   0  0  2  0  0  0  0  0  0  0  0  0
    5.6436  -20.7345   21.9356 N   0  0  0  0  0  0  0  0  0  0  0  0
    6.3761  -18.5256   22.4041 C   0  0  0  0  0  0  0  0  0  0  0  0
    7.5879  -18.9076   22.3665 O   0  0  0  0  0  0  0  0  0  0  0  0
    6.0910  -17.1402   22.1867 N   0  0  0  0  0  0  0  0  0  0  0  0
    7.1700  -16.2274   22.0231 C   0  0  1  0  0  0  0  0  0  0  0  0
    6.8154  -15.0273   21.1721 C   0  0  0  0  0  0  0  0  0  0  0  0
    7.7902  -14.8404   20.0308 C   0  0  0  0  0  0  0  0  0  0  0  0
    7.2625  -13.7188   19.1678 C   0  0  0  0  0  0  0  0  0  0  0  0
    8.1218  -13.5012   17.9341 C   0  0  0  0  0  0  0  0  0  0  0  0
    7.5391  -12.5261   17.0453 N   0  0  0  0  0  0  0  0  0  0  0  0
    7.7027  -15.7052   23.3017 C   0  0  0  0  0  0  0  0  0  0  0  0
    7.0010  -14.8916   23.9427 O   0  0  0  0  0  0  0  0  0  0  0  0
    8.9601  -16.0784   23.8328 N   0  0  0  0  0  0  0  0  0  0  0  0
    9.4577  -15.5008   25.0758 C   0  0  1  0  0  0  0  0  0  0  0  0
    8.5625  -15.8812   26.2430 C   0  0  0  0  0  0  0  0  0  0  0  0
    8.3452  -17.6905   26.3277 S   0  0  0  0  0  0  0  0  0  0  0  0
   10.8119  -16.0265   25.3556 C   0  0  0  0  0  0  0  0  0  0  0  0
   11.3028  -16.9052   24.6213 O   0  0  0  0  0  0  0  0  0  0  0  0
   11.5872  -15.5851   26.4169 O   0  0  0  0  0  0  0  0  0  0  0  0
  2  1  1  1
  3  2  1  0
  4  2  1  0
  4  5  2  0
  6  7  1  0
  6  4  1  0
  7  8  1  6
  9  8  1  0
 10 11  1  0
 10  9  1  0
 11 12  1  0
 13  7  1  0
 14 13  2  0
 15 13  1  0
 16 15  1  0
 16 19  1  0
 16 17  1  1
 18 17  1  0
 19 21  1  0
 20 19  2  0
M  END
$$$$
