AKC.pdb
     RDKit          3D

 21 20  0  0  1  0  0  0  0  0999 V2000
    7.0746  -12.7667   19.4802 C   0  0  0  0  0  0  0  0  0  0  0  0
    8.3349  -13.4951   19.9521 C   0  0  2  0  0  0  0  0  0  0  0  0
    8.5854  -14.5394   18.9827 N   0  0  0  0  0  0  0  0  0  0  0  0
    8.0749  -14.1037   21.2597 C   0  0  0  0  0  0  0  0  0  0  0  0
    7.7803  -13.3421   22.2339 O   0  0  0  0  0  0  0  0  0  0  0  0
    8.1370  -15.5145   21.4917 N   0  0  0  0  0  0  0  0  0  0  0  0
    7.9936  -16.0059   22.8192 C   0  0  1  0  0  0  0  0  0  0  0  0
    7.9481  -17.5165   22.8968 C   0  0  0  0  0  0  0  0  0  0  0  0
    7.4920  -17.9955   24.2570 C   0  0  0  0  0  0  0  0  0  0  0  0
    7.4473  -19.5045   24.2108 C   0  0  0  0  0  0  0  0  0  0  0  0
    6.9480  -20.0965   25.5177 C   0  0  0  0  0  0  0  0  0  0  0  0
    6.9262  -21.5380   25.4745 N   0  0  0  0  0  0  0  0  0  0  0  0
    9.0685  -15.5608   23.7345 C   0  0  0  0  0  0  0  0  0  0  0  0
    9.9787  -14.8410   23.2669 O   0  0  0  0  0  0  0  0  0  0  0  0
    9.1178  -15.9070   25.1057 N   0  0  0  0  0  0  0  0  0  0  0  0
    9.2009  -14.8841   26.1416 C   0  0  1  0  0  0  0  0  0  0  0  0
    7.9360  -14.0429   26.1707 C   0  0  0  0  0  0  0  0  0  0  0  0
    8.0389  -12.7663   27.4698 S   0  0  0  0  0  0  0  0  0  0  0  0
    9.3423  -15.5325   27.4637 C   0  0  0  0  0  0  0  0  0  0  0  0
    8.6036  -16.4874   27.7712 O   0  0  0  0  0  0  0  0  0  0  0  0
   10.2754  -15.1273   28.4057 O   0  0  0  0  0  0  0  0  0  0  0  0
  2  1  1  6
  3  2  1  0
  4  2  1  0
  4  5  2  0
  6  7  1  0
  6  4  1  0
  7  8  1  6
  9  8  1  0
 10 11  1  0
 10  9  1  0
 11 12  1  0
 13  7  1  0
 14 13  2  0
 15 13  1  0
 16 15  1  0
 16 19  1  0
 16 17  1  1
 18 17  1  0
 19 21  1  0
 20 19  2  0
M  END
$$$$
