AKC.pdb
     RDKit          3D

 21 20  0  0  1  0  0  0  0  0999 V2000
    7.4567  -12.7388   19.7133 C   0  0  0  0  0  0  0  0  0  0  0  0
    8.6750  -13.3970   20.3645 C   0  0  2  0  0  0  0  0  0  0  0  0
    9.1404  -14.3995   19.4311 N   0  0  0  0  0  0  0  0  0  0  0  0
    8.2580  -14.0523   21.6074 C   0  0  0  0  0  0  0  0  0  0  0  0
    7.7504  -13.3374   22.5277 O   0  0  0  0  0  0  0  0  0  0  0  0
    8.3952  -15.4587   21.8338 N   0  0  0  0  0  0  0  0  0  0  0  0
    7.9834  -16.0036   23.0819 C   0  0  1  0  0  0  0  0  0  0  0  0
    7.7729  -17.5015   23.0411 C   0  0  0  0  0  0  0  0  0  0  0  0
    7.3729  -18.0495   24.3929 C   0  0  0  0  0  0  0  0  0  0  0  0
    7.2647  -19.5498   24.2559 C   0  0  0  0  0  0  0  0  0  0  0  0
    6.8464  -20.2087   25.5592 C   0  0  0  0  0  0  0  0  0  0  0  0
    6.7126  -21.6374   25.4138 N   0  0  0  0  0  0  0  0  0  0  0  0
    8.9300  -15.7326   24.1873 C   0  0  0  0  0  0  0  0  0  0  0  0
   10.1550  -15.7819   23.9380 O   0  0  0  0  0  0  0  0  0  0  0  0
    8.5206  -15.4220   25.5057 N   0  0  0  0  0  0  0  0  0  0  0  0
    9.4782  -14.9711   26.5087 C   0  0  1  0  0  0  0  0  0  0  0  0
    8.8924  -13.8465   27.3457 C   0  0  0  0  0  0  0  0  0  0  0  0
   10.0538  -13.3478   28.6612 S   0  0  0  0  0  0  0  0  0  0  0  0
    9.8010  -16.0909   27.4198 C   0  0  0  0  0  0  0  0  0  0  0  0
    9.0218  -17.0581   27.5185 O   0  0  0  0  0  0  0  0  0  0  0  0
   10.9525  -16.1268   28.1913 O   0  0  0  0  0  0  0  0  0  0  0  0
  2  1  1  6
  3  2  1  0
  4  2  1  0
  4  5  2  0
  6  7  1  0
  6  4  1  0
  7  8  1  6
  9  8  1  0
 10 11  1  0
 10  9  1  0
 11 12  1  0
 13  7  1  0
 14 13  2  0
 15 13  1  0
 16 15  1  0
 16 19  1  0
 16 17  1  1
 18 17  1  0
 19 21  1  0
 20 19  2  0
M  END
$$$$
