AKC.pdb
     RDKit          3D

 21 20  0  0  1  0  0  0  0  0999 V2000
    8.1135  -13.0907   19.8316 C   0  0  0  0  0  0  0  0  0  0  0  0
    8.0018  -14.5984   20.0680 C   0  0  2  0  0  0  0  0  0  0  0  0
    7.0039  -15.0808   19.1380 N   0  0  0  0  0  0  0  0  0  0  0  0
    7.5383  -14.8353   21.4380 C   0  0  0  0  0  0  0  0  0  0  0  0
    6.4341  -14.3208   21.8008 O   0  0  0  0  0  0  0  0  0  0  0  0
    8.2699  -15.6184   22.3864 N   0  0  0  0  0  0  0  0  0  0  0  0
    7.7574  -15.7672   23.7053 C   0  0  1  0  0  0  0  0  0  0  0  0
    7.9752  -17.1501   24.2800 C   0  0  0  0  0  0  0  0  0  0  0  0
    7.2403  -18.2092   23.4890 C   0  0  0  0  0  0  0  0  0  0  0  0
    7.6298  -19.5507   24.0633 C   0  0  0  0  0  0  0  0  0  0  0  0
    6.8832  -20.6917   23.3937 C   0  0  0  0  0  0  0  0  0  0  0  0
    7.3342  -21.9756   23.8719 N   0  0  0  0  0  0  0  0  0  0  0  0
    8.3279  -14.8044   24.6742 C   0  0  0  0  0  0  0  0  0  0  0  0
    9.5735  -14.7193   24.7546 O   0  0  0  0  0  0  0  0  0  0  0  0
    7.5388  -13.9793   25.5101 N   0  0  0  0  0  0  0  0  0  0  0  0
    8.1508  -13.0856   26.4863 C   0  0  1  0  0  0  0  0  0  0  0  0
    7.2426  -11.9030   26.7779 C   0  0  0  0  0  0  0  0  0  0  0  0
    5.4895  -12.4033   26.7130 S   0  0  0  0  0  0  0  0  0  0  0  0
    8.3640  -13.8148   27.7556 C   0  0  0  0  0  0  0  0  0  0  0  0
    7.8513  -14.9380   27.9224 O   0  0  0  0  0  0  0  0  0  0  0  0
    9.1225  -13.3059   28.7987 O   0  0  0  0  0  0  0  0  0  0  0  0
  2  1  1  1
  3  2  1  0
  4  2  1  0
  4  5  2  0
  6  7  1  0
  6  4  1  0
  7  8  1  1
  9  8  1  0
 10 11  1  0
 10  9  1  0
 11 12  1  0
 13  7  1  0
 14 13  2  0
 15 13  1  0
 16 15  1  0
 16 19  1  0
 16 17  1  1
 18 17  1  0
 19 21  1  0
 20 19  2  0
M  END
$$$$
