AKC.pdb
     RDKit          3D

 21 20  0  0  1  0  0  0  0  0999 V2000
    7.3011  -12.7201   20.0096 C   0  0  0  0  0  0  0  0  0  0  0  0
    8.4777  -13.6037   20.4296 C   0  0  2  0  0  0  0  0  0  0  0  0
    8.4753  -14.7356   19.5286 N   0  0  0  0  0  0  0  0  0  0  0  0
    8.2563  -14.0772   21.7988 C   0  0  0  0  0  0  0  0  0  0  0  0
    8.0253  -13.2177   22.7064 O   0  0  0  0  0  0  0  0  0  0  0  0
    8.2878  -15.4609   22.1622 N   0  0  0  0  0  0  0  0  0  0  0  0
    7.8713  -15.8448   23.4674 C   0  0  1  0  0  0  0  0  0  0  0  0
    7.4824  -17.3038   23.5670 C   0  0  0  0  0  0  0  0  0  0  0  0
    6.2520  -17.6146   22.7442 C   0  0  0  0  0  0  0  0  0  0  0  0
    5.9890  -19.0965   22.8705 C   0  0  0  0  0  0  0  0  0  0  0  0
    4.8323  -19.5432   21.9927 C   0  0  0  0  0  0  0  0  0  0  0  0
    4.5913  -20.9603   22.1110 N   0  0  0  0  0  0  0  0  0  0  0  0
    8.8926  -15.6000   24.5106 C   0  0  0  0  0  0  0  0  0  0  0  0
   10.0976  -15.6826   24.1847 O   0  0  0  0  0  0  0  0  0  0  0  0
    8.5757  -15.2789   25.8518 N   0  0  0  0  0  0  0  0  0  0  0  0
    9.6171  -14.9427   26.8155 C   0  0  1  0  0  0  0  0  0  0  0  0
    9.1960  -13.7619   27.6738 C   0  0  0  0  0  0  0  0  0  0  0  0
   10.4470  -13.4165   28.9559 S   0  0  0  0  0  0  0  0  0  0  0  0
    9.8469  -16.0950   27.7142 C   0  0  0  0  0  0  0  0  0  0  0  0
    8.9670  -16.9672   27.8460 O   0  0  0  0  0  0  0  0  0  0  0  0
   11.0172  -16.2645   28.4380 O   0  0  0  0  0  0  0  0  0  0  0  0
  2  1  1  6
  3  2  1  0
  4  2  1  0
  4  5  2  0
  6  7  1  0
  6  4  1  0
  7  8  1  6
  9  8  1  0
 10 11  1  0
 10  9  1  0
 11 12  1  0
 13  7  1  0
 14 13  2  0
 15 13  1  0
 16 15  1  0
 16 19  1  0
 16 17  1  1
 18 17  1  0
 19 21  1  0
 20 19  2  0
M  END
$$$$
