AKC.pdb
     RDKit          3D

 21 20  0  0  1  0  0  0  0  0999 V2000
    8.2882  -12.3028   19.6623 C   0  0  0  0  0  0  0  0  0  0  0  0
    8.1148  -13.8200   19.5632 C   0  0  2  0  0  0  0  0  0  0  0  0
    7.0371  -14.0435   18.6243 N   0  0  0  0  0  0  0  0  0  0  0  0
    7.7270  -14.3443   20.8757 C   0  0  0  0  0  0  0  0  0  0  0  0
    6.4941  -14.3492   21.1853 O   0  0  0  0  0  0  0  0  0  0  0  0
    8.6704  -14.8510   21.8251 N   0  0  0  0  0  0  0  0  0  0  0  0
    8.1956  -15.5571   22.9654 C   0  0  1  0  0  0  0  0  0  0  0  0
    8.6920  -16.9849   23.0351 C   0  0  0  0  0  0  0  0  0  0  0  0
    8.1645  -17.7038   24.2568 C   0  0  0  0  0  0  0  0  0  0  0  0
    7.3556  -18.8829   23.7704 C   0  0  0  0  0  0  0  0  0  0  0  0
    6.6522  -19.5967   24.9122 C   0  0  0  0  0  0  0  0  0  0  0  0
    5.7222  -20.5870   24.4278 N   0  0  0  0  0  0  0  0  0  0  0  0
    8.5527  -14.9147   24.2504 C   0  0  0  0  0  0  0  0  0  0  0  0
    9.7552  -14.6369   24.4548 O   0  0  0  0  0  0  0  0  0  0  0  0
    7.6063  -14.6006   25.2544 N   0  0  0  0  0  0  0  0  0  0  0  0
    8.0183  -14.0205   26.5273 C   0  0  1  0  0  0  0  0  0  0  0  0
    6.8502  -13.3247   27.2054 C   0  0  0  0  0  0  0  0  0  0  0  0
    6.0283  -12.1723   26.0546 S   0  0  0  0  0  0  0  0  0  0  0  0
    8.4888  -15.0949   27.4287 C   0  0  0  0  0  0  0  0  0  0  0  0
    8.4108  -16.2861   27.0718 O   0  0  0  0  0  0  0  0  0  0  0  0
    9.0262  -14.8454   28.6822 O   0  0  0  0  0  0  0  0  0  0  0  0
  2  1  1  1
  3  2  1  0
  4  2  1  0
  4  5  2  0
  6  7  1  0
  6  4  1  0
  7  8  1  1
  9  8  1  0
 10 11  1  0
 10  9  1  0
 11 12  1  0
 13  7  1  0
 14 13  2  0
 15 13  1  0
 16 15  1  0
 16 19  1  0
 16 17  1  1
 18 17  1  0
 19 21  1  0
 20 19  2  0
M  END
$$$$
