AKC.pdb
     RDKit          3D

 21 20  0  0  1  0  0  0  0  0999 V2000
    8.2262  -12.2193   19.4089 C   0  0  0  0  0  0  0  0  0  0  0  0
    8.2832  -13.7446   19.3000 C   0  0  2  0  0  0  0  0  0  0  0  0
    7.2667  -14.1200   18.3415 N   0  0  0  0  0  0  0  0  0  0  0  0
    7.9565  -14.3302   20.6032 C   0  0  0  0  0  0  0  0  0  0  0  0
    6.7323  -14.4421   20.9267 O   0  0  0  0  0  0  0  0  0  0  0  0
    8.9503  -14.7820   21.5286 N   0  0  0  0  0  0  0  0  0  0  0  0
    8.5429  -15.4955   22.6901 C   0  0  1  0  0  0  0  0  0  0  0  0
    9.1435  -16.8814   22.7829 C   0  0  0  0  0  0  0  0  0  0  0  0
    8.6208  -17.7939   21.6959 C   0  0  0  0  0  0  0  0  0  0  0  0
    9.2873  -19.1371   21.8773 C   0  0  0  0  0  0  0  0  0  0  0  0
    8.8064  -20.1508   20.8530 C   0  0  0  0  0  0  0  0  0  0  0  0
    9.4684  -21.4223   21.0118 N   0  0  0  0  0  0  0  0  0  0  0  0
    8.8681  -14.8006   23.9561 C   0  0  0  0  0  0  0  0  0  0  0  0
   10.0489  -14.4287   24.1364 O   0  0  0  0  0  0  0  0  0  0  0  0
    7.9146  -14.5371   24.9680 N   0  0  0  0  0  0  0  0  0  0  0  0
    8.3000  -13.9057   26.2245 C   0  0  1  0  0  0  0  0  0  0  0  0
    7.1101  -13.2123   26.8662 C   0  0  0  0  0  0  0  0  0  0  0  0
    6.3279  -12.0540   25.6938 S   0  0  0  0  0  0  0  0  0  0  0  0
    8.7828  -14.9386   27.1670 C   0  0  0  0  0  0  0  0  0  0  0  0
    8.7267  -16.1431   26.8532 O   0  0  0  0  0  0  0  0  0  0  0  0
    9.3085  -14.6348   28.4135 O   0  0  0  0  0  0  0  0  0  0  0  0
  2  1  1  1
  3  2  1  0
  4  2  1  0
  4  5  2  0
  6  7  1  0
  6  4  1  0
  7  8  1  1
  9  8  1  0
 10 11  1  0
 10  9  1  0
 11 12  1  0
 13  7  1  0
 14 13  2  0
 15 13  1  0
 16 15  1  0
 16 19  1  0
 16 17  1  1
 18 17  1  0
 19 21  1  0
 20 19  2  0
M  END
$$$$
