AKC.pdb
     RDKit          3D

 21 20  0  0  1  0  0  0  0  0999 V2000
    6.9529  -13.1265   19.7292 C   0  0  0  0  0  0  0  0  0  0  0  0
    8.2048  -13.7732   20.3260 C   0  0  2  0  0  0  0  0  0  0  0  0
    8.4954  -14.9272   19.5033 N   0  0  0  0  0  0  0  0  0  0  0  0
    7.9101  -14.2166   21.6914 C   0  0  0  0  0  0  0  0  0  0  0  0
    7.4778  -13.3606   22.5257 O   0  0  0  0  0  0  0  0  0  0  0  0
    8.0861  -15.5675   22.1298 N   0  0  0  0  0  0  0  0  0  0  0  0
    7.6558  -15.9345   23.4353 C   0  0  1  0  0  0  0  0  0  0  0  0
    7.7022  -17.4265   23.6838 C   0  0  0  0  0  0  0  0  0  0  0  0
    6.4308  -18.1107   23.2332 C   0  0  0  0  0  0  0  0  0  0  0  0
    6.6138  -19.5930   23.4580 C   0  0  0  0  0  0  0  0  0  0  0  0
    5.3489  -20.3737   23.1444 C   0  0  0  0  0  0  0  0  0  0  0  0
    5.5042  -21.7776   23.4368 N   0  0  0  0  0  0  0  0  0  0  0  0
    8.4365  -15.2941   24.5178 C   0  0  0  0  0  0  0  0  0  0  0  0
    9.6822  -15.2648   24.4062 O   0  0  0  0  0  0  0  0  0  0  0  0
    7.8471  -14.7161   25.6670 N   0  0  0  0  0  0  0  0  0  0  0  0
    8.6618  -14.0858   26.6992 C   0  0  1  0  0  0  0  0  0  0  0  0
    7.8563  -13.0482   27.4626 C   0  0  0  0  0  0  0  0  0  0  0  0
    6.9148  -11.9884   26.3143 S   0  0  0  0  0  0  0  0  0  0  0  0
    9.1100  -15.1109   27.6670 C   0  0  0  0  0  0  0  0  0  0  0  0
    8.7207  -16.2888   27.5516 O   0  0  0  0  0  0  0  0  0  0  0  0
    9.9615  -14.8281   28.7240 O   0  0  0  0  0  0  0  0  0  0  0  0
  2  1  1  6
  3  2  1  0
  4  2  1  0
  4  5  2  0
  6  7  1  0
  6  4  1  0
  7  8  1  6
  9  8  1  0
 10 11  1  0
 10  9  1  0
 11 12  1  0
 13  7  1  0
 14 13  2  0
 15 13  1  0
 16 15  1  0
 16 19  1  0
 16 17  1  1
 18 17  1  0
 19 21  1  0
 20 19  2  0
M  END
$$$$
