AKC.pdb
     RDKit          3D

 21 20  0  0  1  0  0  0  0  0999 V2000
   11.9224  -27.4851   16.4003 C   0  0  0  0  0  0  0  0  0  0  0  0
   10.8712  -26.3746   16.4582 C   0  0  2  0  0  0  0  0  0  0  0  0
   10.3478  -26.2427   15.1160 N   0  0  0  0  0  0  0  0  0  0  0  0
   11.5210  -25.1200   16.8476 C   0  0  0  0  0  0  0  0  0  0  0  0
   12.7800  -25.0203   16.7032 O   0  0  0  0  0  0  0  0  0  0  0  0
   10.8054  -24.0021   17.3825 N   0  0  0  0  0  0  0  0  0  0  0  0
   11.5057  -22.7917   17.6450 C   0  0  1  0  0  0  0  0  0  0  0  0
   10.6253  -21.5629   17.5732 C   0  0  0  0  0  0  0  0  0  0  0  0
   10.4951  -21.0472   16.1573 C   0  0  0  0  0  0  0  0  0  0  0  0
    9.0199  -20.9332   15.8541 C   0  0  0  0  0  0  0  0  0  0  0  0
    8.7691  -20.3963   14.4553 C   0  0  0  0  0  0  0  0  0  0  0  0
    7.3628  -20.1934   14.2077 N   0  0  0  0  0  0  0  0  0  0  0  0
   12.1707  -22.7672   18.9672 C   0  0  0  0  0  0  0  0  0  0  0  0
   11.5633  -23.2664   19.9404 O   0  0  0  0  0  0  0  0  0  0  0  0
   13.4532  -22.2101   19.1847 N   0  0  0  0  0  0  0  0  0  0  0  0
   14.0817  -22.2491   20.4999 C   0  0  1  0  0  0  0  0  0  0  0  0
   15.5768  -22.0019   20.3900 C   0  0  0  0  0  0  0  0  0  0  0  0
   16.4385  -22.5754   21.8922 S   0  0  0  0  0  0  0  0  0  0  0  0
   13.5093  -21.1832   21.3510 C   0  0  0  0  0  0  0  0  0  0  0  0
   12.8644  -20.2515   20.8329 O   0  0  0  0  0  0  0  0  0  0  0  0
   13.6532  -21.1611   22.7298 O   0  0  0  0  0  0  0  0  0  0  0  0
  2  1  1  6
  3  2  1  0
  4  2  1  0
  4  5  2  0
  6  7  1  0
  6  4  1  0
  7  8  1  1
  9  8  1  0
 10 11  1  0
 10  9  1  0
 11 12  1  0
 13  7  1  0
 14 13  2  0
 15 13  1  0
 16 15  1  0
 16 19  1  0
 16 17  1  6
 18 17  1  0
 19 21  1  0
 20 19  2  0
M  END
$$$$
