AKC.pdb
     RDKit          3D

 21 20  0  0  1  0  0  0  0  0999 V2000
    8.3247  -11.9965   19.7577 C   0  0  0  0  0  0  0  0  0  0  0  0
    8.3960  -13.5022   19.4941 C   0  0  2  0  0  0  0  0  0  0  0  0
    7.4199  -13.7791   18.4629 N   0  0  0  0  0  0  0  0  0  0  0  0
    8.0231  -14.2204   20.7160 C   0  0  0  0  0  0  0  0  0  0  0  0
    6.7906  -14.3065   21.0151 O   0  0  0  0  0  0  0  0  0  0  0  0
    8.9805  -14.8292   21.5882 N   0  0  0  0  0  0  0  0  0  0  0  0
    8.5287  -15.4657   22.7777 C   0  0  1  0  0  0  0  0  0  0  0  0
    9.0590  -16.8735   22.9421 C   0  0  0  0  0  0  0  0  0  0  0  0
    8.4166  -17.8332   21.9655 C   0  0  0  0  0  0  0  0  0  0  0  0
    8.9716  -19.2079   22.2548 C   0  0  0  0  0  0  0  0  0  0  0  0
    8.3620  -20.2663   21.3515 C   0  0  0  0  0  0  0  0  0  0  0  0
    8.8735  -21.5809   21.6523 N   0  0  0  0  0  0  0  0  0  0  0  0
    8.8776  -14.7282   24.0129 C   0  0  0  0  0  0  0  0  0  0  0  0
   10.0629  -14.3563   24.1609 O   0  0  0  0  0  0  0  0  0  0  0  0
    7.9418  -14.4241   25.0299 N   0  0  0  0  0  0  0  0  0  0  0  0
    8.3258  -13.6492   26.2040 C   0  0  1  0  0  0  0  0  0  0  0  0
    7.2699  -12.6066   26.5304 C   0  0  0  0  0  0  0  0  0  0  0  0
    5.5970  -13.3269   26.4267 S   0  0  0  0  0  0  0  0  0  0  0  0
    8.4463  -14.5504   27.3708 C   0  0  0  0  0  0  0  0  0  0  0  0
    8.8320  -14.1015   28.4672 O   0  0  0  0  0  0  0  0  0  0  0  0
    8.1465  -15.9028   27.3127 O   0  0  0  0  0  0  0  0  0  0  0  0
  2  1  1  1
  3  2  1  0
  4  2  1  0
  4  5  2  0
  6  7  1  0
  6  4  1  0
  7  8  1  1
  9  8  1  0
 10 11  1  0
 10  9  1  0
 11 12  1  0
 13  7  1  0
 14 13  2  0
 15 13  1  0
 16 15  1  0
 16 19  1  0
 16 17  1  1
 18 17  1  0
 19 21  1  0
 20 19  2  0
M  END
$$$$
