AKC.pdb
     RDKit          3D

 21 20  0  0  1  0  0  0  0  0999 V2000
    7.8113  -20.3965   19.3598 C   0  0  0  0  0  0  0  0  0  0  0  0
    8.2632  -19.9450   20.7503 C   0  0  2  0  0  0  0  0  0  0  0  0
    7.0556  -19.7040   21.5096 N   0  0  0  0  0  0  0  0  0  0  0  0
    9.0129  -18.6918   20.6267 C   0  0  0  0  0  0  0  0  0  0  0  0
   10.1227  -18.7091   20.0071 O   0  0  0  0  0  0  0  0  0  0  0  0
    8.5549  -17.4499   21.1704 N   0  0  0  0  0  0  0  0  0  0  0  0
    9.3591  -16.2864   21.0157 C   0  0  1  0  0  0  0  0  0  0  0  0
    8.5898  -15.0915   20.4959 C   0  0  0  0  0  0  0  0  0  0  0  0
    8.3846  -15.1635   18.9991 C   0  0  0  0  0  0  0  0  0  0  0  0
    7.7215  -13.8749   18.5735 C   0  0  0  0  0  0  0  0  0  0  0  0
    7.4316  -13.8527   17.0825 C   0  0  0  0  0  0  0  0  0  0  0  0
    6.7585  -12.6392   16.6895 N   0  0  0  0  0  0  0  0  0  0  0  0
   10.0262  -15.8574   22.2656 C   0  0  0  0  0  0  0  0  0  0  0  0
    9.3064  -15.4803   23.2169 O   0  0  0  0  0  0  0  0  0  0  0  0
   11.4307  -15.8525   22.4376 N   0  0  0  0  0  0  0  0  0  0  0  0
   12.0332  -16.0730   23.7470 C   0  0  1  0  0  0  0  0  0  0  0  0
   11.5574  -17.3863   24.3448 C   0  0  0  0  0  0  0  0  0  0  0  0
   11.4514  -17.2680   26.1622 S   0  0  0  0  0  0  0  0  0  0  0  0
   13.5039  -16.1477   23.6061 C   0  0  0  0  0  0  0  0  0  0  0  0
   14.0067  -16.6794   22.5978 O   0  0  0  0  0  0  0  0  0  0  0  0
   14.3786  -15.6463   24.5579 O   0  0  0  0  0  0  0  0  0  0  0  0
  2  1  1  6
  3  2  1  0
  4  2  1  0
  4  5  2  0
  6  7  1  0
  6  4  1  0
  7  8  1  1
  9  8  1  0
 10 11  1  0
 10  9  1  0
 11 12  1  0
 13  7  1  0
 14 13  2  0
 15 13  1  0
 16 15  1  0
 16 19  1  0
 16 17  1  6
 18 17  1  0
 19 21  1  0
 20 19  2  0
M  END
$$$$
