AKC.pdb
     RDKit          3D

 21 20  0  0  1  0  0  0  0  0999 V2000
    7.6412  -19.8792   21.4660 C   0  0  0  0  0  0  0  0  0  0  0  0
    7.8542  -19.1555   22.7974 C   0  0  2  0  0  0  0  0  0  0  0  0
    6.5351  -18.8545   23.3097 N   0  0  0  0  0  0  0  0  0  0  0  0
    8.5731  -17.9023   22.5515 C   0  0  0  0  0  0  0  0  0  0  0  0
    9.7992  -17.9627   22.2214 O   0  0  0  0  0  0  0  0  0  0  0  0
    7.9604  -16.6141   22.6654 N   0  0  0  0  0  0  0  0  0  0  0  0
    8.7466  -15.4498   22.4404 C   0  0  1  0  0  0  0  0  0  0  0  0
    8.0725  -14.4366   21.5408 C   0  0  0  0  0  0  0  0  0  0  0  0
    8.2505  -14.7780   20.0782 C   0  0  0  0  0  0  0  0  0  0  0  0
    8.0971  -13.4955   19.2952 C   0  0  0  0  0  0  0  0  0  0  0  0
    8.1833  -13.7329   17.7972 C   0  0  0  0  0  0  0  0  0  0  0  0
    8.0778  -12.4999   17.0564 N   0  0  0  0  0  0  0  0  0  0  0  0
    9.1208  -14.7388   23.6837 C   0  0  0  0  0  0  0  0  0  0  0  0
    8.8168  -13.5294   23.7838 O   0  0  0  0  0  0  0  0  0  0  0  0
    9.8020  -15.3558   24.7596 N   0  0  0  0  0  0  0  0  0  0  0  0
    9.9464  -14.6862   26.0469 C   0  0  1  0  0  0  0  0  0  0  0  0
    8.5867  -14.4089   26.6656 C   0  0  0  0  0  0  0  0  0  0  0  0
    8.7412  -13.2678   28.0805 S   0  0  0  0  0  0  0  0  0  0  0  0
   10.6951  -15.5609   26.9757 C   0  0  0  0  0  0  0  0  0  0  0  0
   10.7154  -16.7929   26.7910 O   0  0  0  0  0  0  0  0  0  0  0  0
   11.3945  -15.0750   28.0698 O   0  0  0  0  0  0  0  0  0  0  0  0
  2  1  1  6
  3  2  1  0
  4  2  1  0
  4  5  2  0
  6  7  1  0
  6  4  1  0
  7  8  1  6
  9  8  1  0
 10 11  1  0
 10  9  1  0
 11 12  1  0
 13  7  1  0
 14 13  2  0
 15 13  1  0
 16 15  1  0
 16 19  1  0
 16 17  1  1
 18 17  1  0
 19 21  1  0
 20 19  2  0
M  END
$$$$
