MWI.pdb
     RDKit          3D

 31 32  0  0  1  0  0  0  0  0999 V2000
    8.1598  -12.3131   17.7038 C   0  0  0  0  0  0  0  0  0  0  0  0
    8.6079  -13.6567   16.5820 S   0  0  0  0  0  0  0  0  0  0  0  0
    9.2841  -15.0389   17.5423 C   0  0  0  0  0  0  0  0  0  0  0  0
    9.9355  -14.5787   18.8308 C   0  0  0  0  0  0  0  0  0  0  0  0
   10.4425  -15.7707   19.6296 C   0  0  2  0  0  0  0  0  0  0  0  0
    9.8240  -16.9865   19.2440 N   0  0  0  0  0  0  0  0  0  0  0  0
   10.2988  -15.4995   21.0945 C   0  0  0  0  0  0  0  0  0  0  0  0
   10.9598  -14.6182   21.6684 O   0  0  0  0  0  0  0  0  0  0  0  0
    9.3724  -16.2603   21.9009 N   0  0  0  0  0  0  0  0  0  0  0  0
    8.8925  -15.7508   23.1669 C   0  0  1  0  0  0  0  0  0  0  0  0
    7.3796  -15.9894   23.2828 C   0  0  0  0  0  0  0  0  0  0  0  0
    6.8673  -15.4571   24.5618 C   0  0  0  0  0  0  0  0  0  0  0  0
    6.2971  -16.1571   25.5924 C   0  0  0  0  0  0  0  0  0  0  0  0
    5.9816  -15.2608   26.5531 N   0  0  0  0  0  0  0  0  0  0  0  0
    6.3253  -14.0276   26.1768 C   0  0  0  0  0  0  0  0  0  0  0  0
    6.2293  -12.7942   26.7772 C   0  0  0  0  0  0  0  0  0  0  0  0
    6.6864  -11.6359   26.1457 C   0  0  0  0  0  0  0  0  0  0  0  0
    7.2482  -11.7721   24.8735 C   0  0  0  0  0  0  0  0  0  0  0  0
    7.3529  -12.9992   24.2577 C   0  0  0  0  0  0  0  0  0  0  0  0
    6.8836  -14.1282   24.9279 C   0  0  0  0  0  0  0  0  0  0  0  0
    9.5748  -16.3148   24.3470 C   0  0  0  0  0  0  0  0  0  0  0  0
   10.2667  -17.3473   24.1813 O   0  0  0  0  0  0  0  0  0  0  0  0
   10.7686  -14.6723   30.2718 C   0  0  0  0  0  0  0  0  0  0  0  0
   11.2167  -15.3558   29.0293 C   0  0  0  0  0  0  0  0  0  0  0  0
   10.3817  -15.1253   27.8143 C   0  0  2  0  0  0  0  0  0  0  0  0
    9.0033  -14.7128   28.2108 C   0  0  0  0  0  0  0  0  0  0  0  0
   10.4869  -16.1260   26.7047 C   0  0  2  0  0  0  0  0  0  0  0  0
    9.5065  -15.7655   25.6469 N   0  0  0  0  0  0  0  0  0  0  0  0
   10.3446  -17.5299   27.0742 C   0  0  0  0  0  0  0  0  0  0  0  0
    9.3295  -18.2476   26.8837 O   0  0  0  0  0  0  0  0  0  0  0  0
   11.4012  -18.2279   27.7097 O   0  0  0  0  0  0  0  0  0  0  0  0
  2  1  1  0
  3  2  1  0
  4  3  1  0
  5  4  1  0
  5  6  1  6
  7  8  2  0
  7  5  1  0
  9  7  1  0
 10  9  1  0
 10 11  1  1
 11 12  1  0
 12 13  2  0
 12 20  1  0
 13 14  1  0
 14 15  1  0
 15 16  2  0
 16 17  1  0
 18 17  2  0
 19 18  1  0
 20 19  2  0
 20 15  1  0
 21 10  1  0
 22 21  2  0
 23 24  1  0
 24 25  1  0
 25 26  1  1
 27 25  1  0
 27 28  1  6
 28 21  1  0
 29 27  1  0
 30 29  2  0
 31 29  1  0
M  END
$$$$
