MWI.pdb
     RDKit          3D

 31 32  0  0  1  0  0  0  0  0999 V2000
    8.3322  -12.0607   17.7487 C   0  0  0  0  0  0  0  0  0  0  0  0
    8.7860  -13.3927   16.6155 S   0  0  0  0  0  0  0  0  0  0  0  0
    9.2910  -14.8480   17.5730 C   0  0  0  0  0  0  0  0  0  0  0  0
    9.8326  -14.4774   18.9389 C   0  0  0  0  0  0  0  0  0  0  0  0
   10.2564  -15.7235   19.7029 C   0  0  2  0  0  0  0  0  0  0  0  0
    9.5820  -16.8888   19.2594 N   0  0  0  0  0  0  0  0  0  0  0  0
   10.0943  -15.4980   21.1736 C   0  0  0  0  0  0  0  0  0  0  0  0
   10.7063  -14.5983   21.7726 O   0  0  0  0  0  0  0  0  0  0  0  0
    9.2069  -16.3270   21.9563 N   0  0  0  0  0  0  0  0  0  0  0  0
    8.8168  -15.9448   23.2958 C   0  0  1  0  0  0  0  0  0  0  0  0
    7.3561  -16.3484   23.5464 C   0  0  0  0  0  0  0  0  0  0  0  0
    6.8238  -15.6556   24.7374 C   0  0  0  0  0  0  0  0  0  0  0  0
    6.3461  -16.2195   25.8911 C   0  0  0  0  0  0  0  0  0  0  0  0
    5.9679  -15.2055   26.7002 N   0  0  0  0  0  0  0  0  0  0  0  0
    6.1837  -14.0280   26.1109 C   0  0  0  0  0  0  0  0  0  0  0  0
    5.9836  -12.7245   26.5005 C   0  0  0  0  0  0  0  0  0  0  0  0
    6.3137  -11.6535   25.6678 C   0  0  0  0  0  0  0  0  0  0  0  0
    6.8576  -11.9520   24.4158 C   0  0  0  0  0  0  0  0  0  0  0  0
    7.0654  -13.2511   24.0096 C   0  0  0  0  0  0  0  0  0  0  0  0
    6.7211  -14.2879   24.8759 C   0  0  0  0  0  0  0  0  0  0  0  0
    9.6738  -16.5003   24.3603 C   0  0  0  0  0  0  0  0  0  0  0  0
   10.2066  -17.6169   24.1555 O   0  0  0  0  0  0  0  0  0  0  0  0
   10.6342  -14.1371   29.7190 C   0  0  0  0  0  0  0  0  0  0  0  0
   10.2877  -15.1801   28.7171 C   0  0  0  0  0  0  0  0  0  0  0  0
   11.2315  -15.3303   27.5711 C   0  0  2  0  0  0  0  0  0  0  0  0
   11.6024  -13.9883   27.0337 C   0  0  0  0  0  0  0  0  0  0  0  0
   10.9270  -16.3940   26.5613 C   0  0  2  0  0  0  0  0  0  0  0  0
    9.9394  -15.8558   25.5892 N   0  0  0  0  0  0  0  0  0  0  0  0
   10.4802  -17.6813   27.0818 C   0  0  0  0  0  0  0  0  0  0  0  0
    9.3221  -18.1609   26.9794 O   0  0  0  0  0  0  0  0  0  0  0  0
   11.3702  -18.5352   27.7791 O   0  0  0  0  0  0  0  0  0  0  0  0
  2  1  1  0
  3  2  1  0
  4  3  1  0
  5  4  1  0
  5  6  1  6
  7  8  2  0
  7  5  1  0
  9  7  1  0
 10  9  1  0
 10 11  1  1
 11 12  1  0
 12 13  2  0
 12 20  1  0
 13 14  1  0
 14 15  1  0
 15 16  2  0
 16 17  1  0
 18 17  2  0
 19 18  1  0
 20 19  2  0
 20 15  1  0
 21 10  1  0
 22 21  2  0
 23 24  1  0
 24 25  1  0
 25 26  1  6
 27 25  1  0
 27 28  1  6
 28 21  1  0
 29 27  1  0
 30 29  2  0
 31 29  1  0
M  END
$$$$
