MWI.pdb
     RDKit          3D

 31 32  0  0  1  0  0  0  0  0999 V2000
    8.4117  -11.7850   19.0615 C   0  0  0  0  0  0  0  0  0  0  0  0
    7.0488  -12.9264   18.7388 S   0  0  0  0  0  0  0  0  0  0  0  0
    7.4714  -14.5646   19.3928 C   0  0  0  0  0  0  0  0  0  0  0  0
    8.1639  -14.4847   20.7384 C   0  0  0  0  0  0  0  0  0  0  0  0
    8.6354  -15.8626   21.1803 C   0  0  2  0  0  0  0  0  0  0  0  0
    7.5846  -16.8135   21.2091 N   0  0  0  0  0  0  0  0  0  0  0  0
    9.3454  -15.7600   22.4939 C   0  0  0  0  0  0  0  0  0  0  0  0
   10.3700  -15.0725   22.6360 O   0  0  0  0  0  0  0  0  0  0  0  0
    8.8555  -16.4631   23.6571 N   0  0  0  0  0  0  0  0  0  0  0  0
    9.5324  -16.3597   24.9313 C   0  0  1  0  0  0  0  0  0  0  0  0
    8.5073  -16.4426   26.0722 C   0  0  0  0  0  0  0  0  0  0  0  0
    7.4180  -15.4674   25.8622 C   0  0  0  0  0  0  0  0  0  0  0  0
    6.1365  -15.7190   25.4478 C   0  0  0  0  0  0  0  0  0  0  0  0
    5.4959  -14.5302   25.3981 N   0  0  0  0  0  0  0  0  0  0  0  0
    6.3133  -13.5399   25.7609 C   0  0  0  0  0  0  0  0  0  0  0  0
    6.1549  -12.1795   25.8831 C   0  0  0  0  0  0  0  0  0  0  0  0
    7.2020  -11.3560   26.3013 C   0  0  0  0  0  0  0  0  0  0  0  0
    8.4257  -11.9642   26.5930 C   0  0  0  0  0  0  0  0  0  0  0  0
    8.6019  -13.3249   26.4768 C   0  0  0  0  0  0  0  0  0  0  0  0
    7.5269  -14.1070   26.0565 C   0  0  0  0  0  0  0  0  0  0  0  0
   10.5898  -17.3667   25.1413 C   0  0  0  0  0  0  0  0  0  0  0  0
   10.2980  -18.5688   24.9359 O   0  0  0  0  0  0  0  0  0  0  0  0
   16.7700  -17.9289   25.8473 C   0  0  0  0  0  0  0  0  0  0  0  0
   15.4087  -18.4854   26.0678 C   0  0  0  0  0  0  0  0  0  0  0  0
   14.2677  -17.6043   25.6822 C   0  0  2  0  0  0  0  0  0  0  0  0
   14.5271  -16.2047   26.1306 C   0  0  0  0  0  0  0  0  0  0  0  0
   12.8832  -18.1316   25.9035 C   0  0  2  0  0  0  0  0  0  0  0  0
   11.9083  -17.0664   25.5503 N   0  0  0  0  0  0  0  0  0  0  0  0
   12.5922  -18.6699   27.2277 C   0  0  0  0  0  0  0  0  0  0  0  0
   11.8866  -18.1213   28.1125 O   0  0  0  0  0  0  0  0  0  0  0  0
   13.1117  -19.9232   27.6363 O   0  0  0  0  0  0  0  0  0  0  0  0
  2  1  1  0
  3  2  1  0
  4  3  1  0
  5  4  1  0
  5  6  1  1
  7  8  2  0
  7  5  1  0
  9  7  1  0
 10  9  1  0
 10 11  1  1
 11 12  1  0
 12 13  2  0
 12 20  1  0
 13 14  1  0
 14 15  1  0
 15 16  2  0
 16 17  1  0
 18 17  2  0
 19 18  1  0
 20 19  2  0
 20 15  1  0
 21 10  1  0
 22 21  2  0
 23 24  1  0
 24 25  1  0
 25 26  1  1
 27 25  1  0
 27 28  1  1
 28 21  1  0
 29 27  1  0
 30 29  2  0
 31 29  1  0
M  END
$$$$
