MWI.pdb
     RDKit          3D

 31 32  0  0  1  0  0  0  0  0999 V2000
   11.7804  -18.3113   16.6891 C   0  0  0  0  0  0  0  0  0  0  0  0
   11.9599  -19.9972   17.3135 S   0  0  0  0  0  0  0  0  0  0  0  0
   11.3706  -20.0674   19.0275 C   0  0  0  0  0  0  0  0  0  0  0  0
   11.3355  -18.6999   19.6794 C   0  0  0  0  0  0  0  0  0  0  0  0
   10.8257  -18.8016   21.1096 C   0  0  2  0  0  0  0  0  0  0  0  0
    9.6293  -19.5556   21.2081 N   0  0  0  0  0  0  0  0  0  0  0  0
   10.6847  -17.4326   21.6979 C   0  0  0  0  0  0  0  0  0  0  0  0
   11.6376  -16.6376   21.7500 O   0  0  0  0  0  0  0  0  0  0  0  0
    9.4190  -16.9816   22.2289 N   0  0  0  0  0  0  0  0  0  0  0  0
    9.2461  -15.6222   22.6920 C   0  0  1  0  0  0  0  0  0  0  0  0
    7.7607  -15.2364   22.6268 C   0  0  0  0  0  0  0  0  0  0  0  0
    7.2046  -15.0837   23.9867 C   0  0  0  0  0  0  0  0  0  0  0  0
    6.8095  -16.0745   24.8465 C   0  0  0  0  0  0  0  0  0  0  0  0
    6.3687  -15.4698   25.9717 N   0  0  0  0  0  0  0  0  0  0  0  0
    6.4662  -14.1436   25.8619 C   0  0  0  0  0  0  0  0  0  0  0  0
    6.1662  -13.1000   26.7056 C   0  0  0  0  0  0  0  0  0  0  0  0
    6.3799  -11.7721   26.3311 C   0  0  0  0  0  0  0  0  0  0  0  0
    6.9120  -11.5365   25.0607 C   0  0  0  0  0  0  0  0  0  0  0  0
    7.2189  -12.5692   24.2032 C   0  0  0  0  0  0  0  0  0  0  0  0
    6.9891  -13.8792   24.6216 C   0  0  0  0  0  0  0  0  0  0  0  0
    9.7636  -15.3724   24.0506 C   0  0  0  0  0  0  0  0  0  0  0  0
   10.1410  -14.2084   24.3250 O   0  0  0  0  0  0  0  0  0  0  0  0
    9.9541  -13.6373   29.1537 C   0  0  0  0  0  0  0  0  0  0  0  0
   10.4844  -14.8738   28.5201 C   0  0  0  0  0  0  0  0  0  0  0  0
    9.8413  -15.2830   27.2372 C   0  0  2  0  0  0  0  0  0  0  0  0
    8.4338  -15.7134   27.4842 C   0  0  0  0  0  0  0  0  0  0  0  0
   10.6460  -16.1326   26.3022 C   0  0  2  0  0  0  0  0  0  0  0  0
    9.8550  -16.3535   25.0630 N   0  0  0  0  0  0  0  0  0  0  0  0
   11.1340  -17.4026   26.8283 C   0  0  0  0  0  0  0  0  0  0  0  0
   11.9599  -17.5487   27.7655 O   0  0  0  0  0  0  0  0  0  0  0  0
   10.6857  -18.6351   26.2921 O   0  0  0  0  0  0  0  0  0  0  0  0
  2  1  1  0
  3  2  1  0
  4  3  1  0
  5  4  1  0
  5  6  1  6
  7  8  2  0
  7  5  1  0
  9  7  1  0
 10  9  1  0
 10 11  1  1
 11 12  1  0
 12 13  2  0
 12 20  1  0
 13 14  1  0
 14 15  1  0
 15 16  2  0
 16 17  1  0
 18 17  2  0
 19 18  1  0
 20 19  2  0
 20 15  1  0
 21 10  1  0
 22 21  2  0
 23 24  1  0
 24 25  1  0
 25 26  1  1
 27 25  1  0
 27 28  1  6
 28 21  1  0
 29 27  1  0
 30 29  2  0
 31 29  1  0
M  END
$$$$
