MWI.pdb
     RDKit          3D

 31 32  0  0  1  0  0  0  0  0999 V2000
    9.0255  -11.9159   18.8145 C   0  0  0  0  0  0  0  0  0  0  0  0
    8.2727  -13.3147   17.9536 S   0  0  0  0  0  0  0  0  0  0  0  0
    8.7124  -14.8522   18.8096 C   0  0  0  0  0  0  0  0  0  0  0  0
    9.0037  -14.6281   20.2797 C   0  0  0  0  0  0  0  0  0  0  0  0
    9.5153  -15.9079   20.9251 C   0  0  2  0  0  0  0  0  0  0  0  0
    8.7054  -17.0311   20.6221 N   0  0  0  0  0  0  0  0  0  0  0  0
    9.6769  -15.7047   22.3991 C   0  0  0  0  0  0  0  0  0  0  0  0
   10.4144  -14.8201   22.8644 O   0  0  0  0  0  0  0  0  0  0  0  0
    8.9693  -16.5384   23.3434 N   0  0  0  0  0  0  0  0  0  0  0  0
    8.8868  -16.1773   24.7417 C   0  0  1  0  0  0  0  0  0  0  0  0
    7.5642  -16.6880   25.3327 C   0  0  0  0  0  0  0  0  0  0  0  0
    6.5001  -15.6761   25.1731 C   0  0  0  0  0  0  0  0  0  0  0  0
    5.2382  -15.8591   24.6719 C   0  0  0  0  0  0  0  0  0  0  0  0
    4.6168  -14.6600   24.7160 N   0  0  0  0  0  0  0  0  0  0  0  0
    5.4279  -13.7284   25.2208 C   0  0  0  0  0  0  0  0  0  0  0  0
    5.2817  -12.3854   25.4775 C   0  0  0  0  0  0  0  0  0  0  0  0
    6.3170  -11.6297   26.0311 C   0  0  0  0  0  0  0  0  0  0  0  0
    7.5160  -12.2878   26.3171 C   0  0  0  0  0  0  0  0  0  0  0  0
    7.6797  -13.6319   26.0672 C   0  0  0  0  0  0  0  0  0  0  0  0
    6.6171  -14.3457   25.5146 C   0  0  0  0  0  0  0  0  0  0  0  0
   10.0145  -16.6594   25.5615 C   0  0  0  0  0  0  0  0  0  0  0  0
   10.8842  -17.3652   24.9977 O   0  0  0  0  0  0  0  0  0  0  0  0
   10.9659  -13.8209   30.1088 C   0  0  0  0  0  0  0  0  0  0  0  0
   11.2266  -14.5362   28.8313 C   0  0  0  0  0  0  0  0  0  0  0  0
   11.4921  -16.0006   28.9399 C   0  0  2  0  0  0  0  0  0  0  0  0
   12.6937  -16.2415   29.7917 C   0  0  0  0  0  0  0  0  0  0  0  0
   11.3858  -16.8159   27.6878 C   0  0  2  0  0  0  0  0  0  0  0  0
   10.1830  -16.3731   26.9347 N   0  0  0  0  0  0  0  0  0  0  0  0
   11.3804  -18.2656   27.8497 C   0  0  0  0  0  0  0  0  0  0  0  0
   10.3691  -18.9853   28.0525 O   0  0  0  0  0  0  0  0  0  0  0  0
   12.5832  -19.0116   27.7845 O   0  0  0  0  0  0  0  0  0  0  0  0
  2  1  1  0
  3  2  1  0
  4  3  1  0
  5  4  1  0
  5  6  1  1
  7  8  2  0
  7  5  1  0
  9  7  1  0
 10  9  1  0
 10 11  1  1
 11 12  1  0
 12 13  2  0
 12 20  1  0
 13 14  1  0
 14 15  1  0
 15 16  2  0
 16 17  1  0
 18 17  2  0
 19 18  1  0
 20 19  2  0
 20 15  1  0
 21 10  1  0
 22 21  2  0
 23 24  1  0
 24 25  1  0
 25 26  1  6
 27 25  1  0
 27 28  1  1
 28 21  1  0
 29 27  1  0
 30 29  2  0
 31 29  1  0
M  END
$$$$
