MWI.pdb
     RDKit          3D

 31 32  0  0  1  0  0  0  0  0999 V2000
    8.2063  -11.6162   18.9907 C   0  0  0  0  0  0  0  0  0  0  0  0
    8.4261  -12.7402   17.5933 S   0  0  0  0  0  0  0  0  0  0  0  0
    9.1555  -14.2930   18.1821 C   0  0  0  0  0  0  0  0  0  0  0  0
    8.6152  -14.7040   19.5369 C   0  0  0  0  0  0  0  0  0  0  0  0
    9.5040  -15.7661   20.1679 C   0  0  2  0  0  0  0  0  0  0  0  0
    9.1074  -17.0824   19.8225 N   0  0  0  0  0  0  0  0  0  0  0  0
    9.5673  -15.5618   21.6493 C   0  0  0  0  0  0  0  0  0  0  0  0
   10.2276  -14.6414   22.1588 O   0  0  0  0  0  0  0  0  0  0  0  0
    8.8509  -16.4366   22.5485 N   0  0  0  0  0  0  0  0  0  0  0  0
    8.6866  -16.0983   23.9453 C   0  0  1  0  0  0  0  0  0  0  0  0
    7.4189  -16.7681   24.4963 C   0  0  0  0  0  0  0  0  0  0  0  0
    6.5465  -15.7701   25.1479 C   0  0  0  0  0  0  0  0  0  0  0  0
    5.3146  -15.9748   25.7115 C   0  0  0  0  0  0  0  0  0  0  0  0
    4.8922  -14.7814   26.1842 N   0  0  0  0  0  0  0  0  0  0  0  0
    5.7995  -13.8328   25.9444 C   0  0  0  0  0  0  0  0  0  0  0  0
    5.8566  -12.4870   26.2210 C   0  0  0  0  0  0  0  0  0  0  0  0
    6.9579  -11.7112   25.8542 C   0  0  0  0  0  0  0  0  0  0  0  0
    8.0078  -12.3518   25.1911 C   0  0  0  0  0  0  0  0  0  0  0  0
    7.9678  -13.6985   24.9067 C   0  0  0  0  0  0  0  0  0  0  0  0
    6.8474  -14.4327   25.2935 C   0  0  0  0  0  0  0  0  0  0  0  0
    9.8407  -16.4475   24.7952 C   0  0  0  0  0  0  0  0  0  0  0  0
   10.7301  -17.1781   24.2976 O   0  0  0  0  0  0  0  0  0  0  0  0
   10.8787  -13.3836   29.3099 C   0  0  0  0  0  0  0  0  0  0  0  0
   11.0750  -14.1597   28.0566 C   0  0  0  0  0  0  0  0  0  0  0  0
   11.1937  -15.6391   28.2111 C   0  0  2  0  0  0  0  0  0  0  0  0
   12.2679  -15.9670   29.1938 C   0  0  0  0  0  0  0  0  0  0  0  0
   11.1520  -16.4687   26.9645 C   0  0  2  0  0  0  0  0  0  0  0  0
   10.0135  -16.0083   26.1268 N   0  0  0  0  0  0  0  0  0  0  0  0
   11.1010  -17.9155   27.1430 C   0  0  0  0  0  0  0  0  0  0  0  0
   12.0840  -18.6998   27.1266 O   0  0  0  0  0  0  0  0  0  0  0  0
    9.8693  -18.5807   27.3623 O   0  0  0  0  0  0  0  0  0  0  0  0
  2  1  1  0
  3  2  1  0
  4  3  1  0
  5  4  1  0
  5  6  1  1
  7  8  2  0
  7  5  1  0
  9  7  1  0
 10  9  1  0
 10 11  1  1
 11 12  1  0
 12 13  2  0
 12 20  1  0
 13 14  1  0
 14 15  1  0
 15 16  2  0
 16 17  1  0
 18 17  2  0
 19 18  1  0
 20 19  2  0
 20 15  1  0
 21 10  1  0
 22 21  2  0
 23 24  1  0
 24 25  1  0
 25 26  1  6
 27 25  1  0
 27 28  1  1
 28 21  1  0
 29 27  1  0
 30 29  2  0
 31 29  1  0
M  END
$$$$
