MWI.pdb
     RDKit          3D

 31 32  0  0  1  0  0  0  0  0999 V2000
    8.3916  -12.1403   17.7829 C   0  0  0  0  0  0  0  0  0  0  0  0
    8.6842  -13.5472   16.6878 S   0  0  0  0  0  0  0  0  0  0  0  0
    9.2838  -14.9527   17.6650 C   0  0  0  0  0  0  0  0  0  0  0  0
    9.2846  -14.6599   19.1518 C   0  0  0  0  0  0  0  0  0  0  0  0
    9.8478  -15.8406   19.9295 C   0  0  2  0  0  0  0  0  0  0  0  0
    9.2487  -17.0709   19.5596 N   0  0  0  0  0  0  0  0  0  0  0  0
    9.7444  -15.5773   21.3993 C   0  0  0  0  0  0  0  0  0  0  0  0
   10.3818  -14.6649   21.9506 O   0  0  0  0  0  0  0  0  0  0  0  0
    8.8865  -16.3830   22.2372 N   0  0  0  0  0  0  0  0  0  0  0  0
    8.6175  -16.0084   23.6083 C   0  0  1  0  0  0  0  0  0  0  0  0
    7.3284  -16.6909   24.0897 C   0  0  0  0  0  0  0  0  0  0  0  0
    6.5537  -15.7815   24.9584 C   0  0  0  0  0  0  0  0  0  0  0  0
    5.4348  -16.0751   25.6925 C   0  0  0  0  0  0  0  0  0  0  0  0
    5.0707  -14.9407   26.3301 N   0  0  0  0  0  0  0  0  0  0  0  0
    5.9069  -13.9445   26.0320 C   0  0  0  0  0  0  0  0  0  0  0  0
    5.9807  -12.6254   26.4132 C   0  0  0  0  0  0  0  0  0  0  0  0
    6.9911  -11.7840   25.9438 C   0  0  0  0  0  0  0  0  0  0  0  0
    7.9318  -12.3303   25.0667 C   0  0  0  0  0  0  0  0  0  0  0  0
    7.8736  -13.6490   24.6750 C   0  0  0  0  0  0  0  0  0  0  0  0
    6.8467  -14.4513   25.1709 C   0  0  0  0  0  0  0  0  0  0  0  0
    9.7161  -16.3067   24.5465 C   0  0  0  0  0  0  0  0  0  0  0  0
   10.6142  -17.0922   24.1606 O   0  0  0  0  0  0  0  0  0  0  0  0
   10.4817  -12.9824   28.9353 C   0  0  0  0  0  0  0  0  0  0  0  0
   10.5496  -13.8557   27.7335 C   0  0  0  0  0  0  0  0  0  0  0  0
   10.8704  -15.2918   27.9815 C   0  0  2  0  0  0  0  0  0  0  0  0
   12.0283  -15.4038   28.9165 C   0  0  0  0  0  0  0  0  0  0  0  0
   10.8738  -16.2121   26.7997 C   0  0  2  0  0  0  0  0  0  0  0  0
    9.8271  -15.7615   25.8452 N   0  0  0  0  0  0  0  0  0  0  0  0
   10.7292  -17.6364   27.0794 C   0  0  0  0  0  0  0  0  0  0  0  0
    9.6506  -18.2831   27.0959 O   0  0  0  0  0  0  0  0  0  0  0  0
   11.8587  -18.4419   27.3676 O   0  0  0  0  0  0  0  0  0  0  0  0
  2  1  1  0
  3  2  1  0
  4  3  1  0
  5  4  1  0
  5  6  1  1
  7  8  2  0
  7  5  1  0
  9  7  1  0
 10  9  1  0
 10 11  1  1
 11 12  1  0
 12 13  2  0
 12 20  1  0
 13 14  1  0
 14 15  1  0
 15 16  2  0
 16 17  1  0
 18 17  2  0
 19 18  1  0
 20 19  2  0
 20 15  1  0
 21 10  1  0
 22 21  2  0
 23 24  1  0
 24 25  1  0
 25 26  1  6
 27 25  1  0
 27 28  1  6
 28 21  1  0
 29 27  1  0
 30 29  2  0
 31 29  1  0
M  END
$$$$
