MWI.pdb
     RDKit          3D

 31 32  0  0  1  0  0  0  0  0999 V2000
    8.1855  -11.6522   20.4113 C   0  0  0  0  0  0  0  0  0  0  0  0
    8.6457  -12.3912   18.8281 S   0  0  0  0  0  0  0  0  0  0  0  0
    9.6106  -13.8975   19.1278 C   0  0  0  0  0  0  0  0  0  0  0  0
    8.7427  -15.1394   19.1569 C   0  0  0  0  0  0  0  0  0  0  0  0
    9.4263  -16.2520   19.9383 C   0  0  2  0  0  0  0  0  0  0  0  0
    8.8267  -17.5177   19.7198 N   0  0  0  0  0  0  0  0  0  0  0  0
    9.4830  -15.8930   21.3903 C   0  0  0  0  0  0  0  0  0  0  0  0
   10.1743  -14.9495   21.8081 O   0  0  0  0  0  0  0  0  0  0  0  0
    8.7237  -16.6385   22.3675 N   0  0  0  0  0  0  0  0  0  0  0  0
    8.6296  -16.1899   23.7395 C   0  0  1  0  0  0  0  0  0  0  0  0
    7.4252  -16.8555   24.4220 C   0  0  0  0  0  0  0  0  0  0  0  0
    6.6750  -15.8696   25.2263 C   0  0  0  0  0  0  0  0  0  0  0  0
    5.5884  -16.0963   26.0294 C   0  0  0  0  0  0  0  0  0  0  0  0
    5.2371  -14.9067   26.5654 N   0  0  0  0  0  0  0  0  0  0  0  0
    6.0505  -13.9394   26.1374 C   0  0  0  0  0  0  0  0  0  0  0  0
    6.1249  -12.5885   26.3829 C   0  0  0  0  0  0  0  0  0  0  0  0
    7.1075  -11.7910   25.7930 C   0  0  0  0  0  0  0  0  0  0  0  0
    8.0193  -12.4154   24.9379 C   0  0  0  0  0  0  0  0  0  0  0  0
    7.9601  -13.7669   24.6813 C   0  0  0  0  0  0  0  0  0  0  0  0
    6.9617  -14.5229   25.2943 C   0  0  0  0  0  0  0  0  0  0  0  0
    9.8455  -16.4255   24.5408 C   0  0  0  0  0  0  0  0  0  0  0  0
   10.5281  -17.4439   24.2774 O   0  0  0  0  0  0  0  0  0  0  0  0
   10.6811  -14.9648   30.0783 C   0  0  0  0  0  0  0  0  0  0  0  0
   10.2846  -14.9487   28.6451 C   0  0  0  0  0  0  0  0  0  0  0  0
   11.3993  -14.9919   27.6540 C   0  0  2  0  0  0  0  0  0  0  0  0
   11.7685  -13.6071   27.2376 C   0  0  0  0  0  0  0  0  0  0  0  0
   11.3154  -16.0174   26.5654 C   0  0  2  0  0  0  0  0  0  0  0  0
   10.2949  -15.5778   25.5778 N   0  0  0  0  0  0  0  0  0  0  0  0
   11.0634  -17.3929   26.9805 C   0  0  0  0  0  0  0  0  0  0  0  0
    9.9591  -17.9926   26.9283 O   0  0  0  0  0  0  0  0  0  0  0  0
   12.1047  -18.2005   27.5009 O   0  0  0  0  0  0  0  0  0  0  0  0
  2  1  1  0
  3  2  1  0
  4  3  1  0
  5  4  1  0
  5  6  1  1
  7  8  2  0
  7  5  1  0
  9  7  1  0
 10  9  1  0
 10 11  1  1
 11 12  1  0
 12 13  2  0
 12 20  1  0
 13 14  1  0
 14 15  1  0
 15 16  2  0
 16 17  1  0
 18 17  2  0
 19 18  1  0
 20 19  2  0
 20 15  1  0
 21 10  1  0
 22 21  2  0
 23 24  1  0
 24 25  1  0
 25 26  1  6
 27 25  1  0
 27 28  1  6
 28 21  1  0
 29 27  1  0
 30 29  2  0
 31 29  1  0
M  END
$$$$
