MWI.pdb
     RDKit          3D

 31 32  0  0  1  0  0  0  0  0999 V2000
    7.3352  -13.8218   15.9543 C   0  0  0  0  0  0  0  0  0  0  0  0
    8.1460  -13.3207   17.4891 S   0  0  0  0  0  0  0  0  0  0  0  0
    8.6859  -14.7984   18.3918 C   0  0  0  0  0  0  0  0  0  0  0  0
    9.2303  -14.4650   19.7662 C   0  0  0  0  0  0  0  0  0  0  0  0
    9.6812  -15.7287   20.4843 C   0  0  2  0  0  0  0  0  0  0  0  0
    8.9179  -16.8651   20.1164 N   0  0  0  0  0  0  0  0  0  0  0  0
    9.6833  -15.4999   21.9634 C   0  0  0  0  0  0  0  0  0  0  0  0
   10.3024  -14.5564   22.4823 O   0  0  0  0  0  0  0  0  0  0  0  0
    8.9535  -16.3773   22.8493 N   0  0  0  0  0  0  0  0  0  0  0  0
    8.8050  -16.0642   24.2537 C   0  0  1  0  0  0  0  0  0  0  0  0
    7.5098  -16.6908   24.7914 C   0  0  0  0  0  0  0  0  0  0  0  0
    6.4854  -15.6508   25.0167 C   0  0  0  0  0  0  0  0  0  0  0  0
    5.1435  -15.7247   24.7501 C   0  0  0  0  0  0  0  0  0  0  0  0
    4.6013  -14.5425   25.1166 N   0  0  0  0  0  0  0  0  0  0  0  0
    5.5383  -13.7254   25.6013 C   0  0  0  0  0  0  0  0  0  0  0  0
    5.5095  -12.4458   26.1038 C   0  0  0  0  0  0  0  0  0  0  0  0
    6.6672  -11.8138   26.5618 C   0  0  0  0  0  0  0  0  0  0  0  0
    7.8653  -12.5295   26.4916 C   0  0  0  0  0  0  0  0  0  0  0  0
    7.9124  -13.8117   25.9920 C   0  0  0  0  0  0  0  0  0  0  0  0
    6.7303  -14.4022   25.5472 C   0  0  0  0  0  0  0  0  0  0  0  0
    9.9434  -16.4826   25.0935 C   0  0  0  0  0  0  0  0  0  0  0  0
   10.8124  -17.2201   24.5706 O   0  0  0  0  0  0  0  0  0  0  0  0
   10.8362  -13.5846   29.6710 C   0  0  0  0  0  0  0  0  0  0  0  0
   11.1206  -14.2990   28.3981 C   0  0  0  0  0  0  0  0  0  0  0  0
   11.3485  -15.7698   28.5063 C   0  0  2  0  0  0  0  0  0  0  0  0
   12.5033  -16.0440   29.4112 C   0  0  0  0  0  0  0  0  0  0  0  0
   11.2831  -16.5730   27.2436 C   0  0  2  0  0  0  0  0  0  0  0  0
   10.1228  -16.1023   26.4423 N   0  0  0  0  0  0  0  0  0  0  0  0
   11.2447  -18.0236   27.3923 C   0  0  0  0  0  0  0  0  0  0  0  0
   10.2135  -18.7256   27.5521 O   0  0  0  0  0  0  0  0  0  0  0  0
   12.4349  -18.7917   27.3640 O   0  0  0  0  0  0  0  0  0  0  0  0
  2  1  1  0
  3  2  1  0
  4  3  1  0
  5  4  1  0
  5  6  1  1
  7  8  2  0
  7  5  1  0
  9  7  1  0
 10  9  1  0
 10 11  1  1
 11 12  1  0
 12 13  2  0
 12 20  1  0
 13 14  1  0
 14 15  1  0
 15 16  2  0
 16 17  1  0
 18 17  2  0
 19 18  1  0
 20 19  2  0
 20 15  1  0
 21 10  1  0
 22 21  2  0
 23 24  1  0
 24 25  1  0
 25 26  1  6
 27 25  1  0
 27 28  1  1
 28 21  1  0
 29 27  1  0
 30 29  2  0
 31 29  1  0
M  END
$$$$
