MWI.pdb
     RDKit          3D

 31 32  0  0  1  0  0  0  0  0999 V2000
   15.5375  -14.3215   19.2878 C   0  0  0  0  0  0  0  0  0  0  0  0
   15.1449  -16.0204   18.8146 S   0  0  0  0  0  0  0  0  0  0  0  0
   13.3443  -16.2129   18.7116 C   0  0  0  0  0  0  0  0  0  0  0  0
   12.6234  -15.4786   19.8240 C   0  0  0  0  0  0  0  0  0  0  0  0
   11.1189  -15.6755   19.7083 C   0  0  2  0  0  0  0  0  0  0  0  0
   10.5739  -15.0410   18.5638 N   0  0  0  0  0  0  0  0  0  0  0  0
   10.4498  -15.2378   20.9735 C   0  0  0  0  0  0  0  0  0  0  0  0
   10.5758  -14.0854   21.4198 O   0  0  0  0  0  0  0  0  0  0  0  0
    9.6213  -16.1505   21.7270 N   0  0  0  0  0  0  0  0  0  0  0  0
    9.0279  -15.7541   22.9853 C   0  0  1  0  0  0  0  0  0  0  0  0
    7.7227  -16.5316   23.2117 C   0  0  0  0  0  0  0  0  0  0  0  0
    6.9792  -15.9733   24.3594 C   0  0  0  0  0  0  0  0  0  0  0  0
    6.1272  -16.6322   25.2063 C   0  0  0  0  0  0  0  0  0  0  0  0
    5.6800  -15.7252   26.1026 N   0  0  0  0  0  0  0  0  0  0  0  0
    6.2093  -14.5244   25.8606 C   0  0  0  0  0  0  0  0  0  0  0  0
    6.0877  -13.2972   26.4688 C   0  0  0  0  0  0  0  0  0  0  0  0
    6.7789  -12.1777   26.0014 C   0  0  0  0  0  0  0  0  0  0  0  0
    7.6040  -12.3465   24.8865 C   0  0  0  0  0  0  0  0  0  0  0  0
    7.7382  -13.5681   24.2655 C   0  0  0  0  0  0  0  0  0  0  0  0
    7.0288  -14.6579   24.7687 C   0  0  0  0  0  0  0  0  0  0  0  0
    9.9128  -15.9205   24.1538 C   0  0  0  0  0  0  0  0  0  0  0  0
   10.9230  -16.6511   24.0197 O   0  0  0  0  0  0  0  0  0  0  0  0
    9.1733  -12.6645   28.7127 C   0  0  0  0  0  0  0  0  0  0  0  0
    9.8640  -13.3684   27.5995 C   0  0  0  0  0  0  0  0  0  0  0  0
   10.0418  -14.8410   27.7627 C   0  0  2  0  0  0  0  0  0  0  0  0
   10.6748  -15.1376   29.0813 C   0  0  0  0  0  0  0  0  0  0  0  0
   10.5596  -15.6082   26.5849 C   0  0  2  0  0  0  0  0  0  0  0  0
    9.7019  -15.3067   25.4088 N   0  0  0  0  0  0  0  0  0  0  0  0
   10.7026  -17.0499   26.7549 C   0  0  0  0  0  0  0  0  0  0  0  0
   11.7489  -17.6554   27.1020 O   0  0  0  0  0  0  0  0  0  0  0  0
    9.6097  -17.9231   26.5304 O   0  0  0  0  0  0  0  0  0  0  0  0
  2  1  1  0
  3  2  1  0
  4  3  1  0
  5  4  1  0
  5  6  1  6
  7  8  2  0
  7  5  1  0
  9  7  1  0
 10  9  1  0
 10 11  1  1
 11 12  1  0
 12 13  2  0
 12 20  1  0
 13 14  1  0
 14 15  1  0
 15 16  2  0
 16 17  1  0
 18 17  2  0
 19 18  1  0
 20 19  2  0
 20 15  1  0
 21 10  1  0
 22 21  2  0
 23 24  1  0
 24 25  1  0
 25 26  1  1
 27 25  1  0
 27 28  1  6
 28 21  1  0
 29 27  1  0
 30 29  2  0
 31 29  1  0
M  END
$$$$
