QRG.pdb
     RDKit          3D

 25 24  0  0  1  0  0  0  0  0999 V2000
    9.5202  -14.5525   16.8662 N   0  0  0  0  0  0  0  0  0  0  0  0
    8.3464  -15.2261   17.2973 C   0  0  0  0  0  0  0  0  0  0  0  0
    7.2979  -14.9895   16.6577 O   0  0  0  0  0  0  0  0  0  0  0  0
    8.3524  -16.1429   18.4246 C   0  0  0  0  0  0  0  0  0  0  0  0
    9.6319  -16.4278   19.1010 C   0  0  0  0  0  0  0  0  0  0  0  0
    9.6014  -17.2861   20.3153 C   0  0  2  0  0  0  0  0  0  0  0  0
    8.3893  -17.9797   20.5824 N   0  0  0  0  0  0  0  0  0  0  0  0
    9.9907  -16.5258   21.5326 C   0  0  0  0  0  0  0  0  0  0  0  0
   11.0867  -15.9087   21.4803 O   0  0  0  0  0  0  0  0  0  0  0  0
    6.6376  -12.3690   27.5798 N   0  0  0  0  0  0  0  0  0  0  0  0
    6.8949  -12.3675   26.1742 C   0  0  0  0  0  0  0  0  0  0  0  0
    7.6599  -11.4606   25.6688 N   0  0  0  0  0  0  0  0  0  0  0  0
    6.2940  -13.3692   25.3768 N   0  0  0  0  0  0  0  0  0  0  0  0
    6.5535  -13.4538   23.9466 C   0  0  0  0  0  0  0  0  0  0  0  0
    7.3649  -14.6961   23.6497 C   0  0  0  0  0  0  0  0  0  0  0  0
    8.7514  -14.6056   24.2125 C   0  0  0  0  0  0  0  0  0  0  0  0
    9.6190  -15.7959   23.9280 C   0  0  2  0  0  0  0  0  0  0  0  0
    9.2154  -16.4752   22.6860 N   0  0  0  0  0  0  0  0  0  0  0  0
    9.4965  -16.8188   25.0263 C   0  0  0  0  0  0  0  0  0  0  0  0
    8.3767  -17.2605   25.3892 O   0  0  0  0  0  0  0  0  0  0  0  0
    7.8262  -11.4252   24.6459 N   0  0  0  0  0  0  0  0  0  0  0  0
   10.6328  -17.3328   25.7036 C   0  0  0  0  0  0  0  0  0  0  0  0
   10.5391  -18.2740   26.7877 C   0  0  0  0  0  0  0  0  0  0  0  0
   11.8443  -18.5525   27.4210 O   0  0  0  0  0  0  0  0  0  0  0  0
   11.8189  -19.2897   28.6069 O   0  0  0  0  0  0  0  0  0  0  0  0
  2  1  1  0
  2  4  1  0
  3  2  2  0
  5  4  1  0
  5  6  1  0
  6  8  1  0
  6  7  1  1
  8  9  2  0
 10 11  1  0
 11 13  1  0
 11 12  2  0
 13 14  1  0
 14 15  1  0
 17 16  1  1
 16 15  1  0
 18 17  1  0
 18  8  1  0
 19 20  2  0
 19 17  1  0
 21 19  1  0
 22 21  1  0
 23 24  1  0
 23 22  1  0
 25 23  2  0
M  END
$$$$
