QRG.pdb
     RDKit          3D

 25 24  0  0  1  0  0  0  0  0999 V2000
   13.5437  -14.1181   17.1020 N   0  0  0  0  0  0  0  0  0  0  0  0
   14.4633  -14.2001   18.1813 C   0  0  0  0  0  0  0  0  0  0  0  0
   15.5609  -13.6203   18.0273 O   0  0  0  0  0  0  0  0  0  0  0  0
   14.1555  -14.9208   19.4049 C   0  0  0  0  0  0  0  0  0  0  0  0
   13.4151  -16.1933   19.3119 C   0  0  0  0  0  0  0  0  0  0  0  0
   13.0479  -16.8792   20.5795 C   0  0  2  0  0  0  0  0  0  0  0  0
   12.3281  -18.0999   20.4651 N   0  0  0  0  0  0  0  0  0  0  0  0
   12.3040  -15.9742   21.4956 C   0  0  0  0  0  0  0  0  0  0  0  0
   12.9085  -14.9347   21.8680 O   0  0  0  0  0  0  0  0  0  0  0  0
    6.9309  -12.8514   18.1212 N   0  0  0  0  0  0  0  0  0  0  0  0
    8.1843  -13.4085   17.7208 C   0  0  0  0  0  0  0  0  0  0  0  0
    8.3610  -13.7593   16.4924 N   0  0  0  0  0  0  0  0  0  0  0  0
    9.1980  -13.5601   18.6954 N   0  0  0  0  0  0  0  0  0  0  0  0
    9.0878  -14.5553   19.7525 C   0  0  0  0  0  0  0  0  0  0  0  0
    9.2089  -13.8800   21.1012 C   0  0  0  0  0  0  0  0  0  0  0  0
    8.9997  -14.8444   22.2297 C   0  0  0  0  0  0  0  0  0  0  0  0
   10.2634  -15.3523   22.8587 C   0  0  2  0  0  0  0  0  0  0  0  0
   11.0110  -16.2272   21.9408 N   0  0  0  0  0  0  0  0  0  0  0  0
    9.9555  -16.1839   24.0757 C   0  0  0  0  0  0  0  0  0  0  0  0
    8.8029  -16.2109   24.5773 O   0  0  0  0  0  0  0  0  0  0  0  0
    9.2770  -14.1312   16.1798 N   0  0  0  0  0  0  0  0  0  0  0  0
   10.9458  -16.9747   24.7146 C   0  0  0  0  0  0  0  0  0  0  0  0
   10.6629  -17.8252   25.8401 C   0  0  0  0  0  0  0  0  0  0  0  0
   11.8644  -18.5106   26.3584 O   0  0  0  0  0  0  0  0  0  0  0  0
   11.6758  -19.3652   27.4467 O   0  0  0  0  0  0  0  0  0  0  0  0
  2  1  1  0
  2  4  1  0
  3  2  2  0
  5  4  1  0
  5  6  1  0
  6  8  1  0
  6  7  1  6
  8  9  2  0
 10 11  1  0
 11 13  1  0
 11 12  2  0
 13 14  1  0
 14 15  1  0
 17 16  1  6
 16 15  1  0
 18 17  1  0
 18  8  1  0
 19 20  2  0
 19 17  1  0
 21 19  1  0
 22 21  1  0
 23 24  1  0
 23 22  1  0
 25 23  2  0
M  END
$$$$
