QRG.pdb
     RDKit          3D

 25 24  0  0  1  0  0  0  0  0999 V2000
   13.0940  -15.1855   13.4878 N   0  0  0  0  0  0  0  0  0  0  0  0
   13.9408  -15.2178   14.6276 C   0  0  0  0  0  0  0  0  0  0  0  0
   15.1205  -15.5879   14.4388 O   0  0  0  0  0  0  0  0  0  0  0  0
   13.4692  -14.8450   15.9505 C   0  0  0  0  0  0  0  0  0  0  0  0
   14.4050  -14.9294   17.0875 C   0  0  0  0  0  0  0  0  0  0  0  0
   14.1139  -15.9217   18.1565 C   0  0  2  0  0  0  0  0  0  0  0  0
   13.3221  -17.0451   17.7930 N   0  0  0  0  0  0  0  0  0  0  0  0
   13.5031  -15.2773   19.3496 C   0  0  0  0  0  0  0  0  0  0  0  0
   14.0629  -14.2304   19.7682 O   0  0  0  0  0  0  0  0  0  0  0  0
    6.4406  -12.9672   18.8430 N   0  0  0  0  0  0  0  0  0  0  0  0
    7.6080  -12.9727   18.0189 C   0  0  0  0  0  0  0  0  0  0  0  0
    7.5200  -13.3672   16.7943 N   0  0  0  0  0  0  0  0  0  0  0  0
    8.8329  -12.5433   18.5806 N   0  0  0  0  0  0  0  0  0  0  0  0
    9.2993  -13.0575   19.8605 C   0  0  0  0  0  0  0  0  0  0  0  0
    9.7724  -14.4849   19.6930 C   0  0  0  0  0  0  0  0  0  0  0  0
   10.2397  -15.0745   20.9898 C   0  0  0  0  0  0  0  0  0  0  0  0
   11.7303  -15.1263   21.1504 C   0  0  2  0  0  0  0  0  0  0  0  0
   12.3766  -15.7732   19.9969 N   0  0  0  0  0  0  0  0  0  0  0  0
   12.1077  -15.9436   22.3575 C   0  0  0  0  0  0  0  0  0  0  0  0
   11.7288  -17.1354   22.4873 O   0  0  0  0  0  0  0  0  0  0  0  0
    8.3698  -13.4415   16.2049 N   0  0  0  0  0  0  0  0  0  0  0  0
   12.9057  -15.4125   23.4040 C   0  0  0  0  0  0  0  0  0  0  0  0
   13.3250  -16.1889   24.5405 C   0  0  0  0  0  0  0  0  0  0  0  0
   14.4158  -17.1323   24.2205 O   0  0  0  0  0  0  0  0  0  0  0  0
   15.6540  -16.8811   24.8157 O   0  0  0  0  0  0  0  0  0  0  0  0
  2  1  1  0
  2  4  1  0
  3  2  2  0
  5  4  1  0
  5  6  1  0
  6  8  1  0
  6  7  1  6
  8  9  2  0
 10 11  1  0
 11 13  1  0
 11 12  2  0
 13 14  1  0
 14 15  1  0
 17 16  1  6
 16 15  1  0
 18 17  1  0
 18  8  1  0
 19 20  2  0
 19 17  1  0
 21 19  1  0
 22 21  1  0
 23 24  1  0
 23 22  1  0
 25 23  2  0
M  END
$$$$
