QRG.pdb
     RDKit          3D

 25 24  0  0  1  0  0  0  0  0999 V2000
   11.4221  -17.0139   15.1493 N   0  0  0  0  0  0  0  0  0  0  0  0
   11.1831  -15.6318   15.3729 C   0  0  0  0  0  0  0  0  0  0  0  0
   11.9034  -14.8291   14.7395 O   0  0  0  0  0  0  0  0  0  0  0  0
   10.1587  -15.1641   16.2911 C   0  0  0  0  0  0  0  0  0  0  0  0
    9.2631  -16.1538   16.9191 C   0  0  0  0  0  0  0  0  0  0  0  0
    8.2805  -15.6651   17.9231 C   0  0  2  0  0  0  0  0  0  0  0  0
    7.7440  -14.3645   17.7179 N   0  0  0  0  0  0  0  0  0  0  0  0
    8.8263  -15.7402   19.3044 C   0  0  0  0  0  0  0  0  0  0  0  0
    9.2675  -14.6662   19.7909 O   0  0  0  0  0  0  0  0  0  0  0  0
    5.5967  -21.5587   24.2620 N   0  0  0  0  0  0  0  0  0  0  0  0
    5.1989  -21.3345   22.9080 C   0  0  0  0  0  0  0  0  0  0  0  0
    4.1476  -21.9232   22.4482 N   0  0  0  0  0  0  0  0  0  0  0  0
    5.9807  -20.4676   22.1094 N   0  0  0  0  0  0  0  0  0  0  0  0
    7.1494  -19.7889   22.6511 C   0  0  0  0  0  0  0  0  0  0  0  0
    7.8175  -18.9789   21.5616 C   0  0  0  0  0  0  0  0  0  0  0  0
    9.0878  -18.3413   22.0385 C   0  0  0  0  0  0  0  0  0  0  0  0
    9.3826  -17.0039   21.4263 C   0  0  2  0  0  0  0  0  0  0  0  0
    8.8664  -16.9129   20.0507 N   0  0  0  0  0  0  0  0  0  0  0  0
   10.8682  -16.7762   21.3344 C   0  0  0  0  0  0  0  0  0  0  0  0
   11.6330  -17.6343   20.8250 O   0  0  0  0  0  0  0  0  0  0  0  0
    3.7999  -21.7071   21.4956 N   0  0  0  0  0  0  0  0  0  0  0  0
   11.4767  -15.5879   21.8159 C   0  0  0  0  0  0  0  0  0  0  0  0
   12.5337  -15.5894   22.7922 C   0  0  0  0  0  0  0  0  0  0  0  0
   13.7458  -16.2929   22.3253 O   0  0  0  0  0  0  0  0  0  0  0  0
   14.9116  -15.5304   22.2256 O   0  0  0  0  0  0  0  0  0  0  0  0
  2  1  1  0
  2  4  1  0
  3  2  2  0
  5  4  1  0
  5  6  1  0
  6  8  1  0
  6  7  1  6
  8  9  2  0
 10 11  1  0
 11 13  1  0
 11 12  2  0
 13 14  1  0
 14 15  1  0
 17 16  1  6
 16 15  1  0
 18 17  1  0
 18  8  1  0
 19 20  2  0
 19 17  1  0
 21 19  1  0
 22 21  1  0
 23 24  1  0
 23 22  1  0
 25 23  2  0
M  END
$$$$
