QRG.pdb
     RDKit          3D

 25 24  0  0  1  0  0  0  0  0999 V2000
   12.4859  -23.0760   22.6414 N   0  0  0  0  0  0  0  0  0  0  0  0
   11.3180  -22.4157   22.1753 C   0  0  0  0  0  0  0  0  0  0  0  0
   10.3312  -22.4136   22.9438 O   0  0  0  0  0  0  0  0  0  0  0  0
   11.2614  -21.7750   20.8723 C   0  0  0  0  0  0  0  0  0  0  0  0
    9.9630  -21.6941   20.1770 C   0  0  0  0  0  0  0  0  0  0  0  0
    9.9321  -21.0607   18.8316 C   0  0  2  0  0  0  0  0  0  0  0  0
   10.6947  -21.6870   17.8081 N   0  0  0  0  0  0  0  0  0  0  0  0
   10.3122  -19.6243   18.8943 C   0  0  0  0  0  0  0  0  0  0  0  0
   11.4298  -19.3192   18.4015 O   0  0  0  0  0  0  0  0  0  0  0  0
    7.6194  -10.5501   20.1353 N   0  0  0  0  0  0  0  0  0  0  0  0
    8.1946  -11.7229   19.5561 C   0  0  0  0  0  0  0  0  0  0  0  0
    9.4055  -11.6855   19.1140 N   0  0  0  0  0  0  0  0  0  0  0  0
    7.4076  -12.8959   19.4844 N   0  0  0  0  0  0  0  0  0  0  0  0
    7.8497  -14.1415   20.0952 C   0  0  0  0  0  0  0  0  0  0  0  0
    8.6592  -14.9387   19.0958 C   0  0  0  0  0  0  0  0  0  0  0  0
    8.4801  -16.4153   19.2825 C   0  0  0  0  0  0  0  0  0  0  0  0
    9.7596  -17.1957   19.3473 C   0  0  2  0  0  0  0  0  0  0  0  0
    9.5065  -18.6415   19.4590 N   0  0  0  0  0  0  0  0  0  0  0  0
   10.5560  -16.8123   20.5664 C   0  0  0  0  0  0  0  0  0  0  0  0
   10.8662  -15.6161   20.7978 O   0  0  0  0  0  0  0  0  0  0  0  0
    9.8501  -12.5399   18.7300 N   0  0  0  0  0  0  0  0  0  0  0  0
   10.9947  -17.7770   21.5104 C   0  0  0  0  0  0  0  0  0  0  0  0
   11.6842  -17.4281   22.7241 C   0  0  0  0  0  0  0  0  0  0  0  0
   13.0936  -17.0493   22.4953 O   0  0  0  0  0  0  0  0  0  0  0  0
   13.8514  -16.7471   23.6288 O   0  0  0  0  0  0  0  0  0  0  0  0
  2  1  1  0
  2  4  1  0
  3  2  2  0
  5  4  1  0
  5  6  1  0
  6  8  1  0
  6  7  1  6
  8  9  2  0
 10 11  1  0
 11 13  1  0
 11 12  2  0
 13 14  1  0
 14 15  1  0
 17 16  1  1
 16 15  1  0
 18 17  1  0
 18  8  1  0
 19 20  2  0
 19 17  1  0
 21 19  1  0
 22 21  1  0
 23 24  1  0
 23 22  1  0
 25 23  2  0
M  END
$$$$
