QRG.pdb
     RDKit          3D

 25 24  0  0  1  0  0  0  0  0999 V2000
   18.2324  -13.7477   17.1092 N   0  0  0  0  0  0  0  0  0  0  0  0
   17.3666  -14.4102   16.1989 C   0  0  0  0  0  0  0  0  0  0  0  0
   17.8766  -14.8052   15.1273 O   0  0  0  0  0  0  0  0  0  0  0  0
   15.9581  -14.6205   16.4871 C   0  0  0  0  0  0  0  0  0  0  0  0
   15.4201  -14.1517   17.7781 C   0  0  0  0  0  0  0  0  0  0  0  0
   14.6690  -15.1259   18.6142 C   0  0  2  0  0  0  0  0  0  0  0  0
   14.0910  -16.2382   17.9432 N   0  0  0  0  0  0  0  0  0  0  0  0
   13.6125  -14.4563   19.4186 C   0  0  0  0  0  0  0  0  0  0  0  0
   13.9523  -13.4074   20.0262 O   0  0  0  0  0  0  0  0  0  0  0  0
    7.2425  -12.8817   16.3778 N   0  0  0  0  0  0  0  0  0  0  0  0
    7.4076  -14.2198   16.8511 C   0  0  0  0  0  0  0  0  0  0  0  0
    7.3663  -15.2000   16.0141 N   0  0  0  0  0  0  0  0  0  0  0  0
    7.6103  -14.4261   18.2356 N   0  0  0  0  0  0  0  0  0  0  0  0
    7.6452  -13.3094   19.1693 C   0  0  0  0  0  0  0  0  0  0  0  0
    8.8387  -13.4522   20.0884 C   0  0  0  0  0  0  0  0  0  0  0  0
   10.0158  -14.0588   19.3856 C   0  0  0  0  0  0  0  0  0  0  0  0
   11.2299  -14.2428   20.2472 C   0  0  2  0  0  0  0  0  0  0  0  0
   12.3095  -14.9313   19.5209 N   0  0  0  0  0  0  0  0  0  0  0  0
   10.9103  -15.1033   21.4409 C   0  0  0  0  0  0  0  0  0  0  0  0
   10.0370  -14.7637   22.2792 O   0  0  0  0  0  0  0  0  0  0  0  0
    7.6108  -16.1605   16.3188 N   0  0  0  0  0  0  0  0  0  0  0  0
   11.5755  -16.3341   21.6787 C   0  0  0  0  0  0  0  0  0  0  0  0
   11.2209  -17.2209   22.7548 C   0  0  0  0  0  0  0  0  0  0  0  0
   11.9845  -18.4853   22.7324 O   0  0  0  0  0  0  0  0  0  0  0  0
   11.6869  -19.4129   23.7332 O   0  0  0  0  0  0  0  0  0  0  0  0
  2  1  1  0
  2  4  1  0
  3  2  2  0
  5  4  1  0
  5  6  1  0
  6  8  1  0
  6  7  1  6
  8  9  2  0
 10 11  1  0
 11 13  1  0
 11 12  2  0
 13 14  1  0
 14 15  1  0
 17 16  1  6
 16 15  1  0
 18 17  1  0
 18  8  1  0
 19 20  2  0
 19 17  1  0
 21 19  1  0
 22 21  1  0
 23 24  1  0
 23 22  1  0
 25 23  2  0
M  END
$$$$
