QRG.pdb
     RDKit          3D

 25 24  0  0  1  0  0  0  0  0999 V2000
    9.7745  -12.1655   18.6784 N   0  0  0  0  0  0  0  0  0  0  0  0
    8.8888  -12.6140   17.6627 C   0  0  0  0  0  0  0  0  0  0  0  0
    9.2599  -12.4438   16.4805 O   0  0  0  0  0  0  0  0  0  0  0  0
    7.6128  -13.2370   17.9711 C   0  0  0  0  0  0  0  0  0  0  0  0
    7.2915  -13.5375   19.3790 C   0  0  0  0  0  0  0  0  0  0  0  0
    8.0638  -14.6140   20.0548 C   0  0  2  0  0  0  0  0  0  0  0  0
    8.1784  -15.8527   19.3664 N   0  0  0  0  0  0  0  0  0  0  0  0
    7.5493  -14.8790   21.4248 C   0  0  0  0  0  0  0  0  0  0  0  0
    6.3166  -14.6977   21.6044 O   0  0  0  0  0  0  0  0  0  0  0  0
    2.8292  -19.1137   22.6072 N   0  0  0  0  0  0  0  0  0  0  0  0
    4.0514  -19.8533   22.6415 C   0  0  0  0  0  0  0  0  0  0  0  0
    4.3656  -20.6088   21.6448 N   0  0  0  0  0  0  0  0  0  0  0  0
    4.8821  -19.7321   23.7798 N   0  0  0  0  0  0  0  0  0  0  0  0
    6.3313  -19.6676   23.6547 C   0  0  0  0  0  0  0  0  0  0  0  0
    6.8307  -18.3484   24.2024 C   0  0  0  0  0  0  0  0  0  0  0  0
    7.3291  -17.4447   23.1151 C   0  0  0  0  0  0  0  0  0  0  0  0
    7.8836  -16.1365   23.5964 C   0  0  2  0  0  0  0  0  0  0  0  0
    8.3531  -15.3034   22.4773 N   0  0  0  0  0  0  0  0  0  0  0  0
    9.0783  -16.3594   24.4855 C   0  0  0  0  0  0  0  0  0  0  0  0
    8.9634  -16.8980   25.6158 O   0  0  0  0  0  0  0  0  0  0  0  0
    5.2763  -21.1045   21.6291 N   0  0  0  0  0  0  0  0  0  0  0  0
   10.3872  -15.9743   24.0946 C   0  0  0  0  0  0  0  0  0  0  0  0
   11.5435  -16.1730   24.9274 C   0  0  0  0  0  0  0  0  0  0  0  0
   11.9730  -17.5851   24.9865 O   0  0  0  0  0  0  0  0  0  0  0  0
   13.2076  -17.8382   25.5883 O   0  0  0  0  0  0  0  0  0  0  0  0
  2  1  1  0
  2  4  1  0
  3  2  2  0
  5  4  1  0
  5  6  1  0
  6  8  1  0
  6  7  1  6
  8  9  2  0
 10 11  1  0
 11 13  1  0
 11 12  2  0
 13 14  1  0
 14 15  1  0
 17 16  1  6
 16 15  1  0
 18 17  1  0
 18  8  1  0
 19 20  2  0
 19 17  1  0
 21 19  1  0
 22 21  1  0
 23 24  1  0
 23 22  1  0
 25 23  2  0
M  END
$$$$
