QRG.pdb
     RDKit          3D

 25 24  0  0  1  0  0  0  0  0999 V2000
   12.4639  -19.2490   26.9321 N   0  0  0  0  0  0  0  0  0  0  0  0
   13.3027  -19.4213   25.7991 C   0  0  0  0  0  0  0  0  0  0  0  0
   14.5273  -19.2374   25.9755 O   0  0  0  0  0  0  0  0  0  0  0  0
   12.7746  -19.7893   24.4964 C   0  0  0  0  0  0  0  0  0  0  0  0
   11.3259  -20.0315   24.3604 C   0  0  0  0  0  0  0  0  0  0  0  0
   10.8104  -20.4381   23.0259 C   0  0  2  0  0  0  0  0  0  0  0  0
   11.3004  -21.6615   22.4924 N   0  0  0  0  0  0  0  0  0  0  0  0
   11.0076  -19.3667   22.0135 C   0  0  0  0  0  0  0  0  0  0  0  0
   11.8894  -19.5777   21.1401 O   0  0  0  0  0  0  0  0  0  0  0  0
    9.5394  -12.7434   17.9828 N   0  0  0  0  0  0  0  0  0  0  0  0
    8.1672  -12.7788   18.3799 C   0  0  0  0  0  0  0  0  0  0  0  0
    7.5844  -11.6900   18.7514 N   0  0  0  0  0  0  0  0  0  0  0  0
    7.4886  -14.0195   18.3538 N   0  0  0  0  0  0  0  0  0  0  0  0
    7.5179  -14.9214   19.4964 C   0  0  0  0  0  0  0  0  0  0  0  0
    8.8996  -15.5227   19.6344 C   0  0  0  0  0  0  0  0  0  0  0  0
    8.9626  -16.5300   20.7428 C   0  0  0  0  0  0  0  0  0  0  0  0
   10.2885  -17.2165   20.8874 C   0  0  2  0  0  0  0  0  0  0  0  0
   10.2797  -18.1819   21.9986 N   0  0  0  0  0  0  0  0  0  0  0  0
   11.3723  -16.2201   21.2039 C   0  0  0  0  0  0  0  0  0  0  0  0
   11.3970  -15.6039   22.2996 O   0  0  0  0  0  0  0  0  0  0  0  0
    6.6047  -11.7090   19.0905 N   0  0  0  0  0  0  0  0  0  0  0  0
   12.4146  -15.9277   20.2862 C   0  0  0  0  0  0  0  0  0  0  0  0
   13.4187  -14.9275   20.5341 C   0  0  0  0  0  0  0  0  0  0  0  0
   14.3619  -14.7692   19.4083 O   0  0  0  0  0  0  0  0  0  0  0  0
   15.2840  -13.7251   19.5077 O   0  0  0  0  0  0  0  0  0  0  0  0
  2  1  1  0
  2  4  1  0
  3  2  2  0
  5  4  1  0
  5  6  1  0
  6  8  1  0
  6  7  1  6
  8  9  2  0
 10 11  1  0
 11 13  1  0
 11 12  2  0
 13 14  1  0
 14 15  1  0
 17 16  1  1
 16 15  1  0
 18 17  1  0
 18  8  1  0
 19 20  2  0
 19 17  1  0
 21 19  1  0
 22 21  1  0
 23 24  1  0
 23 22  1  0
 25 23  2  0
M  END
$$$$
