QRG.pdb
     RDKit          3D

 25 24  0  0  1  0  0  0  0  0999 V2000
   11.3671  -19.6782   25.0692 N   0  0  0  0  0  0  0  0  0  0  0  0
   12.3000  -19.9149   24.0248 C   0  0  0  0  0  0  0  0  0  0  0  0
   13.3997  -20.4095   24.3574 O   0  0  0  0  0  0  0  0  0  0  0  0
   12.0029  -19.5991   22.6380 C   0  0  0  0  0  0  0  0  0  0  0  0
   10.6650  -19.0783   22.2996 C   0  0  0  0  0  0  0  0  0  0  0  0
   10.3631  -18.8126   20.8676 C   0  0  2  0  0  0  0  0  0  0  0  0
   10.6153  -19.8691   19.9503 N   0  0  0  0  0  0  0  0  0  0  0  0
   11.0525  -17.5879   20.3813 C   0  0  0  0  0  0  0  0  0  0  0  0
   12.0869  -17.7667   19.6865 O   0  0  0  0  0  0  0  0  0  0  0  0
    7.0934  -15.1785   17.1002 N   0  0  0  0  0  0  0  0  0  0  0  0
    7.5688  -13.8879   16.7127 C   0  0  0  0  0  0  0  0  0  0  0  0
    7.8497  -13.6589   15.4751 N   0  0  0  0  0  0  0  0  0  0  0  0
    7.7188  -12.8963   17.7100 N   0  0  0  0  0  0  0  0  0  0  0  0
    8.9448  -12.7854   18.4876 C   0  0  0  0  0  0  0  0  0  0  0  0
    9.0253  -13.9284   19.4758 C   0  0  0  0  0  0  0  0  0  0  0  0
   10.2962  -13.8920   20.2701 C   0  0  0  0  0  0  0  0  0  0  0  0
   11.1910  -15.0793   20.0704 C   0  0  2  0  0  0  0  0  0  0  0  0
   10.6116  -16.2983   20.6580 N   0  0  0  0  0  0  0  0  0  0  0  0
   12.5151  -14.8697   20.7563 C   0  0  0  0  0  0  0  0  0  0  0  0
   12.6514  -15.0607   21.9915 O   0  0  0  0  0  0  0  0  0  0  0  0
    8.2649  -12.7524   15.1906 N   0  0  0  0  0  0  0  0  0  0  0  0
   13.6695  -14.4477   20.0469 C   0  0  0  0  0  0  0  0  0  0  0  0
   14.9511  -14.2644   20.6746 C   0  0  0  0  0  0  0  0  0  0  0  0
   16.0812  -14.5459   19.7658 O   0  0  0  0  0  0  0  0  0  0  0  0
   17.3500  -14.1685   20.2110 O   0  0  0  0  0  0  0  0  0  0  0  0
  2  1  1  0
  2  4  1  0
  3  2  2  0
  5  4  1  0
  5  6  1  0
  6  8  1  0
  6  7  1  6
  8  9  2  0
 10 11  1  0
 11 13  1  0
 11 12  2  0
 13 14  1  0
 14 15  1  0
 17 16  1  1
 16 15  1  0
 18 17  1  0
 18  8  1  0
 19 20  2  0
 19 17  1  0
 21 19  1  0
 22 21  1  0
 23 24  1  0
 23 22  1  0
 25 23  2  0
M  END
$$$$
