QRG.pdb
     RDKit          3D

 25 24  0  0  1  0  0  0  0  0999 V2000
   -0.4801  -21.9931   20.5050 N   0  0  0  0  0  0  0  0  0  0  0  0
   -0.4792  -20.8067   21.2858 C   0  0  0  0  0  0  0  0  0  0  0  0
    0.0123  -19.7867   20.7545 O   0  0  0  0  0  0  0  0  0  0  0  0
   -1.0167  -20.7704   22.6354 C   0  0  0  0  0  0  0  0  0  0  0  0
   -1.6293  -21.9929   23.1885 C   0  0  0  0  0  0  0  0  0  0  0  0
   -2.1118  -21.9547   24.5949 C   0  0  2  0  0  0  0  0  0  0  0  0
   -1.1839  -21.5228   25.5818 N   0  0  0  0  0  0  0  0  0  0  0  0
   -2.6758  -23.2649   25.0156 C   0  0  0  0  0  0  0  0  0  0  0  0
   -3.0460  -24.0369   24.0928 O   0  0  0  0  0  0  0  0  0  0  0  0
    2.0813  -27.9340   29.1172 N   0  0  0  0  0  0  0  0  0  0  0  0
    1.8198  -26.5317   29.0336 C   0  0  0  0  0  0  0  0  0  0  0  0
    2.5738  -25.7049   29.6746 N   0  0  0  0  0  0  0  0  0  0  0  0
    0.7307  -26.0939   28.2446 N   0  0  0  0  0  0  0  0  0  0  0  0
   -0.0747  -27.0347   27.4789 C   0  0  0  0  0  0  0  0  0  0  0  0
   -1.1039  -26.2795   26.6666 C   0  0  0  0  0  0  0  0  0  0  0  0
   -2.1942  -25.7181   27.5290 C   0  0  0  0  0  0  0  0  0  0  0  0
   -3.2653  -24.9819   26.7800 C   0  0  2  0  0  0  0  0  0  0  0  0
   -2.8054  -23.6530   26.3447 N   0  0  0  0  0  0  0  0  0  0  0  0
   -4.4638  -24.7450   27.6604 C   0  0  0  0  0  0  0  0  0  0  0  0
   -4.4707  -23.8351   28.5281 O   0  0  0  0  0  0  0  0  0  0  0  0
    2.4146  -24.6831   29.5990 N   0  0  0  0  0  0  0  0  0  0  0  0
   -5.6395  -25.5329   27.5559 C   0  0  0  0  0  0  0  0  0  0  0  0
   -6.8438  -25.2437   28.2881 C   0  0  0  0  0  0  0  0  0  0  0  0
   -6.7691  -25.6592   29.7037 O   0  0  0  0  0  0  0  0  0  0  0  0
   -7.8889  -25.3907   30.4938 O   0  0  0  0  0  0  0  0  0  0  0  0
  2  1  1  0
  2  4  1  0
  3  2  2  0
  5  4  1  0
  5  6  1  0
  6  8  1  0
  6  7  1  1
  8  9  2  0
 10 11  1  0
 11 13  1  0
 11 12  2  0
 13 14  1  0
 14 15  1  0
 17 16  1  1
 16 15  1  0
 18 17  1  0
 18  8  1  0
 19 20  2  0
 19 17  1  0
 21 19  1  0
 22 21  1  0
 23 24  1  0
 23 22  1  0
 25 23  2  0
M  END
$$$$
