QRG.pdb
     RDKit          3D

 25 24  0  0  1  0  0  0  0  0999 V2000
   13.2967  -17.8806   26.8885 N   0  0  0  0  0  0  0  0  0  0  0  0
   12.0650  -18.5804   26.9899 C   0  0  0  0  0  0  0  0  0  0  0  0
   11.7969  -19.0841   28.1029 O   0  0  0  0  0  0  0  0  0  0  0  0
   11.1572  -18.7127   25.8630 C   0  0  0  0  0  0  0  0  0  0  0  0
    9.9850  -17.8205   25.7874 C   0  0  0  0  0  0  0  0  0  0  0  0
    9.0068  -18.0478   24.6902 C   0  0  2  0  0  0  0  0  0  0  0  0
    8.6577  -19.3970   24.4090 N   0  0  0  0  0  0  0  0  0  0  0  0
    9.4422  -17.3974   23.4257 C   0  0  0  0  0  0  0  0  0  0  0  0
   10.1549  -18.0926   22.6554 O   0  0  0  0  0  0  0  0  0  0  0  0
    8.1573  -12.1261   18.5534 N   0  0  0  0  0  0  0  0  0  0  0  0
    8.5319  -13.4740   18.2626 C   0  0  0  0  0  0  0  0  0  0  0  0
    9.1486  -13.7391   17.1614 N   0  0  0  0  0  0  0  0  0  0  0  0
    8.2084  -14.4819   19.2005 N   0  0  0  0  0  0  0  0  0  0  0  0
    6.9991  -14.4037   20.0077 C   0  0  0  0  0  0  0  0  0  0  0  0
    7.3701  -14.2128   21.4621 C   0  0  0  0  0  0  0  0  0  0  0  0
    8.8535  -14.1081   21.6514 C   0  0  0  0  0  0  0  0  0  0  0  0
    9.5518  -15.4213   21.8471 C   0  0  2  0  0  0  0  0  0  0  0  0
    9.1032  -16.0945   23.0769 N   0  0  0  0  0  0  0  0  0  0  0  0
   11.0364  -15.2180   21.9959 C   0  0  0  0  0  0  0  0  0  0  0  0
   11.5683  -15.0715   23.1257 O   0  0  0  0  0  0  0  0  0  0  0  0
    9.4500  -14.7083   16.9494 N   0  0  0  0  0  0  0  0  0  0  0  0
   11.9052  -15.1814   20.8744 C   0  0  0  0  0  0  0  0  0  0  0  0
   13.3338  -15.0591   20.9940 C   0  0  0  0  0  0  0  0  0  0  0  0
   14.0252  -15.1024   19.6892 O   0  0  0  0  0  0  0  0  0  0  0  0
   15.3639  -14.7047   19.6779 O   0  0  0  0  0  0  0  0  0  0  0  0
  2  1  1  0
  2  4  1  0
  3  2  2  0
  5  4  1  0
  5  6  1  0
  6  8  1  0
  6  7  1  6
  8  9  2  0
 10 11  1  0
 11 13  1  0
 11 12  2  0
 13 14  1  0
 14 15  1  0
 17 16  1  1
 16 15  1  0
 18 17  1  0
 18  8  1  0
 19 20  2  0
 19 17  1  0
 21 19  1  0
 22 21  1  0
 23 24  1  0
 23 22  1  0
 25 23  2  0
M  END
$$$$
