QRG.pdb
     RDKit          3D

 25 24  0  0  1  0  0  0  0  0999 V2000
   15.6443  -16.5982   13.8546 N   0  0  0  0  0  0  0  0  0  0  0  0
   14.4176  -16.8806   13.1967 C   0  0  0  0  0  0  0  0  0  0  0  0
   14.4965  -17.4335   12.0776 O   0  0  0  0  0  0  0  0  0  0  0  0
   13.1316  -16.5454   13.7842 C   0  0  0  0  0  0  0  0  0  0  0  0
   13.1047  -15.8677   15.0940 C   0  0  0  0  0  0  0  0  0  0  0  0
   11.7787  -15.6018   15.7131 C   0  0  2  0  0  0  0  0  0  0  0  0
   10.8877  -14.7626   14.9897 N   0  0  0  0  0  0  0  0  0  0  0  0
   11.9168  -15.0678   17.0942 C   0  0  0  0  0  0  0  0  0  0  0  0
   12.1707  -13.8390   17.1962 O   0  0  0  0  0  0  0  0  0  0  0  0
   13.1016  -16.7156   24.9398 N   0  0  0  0  0  0  0  0  0  0  0  0
   11.7172  -16.4685   25.1932 C   0  0  0  0  0  0  0  0  0  0  0  0
   11.1316  -17.0739   26.1697 N   0  0  0  0  0  0  0  0  0  0  0  0
   11.0288  -15.5612   24.3546 N   0  0  0  0  0  0  0  0  0  0  0  0
   10.6071  -15.9416   23.0139 C   0  0  0  0  0  0  0  0  0  0  0  0
   11.7630  -15.7768   22.0514 C   0  0  0  0  0  0  0  0  0  0  0  0
   11.3715  -16.1166   20.6447 C   0  0  0  0  0  0  0  0  0  0  0  0
   12.1764  -15.4201   19.5876 C   0  0  2  0  0  0  0  0  0  0  0  0
   11.7818  -15.8498   18.2362 N   0  0  0  0  0  0  0  0  0  0  0  0
   13.6383  -15.7536   19.7253 C   0  0  0  0  0  0  0  0  0  0  0  0
   14.0247  -16.9289   19.9495 O   0  0  0  0  0  0  0  0  0  0  0  0
   10.1157  -16.9455   26.3326 N   0  0  0  0  0  0  0  0  0  0  0  0
   14.6483  -14.7632   19.6100 C   0  0  0  0  0  0  0  0  0  0  0  0
   15.2083  -14.0797   20.7455 C   0  0  0  0  0  0  0  0  0  0  0  0
   16.1725  -14.9090   21.4970 O   0  0  0  0  0  0  0  0  0  0  0  0
   17.5136  -14.8022   21.1225 O   0  0  0  0  0  0  0  0  0  0  0  0
  2  1  1  0
  2  4  1  0
  3  2  2  0
  5  4  1  0
  5  6  1  0
  6  8  1  0
  6  7  1  6
  8  9  2  0
 10 11  1  0
 11 13  1  0
 11 12  2  0
 13 14  1  0
 14 15  1  0
 17 16  1  1
 16 15  1  0
 18 17  1  0
 18  8  1  0
 19 20  2  0
 19 17  1  0
 21 19  1  0
 22 21  1  0
 23 24  1  0
 23 22  1  0
 25 23  2  0
M  END
$$$$
