QRG.pdb
     RDKit          3D

 25 24  0  0  1  0  0  0  0  0999 V2000
   15.4964  -14.7572   18.1125 N   0  0  0  0  0  0  0  0  0  0  0  0
   14.1605  -14.4150   17.7724 C   0  0  0  0  0  0  0  0  0  0  0  0
   14.0114  -13.4532   16.9868 O   0  0  0  0  0  0  0  0  0  0  0  0
   13.0186  -15.1371   18.3070 C   0  0  0  0  0  0  0  0  0  0  0  0
   13.2592  -16.2641   19.2277 C   0  0  0  0  0  0  0  0  0  0  0  0
   12.0763  -16.9452   19.8185 C   0  0  2  0  0  0  0  0  0  0  0  0
   10.8896  -16.9678   19.0356 N   0  0  0  0  0  0  0  0  0  0  0  0
   11.7469  -16.4017   21.1630 C   0  0  0  0  0  0  0  0  0  0  0  0
   12.7173  -16.0013   21.8578 O   0  0  0  0  0  0  0  0  0  0  0  0
    8.2620  -14.8404   17.9776 N   0  0  0  0  0  0  0  0  0  0  0  0
    8.6081  -13.6471   18.6833 C   0  0  0  0  0  0  0  0  0  0  0  0
    8.6160  -12.5187   18.0589 N   0  0  0  0  0  0  0  0  0  0  0  0
    8.9359  -13.7453   20.0556 N   0  0  0  0  0  0  0  0  0  0  0  0
    7.9133  -13.9966   21.0611 C   0  0  0  0  0  0  0  0  0  0  0  0
    8.5293  -13.9266   22.4414 C   0  0  0  0  0  0  0  0  0  0  0  0
    8.7036  -15.2876   23.0453 C   0  0  0  0  0  0  0  0  0  0  0  0
   10.1072  -15.8150   23.0004 C   0  0  2  0  0  0  0  0  0  0  0  0
   10.4514  -16.3239   21.6627 N   0  0  0  0  0  0  0  0  0  0  0  0
   10.2709  -16.9746   23.9469 C   0  0  0  0  0  0  0  0  0  0  0  0
    9.6887  -18.0711   23.7478 O   0  0  0  0  0  0  0  0  0  0  0  0
    8.9614  -11.6616   18.5292 N   0  0  0  0  0  0  0  0  0  0  0  0
   11.0859  -16.8887   25.1056 C   0  0  0  0  0  0  0  0  0  0  0  0
   11.3788  -18.0214   25.9430 C   0  0  0  0  0  0  0  0  0  0  0  0
   10.3619  -18.2381   26.9923 O   0  0  0  0  0  0  0  0  0  0  0  0
   10.6186  -19.2591   27.9100 O   0  0  0  0  0  0  0  0  0  0  0  0
  2  1  1  0
  2  4  1  0
  3  2  2  0
  5  4  1  0
  5  6  1  0
  6  8  1  0
  6  7  1  6
  8  9  2  0
 10 11  1  0
 11 13  1  0
 11 12  2  0
 13 14  1  0
 14 15  1  0
 17 16  1  6
 16 15  1  0
 18 17  1  0
 18  8  1  0
 19 20  2  0
 19 17  1  0
 21 19  1  0
 22 21  1  0
 23 24  1  0
 23 22  1  0
 25 23  2  0
M  END
$$$$
