QRG.pdb
     RDKit          3D

 25 24  0  0  1  0  0  0  0  0999 V2000
    9.2880  -13.5320   18.2602 N   0  0  0  0  0  0  0  0  0  0  0  0
    8.0545  -12.8636   18.4819 C   0  0  0  0  0  0  0  0  0  0  0  0
    7.6072  -12.1837   17.5321 O   0  0  0  0  0  0  0  0  0  0  0  0
    7.3426  -12.9560   19.7452 C   0  0  0  0  0  0  0  0  0  0  0  0
    7.8890  -13.8231   20.8060 C   0  0  0  0  0  0  0  0  0  0  0  0
    8.0464  -15.2719   20.5087 C   0  0  2  0  0  0  0  0  0  0  0  0
    6.8767  -15.9789   20.1171 N   0  0  0  0  0  0  0  0  0  0  0  0
    8.6817  -15.9970   21.6411 C   0  0  0  0  0  0  0  0  0  0  0  0
    7.9022  -16.4859   22.5002 O   0  0  0  0  0  0  0  0  0  0  0  0
   13.2485  -14.4660   19.0942 N   0  0  0  0  0  0  0  0  0  0  0  0
   14.5227  -15.0629   19.3430 C   0  0  0  0  0  0  0  0  0  0  0  0
   15.3179  -15.2992   18.3555 N   0  0  0  0  0  0  0  0  0  0  0  0
   14.8711  -15.3796   20.6766 N   0  0  0  0  0  0  0  0  0  0  0  0
   14.2509  -16.4964   21.3753 C   0  0  0  0  0  0  0  0  0  0  0  0
   12.8206  -16.1469   21.7238 C   0  0  0  0  0  0  0  0  0  0  0  0
   12.1401  -17.2556   22.4690 C   0  0  0  0  0  0  0  0  0  0  0  0
   10.7003  -16.9937   22.7988 C   0  0  2  0  0  0  0  0  0  0  0  0
   10.0571  -16.1475   21.7804 N   0  0  0  0  0  0  0  0  0  0  0  0
   10.5794  -16.2493   24.1022 C   0  0  0  0  0  0  0  0  0  0  0  0
   10.3888  -15.0069   24.1327 O   0  0  0  0  0  0  0  0  0  0  0  0
   16.2397  -15.7448   18.5196 N   0  0  0  0  0  0  0  0  0  0  0  0
   10.6745  -16.9090   25.3551 C   0  0  0  0  0  0  0  0  0  0  0  0
   10.4620  -16.2396   26.6108 C   0  0  0  0  0  0  0  0  0  0  0  0
   10.5699  -17.1475   27.7711 O   0  0  0  0  0  0  0  0  0  0  0  0
   10.4731  -16.5609   29.0348 O   0  0  0  0  0  0  0  0  0  0  0  0
  2  1  1  0
  2  4  1  0
  3  2  2  0
  5  4  1  0
  5  6  1  0
  6  8  1  0
  6  7  1  1
  8  9  2  0
 10 11  1  0
 11 13  1  0
 11 12  2  0
 13 14  1  0
 14 15  1  0
 17 16  1  6
 16 15  1  0
 18 17  1  0
 18  8  1  0
 19 20  2  0
 19 17  1  0
 21 19  1  0
 22 21  1  0
 23 24  1  0
 23 22  1  0
 25 23  2  0
M  END
$$$$
