QRG.pdb
     RDKit          3D

 25 24  0  0  1  0  0  0  0  0999 V2000
   10.0068  -13.7140   19.4264 N   0  0  0  0  0  0  0  0  0  0  0  0
    8.9131  -12.9643   18.9176 C   0  0  0  0  0  0  0  0  0  0  0  0
    8.9906  -12.6002   17.7235 O   0  0  0  0  0  0  0  0  0  0  0  0
    7.7596  -12.6295   19.7354 C   0  0  0  0  0  0  0  0  0  0  0  0
    7.6596  -13.2038   21.0904 C   0  0  0  0  0  0  0  0  0  0  0  0
    7.6437  -14.6855   21.2190 C   0  0  2  0  0  0  0  0  0  0  0  0
    6.7255  -15.3928   20.3956 N   0  0  0  0  0  0  0  0  0  0  0  0
    7.4398  -15.1100   22.6296 C   0  0  0  0  0  0  0  0  0  0  0  0
    6.3247  -14.8305   23.1425 O   0  0  0  0  0  0  0  0  0  0  0  0
    6.1573  -22.6038   23.9402 N   0  0  0  0  0  0  0  0  0  0  0  0
    5.1607  -21.6545   23.5563 C   0  0  0  0  0  0  0  0  0  0  0  0
    4.0437  -22.0696   23.0632 N   0  0  0  0  0  0  0  0  0  0  0  0
    5.4367  -20.2782   23.7297 N   0  0  0  0  0  0  0  0  0  0  0  0
    6.7273  -19.8227   24.2265 C   0  0  0  0  0  0  0  0  0  0  0  0
    6.7710  -18.3102   24.2163 C   0  0  0  0  0  0  0  0  0  0  0  0
    8.0669  -17.7849   24.7569 C   0  0  0  0  0  0  0  0  0  0  0  0
    8.1895  -16.2899   24.7402 C   0  0  2  0  0  0  0  0  0  0  0  0
    8.4033  -15.7797   23.3761 N   0  0  0  0  0  0  0  0  0  0  0  0
    9.3799  -15.8443   25.5477 C   0  0  0  0  0  0  0  0  0  0  0  0
   10.3375  -15.2255   25.0177 O   0  0  0  0  0  0  0  0  0  0  0  0
    3.3290  -21.3914   22.7399 N   0  0  0  0  0  0  0  0  0  0  0  0
    9.4804  -16.0993   26.9402 C   0  0  0  0  0  0  0  0  0  0  0  0
   10.5929  -15.6583   27.7389 C   0  0  0  0  0  0  0  0  0  0  0  0
   10.5372  -16.1590   29.1275 O   0  0  0  0  0  0  0  0  0  0  0  0
   11.6463  -15.8919   29.9331 O   0  0  0  0  0  0  0  0  0  0  0  0
  2  1  1  0
  2  4  1  0
  3  2  2  0
  5  4  1  0
  5  6  1  0
  6  8  1  0
  6  7  1  6
  8  9  2  0
 10 11  1  0
 11 13  1  0
 11 12  2  0
 13 14  1  0
 14 15  1  0
 17 16  1  6
 16 15  1  0
 18 17  1  0
 18  8  1  0
 19 20  2  0
 19 17  1  0
 21 19  1  0
 22 21  1  0
 23 24  1  0
 23 22  1  0
 25 23  2  0
M  END
$$$$
