AAQ.pdb
     RDKit          3D

 20 19  0  0  1  0  0  0  0  0999 V2000
   16.7674  -13.2995  -17.6644 C   0  0  0  0  0  0  0  0  0  0  0  0
   18.1332  -13.9416  -17.4147 C   0  0  2  0  0  0  0  0  0  0  0  0
   17.9055  -15.1240  -16.6398 N   0  0  0  0  0  0  0  0  0  0  0  0
   18.9646  -12.9379  -16.6893 C   0  0  0  0  0  0  0  0  0  0  0  0
   18.4999  -12.3869  -15.6587 O   0  0  0  0  0  0  0  0  0  0  0  0
   22.4838  -11.5109  -17.0109 C   0  0  0  0  0  0  0  0  0  0  0  0
   21.0686  -11.5545  -16.4586 C   0  0  2  0  0  0  0  0  0  0  0  0
   20.2696  -12.5655  -17.1041 N   0  0  0  0  0  0  0  0  0  0  0  0
   20.4886  -10.2002  -16.6030 C   0  0  0  0  0  0  0  0  0  0  0  0
   19.8947   -9.9163  -17.6707 O   0  0  0  0  0  0  0  0  0  0  0  0
   15.9160   -7.4058  -14.8203 N   0  0  0  0  0  0  0  0  0  0  0  0
   16.7109   -6.2527  -15.0487 C   0  0  0  0  0  0  0  0  0  0  0  0
   16.1736   -5.1310  -14.9710 O   0  0  0  0  0  0  0  0  0  0  0  0
   18.1301   -6.3786  -15.3697 C   0  0  0  0  0  0  0  0  0  0  0  0
   18.6679   -7.7688  -15.3928 C   0  0  0  0  0  0  0  0  0  0  0  0
   20.1232   -7.8624  -15.7164 C   0  0  2  0  0  0  0  0  0  0  0  0
   20.6025   -9.2480  -15.5583 N   0  0  0  0  0  0  0  0  0  0  0  0
   20.9657   -7.0332  -14.8299 C   0  0  0  0  0  0  0  0  0  0  0  0
   21.6764   -7.5959  -13.9689 O   0  0  0  0  0  0  0  0  0  0  0  0
   20.9934   -5.6579  -14.9217 O   0  0  0  0  0  0  0  0  0  0  0  0
  2  1  1  1
  3  2  1  0
  4  2  1  0
  4  5  2  0
  7  6  1  6
  7  8  1  0
  8  4  1  0
  9  7  1  0
  9 17  1  0
 10  9  2  0
 12 11  1  0
 13 12  2  0
 14 12  1  0
 15 14  1  0
 16 17  1  0
 16 15  1  1
 18 16  1  0
 19 18  2  0
 20 18  1  0
M  END
$$$$
