AAQ.pdb
     RDKit          3D

 20 19  0  0  1  0  0  0  0  0999 V2000
   18.3880  -12.7189  -16.5097 C   0  0  0  0  0  0  0  0  0  0  0  0
   19.1563  -11.5390  -17.1077 C   0  0  2  0  0  0  0  0  0  0  0  0
   20.0063  -12.0675  -18.1317 N   0  0  0  0  0  0  0  0  0  0  0  0
   19.9279  -10.9090  -15.9975 C   0  0  0  0  0  0  0  0  0  0  0  0
   19.3060  -10.4084  -15.0258 O   0  0  0  0  0  0  0  0  0  0  0  0
   23.5117  -10.6404  -14.8419 C   0  0  0  0  0  0  0  0  0  0  0  0
   22.1085  -10.0840  -15.0187 C   0  0  2  0  0  0  0  0  0  0  0  0
   21.3452  -10.8427  -15.9774 N   0  0  0  0  0  0  0  0  0  0  0  0
   22.2355   -8.6593  -15.3997 C   0  0  0  0  0  0  0  0  0  0  0  0
   22.4899   -8.3820  -16.5963 O   0  0  0  0  0  0  0  0  0  0  0  0
   18.8718   -4.0442  -16.1963 N   0  0  0  0  0  0  0  0  0  0  0  0
   18.6023   -5.2275  -15.4608 C   0  0  0  0  0  0  0  0  0  0  0  0
   17.4335   -5.4471  -15.0885 O   0  0  0  0  0  0  0  0  0  0  0  0
   19.6740   -6.1682  -15.1456 C   0  0  0  0  0  0  0  0  0  0  0  0
   21.0201   -5.8203  -15.6833 C   0  0  0  0  0  0  0  0  0  0  0  0
   22.1581   -6.2068  -14.7963 C   0  0  2  0  0  0  0  0  0  0  0  0
   22.0730   -7.6337  -14.4339 N   0  0  0  0  0  0  0  0  0  0  0  0
   22.1750   -5.4600  -13.5214 C   0  0  0  0  0  0  0  0  0  0  0  0
   21.9260   -6.0696  -12.4586 O   0  0  0  0  0  0  0  0  0  0  0  0
   22.4567   -4.1116  -13.4659 O   0  0  0  0  0  0  0  0  0  0  0  0
  2  1  1  1
  3  2  1  0
  4  2  1  0
  4  5  2  0
  7  6  1  6
  7  8  1  0
  8  4  1  0
  9  7  1  0
  9 17  1  0
 10  9  2  0
 12 11  1  0
 13 12  2  0
 14 12  1  0
 15 14  1  0
 16 17  1  0
 16 15  1  6
 18 16  1  0
 19 18  2  0
 20 18  1  0
M  END
$$$$
