AAQ.pdb
     RDKit          3D

 20 19  0  0  1  0  0  0  0  0999 V2000
   26.3172  -22.4406  -16.6879 C   0  0  0  0  0  0  0  0  0  0  0  0
   27.8158  -22.1648  -16.8229 C   0  0  2  0  0  0  0  0  0  0  0  0
   27.9707  -21.1866  -17.8571 N   0  0  0  0  0  0  0  0  0  0  0  0
   28.4721  -23.4603  -17.1629 C   0  0  0  0  0  0  0  0  0  0  0  0
   28.1861  -24.0259  -18.2491 O   0  0  0  0  0  0  0  0  0  0  0  0
   31.2608  -25.6068  -15.7313 C   0  0  0  0  0  0  0  0  0  0  0  0
   30.0446  -25.3614  -16.6090 C   0  0  2  0  0  0  0  0  0  0  0  0
   29.4149  -24.0986  -16.3159 N   0  0  0  0  0  0  0  0  0  0  0  0
   29.1233  -26.5060  -16.4293 C   0  0  0  0  0  0  0  0  0  0  0  0
   28.1652  -26.3808  -15.6294 O   0  0  0  0  0  0  0  0  0  0  0  0
   24.8191  -28.1076  -15.7845 N   0  0  0  0  0  0  0  0  0  0  0  0
   24.8686  -29.2348  -16.6450 C   0  0  0  0  0  0  0  0  0  0  0  0
   23.9789  -30.1018  -16.5467 O   0  0  0  0  0  0  0  0  0  0  0  0
   25.9420  -29.3763  -17.6253 C   0  0  0  0  0  0  0  0  0  0  0  0
   26.9984  -28.3254  -17.5850 C   0  0  0  0  0  0  0  0  0  0  0  0
   28.3303  -28.8066  -17.1099 C   0  0  2  0  0  0  0  0  0  0  0  0
   29.3203  -27.7142  -17.1451 N   0  0  0  0  0  0  0  0  0  0  0  0
   28.8847  -29.8898  -17.9481 C   0  0  0  0  0  0  0  0  0  0  0  0
   29.2845  -29.6194  -19.1015 O   0  0  0  0  0  0  0  0  0  0  0  0
   28.9756  -31.1901  -17.4990 O   0  0  0  0  0  0  0  0  0  0  0  0
  2  1  1  6
  3  2  1  0
  4  2  1  0
  4  5  2  0
  7  6  1  1
  7  8  1  0
  8  4  1  0
  9  7  1  0
  9 17  1  0
 10  9  2  0
 12 11  1  0
 13 12  2  0
 14 12  1  0
 15 14  1  0
 16 17  1  0
 16 15  1  6
 18 16  1  0
 19 18  2  0
 20 18  1  0
M  END
$$$$
