AAQ.pdb
     RDKit          3D

 20 19  0  0  1  0  0  0  0  0999 V2000
   18.6245  -14.1428  -17.0816 C   0  0  0  0  0  0  0  0  0  0  0  0
   18.2657  -13.2765  -15.8730 C   0  0  2  0  0  0  0  0  0  0  0  0
   16.9180  -13.5981  -15.5116 N   0  0  0  0  0  0  0  0  0  0  0  0
   18.4176  -11.8531  -16.2921 C   0  0  0  0  0  0  0  0  0  0  0  0
   19.5691  -11.3509  -16.3507 O   0  0  0  0  0  0  0  0  0  0  0  0
   16.1618   -9.1659  -17.7457 C   0  0  0  0  0  0  0  0  0  0  0  0
   17.4412   -9.6622  -17.0926 C   0  0  2  0  0  0  0  0  0  0  0  0
   17.3185  -11.0228  -16.6330 N   0  0  0  0  0  0  0  0  0  0  0  0
   17.7786   -8.7254  -15.9973 C   0  0  0  0  0  0  0  0  0  0  0  0
   17.5021   -9.0593  -14.8202 O   0  0  0  0  0  0  0  0  0  0  0  0
   23.0973   -6.3124  -14.6998 N   0  0  0  0  0  0  0  0  0  0  0  0
   22.2565   -5.4530  -13.9462 C   0  0  0  0  0  0  0  0  0  0  0  0
   22.7813   -4.6460  -13.1548 O   0  0  0  0  0  0  0  0  0  0  0  0
   20.8048   -5.5143  -14.0944 C   0  0  0  0  0  0  0  0  0  0  0  0
   20.2976   -6.4839  -15.1068 C   0  0  0  0  0  0  0  0  0  0  0  0
   18.8086   -6.5618  -15.1953 C   0  0  2  0  0  0  0  0  0  0  0  0
   18.3996   -7.4808  -16.2737 N   0  0  0  0  0  0  0  0  0  0  0  0
   18.1803   -5.2608  -15.5048 C   0  0  0  0  0  0  0  0  0  0  0  0
   17.7775   -5.0437  -16.6683 O   0  0  0  0  0  0  0  0  0  0  0  0
   18.0237   -4.2776  -14.5510 O   0  0  0  0  0  0  0  0  0  0  0  0
  2  1  1  6
  3  2  1  0
  4  2  1  0
  4  5  2  0
  7  6  1  1
  7  8  1  0
  8  4  1  0
  9  7  1  0
  9 17  1  0
 10  9  2  0
 12 11  1  0
 13 12  2  0
 14 12  1  0
 15 14  1  0
 16 17  1  0
 16 15  1  6
 18 16  1  0
 19 18  2  0
 20 18  1  0
M  END
$$$$
