AAQ.pdb
     RDKit          3D

 20 19  0  0  1  0  0  0  0  0999 V2000
   17.5099  -14.4213  -16.8877 C   0  0  0  0  0  0  0  0  0  0  0  0
   17.5339  -13.5114  -15.6582 C   0  0  2  0  0  0  0  0  0  0  0  0
   16.1940  -13.4477  -15.1572 N   0  0  0  0  0  0  0  0  0  0  0  0
   18.0371  -12.1806  -16.1061 C   0  0  0  0  0  0  0  0  0  0  0  0
   19.2595  -11.9134  -15.9799 O   0  0  0  0  0  0  0  0  0  0  0  0
   16.6332   -9.1980  -17.9983 C   0  0  0  0  0  0  0  0  0  0  0  0
   17.6631   -9.8976  -17.1267 C   0  0  2  0  0  0  0  0  0  0  0  0
   17.2004  -11.1856  -16.6748 N   0  0  0  0  0  0  0  0  0  0  0  0
   17.9911   -8.9906  -16.0038 C   0  0  0  0  0  0  0  0  0  0  0  0
   17.3427   -9.1043  -14.9361 O   0  0  0  0  0  0  0  0  0  0  0  0
   23.4505   -5.6654  -15.2807 N   0  0  0  0  0  0  0  0  0  0  0  0
   22.5839   -5.1464  -14.2841 C   0  0  0  0  0  0  0  0  0  0  0  0
   23.0126   -4.2580  -13.5224 O   0  0  0  0  0  0  0  0  0  0  0  0
   21.2173   -5.6446  -14.1532 C   0  0  0  0  0  0  0  0  0  0  0  0
   20.7690   -6.5919  -15.2134 C   0  0  0  0  0  0  0  0  0  0  0  0
   19.3920   -7.1353  -15.0138 C   0  0  2  0  0  0  0  0  0  0  0  0
   19.0140   -8.0170  -16.1337 N   0  0  0  0  0  0  0  0  0  0  0  0
   18.3587   -6.0807  -14.9552 C   0  0  0  0  0  0  0  0  0  0  0  0
   17.9468   -5.6971  -13.8388 O   0  0  0  0  0  0  0  0  0  0  0  0
   17.8337   -5.5055  -16.0928 O   0  0  0  0  0  0  0  0  0  0  0  0
  2  1  1  6
  3  2  1  0
  4  2  1  0
  4  5  2  0
  7  6  1  1
  7  8  1  0
  8  4  1  0
  9  7  1  0
  9 17  1  0
 10  9  2  0
 12 11  1  0
 13 12  2  0
 14 12  1  0
 15 14  1  0
 16 17  1  0
 16 15  1  6
 18 16  1  0
 19 18  2  0
 20 18  1  0
M  END
$$$$
