AAQ.pdb
     RDKit          3D

 20 19  0  0  1  0  0  0  0  0999 V2000
   19.4499  -11.1033  -19.1245 C   0  0  0  0  0  0  0  0  0  0  0  0
   20.3799  -11.9177  -18.2233 C   0  0  2  0  0  0  0  0  0  0  0  0
   19.6662  -13.0991  -17.8424 N   0  0  0  0  0  0  0  0  0  0  0  0
   20.7218  -11.0580  -17.0534 C   0  0  0  0  0  0  0  0  0  0  0  0
   19.7940  -10.5275  -16.3906 O   0  0  0  0  0  0  0  0  0  0  0  0
   23.8022  -10.2930  -14.9941 C   0  0  0  0  0  0  0  0  0  0  0  0
   22.4129   -9.9710  -15.5196 C   0  0  2  0  0  0  0  0  0  0  0  0
   22.0554  -10.8023  -16.6414 N   0  0  0  0  0  0  0  0  0  0  0  0
   22.3826   -8.5293  -15.8539 C   0  0  0  0  0  0  0  0  0  0  0  0
   22.8708   -8.1604  -16.9488 O   0  0  0  0  0  0  0  0  0  0  0  0
   19.7196   -6.1972  -19.0435 N   0  0  0  0  0  0  0  0  0  0  0  0
   19.9096   -5.5112  -17.8159 C   0  0  0  0  0  0  0  0  0  0  0  0
   20.3072   -4.3305  -17.8459 O   0  0  0  0  0  0  0  0  0  0  0  0
   19.6457   -6.1765  -16.5428 C   0  0  0  0  0  0  0  0  0  0  0  0
   20.3948   -5.6468  -15.3678 C   0  0  0  0  0  0  0  0  0  0  0  0
   21.7984   -6.1451  -15.2547 C   0  0  2  0  0  0  0  0  0  0  0  0
   21.8147   -7.5892  -14.9568 N   0  0  0  0  0  0  0  0  0  0  0  0
   22.5559   -5.4931  -14.1665 C   0  0  0  0  0  0  0  0  0  0  0  0
   22.9518   -4.3176  -14.3233 O   0  0  0  0  0  0  0  0  0  0  0  0
   22.8405   -6.1398  -12.9826 O   0  0  0  0  0  0  0  0  0  0  0  0
  2  1  1  6
  3  2  1  0
  4  2  1  0
  4  5  2  0
  7  6  1  6
  7  8  1  0
  8  4  1  0
  9  7  1  0
  9 17  1  0
 10  9  2  0
 12 11  1  0
 13 12  2  0
 14 12  1  0
 15 14  1  0
 16 17  1  0
 16 15  1  1
 18 16  1  0
 19 18  2  0
 20 18  1  0
M  END
$$$$
