AAQ.pdb
     RDKit          3D

 20 19  0  0  1  0  0  0  0  0999 V2000
   15.0275  -11.2001  -15.2205 C   0  0  0  0  0  0  0  0  0  0  0  0
   16.5480  -11.0544  -15.3029 C   0  0  2  0  0  0  0  0  0  0  0  0
   17.0990  -12.3754  -15.2606 N   0  0  0  0  0  0  0  0  0  0  0  0
   16.9735  -10.2235  -14.1396 C   0  0  0  0  0  0  0  0  0  0  0  0
   16.6464  -10.5807  -12.9789 O   0  0  0  0  0  0  0  0  0  0  0  0
   19.1393   -7.1312  -13.6136 C   0  0  0  0  0  0  0  0  0  0  0  0
   18.2082   -8.2447  -13.1630 C   0  0  2  0  0  0  0  0  0  0  0  0
   17.7378   -9.0353  -14.2725 N   0  0  0  0  0  0  0  0  0  0  0  0
   17.1000   -7.6233  -12.4035 C   0  0  0  0  0  0  0  0  0  0  0  0
   16.0925   -7.2257  -13.0362 O   0  0  0  0  0  0  0  0  0  0  0  0
   13.0925   -9.7291   -8.9403 N   0  0  0  0  0  0  0  0  0  0  0  0
   13.0342   -8.3941   -8.4627 C   0  0  0  0  0  0  0  0  0  0  0  0
   12.1387   -8.0876   -7.6520 O   0  0  0  0  0  0  0  0  0  0  0  0
   14.0036   -7.3992   -8.9137 C   0  0  0  0  0  0  0  0  0  0  0  0
   15.1312   -7.9207   -9.7375 C   0  0  0  0  0  0  0  0  0  0  0  0
   16.0827   -6.8732  -10.2155 C   0  0  2  0  0  0  0  0  0  0  0  0
   17.1769   -7.4817  -10.9946 N   0  0  0  0  0  0  0  0  0  0  0  0
   16.7277   -6.1329   -9.1114 C   0  0  0  0  0  0  0  0  0  0  0  0
   17.9116   -6.4013   -8.8119 O   0  0  0  0  0  0  0  0  0  0  0  0
   16.0658   -5.1548   -8.4000 O   0  0  0  0  0  0  0  0  0  0  0  0
  2  1  1  1
  3  2  1  0
  4  2  1  0
  4  5  2  0
  7  6  1  6
  7  8  1  0
  8  4  1  0
  9  7  1  0
  9 17  1  0
 10  9  2  0
 12 11  1  0
 13 12  2  0
 14 12  1  0
 15 14  1  0
 16 17  1  0
 16 15  1  1
 18 16  1  0
 19 18  2  0
 20 18  1  0
M  END
$$$$
