AAQ.pdb
     RDKit          3D

 20 19  0  0  1  0  0  0  0  0999 V2000
   33.2220  -17.7823  -19.9659 C   0  0  0  0  0  0  0  0  0  0  0  0
   32.2961  -16.5697  -20.0769 C   0  0  2  0  0  0  0  0  0  0  0  0
   32.9311  -15.4919  -19.3801 N   0  0  0  0  0  0  0  0  0  0  0  0
   30.9927  -16.9543  -19.4621 C   0  0  0  0  0  0  0  0  0  0  0  0
   30.9362  -17.1584  -18.2225 O   0  0  0  0  0  0  0  0  0  0  0  0
   27.3680  -16.9431  -20.5291 C   0  0  0  0  0  0  0  0  0  0  0  0
   28.5082  -17.3934  -19.6309 C   0  0  2  0  0  0  0  0  0  0  0  0
   29.7961  -17.1048  -20.2099 N   0  0  0  0  0  0  0  0  0  0  0  0
   28.3227  -18.8368  -19.3597 C   0  0  0  0  0  0  0  0  0  0  0  0
   28.9168  -19.6628  -20.0932 O   0  0  0  0  0  0  0  0  0  0  0  0
   30.2259  -23.2756  -16.3862 N   0  0  0  0  0  0  0  0  0  0  0  0
   28.8907  -22.8372  -16.1894 C   0  0  0  0  0  0  0  0  0  0  0  0
   27.9751  -23.6825  -16.2058 O   0  0  0  0  0  0  0  0  0  0  0  0
   28.5957  -21.4232  -15.9734 C   0  0  0  0  0  0  0  0  0  0  0  0
   27.2971  -20.9411  -16.5242 C   0  0  0  0  0  0  0  0  0  0  0  0
   27.3015  -20.7052  -17.9992 C   0  0  2  0  0  0  0  0  0  0  0  0
   27.4929  -19.2735  -18.2958 N   0  0  0  0  0  0  0  0  0  0  0  0
   26.0323  -21.0927  -18.6490 C   0  0  0  0  0  0  0  0  0  0  0  0
   25.1459  -20.2262  -18.8126 O   0  0  0  0  0  0  0  0  0  0  0  0
   25.7937  -22.3800  -19.0812 O   0  0  0  0  0  0  0  0  0  0  0  0
  2  1  1  1
  3  2  1  0
  4  2  1  0
  4  5  2  0
  7  6  1  6
  7  8  1  0
  8  4  1  0
  9  7  1  0
  9 17  1  0
 10  9  2  0
 12 11  1  0
 13 12  2  0
 14 12  1  0
 15 14  1  0
 16 17  1  0
 16 15  1  1
 18 16  1  0
 19 18  2  0
 20 18  1  0
M  END
$$$$
