AAQ.pdb
     RDKit          3D

 20 19  0  0  1  0  0  0  0  0999 V2000
   18.5551  -13.3235  -16.7575 C   0  0  0  0  0  0  0  0  0  0  0  0
   18.7049  -11.8422  -17.1087 C   0  0  2  0  0  0  0  0  0  0  0  0
   19.5539  -11.7676  -18.2594 N   0  0  0  0  0  0  0  0  0  0  0  0
   19.2991  -11.1665  -15.9191 C   0  0  0  0  0  0  0  0  0  0  0  0
   18.6673  -11.1722  -14.8318 O   0  0  0  0  0  0  0  0  0  0  0  0
   22.5723   -9.4136  -15.0759 C   0  0  0  0  0  0  0  0  0  0  0  0
   21.1184   -9.7849  -14.8350 C   0  0  2  0  0  0  0  0  0  0  0  0
   20.5559  -10.5082  -15.9475 N   0  0  0  0  0  0  0  0  0  0  0  0
   20.3790   -8.5364  -14.5425 C   0  0  0  0  0  0  0  0  0  0  0  0
   19.8662   -7.9085  -15.4997 O   0  0  0  0  0  0  0  0  0  0  0  0
   17.2100   -7.1865   -9.2554 N   0  0  0  0  0  0  0  0  0  0  0  0
   17.2869   -5.9298   -9.9098 C   0  0  0  0  0  0  0  0  0  0  0  0
   16.7087   -4.9522   -9.3971 O   0  0  0  0  0  0  0  0  0  0  0  0
   18.0279   -5.7857  -11.1601 C   0  0  0  0  0  0  0  0  0  0  0  0
   18.6380   -7.0346  -11.6989 C   0  0  0  0  0  0  0  0  0  0  0  0
   19.5106   -6.8298  -12.8938 C   0  0  2  0  0  0  0  0  0  0  0  0
   20.2542   -8.0629  -13.2116 N   0  0  0  0  0  0  0  0  0  0  0  0
   20.5281   -5.7778  -12.6913 C   0  0  0  0  0  0  0  0  0  0  0  0
   20.1993   -4.5803  -12.8372 O   0  0  0  0  0  0  0  0  0  0  0  0
   21.8296   -6.0741  -12.3464 O   0  0  0  0  0  0  0  0  0  0  0  0
  2  1  1  1
  3  2  1  0
  4  2  1  0
  4  5  2  0
  7  6  1  6
  7  8  1  0
  8  4  1  0
  9  7  1  0
  9 17  1  0
 10  9  2  0
 12 11  1  0
 13 12  2  0
 14 12  1  0
 15 14  1  0
 16 17  1  0
 16 15  1  1
 18 16  1  0
 19 18  2  0
 20 18  1  0
M  END
$$$$
