AAQ.pdb
     RDKit          3D

 20 19  0  0  1  0  0  0  0  0999 V2000
   17.1696  -13.9892  -14.3314 C   0  0  0  0  0  0  0  0  0  0  0  0
   17.0505  -13.8590  -15.8510 C   0  0  2  0  0  0  0  0  0  0  0  0
   17.9008  -14.8576  -16.4255 N   0  0  0  0  0  0  0  0  0  0  0  0
   17.4773  -12.4751  -16.2081 C   0  0  0  0  0  0  0  0  0  0  0  0
   18.6985  -12.1786  -16.1600 O   0  0  0  0  0  0  0  0  0  0  0  0
   15.8038   -9.3828  -17.6647 C   0  0  0  0  0  0  0  0  0  0  0  0
   16.9607  -10.1428  -17.0372 C   0  0  2  0  0  0  0  0  0  0  0  0
   16.5681  -11.4605  -16.6049 N   0  0  0  0  0  0  0  0  0  0  0  0
   17.4888   -9.3191  -15.9265 C   0  0  0  0  0  0  0  0  0  0  0  0
   17.0762   -9.5492  -14.7645 O   0  0  0  0  0  0  0  0  0  0  0  0
   22.9310   -5.9098  -15.9795 N   0  0  0  0  0  0  0  0  0  0  0  0
   22.2883   -5.5338  -14.7716 C   0  0  0  0  0  0  0  0  0  0  0  0
   22.8743   -4.7484  -14.0017 O   0  0  0  0  0  0  0  0  0  0  0  0
   20.9669   -6.0583  -14.4370 C   0  0  0  0  0  0  0  0  0  0  0  0
   20.3418   -6.9411  -15.4627 C   0  0  0  0  0  0  0  0  0  0  0  0
   19.0045   -7.4840  -15.0779 C   0  0  2  0  0  0  0  0  0  0  0  0
   18.4385   -8.2949  -16.1718 N   0  0  0  0  0  0  0  0  0  0  0  0
   18.0122   -6.4263  -14.7955 C   0  0  0  0  0  0  0  0  0  0  0  0
   17.8817   -6.0154  -13.6218 O   0  0  0  0  0  0  0  0  0  0  0  0
   17.2249   -5.8772  -15.7852 O   0  0  0  0  0  0  0  0  0  0  0  0
  2  1  1  1
  3  2  1  0
  4  2  1  0
  4  5  2  0
  7  6  1  1
  7  8  1  0
  8  4  1  0
  9  7  1  0
  9 17  1  0
 10  9  2  0
 12 11  1  0
 13 12  2  0
 14 12  1  0
 15 14  1  0
 16 17  1  0
 16 15  1  6
 18 16  1  0
 19 18  2  0
 20 18  1  0
M  END
$$$$
