AAQ.pdb
     RDKit          3D

 20 19  0  0  1  0  0  0  0  0999 V2000
   20.9709  -11.6538  -15.6852 C   0  0  0  0  0  0  0  0  0  0  0  0
   19.6786  -11.8467  -16.4806 C   0  0  2  0  0  0  0  0  0  0  0  0
   20.0549  -12.2634  -17.7978 N   0  0  0  0  0  0  0  0  0  0  0  0
   18.9633  -10.5378  -16.4811 C   0  0  0  0  0  0  0  0  0  0  0  0
   19.4204   -9.5898  -17.1695 O   0  0  0  0  0  0  0  0  0  0  0  0
   15.6997   -9.1542  -15.1139 C   0  0  0  0  0  0  0  0  0  0  0  0
   17.1140   -9.0241  -15.6549 C   0  0  2  0  0  0  0  0  0  0  0  0
   17.7787  -10.3003  -15.7368 N   0  0  0  0  0  0  0  0  0  0  0  0
   17.8387   -8.0654  -14.7906 C   0  0  0  0  0  0  0  0  0  0  0  0
   18.5328   -8.5179  -13.8489 O   0  0  0  0  0  0  0  0  0  0  0  0
   22.7596   -5.9006  -15.4421 N   0  0  0  0  0  0  0  0  0  0  0  0
   22.3483   -4.9582  -14.4642 C   0  0  0  0  0  0  0  0  0  0  0  0
   23.2064   -4.2117  -13.9549 O   0  0  0  0  0  0  0  0  0  0  0  0
   20.9473   -4.8662  -14.0621 C   0  0  0  0  0  0  0  0  0  0  0  0
   20.0261   -5.8535  -14.6937 C   0  0  0  0  0  0  0  0  0  0  0  0
   18.5946   -5.7061  -14.2935 C   0  0  2  0  0  0  0  0  0  0  0  0
   17.7493   -6.6694  -15.0230 N   0  0  0  0  0  0  0  0  0  0  0  0
   18.0461   -4.3678  -14.5958 C   0  0  0  0  0  0  0  0  0  0  0  0
   17.3641   -4.2123  -15.6321 O   0  0  0  0  0  0  0  0  0  0  0  0
   18.2623   -3.2842  -13.7713 O   0  0  0  0  0  0  0  0  0  0  0  0
  2  1  1  1
  3  2  1  0
  4  2  1  0
  4  5  2  0
  7  6  1  1
  7  8  1  0
  8  4  1  0
  9  7  1  0
  9 17  1  0
 10  9  2  0
 12 11  1  0
 13 12  2  0
 14 12  1  0
 15 14  1  0
 16 17  1  0
 16 15  1  6
 18 16  1  0
 19 18  2  0
 20 18  1  0
M  END
$$$$
