LGP.pdb
     RDKit          3D

 20 20  0  0  1  0  0  0  0  0999 V2000
    7.7254  -11.9557   27.2866 C   0  0  0  0  0  0  0  0  0  0  0  0
    6.8686  -13.0188   26.6747 C   0  0  1  0  0  0  0  0  0  0  0  0
    5.6626  -12.3943   26.0270 C   0  0  0  0  0  0  0  0  0  0  0  0
    7.6062  -13.9330   25.7538 C   0  0  0  0  0  0  0  0  0  0  0  0
    6.7059  -14.9315   25.0667 C   0  0  2  0  0  0  0  0  0  0  0  0
    6.1278  -15.8199   26.0558 N   0  0  0  0  0  0  0  0  0  0  0  0
    7.4604  -15.7640   24.0982 C   0  0  0  0  0  0  0  0  0  0  0  0
    7.9582  -16.8798   24.4706 O   0  0  0  0  0  0  0  0  0  0  0  0
    7.6824  -15.4094   22.7430 N   0  0  0  0  0  0  0  0  0  0  0  0
    8.4204  -16.2535   21.8230 C   0  0  0  0  0  0  0  0  0  0  0  0
    9.6967  -16.7281   22.4284 C   0  0  0  0  0  0  0  0  0  0  0  0
    9.8639  -16.7776   23.6671 O   0  0  0  0  0  0  0  0  0  0  0  0
   10.7308  -17.1277   21.5445 N   0  0  0  0  0  0  0  0  0  0  0  0
   10.6896  -16.9292   20.1120 C   0  0  0  0  0  0  0  0  0  0  0  0
   11.6009  -17.9968   19.5227 C   0  0  0  0  0  0  0  0  0  0  0  0
   12.0754  -18.8092   20.7192 C   0  0  0  0  0  0  0  0  0  0  0  0
   11.9806  -17.7786   21.8277 C   0  0  1  0  0  0  0  0  0  0  0  0
   13.1274  -16.8586   21.8405 C   0  0  0  0  0  0  0  0  0  0  0  0
   13.1513  -15.7545   21.2630 O   0  0  0  0  0  0  0  0  0  0  0  0
   14.2605  -17.2410   22.5409 O   0  0  0  0  0  0  0  0  0  0  0  0
  2  1  1  6
  3  2  1  0
  4  2  1  0
  5  4  1  0
  5  6  1  1
  7  5  1  0
  7  8  2  0
  9  7  1  0
 10  9  1  0
 10 11  1  0
 11 13  1  0
 12 11  2  0
 13 14  1  0
 13 17  1  0
 14 15  1  0
 16 15  1  0
 17 16  1  0
 18 20  1  0
 17 18  1  6
 19 18  2  0
M  END
$$$$
