LGP.pdb
     RDKit          3D

 20 20  0  0  1  0  0  0  0  0999 V2000
    7.8060  -11.7724   26.5097 C   0  0  0  0  0  0  0  0  0  0  0  0
    6.9748  -12.9112   27.0106 C   0  0  1  0  0  0  0  0  0  0  0  0
    6.1840  -12.4768   28.2148 C   0  0  0  0  0  0  0  0  0  0  0  0
    6.1221  -13.5436   25.9614 C   0  0  0  0  0  0  0  0  0  0  0  0
    6.7152  -14.8163   25.4062 C   0  0  2  0  0  0  0  0  0  0  0  0
    7.6675  -15.3585   26.3556 N   0  0  0  0  0  0  0  0  0  0  0  0
    7.4373  -14.5675   24.1346 C   0  0  0  0  0  0  0  0  0  0  0  0
    6.7882  -14.2123   23.0934 O   0  0  0  0  0  0  0  0  0  0  0  0
    8.8406  -14.6964   23.9744 N   0  0  0  0  0  0  0  0  0  0  0  0
    9.5060  -14.4924   22.7019 C   0  0  0  0  0  0  0  0  0  0  0  0
    8.7385  -15.1105   21.5842 C   0  0  0  0  0  0  0  0  0  0  0  0
    8.1342  -16.1977   21.7174 O   0  0  0  0  0  0  0  0  0  0  0  0
    8.7137  -14.4186   20.3468 N   0  0  0  0  0  0  0  0  0  0  0  0
    9.3247  -13.1246   20.1334 C   0  0  0  0  0  0  0  0  0  0  0  0
    8.5664  -12.4986   18.9714 C   0  0  0  0  0  0  0  0  0  0  0  0
    7.4806  -13.5073   18.6248 C   0  0  0  0  0  0  0  0  0  0  0  0
    8.1221  -14.7991   19.0934 C   0  0  1  0  0  0  0  0  0  0  0  0
    9.0950  -15.3276   18.1261 C   0  0  0  0  0  0  0  0  0  0  0  0
    8.7906  -15.9135   17.0691 O   0  0  0  0  0  0  0  0  0  0  0  0
   10.4431  -15.1656   18.4046 O   0  0  0  0  0  0  0  0  0  0  0  0
  2  1  1  6
  3  2  1  0
  4  2  1  0
  5  4  1  0
  5  6  1  1
  7  5  1  0
  7  8  2  0
  9  7  1  0
 10  9  1  0
 10 11  1  0
 11 13  1  0
 12 11  2  0
 13 14  1  0
 13 17  1  0
 14 15  1  0
 16 15  1  0
 17 16  1  0
 18 20  1  0
 17 18  1  6
 19 18  2  0
M  END
$$$$
