LGP.pdb
     RDKit          3D

 20 20  0  0  1  0  0  0  0  0999 V2000
    2.3198  -18.9211   20.6685 C   0  0  0  0  0  0  0  0  0  0  0  0
    3.7049  -19.2323   21.1412 C   0  0  1  0  0  0  0  0  0  0  0  0
    4.3796  -20.1638   20.1710 C   0  0  0  0  0  0  0  0  0  0  0  0
    4.5264  -18.0229   21.4417 C   0  0  0  0  0  0  0  0  0  0  0  0
    5.7578  -18.3333   22.2584 C   0  0  2  0  0  0  0  0  0  0  0  0
    5.4807  -19.4474   23.1439 N   0  0  0  0  0  0  0  0  0  0  0  0
    6.1560  -17.1773   23.0982 C   0  0  0  0  0  0  0  0  0  0  0  0
    6.6588  -16.1376   22.5525 O   0  0  0  0  0  0  0  0  0  0  0  0
    6.0193  -17.1303   24.5091 N   0  0  0  0  0  0  0  0  0  0  0  0
    6.1881  -15.9086   25.2724 C   0  0  0  0  0  0  0  0  0  0  0  0
    7.6299  -15.5891   25.4713 C   0  0  0  0  0  0  0  0  0  0  0  0
    8.5323  -16.1753   24.8334 O   0  0  0  0  0  0  0  0  0  0  0  0
    7.9525  -14.5855   26.4196 N   0  0  0  0  0  0  0  0  0  0  0  0
    6.9712  -13.8882   27.2221 C   0  0  0  0  0  0  0  0  0  0  0  0
    7.6107  -12.5560   27.5876 C   0  0  0  0  0  0  0  0  0  0  0  0
    8.9587  -12.5629   26.8808 C   0  0  0  0  0  0  0  0  0  0  0  0
    9.2339  -14.0515   26.7919 C   0  0  1  0  0  0  0  0  0  0  0  0
    9.7522  -14.6044   28.0518 C   0  0  0  0  0  0  0  0  0  0  0  0
   10.8914  -14.3794   28.5042 O   0  0  0  0  0  0  0  0  0  0  0  0
    8.9209  -15.4325   28.7895 O   0  0  0  0  0  0  0  0  0  0  0  0
  2  1  1  6
  3  2  1  0
  4  2  1  0
  5  4  1  0
  5  6  1  1
  7  5  1  0
  7  8  2  0
  9  7  1  0
 10  9  1  0
 10 11  1  0
 11 13  1  0
 12 11  2  0
 13 14  1  0
 13 17  1  0
 14 15  1  0
 16 15  1  0
 17 16  1  0
 18 20  1  0
 17 18  1  1
 19 18  2  0
M  END
$$$$
