LGP.pdb
     RDKit          3D

 20 20  0  0  1  0  0  0  0  0999 V2000
    9.2903  -14.6427   29.1557 C   0  0  0  0  0  0  0  0  0  0  0  0
   10.0267  -15.6953   28.3885 C   0  0  1  0  0  0  0  0  0  0  0  0
   11.5103  -15.4977   28.5431 C   0  0  0  0  0  0  0  0  0  0  0  0
    9.5965  -17.0881   28.7091 C   0  0  0  0  0  0  0  0  0  0  0  0
    9.2271  -17.8890   27.4836 C   0  0  2  0  0  0  0  0  0  0  0  0
   10.2801  -17.7695   26.4942 N   0  0  0  0  0  0  0  0  0  0  0  0
    7.9720  -17.3912   26.8695 C   0  0  0  0  0  0  0  0  0  0  0  0
    6.9082  -17.3110   27.5719 O   0  0  0  0  0  0  0  0  0  0  0  0
    7.8521  -16.9822   25.5168 N   0  0  0  0  0  0  0  0  0  0  0  0
    6.7444  -16.1786   25.0364 C   0  0  0  0  0  0  0  0  0  0  0  0
    7.2081  -14.8425   24.5670 C   0  0  0  0  0  0  0  0  0  0  0  0
    7.8151  -14.6953   23.4831 O   0  0  0  0  0  0  0  0  0  0  0  0
    6.9363  -13.7267   25.3986 N   0  0  0  0  0  0  0  0  0  0  0  0
    6.1272  -13.7909   26.5962 C   0  0  0  0  0  0  0  0  0  0  0  0
    5.5866  -12.3830   26.8030 C   0  0  0  0  0  0  0  0  0  0  0  0
    6.1039  -11.5872   25.6132 C   0  0  0  0  0  0  0  0  0  0  0  0
    7.3628  -12.3601   25.2704 C   0  0  1  0  0  0  0  0  0  0  0  0
    8.4909  -12.0166   26.1486 C   0  0  0  0  0  0  0  0  0  0  0  0
    8.8933  -12.7279   27.0894 O   0  0  0  0  0  0  0  0  0  0  0  0
    9.1545  -10.8218   25.9181 O   0  0  0  0  0  0  0  0  0  0  0  0
  2  1  1  1
  3  2  1  0
  4  2  1  0
  5  4  1  0
  5  6  1  6
  7  5  1  0
  7  8  2  0
  9  7  1  0
 10  9  1  0
 10 11  1  0
 11 13  1  0
 12 11  2  0
 13 14  1  0
 13 17  1  0
 14 15  1  0
 16 15  1  0
 17 16  1  0
 18 20  1  0
 17 18  1  1
 19 18  2  0
M  END
$$$$
