LGP.pdb
     RDKit          3D

 20 20  0  0  1  0  0  0  0  0999 V2000
    8.0009  -11.9979   27.0014 C   0  0  0  0  0  0  0  0  0  0  0  0
    7.1079  -13.1639   26.7154 C   0  0  1  0  0  0  0  0  0  0  0  0
    5.7019  -12.6849   26.4749 C   0  0  0  0  0  0  0  0  0  0  0  0
    7.6062  -14.0527   25.6247 C   0  0  0  0  0  0  0  0  0  0  0  0
    6.7005  -15.2324   25.3641 C   0  0  2  0  0  0  0  0  0  0  0  0
    6.6523  -16.0731   26.5443 N   0  0  0  0  0  0  0  0  0  0  0  0
    7.2005  -16.0608   24.2398 C   0  0  0  0  0  0  0  0  0  0  0  0
    7.9549  -17.0642   24.4752 O   0  0  0  0  0  0  0  0  0  0  0  0
    6.8983  -15.8210   22.8750 N   0  0  0  0  0  0  0  0  0  0  0  0
    7.3768  -16.6751   21.8048 C   0  0  0  0  0  0  0  0  0  0  0  0
    8.7634  -17.1515   22.0708 C   0  0  0  0  0  0  0  0  0  0  0  0
    9.1467  -17.4661   23.2193 O   0  0  0  0  0  0  0  0  0  0  0  0
    9.6481  -17.2386   20.9662 N   0  0  0  0  0  0  0  0  0  0  0  0
    9.3392  -16.7401   19.6437 C   0  0  0  0  0  0  0  0  0  0  0  0
   10.2006  -17.5523   18.6867 C   0  0  0  0  0  0  0  0  0  0  0  0
   10.9340  -18.5498   19.5721 C   0  0  0  0  0  0  0  0  0  0  0  0
   10.9691  -17.7997   20.8896 C   0  0  1  0  0  0  0  0  0  0  0  0
   12.0355  -16.7884   20.9333 C   0  0  0  0  0  0  0  0  0  0  0  0
   11.8714  -15.5799   20.6767 O   0  0  0  0  0  0  0  0  0  0  0  0
   13.3111  -17.2026   21.2829 O   0  0  0  0  0  0  0  0  0  0  0  0
  2  1  1  6
  3  2  1  0
  4  2  1  0
  5  4  1  0
  5  6  1  1
  7  5  1  0
  7  8  2  0
  9  7  1  0
 10  9  1  0
 10 11  1  0
 11 13  1  0
 12 11  2  0
 13 14  1  0
 13 17  1  0
 14 15  1  0
 16 15  1  0
 17 16  1  0
 18 20  1  0
 17 18  1  6
 19 18  2  0
M  END
$$$$
