LGP.pdb
     RDKit          3D

 20 20  0  0  1  0  0  0  0  0999 V2000
    9.4796  -13.3965   27.4309 C   0  0  0  0  0  0  0  0  0  0  0  0
   10.1865  -14.5771   28.0185 C   0  0  1  0  0  0  0  0  0  0  0  0
   10.5587  -14.2914   29.4481 C   0  0  0  0  0  0  0  0  0  0  0  0
    9.4449  -15.8632   27.8642 C   0  0  0  0  0  0  0  0  0  0  0  0
    9.4369  -16.3736   26.4433 C   0  0  2  0  0  0  0  0  0  0  0  0
   10.7225  -16.1074   25.8282 N   0  0  0  0  0  0  0  0  0  0  0  0
    8.3982  -15.6952   25.6301 C   0  0  0  0  0  0  0  0  0  0  0  0
    7.1621  -15.9169   25.8634 O   0  0  0  0  0  0  0  0  0  0  0  0
    8.6754  -14.7875   24.5763 N   0  0  0  0  0  0  0  0  0  0  0  0
    7.6317  -14.1244   23.8183 C   0  0  0  0  0  0  0  0  0  0  0  0
    7.3336  -14.8541   22.5538 C   0  0  0  0  0  0  0  0  0  0  0  0
    6.6911  -15.9274   22.5442 O   0  0  0  0  0  0  0  0  0  0  0  0
    7.8076  -14.2865   21.3440 N   0  0  0  0  0  0  0  0  0  0  0  0
    8.4400  -12.9883   21.2550 C   0  0  0  0  0  0  0  0  0  0  0  0
    8.2138  -12.5180   19.8250 C   0  0  0  0  0  0  0  0  0  0  0  0
    7.3727  -13.6118   19.1825 C   0  0  0  0  0  0  0  0  0  0  0  0
    7.7806  -14.8166   20.0083 C   0  0  1  0  0  0  0  0  0  0  0  0
    9.0679  -15.3830   19.5797 C   0  0  0  0  0  0  0  0  0  0  0  0
    9.2449  -16.0027   18.5131 O   0  0  0  0  0  0  0  0  0  0  0  0
   10.1613  -15.2190   20.4155 O   0  0  0  0  0  0  0  0  0  0  0  0
  2  1  1  1
  3  2  1  0
  4  2  1  0
  5  4  1  0
  5  6  1  6
  7  5  1  0
  7  8  2  0
  9  7  1  0
 10  9  1  0
 10 11  1  0
 11 13  1  0
 12 11  2  0
 13 14  1  0
 13 17  1  0
 14 15  1  0
 16 15  1  0
 17 16  1  0
 18 20  1  0
 17 18  1  6
 19 18  2  0
M  END
$$$$
