LGP.pdb
     RDKit          3D

 20 20  0  0  1  0  0  0  0  0999 V2000
    8.0923  -12.1188   27.0332 C   0  0  0  0  0  0  0  0  0  0  0  0
    7.2999  -13.3463   26.7106 C   0  0  1  0  0  0  0  0  0  0  0  0
    5.8593  -12.9793   26.4785 C   0  0  0  0  0  0  0  0  0  0  0  0
    7.8720  -14.1590   25.5970 C   0  0  0  0  0  0  0  0  0  0  0  0
    7.0644  -15.3984   25.2950 C   0  0  2  0  0  0  0  0  0  0  0  0
    7.5568  -16.5018   26.0964 N   0  0  0  0  0  0  0  0  0  0  0  0
    7.1834  -15.7880   23.8687 C   0  0  0  0  0  0  0  0  0  0  0  0
    7.9574  -16.7473   23.5336 O   0  0  0  0  0  0  0  0  0  0  0  0
    6.4827  -15.1595   22.8078 N   0  0  0  0  0  0  0  0  0  0  0  0
    6.5901  -15.5980   21.4295 C   0  0  0  0  0  0  0  0  0  0  0  0
    8.0085  -15.6056   20.9725 C   0  0  0  0  0  0  0  0  0  0  0  0
    8.6925  -16.6528   20.9534 O   0  0  0  0  0  0  0  0  0  0  0  0
    8.5672  -14.3715   20.5540 N   0  0  0  0  0  0  0  0  0  0  0  0
    8.1273  -13.0810   21.0380 C   0  0  0  0  0  0  0  0  0  0  0  0
    8.4932  -12.0857   19.9458 C   0  0  0  0  0  0  0  0  0  0  0  0
    9.0932  -12.9315   18.8317 C   0  0  0  0  0  0  0  0  0  0  0  0
    9.6268  -14.1135   19.6178 C   0  0  1  0  0  0  0  0  0  0  0  0
   10.9165  -13.8250   20.2621 C   0  0  0  0  0  0  0  0  0  0  0  0
   11.9604  -13.5301   19.6485 O   0  0  0  0  0  0  0  0  0  0  0  0
   10.9803  -13.8837   21.6454 O   0  0  0  0  0  0  0  0  0  0  0  0
  2  1  1  6
  3  2  1  0
  4  2  1  0
  5  4  1  0
  5  6  1  1
  7  5  1  0
  7  8  2  0
  9  7  1  0
 10  9  1  0
 10 11  1  0
 11 13  1  0
 12 11  2  0
 13 14  1  0
 13 17  1  0
 14 15  1  0
 16 15  1  0
 17 16  1  0
 18 20  1  0
 17 18  1  1
 19 18  2  0
M  END
$$$$
