LGP.pdb
     RDKit          3D

 20 20  0  0  1  0  0  0  0  0999 V2000
    6.9505  -12.4607   18.7202 C   0  0  0  0  0  0  0  0  0  0  0  0
    7.7017  -13.6295   19.2755 C   0  0  1  0  0  0  0  0  0  0  0  0
    9.0939  -13.6606   18.7055 C   0  0  0  0  0  0  0  0  0  0  0  0
    7.6899  -13.7018   20.7663 C   0  0  0  0  0  0  0  0  0  0  0  0
    8.4447  -14.8930   21.3058 C   0  0  2  0  0  0  0  0  0  0  0  0
    7.6743  -16.0985   21.0710 N   0  0  0  0  0  0  0  0  0  0  0  0
    8.6665  -14.7765   22.7679 C   0  0  0  0  0  0  0  0  0  0  0  0
    9.5799  -14.0026   23.2132 O   0  0  0  0  0  0  0  0  0  0  0  0
    7.9201  -15.4798   23.7475 N   0  0  0  0  0  0  0  0  0  0  0  0
    8.0413  -15.2106   25.1675 C   0  0  0  0  0  0  0  0  0  0  0  0
    9.3751  -15.6266   25.6857 C   0  0  0  0  0  0  0  0  0  0  0  0
   10.1805  -16.2836   24.9896 O   0  0  0  0  0  0  0  0  0  0  0  0
    9.7082  -15.2496   27.0113 N   0  0  0  0  0  0  0  0  0  0  0  0
    8.8306  -14.4968   27.8809 C   0  0  0  0  0  0  0  0  0  0  0  0
    9.7424  -13.7954   28.8779 C   0  0  0  0  0  0  0  0  0  0  0  0
   11.1534  -14.1695   28.4470 C   0  0  0  0  0  0  0  0  0  0  0  0
   10.9066  -15.5008   27.7640 C   0  0  1  0  0  0  0  0  0  0  0  0
   10.7722  -16.6083   28.7216 C   0  0  0  0  0  0  0  0  0  0  0  0
    9.6845  -17.0860   29.0982 O   0  0  0  0  0  0  0  0  0  0  0  0
   11.9310  -17.1616   29.2433 O   0  0  0  0  0  0  0  0  0  0  0  0
  2  1  1  1
  3  2  1  0
  4  2  1  0
  5  4  1  0
  5  6  1  1
  7  5  1  0
  7  8  2  0
  9  7  1  0
 10  9  1  0
 10 11  1  0
 11 13  1  0
 12 11  2  0
 13 14  1  0
 13 17  1  0
 14 15  1  0
 16 15  1  0
 17 16  1  0
 18 20  1  0
 17 18  1  1
 19 18  2  0
M  END
$$$$
