LGP.pdb
     RDKit          3D

 20 20  0  0  1  0  0  0  0  0999 V2000
    7.9413  -12.2290   18.6489 C   0  0  0  0  0  0  0  0  0  0  0  0
    8.1527  -13.6122   19.1789 C   0  0  1  0  0  0  0  0  0  0  0  0
    9.5829  -14.0286   18.9665 C   0  0  0  0  0  0  0  0  0  0  0  0
    7.7061  -13.7922   20.5917 C   0  0  0  0  0  0  0  0  0  0  0  0
    7.8513  -15.2134   21.0805 C   0  0  2  0  0  0  0  0  0  0  0  0
    6.8657  -16.0513   20.4258 N   0  0  0  0  0  0  0  0  0  0  0  0
    7.6248  -15.3087   22.5433 C   0  0  0  0  0  0  0  0  0  0  0  0
    6.4336  -15.3050   23.0043 O   0  0  0  0  0  0  0  0  0  0  0  0
    8.6605  -15.4070   23.5072 N   0  0  0  0  0  0  0  0  0  0  0  0
    8.4070  -15.3834   24.9350 C   0  0  0  0  0  0  0  0  0  0  0  0
    9.6754  -15.4727   25.7120 C   0  0  0  0  0  0  0  0  0  0  0  0
   10.7671  -15.7504   25.1679 O   0  0  0  0  0  0  0  0  0  0  0  0
    9.6061  -15.2297   27.1071 N   0  0  0  0  0  0  0  0  0  0  0  0
    8.3784  -14.9408   27.8160 C   0  0  0  0  0  0  0  0  0  0  0  0
    8.7932  -14.1599   29.0551 C   0  0  0  0  0  0  0  0  0  0  0  0
   10.3013  -13.9982   28.9282 C   0  0  0  0  0  0  0  0  0  0  0  0
   10.6553  -15.2109   28.0894 C   0  0  1  0  0  0  0  0  0  0  0  0
   10.7299  -16.4442   28.8863 C   0  0  0  0  0  0  0  0  0  0  0  0
   11.6818  -16.7444   29.6326 O   0  0  0  0  0  0  0  0  0  0  0  0
    9.6723  -17.3364   28.8050 O   0  0  0  0  0  0  0  0  0  0  0  0
  2  1  1  1
  3  2  1  0
  4  2  1  0
  5  4  1  0
  5  6  1  6
  7  5  1  0
  7  8  2  0
  9  7  1  0
 10  9  1  0
 10 11  1  0
 11 13  1  0
 12 11  2  0
 13 14  1  0
 13 17  1  0
 14 15  1  0
 16 15  1  0
 17 16  1  0
 18 20  1  0
 17 18  1  1
 19 18  2  0
M  END
$$$$
