LGP.pdb
     RDKit          3D

 20 20  0  0  1  0  0  0  0  0999 V2000
    8.7099  -18.0941   27.8502 C   0  0  0  0  0  0  0  0  0  0  0  0
    8.5984  -18.5546   26.4309 C   0  0  1  0  0  0  0  0  0  0  0  0
    9.7167  -19.5099   26.1134 C   0  0  0  0  0  0  0  0  0  0  0  0
    7.2562  -19.1041   26.0781 C   0  0  0  0  0  0  0  0  0  0  0  0
    6.8886  -18.8811   24.6307 C   0  0  2  0  0  0  0  0  0  0  0  0
    8.0082  -19.2501   23.7867 N   0  0  0  0  0  0  0  0  0  0  0  0
    6.5736  -17.4561   24.3654 C   0  0  0  0  0  0  0  0  0  0  0  0
    5.5744  -16.9074   24.9417 O   0  0  0  0  0  0  0  0  0  0  0  0
    7.3182  -16.6226   23.4923 N   0  0  0  0  0  0  0  0  0  0  0  0
    7.0403  -15.2081   23.3328 C   0  0  0  0  0  0  0  0  0  0  0  0
    7.9494  -14.3792   24.1737 C   0  0  0  0  0  0  0  0  0  0  0  0
    9.1548  -14.2150   23.8821 O   0  0  0  0  0  0  0  0  0  0  0  0
    7.3984  -13.7736   25.3313 N   0  0  0  0  0  0  0  0  0  0  0  0
    5.9841  -13.7516   25.6350 C   0  0  0  0  0  0  0  0  0  0  0  0
    5.7759  -12.5422   26.5357 C   0  0  0  0  0  0  0  0  0  0  0  0
    7.1478  -11.8911   26.6389 C   0  0  0  0  0  0  0  0  0  0  0  0
    8.0550  -13.0842   26.4081 C   0  0  1  0  0  0  0  0  0  0  0  0
    8.2185  -13.9087   27.6144 C   0  0  0  0  0  0  0  0  0  0  0  0
    7.6005  -14.9687   27.8324 O   0  0  0  0  0  0  0  0  0  0  0  0
    9.1200  -13.4820   28.5768 O   0  0  0  0  0  0  0  0  0  0  0  0
  2  1  1  1
  3  2  1  0
  4  2  1  0
  5  4  1  0
  5  6  1  6
  7  5  1  0
  7  8  2  0
  9  7  1  0
 10  9  1  0
 10 11  1  0
 11 13  1  0
 12 11  2  0
 13 14  1  0
 13 17  1  0
 14 15  1  0
 16 15  1  0
 17 16  1  0
 18 20  1  0
 17 18  1  1
 19 18  2  0
M  END
$$$$
