LGP.pdb
     RDKit          3D

 20 20  0  0  1  0  0  0  0  0999 V2000
    7.0445  -12.6378   18.5856 C   0  0  0  0  0  0  0  0  0  0  0  0
    7.9066  -13.6868   19.2143 C   0  0  1  0  0  0  0  0  0  0  0  0
    9.3113  -13.5793   18.6857 C   0  0  0  0  0  0  0  0  0  0  0  0
    7.8538  -13.6974   20.7059 C   0  0  0  0  0  0  0  0  0  0  0  0
    8.7126  -14.7771   21.3196 C   0  0  2  0  0  0  0  0  0  0  0  0
    8.2121  -16.0773   20.9187 N   0  0  0  0  0  0  0  0  0  0  0  0
    8.6798  -14.7180   22.8014 C   0  0  0  0  0  0  0  0  0  0  0  0
    9.3104  -13.7923   23.4154 O   0  0  0  0  0  0  0  0  0  0  0  0
    7.9801  -15.6389   23.6223 N   0  0  0  0  0  0  0  0  0  0  0  0
    7.9737  -15.5506   25.0699 C   0  0  0  0  0  0  0  0  0  0  0  0
    9.3405  -15.7462   25.6305 C   0  0  0  0  0  0  0  0  0  0  0  0
   10.2674  -16.2472   24.9562 O   0  0  0  0  0  0  0  0  0  0  0  0
    9.5615  -15.3410   26.9712 N   0  0  0  0  0  0  0  0  0  0  0  0
    8.5517  -14.7267   27.8055 C   0  0  0  0  0  0  0  0  0  0  0  0
    9.3141  -13.9167   28.8446 C   0  0  0  0  0  0  0  0  0  0  0  0
   10.7804  -14.0868   28.4737 C   0  0  0  0  0  0  0  0  0  0  0  0
   10.7502  -15.4320   27.7740 C   0  0  1  0  0  0  0  0  0  0  0  0
   10.7305  -16.5578   28.7194 C   0  0  0  0  0  0  0  0  0  0  0  0
   11.7106  -16.9289   29.3937 O   0  0  0  0  0  0  0  0  0  0  0  0
    9.5436  -17.2566   28.8743 O   0  0  0  0  0  0  0  0  0  0  0  0
  2  1  1  1
  3  2  1  0
  4  2  1  0
  5  4  1  0
  5  6  1  1
  7  5  1  0
  7  8  2  0
  9  7  1  0
 10  9  1  0
 10 11  1  0
 11 13  1  0
 12 11  2  0
 13 14  1  0
 13 17  1  0
 14 15  1  0
 16 15  1  0
 17 16  1  0
 18 20  1  0
 17 18  1  1
 19 18  2  0
M  END
$$$$
