FWC.pdb
     RDKit          3D

 32 34  0  0  1  0  0  0  0  0999 V2000
    8.7652  -16.1721   21.3983 N   0  0  0  0  0  0  0  0  0  0  0  0
    9.3339  -14.9779   21.9345 C   0  0  1  0  0  0  0  0  0  0  0  0
    8.4436  -13.7874   21.7338 C   0  0  0  0  0  0  0  0  0  0  0  0
    8.0799  -13.6269   20.2864 C   0  0  0  0  0  0  0  0  0  0  0  0
    8.9103  -12.9620   19.4127 C   0  0  0  0  0  0  0  0  0  0  0  0
    8.5751  -12.8176   18.0942 C   0  0  0  0  0  0  0  0  0  0  0  0
    7.3737  -13.3597   17.6583 C   0  0  0  0  0  0  0  0  0  0  0  0
    6.5281  -14.0270   18.5088 C   0  0  0  0  0  0  0  0  0  0  0  0
    6.8962  -14.1509   19.8162 C   0  0  0  0  0  0  0  0  0  0  0  0
    9.7154  -15.0767   23.3710 C   0  0  0  0  0  0  0  0  0  0  0  0
   10.3538  -14.0640   23.8084 O   0  0  0  0  0  0  0  0  0  0  0  0
    9.3865  -16.2005   24.1494 N   0  0  0  0  0  0  0  0  0  0  0  0
    9.8114  -16.2031   25.5593 C   0  0  1  0  0  0  0  0  0  0  0  0
    8.6292  -16.3218   26.4431 C   0  0  0  0  0  0  0  0  0  0  0  0
    7.4932  -15.4506   26.2542 C   0  0  0  0  0  0  0  0  0  0  0  0
    6.2191  -15.7845   25.8623 C   0  0  0  0  0  0  0  0  0  0  0  0
    5.4791  -14.6481   25.8132 N   0  0  0  0  0  0  0  0  0  0  0  0
    6.2260  -13.5860   26.1597 C   0  0  0  0  0  0  0  0  0  0  0  0
    5.9238  -12.2277   26.2765 C   0  0  0  0  0  0  0  0  0  0  0  0
    6.8829  -11.3413   26.6737 C   0  0  0  0  0  0  0  0  0  0  0  0
    8.1445  -11.8023   26.9554 C   0  0  0  0  0  0  0  0  0  0  0  0
    8.4418  -13.1556   26.8373 C   0  0  0  0  0  0  0  0  0  0  0  0
    7.4868  -14.0681   26.4379 C   0  0  0  0  0  0  0  0  0  0  0  0
   10.9327  -17.0960   25.7453 C   0  0  0  0  0  0  0  0  0  0  0  0
   10.8635  -18.3357   25.4352 O   0  0  0  0  0  0  0  0  0  0  0  0
   12.1859  -16.6724   26.2699 N   0  0  0  0  0  0  0  0  0  0  0  0
   12.6219  -17.1513   27.5681 C   0  0  1  0  0  0  0  0  0  0  0  0
   11.4574  -16.9628   28.5762 C   0  0  0  0  0  0  0  0  0  0  0  0
   11.5267  -15.2650   29.2064 S   0  0  0  0  0  0  0  0  0  0  0  0
   13.0129  -18.5657   27.5915 C   0  0  0  0  0  0  0  0  0  0  0  0
   12.8224  -19.3178   26.4185 O   0  0  0  0  0  0  0  0  0  0  0  0
   13.5002  -19.1751   28.5505 O   0  0  0  0  0  0  0  0  0  0  0  0
  2  1  1  1
  3  2  1  0
  3  4  1  0
  4  5  2  0
  4  9  1  0
  5  6  1  0
  6  7  2  0
  8  7  1  0
  9  8  2  0
 10  2  1  0
 11 10  2  0
 12 10  1  0
 13 12  1  0
 13 14  1  1
 15 23  1  0
 15 14  1  0
 16 15  2  0
 17 16  1  0
 17 18  1  0
 18 23  2  0
 19 18  1  0
 19 20  2  0
 20 21  1  0
 21 22  2  0
 23 22  1  0
 24 13  1  0
 24 26  1  0
 25 24  2  0
 27 26  1  0
 27 28  1  1
 28 29  1  0
 30 27  1  0
 31 30  1  0
 32 30  2  0
M  END
$$$$
