FWC.pdb
     RDKit          3D

 32 34  0  0  1  0  0  0  0  0999 V2000
    9.6530  -19.1647   19.2378 N   0  0  0  0  0  0  0  0  0  0  0  0
    9.3151  -19.3250   20.6152 C   0  0  1  0  0  0  0  0  0  0  0  0
   10.0509  -20.4681   21.2491 C   0  0  0  0  0  0  0  0  0  0  0  0
    9.7259  -21.7627   20.5627 C   0  0  0  0  0  0  0  0  0  0  0  0
   10.5342  -22.2640   19.5675 C   0  0  0  0  0  0  0  0  0  0  0  0
   10.2344  -23.4443   18.9441 C   0  0  0  0  0  0  0  0  0  0  0  0
    9.0919  -24.1256   19.3412 C   0  0  0  0  0  0  0  0  0  0  0  0
    8.2694  -23.6476   20.3305 C   0  0  0  0  0  0  0  0  0  0  0  0
    8.6008  -22.4677   20.9289 C   0  0  0  0  0  0  0  0  0  0  0  0
    9.5039  -18.0961   21.4356 C   0  0  0  0  0  0  0  0  0  0  0  0
   10.6123  -17.5014   21.2305 O   0  0  0  0  0  0  0  0  0  0  0  0
    8.5278  -17.6566   22.3471 N   0  0  0  0  0  0  0  0  0  0  0  0
    8.7987  -16.4162   23.0931 C   0  0  1  0  0  0  0  0  0  0  0  0
    7.5787  -15.5783   23.1402 C   0  0  0  0  0  0  0  0  0  0  0  0
    7.6148  -14.2814   23.7743 C   0  0  0  0  0  0  0  0  0  0  0  0
    8.1044  -13.1002   23.2710 C   0  0  0  0  0  0  0  0  0  0  0  0
    7.9370  -12.1367   24.2118 N   0  0  0  0  0  0  0  0  0  0  0  0
    7.3553  -12.6486   25.3098 C   0  0  0  0  0  0  0  0  0  0  0  0
    6.9668  -12.0689   26.5193 C   0  0  0  0  0  0  0  0  0  0  0  0
    6.3658  -12.8260   27.4832 C   0  0  0  0  0  0  0  0  0  0  0  0
    6.1500  -14.1607   27.2478 C   0  0  0  0  0  0  0  0  0  0  0  0
    6.5389  -14.7345   26.0423 C   0  0  0  0  0  0  0  0  0  0  0  0
    7.1472  -13.9869   25.0548 C   0  0  0  0  0  0  0  0  0  0  0  0
    9.5093  -16.7101   24.3170 C   0  0  0  0  0  0  0  0  0  0  0  0
    9.1532  -17.6677   25.0876 O   0  0  0  0  0  0  0  0  0  0  0  0
   10.6490  -15.9764   24.7503 N   0  0  0  0  0  0  0  0  0  0  0  0
   11.3602  -16.3904   25.9452 C   0  0  1  0  0  0  0  0  0  0  0  0
   12.7292  -15.6606   25.9780 C   0  0  0  0  0  0  0  0  0  0  0  0
   13.6021  -16.0300   24.4333 S   0  0  0  0  0  0  0  0  0  0  0  0
   10.6606  -16.0914   27.2002 C   0  0  0  0  0  0  0  0  0  0  0  0
   11.2458  -16.5368   28.3989 O   0  0  0  0  0  0  0  0  0  0  0  0
    9.5928  -15.4789   27.3156 O   0  0  0  0  0  0  0  0  0  0  0  0
  2  1  1  6
  3  2  1  0
  3  4  1  0
  4  5  2  0
  4  9  1  0
  5  6  1  0
  6  7  2  0
  8  7  1  0
  9  8  2  0
 10  2  1  0
 11 10  2  0
 12 10  1  0
 13 12  1  0
 13 14  1  1
 15 23  1  0
 15 14  1  0
 16 15  2  0
 17 16  1  0
 17 18  1  0
 18 23  2  0
 19 18  1  0
 19 20  2  0
 20 21  1  0
 21 22  2  0
 23 22  1  0
 24 13  1  0
 24 26  1  0
 25 24  2  0
 27 26  1  0
 27 28  1  1
 28 29  1  0
 30 27  1  0
 31 30  1  0
 32 30  2  0
M  END
$$$$
