FWC.pdb
     RDKit          3D

 32 34  0  0  1  0  0  0  0  0999 V2000
   10.0305  -15.0589   19.9299 N   0  0  0  0  0  0  0  0  0  0  0  0
    9.7488  -16.1702   20.7800 C   0  0  1  0  0  0  0  0  0  0  0  0
   10.6656  -17.3285   20.5197 C   0  0  0  0  0  0  0  0  0  0  0  0
   10.4233  -17.9095   19.1570 C   0  0  0  0  0  0  0  0  0  0  0  0
    9.5935  -18.9938   18.9821 C   0  0  0  0  0  0  0  0  0  0  0  0
    9.3754  -19.5206   17.7385 C   0  0  0  0  0  0  0  0  0  0  0  0
   10.0133  -18.9327   16.6546 C   0  0  0  0  0  0  0  0  0  0  0  0
   10.8453  -17.8512   16.8019 C   0  0  0  0  0  0  0  0  0  0  0  0
   11.0384  -17.3538   18.0571 C   0  0  0  0  0  0  0  0  0  0  0  0
    9.7607  -15.8437   22.2333 C   0  0  0  0  0  0  0  0  0  0  0  0
   10.4352  -14.8024   22.5249 O   0  0  0  0  0  0  0  0  0  0  0  0
    9.0787  -16.6334   23.1758 N   0  0  0  0  0  0  0  0  0  0  0  0
    9.0133  -16.1397   24.5615 C   0  0  1  0  0  0  0  0  0  0  0  0
    7.7025  -16.4827   25.1588 C   0  0  0  0  0  0  0  0  0  0  0  0
    6.7784  -15.4363   25.5277 C   0  0  0  0  0  0  0  0  0  0  0  0
    5.4705  -15.5577   25.9314 C   0  0  0  0  0  0  0  0  0  0  0  0
    4.9840  -14.3141   26.1727 N   0  0  0  0  0  0  0  0  0  0  0  0
    5.9290  -13.3871   25.9408 C   0  0  0  0  0  0  0  0  0  0  0  0
    5.9232  -11.9956   26.0580 C   0  0  0  0  0  0  0  0  0  0  0  0
    7.0477  -11.2766   25.7716 C   0  0  0  0  0  0  0  0  0  0  0  0
    8.1802  -11.9384   25.3676 C   0  0  0  0  0  0  0  0  0  0  0  0
    8.1818  -13.3241   25.2515 C   0  0  0  0  0  0  0  0  0  0  0  0
    7.0561  -14.0696   25.5368 C   0  0  0  0  0  0  0  0  0  0  0  0
   10.2283  -16.4701   25.2712 C   0  0  0  0  0  0  0  0  0  0  0  0
   11.1261  -17.2210   24.7537 O   0  0  0  0  0  0  0  0  0  0  0  0
   10.5229  -15.9863   26.5767 N   0  0  0  0  0  0  0  0  0  0  0  0
   11.6722  -16.5048   27.2944 C   0  0  1  0  0  0  0  0  0  0  0  0
   11.8483  -15.6814   28.5977 C   0  0  0  0  0  0  0  0  0  0  0  0
   10.7359  -14.2530   28.5167 S   0  0  0  0  0  0  0  0  0  0  0  0
   11.5649  -17.9202   27.6673 C   0  0  0  0  0  0  0  0  0  0  0  0
   10.3551  -18.5813   27.3893 O   0  0  0  0  0  0  0  0  0  0  0  0
   12.4414  -18.6034   28.2093 O   0  0  0  0  0  0  0  0  0  0  0  0
  2  1  1  6
  3  2  1  0
  3  4  1  0
  4  5  2  0
  4  9  1  0
  5  6  1  0
  6  7  2  0
  8  7  1  0
  9  8  2  0
 10  2  1  0
 11 10  2  0
 12 10  1  0
 13 12  1  0
 13 14  1  1
 15 23  1  0
 15 14  1  0
 16 15  2  0
 17 16  1  0
 17 18  1  0
 18 23  2  0
 19 18  1  0
 19 20  2  0
 20 21  1  0
 21 22  2  0
 23 22  1  0
 24 13  1  0
 24 26  1  0
 25 24  2  0
 27 26  1  0
 27 28  1  1
 28 29  1  0
 30 27  1  0
 31 30  1  0
 32 30  2  0
M  END
$$$$
