FWC.pdb
     RDKit          3D

 32 34  0  0  1  0  0  0  0  0999 V2000
    7.4078  -15.5922   21.6308 N   0  0  0  0  0  0  0  0  0  0  0  0
    8.8242  -15.4194   21.5976 C   0  0  1  0  0  0  0  0  0  0  0  0
    9.2230  -14.1434   20.9176 C   0  0  0  0  0  0  0  0  0  0  0  0
    8.3434  -13.8687   19.7327 C   0  0  0  0  0  0  0  0  0  0  0  0
    7.5003  -12.7808   19.7083 C   0  0  0  0  0  0  0  0  0  0  0  0
    6.7000  -12.5339   18.6265 C   0  0  0  0  0  0  0  0  0  0  0  0
    6.7595  -13.4101   17.5513 C   0  0  0  0  0  0  0  0  0  0  0  0
    7.5913  -14.5019   17.5507 C   0  0  0  0  0  0  0  0  0  0  0  0
    8.3742  -14.7153   18.6468 C   0  0  0  0  0  0  0  0  0  0  0  0
    9.4786  -15.4963   22.9336 C   0  0  0  0  0  0  0  0  0  0  0  0
   10.2375  -14.5068   23.1965 O   0  0  0  0  0  0  0  0  0  0  0  0
    9.2590  -16.5776   23.8051 N   0  0  0  0  0  0  0  0  0  0  0  0
    9.9600  -16.5648   25.1000 C   0  0  1  0  0  0  0  0  0  0  0  0
    8.9778  -16.6185   26.2068 C   0  0  0  0  0  0  0  0  0  0  0  0
    7.8460  -15.7218   26.2151 C   0  0  0  0  0  0  0  0  0  0  0  0
    6.5399  -15.9951   25.8870 C   0  0  0  0  0  0  0  0  0  0  0  0
    5.8181  -14.8555   26.0346 N   0  0  0  0  0  0  0  0  0  0  0  0
    6.6080  -13.8497   26.4477 C   0  0  0  0  0  0  0  0  0  0  0  0
    6.3393  -12.5136   26.7520 C   0  0  0  0  0  0  0  0  0  0  0  0
    7.3415  -11.6902   27.1773 C   0  0  0  0  0  0  0  0  0  0  0  0
    8.6129  -12.1921   27.3008 C   0  0  0  0  0  0  0  0  0  0  0  0
    8.8766  -13.5230   26.9961 C   0  0  0  0  0  0  0  0  0  0  0  0
    7.8779  -14.3722   26.5653 C   0  0  0  0  0  0  0  0  0  0  0  0
   11.0660  -17.4952   25.0827 C   0  0  0  0  0  0  0  0  0  0  0  0
   10.9073  -18.7219   24.7542 O   0  0  0  0  0  0  0  0  0  0  0  0
   12.3994  -17.1251   25.4144 N   0  0  0  0  0  0  0  0  0  0  0  0
   13.4537  -18.1211   25.3765 C   0  0  1  0  0  0  0  0  0  0  0  0
   14.6040  -17.5832   24.4847 C   0  0  0  0  0  0  0  0  0  0  0  0
   14.9248  -15.8627   24.9553 S   0  0  0  0  0  0  0  0  0  0  0  0
   14.0197  -18.4536   26.6891 C   0  0  0  0  0  0  0  0  0  0  0  0
   14.9855  -19.4743   26.7468 O   0  0  0  0  0  0  0  0  0  0  0  0
   13.7313  -17.9215   27.7672 O   0  0  0  0  0  0  0  0  0  0  0  0
  2  1  1  1
  3  2  1  0
  3  4  1  0
  4  5  2  0
  4  9  1  0
  5  6  1  0
  6  7  2  0
  8  7  1  0
  9  8  2  0
 10  2  1  0
 11 10  2  0
 12 10  1  0
 13 12  1  0
 13 14  1  1
 15 23  1  0
 15 14  1  0
 16 15  2  0
 17 16  1  0
 17 18  1  0
 18 23  2  0
 19 18  1  0
 19 20  2  0
 20 21  1  0
 21 22  2  0
 23 22  1  0
 24 13  1  0
 24 26  1  0
 25 24  2  0
 27 26  1  0
 27 28  1  6
 28 29  1  0
 30 27  1  0
 31 30  1  0
 32 30  2  0
M  END
$$$$
