FWC.pdb
     RDKit          3D

 32 34  0  0  1  0  0  0  0  0999 V2000
    8.2700  -16.3690   19.4210 N   0  0  0  0  0  0  0  0  0  0  0  0
    8.4557  -17.3383   20.4520 C   0  0  1  0  0  0  0  0  0  0  0  0
    9.2908  -18.4976   19.9953 C   0  0  0  0  0  0  0  0  0  0  0  0
    8.6465  -19.1996   18.8355 C   0  0  0  0  0  0  0  0  0  0  0  0
    7.6505  -20.1299   19.0299 C   0  0  0  0  0  0  0  0  0  0  0  0
    7.0658  -20.7677   17.9703 C   0  0  0  0  0  0  0  0  0  0  0  0
    7.5029  -20.4526   16.6908 C   0  0  0  0  0  0  0  0  0  0  0  0
    8.4939  -19.5291   16.4699 C   0  0  0  0  0  0  0  0  0  0  0  0
    9.0531  -18.9139   17.5511 C   0  0  0  0  0  0  0  0  0  0  0  0
    9.0217  -16.7845   21.7137 C   0  0  0  0  0  0  0  0  0  0  0  0
    9.8664  -15.8470   21.5350 O   0  0  0  0  0  0  0  0  0  0  0  0
    8.6386  -17.2736   22.9751 N   0  0  0  0  0  0  0  0  0  0  0  0
    9.2836  -16.6851   24.1608 C   0  0  1  0  0  0  0  0  0  0  0  0
    8.3686  -16.7591   25.3227 C   0  0  0  0  0  0  0  0  0  0  0  0
    7.4554  -15.6744   25.5958 C   0  0  0  0  0  0  0  0  0  0  0  0
    6.0919  -15.7287   25.7577 C   0  0  0  0  0  0  0  0  0  0  0  0
    5.6425  -14.4704   25.9945 N   0  0  0  0  0  0  0  0  0  0  0  0
    6.6652  -13.5985   25.9931 C   0  0  0  0  0  0  0  0  0  0  0  0
    6.7187  -12.2187   26.2012 C   0  0  0  0  0  0  0  0  0  0  0  0
    7.9155  -11.5633   26.1632 C   0  0  0  0  0  0  0  0  0  0  0  0
    9.0617  -12.2771   25.9178 C   0  0  0  0  0  0  0  0  0  0  0  0
    9.0043  -13.6509   25.7103 C   0  0  0  0  0  0  0  0  0  0  0  0
    7.8050  -14.3326   25.7452 C   0  0  0  0  0  0  0  0  0  0  0  0
   10.6391  -17.1700   24.2891 C   0  0  0  0  0  0  0  0  0  0  0  0
   10.9353  -18.3987   24.0882 O   0  0  0  0  0  0  0  0  0  0  0  0
   11.7361  -16.3316   24.6335 N   0  0  0  0  0  0  0  0  0  0  0  0
   13.0640  -16.9009   24.7650 C   0  0  1  0  0  0  0  0  0  0  0  0
   14.0959  -15.8609   24.2537 C   0  0  0  0  0  0  0  0  0  0  0  0
   15.7396  -16.6218   24.3122 S   0  0  0  0  0  0  0  0  0  0  0  0
   13.4337  -17.2641   26.1381 C   0  0  0  0  0  0  0  0  0  0  0  0
   12.9043  -16.4898   27.1860 O   0  0  0  0  0  0  0  0  0  0  0  0
   14.1742  -18.1950   26.4754 O   0  0  0  0  0  0  0  0  0  0  0  0
  2  1  1  6
  3  2  1  0
  3  4  1  0
  4  5  2  0
  4  9  1  0
  5  6  1  0
  6  7  2  0
  8  7  1  0
  9  8  2  0
 10  2  1  0
 11 10  2  0
 12 10  1  0
 13 12  1  0
 13 14  1  1
 15 23  1  0
 15 14  1  0
 16 15  2  0
 17 16  1  0
 17 18  1  0
 18 23  2  0
 19 18  1  0
 19 20  2  0
 20 21  1  0
 21 22  2  0
 23 22  1  0
 24 13  1  0
 24 26  1  0
 25 24  2  0
 27 26  1  0
 27 28  1  1
 28 29  1  0
 30 27  1  0
 31 30  1  0
 32 30  2  0
M  END
$$$$
