FWC.pdb
     RDKit          3D

 32 34  0  0  1  0  0  0  0  0999 V2000
    9.1030  -19.1461   19.6692 N   0  0  0  0  0  0  0  0  0  0  0  0
    8.4320  -18.8929   20.9032 C   0  0  1  0  0  0  0  0  0  0  0  0
    8.2659  -20.1380   21.7231 C   0  0  0  0  0  0  0  0  0  0  0  0
    7.4455  -19.8673   22.9505 C   0  0  0  0  0  0  0  0  0  0  0  0
    8.0238  -19.8251   24.1990 C   0  0  0  0  0  0  0  0  0  0  0  0
    7.2725  -19.5782   25.3154 C   0  0  0  0  0  0  0  0  0  0  0  0
    5.9090  -19.3708   25.1573 C   0  0  0  0  0  0  0  0  0  0  0  0
    5.3079  -19.4076   23.9240 C   0  0  0  0  0  0  0  0  0  0  0  0
    6.0894  -19.6565   22.8343 C   0  0  0  0  0  0  0  0  0  0  0  0
    9.0654  -17.8314   21.7343 C   0  0  0  0  0  0  0  0  0  0  0  0
   10.3339  -17.9252   21.8160 O   0  0  0  0  0  0  0  0  0  0  0  0
    8.3050  -16.8282   22.3607 N   0  0  0  0  0  0  0  0  0  0  0  0
    9.0272  -15.6768   22.9273 C   0  0  1  0  0  0  0  0  0  0  0  0
    8.0940  -14.5453   23.1306 C   0  0  0  0  0  0  0  0  0  0  0  0
    7.3827  -14.4084   24.3797 C   0  0  0  0  0  0  0  0  0  0  0  0
    6.7504  -15.3846   25.1117 C   0  0  0  0  0  0  0  0  0  0  0  0
    6.2113  -14.8057   26.2143 N   0  0  0  0  0  0  0  0  0  0  0  0
    6.4705  -13.4871   26.2265 C   0  0  0  0  0  0  0  0  0  0  0  0
    6.1504  -12.4791   27.1384 C   0  0  0  0  0  0  0  0  0  0  0  0
    6.5601  -11.1959   26.9170 C   0  0  0  0  0  0  0  0  0  0  0  0
    7.2882  -10.9112   25.7891 C   0  0  0  0  0  0  0  0  0  0  0  0
    7.6045  -11.9176   24.8830 C   0  0  0  0  0  0  0  0  0  0  0  0
    7.2006  -13.2210   25.0882 C   0  0  0  0  0  0  0  0  0  0  0  0
    9.8788  -16.1026   24.0148 C   0  0  0  0  0  0  0  0  0  0  0  0
    9.3989  -16.4360   25.1534 O   0  0  0  0  0  0  0  0  0  0  0  0
   11.2947  -16.1932   23.9048 N   0  0  0  0  0  0  0  0  0  0  0  0
   12.1133  -16.1631   25.1022 C   0  0  1  0  0  0  0  0  0  0  0  0
   11.9321  -17.5086   25.8535 C   0  0  0  0  0  0  0  0  0  0  0  0
   11.8889  -17.1601   27.6315 S   0  0  0  0  0  0  0  0  0  0  0  0
   13.5472  -15.9776   24.8506 C   0  0  0  0  0  0  0  0  0  0  0  0
   13.9608  -15.7954   23.5188 O   0  0  0  0  0  0  0  0  0  0  0  0
   14.4444  -15.9646   25.7012 O   0  0  0  0  0  0  0  0  0  0  0  0
  2  1  1  6
  3  2  1  0
  3  4  1  0
  4  5  2  0
  4  9  1  0
  5  6  1  0
  6  7  2  0
  8  7  1  0
  9  8  2  0
 10  2  1  0
 11 10  2  0
 12 10  1  0
 13 12  1  0
 13 14  1  1
 15 23  1  0
 15 14  1  0
 16 15  2  0
 17 16  1  0
 17 18  1  0
 18 23  2  0
 19 18  1  0
 19 20  2  0
 20 21  1  0
 21 22  2  0
 23 22  1  0
 24 13  1  0
 24 26  1  0
 25 24  2  0
 27 26  1  0
 27 28  1  6
 28 29  1  0
 30 27  1  0
 31 30  1  0
 32 30  2  0
M  END
$$$$
