FWC.pdb
     RDKit          3D

 32 34  0  0  1  0  0  0  0  0999 V2000
    8.5619  -17.6148   19.3893 N   0  0  0  0  0  0  0  0  0  0  0  0
    9.6304  -16.7088   19.6622 C   0  0  1  0  0  0  0  0  0  0  0  0
    9.6059  -15.5149   18.7544 C   0  0  0  0  0  0  0  0  0  0  0  0
    8.6033  -14.5023   19.2260 C   0  0  0  0  0  0  0  0  0  0  0  0
    7.2795  -14.8377   19.3995 C   0  0  0  0  0  0  0  0  0  0  0  0
    6.3687  -13.9118   19.8294 C   0  0  0  0  0  0  0  0  0  0  0  0
    6.8139  -12.6223   20.0870 C   0  0  0  0  0  0  0  0  0  0  0  0
    8.1280  -12.2622   19.9220 C   0  0  0  0  0  0  0  0  0  0  0  0
    9.0067  -13.2125   19.4920 C   0  0  0  0  0  0  0  0  0  0  0  0
    9.6969  -16.2545   21.0792 C   0  0  0  0  0  0  0  0  0  0  0  0
   10.6424  -15.4334   21.3163 O   0  0  0  0  0  0  0  0  0  0  0  0
    8.7835  -16.7091   22.0467 N   0  0  0  0  0  0  0  0  0  0  0  0
    8.8902  -16.1482   23.4040 C   0  0  1  0  0  0  0  0  0  0  0  0
    7.5386  -15.9168   23.9628 C   0  0  0  0  0  0  0  0  0  0  0  0
    7.3876  -15.3654   25.2888 C   0  0  0  0  0  0  0  0  0  0  0  0
    7.2013  -16.0352   26.4741 C   0  0  0  0  0  0  0  0  0  0  0  0
    7.1062  -15.1177   27.4693 N   0  0  0  0  0  0  0  0  0  0  0  0
    7.2245  -13.8739   26.9741 C   0  0  0  0  0  0  0  0  0  0  0  0
    7.2111  -12.6184   27.5852 C   0  0  0  0  0  0  0  0  0  0  0  0
    7.3744  -11.4879   26.8378 C   0  0  0  0  0  0  0  0  0  0  0  0
    7.5509  -11.6022   25.4816 C   0  0  0  0  0  0  0  0  0  0  0  0
    7.5630  -12.8542   24.8766 C   0  0  0  0  0  0  0  0  0  0  0  0
    7.4003  -14.0093   25.6139 C   0  0  0  0  0  0  0  0  0  0  0  0
    9.8648  -16.8840   24.1773 C   0  0  0  0  0  0  0  0  0  0  0  0
   10.0081  -18.1492   24.0493 O   0  0  0  0  0  0  0  0  0  0  0  0
   10.7354  -16.2687   25.1200 N   0  0  0  0  0  0  0  0  0  0  0  0
   11.6620  -17.0835   25.8831 C   0  0  1  0  0  0  0  0  0  0  0  0
   12.9087  -16.2230   26.2194 C   0  0  0  0  0  0  0  0  0  0  0  0
   14.3024  -16.8434   25.2411 S   0  0  0  0  0  0  0  0  0  0  0  0
   11.1174  -17.5992   27.1446 C   0  0  0  0  0  0  0  0  0  0  0  0
   11.9284  -18.4604   27.9051 O   0  0  0  0  0  0  0  0  0  0  0  0
   10.0016  -17.3515   27.6163 O   0  0  0  0  0  0  0  0  0  0  0  0
  2  1  1  1
  3  2  1  0
  3  4  1  0
  4  5  2  0
  4  9  1  0
  5  6  1  0
  6  7  2  0
  8  7  1  0
  9  8  2  0
 10  2  1  0
 11 10  2  0
 12 10  1  0
 13 12  1  0
 13 14  1  1
 15 23  1  0
 15 14  1  0
 16 15  2  0
 17 16  1  0
 17 18  1  0
 18 23  2  0
 19 18  1  0
 19 20  2  0
 20 21  1  0
 21 22  2  0
 23 22  1  0
 24 13  1  0
 24 26  1  0
 25 24  2  0
 27 26  1  0
 27 28  1  1
 28 29  1  0
 30 27  1  0
 31 30  1  0
 32 30  2  0
M  END
$$$$
