FWC.pdb
     RDKit          3D

 32 34  0  0  1  0  0  0  0  0999 V2000
    7.1710  -18.1017   21.2313 N   0  0  0  0  0  0  0  0  0  0  0  0
    7.6205  -16.7585   21.0555 C   0  0  1  0  0  0  0  0  0  0  0  0
    6.4817  -15.7842   20.9929 C   0  0  0  0  0  0  0  0  0  0  0  0
    6.9673  -14.4140   20.6192 C   0  0  0  0  0  0  0  0  0  0  0  0
    7.0399  -13.4047   21.5525 C   0  0  0  0  0  0  0  0  0  0  0  0
    7.4828  -12.1571   21.2079 C   0  0  0  0  0  0  0  0  0  0  0  0
    7.8584  -11.9337   19.8902 C   0  0  0  0  0  0  0  0  0  0  0  0
    7.7956  -12.9226   18.9406 C   0  0  0  0  0  0  0  0  0  0  0  0
    7.3488  -14.1535   19.3216 C   0  0  0  0  0  0  0  0  0  0  0  0
    8.6053  -16.3071   22.0778 C   0  0  0  0  0  0  0  0  0  0  0  0
    9.2926  -15.2940   21.7234 O   0  0  0  0  0  0  0  0  0  0  0  0
    8.7416  -16.9612   23.3150 N   0  0  0  0  0  0  0  0  0  0  0  0
    9.7319  -16.4270   24.2649 C   0  0  1  0  0  0  0  0  0  0  0  0
    9.1115  -16.2558   25.5985 C   0  0  0  0  0  0  0  0  0  0  0  0
    7.9315  -15.4373   25.7488 C   0  0  0  0  0  0  0  0  0  0  0  0
    6.6177  -15.8373   25.7993 C   0  0  0  0  0  0  0  0  0  0  0  0
    5.8433  -14.7325   25.9445 N   0  0  0  0  0  0  0  0  0  0  0  0
    6.6063  -13.6271   25.9908 C   0  0  0  0  0  0  0  0  0  0  0  0
    6.2878  -12.2762   26.1440 C   0  0  0  0  0  0  0  0  0  0  0  0
    7.2767  -11.3358   26.1775 C   0  0  0  0  0  0  0  0  0  0  0  0
    8.5842  -11.7355   26.0584 C   0  0  0  0  0  0  0  0  0  0  0  0
    8.8975  -13.0817   25.9053 C   0  0  0  0  0  0  0  0  0  0  0  0
    7.9130  -14.0480   25.8696 C   0  0  0  0  0  0  0  0  0  0  0  0
   10.9808  -17.1449   24.1466 C   0  0  0  0  0  0  0  0  0  0  0  0
   11.0322  -18.4214   24.2227 O   0  0  0  0  0  0  0  0  0  0  0  0
   12.2310  -16.5007   23.9295 N   0  0  0  0  0  0  0  0  0  0  0  0
   13.4501  -17.2866   23.8986 C   0  0  1  0  0  0  0  0  0  0  0  0
   14.4981  -16.5314   23.0388 C   0  0  0  0  0  0  0  0  0  0  0  0
   13.7925  -16.2712   21.3899 S   0  0  0  0  0  0  0  0  0  0  0  0
   14.0443  -17.5343   25.2175 C   0  0  0  0  0  0  0  0  0  0  0  0
   15.2559  -18.2468   25.2671 O   0  0  0  0  0  0  0  0  0  0  0  0
   13.5834  -17.1763   26.3074 O   0  0  0  0  0  0  0  0  0  0  0  0
  2  1  1  1
  3  2  1  0
  3  4  1  0
  4  5  2  0
  4  9  1  0
  5  6  1  0
  6  7  2  0
  8  7  1  0
  9  8  2  0
 10  2  1  0
 11 10  2  0
 12 10  1  0
 13 12  1  0
 13 14  1  1
 15 23  1  0
 15 14  1  0
 16 15  2  0
 17 16  1  0
 17 18  1  0
 18 23  2  0
 19 18  1  0
 19 20  2  0
 20 21  1  0
 21 22  2  0
 23 22  1  0
 24 13  1  0
 24 26  1  0
 25 24  2  0
 27 26  1  0
 27 28  1  6
 28 29  1  0
 30 27  1  0
 31 30  1  0
 32 30  2  0
M  END
$$$$
