FWC.pdb
     RDKit          3D

 32 34  0  0  1  0  0  0  0  0999 V2000
    7.9897  -16.7572   20.1775 N   0  0  0  0  0  0  0  0  0  0  0  0
    8.4346  -17.5971   21.2423 C   0  0  1  0  0  0  0  0  0  0  0  0
    9.2803  -18.7342   20.7506 C   0  0  0  0  0  0  0  0  0  0  0  0
    8.4991  -19.6251   19.8291 C   0  0  0  0  0  0  0  0  0  0  0  0
    8.6923  -19.5854   18.4667 C   0  0  0  0  0  0  0  0  0  0  0  0
    7.9782  -20.3989   17.6300 C   0  0  0  0  0  0  0  0  0  0  0  0
    7.0517  -21.2676   18.1907 C   0  0  0  0  0  0  0  0  0  0  0  0
    6.8401  -21.3266   19.5455 C   0  0  0  0  0  0  0  0  0  0  0  0
    7.5708  -20.5003   20.3477 C   0  0  0  0  0  0  0  0  0  0  0  0
    9.1553  -16.8746   22.3274 C   0  0  0  0  0  0  0  0  0  0  0  0
    9.7587  -15.8221   21.9371 O   0  0  0  0  0  0  0  0  0  0  0  0
    9.1519  -17.3376   23.6550 N   0  0  0  0  0  0  0  0  0  0  0  0
    9.9070  -16.5600   24.6518 C   0  0  1  0  0  0  0  0  0  0  0  0
    9.0974  -16.3915   25.8801 C   0  0  0  0  0  0  0  0  0  0  0  0
    7.8743  -15.6249   25.8421 C   0  0  0  0  0  0  0  0  0  0  0  0
    6.5976  -16.0690   25.5948 C   0  0  0  0  0  0  0  0  0  0  0  0
    5.7590  -15.0039   25.6546 N   0  0  0  0  0  0  0  0  0  0  0  0
    6.4443  -13.8818   25.9326 C   0  0  0  0  0  0  0  0  0  0  0  0
    6.0386  -12.5575   26.1106 C   0  0  0  0  0  0  0  0  0  0  0  0
    6.9554  -11.5917   26.4109 C   0  0  0  0  0  0  0  0  0  0  0  0
    8.2773  -11.9393   26.5345 C   0  0  0  0  0  0  0  0  0  0  0  0
    8.6776  -13.2590   26.3559 C   0  0  0  0  0  0  0  0  0  0  0  0
    7.7669  -14.2504   26.0525 C   0  0  0  0  0  0  0  0  0  0  0  0
   11.2620  -17.0528   24.7532 C   0  0  0  0  0  0  0  0  0  0  0  0
   11.5131  -18.2872   24.9790 O   0  0  0  0  0  0  0  0  0  0  0  0
   12.4061  -16.2201   24.6025 N   0  0  0  0  0  0  0  0  0  0  0  0
   13.7338  -16.7994   24.6832 C   0  0  1  0  0  0  0  0  0  0  0  0
   14.7353  -15.8248   24.0087 C   0  0  0  0  0  0  0  0  0  0  0  0
   14.6944  -16.1222   22.2214 S   0  0  0  0  0  0  0  0  0  0  0  0
   14.2024  -17.0508   26.0511 C   0  0  0  0  0  0  0  0  0  0  0  0
   15.4846  -17.6057   26.2131 O   0  0  0  0  0  0  0  0  0  0  0  0
   13.5775  -16.8220   27.0931 O   0  0  0  0  0  0  0  0  0  0  0  0
  2  1  1  6
  3  2  1  0
  3  4  1  0
  4  5  2  0
  4  9  1  0
  5  6  1  0
  6  7  2  0
  8  7  1  0
  9  8  2  0
 10  2  1  0
 11 10  2  0
 12 10  1  0
 13 12  1  0
 13 14  1  1
 15 23  1  0
 15 14  1  0
 16 15  2  0
 17 16  1  0
 17 18  1  0
 18 23  2  0
 19 18  1  0
 19 20  2  0
 20 21  1  0
 21 22  2  0
 23 22  1  0
 24 13  1  0
 24 26  1  0
 25 24  2  0
 27 26  1  0
 27 28  1  1
 28 29  1  0
 30 27  1  0
 31 30  1  0
 32 30  2  0
M  END
$$$$
