FWC.pdb
     RDKit          3D

 32 34  0  0  1  0  0  0  0  0999 V2000
    6.7455  -14.8263   21.2769 N   0  0  0  0  0  0  0  0  0  0  0  0
    8.1425  -15.1154   21.2327 C   0  0  1  0  0  0  0  0  0  0  0  0
    8.8906  -14.1601   20.3508 C   0  0  0  0  0  0  0  0  0  0  0  0
    8.2621  -14.0811   18.9900 C   0  0  0  0  0  0  0  0  0  0  0  0
    8.4131  -15.0986   18.0753 C   0  0  0  0  0  0  0  0  0  0  0  0
    7.8387  -15.0228   16.8360 C   0  0  0  0  0  0  0  0  0  0  0  0
    7.0979  -13.8911   16.5230 C   0  0  0  0  0  0  0  0  0  0  0  0
    6.9322  -12.8628   17.4168 C   0  0  0  0  0  0  0  0  0  0  0  0
    7.5197  -12.9742   18.6425 C   0  0  0  0  0  0  0  0  0  0  0  0
    8.7953  -15.1721   22.5705 C   0  0  0  0  0  0  0  0  0  0  0  0
    9.2647  -14.0550   22.9657 O   0  0  0  0  0  0  0  0  0  0  0  0
    8.8715  -16.3669   23.3078 N   0  0  0  0  0  0  0  0  0  0  0  0
    9.6102  -16.3380   24.5813 C   0  0  1  0  0  0  0  0  0  0  0  0
    8.6741  -16.5276   25.7128 C   0  0  0  0  0  0  0  0  0  0  0  0
    7.5601  -15.6261   25.8902 C   0  0  0  0  0  0  0  0  0  0  0  0
    6.2276  -15.8604   25.6492 C   0  0  0  0  0  0  0  0  0  0  0  0
    5.5372  -14.7319   25.9515 N   0  0  0  0  0  0  0  0  0  0  0  0
    6.3728  -13.7712   26.3814 C   0  0  0  0  0  0  0  0  0  0  0  0
    6.1496  -12.4639   26.8185 C   0  0  0  0  0  0  0  0  0  0  0  0
    7.1952  -11.6875   27.2276 C   0  0  0  0  0  0  0  0  0  0  0  0
    8.4649  -12.2080   27.2028 C   0  0  0  0  0  0  0  0  0  0  0  0
    8.6832  -13.5101   26.7662 C   0  0  0  0  0  0  0  0  0  0  0  0
    7.6403  -14.3116   26.3491 C   0  0  0  0  0  0  0  0  0  0  0  0
   10.7971  -17.1581   24.4932 C   0  0  0  0  0  0  0  0  0  0  0  0
   10.7611  -18.3433   24.0118 O   0  0  0  0  0  0  0  0  0  0  0  0
   12.0814  -16.7164   24.9183 N   0  0  0  0  0  0  0  0  0  0  0  0
   13.2120  -17.6233   24.8552 C   0  0  1  0  0  0  0  0  0  0  0  0
   14.5097  -16.7808   24.7355 C   0  0  0  0  0  0  0  0  0  0  0  0
   15.9238  -17.9131   24.7893 S   0  0  0  0  0  0  0  0  0  0  0  0
   13.3508  -18.5000   26.0239 C   0  0  0  0  0  0  0  0  0  0  0  0
   13.6778  -19.8488   25.7963 O   0  0  0  0  0  0  0  0  0  0  0  0
   13.2077  -18.1714   27.2072 O   0  0  0  0  0  0  0  0  0  0  0  0
  2  1  1  1
  3  2  1  0
  3  4  1  0
  4  5  2  0
  4  9  1  0
  5  6  1  0
  6  7  2  0
  8  7  1  0
  9  8  2  0
 10  2  1  0
 11 10  2  0
 12 10  1  0
 13 12  1  0
 13 14  1  1
 15 23  1  0
 15 14  1  0
 16 15  2  0
 17 16  1  0
 17 18  1  0
 18 23  2  0
 19 18  1  0
 19 20  2  0
 20 21  1  0
 21 22  2  0
 23 22  1  0
 24 13  1  0
 24 26  1  0
 25 24  2  0
 27 26  1  0
 27 28  1  1
 28 29  1  0
 30 27  1  0
 31 30  1  0
 32 30  2  0
M  END
$$$$
