SFN.pdb
     RDKit          3D

 26 26  0  0  1  0  0  0  0  0999 V2000
    8.5042  -19.0847   21.0037 O   0  0  0  0  0  0  0  0  0  0  0  0
    9.8486  -18.7541   21.0524 C   0  0  0  0  0  0  0  0  0  0  0  0
    9.9814  -17.2262   21.0290 C   0  0  2  0  0  0  0  0  0  0  0  0
   11.0549  -16.9293   20.1059 N   0  0  0  0  0  0  0  0  0  0  0  0
   10.4030  -16.8267   22.3863 C   0  0  0  0  0  0  0  0  0  0  0  0
   11.5962  -16.9832   22.7290 O   0  0  0  0  0  0  0  0  0  0  0  0
    9.5317  -16.2635   23.3573 N   0  0  0  0  0  0  0  0  0  0  0  0
    9.9684  -16.0072   24.7143 C   0  0  1  0  0  0  0  0  0  0  0  0
    9.1214  -14.9725   25.3969 C   0  0  0  0  0  0  0  0  0  0  0  0
    9.4726  -14.7141   26.7830 C   0  0  0  0  0  0  0  0  0  0  0  0
   10.4799  -13.8315   27.0960 C   0  0  0  0  0  0  0  0  0  0  0  0
   10.8268  -13.5761   28.4290 C   0  0  0  0  0  0  0  0  0  0  0  0
   10.1392  -14.2266   29.4238 C   0  0  0  0  0  0  0  0  0  0  0  0
    9.1387  -15.1045   29.1437 C   0  0  0  0  0  0  0  0  0  0  0  0
    8.8169  -15.3377   27.8133 C   0  0  0  0  0  0  0  0  0  0  0  0
   10.1091  -17.2766   25.4493 C   0  0  0  0  0  0  0  0  0  0  0  0
    9.1326  -18.1068   25.4598 O   0  0  0  0  0  0  0  0  0  0  0  0
   12.7350  -20.4174   24.0364 N   0  0  0  0  0  0  0  0  0  0  0  0
   12.2819  -20.6783   25.3745 C   0  0  0  0  0  0  0  0  0  0  0  0
   11.6784  -21.7377   25.6527 O   0  0  0  0  0  0  0  0  0  0  0  0
   12.5479  -19.6725   26.3903 C   0  0  0  0  0  0  0  0  0  0  0  0
   11.2927  -18.9569   26.9066 C   0  0  2  0  0  0  0  0  0  0  0  0
   11.2671  -17.6725   26.1662 N   0  0  0  0  0  0  0  0  0  0  0  0
   11.5394  -18.6105   28.3182 C   0  0  0  0  0  0  0  0  0  0  0  0
   11.4893  -19.5103   29.3657 O   0  0  0  0  0  0  0  0  0  0  0  0
   11.8159  -17.4265   28.6265 O   0  0  0  0  0  0  0  0  0  0  0  0
  1  2  1  0
  2  3  1  0
  3  5  1  0
  3  4  1  6
  5  6  2  0
  7  8  1  0
  7  5  1  0
  8  9  1  1
  9 10  1  0
 10 15  2  0
 11 12  2  0
 11 10  1  0
 12 13  1  0
 13 14  2  0
 15 14  1  0
 16  8  1  0
 17 16  2  0
 18 19  1  0
 19 20  2  0
 21 19  1  0
 22 21  1  6
 22 23  1  0
 23 16  1  0
 24 25  1  0
 24 22  1  0
 26 24  2  0
M  END
$$$$
