SFN.pdb
     RDKit          3D

 26 26  0  0  1  0  0  0  0  0999 V2000
    9.6546  -18.5547   21.4589 O   0  0  0  0  0  0  0  0  0  0  0  0
    8.5749  -18.2837   20.6343 C   0  0  0  0  0  0  0  0  0  0  0  0
    8.6676  -16.8267   20.1641 C   0  0  2  0  0  0  0  0  0  0  0  0
    9.8486  -16.7461   19.3326 N   0  0  0  0  0  0  0  0  0  0  0  0
    8.8883  -16.0138   21.3764 C   0  0  0  0  0  0  0  0  0  0  0  0
    9.9938  -15.4526   21.5457 O   0  0  0  0  0  0  0  0  0  0  0  0
    7.9136  -15.8167   22.3915 N   0  0  0  0  0  0  0  0  0  0  0  0
    8.1201  -14.8750   23.4724 C   0  0  1  0  0  0  0  0  0  0  0  0
    6.8262  -14.3356   24.0098 C   0  0  0  0  0  0  0  0  0  0  0  0
    6.9680  -13.3676   25.0843 C   0  0  0  0  0  0  0  0  0  0  0  0
    7.6565  -12.1944   24.8818 C   0  0  0  0  0  0  0  0  0  0  0  0
    7.7998  -11.2552   25.9112 C   0  0  0  0  0  0  0  0  0  0  0  0
    7.2370  -11.5283   27.1337 C   0  0  0  0  0  0  0  0  0  0  0  0
    6.5508  -12.6802   27.3624 C   0  0  0  0  0  0  0  0  0  0  0  0
    6.4251  -13.5925   26.3233 C   0  0  0  0  0  0  0  0  0  0  0  0
    9.0181  -15.4563   24.4859 C   0  0  0  0  0  0  0  0  0  0  0  0
    9.4765  -14.7086   25.4205 O   0  0  0  0  0  0  0  0  0  0  0  0
   12.1204  -17.4582   23.4859 N   0  0  0  0  0  0  0  0  0  0  0  0
   12.4679  -16.5300   24.5258 C   0  0  0  0  0  0  0  0  0  0  0  0
   13.5674  -15.9343   24.5134 O   0  0  0  0  0  0  0  0  0  0  0  0
   11.5014  -16.3076   25.5892 C   0  0  0  0  0  0  0  0  0  0  0  0
   10.3320  -17.3009   25.5902 C   0  0  2  0  0  0  0  0  0  0  0  0
    9.4301  -16.8131   24.5191 N   0  0  0  0  0  0  0  0  0  0  0  0
    9.6022  -17.1119   26.8571 C   0  0  0  0  0  0  0  0  0  0  0  0
   10.1028  -17.4326   28.1045 O   0  0  0  0  0  0  0  0  0  0  0  0
    8.4443  -16.6301   26.8393 O   0  0  0  0  0  0  0  0  0  0  0  0
  1  2  1  0
  2  3  1  0
  3  5  1  0
  3  4  1  6
  5  6  2  0
  7  8  1  0
  7  5  1  0
  8  9  1  1
  9 10  1  0
 10 15  2  0
 11 12  2  0
 11 10  1  0
 12 13  1  0
 13 14  2  0
 15 14  1  0
 16  8  1  0
 17 16  2  0
 18 19  1  0
 19 20  2  0
 21 19  1  0
 22 21  1  1
 22 23  1  0
 23 16  1  0
 24 25  1  0
 24 22  1  0
 26 24  2  0
M  END
$$$$
