SFN.pdb
     RDKit          3D

 26 26  0  0  1  0  0  0  0  0999 V2000
    9.1666  -18.4402   20.0466 O   0  0  0  0  0  0  0  0  0  0  0  0
    7.8099  -18.1864   19.9274 C   0  0  0  0  0  0  0  0  0  0  0  0
    7.6029  -16.6741   19.7764 C   0  0  2  0  0  0  0  0  0  0  0  0
    8.4976  -16.2484   18.7223 N   0  0  0  0  0  0  0  0  0  0  0  0
    8.0478  -16.0667   21.0462 C   0  0  0  0  0  0  0  0  0  0  0  0
    9.2249  -15.6551   21.1501 O   0  0  0  0  0  0  0  0  0  0  0  0
    7.2172  -15.9112   22.1887 N   0  0  0  0  0  0  0  0  0  0  0  0
    7.6637  -15.1884   23.3617 C   0  0  1  0  0  0  0  0  0  0  0  0
    6.5186  -14.6123   24.1432 C   0  0  0  0  0  0  0  0  0  0  0  0
    6.9057  -13.8030   25.2861 C   0  0  0  0  0  0  0  0  0  0  0  0
    6.9825  -14.3583   26.5420 C   0  0  0  0  0  0  0  0  0  0  0  0
    7.3538  -13.5866   27.6506 C   0  0  0  0  0  0  0  0  0  0  0  0
    7.6417  -12.2575   27.4599 C   0  0  0  0  0  0  0  0  0  0  0  0
    7.5741  -11.6817   26.2295 C   0  0  0  0  0  0  0  0  0  0  0  0
    7.2032  -12.4714   25.1494 C   0  0  0  0  0  0  0  0  0  0  0  0
    8.5933  -16.0205   24.1459 C   0  0  0  0  0  0  0  0  0  0  0  0
    8.2776  -17.2342   24.4108 O   0  0  0  0  0  0  0  0  0  0  0  0
   11.9342  -16.8005   22.8522 N   0  0  0  0  0  0  0  0  0  0  0  0
   12.7185  -16.0940   23.8266 C   0  0  0  0  0  0  0  0  0  0  0  0
   13.8510  -15.6486   23.5385 O   0  0  0  0  0  0  0  0  0  0  0  0
   12.1529  -15.9153   25.1542 C   0  0  0  0  0  0  0  0  0  0  0  0
   10.7585  -16.5312   25.3288 C   0  0  2  0  0  0  0  0  0  0  0  0
    9.8459  -15.5824   24.6465 N   0  0  0  0  0  0  0  0  0  0  0  0
   10.4272  -16.4575   26.7634 C   0  0  0  0  0  0  0  0  0  0  0  0
   10.0773  -15.2975   27.4278 O   0  0  0  0  0  0  0  0  0  0  0  0
   10.4554  -17.5000   27.4603 O   0  0  0  0  0  0  0  0  0  0  0  0
  1  2  1  0
  2  3  1  0
  3  5  1  0
  3  4  1  6
  5  6  2  0
  7  8  1  0
  7  5  1  0
  8  9  1  1
  9 10  1  0
 10 15  2  0
 11 12  2  0
 11 10  1  0
 12 13  1  0
 13 14  2  0
 15 14  1  0
 16  8  1  0
 17 16  2  0
 18 19  1  0
 19 20  2  0
 21 19  1  0
 22 21  1  1
 22 23  1  0
 23 16  1  0
 24 25  1  0
 24 22  1  0
 26 24  2  0
M  END
$$$$
