SFN.pdb
     RDKit          3D

 26 26  0  0  1  0  0  0  0  0999 V2000
    9.2434  -18.9479   22.4053 O   0  0  0  0  0  0  0  0  0  0  0  0
   10.0381  -18.5696   21.3356 C   0  0  0  0  0  0  0  0  0  0  0  0
    9.4993  -17.2526   20.7630 C   0  0  2  0  0  0  0  0  0  0  0  0
   10.4697  -16.8117   19.7849 N   0  0  0  0  0  0  0  0  0  0  0  0
    9.4867  -16.2895   21.8817 C   0  0  0  0  0  0  0  0  0  0  0  0
   10.5536  -15.7317   22.2230 O   0  0  0  0  0  0  0  0  0  0  0  0
    8.3232  -15.9401   22.6189 N   0  0  0  0  0  0  0  0  0  0  0  0
    8.3758  -15.0118   23.7294 C   0  0  1  0  0  0  0  0  0  0  0  0
    7.0770  -14.2839   23.9224 C   0  0  0  0  0  0  0  0  0  0  0  0
    7.0757  -13.3149   25.0051 C   0  0  0  0  0  0  0  0  0  0  0  0
    6.2618  -13.4909   26.0997 C   0  0  0  0  0  0  0  0  0  0  0  0
    6.2523  -12.5622   27.1484 C   0  0  0  0  0  0  0  0  0  0  0  0
    7.0752  -11.4661   27.0637 C   0  0  0  0  0  0  0  0  0  0  0  0
    7.8904  -11.2664   25.9933 C   0  0  0  0  0  0  0  0  0  0  0  0
    7.8784  -12.2037   24.9691 C   0  0  0  0  0  0  0  0  0  0  0  0
    8.8914  -15.6896   24.9319 C   0  0  0  0  0  0  0  0  0  0  0  0
    9.2246  -14.9892   25.9524 O   0  0  0  0  0  0  0  0  0  0  0  0
    6.6579  -19.7998   26.6815 N   0  0  0  0  0  0  0  0  0  0  0  0
    7.9068  -19.3565   27.2359 C   0  0  0  0  0  0  0  0  0  0  0  0
    8.0364  -19.1810   28.4673 O   0  0  0  0  0  0  0  0  0  0  0  0
    9.0110  -19.1196   26.3199 C   0  0  0  0  0  0  0  0  0  0  0  0
    9.5394  -17.6792   26.3353 C   0  0  2  0  0  0  0  0  0  0  0  0
    9.0540  -17.0924   25.0631 N   0  0  0  0  0  0  0  0  0  0  0  0
   11.0070  -17.7532   26.2180 C   0  0  0  0  0  0  0  0  0  0  0  0
   11.7273  -17.3274   25.1182 O   0  0  0  0  0  0  0  0  0  0  0  0
   11.6809  -18.2306   27.1621 O   0  0  0  0  0  0  0  0  0  0  0  0
  1  2  1  0
  2  3  1  0
  3  5  1  0
  3  4  1  6
  5  6  2  0
  7  8  1  0
  7  5  1  0
  8  9  1  1
  9 10  1  0
 10 15  2  0
 11 12  2  0
 11 10  1  0
 12 13  1  0
 13 14  2  0
 15 14  1  0
 16  8  1  0
 17 16  2  0
 18 19  1  0
 19 20  2  0
 21 19  1  0
 22 21  1  6
 22 23  1  0
 23 16  1  0
 24 25  1  0
 24 22  1  0
 26 24  2  0
M  END
$$$$
