SFN.pdb
     RDKit          3D

 26 26  0  0  1  0  0  0  0  0999 V2000
    9.9697  -18.7744   20.5434 O   0  0  0  0  0  0  0  0  0  0  0  0
    8.6129  -18.5859   20.7501 C   0  0  0  0  0  0  0  0  0  0  0  0
    8.2910  -17.0958   20.5804 C   0  0  2  0  0  0  0  0  0  0  0  0
    9.0165  -16.6579   19.4080 N   0  0  0  0  0  0  0  0  0  0  0  0
    8.8517  -16.4140   21.7636 C   0  0  0  0  0  0  0  0  0  0  0  0
   10.0012  -15.9235   21.7016 O   0  0  0  0  0  0  0  0  0  0  0  0
    8.1653  -16.2699   22.9995 N   0  0  0  0  0  0  0  0  0  0  0  0
    8.7867  -15.6405   24.1465 C   0  0  1  0  0  0  0  0  0  0  0  0
    7.7934  -15.3218   25.2261 C   0  0  0  0  0  0  0  0  0  0  0  0
    8.3445  -14.6243   26.3756 C   0  0  0  0  0  0  0  0  0  0  0  0
    8.4101  -13.2507   26.3943 C   0  0  0  0  0  0  0  0  0  0  0  0
    8.9403  -12.5687   27.4970 C   0  0  0  0  0  0  0  0  0  0  0  0
    9.3962  -13.3006   28.5659 C   0  0  0  0  0  0  0  0  0  0  0  0
    9.3437  -14.6597   28.5749 C   0  0  0  0  0  0  0  0  0  0  0  0
    8.8130  -15.3083   27.4678 C   0  0  0  0  0  0  0  0  0  0  0  0
    9.9507  -16.4289   24.5879 C   0  0  0  0  0  0  0  0  0  0  0  0
    9.8893  -17.7088   24.5577 O   0  0  0  0  0  0  0  0  0  0  0  0
   15.9115  -15.8921   25.2864 N   0  0  0  0  0  0  0  0  0  0  0  0
   14.8054  -16.6386   24.7544 C   0  0  0  0  0  0  0  0  0  0  0  0
   14.9474  -17.8278   24.3945 O   0  0  0  0  0  0  0  0  0  0  0  0
   13.5201  -15.9669   24.6491 C   0  0  0  0  0  0  0  0  0  0  0  0
   12.3543  -16.7440   25.2746 C   0  0  2  0  0  0  0  0  0  0  0  0
   11.1711  -15.8778   25.0555 N   0  0  0  0  0  0  0  0  0  0  0  0
   12.5797  -16.7680   26.7312 C   0  0  0  0  0  0  0  0  0  0  0  0
   13.0666  -17.8559   27.4306 O   0  0  0  0  0  0  0  0  0  0  0  0
   12.3221  -15.7485   27.4151 O   0  0  0  0  0  0  0  0  0  0  0  0
  1  2  1  0
  2  3  1  0
  3  5  1  0
  3  4  1  6
  5  6  2  0
  7  8  1  0
  7  5  1  0
  8  9  1  1
  9 10  1  0
 10 15  2  0
 11 12  2  0
 11 10  1  0
 12 13  1  0
 13 14  2  0
 15 14  1  0
 16  8  1  0
 17 16  2  0
 18 19  1  0
 19 20  2  0
 21 19  1  0
 22 21  1  6
 22 23  1  0
 23 16  1  0
 24 25  1  0
 24 22  1  0
 26 24  2  0
M  END
$$$$
