SFN.pdb
     RDKit          3D

 26 26  0  0  1  0  0  0  0  0999 V2000
   10.0339  -18.4212   21.2215 O   0  0  0  0  0  0  0  0  0  0  0  0
    9.1007  -17.8858   20.3488 C   0  0  0  0  0  0  0  0  0  0  0  0
    9.4476  -16.4126   20.0996 C   0  0  2  0  0  0  0  0  0  0  0  0
   10.7965  -16.3992   19.5771 N   0  0  0  0  0  0  0  0  0  0  0  0
    9.4481  -15.7581   21.4229 C   0  0  0  0  0  0  0  0  0  0  0  0
   10.5259  -15.6371   22.0469 O   0  0  0  0  0  0  0  0  0  0  0  0
    8.2856  -15.2424   22.0568 N   0  0  0  0  0  0  0  0  0  0  0  0
    8.3345  -14.6681   23.3855 C   0  0  1  0  0  0  0  0  0  0  0  0
    7.1017  -13.8735   23.7059 C   0  0  0  0  0  0  0  0  0  0  0  0
    7.0858  -13.2801   25.0322 C   0  0  0  0  0  0  0  0  0  0  0  0
    6.1859  -13.7097   25.9794 C   0  0  0  0  0  0  0  0  0  0  0  0
    6.1617  -13.1437   27.2605 C   0  0  0  0  0  0  0  0  0  0  0  0
    7.0579  -12.1460   27.5558 C   0  0  0  0  0  0  0  0  0  0  0  0
    7.9588  -11.7013   26.6389 C   0  0  0  0  0  0  0  0  0  0  0  0
    7.9594  -12.2811   25.3773 C   0  0  0  0  0  0  0  0  0  0  0  0
    8.6772  -15.7063   24.3736 C   0  0  0  0  0  0  0  0  0  0  0  0
    7.9792  -16.7802   24.4226 O   0  0  0  0  0  0  0  0  0  0  0  0
   12.8381  -18.7906   24.7356 N   0  0  0  0  0  0  0  0  0  0  0  0
   11.7528  -18.4818   25.6248 C   0  0  0  0  0  0  0  0  0  0  0  0
   11.0381  -19.3889   26.1046 O   0  0  0  0  0  0  0  0  0  0  0  0
   11.5146  -17.0839   25.9466 C   0  0  0  0  0  0  0  0  0  0  0  0
   10.0428  -16.7460   26.2181 C   0  0  2  0  0  0  0  0  0  0  0  0
    9.7460  -15.6186   25.3019 N   0  0  0  0  0  0  0  0  0  0  0  0
    9.9681  -16.1943   27.5831 C   0  0  0  0  0  0  0  0  0  0  0  0
   10.1841  -16.9249   28.7360 O   0  0  0  0  0  0  0  0  0  0  0  0
    9.6909  -14.9820   27.7473 O   0  0  0  0  0  0  0  0  0  0  0  0
  1  2  1  0
  2  3  1  0
  3  5  1  0
  3  4  1  1
  5  6  2  0
  7  8  1  0
  7  5  1  0
  8  9  1  1
  9 10  1  0
 10 15  2  0
 11 12  2  0
 11 10  1  0
 12 13  1  0
 13 14  2  0
 15 14  1  0
 16  8  1  0
 17 16  2  0
 18 19  1  0
 19 20  2  0
 21 19  1  0
 22 21  1  6
 22 23  1  0
 23 16  1  0
 24 25  1  0
 24 22  1  0
 26 24  2  0
M  END
$$$$
