SFN.pdb
     RDKit          3D

 26 26  0  0  1  0  0  0  0  0999 V2000
    4.6789  -16.8384   22.4914 O   0  0  0  0  0  0  0  0  0  0  0  0
    5.4312  -17.9990   22.4133 C   0  0  0  0  0  0  0  0  0  0  0  0
    6.2590  -18.1368   23.6972 C   0  0  2  0  0  0  0  0  0  0  0  0
    5.5123  -17.4568   24.7329 N   0  0  0  0  0  0  0  0  0  0  0  0
    7.5156  -17.3990   23.4605 C   0  0  0  0  0  0  0  0  0  0  0  0
    8.2538  -17.7346   22.5075 O   0  0  0  0  0  0  0  0  0  0  0  0
    7.9605  -16.3082   24.2551 N   0  0  0  0  0  0  0  0  0  0  0  0
    9.2553  -15.6933   24.0474 C   0  0  1  0  0  0  0  0  0  0  0  0
    9.3230  -14.3065   24.6184 C   0  0  0  0  0  0  0  0  0  0  0  0
    8.0960  -13.8437   25.2442 C   0  0  0  0  0  0  0  0  0  0  0  0
    7.0443  -13.3999   24.4771 C   0  0  0  0  0  0  0  0  0  0  0  0
    5.8575  -12.9509   25.0705 C   0  0  0  0  0  0  0  0  0  0  0  0
    5.7621  -12.9618   26.4404 C   0  0  0  0  0  0  0  0  0  0  0  0
    6.7860  -13.3952   27.2239 C   0  0  0  0  0  0  0  0  0  0  0  0
    7.9501  -13.8344   26.6077 C   0  0  0  0  0  0  0  0  0  0  0  0
   10.3251  -16.6017   24.4967 C   0  0  0  0  0  0  0  0  0  0  0  0
   11.2087  -16.9946   23.6554 O   0  0  0  0  0  0  0  0  0  0  0  0
   13.7977  -17.6828   23.7117 N   0  0  0  0  0  0  0  0  0  0  0  0
   13.2121  -18.6009   24.6487 C   0  0  0  0  0  0  0  0  0  0  0  0
   13.1889  -19.8292   24.4148 O   0  0  0  0  0  0  0  0  0  0  0  0
   12.6493  -18.0554   25.8735 C   0  0  0  0  0  0  0  0  0  0  0  0
   11.1628  -18.3765   26.0768 C   0  0  2  0  0  0  0  0  0  0  0  0
   10.4675  -17.0923   25.8198 N   0  0  0  0  0  0  0  0  0  0  0  0
   10.9724  -18.6651   27.5098 C   0  0  0  0  0  0  0  0  0  0  0  0
   11.4978  -19.7631   28.1641 O   0  0  0  0  0  0  0  0  0  0  0  0
   10.2915  -17.8823   28.2146 O   0  0  0  0  0  0  0  0  0  0  0  0
  1  2  1  0
  2  3  1  0
  3  5  1  0
  3  4  1  1
  5  6  2  0
  7  8  1  0
  7  5  1  0
  8  9  1  1
  9 10  1  0
 10 15  2  0
 11 12  2  0
 11 10  1  0
 12 13  1  0
 13 14  2  0
 15 14  1  0
 16  8  1  0
 17 16  2  0
 18 19  1  0
 19 20  2  0
 21 19  1  0
 22 21  1  1
 22 23  1  0
 23 16  1  0
 24 25  1  0
 24 22  1  0
 26 24  2  0
M  END
$$$$
