SFN.pdb
     RDKit          3D

 26 26  0  0  1  0  0  0  0  0999 V2000
    9.2412  -18.6986   20.5210 O   0  0  0  0  0  0  0  0  0  0  0  0
    8.1981  -17.9962   19.9399 C   0  0  0  0  0  0  0  0  0  0  0  0
    8.6615  -16.5590   19.6708 C   0  0  2  0  0  0  0  0  0  0  0  0
    9.9520  -16.6660   19.0260 N   0  0  0  0  0  0  0  0  0  0  0  0
    8.8459  -15.9292   20.9931 C   0  0  0  0  0  0  0  0  0  0  0  0
    9.9814  -15.9281   21.5190 O   0  0  0  0  0  0  0  0  0  0  0  0
    7.8029  -15.3086   21.7321 N   0  0  0  0  0  0  0  0  0  0  0  0
    8.0431  -14.7014   23.0250 C   0  0  1  0  0  0  0  0  0  0  0  0
    6.9247  -13.7902   23.4405 C   0  0  0  0  0  0  0  0  0  0  0  0
    7.1011  -13.1600   24.7378 C   0  0  0  0  0  0  0  0  0  0  0  0
    6.3189  -13.5299   25.8068 C   0  0  0  0  0  0  0  0  0  0  0  0
    6.4803  -12.9279   27.0614 C   0  0  0  0  0  0  0  0  0  0  0  0
    7.4394  -11.9558   27.2058 C   0  0  0  0  0  0  0  0  0  0  0  0
    8.2272  -11.5700   26.1663 C   0  0  0  0  0  0  0  0  0  0  0  0
    8.0444  -12.1844   24.9346 C   0  0  0  0  0  0  0  0  0  0  0  0
    8.3993  -15.7360   24.0119 C   0  0  0  0  0  0  0  0  0  0  0  0
    7.6830  -16.7957   24.0960 O   0  0  0  0  0  0  0  0  0  0  0  0
   11.3915  -18.8560   26.8942 N   0  0  0  0  0  0  0  0  0  0  0  0
   12.1300  -18.0903   25.9287 C   0  0  0  0  0  0  0  0  0  0  0  0
   13.3220  -18.3642   25.6681 O   0  0  0  0  0  0  0  0  0  0  0  0
   11.4468  -16.9901   25.2675 C   0  0  0  0  0  0  0  0  0  0  0  0
    9.9624  -16.8637   25.6347 C   0  0  2  0  0  0  0  0  0  0  0  0
    9.5004  -15.6599   24.9026 N   0  0  0  0  0  0  0  0  0  0  0  0
    9.8965  -16.5218   27.0671 C   0  0  0  0  0  0  0  0  0  0  0  0
    9.5943  -15.2665   27.5596 O   0  0  0  0  0  0  0  0  0  0  0  0
   10.1256  -17.4062   27.9266 O   0  0  0  0  0  0  0  0  0  0  0  0
  1  2  1  0
  2  3  1  0
  3  5  1  0
  3  4  1  1
  5  6  2  0
  7  8  1  0
  7  5  1  0
  8  9  1  1
  9 10  1  0
 10 15  2  0
 11 12  2  0
 11 10  1  0
 12 13  1  0
 13 14  2  0
 15 14  1  0
 16  8  1  0
 17 16  2  0
 18 19  1  0
 19 20  2  0
 21 19  1  0
 22 21  1  6
 22 23  1  0
 23 16  1  0
 24 25  1  0
 24 22  1  0
 26 24  2  0
M  END
$$$$
