SFN.pdb
     RDKit          3D

 26 26  0  0  1  0  0  0  0  0999 V2000
    9.9010  -20.2680   18.5393 O   0  0  0  0  0  0  0  0  0  0  0  0
    8.7187  -19.5668   18.7109 C   0  0  0  0  0  0  0  0  0  0  0  0
    8.9433  -18.1105   18.2850 C   0  0  2  0  0  0  0  0  0  0  0  0
    9.8071  -18.1585   17.1256 N   0  0  0  0  0  0  0  0  0  0  0  0
    9.6755  -17.4639   19.3919 C   0  0  0  0  0  0  0  0  0  0  0  0
   10.8655  -17.1172   19.2202 O   0  0  0  0  0  0  0  0  0  0  0  0
    9.1149  -17.1996   20.6706 N   0  0  0  0  0  0  0  0  0  0  0  0
    9.8270  -16.4297   21.6696 C   0  0  1  0  0  0  0  0  0  0  0  0
    8.9336  -15.4501   22.3740 C   0  0  0  0  0  0  0  0  0  0  0  0
    8.3213  -14.4535   21.5118 C   0  0  0  0  0  0  0  0  0  0  0  0
    6.9907  -14.5428   21.1756 C   0  0  0  0  0  0  0  0  0  0  0  0
    6.3910  -13.5879   20.3444 C   0  0  0  0  0  0  0  0  0  0  0  0
    7.1600  -12.5545   19.8685 C   0  0  0  0  0  0  0  0  0  0  0  0
    8.4781  -12.4410   20.1845 C   0  0  0  0  0  0  0  0  0  0  0  0
    9.0452  -13.4025   21.0103 C   0  0  0  0  0  0  0  0  0  0  0  0
   10.5830  -17.3297   22.5584 C   0  0  0  0  0  0  0  0  0  0  0  0
   10.0068  -18.3714   23.0336 O   0  0  0  0  0  0  0  0  0  0  0  0
   14.3014  -19.6569   21.7743 N   0  0  0  0  0  0  0  0  0  0  0  0
   14.4988  -18.2944   22.1847 C   0  0  0  0  0  0  0  0  0  0  0  0
   14.9927  -17.4533   21.4021 O   0  0  0  0  0  0  0  0  0  0  0  0
   14.1063  -17.9281   23.5361 C   0  0  0  0  0  0  0  0  0  0  0  0
   12.6119  -18.1180   23.8273 C   0  0  2  0  0  0  0  0  0  0  0  0
   11.9345  -17.1387   22.9438 N   0  0  0  0  0  0  0  0  0  0  0  0
   12.3757  -17.6560   25.2071 C   0  0  0  0  0  0  0  0  0  0  0  0
   11.8178  -16.4364   25.5399 O   0  0  0  0  0  0  0  0  0  0  0  0
   12.6914  -18.3946   26.1705 O   0  0  0  0  0  0  0  0  0  0  0  0
  1  2  1  0
  2  3  1  0
  3  5  1  0
  3  4  1  6
  5  6  2  0
  7  8  1  0
  7  5  1  0
  8  9  1  1
  9 10  1  0
 10 15  2  0
 11 12  2  0
 11 10  1  0
 12 13  1  0
 13 14  2  0
 15 14  1  0
 16  8  1  0
 17 16  2  0
 18 19  1  0
 19 20  2  0
 21 19  1  0
 22 21  1  6
 22 23  1  0
 23 16  1  0
 24 25  1  0
 24 22  1  0
 26 24  2  0
M  END
$$$$
