SFN.pdb
     RDKit          3D

 26 26  0  0  1  0  0  0  0  0999 V2000
    9.2660  -18.5679   20.7764 O   0  0  0  0  0  0  0  0  0  0  0  0
    8.3345  -17.9211   19.9807 C   0  0  0  0  0  0  0  0  0  0  0  0
    8.8246  -16.4932   19.7098 C   0  0  2  0  0  0  0  0  0  0  0  0
   10.1421  -16.6232   19.1268 N   0  0  0  0  0  0  0  0  0  0  0  0
    8.9549  -15.8432   21.0289 C   0  0  0  0  0  0  0  0  0  0  0  0
   10.0767  -15.7958   21.5812 O   0  0  0  0  0  0  0  0  0  0  0  0
    7.8731  -15.2526   21.7361 N   0  0  0  0  0  0  0  0  0  0  0  0
    8.0422  -14.7030   23.0654 C   0  0  1  0  0  0  0  0  0  0  0  0
    6.9283  -13.7683   23.4389 C   0  0  0  0  0  0  0  0  0  0  0  0
    7.0207  -13.2136   24.7787 C   0  0  0  0  0  0  0  0  0  0  0  0
    6.1952  -13.6665   25.7812 C   0  0  0  0  0  0  0  0  0  0  0  0
    6.2755  -13.1377   27.0759 C   0  0  0  0  0  0  0  0  0  0  0  0
    7.1989  -12.1530   27.3280 C   0  0  0  0  0  0  0  0  0  0  0  0
    8.0280  -11.6860   26.3561 C   0  0  0  0  0  0  0  0  0  0  0  0
    7.9254  -12.2289   25.0824 C   0  0  0  0  0  0  0  0  0  0  0  0
    8.2938  -15.7857   24.0327 C   0  0  0  0  0  0  0  0  0  0  0  0
    7.6364  -16.8815   23.9325 O   0  0  0  0  0  0  0  0  0  0  0  0
   12.7671  -18.8379   25.7302 N   0  0  0  0  0  0  0  0  0  0  0  0
   11.3364  -18.7136   25.7693 C   0  0  0  0  0  0  0  0  0  0  0  0
   10.6341  -19.5634   26.3596 O   0  0  0  0  0  0  0  0  0  0  0  0
   10.7351  -17.5703   25.1017 C   0  0  0  0  0  0  0  0  0  0  0  0
    9.5729  -16.9336   25.8751 C   0  0  2  0  0  0  0  0  0  0  0  0
    9.2299  -15.7195   25.0961 N   0  0  0  0  0  0  0  0  0  0  0  0
   10.1157  -16.4557   27.1597 C   0  0  0  0  0  0  0  0  0  0  0  0
   10.9162  -15.3387   27.3046 O   0  0  0  0  0  0  0  0  0  0  0  0
    9.8540  -17.0821   28.2145 O   0  0  0  0  0  0  0  0  0  0  0  0
  1  2  1  0
  2  3  1  0
  3  5  1  0
  3  4  1  1
  5  6  2  0
  7  8  1  0
  7  5  1  0
  8  9  1  1
  9 10  1  0
 10 15  2  0
 11 12  2  0
 11 10  1  0
 12 13  1  0
 13 14  2  0
 15 14  1  0
 16  8  1  0
 17 16  2  0
 18 19  1  0
 19 20  2  0
 21 19  1  0
 22 21  1  6
 22 23  1  0
 23 16  1  0
 24 25  1  0
 24 22  1  0
 26 24  2  0
M  END
$$$$
