SFN.pdb
     RDKit          3D

 26 26  0  0  1  0  0  0  0  0999 V2000
    8.9391  -20.4596   14.8973 O   0  0  0  0  0  0  0  0  0  0  0  0
    9.2450  -19.5305   15.8783 C   0  0  0  0  0  0  0  0  0  0  0  0
    9.1134  -18.1233   15.2823 C   0  0  2  0  0  0  0  0  0  0  0  0
   10.2237  -17.9676   14.3681 N   0  0  0  0  0  0  0  0  0  0  0  0
    9.2910  -17.1805   16.4043 C   0  0  0  0  0  0  0  0  0  0  0  0
   10.4385  -16.7649   16.6807 O   0  0  0  0  0  0  0  0  0  0  0  0
    8.2282  -16.6977   17.2147 N   0  0  0  0  0  0  0  0  0  0  0  0
    8.4686  -15.8218   18.3429 C   0  0  1  0  0  0  0  0  0  0  0  0
    7.2365  -15.0645   18.7458 C   0  0  0  0  0  0  0  0  0  0  0  0
    7.3871  -14.2421   19.9343 C   0  0  0  0  0  0  0  0  0  0  0  0
    7.9324  -12.9824   19.8481 C   0  0  0  0  0  0  0  0  0  0  0  0
    8.0829  -12.1820   20.9878 C   0  0  0  0  0  0  0  0  0  0  0  0
    7.6737  -12.6804   22.2002 C   0  0  0  0  0  0  0  0  0  0  0  0
    7.1311  -13.9224   22.3152 C   0  0  0  0  0  0  0  0  0  0  0  0
    6.9945  -14.6930   21.1683 C   0  0  0  0  0  0  0  0  0  0  0  0
    9.1222  -16.5677   19.4329 C   0  0  0  0  0  0  0  0  0  0  0  0
    8.8588  -17.8126   19.5868 O   0  0  0  0  0  0  0  0  0  0  0  0
   13.0839  -18.6630   22.2023 N   0  0  0  0  0  0  0  0  0  0  0  0
   13.0346  -17.2273   22.2135 C   0  0  0  0  0  0  0  0  0  0  0  0
   13.6925  -16.5689   23.0487 O   0  0  0  0  0  0  0  0  0  0  0  0
   12.1966  -16.5683   21.2246 C   0  0  0  0  0  0  0  0  0  0  0  0
   10.6988  -16.8646   21.3756 C   0  0  2  0  0  0  0  0  0  0  0  0
   10.0469  -16.0113   20.3531 N   0  0  0  0  0  0  0  0  0  0  0  0
   10.2794  -16.3288   22.6834 C   0  0  0  0  0  0  0  0  0  0  0  0
   10.6538  -15.0951   23.1808 O   0  0  0  0  0  0  0  0  0  0  0  0
    9.5317  -17.0130   23.4225 O   0  0  0  0  0  0  0  0  0  0  0  0
  1  2  1  0
  2  3  1  0
  3  5  1  0
  3  4  1  6
  5  6  2  0
  7  8  1  0
  7  5  1  0
  8  9  1  1
  9 10  1  0
 10 15  2  0
 11 12  2  0
 11 10  1  0
 12 13  1  0
 13 14  2  0
 15 14  1  0
 16  8  1  0
 17 16  2  0
 18 19  1  0
 19 20  2  0
 21 19  1  0
 22 21  1  1
 22 23  1  0
 23 16  1  0
 24 25  1  0
 24 22  1  0
 26 24  2  0
M  END
$$$$
