SFN.pdb
     RDKit          3D

 26 26  0  0  1  0  0  0  0  0999 V2000
    8.6596  -18.6844   20.9914 O   0  0  0  0  0  0  0  0  0  0  0  0
    9.6902  -18.1833   20.2130 C   0  0  0  0  0  0  0  0  0  0  0  0
    9.4312  -16.6943   19.9517 C   0  0  2  0  0  0  0  0  0  0  0  0
   10.5600  -16.2180   19.1825 N   0  0  0  0  0  0  0  0  0  0  0  0
    9.4479  -16.0335   21.2718 C   0  0  0  0  0  0  0  0  0  0  0  0
   10.5304  -15.9259   21.8902 O   0  0  0  0  0  0  0  0  0  0  0  0
    8.2963  -15.4972   21.9085 N   0  0  0  0  0  0  0  0  0  0  0  0
    8.3705  -14.8671   23.2106 C   0  0  1  0  0  0  0  0  0  0  0  0
    7.2620  -13.8778   23.4261 C   0  0  0  0  0  0  0  0  0  0  0  0
    7.2547  -13.2449   24.7340 C   0  0  0  0  0  0  0  0  0  0  0  0
    8.3277  -12.4933   25.1528 C   0  0  0  0  0  0  0  0  0  0  0  0
    8.3311  -11.8798   26.4121 C   0  0  0  0  0  0  0  0  0  0  0  0
    7.2373  -12.0430   27.2262 C   0  0  0  0  0  0  0  0  0  0  0  0
    6.1623  -12.7807   26.8382 C   0  0  0  0  0  0  0  0  0  0  0  0
    6.1873  -13.3770   25.5846 C   0  0  0  0  0  0  0  0  0  0  0  0
    8.5006  -15.8913   24.2620 C   0  0  0  0  0  0  0  0  0  0  0  0
    7.5603  -16.7471   24.4239 O   0  0  0  0  0  0  0  0  0  0  0  0
   10.1779  -18.6094   23.8258 N   0  0  0  0  0  0  0  0  0  0  0  0
   11.2906  -18.4861   24.7260 C   0  0  0  0  0  0  0  0  0  0  0  0
   12.3835  -19.0400   24.4754 O   0  0  0  0  0  0  0  0  0  0  0  0
   11.1036  -17.6983   25.9339 C   0  0  0  0  0  0  0  0  0  0  0  0
    9.6850  -17.1388   26.1030 C   0  0  2  0  0  0  0  0  0  0  0  0
    9.6107  -16.0175   25.1358 N   0  0  0  0  0  0  0  0  0  0  0  0
    9.6153  -16.5285   27.4431 C   0  0  0  0  0  0  0  0  0  0  0  0
    9.5687  -15.1683   27.6827 O   0  0  0  0  0  0  0  0  0  0  0  0
    9.5962  -17.2641   28.4589 O   0  0  0  0  0  0  0  0  0  0  0  0
  1  2  1  0
  2  3  1  0
  3  5  1  0
  3  4  1  6
  5  6  2  0
  7  8  1  0
  7  5  1  0
  8  9  1  1
  9 10  1  0
 10 15  2  0
 11 12  2  0
 11 10  1  0
 12 13  1  0
 13 14  2  0
 15 14  1  0
 16  8  1  0
 17 16  2  0
 18 19  1  0
 19 20  2  0
 21 19  1  0
 22 21  1  1
 22 23  1  0
 23 16  1  0
 24 25  1  0
 24 22  1  0
 26 24  2  0
M  END
$$$$
