SFN.pdb
     RDKit          3D

 26 26  0  0  1  0  0  0  0  0999 V2000
    9.2652  -18.5401   20.3723 O   0  0  0  0  0  0  0  0  0  0  0  0
    8.3461  -17.8853   19.5688 C   0  0  0  0  0  0  0  0  0  0  0  0
    8.7544  -16.4114   19.4532 C   0  0  2  0  0  0  0  0  0  0  0  0
   10.0565  -16.4024   18.8229 N   0  0  0  0  0  0  0  0  0  0  0  0
    8.8962  -15.9117   20.8351 C   0  0  0  0  0  0  0  0  0  0  0  0
   10.0227  -15.9253   21.3797 O   0  0  0  0  0  0  0  0  0  0  0  0
    7.8207  -15.4037   21.6126 N   0  0  0  0  0  0  0  0  0  0  0  0
    8.0187  -14.9260   22.9655 C   0  0  1  0  0  0  0  0  0  0  0  0
    6.8617  -14.1016   23.4511 C   0  0  0  0  0  0  0  0  0  0  0  0
    7.0349  -13.5268   24.7744 C   0  0  0  0  0  0  0  0  0  0  0  0
    7.7968  -12.3955   24.9508 C   0  0  0  0  0  0  0  0  0  0  0  0
    7.9708  -11.8340   26.2223 C   0  0  0  0  0  0  0  0  0  0  0  0
    7.3633  -12.4369   27.2962 C   0  0  0  0  0  0  0  0  0  0  0  0
    6.6044  -13.5563   27.1514 C   0  0  0  0  0  0  0  0  0  0  0  0
    6.4498  -14.0903   25.8791 C   0  0  0  0  0  0  0  0  0  0  0  0
    8.3964  -16.0446   23.8473 C   0  0  0  0  0  0  0  0  0  0  0  0
    8.2384  -17.2483   23.4361 O   0  0  0  0  0  0  0  0  0  0  0  0
   11.7919  -18.6787   26.5255 N   0  0  0  0  0  0  0  0  0  0  0  0
   12.0992  -17.8533   25.3905 C   0  0  0  0  0  0  0  0  0  0  0  0
   13.2181  -17.9155   24.8355 O   0  0  0  0  0  0  0  0  0  0  0  0
   11.0686  -16.9465   24.9108 C   0  0  0  0  0  0  0  0  0  0  0  0
    9.7778  -16.9709   25.7398 C   0  0  2  0  0  0  0  0  0  0  0  0
    8.9379  -15.9006   25.1502 N   0  0  0  0  0  0  0  0  0  0  0  0
   10.1251  -16.5166   27.0986 C   0  0  0  0  0  0  0  0  0  0  0  0
   10.0934  -15.1997   27.5160 O   0  0  0  0  0  0  0  0  0  0  0  0
   10.4790  -17.3557   27.9611 O   0  0  0  0  0  0  0  0  0  0  0  0
  1  2  1  0
  2  3  1  0
  3  5  1  0
  3  4  1  6
  5  6  2  0
  7  8  1  0
  7  5  1  0
  8  9  1  1
  9 10  1  0
 10 15  2  0
 11 12  2  0
 11 10  1  0
 12 13  1  0
 13 14  2  0
 15 14  1  0
 16  8  1  0
 17 16  2  0
 18 19  1  0
 19 20  2  0
 21 19  1  0
 22 21  1  6
 22 23  1  0
 23 16  1  0
 24 25  1  0
 24 22  1  0
 26 24  2  0
M  END
$$$$
