SFN.pdb
     RDKit          3D

 26 26  0  0  1  0  0  0  0  0999 V2000
    9.2357  -18.6528   20.3108 O   0  0  0  0  0  0  0  0  0  0  0  0
    8.2649  -17.8221   19.7753 C   0  0  0  0  0  0  0  0  0  0  0  0
    8.8602  -16.4199   19.5966 C   0  0  2  0  0  0  0  0  0  0  0  0
   10.1807  -16.6112   19.0375 N   0  0  0  0  0  0  0  0  0  0  0  0
    9.0001  -15.8537   20.9527 C   0  0  0  0  0  0  0  0  0  0  0  0
   10.1175  -15.8778   21.5153 O   0  0  0  0  0  0  0  0  0  0  0  0
    7.9323  -15.2687   21.6855 N   0  0  0  0  0  0  0  0  0  0  0  0
    8.1368  -14.6896   22.9972 C   0  0  1  0  0  0  0  0  0  0  0  0
    6.9981  -13.8022   23.4094 C   0  0  0  0  0  0  0  0  0  0  0  0
    7.1165  -13.2374   24.7429 C   0  0  0  0  0  0  0  0  0  0  0  0
    6.2074  -13.5617   25.7226 C   0  0  0  0  0  0  0  0  0  0  0  0
    6.3120  -13.0220   27.0111 C   0  0  0  0  0  0  0  0  0  0  0  0
    7.3449  -12.1581   27.2804 C   0  0  0  0  0  0  0  0  0  0  0  0
    8.2585  -11.8196   26.3312 C   0  0  0  0  0  0  0  0  0  0  0  0
    8.1293  -12.3701   25.0631 C   0  0  0  0  0  0  0  0  0  0  0  0
    8.4846  -15.7429   23.9672 C   0  0  0  0  0  0  0  0  0  0  0  0
    7.7574  -16.7961   24.0370 O   0  0  0  0  0  0  0  0  0  0  0  0
   11.3249  -18.8963   26.9685 N   0  0  0  0  0  0  0  0  0  0  0  0
   12.1287  -18.1393   26.0495 C   0  0  0  0  0  0  0  0  0  0  0  0
   13.3427  -18.3972   25.8954 O   0  0  0  0  0  0  0  0  0  0  0  0
   11.4852  -17.0671   25.3074 C   0  0  0  0  0  0  0  0  0  0  0  0
    9.9940  -16.8938   25.6242 C   0  0  2  0  0  0  0  0  0  0  0  0
    9.5888  -15.6921   24.8559 N   0  0  0  0  0  0  0  0  0  0  0  0
    9.8920  -16.5230   27.0473 C   0  0  0  0  0  0  0  0  0  0  0  0
    9.8076  -15.2252   27.5144 O   0  0  0  0  0  0  0  0  0  0  0  0
    9.8791  -17.4215   27.9224 O   0  0  0  0  0  0  0  0  0  0  0  0
  1  2  1  0
  2  3  1  0
  3  5  1  0
  3  4  1  1
  5  6  2  0
  7  8  1  0
  7  5  1  0
  8  9  1  1
  9 10  1  0
 10 15  2  0
 11 12  2  0
 11 10  1  0
 12 13  1  0
 13 14  2  0
 15 14  1  0
 16  8  1  0
 17 16  2  0
 18 19  1  0
 19 20  2  0
 21 19  1  0
 22 21  1  6
 22 23  1  0
 23 16  1  0
 24 25  1  0
 24 22  1  0
 26 24  2  0
M  END
$$$$
