HGA.pdb
     RDKit          3D

 20 20  0  0  1  0  0  0  0  0999 V2000
   25.9765  -21.3924  -16.0451 N   0  0  0  0  0  0  0  0  0  0  0  0
   25.2677  -22.4943  -15.3548 C   0  0  1  0  0  0  0  0  0  0  0  0
   26.2782  -23.2755  -14.5815 C   0  0  0  0  0  0  0  0  0  0  0  0
   27.3408  -23.8183  -15.4376 C   0  0  0  0  0  0  0  0  0  0  0  0
   27.2842  -25.0067  -16.1384 C   0  0  0  0  0  0  0  0  0  0  0  0
   28.4394  -25.1945  -16.8224 N   0  0  0  0  0  0  0  0  0  0  0  0
   29.2170  -24.1243  -16.5490 C   0  0  0  0  0  0  0  0  0  0  0  0
   28.5623  -23.2948  -15.7180 N   0  0  0  0  0  0  0  0  0  0  0  0
   24.1816  -21.9016  -14.5858 C   0  0  0  0  0  0  0  0  0  0  0  0
   24.4263  -21.0181  -13.7293 O   0  0  0  0  0  0  0  0  0  0  0  0
   22.8200  -22.2671  -14.7478 N   0  0  0  0  0  0  0  0  0  0  0  0
   21.7950  -21.6331  -13.9120 C   0  0  0  0  0  0  0  0  0  0  0  0
   20.4608  -22.1792  -14.2017 C   0  0  0  0  0  0  0  0  0  0  0  0
   20.1495  -22.7536  -15.2777 O   0  0  0  0  0  0  0  0  0  0  0  0
   17.3000  -22.4303  -12.1728 C   0  0  0  0  0  0  0  0  0  0  0  0
   18.1319  -22.5401  -13.4423 C   0  0  2  0  0  0  0  0  0  0  0  0
   19.4669  -22.0374  -13.1800 N   0  0  0  0  0  0  0  0  0  0  0  0
   17.4725  -21.6784  -14.4542 C   0  0  0  0  0  0  0  0  0  0  0  0
   17.7946  -20.4652  -14.5944 O   0  0  0  0  0  0  0  0  0  0  0  0
   16.4917  -22.2008  -15.2586 O   0  0  0  0  0  0  0  0  0  0  0  0
  2  1  1  1
  3  2  1  0
  4  3  1  0
  5  4  2  0
  6  7  1  0
  6  5  1  0
  7  8  2  0
  8  4  1  0
  9  2  1  0
  9 10  2  0
 11  9  1  0
 12 11  1  0
 13 12  1  0
 14 13  2  0
 16 15  1  1
 16 17  1  0
 16 18  1  0
 17 13  1  0
 18 20  1  0
 19 18  2  0
M  END
$$$$
