HGA.pdb
     RDKit          3D

 20 20  0  0  1  0  0  0  0  0999 V2000
   20.4493   -9.9439  -16.2930 N   0  0  0  0  0  0  0  0  0  0  0  0
   19.5836   -9.3997  -15.2217 C   0  0  1  0  0  0  0  0  0  0  0  0
   19.2649  -10.5138  -14.2802 C   0  0  0  0  0  0  0  0  0  0  0  0
   18.5437  -11.6120  -14.9362 C   0  0  0  0  0  0  0  0  0  0  0  0
   17.4200  -11.4803  -15.7278 C   0  0  0  0  0  0  0  0  0  0  0  0
   17.0201  -12.6985  -16.1678 N   0  0  0  0  0  0  0  0  0  0  0  0
   17.8933  -13.5905  -15.6516 C   0  0  0  0  0  0  0  0  0  0  0  0
   18.8102  -12.9437  -14.9113 N   0  0  0  0  0  0  0  0  0  0  0  0
   20.2666   -8.2462  -14.6514 C   0  0  0  0  0  0  0  0  0  0  0  0
   19.7745   -7.6482  -13.6645 O   0  0  0  0  0  0  0  0  0  0  0  0
   21.4932   -7.7384  -15.1529 N   0  0  0  0  0  0  0  0  0  0  0  0
   22.1019   -6.5617  -14.5235 C   0  0  0  0  0  0  0  0  0  0  0  0
   21.3502   -5.3392  -14.8443 C   0  0  0  0  0  0  0  0  0  0  0  0
   20.3788   -5.2949  -15.6437 O   0  0  0  0  0  0  0  0  0  0  0  0
   19.6304   -3.0048  -14.0327 C   0  0  0  0  0  0  0  0  0  0  0  0
   21.0706   -2.9014  -14.5132 C   0  0  2  0  0  0  0  0  0  0  0  0
   21.7672   -4.1330  -14.1940 N   0  0  0  0  0  0  0  0  0  0  0  0
   21.6861   -1.7799  -13.7619 C   0  0  0  0  0  0  0  0  0  0  0  0
   22.5321   -1.9877  -12.8473 O   0  0  0  0  0  0  0  0  0  0  0  0
   21.3357   -0.4873  -14.0592 O   0  0  0  0  0  0  0  0  0  0  0  0
  2  1  1  6
  3  2  1  0
  4  3  1  0
  5  4  2  0
  6  7  1  0
  6  5  1  0
  7  8  2  0
  8  4  1  0
  9  2  1  0
  9 10  2  0
 11  9  1  0
 12 11  1  0
 13 12  1  0
 14 13  2  0
 16 15  1  1
 16 17  1  0
 16 18  1  0
 17 13  1  0
 18 20  1  0
 19 18  2  0
M  END
$$$$
