HGA.pdb
     RDKit          3D

 20 20  0  0  1  0  0  0  0  0999 V2000
   18.4924  -10.9585  -17.4339 N   0  0  0  0  0  0  0  0  0  0  0  0
   18.5740  -10.8310  -15.9607 C   0  0  1  0  0  0  0  0  0  0  0  0
   19.6717  -11.7237  -15.4839 C   0  0  0  0  0  0  0  0  0  0  0  0
   19.4044  -13.1398  -15.7670 C   0  0  0  0  0  0  0  0  0  0  0  0
   20.1209  -13.9379  -16.6366 C   0  0  0  0  0  0  0  0  0  0  0  0
   19.5982  -15.1887  -16.6520 N   0  0  0  0  0  0  0  0  0  0  0  0
   18.5560  -15.1717  -15.7927 C   0  0  0  0  0  0  0  0  0  0  0  0
   18.4351  -13.9440  -15.2585 N   0  0  0  0  0  0  0  0  0  0  0  0
   18.7122   -9.4141  -15.6515 C   0  0  0  0  0  0  0  0  0  0  0  0
   18.6151   -9.0166  -14.4655 O   0  0  0  0  0  0  0  0  0  0  0  0
   18.9597   -8.4209  -16.6343 N   0  0  0  0  0  0  0  0  0  0  0  0
   18.9939   -7.0075  -16.2439 C   0  0  0  0  0  0  0  0  0  0  0  0
   20.3135   -6.6348  -15.7127 C   0  0  0  0  0  0  0  0  0  0  0  0
   21.2290   -7.4580  -15.4503 O   0  0  0  0  0  0  0  0  0  0  0  0
   22.0030   -3.3273  -15.1782 C   0  0  0  0  0  0  0  0  0  0  0  0
   21.8568   -4.8323  -15.0061 C   0  0  2  0  0  0  0  0  0  0  0  0
   20.5507   -5.2404  -15.4869 N   0  0  0  0  0  0  0  0  0  0  0  0
   21.9504   -5.1010  -13.5500 C   0  0  0  0  0  0  0  0  0  0  0  0
   20.9165   -5.1848  -12.8294 O   0  0  0  0  0  0  0  0  0  0  0  0
   23.1807   -5.2633  -12.9650 O   0  0  0  0  0  0  0  0  0  0  0  0
  2  1  1  6
  3  2  1  0
  4  3  1  0
  5  4  2  0
  6  7  1  0
  6  5  1  0
  7  8  2  0
  8  4  1  0
  9  2  1  0
  9 10  2  0
 11  9  1  0
 12 11  1  0
 13 12  1  0
 14 13  2  0
 16 15  1  1
 16 17  1  0
 16 18  1  0
 17 13  1  0
 18 20  1  0
 19 18  2  0
M  END
$$$$
