HGA.pdb
     RDKit          3D

 20 20  0  0  1  0  0  0  0  0999 V2000
   22.8888  -11.9078  -16.2603 N   0  0  0  0  0  0  0  0  0  0  0  0
   23.2738  -10.7378  -17.0825 C   0  0  1  0  0  0  0  0  0  0  0  0
   22.6923  -10.9240  -18.4449 C   0  0  0  0  0  0  0  0  0  0  0  0
   23.1314  -12.1760  -19.0746 C   0  0  0  0  0  0  0  0  0  0  0  0
   22.3033  -13.1673  -19.5627 C   0  0  0  0  0  0  0  0  0  0  0  0
   23.0467  -14.1787  -20.0749 N   0  0  0  0  0  0  0  0  0  0  0  0
   24.3379  -13.8194  -19.9068 C   0  0  0  0  0  0  0  0  0  0  0  0
   24.3946  -12.6178  -19.3067 N   0  0  0  0  0  0  0  0  0  0  0  0
   22.8610   -9.5414  -16.3609 C   0  0  0  0  0  0  0  0  0  0  0  0
   23.1418   -8.4055  -16.8134 O   0  0  0  0  0  0  0  0  0  0  0  0
   22.1363   -9.5763  -15.1413 N   0  0  0  0  0  0  0  0  0  0  0  0
   21.7288   -8.3196  -14.5042 C   0  0  0  0  0  0  0  0  0  0  0  0
   20.4320   -7.8580  -15.0212 C   0  0  0  0  0  0  0  0  0  0  0  0
   19.5207   -8.6233  -15.4317 O   0  0  0  0  0  0  0  0  0  0  0  0
   17.8605   -6.3704  -14.4802 C   0  0  0  0  0  0  0  0  0  0  0  0
   18.9199   -5.9542  -15.4904 C   0  0  2  0  0  0  0  0  0  0  0  0
   20.2129   -6.4428  -15.0507 N   0  0  0  0  0  0  0  0  0  0  0  0
   18.9328   -4.4707  -15.5007 C   0  0  0  0  0  0  0  0  0  0  0  0
   19.8695   -3.8179  -14.9606 O   0  0  0  0  0  0  0  0  0  0  0  0
   17.9108   -3.7849  -16.1067 O   0  0  0  0  0  0  0  0  0  0  0  0
  2  1  1  1
  3  2  1  0
  4  3  1  0
  5  4  2  0
  6  7  1  0
  6  5  1  0
  7  8  2  0
  8  4  1  0
  9  2  1  0
  9 10  2  0
 11  9  1  0
 12 11  1  0
 13 12  1  0
 14 13  2  0
 16 15  1  1
 16 17  1  0
 16 18  1  0
 17 13  1  0
 18 20  1  0
 19 18  2  0
M  END
$$$$
