HGA.pdb
     RDKit          3D

 20 20  0  0  1  0  0  0  0  0999 V2000
   19.5741  -11.2017  -14.9247 N   0  0  0  0  0  0  0  0  0  0  0  0
   20.1172  -11.4699  -16.2761 C   0  0  1  0  0  0  0  0  0  0  0  0
   18.9657  -11.7418  -17.1868 C   0  0  0  0  0  0  0  0  0  0  0  0
   18.1599  -12.8868  -16.7437 C   0  0  0  0  0  0  0  0  0  0  0  0
   16.8109  -12.8589  -16.4506 C   0  0  0  0  0  0  0  0  0  0  0  0
   16.3949  -14.0928  -16.0736 N   0  0  0  0  0  0  0  0  0  0  0  0
   17.4832  -14.8909  -16.1312 C   0  0  0  0  0  0  0  0  0  0  0  0
   18.5458  -14.1720  -16.5329 N   0  0  0  0  0  0  0  0  0  0  0  0
   20.9737  -10.3471  -16.6338 C   0  0  0  0  0  0  0  0  0  0  0  0
   21.5710  -10.3379  -17.7370 O   0  0  0  0  0  0  0  0  0  0  0  0
   21.1826   -9.2248  -15.7908 N   0  0  0  0  0  0  0  0  0  0  0  0
   22.1403   -8.1877  -16.1889 C   0  0  0  0  0  0  0  0  0  0  0  0
   22.1594   -7.0820  -15.2197 C   0  0  0  0  0  0  0  0  0  0  0  0
   21.8216   -7.1933  -14.0122 O   0  0  0  0  0  0  0  0  0  0  0  0
   23.2309   -3.4815  -15.4585 C   0  0  0  0  0  0  0  0  0  0  0  0
   22.5770   -4.6802  -14.7866 C   0  0  2  0  0  0  0  0  0  0  0  0
   22.5936   -5.8051  -15.7021 N   0  0  0  0  0  0  0  0  0  0  0  0
   21.1718   -4.2932  -14.5092 C   0  0  0  0  0  0  0  0  0  0  0  0
   20.2340   -4.6195  -15.2898 O   0  0  0  0  0  0  0  0  0  0  0  0
   20.8750   -3.5661  -13.3844 O   0  0  0  0  0  0  0  0  0  0  0  0
  2  1  1  1
  3  2  1  0
  4  3  1  0
  5  4  2  0
  6  7  1  0
  6  5  1  0
  7  8  2  0
  8  4  1  0
  9  2  1  0
  9 10  2  0
 11  9  1  0
 12 11  1  0
 13 12  1  0
 14 13  2  0
 16 15  1  6
 16 17  1  0
 16 18  1  0
 17 13  1  0
 18 20  1  0
 19 18  2  0
M  END
$$$$
