HGA.pdb
     RDKit          3D

 20 20  0  0  1  0  0  0  0  0999 V2000
   25.8846  -20.3166  -15.8353 N   0  0  0  0  0  0  0  0  0  0  0  0
   24.6582  -19.4920  -15.9317 C   0  0  1  0  0  0  0  0  0  0  0  0
   24.6806  -18.7901  -17.2492 C   0  0  0  0  0  0  0  0  0  0  0  0
   25.8721  -17.9476  -17.4144 C   0  0  0  0  0  0  0  0  0  0  0  0
   25.8958  -16.5675  -17.3778 C   0  0  0  0  0  0  0  0  0  0  0  0
   27.1623  -16.1225  -17.5665 N   0  0  0  0  0  0  0  0  0  0  0  0
   27.9292  -17.2237  -17.7208 C   0  0  0  0  0  0  0  0  0  0  0  0
   27.1596  -18.3224  -17.6304 N   0  0  0  0  0  0  0  0  0  0  0  0
   23.5213  -20.3689  -15.6852 C   0  0  0  0  0  0  0  0  0  0  0  0
   23.6736  -21.6142  -15.6944 O   0  0  0  0  0  0  0  0  0  0  0  0
   22.2101  -19.8928  -15.4246 N   0  0  0  0  0  0  0  0  0  0  0  0
   21.1065  -20.8487  -15.2843 C   0  0  0  0  0  0  0  0  0  0  0  0
   20.5933  -20.8692  -13.9064 C   0  0  0  0  0  0  0  0  0  0  0  0
   21.1901  -20.3613  -12.9213 O   0  0  0  0  0  0  0  0  0  0  0  0
   17.2568  -21.6287  -12.4511 C   0  0  0  0  0  0  0  0  0  0  0  0
   18.7709  -21.5082  -12.3568 C   0  0  2  0  0  0  0  0  0  0  0  0
   19.3317  -21.5135  -13.6945 N   0  0  0  0  0  0  0  0  0  0  0  0
   19.2441  -22.7063  -11.6209 C   0  0  0  0  0  0  0  0  0  0  0  0
   19.0388  -22.8400  -10.3818 O   0  0  0  0  0  0  0  0  0  0  0  0
   19.9193  -23.6947  -12.2911 O   0  0  0  0  0  0  0  0  0  0  0  0
  2  1  1  6
  3  2  1  0
  4  3  1  0
  5  4  2  0
  6  7  1  0
  6  5  1  0
  7  8  2  0
  8  4  1  0
  9  2  1  0
  9 10  2  0
 11  9  1  0
 12 11  1  0
 13 12  1  0
 14 13  2  0
 16 15  1  6
 16 17  1  0
 16 18  1  0
 17 13  1  0
 18 20  1  0
 19 18  2  0
M  END
$$$$
