HGA.pdb
     RDKit          3D

 20 20  0  0  1  0  0  0  0  0999 V2000
   20.0346  -11.8883  -15.6443 N   0  0  0  0  0  0  0  0  0  0  0  0
   19.0670  -11.2249  -16.5481 C   0  0  1  0  0  0  0  0  0  0  0  0
   17.8114  -12.0326  -16.5472 C   0  0  0  0  0  0  0  0  0  0  0  0
   18.0463  -13.4328  -16.9227 C   0  0  0  0  0  0  0  0  0  0  0  0
   17.9009  -14.5262  -16.0920 C   0  0  0  0  0  0  0  0  0  0  0  0
   18.2002  -15.6624  -16.7682 N   0  0  0  0  0  0  0  0  0  0  0  0
   18.5322  -15.2791  -18.0202 C   0  0  0  0  0  0  0  0  0  0  0  0
   18.4415  -13.9414  -18.1185 N   0  0  0  0  0  0  0  0  0  0  0  0
   18.9449   -9.8389  -16.1163 C   0  0  0  0  0  0  0  0  0  0  0  0
   18.2158   -9.5465  -15.1382 O   0  0  0  0  0  0  0  0  0  0  0  0
   19.6198   -8.7620  -16.7478 N   0  0  0  0  0  0  0  0  0  0  0  0
   19.3030   -7.3826  -16.3627 C   0  0  0  0  0  0  0  0  0  0  0  0
   20.4871   -6.6958  -15.8254 C   0  0  0  0  0  0  0  0  0  0  0  0
   21.5685   -7.2714  -15.5359 O   0  0  0  0  0  0  0  0  0  0  0  0
   21.2578   -3.0645  -15.2003 C   0  0  0  0  0  0  0  0  0  0  0  0
   21.5584   -4.5564  -15.1887 C   0  0  2  0  0  0  0  0  0  0  0  0
   20.3809   -5.2813  -15.6266 N   0  0  0  0  0  0  0  0  0  0  0  0
   21.8606   -4.9145  -13.7810 C   0  0  0  0  0  0  0  0  0  0  0  0
   22.9902   -4.6739  -13.2697 O   0  0  0  0  0  0  0  0  0  0  0  0
   20.9000   -5.5196  -13.0109 O   0  0  0  0  0  0  0  0  0  0  0  0
  2  1  1  1
  3  2  1  0
  4  3  1  0
  5  4  2  0
  6  7  1  0
  6  5  1  0
  7  8  2  0
  8  4  1  0
  9  2  1  0
  9 10  2  0
 11  9  1  0
 12 11  1  0
 13 12  1  0
 14 13  2  0
 16 15  1  1
 16 17  1  0
 16 18  1  0
 17 13  1  0
 18 20  1  0
 19 18  2  0
M  END
$$$$
