HGA.pdb
     RDKit          3D

 20 20  0  0  1  0  0  0  0  0999 V2000
   25.1458  -12.7621  -16.6788 N   0  0  0  0  0  0  0  0  0  0  0  0
   24.6455  -13.0685  -15.3190 C   0  0  1  0  0  0  0  0  0  0  0  0
   25.7726  -13.6604  -14.5389 C   0  0  0  0  0  0  0  0  0  0  0  0
   26.2436  -14.9286  -15.1103 C   0  0  0  0  0  0  0  0  0  0  0  0
   25.8504  -15.4634  -16.3212 C   0  0  0  0  0  0  0  0  0  0  0  0
   26.4841  -16.6430  -16.5322 N   0  0  0  0  0  0  0  0  0  0  0  0
   27.2725  -16.8450  -15.4540 C   0  0  0  0  0  0  0  0  0  0  0  0
   27.1319  -15.8187  -14.5971 N   0  0  0  0  0  0  0  0  0  0  0  0
   24.0592  -11.8472  -14.7833 C   0  0  0  0  0  0  0  0  0  0  0  0
   24.6396  -10.7469  -14.9457 O   0  0  0  0  0  0  0  0  0  0  0  0
   22.8337  -11.8177  -14.0684 N   0  0  0  0  0  0  0  0  0  0  0  0
   22.3450  -10.5482  -13.5199 C   0  0  0  0  0  0  0  0  0  0  0  0
   21.3813   -9.9120  -14.4302 C   0  0  0  0  0  0  0  0  0  0  0  0
   20.4455  -10.5230  -15.0097 O   0  0  0  0  0  0  0  0  0  0  0  0
   19.2508   -7.7042  -14.6824 C   0  0  0  0  0  0  0  0  0  0  0  0
   20.5460   -7.8269  -15.4719 C   0  0  2  0  0  0  0  0  0  0  0  0
   21.5357   -8.5064  -14.6579 N   0  0  0  0  0  0  0  0  0  0  0  0
   21.0037   -6.4430  -15.7487 C   0  0  0  0  0  0  0  0  0  0  0  0
   21.9821   -5.9383  -15.1295 O   0  0  0  0  0  0  0  0  0  0  0  0
   20.3574   -5.6882  -16.6945 O   0  0  0  0  0  0  0  0  0  0  0  0
  2  1  1  6
  3  2  1  0
  4  3  1  0
  5  4  2  0
  6  7  1  0
  6  5  1  0
  7  8  2  0
  8  4  1  0
  9  2  1  0
  9 10  2  0
 11  9  1  0
 12 11  1  0
 13 12  1  0
 14 13  2  0
 16 15  1  1
 16 17  1  0
 16 18  1  0
 17 13  1  0
 18 20  1  0
 19 18  2  0
M  END
$$$$
