HGA.pdb
     RDKit          3D

 20 20  0  0  1  0  0  0  0  0999 V2000
   19.1618  -11.1269  -18.2762 N   0  0  0  0  0  0  0  0  0  0  0  0
   17.7801  -10.6586  -18.0219 C   0  0  1  0  0  0  0  0  0  0  0  0
   16.9323  -11.8577  -17.7524 C   0  0  0  0  0  0  0  0  0  0  0  0
   16.8337  -12.7467  -18.9172 C   0  0  0  0  0  0  0  0  0  0  0  0
   17.4953  -13.9485  -19.0732 C   0  0  0  0  0  0  0  0  0  0  0  0
   17.1711  -14.5021  -20.2675 N   0  0  0  0  0  0  0  0  0  0  0  0
   16.3077  -13.6468  -20.8569 C   0  0  0  0  0  0  0  0  0  0  0  0
   16.1015  -12.5910  -20.0506 N   0  0  0  0  0  0  0  0  0  0  0  0
   17.8447   -9.6608  -16.9624 C   0  0  0  0  0  0  0  0  0  0  0  0
   16.7893   -9.1627  -16.5020 O   0  0  0  0  0  0  0  0  0  0  0  0
   19.0619   -9.2011  -16.3959 N   0  0  0  0  0  0  0  0  0  0  0  0
   19.0289   -8.3277  -15.2181 C   0  0  0  0  0  0  0  0  0  0  0  0
   20.3877   -8.0013  -14.7604 C   0  0  0  0  0  0  0  0  0  0  0  0
   21.3513   -8.8112  -14.7699 O   0  0  0  0  0  0  0  0  0  0  0  0
   22.8730   -6.4492  -15.0998 C   0  0  0  0  0  0  0  0  0  0  0  0
   21.9530   -6.2875  -13.8984 C   0  0  2  0  0  0  0  0  0  0  0  0
   20.6063   -6.6709  -14.2768 N   0  0  0  0  0  0  0  0  0  0  0  0
   21.9724   -4.8469  -13.5437 C   0  0  0  0  0  0  0  0  0  0  0  0
   20.9640   -4.1101  -13.7325 O   0  0  0  0  0  0  0  0  0  0  0  0
   23.1039   -4.2948  -12.9990 O   0  0  0  0  0  0  0  0  0  0  0  0
  2  1  1  1
  3  2  1  0
  4  3  1  0
  5  4  2  0
  6  7  1  0
  6  5  1  0
  7  8  2  0
  8  4  1  0
  9  2  1  0
  9 10  2  0
 11  9  1  0
 12 11  1  0
 13 12  1  0
 14 13  2  0
 16 15  1  6
 16 17  1  0
 16 18  1  0
 17 13  1  0
 18 20  1  0
 19 18  2  0
M  END
$$$$
