HGA.pdb
     RDKit          3D

 20 20  0  0  1  0  0  0  0  0999 V2000
   18.9351   -9.8874  -14.1394 N   0  0  0  0  0  0  0  0  0  0  0  0
   19.8883   -9.3416  -15.1328 C   0  0  1  0  0  0  0  0  0  0  0  0
   19.1390   -9.0988  -16.4012 C   0  0  0  0  0  0  0  0  0  0  0  0
   18.4574  -10.3049  -16.8883 C   0  0  0  0  0  0  0  0  0  0  0  0
   19.0720  -11.4137  -17.4356 C   0  0  0  0  0  0  0  0  0  0  0  0
   18.1397  -12.3373  -17.7757 N   0  0  0  0  0  0  0  0  0  0  0  0
   16.9438  -11.8059  -17.4410 C   0  0  0  0  0  0  0  0  0  0  0  0
   17.1286  -10.5857  -16.9078 N   0  0  0  0  0  0  0  0  0  0  0  0
   20.5322   -8.1822  -14.5298 C   0  0  0  0  0  0  0  0  0  0  0  0
   20.0931   -7.7068  -13.4551 O   0  0  0  0  0  0  0  0  0  0  0  0
   21.6617   -7.5347  -15.0944 N   0  0  0  0  0  0  0  0  0  0  0  0
   22.2249   -6.3526  -14.4336 C   0  0  0  0  0  0  0  0  0  0  0  0
   21.4878   -5.1353  -14.8040 C   0  0  0  0  0  0  0  0  0  0  0  0
   20.4598   -5.1238  -15.5305 O   0  0  0  0  0  0  0  0  0  0  0  0
   21.7259   -1.5595  -13.7068 C   0  0  0  0  0  0  0  0  0  0  0  0
   21.2963   -2.6713  -14.6530 C   0  0  2  0  0  0  0  0  0  0  0  0
   21.9891   -3.8941  -14.2944 N   0  0  0  0  0  0  0  0  0  0  0  0
   21.7131   -2.2513  -16.0136 C   0  0  0  0  0  0  0  0  0  0  0  0
   22.6905   -2.7966  -16.5990 O   0  0  0  0  0  0  0  0  0  0  0  0
   21.0293   -1.2512  -16.6571 O   0  0  0  0  0  0  0  0  0  0  0  0
  2  1  1  1
  3  2  1  0
  4  3  1  0
  5  4  2  0
  6  7  1  0
  6  5  1  0
  7  8  2  0
  8  4  1  0
  9  2  1  0
  9 10  2  0
 11  9  1  0
 12 11  1  0
 13 12  1  0
 14 13  2  0
 16 15  1  1
 16 17  1  0
 16 18  1  0
 17 13  1  0
 18 20  1  0
 19 18  2  0
M  END
$$$$
