HGA.pdb
     RDKit          3D

 20 20  0  0  1  0  0  0  0  0999 V2000
   25.4828  -32.7736  -13.3185 N   0  0  0  0  0  0  0  0  0  0  0  0
   26.7169  -33.5920  -13.3051 C   0  0  1  0  0  0  0  0  0  0  0  0
   27.6730  -32.9951  -14.2842 C   0  0  0  0  0  0  0  0  0  0  0  0
   27.2100  -33.1291  -15.6715 C   0  0  0  0  0  0  0  0  0  0  0  0
   27.2072  -34.2944  -16.4122 C   0  0  0  0  0  0  0  0  0  0  0  0
   26.7129  -34.0525  -17.6511 N   0  0  0  0  0  0  0  0  0  0  0  0
   26.4072  -32.7372  -17.6842 C   0  0  0  0  0  0  0  0  0  0  0  0
   26.7036  -32.1778  -16.4982 N   0  0  0  0  0  0  0  0  0  0  0  0
   27.1724  -33.6736  -11.9237 C   0  0  0  0  0  0  0  0  0  0  0  0
   28.2090  -34.3209  -11.6402 O   0  0  0  0  0  0  0  0  0  0  0  0
   26.5010  -33.0470  -10.8418 N   0  0  0  0  0  0  0  0  0  0  0  0
   27.2035  -32.8495   -9.5695 C   0  0  0  0  0  0  0  0  0  0  0  0
   26.2547  -32.7104   -8.4548 C   0  0  0  0  0  0  0  0  0  0  0  0
   26.5921  -32.5018   -7.2601 O   0  0  0  0  0  0  0  0  0  0  0  0
   22.5031  -32.6634   -8.2485 C   0  0  0  0  0  0  0  0  0  0  0  0
   23.9056  -32.8276   -7.6811 C   0  0  2  0  0  0  0  0  0  0  0  0
   24.8623  -32.8229   -8.7713 N   0  0  0  0  0  0  0  0  0  0  0  0
   23.9355  -34.1489   -7.0069 C   0  0  0  0  0  0  0  0  0  0  0  0
   24.5117  -35.1422   -7.5330 O   0  0  0  0  0  0  0  0  0  0  0  0
   23.3276  -34.3050   -5.7871 O   0  0  0  0  0  0  0  0  0  0  0  0
  2  1  1  1
  3  2  1  0
  4  3  1  0
  5  4  2  0
  6  7  1  0
  6  5  1  0
  7  8  2  0
  8  4  1  0
  9  2  1  0
  9 10  2  0
 11  9  1  0
 12 11  1  0
 13 12  1  0
 14 13  2  0
 16 15  1  6
 16 17  1  0
 16 18  1  0
 17 13  1  0
 18 20  1  0
 19 18  2  0
M  END
$$$$
