HGA.pdb
     RDKit          3D

 20 20  0  0  1  0  0  0  0  0999 V2000
   20.8892  -10.6631  -19.4050 N   0  0  0  0  0  0  0  0  0  0  0  0
   22.3173  -10.2824  -19.4986 C   0  0  1  0  0  0  0  0  0  0  0  0
   22.7675  -10.5339  -20.8997 C   0  0  0  0  0  0  0  0  0  0  0  0
   22.7009  -11.9554  -21.2624 C   0  0  0  0  0  0  0  0  0  0  0  0
   23.7702  -12.8279  -21.3064 C   0  0  0  0  0  0  0  0  0  0  0  0
   23.3455  -14.0599  -21.6798 N   0  0  0  0  0  0  0  0  0  0  0  0
   22.0119  -13.9571  -21.8688 C   0  0  0  0  0  0  0  0  0  0  0  0
   21.6195  -12.6957  -21.6196 N   0  0  0  0  0  0  0  0  0  0  0  0
   22.4372   -8.9128  -19.0167 C   0  0  0  0  0  0  0  0  0  0  0  0
   23.5602   -8.3548  -18.9798 O   0  0  0  0  0  0  0  0  0  0  0  0
   21.3315   -8.1414  -18.5736 N   0  0  0  0  0  0  0  0  0  0  0  0
   21.5343   -6.7425  -18.1819 C   0  0  0  0  0  0  0  0  0  0  0  0
   21.8775   -6.6344  -16.7562 C   0  0  0  0  0  0  0  0  0  0  0  0
   21.8787   -7.6037  -15.9530 O   0  0  0  0  0  0  0  0  0  0  0  0
   23.0004   -3.7611  -14.5986 C   0  0  0  0  0  0  0  0  0  0  0  0
   22.4992   -5.1749  -14.8552 C   0  0  2  0  0  0  0  0  0  0  0  0
   22.2300   -5.3334  -16.2716 N   0  0  0  0  0  0  0  0  0  0  0  0
   21.2329   -5.3175  -14.0954 C   0  0  0  0  0  0  0  0  0  0  0  0
   20.1102   -5.2394  -14.6688 O   0  0  0  0  0  0  0  0  0  0  0  0
   21.2718   -5.5389  -12.7421 O   0  0  0  0  0  0  0  0  0  0  0  0
  2  1  1  6
  3  2  1  0
  4  3  1  0
  5  4  2  0
  6  7  1  0
  6  5  1  0
  7  8  2  0
  8  4  1  0
  9  2  1  0
  9 10  2  0
 11  9  1  0
 12 11  1  0
 13 12  1  0
 14 13  2  0
 16 15  1  6
 16 17  1  0
 16 18  1  0
 17 13  1  0
 18 20  1  0
 19 18  2  0
M  END
$$$$
