HGA.pdb
     RDKit          3D

 20 20  0  0  1  0  0  0  0  0999 V2000
   20.9895  -11.5072  -17.4858 N   0  0  0  0  0  0  0  0  0  0  0  0
   19.5230  -11.3325  -17.5969 C   0  0  1  0  0  0  0  0  0  0  0  0
   18.8709  -12.4524  -16.8555 C   0  0  0  0  0  0  0  0  0  0  0  0
   19.1995  -13.7662  -17.4235 C   0  0  0  0  0  0  0  0  0  0  0  0
   18.3994  -14.4989  -18.2777 C   0  0  0  0  0  0  0  0  0  0  0  0
   19.0153  -15.6619  -18.6030 N   0  0  0  0  0  0  0  0  0  0  0  0
   20.1992  -15.6556  -17.9525 C   0  0  0  0  0  0  0  0  0  0  0  0
   20.3150  -14.5198  -17.2428 N   0  0  0  0  0  0  0  0  0  0  0  0
   19.2075   -9.9851  -17.1419 C   0  0  0  0  0  0  0  0  0  0  0  0
   18.0160   -9.5932  -17.1143 O   0  0  0  0  0  0  0  0  0  0  0  0
   20.1902   -9.0562  -16.7112 N   0  0  0  0  0  0  0  0  0  0  0  0
   19.7759   -7.7349  -16.2276 C   0  0  0  0  0  0  0  0  0  0  0  0
   20.8975   -7.0253  -15.5944 C   0  0  0  0  0  0  0  0  0  0  0  0
   22.0256   -7.5385  -15.3740 O   0  0  0  0  0  0  0  0  0  0  0  0
   21.3246   -3.4798  -14.3963 C   0  0  0  0  0  0  0  0  0  0  0  0
   21.7757   -4.9104  -14.6531 C   0  0  2  0  0  0  0  0  0  0  0  0
   20.6696   -5.6639  -15.2121 N   0  0  0  0  0  0  0  0  0  0  0  0
   22.1410   -5.4804  -13.3329 C   0  0  0  0  0  0  0  0  0  0  0  0
   21.3554   -6.2469  -12.7079 O   0  0  0  0  0  0  0  0  0  0  0  0
   23.3548   -5.1747  -12.7713 O   0  0  0  0  0  0  0  0  0  0  0  0
  2  1  1  1
  3  2  1  0
  4  3  1  0
  5  4  2  0
  6  7  1  0
  6  5  1  0
  7  8  2  0
  8  4  1  0
  9  2  1  0
  9 10  2  0
 11  9  1  0
 12 11  1  0
 13 12  1  0
 14 13  2  0
 16 15  1  1
 16 17  1  0
 16 18  1  0
 17 13  1  0
 18 20  1  0
 19 18  2  0
M  END
$$$$
