HGA.pdb
     RDKit          3D

 20 20  0  0  1  0  0  0  0  0999 V2000
   19.4802  -11.4161  -16.0175 N   0  0  0  0  0  0  0  0  0  0  0  0
   18.3372  -10.6288  -16.5341 C   0  0  1  0  0  0  0  0  0  0  0  0
   17.2744  -10.6221  -15.4855 C   0  0  0  0  0  0  0  0  0  0  0  0
   16.7683  -11.9693  -15.1929 C   0  0  0  0  0  0  0  0  0  0  0  0
   15.4801  -12.2807  -14.8053 C   0  0  0  0  0  0  0  0  0  0  0  0
   15.3645  -13.6187  -14.6205 N   0  0  0  0  0  0  0  0  0  0  0  0
   16.5795  -14.1426  -14.8924 C   0  0  0  0  0  0  0  0  0  0  0  0
   17.4262  -13.1568  -15.2367 N   0  0  0  0  0  0  0  0  0  0  0  0
   18.8512   -9.3283  -16.9425 C   0  0  0  0  0  0  0  0  0  0  0  0
   18.0809   -8.4791  -17.4519 O   0  0  0  0  0  0  0  0  0  0  0  0
   20.2094   -8.9442  -16.7955 N   0  0  0  0  0  0  0  0  0  0  0  0
   20.6234   -7.5876  -17.1687 C   0  0  0  0  0  0  0  0  0  0  0  0
   21.1377   -6.8500  -16.0052 C   0  0  0  0  0  0  0  0  0  0  0  0
   21.0343   -7.2453  -14.8145 O   0  0  0  0  0  0  0  0  0  0  0  0
   23.2144   -3.7278  -15.6940 C   0  0  0  0  0  0  0  0  0  0  0  0
   22.4144   -4.9057  -15.1567 C   0  0  2  0  0  0  0  0  0  0  0  0
   21.7949   -5.6044  -16.2665 N   0  0  0  0  0  0  0  0  0  0  0  0
   21.3586   -4.3352  -14.2844 C   0  0  0  0  0  0  0  0  0  0  0  0
   20.1665   -4.2192  -14.6855 O   0  0  0  0  0  0  0  0  0  0  0  0
   21.6736   -3.9224  -13.0146 O   0  0  0  0  0  0  0  0  0  0  0  0
  2  1  1  1
  3  2  1  0
  4  3  1  0
  5  4  2  0
  6  7  1  0
  6  5  1  0
  7  8  2  0
  8  4  1  0
  9  2  1  0
  9 10  2  0
 11  9  1  0
 12 11  1  0
 13 12  1  0
 14 13  2  0
 16 15  1  6
 16 17  1  0
 16 18  1  0
 17 13  1  0
 18 20  1  0
 19 18  2  0
M  END
$$$$
