HGA.pdb
     RDKit          3D

 20 20  0  0  1  0  0  0  0  0999 V2000
   19.9762  -10.6456  -18.8496 N   0  0  0  0  0  0  0  0  0  0  0  0
   21.2266  -10.9234  -18.1064 C   0  0  1  0  0  0  0  0  0  0  0  0
   22.0722  -11.8183  -18.9509 C   0  0  0  0  0  0  0  0  0  0  0  0
   21.5505  -13.1898  -19.0096 C   0  0  0  0  0  0  0  0  0  0  0  0
   20.6360  -13.7432  -18.1355 C   0  0  0  0  0  0  0  0  0  0  0  0
   20.3801  -15.0272  -18.4872 N   0  0  0  0  0  0  0  0  0  0  0  0
   21.1342  -15.2756  -19.5801 C   0  0  0  0  0  0  0  0  0  0  0  0
   21.8389  -14.1758  -19.8982 N   0  0  0  0  0  0  0  0  0  0  0  0
   21.8103   -9.6405  -17.7378 C   0  0  0  0  0  0  0  0  0  0  0  0
   22.8517   -9.6006  -17.0393 O   0  0  0  0  0  0  0  0  0  0  0  0
   21.2628   -8.3917  -18.1310 N   0  0  0  0  0  0  0  0  0  0  0  0
   21.8695   -7.1486  -17.6434 C   0  0  0  0  0  0  0  0  0  0  0  0
   21.3325   -6.7764  -16.3260 C   0  0  0  0  0  0  0  0  0  0  0  0
   20.3639   -7.3547  -15.7675 O   0  0  0  0  0  0  0  0  0  0  0  0
   22.3721   -4.2288  -13.7593 C   0  0  0  0  0  0  0  0  0  0  0  0
   21.4341   -5.2582  -14.3728 C   0  0  2  0  0  0  0  0  0  0  0  0
   21.9673   -5.6830  -15.6530 N   0  0  0  0  0  0  0  0  0  0  0  0
   20.1358   -4.5720  -14.5846 C   0  0  0  0  0  0  0  0  0  0  0  0
   19.3889   -4.2648  -13.6135 O   0  0  0  0  0  0  0  0  0  0  0  0
   19.7297   -4.2606  -15.8574 O   0  0  0  0  0  0  0  0  0  0  0  0
  2  1  1  6
  3  2  1  0
  4  3  1  0
  5  4  2  0
  6  7  1  0
  6  5  1  0
  7  8  2  0
  8  4  1  0
  9  2  1  0
  9 10  2  0
 11  9  1  0
 12 11  1  0
 13 12  1  0
 14 13  2  0
 16 15  1  6
 16 17  1  0
 16 18  1  0
 17 13  1  0
 18 20  1  0
 19 18  2  0
M  END
$$$$
