ISC.pdb
     RDKit          3D

 21 20  0  0  1  0  0  0  0  0999 V2000
    8.3053  -12.3375   27.3878 C   0  0  0  0  0  0  0  0  0  0  0  0
    7.6226  -13.5765   26.9119 C   0  0  0  0  0  0  0  0  0  0  0  0
    6.6055  -13.2992   25.8237 C   0  0  2  0  0  0  0  0  0  0  0  0
    5.4777  -12.4519   26.3422 C   0  0  0  0  0  0  0  0  0  0  0  0
    6.0917  -14.6484   25.3282 C   0  0  2  0  0  0  0  0  0  0  0  0
    5.8560  -15.4645   26.4808 N   0  0  0  0  0  0  0  0  0  0  0  0
    7.0715  -15.3072   24.4351 C   0  0  0  0  0  0  0  0  0  0  0  0
    7.7878  -16.2709   24.8105 O   0  0  0  0  0  0  0  0  0  0  0  0
    8.9900  -15.6746   19.9653 O   0  0  0  0  0  0  0  0  0  0  0  0
    8.0863  -15.0111   20.7928 C   0  0  0  0  0  0  0  0  0  0  0  0
    8.1224  -15.5778   22.2005 C   0  0  2  0  0  0  0  0  0  0  0  0
    7.2332  -14.8533   23.0874 N   0  0  0  0  0  0  0  0  0  0  0  0
    9.4961  -15.3998   22.6959 C   0  0  0  0  0  0  0  0  0  0  0  0
    9.8983  -14.2747   23.0311 O   0  0  0  0  0  0  0  0  0  0  0  0
   10.3594  -16.5041   22.7916 N   0  0  0  0  0  0  0  0  0  0  0  0
   11.7442  -16.2872   23.1196 C   0  0  1  0  0  0  0  0  0  0  0  0
   12.0180  -16.5251   24.5929 C   0  0  0  0  0  0  0  0  0  0  0  0
   11.4371  -18.1995   24.9799 S   0  0  0  0  0  0  0  0  0  0  0  0
   12.5766  -17.1414   22.2578 C   0  0  0  0  0  0  0  0  0  0  0  0
   12.1054  -18.0079   21.4755 O   0  0  0  0  0  0  0  0  0  0  0  0
   13.9508  -16.9974   22.2973 O   0  0  0  0  0  0  0  0  0  0  0  0
  2  3  1  0
  2  1  1  0
  3  5  1  0
  3  4  1  1
  5  6  1  1
  5  7  1  0
  7  8  2  0
 10  9  1  0
 11 10  1  6
 12  7  1  0
 12 11  1  0
 13 15  1  0
 13 11  1  0
 14 13  2  0
 16 19  1  0
 16 17  1  1
 16 15  1  0
 18 17  1  0
 19 21  1  0
 20 19  2  0
M  END
$$$$
