ISC.pdb
     RDKit          3D

 21 20  0  0  1  0  0  0  0  0999 V2000
    7.1503  -11.7034   19.1671 C   0  0  0  0  0  0  0  0  0  0  0  0
    7.7757  -12.7751   18.3376 C   0  0  0  0  0  0  0  0  0  0  0  0
    8.6717  -13.6898   19.1476 C   0  0  2  0  0  0  0  0  0  0  0  0
    9.8160  -12.9266   19.7533 C   0  0  0  0  0  0  0  0  0  0  0  0
    9.1791  -14.7785   18.2058 C   0  0  2  0  0  0  0  0  0  0  0  0
    8.0354  -15.3607   17.5712 N   0  0  0  0  0  0  0  0  0  0  0  0
    9.9351  -15.8199   18.9377 C   0  0  0  0  0  0  0  0  0  0  0  0
    9.3687  -16.7279   19.5990 O   0  0  0  0  0  0  0  0  0  0  0  0
   13.6550  -17.4194   17.9789 O   0  0  0  0  0  0  0  0  0  0  0  0
   13.5411  -16.8982   19.2661 C   0  0  0  0  0  0  0  0  0  0  0  0
   12.0860  -16.8098   19.6892 C   0  0  2  0  0  0  0  0  0  0  0  0
   11.3661  -15.8205   18.9111 N   0  0  0  0  0  0  0  0  0  0  0  0
   12.0770  -16.3721   21.0936 C   0  0  0  0  0  0  0  0  0  0  0  0
   11.4768  -15.3366   21.4214 O   0  0  0  0  0  0  0  0  0  0  0  0
   12.7489  -17.1255   22.0708 N   0  0  0  0  0  0  0  0  0  0  0  0
   12.4681  -16.8824   23.4617 C   0  0  1  0  0  0  0  0  0  0  0  0
   11.0023  -17.1014   23.7870 C   0  0  0  0  0  0  0  0  0  0  0  0
   10.8050  -16.8286   25.5696 S   0  0  0  0  0  0  0  0  0  0  0  0
   13.3486  -17.7309   24.2802 C   0  0  0  0  0  0  0  0  0  0  0  0
   13.5479  -18.9521   24.0484 O   0  0  0  0  0  0  0  0  0  0  0  0
   13.9991  -17.1728   25.3647 O   0  0  0  0  0  0  0  0  0  0  0  0
  2  3  1  0
  2  1  1  0
  3  5  1  0
  3  4  1  6
  5  6  1  1
  5  7  1  0
  7  8  2  0
 10  9  1  0
 11 10  1  6
 12  7  1  0
 12 11  1  0
 13 15  1  0
 13 11  1  0
 14 13  2  0
 16 19  1  0
 16 17  1  6
 16 15  1  0
 18 17  1  0
 19 21  1  0
 20 19  2  0
M  END
$$$$
