ISC.pdb
     RDKit          3D

 21 20  0  0  1  0  0  0  0  0999 V2000
    5.7948  -11.1776   26.4981 C   0  0  0  0  0  0  0  0  0  0  0  0
    5.5916  -12.4727   25.7846 C   0  0  0  0  0  0  0  0  0  0  0  0
    6.8732  -13.2694   25.6482 C   0  0  2  0  0  0  0  0  0  0  0  0
    7.8964  -12.5130   24.8484 C   0  0  0  0  0  0  0  0  0  0  0  0
    6.5169  -14.5895   24.9700 C   0  0  2  0  0  0  0  0  0  0  0  0
    5.4313  -15.1667   25.7037 N   0  0  0  0  0  0  0  0  0  0  0  0
    7.6681  -15.5202   24.9560 C   0  0  0  0  0  0  0  0  0  0  0  0
    7.9870  -16.2168   25.9539 O   0  0  0  0  0  0  0  0  0  0  0  0
   10.0145  -15.5603   21.6580 O   0  0  0  0  0  0  0  0  0  0  0  0
   10.1854  -16.7309   22.3943 C   0  0  0  0  0  0  0  0  0  0  0  0
    9.5692  -16.5983   23.7752 C   0  0  2  0  0  0  0  0  0  0  0  0
    8.4682  -15.6549   23.7770 N   0  0  0  0  0  0  0  0  0  0  0  0
   10.6181  -16.0682   24.6600 C   0  0  0  0  0  0  0  0  0  0  0  0
   11.2739  -15.0701   24.3232 O   0  0  0  0  0  0  0  0  0  0  0  0
   10.8820  -16.6905   25.8918 N   0  0  0  0  0  0  0  0  0  0  0  0
   11.9422  -16.1829   26.7228 C   0  0  1  0  0  0  0  0  0  0  0  0
   11.5564  -14.8775   27.3932 C   0  0  0  0  0  0  0  0  0  0  0  0
   10.0801  -15.2078   28.3943 S   0  0  0  0  0  0  0  0  0  0  0  0
   12.3168  -17.2167   27.7005 C   0  0  0  0  0  0  0  0  0  0  0  0
   11.7216  -18.3209   27.8062 O   0  0  0  0  0  0  0  0  0  0  0  0
   13.3763  -16.9785   28.5558 O   0  0  0  0  0  0  0  0  0  0  0  0
  2  3  1  0
  2  1  1  0
  3  5  1  0
  3  4  1  6
  5  6  1  1
  5  7  1  0
  7  8  2  0
 10  9  1  0
 11 10  1  6
 12  7  1  0
 12 11  1  0
 13 15  1  0
 13 11  1  0
 14 13  2  0
 16 19  1  0
 16 17  1  1
 16 15  1  0
 18 17  1  0
 19 21  1  0
 20 19  2  0
M  END
$$$$
