ISC.pdb
     RDKit          3D

 21 20  0  0  1  0  0  0  0  0999 V2000
    7.5809  -11.9931   19.6482 C   0  0  0  0  0  0  0  0  0  0  0  0
    7.5823  -13.4808   19.7687 C   0  0  0  0  0  0  0  0  0  0  0  0
    7.7609  -13.9487   21.1987 C   0  0  2  0  0  0  0  0  0  0  0  0
    9.0689  -13.4705   21.7637 C   0  0  0  0  0  0  0  0  0  0  0  0
    7.6953  -15.4736   21.1887 C   0  0  2  0  0  0  0  0  0  0  0  0
    6.4399  -15.8428   20.6077 N   0  0  0  0  0  0  0  0  0  0  0  0
    7.8017  -16.0301   22.5565 C   0  0  0  0  0  0  0  0  0  0  0  0
    6.8425  -16.0128   23.3703 O   0  0  0  0  0  0  0  0  0  0  0  0
   10.9967  -18.4504   23.7133 O   0  0  0  0  0  0  0  0  0  0  0  0
    9.8079  -18.4437   24.4401 C   0  0  0  0  0  0  0  0  0  0  0  0
    9.1350  -17.0849   24.3676 C   0  0  2  0  0  0  0  0  0  0  0  0
    9.0296  -16.6170   22.9993 N   0  0  0  0  0  0  0  0  0  0  0  0
    9.9963  -16.1440   25.1004 C   0  0  0  0  0  0  0  0  0  0  0  0
   10.9848  -15.6396   24.5450 O   0  0  0  0  0  0  0  0  0  0  0  0
    9.7030  -15.8121   26.4338 N   0  0  0  0  0  0  0  0  0  0  0  0
   10.6523  -15.0387   27.1906 C   0  0  1  0  0  0  0  0  0  0  0  0
   10.2114  -13.5944   27.3390 C   0  0  0  0  0  0  0  0  0  0  0  0
    8.4965  -13.6182   27.9298 S   0  0  0  0  0  0  0  0  0  0  0  0
   10.8643  -15.6884   28.4937 C   0  0  0  0  0  0  0  0  0  0  0  0
   10.2263  -16.7045   28.8751 O   0  0  0  0  0  0  0  0  0  0  0  0
   11.8104  -15.1680   29.3567 O   0  0  0  0  0  0  0  0  0  0  0  0
  2  3  1  0
  2  1  1  0
  3  5  1  0
  3  4  1  6
  5  6  1  1
  5  7  1  0
  7  8  2  0
 10  9  1  0
 11 10  1  6
 12  7  1  0
 12 11  1  0
 13 15  1  0
 13 11  1  0
 14 13  2  0
 16 19  1  0
 16 17  1  1
 16 15  1  0
 18 17  1  0
 19 21  1  0
 20 19  2  0
M  END
$$$$
