ISC.pdb
     RDKit          3D

 21 20  0  0  1  0  0  0  0  0999 V2000
    8.5265  -11.7300   19.7186 C   0  0  0  0  0  0  0  0  0  0  0  0
    9.2488  -13.0258   19.5537 C   0  0  0  0  0  0  0  0  0  0  0  0
    8.5586  -13.9567   18.5776 C   0  0  2  0  0  0  0  0  0  0  0  0
    7.1302  -14.1968   18.9788 C   0  0  0  0  0  0  0  0  0  0  0  0
    9.3480  -15.2629   18.5609 C   0  0  2  0  0  0  0  0  0  0  0  0
    8.9115  -16.0105   17.4204 N   0  0  0  0  0  0  0  0  0  0  0  0
    9.1233  -16.0484   19.7955 C   0  0  0  0  0  0  0  0  0  0  0  0
    8.0406  -16.6445   20.0304 O   0  0  0  0  0  0  0  0  0  0  0  0
   12.3214  -17.5484   21.8551 O   0  0  0  0  0  0  0  0  0  0  0  0
   11.0523  -18.1166   21.9454 C   0  0  0  0  0  0  0  0  0  0  0  0
    9.9750  -17.0480   21.9041 C   0  0  2  0  0  0  0  0  0  0  0  0
   10.1583  -16.1526   20.7785 N   0  0  0  0  0  0  0  0  0  0  0  0
   10.1132  -16.2566   23.1365 C   0  0  0  0  0  0  0  0  0  0  0  0
   10.9850  -15.3775   23.2198 O   0  0  0  0  0  0  0  0  0  0  0  0
    9.2577  -16.4933   24.2256 N   0  0  0  0  0  0  0  0  0  0  0  0
    9.5074  -15.8218   25.4742 C   0  0  1  0  0  0  0  0  0  0  0  0
    8.2206  -15.3608   26.1330 C   0  0  0  0  0  0  0  0  0  0  0  0
    7.3832  -14.2622   24.9571 S   0  0  0  0  0  0  0  0  0  0  0  0
   10.2861  -16.7146   26.3471 C   0  0  0  0  0  0  0  0  0  0  0  0
   10.5348  -17.9164   26.0668 O   0  0  0  0  0  0  0  0  0  0  0  0
   10.7777  -16.2231   27.5419 O   0  0  0  0  0  0  0  0  0  0  0  0
  2  3  1  0
  2  1  1  0
  3  5  1  0
  3  4  1  1
  5  6  1  6
  5  7  1  0
  7  8  2  0
 10  9  1  0
 11 10  1  1
 12  7  1  0
 12 11  1  0
 13 15  1  0
 13 11  1  0
 14 13  2  0
 16 19  1  0
 16 17  1  1
 16 15  1  0
 18 17  1  0
 19 21  1  0
 20 19  2  0
M  END
$$$$
