ISC.pdb
     RDKit          3D

 21 20  0  0  1  0  0  0  0  0999 V2000
    6.3750  -11.5329   27.3446 C   0  0  0  0  0  0  0  0  0  0  0  0
    5.8885  -12.7199   26.5815 C   0  0  0  0  0  0  0  0  0  0  0  0
    6.9947  -13.4075   25.8075 C   0  0  2  0  0  0  0  0  0  0  0  0
    7.5866  -12.4861   24.7782 C   0  0  0  0  0  0  0  0  0  0  0  0
    6.3872  -14.6434   25.1491 C   0  0  2  0  0  0  0  0  0  0  0  0
    5.7880  -15.4281   26.1860 N   0  0  0  0  0  0  0  0  0  0  0  0
    7.4141  -15.4413   24.4416 C   0  0  0  0  0  0  0  0  0  0  0  0
    8.1777  -16.2431   25.0389 O   0  0  0  0  0  0  0  0  0  0  0  0
    8.4734  -14.6256   20.5290 O   0  0  0  0  0  0  0  0  0  0  0  0
    8.4456  -15.9853   20.8325 C   0  0  0  0  0  0  0  0  0  0  0  0
    8.4821  -16.2072   22.3337 C   0  0  2  0  0  0  0  0  0  0  0  0
    7.5686  -15.3178   23.0242 N   0  0  0  0  0  0  0  0  0  0  0  0
    9.8468  -15.8851   22.7784 C   0  0  0  0  0  0  0  0  0  0  0  0
   10.1307  -14.7321   23.1386 O   0  0  0  0  0  0  0  0  0  0  0  0
   10.8358  -16.8830   22.7972 N   0  0  0  0  0  0  0  0  0  0  0  0
   12.1264  -16.5827   23.3597 C   0  0  1  0  0  0  0  0  0  0  0  0
   12.0282  -16.2090   24.8270 C   0  0  0  0  0  0  0  0  0  0  0  0
   11.2503  -17.6067   25.6826 S   0  0  0  0  0  0  0  0  0  0  0  0
   13.0198  -17.7313   23.1406 C   0  0  0  0  0  0  0  0  0  0  0  0
   12.6566  -18.7955   22.5746 O   0  0  0  0  0  0  0  0  0  0  0  0
   14.3303  -17.6538   23.5733 O   0  0  0  0  0  0  0  0  0  0  0  0
  2  3  1  0
  2  1  1  0
  3  5  1  0
  3  4  1  6
  5  6  1  1
  5  7  1  0
  7  8  2  0
 10  9  1  0
 11 10  1  6
 12  7  1  0
 12 11  1  0
 13 15  1  0
 13 11  1  0
 14 13  2  0
 16 19  1  0
 16 17  1  1
 16 15  1  0
 18 17  1  0
 19 21  1  0
 20 19  2  0
M  END
$$$$
