ISC.pdb
     RDKit          3D

 21 20  0  0  1  0  0  0  0  0999 V2000
    7.7261  -11.5861   18.8606 C   0  0  0  0  0  0  0  0  0  0  0  0
    8.0015  -12.9776   18.3962 C   0  0  0  0  0  0  0  0  0  0  0  0
    8.5689  -13.8556   19.4930 C   0  0  2  0  0  0  0  0  0  0  0  0
    9.8682  -13.3035   20.0085 C   0  0  0  0  0  0  0  0  0  0  0  0
    8.7637  -15.2497   18.9029 C   0  0  2  0  0  0  0  0  0  0  0  0
    7.5088  -15.6568   18.3468 N   0  0  0  0  0  0  0  0  0  0  0  0
    9.1972  -16.2195   19.9342 C   0  0  0  0  0  0  0  0  0  0  0  0
    8.4152  -16.6692   20.8111 O   0  0  0  0  0  0  0  0  0  0  0  0
   13.1377  -17.5818   19.9836 O   0  0  0  0  0  0  0  0  0  0  0  0
   12.1582  -18.4851   20.3913 C   0  0  0  0  0  0  0  0  0  0  0  0
   10.9120  -17.7580   20.8632 C   0  0  2  0  0  0  0  0  0  0  0  0
   10.5513  -16.6821   19.9606 N   0  0  0  0  0  0  0  0  0  0  0  0
   11.2358  -17.1617   22.1684 C   0  0  0  0  0  0  0  0  0  0  0  0
   11.9557  -16.1531   22.2330 O   0  0  0  0  0  0  0  0  0  0  0  0
   10.7307  -17.7325   23.3487 N   0  0  0  0  0  0  0  0  0  0  0  0
   11.0704  -17.1413   24.6165 C   0  0  1  0  0  0  0  0  0  0  0  0
    9.8456  -16.9353   25.4882 C   0  0  0  0  0  0  0  0  0  0  0  0
    8.7005  -15.8795   24.5582 S   0  0  0  0  0  0  0  0  0  0  0  0
   12.0836  -17.9799   25.2763 C   0  0  0  0  0  0  0  0  0  0  0  0
   12.6035  -17.6963   26.3872 O   0  0  0  0  0  0  0  0  0  0  0  0
   12.4974  -19.1443   24.6568 O   0  0  0  0  0  0  0  0  0  0  0  0
  2  3  1  0
  2  1  1  0
  3  5  1  0
  3  4  1  6
  5  6  1  1
  5  7  1  0
  7  8  2  0
 10  9  1  0
 11 10  1  6
 12  7  1  0
 12 11  1  0
 13 15  1  0
 13 11  1  0
 14 13  2  0
 16 19  1  0
 16 17  1  1
 16 15  1  0
 18 17  1  0
 19 21  1  0
 20 19  2  0
M  END
$$$$
