ISC.pdb
     RDKit          3D

 21 20  0  0  1  0  0  0  0  0999 V2000
    7.4795  -12.1057   19.5139 C   0  0  0  0  0  0  0  0  0  0  0  0
    7.8925  -13.5387   19.4516 C   0  0  0  0  0  0  0  0  0  0  0  0
    8.0953  -14.1461   20.8248 C   0  0  2  0  0  0  0  0  0  0  0  0
    9.1332  -13.3871   21.6029 C   0  0  0  0  0  0  0  0  0  0  0  0
    8.5196  -15.5980   20.6206 C   0  0  2  0  0  0  0  0  0  0  0  0
    7.4931  -16.2388   19.8553 N   0  0  0  0  0  0  0  0  0  0  0  0
    8.6974  -16.2981   21.9129 C   0  0  0  0  0  0  0  0  0  0  0  0
    7.7271  -16.7285   22.5881 O   0  0  0  0  0  0  0  0  0  0  0  0
   12.5157  -17.4474   23.3477 O   0  0  0  0  0  0  0  0  0  0  0  0
   11.3520  -18.1205   23.7142 C   0  0  0  0  0  0  0  0  0  0  0  0
   10.1595  -17.1812   23.7165 C   0  0  2  0  0  0  0  0  0  0  0  0
   10.0110  -16.5087   22.4406 N   0  0  0  0  0  0  0  0  0  0  0  0
   10.4270  -16.1564   24.7374 C   0  0  0  0  0  0  0  0  0  0  0  0
   10.6168  -14.9764   24.4034 O   0  0  0  0  0  0  0  0  0  0  0  0
   10.4689  -16.5098   26.0966 N   0  0  0  0  0  0  0  0  0  0  0  0
   10.5630  -15.4722   27.0900 C   0  0  1  0  0  0  0  0  0  0  0  0
    9.4037  -14.4975   26.9978 C   0  0  0  0  0  0  0  0  0  0  0  0
    9.5989  -13.3069   28.3525 S   0  0  0  0  0  0  0  0  0  0  0  0
   10.6576  -16.0941   28.4202 C   0  0  0  0  0  0  0  0  0  0  0  0
   10.2109  -17.2412   28.6839 O   0  0  0  0  0  0  0  0  0  0  0  0
   11.2664  -15.3952   29.4456 O   0  0  0  0  0  0  0  0  0  0  0  0
  2  3  1  0
  2  1  1  0
  3  5  1  0
  3  4  1  6
  5  6  1  6
  5  7  1  0
  7  8  2  0
 10  9  1  0
 11 10  1  6
 12  7  1  0
 12 11  1  0
 13 15  1  0
 13 11  1  0
 14 13  2  0
 16 19  1  0
 16 17  1  1
 16 15  1  0
 18 17  1  0
 19 21  1  0
 20 19  2  0
M  END
$$$$
