ISC.pdb
     RDKit          3D

 21 20  0  0  1  0  0  0  0  0999 V2000
    7.0260  -12.3442   19.8334 C   0  0  0  0  0  0  0  0  0  0  0  0
    7.3394  -13.7159   19.3354 C   0  0  0  0  0  0  0  0  0  0  0  0
    8.6937  -13.7948   18.6607 C   0  0  2  0  0  0  0  0  0  0  0  0
    8.7531  -12.8902   17.4620 C   0  0  0  0  0  0  0  0  0  0  0  0
    8.9158  -15.2502   18.2579 C   0  0  2  0  0  0  0  0  0  0  0  0
    7.9485  -15.5666   17.2508 N   0  0  0  0  0  0  0  0  0  0  0  0
    8.7589  -16.1628   19.4130 C   0  0  0  0  0  0  0  0  0  0  0  0
    7.6935  -16.7933   19.6371 O   0  0  0  0  0  0  0  0  0  0  0  0
   11.8908  -18.1587   21.3548 O   0  0  0  0  0  0  0  0  0  0  0  0
   10.5394  -18.4948   21.3070 C   0  0  0  0  0  0  0  0  0  0  0  0
    9.6677  -17.2600   21.4479 C   0  0  2  0  0  0  0  0  0  0  0  0
    9.8425  -16.3562   20.3277 N   0  0  0  0  0  0  0  0  0  0  0  0
   10.1125  -16.5617   22.6638 C   0  0  0  0  0  0  0  0  0  0  0  0
   10.6397  -15.4412   22.5833 O   0  0  0  0  0  0  0  0  0  0  0  0
    9.9421  -17.1612   23.9230 N   0  0  0  0  0  0  0  0  0  0  0  0
   10.2441  -16.4032   25.1090 C   0  0  1  0  0  0  0  0  0  0  0  0
    9.3428  -15.1904   25.2470 C   0  0  0  0  0  0  0  0  0  0  0  0
    7.6409  -15.8033   25.3829 S   0  0  0  0  0  0  0  0  0  0  0  0
   10.1562  -17.2930   26.2776 C   0  0  0  0  0  0  0  0  0  0  0  0
    9.6424  -18.4416   26.2389 O   0  0  0  0  0  0  0  0  0  0  0  0
   10.6596  -16.8597   27.4899 O   0  0  0  0  0  0  0  0  0  0  0  0
  2  3  1  0
  2  1  1  0
  3  5  1  0
  3  4  1  6
  5  6  1  6
  5  7  1  0
  7  8  2  0
 10  9  1  0
 11 10  1  6
 12  7  1  0
 12 11  1  0
 13 15  1  0
 13 11  1  0
 14 13  2  0
 16 19  1  0
 16 17  1  1
 16 15  1  0
 18 17  1  0
 19 21  1  0
 20 19  2  0
M  END
$$$$
