TNS.pdb
     RDKit          3D

 22 21  0  0  1  0  0  0  0  0999 V2000
   21.1343  -12.5906  -17.1568 C   0  0  0  0  0  0  0  0  0  0  0  0
   20.3214  -13.6953  -17.7869 C   0  0  1  0  0  0  0  0  0  0  0  0
   21.1270  -14.8112  -18.0029 O   0  0  0  0  0  0  0  0  0  0  0  0
   19.1012  -14.0396  -16.9670 C   0  0  2  0  0  0  0  0  0  0  0  0
   18.4893  -15.2198  -17.4807 N   0  0  0  0  0  0  0  0  0  0  0  0
   18.1302  -12.8957  -16.9419 C   0  0  0  0  0  0  0  0  0  0  0  0
   17.5640  -12.5258  -17.9993 O   0  0  0  0  0  0  0  0  0  0  0  0
   15.0130   -9.3978  -15.1721 N   0  0  0  0  0  0  0  0  0  0  0  0
   15.0423  -10.4183  -14.1943 C   0  0  0  0  0  0  0  0  0  0  0  0
   14.1191  -10.4031  -13.3111 O   0  0  0  0  0  0  0  0  0  0  0  0
   16.1151  -11.4414  -14.2283 C   0  0  0  0  0  0  0  0  0  0  0  0
   16.9808  -11.1694  -15.4546 C   0  0  2  0  0  0  0  0  0  0  0  0
   17.8950  -12.2804  -15.7149 N   0  0  0  0  0  0  0  0  0  0  0  0
   17.7368   -9.9252  -15.3312 C   0  0  0  0  0  0  0  0  0  0  0  0
   18.7179   -9.8667  -14.5142 O   0  0  0  0  0  0  0  0  0  0  0  0
   19.5308   -5.8942  -17.0182 O   0  0  0  0  0  0  0  0  0  0  0  0
   18.7602   -7.0235  -17.2234 C   0  0  0  0  0  0  0  0  0  0  0  0
   18.2753   -7.5619  -15.8888 C   0  0  2  0  0  0  0  0  0  0  0  0
   17.4648   -8.7448  -16.0628 N   0  0  0  0  0  0  0  0  0  0  0  0
   17.5232   -6.5012  -15.1717 C   0  0  0  0  0  0  0  0  0  0  0  0
   18.2247   -5.5665  -14.4245 O   0  0  0  0  0  0  0  0  0  0  0  0
   16.2704   -6.4076  -15.2091 O   0  0  0  0  0  0  0  0  0  0  0  0
  2  4  1  0
  2  1  1  1
  3  2  1  0
  4  6  1  0
  4  5  1  6
  6 13  1  0
  6  7  2  0
  9  8  1  0
  9 11  1  0
 10  9  2  0
 12 11  1  1
 12 14  1  0
 13 12  1  0
 14 19  1  0
 14 15  2  0
 16 17  1  0
 18 17  1  6
 18 20  1  0
 19 18  1  0
 20 21  1  0
 22 20  2  0
M  END
$$$$
