TNS.pdb
     RDKit          3D

 22 21  0  0  1  0  0  0  0  0999 V2000
   18.0138   -8.8382  -16.8167 C   0  0  0  0  0  0  0  0  0  0  0  0
   18.2880  -10.2348  -16.3143 C   0  0  1  0  0  0  0  0  0  0  0  0
   17.2203  -11.0707  -16.6340 O   0  0  0  0  0  0  0  0  0  0  0  0
   19.5964  -10.7783  -16.8361 C   0  0  2  0  0  0  0  0  0  0  0  0
   19.7441  -12.1417  -16.4480 N   0  0  0  0  0  0  0  0  0  0  0  0
   20.7523   -9.9518  -16.3535 C   0  0  0  0  0  0  0  0  0  0  0  0
   21.0195   -9.8956  -15.1284 O   0  0  0  0  0  0  0  0  0  0  0  0
   24.3283  -10.3848  -17.4724 N   0  0  0  0  0  0  0  0  0  0  0  0
   24.3380   -9.3835  -18.4702 C   0  0  0  0  0  0  0  0  0  0  0  0
   25.1153   -9.5652  -19.4679 O   0  0  0  0  0  0  0  0  0  0  0  0
   23.4691   -8.1906  -18.3261 C   0  0  0  0  0  0  0  0  0  0  0  0
   22.6282   -8.3751  -17.0667 C   0  0  2  0  0  0  0  0  0  0  0  0
   21.4958   -9.2670  -17.3116 N   0  0  0  0  0  0  0  0  0  0  0  0
   22.1491   -7.1027  -16.5319 C   0  0  0  0  0  0  0  0  0  0  0  0
   21.2802   -6.4343  -17.1891 O   0  0  0  0  0  0  0  0  0  0  0  0
   21.6447   -3.9620  -12.8978 O   0  0  0  0  0  0  0  0  0  0  0  0
   22.2645   -5.1157  -13.3402 C   0  0  0  0  0  0  0  0  0  0  0  0
   22.0047   -5.2992  -14.8251 C   0  0  2  0  0  0  0  0  0  0  0  0
   22.5799   -6.5321  -15.3107 N   0  0  0  0  0  0  0  0  0  0  0  0
   22.5415   -4.1315  -15.5689 C   0  0  0  0  0  0  0  0  0  0  0  0
   21.7134   -3.0433  -15.8021 O   0  0  0  0  0  0  0  0  0  0  0  0
   23.7205   -4.0799  -16.0014 O   0  0  0  0  0  0  0  0  0  0  0  0
  2  4  1  0
  2  1  1  6
  3  2  1  0
  4  6  1  0
  4  5  1  1
  6 13  1  0
  6  7  2  0
  9  8  1  0
  9 11  1  0
 10  9  2  0
 12 11  1  6
 12 14  1  0
 13 12  1  0
 14 19  1  0
 14 15  2  0
 16 17  1  0
 18 17  1  1
 18 20  1  0
 19 18  1  0
 20 21  1  0
 22 20  2  0
M  END
$$$$
