TNS.pdb
     RDKit          3D

 22 21  0  0  1  0  0  0  0  0999 V2000
   15.8187  -14.0979  -16.0022 C   0  0  0  0  0  0  0  0  0  0  0  0
   15.2840  -12.7529  -15.5741 C   0  0  1  0  0  0  0  0  0  0  0  0
   13.9085  -12.7005  -15.7893 O   0  0  0  0  0  0  0  0  0  0  0  0
   15.6361  -12.4328  -14.1413 C   0  0  2  0  0  0  0  0  0  0  0  0
   14.8285  -13.2077  -13.2589 N   0  0  0  0  0  0  0  0  0  0  0  0
   15.4823  -10.9658  -13.8649 C   0  0  0  0  0  0  0  0  0  0  0  0
   14.3605  -10.4157  -13.9847 O   0  0  0  0  0  0  0  0  0  0  0  0
   16.3492   -9.5505   -9.9883 N   0  0  0  0  0  0  0  0  0  0  0  0
   16.2619   -8.5522  -10.9854 C   0  0  0  0  0  0  0  0  0  0  0  0
   15.2339   -7.7939  -10.9596 O   0  0  0  0  0  0  0  0  0  0  0  0
   17.3378   -8.4252  -11.9978 C   0  0  0  0  0  0  0  0  0  0  0  0
   16.7520   -8.8121  -13.3523 C   0  0  2  0  0  0  0  0  0  0  0  0
   16.6206  -10.2628  -13.4780 N   0  0  0  0  0  0  0  0  0  0  0  0
   17.5417   -8.2888  -14.4646 C   0  0  0  0  0  0  0  0  0  0  0  0
   18.6811   -8.8072  -14.7225 O   0  0  0  0  0  0  0  0  0  0  0  0
   16.0596   -6.9171  -17.8590 O   0  0  0  0  0  0  0  0  0  0  0  0
   17.1183   -6.1112  -17.4841 C   0  0  0  0  0  0  0  0  0  0  0  0
   17.9501   -6.8170  -16.4277 C   0  0  2  0  0  0  0  0  0  0  0  0
   17.1377   -7.2241  -15.3048 N   0  0  0  0  0  0  0  0  0  0  0  0
   19.0544   -5.9256  -15.9910 C   0  0  0  0  0  0  0  0  0  0  0  0
   19.9657   -5.4716  -16.9332 O   0  0  0  0  0  0  0  0  0  0  0  0
   19.2054   -5.5584  -14.7984 O   0  0  0  0  0  0  0  0  0  0  0  0
  2  4  1  0
  2  1  1  1
  3  2  1  0
  4  6  1  0
  4  5  1  1
  6 13  1  0
  6  7  2  0
  9  8  1  0
  9 11  1  0
 10  9  2  0
 12 11  1  1
 12 14  1  0
 13 12  1  0
 14 19  1  0
 14 15  2  0
 16 17  1  0
 18 17  1  6
 18 20  1  0
 19 18  1  0
 20 21  1  0
 22 20  2  0
M  END
$$$$
