TNS.pdb
     RDKit          3D

 22 21  0  0  1  0  0  0  0  0999 V2000
   18.7643   -8.3200  -18.4752 C   0  0  0  0  0  0  0  0  0  0  0  0
   17.9629   -9.2020  -17.5489 C   0  0  1  0  0  0  0  0  0  0  0  0
   17.5785  -10.3630  -18.2163 O   0  0  0  0  0  0  0  0  0  0  0  0
   18.7107   -9.5137  -16.2749 C   0  0  2  0  0  0  0  0  0  0  0  0
   17.9879  -10.4761  -15.5117 N   0  0  0  0  0  0  0  0  0  0  0  0
   18.9561   -8.2666  -15.4770 C   0  0  0  0  0  0  0  0  0  0  0  0
   17.9960   -7.6626  -14.9395 O   0  0  0  0  0  0  0  0  0  0  0  0
   22.2546   -5.0745  -12.4676 N   0  0  0  0  0  0  0  0  0  0  0  0
   22.5690   -5.3060  -13.8262 C   0  0  0  0  0  0  0  0  0  0  0  0
   23.1610   -4.3637  -14.4540 O   0  0  0  0  0  0  0  0  0  0  0  0
   22.2095   -6.5993  -14.4562 C   0  0  0  0  0  0  0  0  0  0  0  0
   20.7232   -6.5552  -14.7971 C   0  0  2  0  0  0  0  0  0  0  0  0
   20.2720   -7.8244  -15.3659 N   0  0  0  0  0  0  0  0  0  0  0  0
   20.3986   -5.4611  -15.7093 C   0  0  0  0  0  0  0  0  0  0  0  0
   20.3951   -5.6761  -16.9692 O   0  0  0  0  0  0  0  0  0  0  0  0
   17.5031   -2.5544  -17.3368 O   0  0  0  0  0  0  0  0  0  0  0  0
   18.0394   -3.5145  -16.4992 C   0  0  0  0  0  0  0  0  0  0  0  0
   19.5008   -3.2009  -16.2305 C   0  0  2  0  0  0  0  0  0  0  0  0
   20.0784   -4.1443  -15.3016 N   0  0  0  0  0  0  0  0  0  0  0  0
   19.6227   -1.8107  -15.7230 C   0  0  0  0  0  0  0  0  0  0  0  0
   19.6783   -1.5964  -14.3536 O   0  0  0  0  0  0  0  0  0  0  0  0
   19.6790   -0.8092  -16.4804 O   0  0  0  0  0  0  0  0  0  0  0  0
  2  4  1  0
  2  1  1  6
  3  2  1  0
  4  6  1  0
  4  5  1  1
  6 13  1  0
  6  7  2  0
  9  8  1  0
  9 11  1  0
 10  9  2  0
 12 11  1  6
 12 14  1  0
 13 12  1  0
 14 19  1  0
 14 15  2  0
 16 17  1  0
 18 17  1  1
 18 20  1  0
 19 18  1  0
 20 21  1  0
 22 20  2  0
M  END
$$$$
