TNS.pdb
     RDKit          3D

 22 21  0  0  1  0  0  0  0  0999 V2000
   19.2372  -11.0167  -14.0902 C   0  0  0  0  0  0  0  0  0  0  0  0
   17.9338  -11.1067  -14.8460 C   0  0  1  0  0  0  0  0  0  0  0  0
   17.7529  -12.4026  -15.3243 O   0  0  0  0  0  0  0  0  0  0  0  0
   16.7613  -10.6528  -14.0100 C   0  0  2  0  0  0  0  0  0  0  0  0
   15.5518  -10.8054  -14.7483 N   0  0  0  0  0  0  0  0  0  0  0  0
   16.9415   -9.2335  -13.5573 C   0  0  0  0  0  0  0  0  0  0  0  0
   16.8513   -8.2920  -14.3825 O   0  0  0  0  0  0  0  0  0  0  0  0
   18.0732   -5.4685  -10.2746 N   0  0  0  0  0  0  0  0  0  0  0  0
   17.3281   -6.4106   -9.5293 C   0  0  0  0  0  0  0  0  0  0  0  0
   16.9079   -6.0410   -8.3806 O   0  0  0  0  0  0  0  0  0  0  0  0
   17.0686   -7.7575  -10.0927 C   0  0  0  0  0  0  0  0  0  0  0  0
   17.4788   -7.7357  -11.5619 C   0  0  2  0  0  0  0  0  0  0  0  0
   17.2072   -9.0194  -12.2071 N   0  0  0  0  0  0  0  0  0  0  0  0
   18.8856   -7.3821  -11.7367 C   0  0  0  0  0  0  0  0  0  0  0  0
   19.7843   -8.2671  -11.5303 O   0  0  0  0  0  0  0  0  0  0  0  0
   21.9579   -6.6560  -14.6163 O   0  0  0  0  0  0  0  0  0  0  0  0
   20.7186   -6.8173  -14.0253 C   0  0  0  0  0  0  0  0  0  0  0  0
   20.6259   -5.9469  -12.7844 C   0  0  2  0  0  0  0  0  0  0  0  0
   19.3493   -6.1033  -12.1271 N   0  0  0  0  0  0  0  0  0  0  0  0
   20.8637   -4.5291  -13.1562 C   0  0  0  0  0  0  0  0  0  0  0  0
   22.1674   -4.0596  -13.2208 O   0  0  0  0  0  0  0  0  0  0  0  0
   19.9331   -3.7259  -13.4182 O   0  0  0  0  0  0  0  0  0  0  0  0
  2  4  1  0
  2  1  1  1
  3  2  1  0
  4  6  1  0
  4  5  1  6
  6 13  1  0
  6  7  2  0
  9  8  1  0
  9 11  1  0
 10  9  2  0
 12 11  1  1
 12 14  1  0
 13 12  1  0
 14 19  1  0
 14 15  2  0
 16 17  1  0
 18 17  1  6
 18 20  1  0
 19 18  1  0
 20 21  1  0
 22 20  2  0
M  END
$$$$
