TNS.pdb
     RDKit          3D

 22 21  0  0  1  0  0  0  0  0999 V2000
   18.6883  -10.5930  -13.2147 C   0  0  0  0  0  0  0  0  0  0  0  0
   19.4212  -10.2616  -14.4919 C   0  0  1  0  0  0  0  0  0  0  0  0
   19.9259  -11.4274  -15.0638 O   0  0  0  0  0  0  0  0  0  0  0  0
   18.5529   -9.4963  -15.4614 C   0  0  2  0  0  0  0  0  0  0  0  0
   19.2607   -9.2802  -16.6794 N   0  0  0  0  0  0  0  0  0  0  0  0
   18.0971   -8.1970  -14.8646 C   0  0  0  0  0  0  0  0  0  0  0  0
   18.8392   -7.1858  -14.9135 O   0  0  0  0  0  0  0  0  0  0  0  0
   15.3558   -5.9323  -16.7817 N   0  0  0  0  0  0  0  0  0  0  0  0
   15.6922   -5.6354  -15.4411 C   0  0  0  0  0  0  0  0  0  0  0  0
   16.5132   -4.6758  -15.2472 O   0  0  0  0  0  0  0  0  0  0  0  0
   15.0960   -6.4277  -14.3385 C   0  0  0  0  0  0  0  0  0  0  0  0
   16.2376   -7.0529  -13.5429 C   0  0  2  0  0  0  0  0  0  0  0  0
   16.8389   -8.1711  -14.2682 N   0  0  0  0  0  0  0  0  0  0  0  0
   15.8090   -7.4959  -12.2183 C   0  0  0  0  0  0  0  0  0  0  0  0
   15.1398   -8.5790  -12.1060 O   0  0  0  0  0  0  0  0  0  0  0  0
   17.4899   -6.4437   -8.5892 O   0  0  0  0  0  0  0  0  0  0  0  0
   16.1076   -6.4604   -8.5912 C   0  0  0  0  0  0  0  0  0  0  0  0
   15.6075   -7.3101   -9.7462 C   0  0  2  0  0  0  0  0  0  0  0  0
   16.0814   -6.8048  -11.0137 N   0  0  0  0  0  0  0  0  0  0  0  0
   14.1239   -7.3631   -9.7146 C   0  0  0  0  0  0  0  0  0  0  0  0
   13.4050   -6.6739  -10.6802 O   0  0  0  0  0  0  0  0  0  0  0  0
   13.4814   -8.0082   -8.8481 O   0  0  0  0  0  0  0  0  0  0  0  0
  2  4  1  0
  2  1  1  1
  3  2  1  0
  4  6  1  0
  4  5  1  6
  6 13  1  0
  6  7  2  0
  9  8  1  0
  9 11  1  0
 10  9  2  0
 12 11  1  6
 12 14  1  0
 13 12  1  0
 14 19  1  0
 14 15  2  0
 16 17  1  0
 18 17  1  1
 18 20  1  0
 19 18  1  0
 20 21  1  0
 22 20  2  0
M  END
$$$$
