TNS.pdb
     RDKit          3D

 22 21  0  0  1  0  0  0  0  0999 V2000
   17.1528  -20.1704  -16.8072 C   0  0  0  0  0  0  0  0  0  0  0  0
   18.0410  -21.0222  -15.9334 C   0  0  1  0  0  0  0  0  0  0  0  0
   17.7087  -22.3662  -16.0888 O   0  0  0  0  0  0  0  0  0  0  0  0
   19.5060  -20.7759  -16.2031 C   0  0  2  0  0  0  0  0  0  0  0  0
   20.2988  -21.6719  -15.4286 N   0  0  0  0  0  0  0  0  0  0  0  0
   19.8722  -19.3485  -15.9192 C   0  0  0  0  0  0  0  0  0  0  0  0
   19.8131  -18.9035  -14.7470 O   0  0  0  0  0  0  0  0  0  0  0  0
   23.1944  -14.9936  -17.7912 N   0  0  0  0  0  0  0  0  0  0  0  0
   21.8503  -15.3409  -18.0576 C   0  0  0  0  0  0  0  0  0  0  0  0
   21.0141  -14.3816  -18.1714 O   0  0  0  0  0  0  0  0  0  0  0  0
   21.4701  -16.7679  -18.1914 C   0  0  0  0  0  0  0  0  0  0  0  0
   20.6666  -17.1548  -16.9536 C   0  0  2  0  0  0  0  0  0  0  0  0
   20.2715  -18.5619  -16.9968 N   0  0  0  0  0  0  0  0  0  0  0  0
   19.4845  -16.3143  -16.7783 C   0  0  0  0  0  0  0  0  0  0  0  0
   18.4508  -16.5287  -17.4987 O   0  0  0  0  0  0  0  0  0  0  0  0
   17.6289  -15.1948  -13.4874 O   0  0  0  0  0  0  0  0  0  0  0  0
   17.9386  -14.0882  -14.2558 C   0  0  0  0  0  0  0  0  0  0  0  0
   18.1552  -14.5107  -15.6982 C   0  0  2  0  0  0  0  0  0  0  0  0
   19.3863  -15.2510  -15.8496 N   0  0  0  0  0  0  0  0  0  0  0  0
   18.1444  -13.3101  -16.5720 C   0  0  0  0  0  0  0  0  0  0  0  0
   19.3514  -12.7311  -16.9353 O   0  0  0  0  0  0  0  0  0  0  0  0
   17.0854  -12.7880  -17.0028 O   0  0  0  0  0  0  0  0  0  0  0  0
  2  4  1  0
  2  1  1  6
  3  2  1  0
  4  6  1  0
  4  5  1  1
  6 13  1  0
  6  7  2  0
  9  8  1  0
  9 11  1  0
 10  9  2  0
 12 11  1  6
 12 14  1  0
 13 12  1  0
 14 19  1  0
 14 15  2  0
 16 17  1  0
 18 17  1  1
 18 20  1  0
 19 18  1  0
 20 21  1  0
 22 20  2  0
M  END
$$$$
