TNS.pdb
     RDKit          3D

 22 21  0  0  1  0  0  0  0  0999 V2000
   17.1085   -7.6633  -17.7831 C   0  0  0  0  0  0  0  0  0  0  0  0
   16.3178   -8.1911  -16.6108 C   0  0  1  0  0  0  0  0  0  0  0  0
   15.4772   -9.2193  -17.0317 O   0  0  0  0  0  0  0  0  0  0  0  0
   17.2116   -8.6315  -15.4764 C   0  0  2  0  0  0  0  0  0  0  0  0
   16.4694   -9.4261  -14.5551 N   0  0  0  0  0  0  0  0  0  0  0  0
   17.8324   -7.4494  -14.7913 C   0  0  0  0  0  0  0  0  0  0  0  0
   17.1491   -6.7420  -14.0113 O   0  0  0  0  0  0  0  0  0  0  0  0
   21.4162   -3.9968  -13.6942 N   0  0  0  0  0  0  0  0  0  0  0  0
   22.1191   -5.2102  -13.8727 C   0  0  0  0  0  0  0  0  0  0  0  0
   23.3441   -5.2306  -13.5101 O   0  0  0  0  0  0  0  0  0  0  0  0
   21.4275   -6.3836  -14.4590 C   0  0  0  0  0  0  0  0  0  0  0  0
   19.9478   -6.0360  -14.5894 C   0  0  2  0  0  0  0  0  0  0  0  0
   19.1731   -7.1839  -15.0585 N   0  0  0  0  0  0  0  0  0  0  0  0
   19.7251   -4.8944  -15.4736 C   0  0  0  0  0  0  0  0  0  0  0  0
   20.1083   -4.9609  -16.6912 O   0  0  0  0  0  0  0  0  0  0  0  0
   16.5186   -2.9147  -16.2340 O   0  0  0  0  0  0  0  0  0  0  0  0
   17.4925   -2.0109  -15.8524 C   0  0  0  0  0  0  0  0  0  0  0  0
   18.8666   -2.6296  -16.0394 C   0  0  2  0  0  0  0  0  0  0  0  0
   19.1020   -3.6856  -15.0823 N   0  0  0  0  0  0  0  0  0  0  0  0
   19.9036   -1.5722  -15.9320 C   0  0  0  0  0  0  0  0  0  0  0  0
   20.7211   -1.3176  -17.0234 O   0  0  0  0  0  0  0  0  0  0  0  0
   20.0785   -0.8898  -14.8910 O   0  0  0  0  0  0  0  0  0  0  0  0
  2  4  1  0
  2  1  1  6
  3  2  1  0
  4  6  1  0
  4  5  1  1
  6 13  1  0
  6  7  2  0
  9  8  1  0
  9 11  1  0
 10  9  2  0
 12 11  1  6
 12 14  1  0
 13 12  1  0
 14 19  1  0
 14 15  2  0
 16 17  1  0
 18 17  1  1
 18 20  1  0
 19 18  1  0
 20 21  1  0
 22 20  2  0
M  END
$$$$
