TNS.pdb
     RDKit          3D

 22 21  0  0  1  0  0  0  0  0999 V2000
   26.9738   -9.8035  -15.4630 C   0  0  0  0  0  0  0  0  0  0  0  0
   25.6862   -9.1752  -15.9378 C   0  0  1  0  0  0  0  0  0  0  0  0
   25.8357   -8.7217  -17.2466 O   0  0  0  0  0  0  0  0  0  0  0  0
   24.5134  -10.1167  -15.8052 C   0  0  2  0  0  0  0  0  0  0  0  0
   24.7239  -11.2703  -16.6152 N   0  0  0  0  0  0  0  0  0  0  0  0
   23.2293   -9.4300  -16.1679 C   0  0  0  0  0  0  0  0  0  0  0  0
   22.7352   -9.5799  -17.3120 O   0  0  0  0  0  0  0  0  0  0  0  0
   19.2905   -9.5594  -14.9138 N   0  0  0  0  0  0  0  0  0  0  0  0
   19.6495   -8.7624  -13.8027 C   0  0  0  0  0  0  0  0  0  0  0  0
   19.0298   -8.9807  -12.7069 O   0  0  0  0  0  0  0  0  0  0  0  0
   20.7039   -7.7296  -13.9461 C   0  0  0  0  0  0  0  0  0  0  0  0
   21.3600   -7.9187  -15.3103 C   0  0  2  0  0  0  0  0  0  0  0  0
   22.6281   -8.6371  -15.1935 N   0  0  0  0  0  0  0  0  0  0  0  0
   21.5726   -6.6489  -16.0010 C   0  0  0  0  0  0  0  0  0  0  0  0
   22.4258   -5.8183  -15.5365 O   0  0  0  0  0  0  0  0  0  0  0  0
   20.9230   -3.6728  -19.7540 O   0  0  0  0  0  0  0  0  0  0  0  0
   20.5735   -4.8799  -19.1780 C   0  0  0  0  0  0  0  0  0  0  0  0
   21.1312   -4.9547  -17.7676 C   0  0  2  0  0  0  0  0  0  0  0  0
   20.8923   -6.2507  -17.1762 N   0  0  0  0  0  0  0  0  0  0  0  0
   20.5346   -3.8741  -16.9422 C   0  0  0  0  0  0  0  0  0  0  0  0
   21.2933   -2.7487  -16.6559 O   0  0  0  0  0  0  0  0  0  0  0  0
   19.3647   -3.9294  -16.4861 O   0  0  0  0  0  0  0  0  0  0  0  0
  2  4  1  0
  2  1  1  6
  3  2  1  0
  4  6  1  0
  4  5  1  6
  6 13  1  0
  6  7  2  0
  9  8  1  0
  9 11  1  0
 10  9  2  0
 12 11  1  1
 12 14  1  0
 13 12  1  0
 14 19  1  0
 14 15  2  0
 16 17  1  0
 18 17  1  6
 18 20  1  0
 19 18  1  0
 20 21  1  0
 22 20  2  0
M  END
$$$$
