TNS.pdb
     RDKit          3D

 22 21  0  0  1  0  0  0  0  0999 V2000
   15.8783  -11.6283  -12.4388 C   0  0  0  0  0  0  0  0  0  0  0  0
   14.6308  -11.9483  -11.6517 C   0  0  1  0  0  0  0  0  0  0  0  0
   14.4847  -13.3291  -11.5375 O   0  0  0  0  0  0  0  0  0  0  0  0
   14.6241  -11.2740  -10.3009 C   0  0  2  0  0  0  0  0  0  0  0  0
   13.4978  -11.7125   -9.5457 N   0  0  0  0  0  0  0  0  0  0  0  0
   14.6279   -9.7803  -10.4458 C   0  0  0  0  0  0  0  0  0  0  0  0
   13.5799   -9.1766  -10.7816 O   0  0  0  0  0  0  0  0  0  0  0  0
   14.8553   -5.4565   -8.2566 N   0  0  0  0  0  0  0  0  0  0  0  0
   15.4289   -6.7482   -8.2295 C   0  0  0  0  0  0  0  0  0  0  0  0
   14.8927   -7.6056   -7.4485 O   0  0  0  0  0  0  0  0  0  0  0  0
   16.6009   -7.0527   -9.0854 C   0  0  0  0  0  0  0  0  0  0  0  0
   16.0857   -7.6867  -10.3738 C   0  0  2  0  0  0  0  0  0  0  0  0
   15.8248   -9.1142  -10.1945 N   0  0  0  0  0  0  0  0  0  0  0  0
   17.0048   -7.4885  -11.4921 C   0  0  0  0  0  0  0  0  0  0  0  0
   18.1746   -8.0008  -11.4400 O   0  0  0  0  0  0  0  0  0  0  0  0
   16.1143   -7.7079  -15.2166 O   0  0  0  0  0  0  0  0  0  0  0  0
   16.9509   -6.6145  -15.0926 C   0  0  0  0  0  0  0  0  0  0  0  0
   17.6496   -6.6546  -13.7449 C   0  0  2  0  0  0  0  0  0  0  0  0
   16.6983   -6.7546  -12.6626 N   0  0  0  0  0  0  0  0  0  0  0  0
   18.5031   -5.4488  -13.5945 C   0  0  0  0  0  0  0  0  0  0  0  0
   19.7522   -5.4287  -14.1975 O   0  0  0  0  0  0  0  0  0  0  0  0
   18.1459   -4.4358  -12.9418 O   0  0  0  0  0  0  0  0  0  0  0  0
  2  4  1  0
  2  1  1  1
  3  2  1  0
  4  6  1  0
  4  5  1  6
  6 13  1  0
  6  7  2  0
  9  8  1  0
  9 11  1  0
 10  9  2  0
 12 11  1  1
 12 14  1  0
 13 12  1  0
 14 19  1  0
 14 15  2  0
 16 17  1  0
 18 17  1  6
 18 20  1  0
 19 18  1  0
 20 21  1  0
 22 20  2  0
M  END
$$$$
