TNS.pdb
     RDKit          3D

 22 21  0  0  1  0  0  0  0  0999 V2000
   15.2949  -10.2132  -16.6236 C   0  0  0  0  0  0  0  0  0  0  0  0
   15.8603  -11.4459  -15.9612 C   0  0  1  0  0  0  0  0  0  0  0  0
   15.3752  -12.5879  -16.5948 O   0  0  0  0  0  0  0  0  0  0  0  0
   17.3695  -11.4280  -15.9244 C   0  0  2  0  0  0  0  0  0  0  0  0
   17.8590  -12.6963  -15.4967 N   0  0  0  0  0  0  0  0  0  0  0  0
   17.8725  -10.3282  -15.0360 C   0  0  0  0  0  0  0  0  0  0  0  0
   17.6809  -10.3812  -13.7966 O   0  0  0  0  0  0  0  0  0  0  0  0
   21.7304   -8.6034  -13.2347 N   0  0  0  0  0  0  0  0  0  0  0  0
   21.3758   -8.8867  -14.5735 C   0  0  0  0  0  0  0  0  0  0  0  0
   21.7716  -10.0018  -15.0556 O   0  0  0  0  0  0  0  0  0  0  0  0
   20.5791   -7.9054  -15.3487 C   0  0  0  0  0  0  0  0  0  0  0  0
   19.1120   -8.0980  -14.9773 C   0  0  2  0  0  0  0  0  0  0  0  0
   18.5466   -9.2711  -15.6423 N   0  0  0  0  0  0  0  0  0  0  0  0
   18.3058   -6.9189  -15.2845 C   0  0  0  0  0  0  0  0  0  0  0  0
   18.1417   -6.5723  -16.5037 O   0  0  0  0  0  0  0  0  0  0  0  0
   15.3540   -3.3083  -13.9864 O   0  0  0  0  0  0  0  0  0  0  0  0
   16.0105   -4.4600  -13.5944 C   0  0  0  0  0  0  0  0  0  0  0  0
   16.9342   -4.9263  -14.7058 C   0  0  2  0  0  0  0  0  0  0  0  0
   17.6728   -6.1046  -14.3154 N   0  0  0  0  0  0  0  0  0  0  0  0
   17.8528   -3.8216  -15.0811 C   0  0  0  0  0  0  0  0  0  0  0  0
   19.1787   -3.8822  -14.6779 O   0  0  0  0  0  0  0  0  0  0  0  0
   17.4847   -2.8251  -15.7528 O   0  0  0  0  0  0  0  0  0  0  0  0
  2  4  1  0
  2  1  1  6
  3  2  1  0
  4  6  1  0
  4  5  1  1
  6 13  1  0
  6  7  2  0
  9  8  1  0
  9 11  1  0
 10  9  2  0
 12 11  1  6
 12 14  1  0
 13 12  1  0
 14 19  1  0
 14 15  2  0
 16 17  1  0
 18 17  1  1
 18 20  1  0
 19 18  1  0
 20 21  1  0
 22 20  2  0
M  END
$$$$
