TNS.pdb
     RDKit          3D

 22 21  0  0  1  0  0  0  0  0999 V2000
   15.0771  -11.0686  -16.3376 C   0  0  0  0  0  0  0  0  0  0  0  0
   15.8873  -10.1405  -15.4656 C   0  0  1  0  0  0  0  0  0  0  0  0
   15.6595  -10.4340  -14.1229 O   0  0  0  0  0  0  0  0  0  0  0  0
   17.3582  -10.1850  -15.8036 C   0  0  2  0  0  0  0  0  0  0  0  0
   17.8858  -11.4743  -15.5028 N   0  0  0  0  0  0  0  0  0  0  0  0
   18.1100   -9.1107  -15.0738 C   0  0  0  0  0  0  0  0  0  0  0  0
   18.1373   -9.1013  -13.8189 O   0  0  0  0  0  0  0  0  0  0  0  0
   21.1142   -8.5186  -13.6545 N   0  0  0  0  0  0  0  0  0  0  0  0
   21.7460   -8.1834  -14.8739 C   0  0  0  0  0  0  0  0  0  0  0  0
   22.8974   -8.6932  -15.0909 O   0  0  0  0  0  0  0  0  0  0  0  0
   21.0676   -7.2764  -15.8309 C   0  0  0  0  0  0  0  0  0  0  0  0
   19.6325   -7.0813  -15.3517 C   0  0  2  0  0  0  0  0  0  0  0  0
   18.7606   -8.1479  -15.8415 N   0  0  0  0  0  0  0  0  0  0  0  0
   19.0920   -5.7816  -15.7433 C   0  0  0  0  0  0  0  0  0  0  0  0
   18.8891   -5.5346  -16.9808 O   0  0  0  0  0  0  0  0  0  0  0  0
   16.9388   -1.5885  -14.7095 O   0  0  0  0  0  0  0  0  0  0  0  0
   17.5019   -2.7455  -14.2043 C   0  0  0  0  0  0  0  0  0  0  0  0
   18.2218   -3.4915  -15.3140 C   0  0  2  0  0  0  0  0  0  0  0  0
   18.7647   -4.7430  -14.8395 N   0  0  0  0  0  0  0  0  0  0  0  0
   19.2893   -2.6275  -15.8787 C   0  0  0  0  0  0  0  0  0  0  0  0
   19.0148   -1.8688  -17.0072 O   0  0  0  0  0  0  0  0  0  0  0  0
   20.4402   -2.5487  -15.3797 O   0  0  0  0  0  0  0  0  0  0  0  0
  2  4  1  0
  2  1  1  6
  3  2  1  0
  4  6  1  0
  4  5  1  1
  6 13  1  0
  6  7  2  0
  9  8  1  0
  9 11  1  0
 10  9  2  0
 12 11  1  6
 12 14  1  0
 13 12  1  0
 14 19  1  0
 14 15  2  0
 16 17  1  0
 18 17  1  1
 18 20  1  0
 19 18  1  0
 20 21  1  0
 22 20  2  0
M  END
$$$$
