TNS.pdb
     RDKit          3D

 22 21  0  0  1  0  0  0  0  0999 V2000
   16.1152   -5.7399  -17.3432 C   0  0  0  0  0  0  0  0  0  0  0  0
   15.3773   -7.0448  -17.1674 C   0  0  1  0  0  0  0  0  0  0  0  0
   14.4189   -7.1849  -18.1689 O   0  0  0  0  0  0  0  0  0  0  0  0
   16.3166   -8.2262  -17.1264 C   0  0  2  0  0  0  0  0  0  0  0  0
   15.5688   -9.4386  -17.0807 N   0  0  0  0  0  0  0  0  0  0  0  0
   17.2547   -8.1267  -15.9593 C   0  0  0  0  0  0  0  0  0  0  0  0
   16.8280   -8.2959  -14.7910 O   0  0  0  0  0  0  0  0  0  0  0  0
   21.5387   -7.2821  -13.4051 N   0  0  0  0  0  0  0  0  0  0  0  0
   21.6645   -8.4514  -14.1897 C   0  0  0  0  0  0  0  0  0  0  0  0
   22.6538   -9.2185  -13.9342 O   0  0  0  0  0  0  0  0  0  0  0  0
   20.6704   -8.7368  -15.2523 C   0  0  0  0  0  0  0  0  0  0  0  0
   19.6508   -7.6020  -15.2545 C   0  0  2  0  0  0  0  0  0  0  0  0
   18.5908   -7.8439  -16.2321 N   0  0  0  0  0  0  0  0  0  0  0  0
   20.2710   -6.3037  -15.5086 C   0  0  0  0  0  0  0  0  0  0  0  0
   20.8697   -6.1020  -16.6196 O   0  0  0  0  0  0  0  0  0  0  0  0
   20.5544   -1.5892  -14.8130 O   0  0  0  0  0  0  0  0  0  0  0  0
   20.0002   -2.7929  -14.4193 C   0  0  0  0  0  0  0  0  0  0  0  0
   20.8296   -3.9415  -14.9659 C   0  0  2  0  0  0  0  0  0  0  0  0
   20.2636   -5.2190  -14.5996 N   0  0  0  0  0  0  0  0  0  0  0  0
   22.2267   -3.8182  -14.4783 C   0  0  0  0  0  0  0  0  0  0  0  0
   23.1866   -3.2711  -15.3170 O   0  0  0  0  0  0  0  0  0  0  0  0
   22.5857   -4.1884  -13.3320 O   0  0  0  0  0  0  0  0  0  0  0  0
  2  4  1  0
  2  1  1  6
  3  2  1  0
  4  6  1  0
  4  5  1  1
  6 13  1  0
  6  7  2  0
  9  8  1  0
  9 11  1  0
 10  9  2  0
 12 11  1  6
 12 14  1  0
 13 12  1  0
 14 19  1  0
 14 15  2  0
 16 17  1  0
 18 17  1  1
 18 20  1  0
 19 18  1  0
 20 21  1  0
 22 20  2  0
M  END
$$$$
