TNS.pdb
     RDKit          3D

 22 21  0  0  1  0  0  0  0  0999 V2000
   16.0043   -6.8869  -17.9785 C   0  0  0  0  0  0  0  0  0  0  0  0
   15.4590   -7.8407  -16.9435 C   0  0  1  0  0  0  0  0  0  0  0  0
   14.5464   -8.7107  -17.5363 O   0  0  0  0  0  0  0  0  0  0  0  0
   16.5576   -8.5891  -16.2276 C   0  0  2  0  0  0  0  0  0  0  0  0
   15.9986   -9.6480  -15.4547 N   0  0  0  0  0  0  0  0  0  0  0  0
   17.3669   -7.6628  -15.3678 C   0  0  0  0  0  0  0  0  0  0  0  0
   16.8479   -7.1221  -14.3610 O   0  0  0  0  0  0  0  0  0  0  0  0
   21.3428   -4.7147  -14.1164 N   0  0  0  0  0  0  0  0  0  0  0  0
   21.9214   -5.8642  -14.7014 C   0  0  0  0  0  0  0  0  0  0  0  0
   23.1862   -6.0020  -14.5833 O   0  0  0  0  0  0  0  0  0  0  0  0
   21.0623   -6.8418  -15.4121 C   0  0  0  0  0  0  0  0  0  0  0  0
   19.6081   -6.4613  -15.1511 C   0  0  2  0  0  0  0  0  0  0  0  0
   18.6915   -7.4393  -15.7353 N   0  0  0  0  0  0  0  0  0  0  0  0
   19.2894   -5.1254  -15.6496 C   0  0  0  0  0  0  0  0  0  0  0  0
   19.0536   -4.9611  -16.8949 O   0  0  0  0  0  0  0  0  0  0  0  0
   16.5674   -2.9550  -15.6138 O   0  0  0  0  0  0  0  0  0  0  0  0
   17.5422   -2.1881  -15.0033 C   0  0  0  0  0  0  0  0  0  0  0  0
   18.9167   -2.6765  -15.4252 C   0  0  2  0  0  0  0  0  0  0  0  0
   19.2181   -3.9641  -14.8440 N   0  0  0  0  0  0  0  0  0  0  0  0
   19.9380   -1.6679  -15.0447 C   0  0  0  0  0  0  0  0  0  0  0  0
   20.9989   -2.0550  -14.2392 O   0  0  0  0  0  0  0  0  0  0  0  0
   19.8881   -0.4695  -15.4204 O   0  0  0  0  0  0  0  0  0  0  0  0
  2  4  1  0
  2  1  1  6
  3  2  1  0
  4  6  1  0
  4  5  1  1
  6 13  1  0
  6  7  2  0
  9  8  1  0
  9 11  1  0
 10  9  2  0
 12 11  1  6
 12 14  1  0
 13 12  1  0
 14 19  1  0
 14 15  2  0
 16 17  1  0
 18 17  1  1
 18 20  1  0
 19 18  1  0
 20 21  1  0
 22 20  2  0
M  END
$$$$
