TNS.pdb
     RDKit          3D

 22 21  0  0  1  0  0  0  0  0999 V2000
   15.5813   -8.7949  -14.7277 C   0  0  0  0  0  0  0  0  0  0  0  0
   15.6832  -10.2576  -14.3697 C   0  0  1  0  0  0  0  0  0  0  0  0
   14.4093  -10.8172  -14.2994 O   0  0  0  0  0  0  0  0  0  0  0  0
   16.5721  -11.0149  -15.3267 C   0  0  2  0  0  0  0  0  0  0  0  0
   16.5437  -12.4058  -15.0172 N   0  0  0  0  0  0  0  0  0  0  0  0
   17.9751  -10.4832  -15.2922 C   0  0  0  0  0  0  0  0  0  0  0  0
   18.7523  -10.8143  -14.3638 O   0  0  0  0  0  0  0  0  0  0  0  0
   20.4558  -11.1041  -17.8781 N   0  0  0  0  0  0  0  0  0  0  0  0
   20.3636   -9.9024  -18.6167 C   0  0  0  0  0  0  0  0  0  0  0  0
   20.6547   -9.9607  -19.8595 O   0  0  0  0  0  0  0  0  0  0  0  0
   19.9440   -8.6514  -17.9402 C   0  0  0  0  0  0  0  0  0  0  0  0
   19.6655   -8.9828  -16.4773 C   0  0  2  0  0  0  0  0  0  0  0  0
   18.3614   -9.6245  -16.3183 N   0  0  0  0  0  0  0  0  0  0  0  0
   19.7438   -7.8025  -15.6197 C   0  0  0  0  0  0  0  0  0  0  0  0
   18.7819   -6.9609  -15.6227 O   0  0  0  0  0  0  0  0  0  0  0  0
   21.2214   -7.7475  -11.9451 O   0  0  0  0  0  0  0  0  0  0  0  0
   21.6494   -6.6255  -12.6299 C   0  0  0  0  0  0  0  0  0  0  0  0
   20.7612   -6.3943  -13.8397 C   0  0  2  0  0  0  0  0  0  0  0  0
   20.8285   -7.5050  -14.7608 N   0  0  0  0  0  0  0  0  0  0  0  0
   21.1526   -5.1259  -14.5051 C   0  0  0  0  0  0  0  0  0  0  0  0
   21.0267   -3.9332  -13.8080 O   0  0  0  0  0  0  0  0  0  0  0  0
   21.5970   -5.0792  -15.6799 O   0  0  0  0  0  0  0  0  0  0  0  0
  2  4  1  0
  2  1  1  6
  3  2  1  0
  4  6  1  0
  4  5  1  1
  6 13  1  0
  6  7  2  0
  9  8  1  0
  9 11  1  0
 10  9  2  0
 12 11  1  6
 12 14  1  0
 13 12  1  0
 14 19  1  0
 14 15  2  0
 16 17  1  0
 18 17  1  1
 18 20  1  0
 19 18  1  0
 20 21  1  0
 22 20  2  0
M  END
$$$$
