IEV.pdb
     RDKit          3D

 25 24  0  0  1  0  0  0  0  0999 V2000
    8.2591  -11.6532   19.9693 C   0  0  0  0  0  0  0  0  0  0  0  0
    8.7585  -13.0471   20.2795 C   0  0  0  0  0  0  0  0  0  0  0  0
    7.8687  -14.0767   19.6621 C   0  0  2  0  0  0  0  0  0  0  0  0
    6.4620  -13.8487   20.1755 C   0  0  0  0  0  0  0  0  0  0  0  0
    8.3226  -15.5000   19.9031 C   0  0  2  0  0  0  0  0  0  0  0  0
    7.5361  -16.4136   19.0996 N   0  0  0  0  0  0  0  0  0  0  0  0
    8.2241  -15.8966   21.3137 C   0  0  0  0  0  0  0  0  0  0  0  0
    7.1319  -16.2763   21.8451 O   0  0  0  0  0  0  0  0  0  0  0  0
    9.3752  -15.8635   22.1344 N   0  0  0  0  0  0  0  0  0  0  0  0
    9.3164  -16.3560   23.5031 C   0  0  1  0  0  0  0  0  0  0  0  0
   10.4303  -17.3512   23.6421 C   0  0  0  0  0  0  0  0  0  0  0  0
   10.6016  -17.9258   25.0078 C   0  0  0  0  0  0  0  0  0  0  0  0
   11.6930  -18.9374   25.0315 C   0  0  0  0  0  0  0  0  0  0  0  0
   12.7380  -18.6536   25.6697 O   0  0  0  0  0  0  0  0  0  0  0  0
    9.4199  -15.2268   24.4552 C   0  0  0  0  0  0  0  0  0  0  0  0
   10.4335  -14.5085   24.5014 O   0  0  0  0  0  0  0  0  0  0  0  0
   11.5860  -20.1575   24.3806 O   0  0  0  0  0  0  0  0  0  0  0  0
    6.0853  -13.6502   26.6223 C   0  0  0  0  0  0  0  0  0  0  0  0
    7.3975  -12.9084   26.4228 C   0  0  2  0  0  0  0  0  0  0  0  0
    7.3117  -12.2376   25.0724 C   0  0  0  0  0  0  0  0  0  0  0  0
    8.5668  -13.8687   26.3753 C   0  0  2  0  0  0  0  0  0  0  0  0
    8.3701  -14.8977   25.3703 N   0  0  0  0  0  0  0  0  0  0  0  0
    8.6910  -14.5269   27.6857 C   0  0  0  0  0  0  0  0  0  0  0  0
    9.1025  -13.8018   28.7815 O   0  0  0  0  0  0  0  0  0  0  0  0
    8.4268  -15.7357   27.8111 O   0  0  0  0  0  0  0  0  0  0  0  0
  2  1  1  0
  3  2  1  0
  3  4  1  1
  5  3  1  0
  5  6  1  6
  7  9  1  0
  7  5  1  0
  8  7  2  0
 10  9  1  0
 10 11  1  1
 12 11  1  0
 13 14  2  0
 13 12  1  0
 15 16  2  0
 15 10  1  0
 17 13  1  0
 19 18  1  6
 20 19  1  0
 21 22  1  6
 21 19  1  0
 22 15  1  0
 23 21  1  0
 24 23  1  0
 25 23  2  0
M  END
$$$$
