IEV.pdb
     RDKit          3D

 25 24  0  0  1  0  0  0  0  0999 V2000
    7.7880  -11.9628   19.7589 C   0  0  0  0  0  0  0  0  0  0  0  0
    7.3887  -13.4134   19.9167 C   0  0  0  0  0  0  0  0  0  0  0  0
    8.5116  -14.3166   19.5213 C   0  0  2  0  0  0  0  0  0  0  0  0
    8.8303  -14.0571   18.0634 C   0  0  0  0  0  0  0  0  0  0  0  0
    8.2350  -15.7824   19.7756 C   0  0  2  0  0  0  0  0  0  0  0  0
    7.1076  -16.2196   18.9776 N   0  0  0  0  0  0  0  0  0  0  0  0
    7.9620  -16.0721   21.1893 C   0  0  0  0  0  0  0  0  0  0  0  0
    6.7814  -16.1570   21.6567 O   0  0  0  0  0  0  0  0  0  0  0  0
    9.0375  -16.2684   22.0862 N   0  0  0  0  0  0  0  0  0  0  0  0
    8.7811  -16.5301   23.4951 C   0  0  1  0  0  0  0  0  0  0  0  0
    9.6655  -17.6795   23.8789 C   0  0  0  0  0  0  0  0  0  0  0  0
    9.5655  -18.1093   25.3037 C   0  0  0  0  0  0  0  0  0  0  0  0
   10.4933  -19.2372   25.5904 C   0  0  0  0  0  0  0  0  0  0  0  0
   10.8351  -19.4222   26.7857 O   0  0  0  0  0  0  0  0  0  0  0  0
    9.0314  -15.3086   24.2935 C   0  0  0  0  0  0  0  0  0  0  0  0
   10.0840  -14.6587   24.1714 O   0  0  0  0  0  0  0  0  0  0  0  0
   10.9780  -20.0694   24.5922 O   0  0  0  0  0  0  0  0  0  0  0  0
    7.1793  -11.9554   27.4710 C   0  0  0  0  0  0  0  0  0  0  0  0
    7.0799  -12.7880   26.2026 C   0  0  2  0  0  0  0  0  0  0  0  0
    5.9688  -13.7855   26.4285 C   0  0  0  0  0  0  0  0  0  0  0  0
    8.3507  -13.5753   25.9642 C   0  0  2  0  0  0  0  0  0  0  0  0
    8.0862  -14.8078   25.2442 N   0  0  0  0  0  0  0  0  0  0  0  0
    8.9417  -13.9239   27.2661 C   0  0  0  0  0  0  0  0  0  0  0  0
    9.5394  -12.9480   28.0317 O   0  0  0  0  0  0  0  0  0  0  0  0
    8.9055  -15.0958   27.6809 O   0  0  0  0  0  0  0  0  0  0  0  0
  2  1  1  0
  3  2  1  0
  3  4  1  6
  5  3  1  0
  5  6  1  6
  7  9  1  0
  7  5  1  0
  8  7  2  0
 10  9  1  0
 10 11  1  1
 12 11  1  0
 13 14  2  0
 13 12  1  0
 15 16  2  0
 15 10  1  0
 17 13  1  0
 19 18  1  1
 20 19  1  0
 21 22  1  1
 21 19  1  0
 22 15  1  0
 23 21  1  0
 24 23  1  0
 25 23  2  0
M  END
$$$$
