IEV.pdb
     RDKit          3D

 25 24  0  0  1  0  0  0  0  0999 V2000
    8.0764  -13.0235   18.4059 C   0  0  0  0  0  0  0  0  0  0  0  0
    7.9441  -14.4935   18.7380 C   0  0  0  0  0  0  0  0  0  0  0  0
    7.4485  -14.6769   20.1357 C   0  0  2  0  0  0  0  0  0  0  0  0
    8.3801  -13.9270   21.0653 C   0  0  0  0  0  0  0  0  0  0  0  0
    7.3035  -16.1259   20.5471 C   0  0  2  0  0  0  0  0  0  0  0  0
    6.3440  -16.7909   19.6890 N   0  0  0  0  0  0  0  0  0  0  0  0
    6.8825  -16.2800   21.9456 C   0  0  0  0  0  0  0  0  0  0  0  0
    5.7332  -15.9232   22.3595 O   0  0  0  0  0  0  0  0  0  0  0  0
    7.7722  -16.8446   22.8886 N   0  0  0  0  0  0  0  0  0  0  0  0
    7.4238  -16.8744   24.3017 C   0  0  1  0  0  0  0  0  0  0  0  0
    7.9429  -18.1760   24.8374 C   0  0  0  0  0  0  0  0  0  0  0  0
    7.7460  -18.3839   26.3011 C   0  0  0  0  0  0  0  0  0  0  0  0
    8.2159  -19.7326   26.7197 C   0  0  0  0  0  0  0  0  0  0  0  0
    7.4315  -20.4378   27.4032 O   0  0  0  0  0  0  0  0  0  0  0  0
    7.9894  -15.6921   24.9905 C   0  0  0  0  0  0  0  0  0  0  0  0
    9.1834  -15.3732   24.8561 O   0  0  0  0  0  0  0  0  0  0  0  0
    9.4704  -20.2178   26.3808 O   0  0  0  0  0  0  0  0  0  0  0  0
    5.8535  -12.1925   26.0736 C   0  0  0  0  0  0  0  0  0  0  0  0
    6.7518  -12.8162   27.1300 C   0  0  2  0  0  0  0  0  0  0  0  0
    7.4752  -11.6767   27.8073 C   0  0  0  0  0  0  0  0  0  0  0  0
    7.8023  -13.7051   26.4990 C   0  0  2  0  0  0  0  0  0  0  0  0
    7.2037  -14.8539   25.8437 N   0  0  0  0  0  0  0  0  0  0  0  0
    8.7009  -14.1976   27.5552 C   0  0  0  0  0  0  0  0  0  0  0  0
    9.7252  -13.3990   28.0123 O   0  0  0  0  0  0  0  0  0  0  0  0
    8.5419  -15.3323   28.0391 O   0  0  0  0  0  0  0  0  0  0  0  0
  2  1  1  0
  3  2  1  0
  3  4  1  1
  5  3  1  0
  5  6  1  6
  7  9  1  0
  7  5  1  0
  8  7  2  0
 10  9  1  0
 10 11  1  1
 12 11  1  0
 13 14  2  0
 13 12  1  0
 15 16  2  0
 15 10  1  0
 17 13  1  0
 19 18  1  6
 20 19  1  0
 21 22  1  1
 21 19  1  0
 22 15  1  0
 23 21  1  0
 24 23  1  0
 25 23  2  0
M  END
$$$$
