IEV.pdb
     RDKit          3D

 25 24  0  0  1  0  0  0  0  0999 V2000
    7.4847  -11.9827   19.9353 C   0  0  0  0  0  0  0  0  0  0  0  0
    7.1157  -13.4070   20.2871 C   0  0  0  0  0  0  0  0  0  0  0  0
    8.1925  -14.3521   19.8624 C   0  0  2  0  0  0  0  0  0  0  0  0
    8.4604  -14.1252   18.3889 C   0  0  0  0  0  0  0  0  0  0  0  0
    7.8798  -15.8042   20.1515 C   0  0  2  0  0  0  0  0  0  0  0  0
    6.6885  -16.2071   19.4321 N   0  0  0  0  0  0  0  0  0  0  0  0
    7.6875  -16.0697   21.5830 C   0  0  0  0  0  0  0  0  0  0  0  0
    6.5351  -16.1561   22.1161 O   0  0  0  0  0  0  0  0  0  0  0  0
    8.8123  -16.2399   22.4229 N   0  0  0  0  0  0  0  0  0  0  0  0
    8.6356  -16.5002   23.8443 C   0  0  1  0  0  0  0  0  0  0  0  0
    9.4834  -17.6959   24.1633 C   0  0  0  0  0  0  0  0  0  0  0  0
    9.4484  -18.1373   25.5876 C   0  0  0  0  0  0  0  0  0  0  0  0
   10.3015  -19.3384   25.7985 C   0  0  0  0  0  0  0  0  0  0  0  0
   10.0629  -20.0546   26.8035 O   0  0  0  0  0  0  0  0  0  0  0  0
    8.9994  -15.2996   24.6307 C   0  0  0  0  0  0  0  0  0  0  0  0
   10.0815  -14.7133   24.4555 O   0  0  0  0  0  0  0  0  0  0  0  0
   11.3298  -19.6777   24.9317 O   0  0  0  0  0  0  0  0  0  0  0  0
    6.2095  -13.4633   27.2542 C   0  0  0  0  0  0  0  0  0  0  0  0
    7.4168  -12.6887   26.7498 C   0  0  2  0  0  0  0  0  0  0  0  0
    6.9977  -12.0335   25.4552 C   0  0  0  0  0  0  0  0  0  0  0  0
    8.5690  -13.6178   26.4322 C   0  0  2  0  0  0  0  0  0  0  0  0
    8.1362  -14.7475   25.6296 N   0  0  0  0  0  0  0  0  0  0  0  0
    9.1186  -14.1375   27.6945 C   0  0  0  0  0  0  0  0  0  0  0  0
    9.7634  -13.2865   28.5640 O   0  0  0  0  0  0  0  0  0  0  0  0
    9.0051  -15.3420   27.9826 O   0  0  0  0  0  0  0  0  0  0  0  0
  2  1  1  0
  3  2  1  0
  3  4  1  6
  5  3  1  0
  5  6  1  6
  7  9  1  0
  7  5  1  0
  8  7  2  0
 10  9  1  0
 10 11  1  1
 12 11  1  0
 13 14  2  0
 13 12  1  0
 15 16  2  0
 15 10  1  0
 17 13  1  0
 19 18  1  6
 20 19  1  0
 21 22  1  6
 21 19  1  0
 22 15  1  0
 23 21  1  0
 24 23  1  0
 25 23  2  0
M  END
$$$$
