IEV.pdb
     RDKit          3D

 25 24  0  0  1  0  0  0  0  0999 V2000
    7.5182  -11.8220   20.4145 C   0  0  0  0  0  0  0  0  0  0  0  0
    7.2827  -13.3136   20.5049 C   0  0  0  0  0  0  0  0  0  0  0  0
    8.4286  -14.0664   19.9109 C   0  0  2  0  0  0  0  0  0  0  0  0
    8.5446  -13.6697   18.4536 C   0  0  0  0  0  0  0  0  0  0  0  0
    8.3213  -15.5675   20.0697 C   0  0  2  0  0  0  0  0  0  0  0  0
    7.1848  -16.0648   19.3212 N   0  0  0  0  0  0  0  0  0  0  0  0
    8.1896  -15.9824   21.4723 C   0  0  0  0  0  0  0  0  0  0  0  0
    7.0731  -16.3065   21.9900 O   0  0  0  0  0  0  0  0  0  0  0  0
    9.3347  -16.0317   22.3004 N   0  0  0  0  0  0  0  0  0  0  0  0
    9.2184  -16.4448   23.6915 C   0  0  1  0  0  0  0  0  0  0  0  0
   10.2660  -17.4964   23.9087 C   0  0  0  0  0  0  0  0  0  0  0  0
    9.9129  -18.8570   23.4100 C   0  0  0  0  0  0  0  0  0  0  0  0
   11.0009  -19.8319   23.6941 C   0  0  0  0  0  0  0  0  0  0  0  0
   11.7536  -20.1601   22.7425 O   0  0  0  0  0  0  0  0  0  0  0  0
    9.3721  -15.2740   24.5848 C   0  0  0  0  0  0  0  0  0  0  0  0
   10.4330  -14.6276   24.6295 O   0  0  0  0  0  0  0  0  0  0  0  0
   11.1986  -20.3740   24.9554 O   0  0  0  0  0  0  0  0  0  0  0  0
    6.1164  -13.6199   26.9406 C   0  0  0  0  0  0  0  0  0  0  0  0
    7.3513  -12.8410   26.5161 C   0  0  2  0  0  0  0  0  0  0  0  0
    7.0611  -12.2907   25.1400 C   0  0  0  0  0  0  0  0  0  0  0  0
    8.5556  -13.7500   26.3930 C   0  0  2  0  0  0  0  0  0  0  0  0
    8.3193  -14.8208   25.4416 N   0  0  0  0  0  0  0  0  0  0  0  0
    8.8259  -14.3564   27.7063 C   0  0  0  0  0  0  0  0  0  0  0  0
    9.2877  -13.5744   28.7412 O   0  0  0  0  0  0  0  0  0  0  0  0
    8.6403  -15.5725   27.8890 O   0  0  0  0  0  0  0  0  0  0  0  0
  2  1  1  0
  3  2  1  0
  3  4  1  6
  5  3  1  0
  5  6  1  6
  7  9  1  0
  7  5  1  0
  8  7  2  0
 10  9  1  0
 10 11  1  1
 12 11  1  0
 13 14  2  0
 13 12  1  0
 15 16  2  0
 15 10  1  0
 17 13  1  0
 19 18  1  6
 20 19  1  0
 21 22  1  6
 21 19  1  0
 22 15  1  0
 23 21  1  0
 24 23  1  0
 25 23  2  0
M  END
$$$$
