IEV.pdb
     RDKit          3D

 25 24  0  0  1  0  0  0  0  0999 V2000
    7.3514  -12.0140   18.7173 C   0  0  0  0  0  0  0  0  0  0  0  0
    7.7183  -13.4766   18.8388 C   0  0  0  0  0  0  0  0  0  0  0  0
    7.4971  -13.9626   20.2344 C   0  0  2  0  0  0  0  0  0  0  0  0
    8.3864  -13.1558   21.1579 C   0  0  0  0  0  0  0  0  0  0  0  0
    7.7229  -15.4490   20.4067 C   0  0  2  0  0  0  0  0  0  0  0  0
    6.7638  -16.1910   19.6138 N   0  0  0  0  0  0  0  0  0  0  0  0
    7.6225  -15.8804   21.8069 C   0  0  0  0  0  0  0  0  0  0  0  0
    6.5081  -16.0013   22.4093 O   0  0  0  0  0  0  0  0  0  0  0  0
    8.7970  -16.1790   22.5356 N   0  0  0  0  0  0  0  0  0  0  0  0
    8.7186  -16.5189   23.9490 C   0  0  1  0  0  0  0  0  0  0  0  0
    9.6037  -17.7140   24.1457 C   0  0  0  0  0  0  0  0  0  0  0  0
    9.7107  -18.2002   25.5516 C   0  0  0  0  0  0  0  0  0  0  0  0
   10.5993  -19.3907   25.6417 C   0  0  0  0  0  0  0  0  0  0  0  0
   10.2949  -20.3993   24.9561 O   0  0  0  0  0  0  0  0  0  0  0  0
    9.1154  -15.3558   24.7749 C   0  0  0  0  0  0  0  0  0  0  0  0
   10.2236  -14.8101   24.6361 O   0  0  0  0  0  0  0  0  0  0  0  0
   11.7292  -19.4123   26.4459 O   0  0  0  0  0  0  0  0  0  0  0  0
    6.2867  -13.1934   27.0308 C   0  0  0  0  0  0  0  0  0  0  0  0
    7.6410  -12.6007   26.6751 C   0  0  2  0  0  0  0  0  0  0  0  0
    7.4971  -11.9926   25.3002 C   0  0  0  0  0  0  0  0  0  0  0  0
    8.7018  -13.6769   26.5829 C   0  0  2  0  0  0  0  0  0  0  0  0
    8.2558  -14.7958   25.7726 N   0  0  0  0  0  0  0  0  0  0  0  0
    8.9858  -14.1774   27.9373 C   0  0  0  0  0  0  0  0  0  0  0  0
    9.5815  -13.3508   28.8634 O   0  0  0  0  0  0  0  0  0  0  0  0
    8.6915  -15.3440   28.2525 O   0  0  0  0  0  0  0  0  0  0  0  0
  2  1  1  0
  3  2  1  0
  3  4  1  1
  5  3  1  0
  5  6  1  6
  7  9  1  0
  7  5  1  0
  8  7  2  0
 10  9  1  0
 10 11  1  6
 12 11  1  0
 13 14  2  0
 13 12  1  0
 15 16  2  0
 15 10  1  0
 17 13  1  0
 19 18  1  6
 20 19  1  0
 21 22  1  6
 21 19  1  0
 22 15  1  0
 23 21  1  0
 24 23  1  0
 25 23  2  0
M  END
$$$$
