IEV.pdb
     RDKit          3D

 25 24  0  0  1  0  0  0  0  0999 V2000
    7.4086  -12.0104   18.9516 C   0  0  0  0  0  0  0  0  0  0  0  0
    7.4934  -13.5197   19.0091 C   0  0  0  0  0  0  0  0  0  0  0  0
    7.6489  -13.9868   20.4200 C   0  0  2  0  0  0  0  0  0  0  0  0
    8.8864  -13.3308   20.9969 C   0  0  0  0  0  0  0  0  0  0  0  0
    7.7024  -15.4924   20.5626 C   0  0  2  0  0  0  0  0  0  0  0  0
    6.4938  -16.0841   20.0256 N   0  0  0  0  0  0  0  0  0  0  0  0
    7.8694  -15.9255   21.9559 C   0  0  0  0  0  0  0  0  0  0  0  0
    6.9126  -15.9215   22.7950 O   0  0  0  0  0  0  0  0  0  0  0  0
    9.1342  -16.3688   22.4066 N   0  0  0  0  0  0  0  0  0  0  0  0
    9.3137  -16.7990   23.7857 C   0  0  1  0  0  0  0  0  0  0  0  0
   10.3511  -17.8823   23.7586 C   0  0  0  0  0  0  0  0  0  0  0  0
   10.7437  -18.4189   25.0937 C   0  0  0  0  0  0  0  0  0  0  0  0
   11.7897  -19.4696   24.9634 C   0  0  0  0  0  0  0  0  0  0  0  0
   11.4203  -20.6217   24.6225 O   0  0  0  0  0  0  0  0  0  0  0  0
    9.6951  -15.6462   24.6329 C   0  0  0  0  0  0  0  0  0  0  0  0
   10.6045  -14.8679   24.2975 O   0  0  0  0  0  0  0  0  0  0  0  0
   13.1313  -19.2128   25.2040 O   0  0  0  0  0  0  0  0  0  0  0  0
    7.7613  -13.1948   28.1868 C   0  0  0  0  0  0  0  0  0  0  0  0
    8.3877  -13.1886   26.8014 C   0  0  2  0  0  0  0  0  0  0  0  0
    7.2936  -13.5690   25.8325 C   0  0  0  0  0  0  0  0  0  0  0  0
    9.4744  -14.2364   26.6879 C   0  0  2  0  0  0  0  0  0  0  0  0
    9.0464  -15.3615   25.8763 N   0  0  0  0  0  0  0  0  0  0  0  0
    9.7897  -14.7379   28.0351 C   0  0  0  0  0  0  0  0  0  0  0  0
   10.4028  -13.9106   28.9491 O   0  0  0  0  0  0  0  0  0  0  0  0
    9.5061  -15.9058   28.3549 O   0  0  0  0  0  0  0  0  0  0  0  0
  2  1  1  0
  3  2  1  0
  3  4  1  6
  5  3  1  0
  5  6  1  1
  7  9  1  0
  7  5  1  0
  8  7  2  0
 10  9  1  0
 10 11  1  6
 12 11  1  0
 13 14  2  0
 13 12  1  0
 15 16  2  0
 15 10  1  0
 17 13  1  0
 19 18  1  1
 20 19  1  0
 21 22  1  6
 21 19  1  0
 22 15  1  0
 23 21  1  0
 24 23  1  0
 25 23  2  0
M  END
$$$$
