IEV.pdb
     RDKit          3D

 25 24  0  0  1  0  0  0  0  0999 V2000
    7.8161  -11.5834   20.0280 C   0  0  0  0  0  0  0  0  0  0  0  0
    7.4160  -13.0146   20.3112 C   0  0  0  0  0  0  0  0  0  0  0  0
    8.3984  -13.9666   19.7100 C   0  0  2  0  0  0  0  0  0  0  0  0
    8.5013  -13.6610   18.2300 C   0  0  0  0  0  0  0  0  0  0  0  0
    8.0655  -15.4226   19.9533 C   0  0  2  0  0  0  0  0  0  0  0  0
    6.7934  -15.7488   19.3414 N   0  0  0  0  0  0  0  0  0  0  0  0
    8.0111  -15.7620   21.3811 C   0  0  0  0  0  0  0  0  0  0  0  0
    6.9333  -15.7177   22.0563 O   0  0  0  0  0  0  0  0  0  0  0  0
    9.1903  -16.1568   22.0544 N   0  0  0  0  0  0  0  0  0  0  0  0
    9.1377  -16.5646   23.4509 C   0  0  1  0  0  0  0  0  0  0  0  0
   10.2322  -17.5734   23.6377 C   0  0  0  0  0  0  0  0  0  0  0  0
   10.4184  -18.0565   25.0364 C   0  0  0  0  0  0  0  0  0  0  0  0
   11.4920  -19.0845   25.1108 C   0  0  0  0  0  0  0  0  0  0  0  0
   11.1729  -20.2791   24.8851 O   0  0  0  0  0  0  0  0  0  0  0  0
    9.2762  -15.3826   24.3318 C   0  0  0  0  0  0  0  0  0  0  0  0
   10.2145  -14.5787   24.1953 O   0  0  0  0  0  0  0  0  0  0  0  0
   12.8060  -18.7621   25.4163 O   0  0  0  0  0  0  0  0  0  0  0  0
    6.1320  -13.7565   26.5832 C   0  0  0  0  0  0  0  0  0  0  0  0
    7.4559  -13.0391   26.3720 C   0  0  2  0  0  0  0  0  0  0  0  0
    7.3732  -12.3724   25.0195 C   0  0  0  0  0  0  0  0  0  0  0  0
    8.6075  -14.0204   26.3208 C   0  0  2  0  0  0  0  0  0  0  0  0
    8.3477  -15.0976   25.3828 N   0  0  0  0  0  0  0  0  0  0  0  0
    8.7850  -14.6106   27.6572 C   0  0  0  0  0  0  0  0  0  0  0  0
    9.1775  -13.8165   28.7113 O   0  0  0  0  0  0  0  0  0  0  0  0
    8.5830  -15.8237   27.8421 O   0  0  0  0  0  0  0  0  0  0  0  0
  2  1  1  0
  3  2  1  0
  3  4  1  6
  5  3  1  0
  5  6  1  1
  7  9  1  0
  7  5  1  0
  8  7  2  0
 10  9  1  0
 10 11  1  1
 12 11  1  0
 13 14  2  0
 13 12  1  0
 15 16  2  0
 15 10  1  0
 17 13  1  0
 19 18  1  6
 20 19  1  0
 21 22  1  6
 21 19  1  0
 22 15  1  0
 23 21  1  0
 24 23  1  0
 25 23  2  0
M  END
$$$$
