IEV.pdb
     RDKit          3D

 25 24  0  0  1  0  0  0  0  0999 V2000
    7.4755  -12.0497   18.4795 C   0  0  0  0  0  0  0  0  0  0  0  0
    7.8318  -13.5196   18.5112 C   0  0  0  0  0  0  0  0  0  0  0  0
    7.8013  -14.0406   19.9114 C   0  0  2  0  0  0  0  0  0  0  0  0
    8.7308  -13.1871   20.7492 C   0  0  0  0  0  0  0  0  0  0  0  0
    8.1459  -15.5098   20.0242 C   0  0  2  0  0  0  0  0  0  0  0  0
    7.2114  -16.2988   19.2474 N   0  0  0  0  0  0  0  0  0  0  0  0
    8.1399  -15.9898   21.4121 C   0  0  0  0  0  0  0  0  0  0  0  0
    7.0661  -16.1742   22.0697 O   0  0  0  0  0  0  0  0  0  0  0  0
    9.3636  -16.2651   22.0651 N   0  0  0  0  0  0  0  0  0  0  0  0
    9.3728  -16.7148   23.4497 C   0  0  1  0  0  0  0  0  0  0  0  0
   10.5306  -17.6600   23.5790 C   0  0  0  0  0  0  0  0  0  0  0  0
   10.7907  -18.1601   24.9598 C   0  0  0  0  0  0  0  0  0  0  0  0
   11.9496  -19.0936   24.9831 C   0  0  0  0  0  0  0  0  0  0  0  0
   12.0569  -19.8662   25.9687 O   0  0  0  0  0  0  0  0  0  0  0  0
    9.4633  -15.5521   24.3619 C   0  0  0  0  0  0  0  0  0  0  0  0
   10.4237  -14.7642   24.3147 O   0  0  0  0  0  0  0  0  0  0  0  0
   12.8920  -19.1296   23.9661 O   0  0  0  0  0  0  0  0  0  0  0  0
    6.9205  -12.7790   25.0543 C   0  0  0  0  0  0  0  0  0  0  0  0
    7.3506  -13.3523   26.3953 C   0  0  2  0  0  0  0  0  0  0  0  0
    7.6538  -12.1740   27.2899 C   0  0  0  0  0  0  0  0  0  0  0  0
    8.6260  -14.1569   26.2623 C   0  0  2  0  0  0  0  0  0  0  0  0
    8.4608  -15.2682   25.3429 N   0  0  0  0  0  0  0  0  0  0  0  0
    8.9794  -14.7037   27.5820 C   0  0  0  0  0  0  0  0  0  0  0  0
    8.9850  -16.0662   27.7811 O   0  0  0  0  0  0  0  0  0  0  0  0
    9.2736  -13.9431   28.5210 O   0  0  0  0  0  0  0  0  0  0  0  0
  2  1  1  0
  3  2  1  0
  3  4  1  1
  5  3  1  0
  5  6  1  6
  7  9  1  0
  7  5  1  0
  8  7  2  0
 10  9  1  0
 10 11  1  6
 12 11  1  0
 13 14  2  0
 13 12  1  0
 15 16  2  0
 15 10  1  0
 17 13  1  0
 19 18  1  6
 20 19  1  0
 21 22  1  6
 21 19  1  0
 22 15  1  0
 23 21  1  0
 24 23  1  0
 25 23  2  0
M  END
$$$$
