IEV.pdb
     RDKit          3D

 25 24  0  0  1  0  0  0  0  0999 V2000
    7.2153  -11.7490   18.9703 C   0  0  0  0  0  0  0  0  0  0  0  0
    7.6700  -13.1919   18.9633 C   0  0  0  0  0  0  0  0  0  0  0  0
    7.5416  -13.7929   20.3254 C   0  0  2  0  0  0  0  0  0  0  0  0
    8.4020  -12.9866   21.2762 C   0  0  0  0  0  0  0  0  0  0  0  0
    7.8872  -15.2652   20.3784 C   0  0  2  0  0  0  0  0  0  0  0  0
    6.9842  -16.0169   19.5307 N   0  0  0  0  0  0  0  0  0  0  0  0
    7.8332  -15.8128   21.7400 C   0  0  0  0  0  0  0  0  0  0  0  0
    6.7384  -16.1070   22.3183 O   0  0  0  0  0  0  0  0  0  0  0  0
    9.0322  -16.0306   22.4574 N   0  0  0  0  0  0  0  0  0  0  0  0
    8.9898  -16.5079   23.8320 C   0  0  1  0  0  0  0  0  0  0  0  0
    9.9636  -17.6462   23.9141 C   0  0  0  0  0  0  0  0  0  0  0  0
   10.1459  -18.2289   25.2748 C   0  0  0  0  0  0  0  0  0  0  0  0
   11.1684  -19.3103   25.2631 C   0  0  0  0  0  0  0  0  0  0  0  0
   12.2075  -19.1385   25.9490 O   0  0  0  0  0  0  0  0  0  0  0  0
    9.3042  -15.4019   24.7648 C   0  0  0  0  0  0  0  0  0  0  0  0
   10.3269  -14.7087   24.6271 O   0  0  0  0  0  0  0  0  0  0  0  0
   11.0047  -20.4762   24.5297 O   0  0  0  0  0  0  0  0  0  0  0  0
    6.4329  -13.8123   27.4203 C   0  0  0  0  0  0  0  0  0  0  0  0
    7.7143  -13.0686   27.0783 C   0  0  2  0  0  0  0  0  0  0  0  0
    7.4472  -12.3181   25.7953 C   0  0  0  0  0  0  0  0  0  0  0  0
    8.8504  -14.0321   26.8085 C   0  0  2  0  0  0  0  0  0  0  0  0
    8.4584  -15.0677   25.8697 N   0  0  0  0  0  0  0  0  0  0  0  0
    9.2299  -14.6812   28.0735 C   0  0  0  0  0  0  0  0  0  0  0  0
    9.8023  -13.9380   29.0813 O   0  0  0  0  0  0  0  0  0  0  0  0
    9.0372  -15.8987   28.2394 O   0  0  0  0  0  0  0  0  0  0  0  0
  2  1  1  0
  3  2  1  0
  3  4  1  1
  5  3  1  0
  5  6  1  6
  7  9  1  0
  7  5  1  0
  8  7  2  0
 10  9  1  0
 10 11  1  6
 12 11  1  0
 13 14  2  0
 13 12  1  0
 15 16  2  0
 15 10  1  0
 17 13  1  0
 19 18  1  6
 20 19  1  0
 21 22  1  6
 21 19  1  0
 22 15  1  0
 23 21  1  0
 24 23  1  0
 25 23  2  0
M  END
$$$$
