GHH.pdb
     RDKit          3D

 25 26  0  0  1  0  0  0  0  0999 V2000
    7.5553  -12.7910   18.4135 N   0  0  0  0  0  0  0  0  0  0  0  0
    8.8721  -13.1604   18.8623 C   0  0  0  0  0  0  0  0  0  0  0  0
    8.7936  -14.4629   19.5666 C   0  0  0  0  0  0  0  0  0  0  0  0
    7.7065  -15.1077   19.6531 O   0  0  0  0  0  0  0  0  0  0  0  0
    9.9496  -14.9952   20.1516 N   0  0  0  0  0  0  0  0  0  0  0  0
    9.8312  -16.3727   20.7601 C   0  0  1  0  0  0  0  0  0  0  0  0
   10.8738  -17.1799   20.0400 C   0  0  0  0  0  0  0  0  0  0  0  0
   10.4761  -17.9321   18.8599 C   0  0  0  0  0  0  0  0  0  0  0  0
    9.1467  -18.1735   18.4477 C   0  0  0  0  0  0  0  0  0  0  0  0
    9.2164  -18.8950   17.3291 N   0  0  0  0  0  0  0  0  0  0  0  0
   10.4887  -19.1228   17.0111 C   0  0  0  0  0  0  0  0  0  0  0  0
   11.2161  -18.5357   17.9434 N   0  0  0  0  0  0  0  0  0  0  0  0
   10.1073  -16.1095   22.1822 C   0  0  0  0  0  0  0  0  0  0  0  0
   11.1901  -15.5031   22.5017 O   0  0  0  0  0  0  0  0  0  0  0  0
    9.2506  -16.4781   23.2176 N   0  0  0  0  0  0  0  0  0  0  0  0
    9.5905  -16.3103   24.6374 C   0  0  1  0  0  0  0  0  0  0  0  0
    8.2935  -16.2821   25.3741 C   0  0  0  0  0  0  0  0  0  0  0  0
    7.6441  -14.9677   25.1645 C   0  0  0  0  0  0  0  0  0  0  0  0
    8.1956  -13.8755   24.4996 C   0  0  0  0  0  0  0  0  0  0  0  0
    7.2777  -12.8950   24.5350 N   0  0  0  0  0  0  0  0  0  0  0  0
    6.1941  -13.3359   25.1889 C   0  0  0  0  0  0  0  0  0  0  0  0
    6.4251  -14.6013   25.5699 N   0  0  0  0  0  0  0  0  0  0  0  0
   10.5416  -17.3343   25.0797 C   0  0  0  0  0  0  0  0  0  0  0  0
   10.5716  -18.4826   24.5510 O   0  0  0  0  0  0  0  0  0  0  0  0
   11.4446  -17.0832   26.0935 O   0  0  0  0  0  0  0  0  0  0  0  0
  2  1  1  0
  3  2  1  0
  4  3  2  0
  5  3  1  0
  6 13  1  0
  6  5  1  0
  6  7  1  6
  8 12  1  0
  8  7  1  0
  9  8  2  0
 10  9  1  0
 10 11  1  0
 11 12  2  0
 13 15  1  0
 14 13  2  0
 15 16  1  0
 16 17  1  1
 16 23  1  0
 18 17  1  0
 19 18  2  0
 20 19  1  0
 21 20  1  0
 21 22  2  0
 22 18  1  0
 23 24  2  0
 23 25  1  0
M  END
$$$$
