GHH.pdb
     RDKit          3D

 25 26  0  0  1  0  0  0  0  0999 V2000
    8.0403  -14.5303   14.6807 N   0  0  0  0  0  0  0  0  0  0  0  0
    9.3892  -14.9632   14.9355 C   0  0  0  0  0  0  0  0  0  0  0  0
    9.3779  -15.9492   16.0429 C   0  0  0  0  0  0  0  0  0  0  0  0
    8.3308  -16.1792   16.7180 O   0  0  0  0  0  0  0  0  0  0  0  0
   10.5538  -16.6447   16.3517 N   0  0  0  0  0  0  0  0  0  0  0  0
   10.4971  -17.5858   17.5321 C   0  0  1  0  0  0  0  0  0  0  0  0
   11.5493  -18.6143   17.2288 C   0  0  0  0  0  0  0  0  0  0  0  0
   11.6387  -19.7883   18.0834 C   0  0  0  0  0  0  0  0  0  0  0  0
   10.8126  -20.0603   19.1965 C   0  0  0  0  0  0  0  0  0  0  0  0
   11.2192  -21.2249   19.7013 N   0  0  0  0  0  0  0  0  0  0  0  0
   12.2370  -21.7014   18.9879 C   0  0  0  0  0  0  0  0  0  0  0  0
   12.4638  -20.8218   18.0298 N   0  0  0  0  0  0  0  0  0  0  0  0
   10.7976  -16.6885   18.6601 C   0  0  0  0  0  0  0  0  0  0  0  0
   11.6807  -15.7729   18.5058 O   0  0  0  0  0  0  0  0  0  0  0  0
   10.1692  -16.7691   19.9012 N   0  0  0  0  0  0  0  0  0  0  0  0
   10.5013  -15.8847   21.0268 C   0  0  1  0  0  0  0  0  0  0  0  0
    9.2046  -15.3365   21.5204 C   0  0  0  0  0  0  0  0  0  0  0  0
    8.7331  -14.2883   20.5864 C   0  0  0  0  0  0  0  0  0  0  0  0
    9.4080  -13.8292   19.4582 C   0  0  0  0  0  0  0  0  0  0  0  0
    8.6326  -12.8854   18.8987 N   0  0  0  0  0  0  0  0  0  0  0  0
    7.5183  -12.7469   19.6304 C   0  0  0  0  0  0  0  0  0  0  0  0
    7.5868  -13.6061   20.6584 N   0  0  0  0  0  0  0  0  0  0  0  0
   11.3099  -16.5836   22.0300 C   0  0  0  0  0  0  0  0  0  0  0  0
   11.1905  -17.8269   22.2274 O   0  0  0  0  0  0  0  0  0  0  0  0
   12.2365  -15.9091   22.7998 O   0  0  0  0  0  0  0  0  0  0  0  0
  2  1  1  0
  3  2  1  0
  4  3  2  0
  5  3  1  0
  6 13  1  0
  6  5  1  0
  6  7  1  6
  8 12  1  0
  8  7  1  0
  9  8  2  0
 10  9  1  0
 10 11  1  0
 11 12  2  0
 13 15  1  0
 14 13  2  0
 15 16  1  0
 16 17  1  1
 16 23  1  0
 18 17  1  0
 19 18  2  0
 20 19  1  0
 21 20  1  0
 21 22  2  0
 22 18  1  0
 23 24  2  0
 23 25  1  0
M  END
$$$$
