GHH.pdb
     RDKit          3D

 25 26  0  0  1  0  0  0  0  0999 V2000
    6.8732  -19.6659   16.0994 N   0  0  0  0  0  0  0  0  0  0  0  0
    6.3179  -18.7405   17.0518 C   0  0  0  0  0  0  0  0  0  0  0  0
    7.4016  -17.8682   17.5648 C   0  0  0  0  0  0  0  0  0  0  0  0
    8.6137  -18.0576   17.2484 O   0  0  0  0  0  0  0  0  0  0  0  0
    7.0789  -16.8075   18.4208 N   0  0  0  0  0  0  0  0  0  0  0  0
    8.2103  -15.8921   18.8256 C   0  0  1  0  0  0  0  0  0  0  0  0
    7.6382  -14.5124   18.6641 C   0  0  0  0  0  0  0  0  0  0  0  0
    7.5651  -13.9437   17.3270 C   0  0  0  0  0  0  0  0  0  0  0  0
    8.6463  -13.3830   16.6114 C   0  0  0  0  0  0  0  0  0  0  0  0
    8.1617  -12.9793   15.4371 N   0  0  0  0  0  0  0  0  0  0  0  0
    6.8595  -13.2454   15.3648 C   0  0  0  0  0  0  0  0  0  0  0  0
    6.5332  -13.8206   16.5074 N   0  0  0  0  0  0  0  0  0  0  0  0
    8.4677  -16.3105   20.2136 C   0  0  0  0  0  0  0  0  0  0  0  0
    7.4854  -16.7107   20.9328 O   0  0  0  0  0  0  0  0  0  0  0  0
    9.7310  -16.3045   20.8017 N   0  0  0  0  0  0  0  0  0  0  0  0
   10.2152  -17.3853   21.6718 C   0  0  1  0  0  0  0  0  0  0  0  0
   10.0689  -18.6462   20.8879 C   0  0  0  0  0  0  0  0  0  0  0  0
    8.8540  -19.3618   21.3408 C   0  0  0  0  0  0  0  0  0  0  0  0
    8.1537  -19.1261   22.5213 C   0  0  0  0  0  0  0  0  0  0  0  0
    7.1227  -19.9872   22.5400 N   0  0  0  0  0  0  0  0  0  0  0  0
    7.1601  -20.7361   21.4291 C   0  0  0  0  0  0  0  0  0  0  0  0
    8.2192  -20.3487   20.7024 N   0  0  0  0  0  0  0  0  0  0  0  0
   11.5675  -17.1050   22.1632 C   0  0  0  0  0  0  0  0  0  0  0  0
   11.8552  -17.1851   23.3920 O   0  0  0  0  0  0  0  0  0  0  0  0
   12.5824  -16.7423   21.3004 O   0  0  0  0  0  0  0  0  0  0  0  0
  2  1  1  0
  3  2  1  0
  4  3  2  0
  5  3  1  0
  6 13  1  0
  6  5  1  0
  6  7  1  1
  8 12  1  0
  8  7  1  0
  9  8  2  0
 10  9  1  0
 10 11  1  0
 11 12  2  0
 13 15  1  0
 14 13  2  0
 15 16  1  0
 16 17  1  6
 16 23  1  0
 18 17  1  0
 19 18  2  0
 20 19  1  0
 21 20  1  0
 21 22  2  0
 22 18  1  0
 23 24  2  0
 23 25  1  0
M  END
$$$$
