GHH.pdb
     RDKit          3D

 25 26  0  0  1  0  0  0  0  0999 V2000
    8.2113  -19.6797   18.0885 N   0  0  0  0  0  0  0  0  0  0  0  0
    8.2342  -18.3036   17.6670 C   0  0  0  0  0  0  0  0  0  0  0  0
    8.9125  -17.4923   18.7063 C   0  0  0  0  0  0  0  0  0  0  0  0
   10.1393  -17.1884   18.6173 O   0  0  0  0  0  0  0  0  0  0  0  0
    8.1800  -17.0498   19.8152 N   0  0  0  0  0  0  0  0  0  0  0  0
    8.9024  -16.1539   20.7938 C   0  0  1  0  0  0  0  0  0  0  0  0
    7.9896  -14.9705   20.9465 C   0  0  0  0  0  0  0  0  0  0  0  0
    7.8360  -14.0628   19.8200 C   0  0  0  0  0  0  0  0  0  0  0  0
    8.5960  -12.8932   19.5965 C   0  0  0  0  0  0  0  0  0  0  0  0
    8.1449  -12.3522   18.4649 N   0  0  0  0  0  0  0  0  0  0  0  0
    7.1605  -13.0953   17.9643 C   0  0  0  0  0  0  0  0  0  0  0  0
    6.9996  -14.1085   18.7952 N   0  0  0  0  0  0  0  0  0  0  0  0
    9.0190  -17.0187   21.9798 C   0  0  0  0  0  0  0  0  0  0  0  0
    8.1918  -17.9866   22.1251 O   0  0  0  0  0  0  0  0  0  0  0  0
    9.9897  -16.8527   22.9656 N   0  0  0  0  0  0  0  0  0  0  0  0
   10.8048  -17.9607   23.4827 C   0  0  1  0  0  0  0  0  0  0  0  0
   11.4265  -18.6094   22.2917 C   0  0  0  0  0  0  0  0  0  0  0  0
   10.6788  -19.8456   21.9660 C   0  0  0  0  0  0  0  0  0  0  0  0
    9.5260  -20.3001   22.6014 C   0  0  0  0  0  0  0  0  0  0  0  0
    9.1766  -21.4484   21.9978 N   0  0  0  0  0  0  0  0  0  0  0  0
   10.0597  -21.7161   21.0259 C   0  0  0  0  0  0  0  0  0  0  0  0
   10.9733  -20.7338   21.0126 N   0  0  0  0  0  0  0  0  0  0  0  0
   11.7451  -17.4950   24.5062 C   0  0  0  0  0  0  0  0  0  0  0  0
   12.2959  -16.3592   24.4315 O   0  0  0  0  0  0  0  0  0  0  0  0
   12.0658  -18.2808   25.5951 O   0  0  0  0  0  0  0  0  0  0  0  0
  2  1  1  0
  3  2  1  0
  4  3  2  0
  5  3  1  0
  6 13  1  0
  6  5  1  0
  6  7  1  1
  8 12  1  0
  8  7  1  0
  9  8  2  0
 10  9  1  0
 10 11  1  0
 11 12  2  0
 13 15  1  0
 14 13  2  0
 15 16  1  0
 16 17  1  6
 16 23  1  0
 18 17  1  0
 19 18  2  0
 20 19  1  0
 21 20  1  0
 21 22  2  0
 22 18  1  0
 23 24  2  0
 23 25  1  0
M  END
$$$$
