GHH.pdb
     RDKit          3D

 25 26  0  0  1  0  0  0  0  0999 V2000
    8.0242  -16.5251   19.0016 N   0  0  0  0  0  0  0  0  0  0  0  0
    7.0570  -16.5234   20.0676 C   0  0  0  0  0  0  0  0  0  0  0  0
    7.6334  -15.8230   21.2405 C   0  0  0  0  0  0  0  0  0  0  0  0
    8.8568  -15.4966   21.2851 O   0  0  0  0  0  0  0  0  0  0  0  0
    6.8060  -15.5138   22.3276 N   0  0  0  0  0  0  0  0  0  0  0  0
    7.4666  -14.8682   23.5229 C   0  0  1  0  0  0  0  0  0  0  0  0
    6.3402  -14.1658   24.2264 C   0  0  0  0  0  0  0  0  0  0  0  0
    6.6290  -13.4589   25.4647 C   0  0  0  0  0  0  0  0  0  0  0  0
    7.8883  -13.3967   26.1019 C   0  0  0  0  0  0  0  0  0  0  0  0
    7.7274  -12.6575   27.1993 N   0  0  0  0  0  0  0  0  0  0  0  0
    6.4630  -12.2531   27.2962 C   0  0  0  0  0  0  0  0  0  0  0  0
    5.8328  -12.7473   26.2467 N   0  0  0  0  0  0  0  0  0  0  0  0
    8.0284  -16.0293   24.2329 C   0  0  0  0  0  0  0  0  0  0  0  0
    7.2878  -17.0579   24.4223 O   0  0  0  0  0  0  0  0  0  0  0  0
    9.3351  -16.0840   24.7137 N   0  0  0  0  0  0  0  0  0  0  0  0
    9.8433  -17.1958   25.5292 C   0  0  1  0  0  0  0  0  0  0  0  0
   10.4336  -18.1764   24.5723 C   0  0  0  0  0  0  0  0  0  0  0  0
   11.4366  -17.4878   23.7278 C   0  0  0  0  0  0  0  0  0  0  0  0
   11.8931  -16.1826   23.8933 C   0  0  0  0  0  0  0  0  0  0  0  0
   12.7931  -15.9595   22.9211 N   0  0  0  0  0  0  0  0  0  0  0  0
   12.9076  -17.0645   22.1713 C   0  0  0  0  0  0  0  0  0  0  0  0
   12.0769  -17.9925   22.6696 N   0  0  0  0  0  0  0  0  0  0  0  0
   10.7509  -16.7149   26.5751 C   0  0  0  0  0  0  0  0  0  0  0  0
   11.0400  -15.4891   26.6885 O   0  0  0  0  0  0  0  0  0  0  0  0
   11.3262  -17.5847   27.4798 O   0  0  0  0  0  0  0  0  0  0  0  0
  2  1  1  0
  3  2  1  0
  4  3  2  0
  5  3  1  0
  6 13  1  0
  6  5  1  0
  6  7  1  1
  8 12  1  0
  8  7  1  0
  9  8  2  0
 10  9  1  0
 10 11  1  0
 11 12  2  0
 13 15  1  0
 14 13  2  0
 15 16  1  0
 16 17  1  6
 16 23  1  0
 18 17  1  0
 19 18  2  0
 20 19  1  0
 21 20  1  0
 21 22  2  0
 22 18  1  0
 23 24  2  0
 23 25  1  0
M  END
$$$$
