GHH.pdb
     RDKit          3D

 25 26  0  0  1  0  0  0  0  0999 V2000
    8.2929  -13.4299   16.7898 N   0  0  0  0  0  0  0  0  0  0  0  0
    9.4773  -12.9221   17.4311 C   0  0  0  0  0  0  0  0  0  0  0  0
   10.2589  -14.0606   17.9710 C   0  0  0  0  0  0  0  0  0  0  0  0
    9.8610  -15.2574   17.8500 O   0  0  0  0  0  0  0  0  0  0  0  0
   11.4680  -13.8084   18.6317 N   0  0  0  0  0  0  0  0  0  0  0  0
   12.2212  -15.0095   19.1532 C   0  0  1  0  0  0  0  0  0  0  0  0
   13.6642  -14.6664   18.9145 C   0  0  0  0  0  0  0  0  0  0  0  0
   14.2617  -15.0291   17.6386 C   0  0  0  0  0  0  0  0  0  0  0  0
   13.8168  -16.0644   16.7866 C   0  0  0  0  0  0  0  0  0  0  0  0
   14.6288  -16.0677   15.7296 N   0  0  0  0  0  0  0  0  0  0  0  0
   15.5474  -15.1128   15.8565 C   0  0  0  0  0  0  0  0  0  0  0  0
   15.3021  -14.5107   17.0055 N   0  0  0  0  0  0  0  0  0  0  0  0
   11.8065  -15.0477   20.5655 C   0  0  0  0  0  0  0  0  0  0  0  0
   12.1963  -14.1137   21.3516 O   0  0  0  0  0  0  0  0  0  0  0  0
   11.0005  -16.0465   21.1082 N   0  0  0  0  0  0  0  0  0  0  0  0
   10.6432  -16.1025   22.5325 C   0  0  1  0  0  0  0  0  0  0  0  0
    9.2030  -16.4887   22.5842 C   0  0  0  0  0  0  0  0  0  0  0  0
    8.4019  -15.4757   21.8594 C   0  0  0  0  0  0  0  0  0  0  0  0
    8.0531  -14.2128   22.3313 C   0  0  0  0  0  0  0  0  0  0  0  0
    7.3317  -13.6221   21.3640 N   0  0  0  0  0  0  0  0  0  0  0  0
    7.2237  -14.4628   20.3259 C   0  0  0  0  0  0  0  0  0  0  0  0
    7.8792  -15.5916   20.6356 N   0  0  0  0  0  0  0  0  0  0  0  0
   11.5550  -16.9784   23.2741 C   0  0  0  0  0  0  0  0  0  0  0  0
   12.4525  -17.6487   22.6875 O   0  0  0  0  0  0  0  0  0  0  0  0
   11.4690  -17.1050   24.6462 O   0  0  0  0  0  0  0  0  0  0  0  0
  2  1  1  0
  3  2  1  0
  4  3  2  0
  5  3  1  0
  6 13  1  0
  6  5  1  0
  6  7  1  1
  8 12  1  0
  8  7  1  0
  9  8  2  0
 10  9  1  0
 10 11  1  0
 11 12  2  0
 13 15  1  0
 14 13  2  0
 15 16  1  0
 16 17  1  6
 16 23  1  0
 18 17  1  0
 19 18  2  0
 20 19  1  0
 21 20  1  0
 21 22  2  0
 22 18  1  0
 23 24  2  0
 23 25  1  0
M  END
$$$$
