GHH.pdb
     RDKit          3D

 25 26  0  0  1  0  0  0  0  0999 V2000
    8.2177  -19.1689   18.1513 N   0  0  0  0  0  0  0  0  0  0  0  0
    7.6205  -18.9832   19.4478 C   0  0  0  0  0  0  0  0  0  0  0  0
    8.4248  -18.0000   20.2127 C   0  0  0  0  0  0  0  0  0  0  0  0
    9.6885  -18.0725   20.2663 O   0  0  0  0  0  0  0  0  0  0  0  0
    7.7725  -16.9643   20.8937 N   0  0  0  0  0  0  0  0  0  0  0  0
    8.6448  -16.0046   21.6682 C   0  0  1  0  0  0  0  0  0  0  0  0
    7.8985  -14.7023   21.6056 C   0  0  0  0  0  0  0  0  0  0  0  0
    7.9591  -13.9263   20.3766 C   0  0  0  0  0  0  0  0  0  0  0  0
    6.8771  -13.6874   19.5004 C   0  0  0  0  0  0  0  0  0  0  0  0
    7.3485  -12.9399   18.5025 N   0  0  0  0  0  0  0  0  0  0  0  0
    8.6432  -12.6935   18.6889 C   0  0  0  0  0  0  0  0  0  0  0  0
    8.9782  -13.2953   19.8152 N   0  0  0  0  0  0  0  0  0  0  0  0
    8.7005  -16.6374   22.9966 C   0  0  0  0  0  0  0  0  0  0  0  0
    7.6159  -17.0736   23.5214 O   0  0  0  0  0  0  0  0  0  0  0  0
    9.8758  -16.7997   23.7274 N   0  0  0  0  0  0  0  0  0  0  0  0
    9.9224  -17.4783   25.0300 C   0  0  1  0  0  0  0  0  0  0  0  0
   11.1818  -18.2779   25.0365 C   0  0  0  0  0  0  0  0  0  0  0  0
   11.3393  -18.9258   26.3589 C   0  0  0  0  0  0  0  0  0  0  0  0
   10.3302  -19.1395   27.2945 C   0  0  0  0  0  0  0  0  0  0  0  0
   10.8983  -19.7542   28.3454 N   0  0  0  0  0  0  0  0  0  0  0  0
   12.2040  -19.9255   28.0963 C   0  0  0  0  0  0  0  0  0  0  0  0
   12.4656  -19.4176   26.8826 N   0  0  0  0  0  0  0  0  0  0  0  0
    9.7804  -16.5218   26.1317 C   0  0  0  0  0  0  0  0  0  0  0  0
   10.0385  -15.2934   25.9794 O   0  0  0  0  0  0  0  0  0  0  0  0
    9.3572  -16.9268   27.3819 O   0  0  0  0  0  0  0  0  0  0  0  0
  2  1  1  0
  3  2  1  0
  4  3  2  0
  5  3  1  0
  6 13  1  0
  6  5  1  0
  6  7  1  1
  8 12  1  0
  8  7  1  0
  9  8  2  0
 10  9  1  0
 10 11  1  0
 11 12  2  0
 13 15  1  0
 14 13  2  0
 15 16  1  0
 16 17  1  1
 16 23  1  0
 18 17  1  0
 19 18  2  0
 20 19  1  0
 21 20  1  0
 21 22  2  0
 22 18  1  0
 23 24  2  0
 23 25  1  0
M  END
$$$$
