GHH.pdb
     RDKit          3D

 25 26  0  0  1  0  0  0  0  0999 V2000
    6.3373  -19.5717   19.4712 N   0  0  0  0  0  0  0  0  0  0  0  0
    5.9478  -18.4057   20.2198 C   0  0  0  0  0  0  0  0  0  0  0  0
    7.1671  -17.6833   20.6559 C   0  0  0  0  0  0  0  0  0  0  0  0
    8.3235  -18.1776   20.5026 O   0  0  0  0  0  0  0  0  0  0  0  0
    7.0389  -16.4225   21.2526 N   0  0  0  0  0  0  0  0  0  0  0  0
    8.3167  -15.6591   21.5101 C   0  0  1  0  0  0  0  0  0  0  0  0
    7.9309  -14.2222   21.3015 C   0  0  0  0  0  0  0  0  0  0  0  0
    7.7805  -13.7349   19.9390 C   0  0  0  0  0  0  0  0  0  0  0  0
    8.6765  -12.8712   19.2707 C   0  0  0  0  0  0  0  0  0  0  0  0
    8.1778  -12.6691   18.0512 N   0  0  0  0  0  0  0  0  0  0  0  0
    7.0381  -13.3412   17.9068 C   0  0  0  0  0  0  0  0  0  0  0  0
    6.8278  -13.9671   19.0500 N   0  0  0  0  0  0  0  0  0  0  0  0
    8.6286  -16.0339   22.8994 C   0  0  0  0  0  0  0  0  0  0  0  0
    7.8014  -15.7207   23.8266 O   0  0  0  0  0  0  0  0  0  0  0  0
    9.7802  -16.7230   23.2747 N   0  0  0  0  0  0  0  0  0  0  0  0
   10.0831  -17.0787   24.6679 C   0  0  1  0  0  0  0  0  0  0  0  0
   10.1047  -18.5696   24.7202 C   0  0  0  0  0  0  0  0  0  0  0  0
    8.7136  -19.0769   24.6934 C   0  0  0  0  0  0  0  0  0  0  0  0
    7.5574  -18.3024   24.6412 C   0  0  0  0  0  0  0  0  0  0  0  0
    6.5189  -19.1547   24.6303 N   0  0  0  0  0  0  0  0  0  0  0  0
    6.9853  -20.4104   24.6735 C   0  0  0  0  0  0  0  0  0  0  0  0
    8.3251  -20.3549   24.7119 N   0  0  0  0  0  0  0  0  0  0  0  0
   11.3064  -16.4166   25.1305 C   0  0  0  0  0  0  0  0  0  0  0  0
   12.0965  -15.8473   24.3239 O   0  0  0  0  0  0  0  0  0  0  0  0
   11.6435  -16.3886   26.4690 O   0  0  0  0  0  0  0  0  0  0  0  0
  2  1  1  0
  3  2  1  0
  4  3  2  0
  5  3  1  0
  6 13  1  0
  6  5  1  0
  6  7  1  1
  8 12  1  0
  8  7  1  0
  9  8  2  0
 10  9  1  0
 10 11  1  0
 11 12  2  0
 13 15  1  0
 14 13  2  0
 15 16  1  0
 16 17  1  6
 16 23  1  0
 18 17  1  0
 19 18  2  0
 20 19  1  0
 21 20  1  0
 21 22  2  0
 22 18  1  0
 23 24  2  0
 23 25  1  0
M  END
$$$$
