GHH.pdb
     RDKit          3D

 25 26  0  0  1  0  0  0  0  0999 V2000
   14.2106  -24.0793   13.5333 N   0  0  0  0  0  0  0  0  0  0  0  0
   13.6663  -22.7946   13.8871 C   0  0  0  0  0  0  0  0  0  0  0  0
   14.7712  -21.9052   14.3191 C   0  0  0  0  0  0  0  0  0  0  0  0
   15.9409  -22.0198   13.8459 O   0  0  0  0  0  0  0  0  0  0  0  0
   14.5171  -20.9128   15.2743 N   0  0  0  0  0  0  0  0  0  0  0  0
   15.6797  -20.0304   15.6638 C   0  0  1  0  0  0  0  0  0  0  0  0
   15.3105  -18.6798   15.1193 C   0  0  0  0  0  0  0  0  0  0  0  0
   15.5679  -18.4040   13.7143 C   0  0  0  0  0  0  0  0  0  0  0  0
   14.7385  -18.7845   12.6359 C   0  0  0  0  0  0  0  0  0  0  0  0
   15.3278  -18.3446   11.5242 N   0  0  0  0  0  0  0  0  0  0  0  0
   16.4625  -17.7178   11.8262 C   0  0  0  0  0  0  0  0  0  0  0  0
   16.5781  -17.7700   13.1404 N   0  0  0  0  0  0  0  0  0  0  0  0
   15.6768  -20.1418   17.1320 C   0  0  0  0  0  0  0  0  0  0  0  0
   14.6490  -20.6389   17.7140 O   0  0  0  0  0  0  0  0  0  0  0  0
   16.7386  -19.7406   17.9403 N   0  0  0  0  0  0  0  0  0  0  0  0
   16.7137  -19.8437   19.4060 C   0  0  1  0  0  0  0  0  0  0  0  0
   17.2982  -21.1756   19.7383 C   0  0  0  0  0  0  0  0  0  0  0  0
   17.3523  -21.3289   21.2103 C   0  0  0  0  0  0  0  0  0  0  0  0
   18.2591  -20.7114   22.0679 C   0  0  0  0  0  0  0  0  0  0  0  0
   17.9568  -21.1187   23.3120 N   0  0  0  0  0  0  0  0  0  0  0  0
   16.9103  -21.9541   23.2547 C   0  0  0  0  0  0  0  0  0  0  0  0
   16.5471  -22.0775   21.9692 N   0  0  0  0  0  0  0  0  0  0  0  0
   17.3757  -18.6943   20.0300 C   0  0  0  0  0  0  0  0  0  0  0  0
   17.0542  -18.2917   21.1847 O   0  0  0  0  0  0  0  0  0  0  0  0
   18.3796  -18.0055   19.3789 O   0  0  0  0  0  0  0  0  0  0  0  0
  2  1  1  0
  3  2  1  0
  4  3  2  0
  5  3  1  0
  6 13  1  0
  6  5  1  0
  6  7  1  1
  8 12  1  0
  8  7  1  0
  9  8  2  0
 10  9  1  0
 10 11  1  0
 11 12  2  0
 13 15  1  0
 14 13  2  0
 15 16  1  0
 16 17  1  6
 16 23  1  0
 18 17  1  0
 19 18  2  0
 20 19  1  0
 21 20  1  0
 21 22  2  0
 22 18  1  0
 23 24  2  0
 23 25  1  0
M  END
$$$$
