GHH.pdb
     RDKit          3D

 25 26  0  0  1  0  0  0  0  0999 V2000
   11.4386  -23.8027   13.6146 N   0  0  0  0  0  0  0  0  0  0  0  0
   10.5272  -23.2526   14.5835 C   0  0  0  0  0  0  0  0  0  0  0  0
   11.0676  -21.9623   15.0754 C   0  0  0  0  0  0  0  0  0  0  0  0
   12.3045  -21.6944   15.0184 O   0  0  0  0  0  0  0  0  0  0  0  0
   10.1896  -21.0147   15.6169 N   0  0  0  0  0  0  0  0  0  0  0  0
   10.8001  -19.7201   16.0998 C   0  0  1  0  0  0  0  0  0  0  0  0
    9.7556  -18.6862   15.7881 C   0  0  0  0  0  0  0  0  0  0  0  0
    9.7882  -18.0377   14.4863 C   0  0  0  0  0  0  0  0  0  0  0  0
   10.7972  -18.2004   13.5111 C   0  0  0  0  0  0  0  0  0  0  0  0
   10.4539  -17.4392   12.4723 N   0  0  0  0  0  0  0  0  0  0  0  0
    9.3067  -16.8130   12.7243 C   0  0  0  0  0  0  0  0  0  0  0  0
    8.9346  -17.1905   13.9335 N   0  0  0  0  0  0  0  0  0  0  0  0
   11.0128  -19.9913   17.5313 C   0  0  0  0  0  0  0  0  0  0  0  0
   10.0821  -20.5669   18.1982 O   0  0  0  0  0  0  0  0  0  0  0  0
   12.1812  -19.6624   18.2157 N   0  0  0  0  0  0  0  0  0  0  0  0
   12.3799  -19.9444   19.6441 C   0  0  1  0  0  0  0  0  0  0  0  0
   13.5148  -20.9096   19.7225 C   0  0  0  0  0  0  0  0  0  0  0  0
   13.7201  -21.3046   21.1351 C   0  0  0  0  0  0  0  0  0  0  0  0
   13.0818  -20.7535   22.2433 C   0  0  0  0  0  0  0  0  0  0  0  0
   13.5533  -21.3982   23.3237 N   0  0  0  0  0  0  0  0  0  0  0  0
   14.4474  -22.3150   22.9283 C   0  0  0  0  0  0  0  0  0  0  0  0
   14.5438  -22.2519   21.5918 N   0  0  0  0  0  0  0  0  0  0  0  0
   12.5544  -18.7067   20.4099 C   0  0  0  0  0  0  0  0  0  0  0  0
   12.9940  -17.6509   19.8705 O   0  0  0  0  0  0  0  0  0  0  0  0
   12.2438  -18.6460   21.7538 O   0  0  0  0  0  0  0  0  0  0  0  0
  2  1  1  0
  3  2  1  0
  4  3  2  0
  5  3  1  0
  6 13  1  0
  6  5  1  0
  6  7  1  1
  8 12  1  0
  8  7  1  0
  9  8  2  0
 10  9  1  0
 10 11  1  0
 11 12  2  0
 13 15  1  0
 14 13  2  0
 15 16  1  0
 16 17  1  6
 16 23  1  0
 18 17  1  0
 19 18  2  0
 20 19  1  0
 21 20  1  0
 21 22  2  0
 22 18  1  0
 23 24  2  0
 23 25  1  0
M  END
$$$$
