GHH.pdb
     RDKit          3D

 25 26  0  0  1  0  0  0  0  0999 V2000
   11.4980  -15.5740   14.3665 N   0  0  0  0  0  0  0  0  0  0  0  0
   11.6956  -16.4536   15.4887 C   0  0  0  0  0  0  0  0  0  0  0  0
   11.7184  -15.6489   16.7339 C   0  0  0  0  0  0  0  0  0  0  0  0
   12.5280  -14.6868   16.8892 O   0  0  0  0  0  0  0  0  0  0  0  0
   10.8229  -15.9588   17.7653 N   0  0  0  0  0  0  0  0  0  0  0  0
   10.9090  -15.1166   19.0165 C   0  0  1  0  0  0  0  0  0  0  0  0
    9.5448  -15.2400   19.6333 C   0  0  0  0  0  0  0  0  0  0  0  0
    8.4790  -14.3829   19.1375 C   0  0  0  0  0  0  0  0  0  0  0  0
    8.5928  -13.4607   18.0735 C   0  0  0  0  0  0  0  0  0  0  0  0
    7.4000  -12.8814   17.9379 N   0  0  0  0  0  0  0  0  0  0  0  0
    6.5494  -13.3719   18.8366 C   0  0  0  0  0  0  0  0  0  0  0  0
    7.2227  -14.2655   19.5374 N   0  0  0  0  0  0  0  0  0  0  0  0
   11.9991  -15.7719   19.7582 C   0  0  0  0  0  0  0  0  0  0  0  0
   12.1633  -17.0364   19.6305 O   0  0  0  0  0  0  0  0  0  0  0  0
   12.8803  -15.0936   20.5979 N   0  0  0  0  0  0  0  0  0  0  0  0
   13.9647  -15.7623   21.3303 C   0  0  1  0  0  0  0  0  0  0  0  0
   15.1620  -14.8828   21.1931 C   0  0  0  0  0  0  0  0  0  0  0  0
   15.6505  -14.9412   19.7962 C   0  0  0  0  0  0  0  0  0  0  0  0
   15.4646  -13.9663   18.8194 C   0  0  0  0  0  0  0  0  0  0  0  0
   16.0658  -14.4138   17.7043 N   0  0  0  0  0  0  0  0  0  0  0  0
   16.6088  -15.6134   17.9536 C   0  0  0  0  0  0  0  0  0  0  0  0
   16.3513  -15.9286   19.2319 N   0  0  0  0  0  0  0  0  0  0  0  0
   13.5651  -16.0684   22.7070 C   0  0  0  0  0  0  0  0  0  0  0  0
   12.4363  -15.7238   23.1608 O   0  0  0  0  0  0  0  0  0  0  0  0
   14.4084  -16.7477   23.5635 O   0  0  0  0  0  0  0  0  0  0  0  0
  2  1  1  0
  3  2  1  0
  4  3  2  0
  5  3  1  0
  6 13  1  0
  6  5  1  0
  6  7  1  1
  8 12  1  0
  8  7  1  0
  9  8  2  0
 10  9  1  0
 10 11  1  0
 11 12  2  0
 13 15  1  0
 14 13  2  0
 15 16  1  0
 16 17  1  1
 16 23  1  0
 18 17  1  0
 19 18  2  0
 20 19  1  0
 21 20  1  0
 21 22  2  0
 22 18  1  0
 23 24  2  0
 23 25  1  0
M  END
$$$$
