GHH.pdb
     RDKit          3D

 25 26  0  0  1  0  0  0  0  0999 V2000
    8.7524  -12.8116   18.2969 N   0  0  0  0  0  0  0  0  0  0  0  0
    8.1991  -13.9437   18.9927 C   0  0  0  0  0  0  0  0  0  0  0  0
    8.6470  -13.9071   20.4057 C   0  0  0  0  0  0  0  0  0  0  0  0
    9.6033  -13.1657   20.7813 O   0  0  0  0  0  0  0  0  0  0  0  0
    7.9974  -14.7117   21.3505 N   0  0  0  0  0  0  0  0  0  0  0  0
    8.5003  -14.6314   22.7727 C   0  0  1  0  0  0  0  0  0  0  0  0
    7.3134  -15.0322   23.6019 C   0  0  0  0  0  0  0  0  0  0  0  0
    6.7975  -14.0850   24.5782 C   0  0  0  0  0  0  0  0  0  0  0  0
    7.3412  -12.8110   24.8553 C   0  0  0  0  0  0  0  0  0  0  0  0
    6.5806  -12.2670   25.8052 N   0  0  0  0  0  0  0  0  0  0  0  0
    5.6027  -13.1046   26.1426 C   0  0  0  0  0  0  0  0  0  0  0  0
    5.7590  -14.1803   25.3933 N   0  0  0  0  0  0  0  0  0  0  0  0
    9.6167  -15.5913   22.7627 C   0  0  0  0  0  0  0  0  0  0  0  0
   10.4888  -15.5183   21.8265 O   0  0  0  0  0  0  0  0  0  0  0  0
    9.7912  -16.5850   23.7239 N   0  0  0  0  0  0  0  0  0  0  0  0
   10.2801  -16.3094   25.0820 C   0  0  1  0  0  0  0  0  0  0  0  0
    9.4262  -15.2081   25.6149 C   0  0  0  0  0  0  0  0  0  0  0  0
    9.9053  -14.8315   26.9647 C   0  0  0  0  0  0  0  0  0  0  0  0
   11.2146  -14.5076   27.3112 C   0  0  0  0  0  0  0  0  0  0  0  0
   11.2111  -14.2282   28.6253 N   0  0  0  0  0  0  0  0  0  0  0  0
    9.9641  -14.3660   29.0968 C   0  0  0  0  0  0  0  0  0  0  0  0
    9.1730  -14.7343   28.0778 N   0  0  0  0  0  0  0  0  0  0  0  0
   10.3090  -17.5299   25.8933 C   0  0  0  0  0  0  0  0  0  0  0  0
   11.3992  -18.0619   26.2502 O   0  0  0  0  0  0  0  0  0  0  0  0
    9.1431  -18.1470   26.3007 O   0  0  0  0  0  0  0  0  0  0  0  0
  2  1  1  0
  3  2  1  0
  4  3  2  0
  5  3  1  0
  6 13  1  0
  6  5  1  0
  6  7  1  1
  8 12  1  0
  8  7  1  0
  9  8  2  0
 10  9  1  0
 10 11  1  0
 11 12  2  0
 13 15  1  0
 14 13  2  0
 15 16  1  0
 16 17  1  1
 16 23  1  0
 18 17  1  0
 19 18  2  0
 20 19  1  0
 21 20  1  0
 21 22  2  0
 22 18  1  0
 23 24  2  0
 23 25  1  0
M  END
$$$$
