GHH.pdb
     RDKit          3D

 25 26  0  0  1  0  0  0  0  0999 V2000
    9.1741  -19.2217   18.7007 N   0  0  0  0  0  0  0  0  0  0  0  0
    9.0548  -19.8012   20.0128 C   0  0  0  0  0  0  0  0  0  0  0  0
    8.3709  -18.8354   20.9061 C   0  0  0  0  0  0  0  0  0  0  0  0
    8.5423  -17.5855   20.7898 O   0  0  0  0  0  0  0  0  0  0  0  0
    7.5134  -19.3152   21.9043 N   0  0  0  0  0  0  0  0  0  0  0  0
    6.6887  -18.2881   22.6437 C   0  0  1  0  0  0  0  0  0  0  0  0
    5.4140  -19.0121   22.9721 C   0  0  0  0  0  0  0  0  0  0  0  0
    4.3333  -18.9905   21.9984 C   0  0  0  0  0  0  0  0  0  0  0  0
    4.3406  -18.2810   20.7769 C   0  0  0  0  0  0  0  0  0  0  0  0
    3.1714  -18.5236   20.1847 N   0  0  0  0  0  0  0  0  0  0  0  0
    2.4340  -19.3311   20.9435 C   0  0  0  0  0  0  0  0  0  0  0  0
    3.1544  -19.5920   22.0187 N   0  0  0  0  0  0  0  0  0  0  0  0
    7.5486  -17.9693   23.7957 C   0  0  0  0  0  0  0  0  0  0  0  0
    8.3076  -18.8840   24.2747 O   0  0  0  0  0  0  0  0  0  0  0  0
    7.5947  -16.7161   24.4032 N   0  0  0  0  0  0  0  0  0  0  0  0
    8.4633  -16.4122   25.5489 C   0  0  1  0  0  0  0  0  0  0  0  0
    8.3474  -14.9427   25.7792 C   0  0  0  0  0  0  0  0  0  0  0  0
    9.2342  -14.5551   26.9003 C   0  0  0  0  0  0  0  0  0  0  0  0
   10.4126  -15.1955   27.2749 C   0  0  0  0  0  0  0  0  0  0  0  0
   10.9014  -14.5236   28.3307 N   0  0  0  0  0  0  0  0  0  0  0  0
   10.0787  -13.5053   28.6179 C   0  0  0  0  0  0  0  0  0  0  0  0
    9.0639  -13.5310   27.7409 N   0  0  0  0  0  0  0  0  0  0  0  0
    8.1353  -17.2561   26.7018 C   0  0  0  0  0  0  0  0  0  0  0  0
    6.9391  -17.5482   26.9894 O   0  0  0  0  0  0  0  0  0  0  0  0
    9.1232  -17.7665   27.5201 O   0  0  0  0  0  0  0  0  0  0  0  0
  2  1  1  0
  3  2  1  0
  4  3  2  0
  5  3  1  0
  6 13  1  0
  6  5  1  0
  6  7  1  1
  8 12  1  0
  8  7  1  0
  9  8  2  0
 10  9  1  0
 10 11  1  0
 11 12  2  0
 13 15  1  0
 14 13  2  0
 15 16  1  0
 16 17  1  1
 16 23  1  0
 18 17  1  0
 19 18  2  0
 20 19  1  0
 21 20  1  0
 21 22  2  0
 22 18  1  0
 23 24  2  0
 23 25  1  0
M  END
$$$$
