MND.pdb
     RDKit          3D

 25 24  0  0  1  0  0  0  0  0999 V2000
   28.5320  -24.3903  -22.6361 C   0  0  0  0  0  0  0  0  0  0  0  0
   28.1833  -23.5707  -21.0380 S   0  0  0  0  0  0  0  0  0  0  0  0
   27.7052  -24.8462  -19.8753 C   0  0  0  0  0  0  0  0  0  0  0  0
   27.3132  -24.3039  -18.5281 C   0  0  0  0  0  0  0  0  0  0  0  0
   28.4626  -23.7669  -17.7352 C   0  0  2  0  0  0  0  0  0  0  0  0
   29.3961  -24.7905  -17.3464 N   0  0  0  0  0  0  0  0  0  0  0  0
   27.8716  -23.0737  -16.5602 C   0  0  0  0  0  0  0  0  0  0  0  0
   28.4699  -23.1569  -15.4610 O   0  0  0  0  0  0  0  0  0  0  0  0
   28.3834  -19.3136  -17.0481 N   0  0  0  0  0  0  0  0  0  0  0  0
   27.4343  -19.4048  -15.9994 C   0  0  0  0  0  0  0  0  0  0  0  0
   26.6818  -18.3712  -15.8775 O   0  0  0  0  0  0  0  0  0  0  0  0
   27.2698  -20.5569  -15.0890 C   0  0  0  0  0  0  0  0  0  0  0  0
   26.1925  -21.5271  -15.4962 C   0  0  2  0  0  0  0  0  0  0  0  0
   26.6680  -22.3169  -16.5908 N   0  0  0  0  0  0  0  0  0  0  0  0
   24.8829  -20.8887  -15.7243 C   0  0  0  0  0  0  0  0  0  0  0  0
   24.5923  -20.4391  -16.8834 O   0  0  0  0  0  0  0  0  0  0  0  0
   23.8704  -20.7140  -14.7436 N   0  0  0  0  0  0  0  0  0  0  0  0
   22.4536  -20.4807  -15.1317 C   0  0  1  0  0  0  0  0  0  0  0  0
   22.1060  -21.6239  -16.0228 C   0  0  0  0  0  0  0  0  0  0  0  0
   20.8943  -21.4987  -16.8177 C   0  0  0  0  0  0  0  0  0  0  0  0
   20.6872  -20.4265  -17.4380 O   0  0  0  0  0  0  0  0  0  0  0  0
   21.6410  -20.3487  -13.9196 C   0  0  0  0  0  0  0  0  0  0  0  0
   21.8783  -20.9972  -12.8941 O   0  0  0  0  0  0  0  0  0  0  0  0
   19.9585  -22.5036  -16.9211 O   0  0  0  0  0  0  0  0  0  0  0  0
   20.5708  -19.4741  -13.9074 O   0  0  0  0  0  0  0  0  0  0  0  0
  1  2  1  0
  3  2  1  0
  4  5  1  0
  4  3  1  0
  5  6  1  1
  7  5  1  0
  7  8  2  0
  9 10  1  0
 10 11  2  0
 12 10  1  0
 13 12  1  6
 13 14  1  0
 14  7  1  0
 15 13  1  0
 16 15  2  0
 17 15  1  0
 18 17  1  0
 18 22  1  0
 18 19  1  6
 20 19  1  0
 20 24  1  0
 21 20  2  0
 22 23  2  0
 22 25  1  0
M  END
$$$$
