MND.pdb
     RDKit          3D

 25 24  0  0  1  0  0  0  0  0999 V2000
   26.3402  -14.8672  -14.3000 C   0  0  0  0  0  0  0  0  0  0  0  0
   27.1533  -14.7273  -15.9329 S   0  0  0  0  0  0  0  0  0  0  0  0
   26.6538  -16.1472  -16.9032 C   0  0  0  0  0  0  0  0  0  0  0  0
   25.1627  -16.2575  -17.0687 C   0  0  0  0  0  0  0  0  0  0  0  0
   24.4806  -16.9662  -15.9416 C   0  0  2  0  0  0  0  0  0  0  0  0
   25.0230  -18.2767  -15.6994 N   0  0  0  0  0  0  0  0  0  0  0  0
   23.0365  -17.0149  -16.2921 C   0  0  0  0  0  0  0  0  0  0  0  0
   22.6710  -16.4904  -17.3711 O   0  0  0  0  0  0  0  0  0  0  0  0
   20.9694  -21.0849  -14.7287 N   0  0  0  0  0  0  0  0  0  0  0  0
   20.4417  -20.0764  -15.5733 C   0  0  0  0  0  0  0  0  0  0  0  0
   20.4055  -20.3952  -16.8169 O   0  0  0  0  0  0  0  0  0  0  0  0
   19.9572  -18.7528  -15.1298 C   0  0  0  0  0  0  0  0  0  0  0  0
   20.6335  -17.5837  -15.7961 C   0  0  2  0  0  0  0  0  0  0  0  0
   22.0306  -17.6176  -15.4875 N   0  0  0  0  0  0  0  0  0  0  0  0
   19.9767  -16.2919  -15.5235 C   0  0  0  0  0  0  0  0  0  0  0  0
   20.4171  -15.5441  -14.5871 O   0  0  0  0  0  0  0  0  0  0  0  0
   18.8554  -15.7744  -16.2253 N   0  0  0  0  0  0  0  0  0  0  0  0
   18.3129  -14.4232  -15.9219 C   0  0  1  0  0  0  0  0  0  0  0  0
   19.4317  -13.4842  -16.2192 C   0  0  0  0  0  0  0  0  0  0  0  0
   19.1473  -12.0616  -16.1145 C   0  0  0  0  0  0  0  0  0  0  0  0
   17.9971  -11.7000  -15.7627 O   0  0  0  0  0  0  0  0  0  0  0  0
   17.0855  -14.2157  -16.6950 C   0  0  0  0  0  0  0  0  0  0  0  0
   15.9994  -13.9775  -16.1544 O   0  0  0  0  0  0  0  0  0  0  0  0
   20.0827  -11.0881  -16.3859 O   0  0  0  0  0  0  0  0  0  0  0  0
   17.1280  -14.2853  -18.0747 O   0  0  0  0  0  0  0  0  0  0  0  0
  1  2  1  0
  3  2  1  0
  4  5  1  0
  4  3  1  0
  5  6  1  6
  7  5  1  0
  7  8  2  0
  9 10  1  0
 10 11  2  0
 12 10  1  0
 13 12  1  1
 13 14  1  0
 14  7  1  0
 15 13  1  0
 16 15  2  0
 17 15  1  0
 18 17  1  0
 18 22  1  0
 18 19  1  6
 20 19  1  0
 20 24  1  0
 21 20  2  0
 22 23  2  0
 22 25  1  0
M  END
$$$$
