MND.pdb
     RDKit          3D

 25 24  0  0  1  0  0  0  0  0999 V2000
   23.3568  -26.1229  -17.2448 C   0  0  0  0  0  0  0  0  0  0  0  0
   23.1845  -27.5002  -16.0529 S   0  0  0  0  0  0  0  0  0  0  0  0
   23.0382  -26.7798  -14.4199 C   0  0  0  0  0  0  0  0  0  0  0  0
   22.8041  -25.2941  -14.4458 C   0  0  0  0  0  0  0  0  0  0  0  0
   23.9788  -24.5059  -14.9326 C   0  0  2  0  0  0  0  0  0  0  0  0
   25.2332  -25.0279  -14.4590 N   0  0  0  0  0  0  0  0  0  0  0  0
   23.7537  -23.1045  -14.4899 C   0  0  0  0  0  0  0  0  0  0  0  0
   22.6142  -22.6071  -14.6553 O   0  0  0  0  0  0  0  0  0  0  0  0
   25.4416  -22.2693  -11.2420 N   0  0  0  0  0  0  0  0  0  0  0  0
   26.1359  -21.1284  -11.7164 C   0  0  0  0  0  0  0  0  0  0  0  0
   27.1393  -20.7827  -10.9931 O   0  0  0  0  0  0  0  0  0  0  0  0
   25.7910  -20.3567  -12.9284 C   0  0  0  0  0  0  0  0  0  0  0  0
   24.5906  -20.8721  -13.6775 C   0  0  2  0  0  0  0  0  0  0  0  0
   24.7431  -22.2795  -13.8876 N   0  0  0  0  0  0  0  0  0  0  0  0
   24.2827  -20.1003  -14.8957 C   0  0  0  0  0  0  0  0  0  0  0  0
   25.1825  -19.9415  -15.7875 O   0  0  0  0  0  0  0  0  0  0  0  0
   23.0349  -19.4884  -15.1890 N   0  0  0  0  0  0  0  0  0  0  0  0
   22.7370  -18.9573  -16.5460 C   0  0  1  0  0  0  0  0  0  0  0  0
   22.9965  -20.0975  -17.4704 C   0  0  0  0  0  0  0  0  0  0  0  0
   22.6770  -19.8966  -18.8751 C   0  0  0  0  0  0  0  0  0  0  0  0
   22.6891  -18.7283  -19.3360 O   0  0  0  0  0  0  0  0  0  0  0  0
   21.3727  -18.4231  -16.5619 C   0  0  0  0  0  0  0  0  0  0  0  0
   20.4998  -18.8235  -15.7832 O   0  0  0  0  0  0  0  0  0  0  0  0
   22.3584  -20.9307  -19.7268 O   0  0  0  0  0  0  0  0  0  0  0  0
   21.0358  -17.4386  -17.4717 O   0  0  0  0  0  0  0  0  0  0  0  0
  1  2  1  0
  3  2  1  0
  4  5  1  0
  4  3  1  0
  5  6  1  1
  7  5  1  0
  7  8  2  0
  9 10  1  0
 10 11  2  0
 12 10  1  0
 13 12  1  6
 13 14  1  0
 14  7  1  0
 15 13  1  0
 16 15  2  0
 17 15  1  0
 18 17  1  0
 18 22  1  0
 18 19  1  6
 20 19  1  0
 20 24  1  0
 21 20  2  0
 22 23  2  0
 22 25  1  0
M  END
$$$$
