MND.pdb
     RDKit          3D

 25 24  0  0  1  0  0  0  0  0999 V2000
   27.4783  -12.7509  -14.8752 C   0  0  0  0  0  0  0  0  0  0  0  0
   27.3718  -14.5427  -15.2289 S   0  0  0  0  0  0  0  0  0  0  0  0
   27.1396  -14.7269  -16.9951 C   0  0  0  0  0  0  0  0  0  0  0  0
   25.8509  -14.1288  -17.4894 C   0  0  0  0  0  0  0  0  0  0  0  0
   24.6319  -14.8848  -17.0645 C   0  0  2  0  0  0  0  0  0  0  0  0
   24.6431  -16.2531  -17.5096 N   0  0  0  0  0  0  0  0  0  0  0  0
   23.4665  -14.1325  -17.5996 C   0  0  0  0  0  0  0  0  0  0  0  0
   23.0190  -14.4563  -18.7256 O   0  0  0  0  0  0  0  0  0  0  0  0
   18.9567  -11.6032  -18.3169 N   0  0  0  0  0  0  0  0  0  0  0  0
   19.2490  -12.9590  -18.0248 C   0  0  0  0  0  0  0  0  0  0  0  0
   18.2901  -13.7732  -18.2836 O   0  0  0  0  0  0  0  0  0  0  0  0
   20.5232  -13.4617  -17.4705 C   0  0  0  0  0  0  0  0  0  0  0  0
   21.6197  -12.4326  -17.3903 C   0  0  2  0  0  0  0  0  0  0  0  0
   22.8161  -13.0639  -16.9231 N   0  0  0  0  0  0  0  0  0  0  0  0
   21.2344  -11.2208  -16.6437 C   0  0  0  0  0  0  0  0  0  0  0  0
   21.3036  -11.2151  -15.3688 O   0  0  0  0  0  0  0  0  0  0  0  0
   20.7727  -10.0089  -17.2232 N   0  0  0  0  0  0  0  0  0  0  0  0
   20.9629   -8.7041  -16.5352 C   0  0  1  0  0  0  0  0  0  0  0  0
   21.5843   -9.0477  -15.2246 C   0  0  0  0  0  0  0  0  0  0  0  0
   21.4189   -8.0899  -14.1424 C   0  0  0  0  0  0  0  0  0  0  0  0
   20.8468   -6.9983  -14.3843 O   0  0  0  0  0  0  0  0  0  0  0  0
   21.7477   -7.8178  -17.3986 C   0  0  0  0  0  0  0  0  0  0  0  0
   22.0585   -8.1300  -18.5538 O   0  0  0  0  0  0  0  0  0  0  0  0
   21.8637   -8.3234  -12.8602 O   0  0  0  0  0  0  0  0  0  0  0  0
   22.1611   -6.5890  -16.9196 O   0  0  0  0  0  0  0  0  0  0  0  0
  1  2  1  0
  3  2  1  0
  4  5  1  0
  4  3  1  0
  5  6  1  6
  7  5  1  0
  7  8  2  0
  9 10  1  0
 10 11  2  0
 12 10  1  0
 13 12  1  1
 13 14  1  0
 14  7  1  0
 15 13  1  0
 16 15  2  0
 17 15  1  0
 18 17  1  0
 18 22  1  0
 18 19  1  1
 20 19  1  0
 20 24  1  0
 21 20  2  0
 22 23  2  0
 22 25  1  0
M  END
$$$$
