MND.pdb
     RDKit          3D

 25 24  0  0  1  0  0  0  0  0999 V2000
   29.6457  -19.6196   -4.9946 C   0  0  0  0  0  0  0  0  0  0  0  0
   27.8507  -19.7694   -4.6741 S   0  0  0  0  0  0  0  0  0  0  0  0
   27.1437  -20.7161   -6.0199 C   0  0  0  0  0  0  0  0  0  0  0  0
   27.2495  -20.0242   -7.3514 C   0  0  0  0  0  0  0  0  0  0  0  0
   25.9421  -19.8837   -8.0647 C   0  0  2  0  0  0  0  0  0  0  0  0
   24.9280  -20.7622   -7.5449 N   0  0  0  0  0  0  0  0  0  0  0  0
   26.2211  -20.1409   -9.5023 C   0  0  0  0  0  0  0  0  0  0  0  0
   27.3648  -19.8716   -9.9409 O   0  0  0  0  0  0  0  0  0  0  0  0
   27.6785  -20.2767  -14.4503 N   0  0  0  0  0  0  0  0  0  0  0  0
   26.8226  -21.1912  -13.7870 C   0  0  0  0  0  0  0  0  0  0  0  0
   26.2128  -22.0063  -14.5701 O   0  0  0  0  0  0  0  0  0  0  0  0
   26.6040  -21.2573  -12.3271 C   0  0  0  0  0  0  0  0  0  0  0  0
   25.3788  -20.5267  -11.8444 C   0  0  2  0  0  0  0  0  0  0  0  0
   25.2791  -20.6745  -10.4244 N   0  0  0  0  0  0  0  0  0  0  0  0
   24.1539  -20.8810  -12.5851 C   0  0  0  0  0  0  0  0  0  0  0  0
   23.6332  -22.0364  -12.4297 O   0  0  0  0  0  0  0  0  0  0  0  0
   23.4668  -20.0323  -13.4934 N   0  0  0  0  0  0  0  0  0  0  0  0
   22.2044  -20.4664  -14.1493 C   0  0  1  0  0  0  0  0  0  0  0  0
   22.5965  -21.6141  -15.0159 C   0  0  0  0  0  0  0  0  0  0  0  0
   23.2050  -21.2972  -16.2985 C   0  0  0  0  0  0  0  0  0  0  0  0
   23.6442  -22.2367  -17.0070 O   0  0  0  0  0  0  0  0  0  0  0  0
   21.2057  -20.7599  -13.1180 C   0  0  0  0  0  0  0  0  0  0  0  0
   21.5216  -21.1457  -11.9866 O   0  0  0  0  0  0  0  0  0  0  0  0
   23.3247  -20.0104  -16.7739 O   0  0  0  0  0  0  0  0  0  0  0  0
   19.8626  -20.6048  -13.4049 O   0  0  0  0  0  0  0  0  0  0  0  0
  1  2  1  0
  3  2  1  0
  4  5  1  0
  4  3  1  0
  5  6  1  1
  7  5  1  0
  7  8  2  0
  9 10  1  0
 10 11  2  0
 12 10  1  0
 13 12  1  6
 13 14  1  0
 14  7  1  0
 15 13  1  0
 16 15  2  0
 17 15  1  0
 18 17  1  0
 18 22  1  0
 18 19  1  1
 20 19  1  0
 20 24  1  0
 21 20  2  0
 22 23  2  0
 22 25  1  0
M  END
$$$$
