MND.pdb
     RDKit          3D

 25 24  0  0  1  0  0  0  0  0999 V2000
   28.3913  -18.1268   -4.9096 C   0  0  0  0  0  0  0  0  0  0  0  0
   27.7715  -18.4476   -6.6008 S   0  0  0  0  0  0  0  0  0  0  0  0
   28.0626  -20.1781   -6.9584 C   0  0  0  0  0  0  0  0  0  0  0  0
   27.7613  -20.5477   -8.3851 C   0  0  0  0  0  0  0  0  0  0  0  0
   26.3093  -20.4667   -8.7363 C   0  0  2  0  0  0  0  0  0  0  0  0
   25.4756  -21.2089   -7.8284 N   0  0  0  0  0  0  0  0  0  0  0  0
   26.1899  -20.9589  -10.1342 C   0  0  0  0  0  0  0  0  0  0  0  0
   26.8677  -21.9594  -10.4697 O   0  0  0  0  0  0  0  0  0  0  0  0
   24.8821  -24.0919  -13.8513 N   0  0  0  0  0  0  0  0  0  0  0  0
   24.0170  -23.1849  -13.1897 C   0  0  0  0  0  0  0  0  0  0  0  0
   22.8400  -23.1120  -13.6983 O   0  0  0  0  0  0  0  0  0  0  0  0
   24.3718  -22.3640  -12.0134 C   0  0  0  0  0  0  0  0  0  0  0  0
   24.9837  -21.0284  -12.3442 C   0  0  2  0  0  0  0  0  0  0  0  0
   25.3567  -20.3741  -11.1273 N   0  0  0  0  0  0  0  0  0  0  0  0
   24.1557  -20.2114  -13.2506 C   0  0  0  0  0  0  0  0  0  0  0  0
   23.7990  -19.0381  -12.8954 O   0  0  0  0  0  0  0  0  0  0  0  0
   23.6937  -20.6152  -14.5316 N   0  0  0  0  0  0  0  0  0  0  0  0
   23.2446  -19.6171  -15.5388 C   0  0  1  0  0  0  0  0  0  0  0  0
   24.4963  -18.9657  -16.0191 C   0  0  0  0  0  0  0  0  0  0  0  0
   24.3521  -17.7314  -16.7748 C   0  0  0  0  0  0  0  0  0  0  0  0
   23.1967  -17.3260  -17.0544 O   0  0  0  0  0  0  0  0  0  0  0  0
   22.4473  -20.2966  -16.5633 C   0  0  0  0  0  0  0  0  0  0  0  0
   22.9404  -21.1209  -17.3418 O   0  0  0  0  0  0  0  0  0  0  0  0
   25.4269  -16.9840  -17.2019 O   0  0  0  0  0  0  0  0  0  0  0  0
   21.0983  -20.0173  -16.6749 O   0  0  0  0  0  0  0  0  0  0  0  0
  1  2  1  0
  3  2  1  0
  4  5  1  0
  4  3  1  0
  5  6  1  1
  7  5  1  0
  7  8  2  0
  9 10  1  0
 10 11  2  0
 12 10  1  0
 13 12  1  1
 13 14  1  0
 14  7  1  0
 15 13  1  0
 16 15  2  0
 17 15  1  0
 18 17  1  0
 18 22  1  0
 18 19  1  6
 20 19  1  0
 20 24  1  0
 21 20  2  0
 22 23  2  0
 22 25  1  0
M  END
$$$$
