MND.pdb
     RDKit          3D

 25 24  0  0  1  0  0  0  0  0999 V2000
   20.0291  -17.0426  -17.0871 C   0  0  0  0  0  0  0  0  0  0  0  0
   20.1416  -15.5820  -15.9910 S   0  0  0  0  0  0  0  0  0  0  0  0
   20.5055  -14.1647  -17.0235 C   0  0  0  0  0  0  0  0  0  0  0  0
   20.8449  -12.9288  -16.2360 C   0  0  0  0  0  0  0  0  0  0  0  0
   21.0904  -11.7208  -17.0837 C   0  0  2  0  0  0  0  0  0  0  0  0
   21.7566  -12.0351  -18.3197 N   0  0  0  0  0  0  0  0  0  0  0  0
   21.8790  -10.7775  -16.2478 C   0  0  0  0  0  0  0  0  0  0  0  0
   21.4172  -10.4496  -15.1288 O   0  0  0  0  0  0  0  0  0  0  0  0
   25.0071  -11.6886  -14.6480 N   0  0  0  0  0  0  0  0  0  0  0  0
   25.8133  -10.7525  -15.3426 C   0  0  0  0  0  0  0  0  0  0  0  0
   27.0615  -11.0531  -15.3757 O   0  0  0  0  0  0  0  0  0  0  0  0
   25.3273   -9.5190  -15.9951 C   0  0  0  0  0  0  0  0  0  0  0  0
   23.8514   -9.2665  -15.8347 C   0  0  2  0  0  0  0  0  0  0  0  0
   23.1290  -10.2149  -16.6265 N   0  0  0  0  0  0  0  0  0  0  0  0
   23.4681   -7.8606  -16.0611 C   0  0  0  0  0  0  0  0  0  0  0  0
   23.4510   -7.3937  -17.2492 O   0  0  0  0  0  0  0  0  0  0  0  0
   23.1027   -6.9339  -15.0486 N   0  0  0  0  0  0  0  0  0  0  0  0
   22.4952   -5.6197  -15.3896 C   0  0  1  0  0  0  0  0  0  0  0  0
   21.3030   -5.9515  -16.2206 C   0  0  0  0  0  0  0  0  0  0  0  0
   20.4055   -4.8574  -16.5568 C   0  0  0  0  0  0  0  0  0  0  0  0
   20.8537   -3.6842  -16.5479 O   0  0  0  0  0  0  0  0  0  0  0  0
   22.2234   -4.8828  -14.1526 C   0  0  0  0  0  0  0  0  0  0  0  0
   21.7067   -3.7596  -14.1555 O   0  0  0  0  0  0  0  0  0  0  0  0
   19.0814   -5.0476  -16.8838 O   0  0  0  0  0  0  0  0  0  0  0  0
   22.5499   -5.4493  -12.9349 O   0  0  0  0  0  0  0  0  0  0  0  0
  1  2  1  0
  3  2  1  0
  4  5  1  0
  4  3  1  0
  5  6  1  6
  7  5  1  0
  7  8  2  0
  9 10  1  0
 10 11  2  0
 12 10  1  0
 13 12  1  6
 13 14  1  0
 14  7  1  0
 15 13  1  0
 16 15  2  0
 17 15  1  0
 18 17  1  0
 18 22  1  0
 18 19  1  1
 20 19  1  0
 20 24  1  0
 21 20  2  0
 22 23  2  0
 22 25  1  0
M  END
$$$$
