MND.pdb
     RDKit          3D

 25 24  0  0  1  0  0  0  0  0999 V2000
   26.9319  -19.8629   -4.1292 C   0  0  0  0  0  0  0  0  0  0  0  0
   28.6798  -19.4425   -4.4686 S   0  0  0  0  0  0  0  0  0  0  0  0
   28.9786  -19.7573   -6.2061 C   0  0  0  0  0  0  0  0  0  0  0  0
   27.7546  -19.5736   -7.0611 C   0  0  0  0  0  0  0  0  0  0  0  0
   27.3725  -20.7932   -7.8388 C   0  0  2  0  0  0  0  0  0  0  0  0
   28.4916  -21.6590   -8.1002 N   0  0  0  0  0  0  0  0  0  0  0  0
   26.7372  -20.3070   -9.0920 C   0  0  0  0  0  0  0  0  0  0  0  0
   26.2210  -19.1640   -9.0895 O   0  0  0  0  0  0  0  0  0  0  0  0
   26.6235  -18.5760  -13.6574 N   0  0  0  0  0  0  0  0  0  0  0  0
   27.2706  -19.8370  -13.6523 C   0  0  0  0  0  0  0  0  0  0  0  0
   28.1060  -20.0053  -14.6132 O   0  0  0  0  0  0  0  0  0  0  0  0
   27.0517  -20.9096  -12.6598 C   0  0  0  0  0  0  0  0  0  0  0  0
   26.1333  -20.5353  -11.5266 C   0  0  2  0  0  0  0  0  0  0  0  0
   26.6712  -21.0485  -10.3037 N   0  0  0  0  0  0  0  0  0  0  0  0
   24.7230  -20.8894  -11.7722 C   0  0  0  0  0  0  0  0  0  0  0  0
   23.8754  -20.8053  -10.8211 O   0  0  0  0  0  0  0  0  0  0  0  0
   24.1900  -21.3350  -13.0110 N   0  0  0  0  0  0  0  0  0  0  0  0
   22.7415  -21.1993  -13.3203 C   0  0  1  0  0  0  0  0  0  0  0  0
   22.2664  -20.0835  -12.4536 C   0  0  0  0  0  0  0  0  0  0  0  0
   20.8312  -19.8542  -12.3974 C   0  0  0  0  0  0  0  0  0  0  0  0
   20.0578  -20.8375  -12.5086 O   0  0  0  0  0  0  0  0  0  0  0  0
   22.5768  -20.9992  -14.7625 C   0  0  0  0  0  0  0  0  0  0  0  0
   23.1835  -20.1151  -15.3780 O   0  0  0  0  0  0  0  0  0  0  0  0
   20.2777  -18.6045  -12.2293 O   0  0  0  0  0  0  0  0  0  0  0  0
   21.7185  -21.8183  -15.4715 O   0  0  0  0  0  0  0  0  0  0  0  0
  1  2  1  0
  3  2  1  0
  4  5  1  0
  4  3  1  0
  5  6  1  6
  7  5  1  0
  7  8  2  0
  9 10  1  0
 10 11  2  0
 12 10  1  0
 13 12  1  6
 13 14  1  0
 14  7  1  0
 15 13  1  0
 16 15  2  0
 17 15  1  0
 18 17  1  0
 18 22  1  0
 18 19  1  1
 20 19  1  0
 20 24  1  0
 21 20  2  0
 22 23  2  0
 22 25  1  0
M  END
$$$$
