MND.pdb
     RDKit          3D

 25 24  0  0  1  0  0  0  0  0999 V2000
   28.6395  -19.7478   -3.2685 C   0  0  0  0  0  0  0  0  0  0  0  0
   28.8268  -19.4167   -5.0581 S   0  0  0  0  0  0  0  0  0  0  0  0
   27.2695  -19.8228   -5.8435 C   0  0  0  0  0  0  0  0  0  0  0  0
   27.3111  -19.6992   -7.3421 C   0  0  0  0  0  0  0  0  0  0  0  0
   26.0321  -20.0846   -8.0158 C   0  0  2  0  0  0  0  0  0  0  0  0
   25.5867  -21.4031   -7.6502 N   0  0  0  0  0  0  0  0  0  0  0  0
   26.2768  -19.9625   -9.4772 C   0  0  0  0  0  0  0  0  0  0  0  0
   26.4092  -18.8131   -9.9614 O   0  0  0  0  0  0  0  0  0  0  0  0
   29.2104  -20.0976  -11.0700 N   0  0  0  0  0  0  0  0  0  0  0  0
   28.9767  -21.2693  -11.8323 C   0  0  0  0  0  0  0  0  0  0  0  0
   30.0406  -21.9198  -12.1398 O   0  0  0  0  0  0  0  0  0  0  0  0
   27.6527  -21.7586  -12.2693 C   0  0  0  0  0  0  0  0  0  0  0  0
   26.4905  -20.9272  -11.7940 C   0  0  2  0  0  0  0  0  0  0  0  0
   26.3727  -21.0619  -10.3741 N   0  0  0  0  0  0  0  0  0  0  0  0
   25.2436  -21.1804  -12.5394 C   0  0  0  0  0  0  0  0  0  0  0  0
   24.7433  -22.3550  -12.5538 O   0  0  0  0  0  0  0  0  0  0  0  0
   24.5130  -20.2099  -13.2754 N   0  0  0  0  0  0  0  0  0  0  0  0
   23.1969  -20.5362  -13.8867 C   0  0  1  0  0  0  0  0  0  0  0  0
   22.1907  -19.8726  -13.0096 C   0  0  0  0  0  0  0  0  0  0  0  0
   20.7884  -20.1121  -13.3125 C   0  0  0  0  0  0  0  0  0  0  0  0
   20.4985  -20.8780  -14.2647 O   0  0  0  0  0  0  0  0  0  0  0  0
   23.2007  -20.1078  -15.2879 C   0  0  0  0  0  0  0  0  0  0  0  0
   23.7371  -19.0555  -15.6531 O   0  0  0  0  0  0  0  0  0  0  0  0
   19.7590  -19.5348  -12.6029 O   0  0  0  0  0  0  0  0  0  0  0  0
   22.5885  -20.8959  -16.2442 O   0  0  0  0  0  0  0  0  0  0  0  0
  1  2  1  0
  3  2  1  0
  4  5  1  0
  4  3  1  0
  5  6  1  6
  7  5  1  0
  7  8  2  0
  9 10  1  0
 10 11  2  0
 12 10  1  0
 13 12  1  6
 13 14  1  0
 14  7  1  0
 15 13  1  0
 16 15  2  0
 17 15  1  0
 18 17  1  0
 18 22  1  0
 18 19  1  1
 20 19  1  0
 20 24  1  0
 21 20  2  0
 22 23  2  0
 22 25  1  0
M  END
$$$$
