MND.pdb
     RDKit          3D

 25 24  0  0  1  0  0  0  0  0999 V2000
   31.4640  -22.7050   -8.6955 C   0  0  0  0  0  0  0  0  0  0  0  0
   32.7044  -22.0369   -9.8627 S   0  0  0  0  0  0  0  0  0  0  0  0
   31.8112  -21.2677  -11.2109 C   0  0  0  0  0  0  0  0  0  0  0  0
   30.4033  -21.7768  -11.3564 C   0  0  0  0  0  0  0  0  0  0  0  0
   29.6370  -21.1258  -12.4641 C   0  0  2  0  0  0  0  0  0  0  0  0
   29.8306  -19.7008  -12.5114 N   0  0  0  0  0  0  0  0  0  0  0  0
   28.2106  -21.4895  -12.2549 C   0  0  0  0  0  0  0  0  0  0  0  0
   27.8950  -22.7023  -12.3063 O   0  0  0  0  0  0  0  0  0  0  0  0
   24.2025  -21.6794   -9.4257 N   0  0  0  0  0  0  0  0  0  0  0  0
   24.3877  -20.3207   -9.7841 C   0  0  0  0  0  0  0  0  0  0  0  0
   23.8367  -19.4833   -8.9812 O   0  0  0  0  0  0  0  0  0  0  0  0
   25.1370  -19.8388  -10.9630 C   0  0  0  0  0  0  0  0  0  0  0  0
   25.8056  -20.9236  -11.7655 C   0  0  2  0  0  0  0  0  0  0  0  0
   27.1689  -20.5560  -11.9985 N   0  0  0  0  0  0  0  0  0  0  0  0
   25.0571  -21.3031  -12.9780 C   0  0  0  0  0  0  0  0  0  0  0  0
   24.1223  -22.1691  -12.8986 O   0  0  0  0  0  0  0  0  0  0  0  0
   25.2815  -20.7826  -14.2804 N   0  0  0  0  0  0  0  0  0  0  0  0
   24.1474  -20.3965  -15.1620 C   0  0  1  0  0  0  0  0  0  0  0  0
   23.1533  -19.7591  -14.2524 C   0  0  0  0  0  0  0  0  0  0  0  0
   21.7981  -20.2868  -14.2793 C   0  0  0  0  0  0  0  0  0  0  0  0
   21.5401  -21.2497  -15.0432 O   0  0  0  0  0  0  0  0  0  0  0  0
   24.6513  -19.5503  -16.2470 C   0  0  0  0  0  0  0  0  0  0  0  0
   24.0804  -19.4731  -17.3409 O   0  0  0  0  0  0  0  0  0  0  0  0
   20.7797  -19.7770  -13.5051 O   0  0  0  0  0  0  0  0  0  0  0  0
   25.8015  -18.8083  -16.0557 O   0  0  0  0  0  0  0  0  0  0  0  0
  1  2  1  0
  3  2  1  0
  4  5  1  0
  4  3  1  0
  5  6  1  1
  7  5  1  0
  7  8  2  0
  9 10  1  0
 10 11  2  0
 12 10  1  0
 13 12  1  6
 13 14  1  0
 14  7  1  0
 15 13  1  0
 16 15  2  0
 17 15  1  0
 18 17  1  0
 18 22  1  0
 18 19  1  1
 20 19  1  0
 20 24  1  0
 21 20  2  0
 22 23  2  0
 22 25  1  0
M  END
$$$$
