MND.pdb
     RDKit          3D

 25 24  0  0  1  0  0  0  0  0999 V2000
   28.7764  -13.5183  -15.0251 C   0  0  0  0  0  0  0  0  0  0  0  0
   27.1426  -12.8483  -15.5035 S   0  0  0  0  0  0  0  0  0  0  0  0
   27.2412  -11.0638  -15.3884 C   0  0  0  0  0  0  0  0  0  0  0  0
   25.9351  -10.3775  -15.6817 C   0  0  0  0  0  0  0  0  0  0  0  0
   25.2568  -10.8733  -16.9195 C   0  0  2  0  0  0  0  0  0  0  0  0
   26.0491  -10.6765  -18.1044 N   0  0  0  0  0  0  0  0  0  0  0  0
   23.9531  -10.1625  -16.9944 C   0  0  0  0  0  0  0  0  0  0  0  0
   23.9075   -8.9678  -16.6155 O   0  0  0  0  0  0  0  0  0  0  0  0
   18.6912  -10.5861  -15.9150 N   0  0  0  0  0  0  0  0  0  0  0  0
   19.5463  -11.7112  -15.8056 C   0  0  0  0  0  0  0  0  0  0  0  0
   19.0131  -12.7246  -15.2239 O   0  0  0  0  0  0  0  0  0  0  0  0
   20.9386  -11.7815  -16.2954 C   0  0  0  0  0  0  0  0  0  0  0  0
   21.4592  -10.4981  -16.8867 C   0  0  2  0  0  0  0  0  0  0  0  0
   22.7439  -10.7420  -17.4682 N   0  0  0  0  0  0  0  0  0  0  0  0
   21.4164   -9.3601  -15.9499 C   0  0  0  0  0  0  0  0  0  0  0  0
   22.0756   -9.4153  -14.8579 O   0  0  0  0  0  0  0  0  0  0  0  0
   20.6839   -8.1591  -16.1465 N   0  0  0  0  0  0  0  0  0  0  0  0
   20.7121   -7.0654  -15.1390 C   0  0  1  0  0  0  0  0  0  0  0  0
   22.1271   -6.5969  -15.1199 C   0  0  0  0  0  0  0  0  0  0  0  0
   22.4135   -5.3872  -14.3647 C   0  0  0  0  0  0  0  0  0  0  0  0
   21.8111   -5.1960  -13.2794 O   0  0  0  0  0  0  0  0  0  0  0  0
   19.7126   -6.0565  -15.4998 C   0  0  0  0  0  0  0  0  0  0  0  0
   19.3643   -5.8642  -16.6703 O   0  0  0  0  0  0  0  0  0  0  0  0
   23.3162   -4.4365  -14.7862 O   0  0  0  0  0  0  0  0  0  0  0  0
   19.1313   -5.2871  -14.5096 O   0  0  0  0  0  0  0  0  0  0  0  0
  1  2  1  0
  3  2  1  0
  4  5  1  0
  4  3  1  0
  5  6  1  6
  7  5  1  0
  7  8  2  0
  9 10  1  0
 10 11  2  0
 12 10  1  0
 13 12  1  1
 13 14  1  0
 14  7  1  0
 15 13  1  0
 16 15  2  0
 17 15  1  0
 18 17  1  0
 18 22  1  0
 18 19  1  6
 20 19  1  0
 20 24  1  0
 21 20  2  0
 22 23  2  0
 22 25  1  0
M  END
$$$$
