MND.pdb
     RDKit          3D

 25 24  0  0  1  0  0  0  0  0999 V2000
   25.5607  -25.8075  -17.8326 C   0  0  0  0  0  0  0  0  0  0  0  0
   26.7837  -25.5943  -16.4886 S   0  0  0  0  0  0  0  0  0  0  0  0
   26.7936  -23.8596  -16.0439 C   0  0  0  0  0  0  0  0  0  0  0  0
   25.4160  -23.2613  -15.9586 C   0  0  0  0  0  0  0  0  0  0  0  0
   25.4125  -21.7855  -15.7138 C   0  0  2  0  0  0  0  0  0  0  0  0
   26.2088  -21.4087  -14.5762 N   0  0  0  0  0  0  0  0  0  0  0  0
   23.9876  -21.3923  -15.5537 C   0  0  0  0  0  0  0  0  0  0  0  0
   23.2313  -21.4884  -16.5496 O   0  0  0  0  0  0  0  0  0  0  0  0
   20.5939  -23.1216  -13.8379 N   0  0  0  0  0  0  0  0  0  0  0  0
   20.9251  -22.3007  -12.7310 C   0  0  0  0  0  0  0  0  0  0  0  0
   20.6033  -22.7970  -11.5910 O   0  0  0  0  0  0  0  0  0  0  0  0
   21.5832  -20.9800  -12.8088 C   0  0  0  0  0  0  0  0  0  0  0  0
   22.0293  -20.5839  -14.1915 C   0  0  2  0  0  0  0  0  0  0  0  0
   23.4141  -20.9113  -14.3445 N   0  0  0  0  0  0  0  0  0  0  0  0
   21.6855  -19.1939  -14.5439 C   0  0  0  0  0  0  0  0  0  0  0  0
   22.2994  -18.2281  -13.9778 O   0  0  0  0  0  0  0  0  0  0  0  0
   20.6977  -18.8042  -15.4873 N   0  0  0  0  0  0  0  0  0  0  0  0
   20.4628  -17.3713  -15.8097 C   0  0  1  0  0  0  0  0  0  0  0  0
   21.2307  -17.1287  -17.0640 C   0  0  0  0  0  0  0  0  0  0  0  0
   21.0624  -15.8329  -17.7029 C   0  0  0  0  0  0  0  0  0  0  0  0
   21.1183  -14.7980  -16.9935 O   0  0  0  0  0  0  0  0  0  0  0  0
   19.0198  -17.1293  -15.8901 C   0  0  0  0  0  0  0  0  0  0  0  0
   18.2460  -17.9339  -16.4214 O   0  0  0  0  0  0  0  0  0  0  0  0
   20.8415  -15.6864  -19.0543 O   0  0  0  0  0  0  0  0  0  0  0  0
   18.4920  -15.9677  -15.3586 O   0  0  0  0  0  0  0  0  0  0  0  0
  1  2  1  0
  3  2  1  0
  4  5  1  0
  4  3  1  0
  5  6  1  1
  7  5  1  0
  7  8  2  0
  9 10  1  0
 10 11  2  0
 12 10  1  0
 13 12  1  1
 13 14  1  0
 14  7  1  0
 15 13  1  0
 16 15  2  0
 17 15  1  0
 18 17  1  0
 18 22  1  0
 18 19  1  6
 20 19  1  0
 20 24  1  0
 21 20  2  0
 22 23  2  0
 22 25  1  0
M  END
$$$$
