TML.pdb
     RDKit          3D

 24 23  0  0  1  0  0  0  0  0999 V2000
    7.3379  -19.7794   21.6679 C   0  0  0  0  0  0  0  0  0  0  0  0
    8.0655  -18.6235   22.2817 C   0  0  1  0  0  0  0  0  0  0  0  0
    9.3919  -18.9420   22.5332 O   0  0  0  0  0  0  0  0  0  0  0  0
    7.9480  -17.3822   21.3942 C   0  0  2  0  0  0  0  0  0  0  0  0
    8.7633  -17.5713   20.2026 N   0  0  0  0  0  0  0  0  0  0  0  0
    8.5314  -16.2615   22.1739 C   0  0  0  0  0  0  0  0  0  0  0  0
    9.7281  -15.9248   21.9822 O   0  0  0  0  0  0  0  0  0  0  0  0
    5.5181  -10.7591   25.4881 C   0  0  0  0  0  0  0  0  0  0  0  0
    6.2583  -12.0373   26.5468 S   0  0  0  0  0  0  0  0  0  0  0  0
    7.7058  -12.7976   25.7267 C   0  0  0  0  0  0  0  0  0  0  0  0
    7.3078  -13.8662   24.7878 C   0  0  0  0  0  0  0  0  0  0  0  0
    8.3902  -14.4888   23.9669 C   0  0  2  0  0  0  0  0  0  0  0  0
    7.8006  -15.5471   23.1304 N   0  0  0  0  0  0  0  0  0  0  0  0
    9.4714  -15.1307   24.7556 C   0  0  0  0  0  0  0  0  0  0  0  0
   10.6842  -14.7509   24.5638 O   0  0  0  0  0  0  0  0  0  0  0  0
    9.8905  -13.7844   27.6597 C   0  0  0  0  0  0  0  0  0  0  0  0
   10.4496  -14.8771   28.5477 C   0  0  1  0  0  0  0  0  0  0  0  0
   10.0171  -14.6300   30.0030 C   0  0  0  0  0  0  0  0  0  0  0  0
    9.9337  -16.1999   28.0649 C   0  0  0  0  0  0  0  0  0  0  0  0
   10.3667  -16.4720   26.6685 C   0  0  2  0  0  0  0  0  0  0  0  0
    9.3000  -16.1369   25.7197 N   0  0  0  0  0  0  0  0  0  0  0  0
   10.7410  -17.8795   26.4882 C   0  0  0  0  0  0  0  0  0  0  0  0
   11.6780  -18.4479   27.0693 O   0  0  0  0  0  0  0  0  0  0  0  0
   10.0114  -18.6969   25.5958 O   0  0  0  0  0  0  0  0  0  0  0  0
  2  1  1  6
  3  2  1  0
  4  2  1  0
  4  5  1  6
  6  4  1  0
  7  6  2  0
  8  9  1  0
  9 10  1  0
 11 10  1  0
 12 11  1  1
 12 13  1  0
 13  6  1  0
 14 12  1  0
 14 15  2  0
 17 16  1  6
 17 18  1  0
 20 19  1  1
 19 17  1  0
 20 21  1  0
 21 14  1  0
 22 20  1  0
 23 22  2  0
 24 22  1  0
M  END
$$$$
