TML.pdb
     RDKit          3D

 24 23  0  0  1  0  0  0  0  0999 V2000
    8.4119  -18.8372   21.7125 C   0  0  0  0  0  0  0  0  0  0  0  0
    9.1823  -18.1867   20.6054 C   0  0  1  0  0  0  0  0  0  0  0  0
    9.1073  -18.9311   19.4373 O   0  0  0  0  0  0  0  0  0  0  0  0
    8.6984  -16.7516   20.3850 C   0  0  2  0  0  0  0  0  0  0  0  0
    9.4077  -16.1805   19.2487 N   0  0  0  0  0  0  0  0  0  0  0  0
    9.0929  -15.9927   21.5985 C   0  0  0  0  0  0  0  0  0  0  0  0
   10.2982  -15.6774   21.7724 O   0  0  0  0  0  0  0  0  0  0  0  0
    6.2265  -10.9090   25.5093 C   0  0  0  0  0  0  0  0  0  0  0  0
    6.0018  -12.5985   26.1395 S   0  0  0  0  0  0  0  0  0  0  0  0
    7.4428  -13.6432   25.7170 C   0  0  0  0  0  0  0  0  0  0  0  0
    7.3319  -14.2097   24.3575 C   0  0  0  0  0  0  0  0  0  0  0  0
    8.5523  -14.8580   23.7887 C   0  0  2  0  0  0  0  0  0  0  0  0
    8.1714  -15.6032   22.5775 N   0  0  0  0  0  0  0  0  0  0  0  0
    9.2108  -15.8341   24.6923 C   0  0  0  0  0  0  0  0  0  0  0  0
    8.5087  -16.7927   25.1823 O   0  0  0  0  0  0  0  0  0  0  0  0
   11.2464  -13.6851   29.2373 C   0  0  0  0  0  0  0  0  0  0  0  0
   10.7228  -15.0209   28.7508 C   0  0  1  0  0  0  0  0  0  0  0  0
    9.5089  -15.4381   29.5985 C   0  0  0  0  0  0  0  0  0  0  0  0
   10.3341  -14.8885   27.3085 C   0  0  0  0  0  0  0  0  0  0  0  0
   10.9561  -15.9560   26.4808 C   0  0  2  0  0  0  0  0  0  0  0  0
   10.5615  -15.8193   25.0752 N   0  0  0  0  0  0  0  0  0  0  0  0
   10.5761  -17.2917   26.9554 C   0  0  0  0  0  0  0  0  0  0  0  0
   11.3567  -18.1239   27.4423 O   0  0  0  0  0  0  0  0  0  0  0  0
    9.2302  -17.7146   26.8756 O   0  0  0  0  0  0  0  0  0  0  0  0
  2  1  1  1
  3  2  1  0
  4  2  1  0
  4  5  1  6
  6  4  1  0
  7  6  2  0
  8  9  1  0
  9 10  1  0
 11 10  1  0
 12 11  1  1
 12 13  1  0
 13  6  1  0
 14 12  1  0
 14 15  2  0
 17 16  1  1
 17 18  1  0
 20 19  1  1
 19 17  1  0
 20 21  1  0
 21 14  1  0
 22 20  1  0
 23 22  2  0
 24 22  1  0
M  END
$$$$
