TML.pdb
     RDKit          3D

 24 23  0  0  1  0  0  0  0  0999 V2000
    9.6068  -19.1808   21.7851 C   0  0  0  0  0  0  0  0  0  0  0  0
   10.5304  -18.5246   20.8061 C   0  0  1  0  0  0  0  0  0  0  0  0
   10.6898  -19.3017   19.6683 O   0  0  0  0  0  0  0  0  0  0  0  0
   10.0339  -17.1195   20.4575 C   0  0  2  0  0  0  0  0  0  0  0  0
   10.9292  -16.5303   19.4717 N   0  0  0  0  0  0  0  0  0  0  0  0
   10.1410  -16.3231   21.7060 C   0  0  0  0  0  0  0  0  0  0  0  0
   11.2519  -15.8391   22.0435 O   0  0  0  0  0  0  0  0  0  0  0  0
    5.5381  -12.3956   26.7910 C   0  0  0  0  0  0  0  0  0  0  0  0
    6.0415  -12.7829   25.0884 S   0  0  0  0  0  0  0  0  0  0  0  0
    7.6626  -13.6302   25.0703 C   0  0  0  0  0  0  0  0  0  0  0  0
    7.8190  -14.4932   23.8819 C   0  0  0  0  0  0  0  0  0  0  0  0
    9.1181  -15.2166   23.7323 C   0  0  2  0  0  0  0  0  0  0  0  0
    9.0450  -16.0796   22.5418 N   0  0  0  0  0  0  0  0  0  0  0  0
    9.4665  -16.1018   24.8717 C   0  0  0  0  0  0  0  0  0  0  0  0
    9.1483  -17.3453   24.8068 O   0  0  0  0  0  0  0  0  0  0  0  0
   10.8171  -14.3754   29.9563 C   0  0  0  0  0  0  0  0  0  0  0  0
   10.4114  -14.8205   28.5662 C   0  0  1  0  0  0  0  0  0  0  0  0
   10.6680  -13.6812   27.5650 C   0  0  0  0  0  0  0  0  0  0  0  0
   11.2126  -16.0332   28.1967 C   0  0  0  0  0  0  0  0  0  0  0  0
   10.6578  -16.7001   26.9888 C   0  0  2  0  0  0  0  0  0  0  0  0
   10.1299  -15.7096   26.0452 N   0  0  0  0  0  0  0  0  0  0  0  0
    9.5885  -17.6418   27.3402 C   0  0  0  0  0  0  0  0  0  0  0  0
    8.4033  -17.5377   26.9891 O   0  0  0  0  0  0  0  0  0  0  0  0
    9.8751  -18.7724   28.1379 O   0  0  0  0  0  0  0  0  0  0  0  0
  2  1  1  1
  3  2  1  0
  4  2  1  0
  4  5  1  6
  6  4  1  0
  7  6  2  0
  8  9  1  0
  9 10  1  0
 11 10  1  0
 12 11  1  1
 12 13  1  0
 13  6  1  0
 14 12  1  0
 14 15  2  0
 17 16  1  1
 17 18  1  0
 20 19  1  1
 19 17  1  0
 20 21  1  0
 21 14  1  0
 22 20  1  0
 23 22  2  0
 24 22  1  0
M  END
$$$$
