TML.pdb
     RDKit          3D

 24 23  0  0  1  0  0  0  0  0999 V2000
    6.1676  -21.8313   23.8256 C   0  0  0  0  0  0  0  0  0  0  0  0
    6.3861  -20.3524   23.7406 C   0  0  1  0  0  0  0  0  0  0  0  0
    6.8349  -19.9832   22.4811 O   0  0  0  0  0  0  0  0  0  0  0  0
    5.1104  -19.5979   24.1221 C   0  0  2  0  0  0  0  0  0  0  0  0
    4.0701  -19.9015   23.1494 N   0  0  0  0  0  0  0  0  0  0  0  0
    5.4359  -18.1539   24.0075 C   0  0  0  0  0  0  0  0  0  0  0  0
    4.9570  -17.4799   23.0595 O   0  0  0  0  0  0  0  0  0  0  0  0
    9.4542  -13.3614   27.8800 C   0  0  0  0  0  0  0  0  0  0  0  0
    7.6542  -13.5982   27.9591 S   0  0  0  0  0  0  0  0  0  0  0  0
    6.9894  -14.0545   26.3172 C   0  0  0  0  0  0  0  0  0  0  0  0
    6.7704  -15.5104   26.1975 C   0  0  0  0  0  0  0  0  0  0  0  0
    6.5918  -16.0608   24.8197 C   0  0  2  0  0  0  0  0  0  0  0  0
    6.2657  -17.4928   24.9207 N   0  0  0  0  0  0  0  0  0  0  0  0
    7.7949  -15.9642   23.9557 C   0  0  0  0  0  0  0  0  0  0  0  0
    8.6301  -16.9411   23.9494 O   0  0  0  0  0  0  0  0  0  0  0  0
    8.2306  -11.7780   20.4121 C   0  0  0  0  0  0  0  0  0  0  0  0
    8.0473  -13.1830   20.9484 C   0  0  1  0  0  0  0  0  0  0  0  0
    7.4742  -14.0859   19.8427 C   0  0  0  0  0  0  0  0  0  0  0  0
    9.3777  -13.6990   21.4094 C   0  0  0  0  0  0  0  0  0  0  0  0
    9.2318  -14.9723   22.1637 C   0  0  2  0  0  0  0  0  0  0  0  0
    8.1218  -14.8859   23.1182 N   0  0  0  0  0  0  0  0  0  0  0  0
   10.4614  -15.3082   22.8910 C   0  0  0  0  0  0  0  0  0  0  0  0
   10.5672  -15.3617   24.1258 O   0  0  0  0  0  0  0  0  0  0  0  0
   11.6462  -15.6026   22.1795 O   0  0  0  0  0  0  0  0  0  0  0  0
  2  1  1  6
  3  2  1  0
  4  2  1  0
  4  5  1  6
  6  4  1  0
  7  6  2  0
  8  9  1  0
  9 10  1  0
 11 10  1  0
 12 11  1  1
 12 13  1  0
 13  6  1  0
 14 12  1  0
 14 15  2  0
 17 16  1  6
 17 18  1  0
 20 19  1  1
 19 17  1  0
 20 21  1  0
 21 14  1  0
 22 20  1  0
 23 22  2  0
 24 22  1  0
M  END
$$$$
