TML.pdb
     RDKit          3D

 24 23  0  0  1  0  0  0  0  0999 V2000
    7.7720  -20.7192   22.7334 C   0  0  0  0  0  0  0  0  0  0  0  0
    8.3570  -19.3492   22.8856 C   0  0  1  0  0  0  0  0  0  0  0  0
    9.7433  -19.3946   22.9023 O   0  0  0  0  0  0  0  0  0  0  0  0
    7.8421  -18.4196   21.7843 C   0  0  2  0  0  0  0  0  0  0  0  0
    8.4006  -18.8411   20.5073 N   0  0  0  0  0  0  0  0  0  0  0  0
    8.3817  -17.0722   22.0967 C   0  0  0  0  0  0  0  0  0  0  0  0
    9.4590  -16.6940   21.5687 O   0  0  0  0  0  0  0  0  0  0  0  0
    5.7097  -12.6701   26.8414 C   0  0  0  0  0  0  0  0  0  0  0  0
    6.3065  -11.8576   25.3295 S   0  0  0  0  0  0  0  0  0  0  0  0
    7.7145  -12.7796   24.6127 C   0  0  0  0  0  0  0  0  0  0  0  0
    7.2859  -14.0601   24.0141 C   0  0  0  0  0  0  0  0  0  0  0  0
    8.3536  -14.9339   23.4398 C   0  0  2  0  0  0  0  0  0  0  0  0
    7.7379  -16.1848   22.9669 N   0  0  0  0  0  0  0  0  0  0  0  0
    9.4144  -15.3255   24.4012 C   0  0  0  0  0  0  0  0  0  0  0  0
   10.5934  -14.8361   24.2525 O   0  0  0  0  0  0  0  0  0  0  0  0
    8.6975  -13.9502   27.7928 C   0  0  0  0  0  0  0  0  0  0  0  0
   10.1123  -14.4899   27.8384 C   0  0  1  0  0  0  0  0  0  0  0  0
   10.7968  -14.0319   29.1376 C   0  0  0  0  0  0  0  0  0  0  0  0
   10.0580  -15.9872   27.7742 C   0  0  0  0  0  0  0  0  0  0  0  0
   10.3662  -16.4811   26.4058 C   0  0  2  0  0  0  0  0  0  0  0  0
    9.2567  -16.1983   25.4897 N   0  0  0  0  0  0  0  0  0  0  0  0
   10.6303  -17.9247   26.4041 C   0  0  0  0  0  0  0  0  0  0  0  0
   11.5838  -18.4755   26.9753 O   0  0  0  0  0  0  0  0  0  0  0  0
    9.7633  -18.8018   25.7143 O   0  0  0  0  0  0  0  0  0  0  0  0
  2  1  1  6
  3  2  1  0
  4  2  1  0
  4  5  1  6
  6  4  1  0
  7  6  2  0
  8  9  1  0
  9 10  1  0
 11 10  1  0
 12 11  1  1
 12 13  1  0
 13  6  1  0
 14 12  1  0
 14 15  2  0
 17 16  1  1
 17 18  1  0
 20 19  1  1
 19 17  1  0
 20 21  1  0
 21 14  1  0
 22 20  1  0
 23 22  2  0
 24 22  1  0
M  END
$$$$
