TML.pdb
     RDKit          3D

 24 23  0  0  1  0  0  0  0  0999 V2000
    9.2372  -19.0594   19.9019 C   0  0  0  0  0  0  0  0  0  0  0  0
    9.4876  -18.2171   21.1143 C   0  0  1  0  0  0  0  0  0  0  0  0
   10.7496  -18.4550   21.6386 O   0  0  0  0  0  0  0  0  0  0  0  0
    9.2883  -16.7348   20.7895 C   0  0  2  0  0  0  0  0  0  0  0  0
   10.3847  -16.2821   19.9448 N   0  0  0  0  0  0  0  0  0  0  0  0
    9.3805  -16.0133   22.0838 C   0  0  0  0  0  0  0  0  0  0  0  0
   10.4627  -15.4654   22.4167 O   0  0  0  0  0  0  0  0  0  0  0  0
    6.6971  -11.2639   25.8102 C   0  0  0  0  0  0  0  0  0  0  0  0
    5.7375  -12.7956   25.9982 S   0  0  0  0  0  0  0  0  0  0  0  0
    6.8443  -14.2513   26.0377 C   0  0  0  0  0  0  0  0  0  0  0  0
    6.9898  -14.8683   24.7036 C   0  0  0  0  0  0  0  0  0  0  0  0
    8.3770  -15.1880   24.2492 C   0  0  2  0  0  0  0  0  0  0  0  0
    8.3009  -15.9109   22.9689 N   0  0  0  0  0  0  0  0  0  0  0  0
    9.1455  -16.0559   25.1761 C   0  0  0  0  0  0  0  0  0  0  0  0
    9.3094  -17.2934   24.8699 O   0  0  0  0  0  0  0  0  0  0  0  0
   10.6360  -14.0704   30.0038 C   0  0  0  0  0  0  0  0  0  0  0  0
   10.4196  -14.5518   28.5838 C   0  0  1  0  0  0  0  0  0  0  0  0
   11.1326  -13.6041   27.6041 C   0  0  0  0  0  0  0  0  0  0  0  0
   10.9662  -15.9427   28.4590 C   0  0  0  0  0  0  0  0  0  0  0  0
   10.5790  -16.5615   27.1634 C   0  0  2  0  0  0  0  0  0  0  0  0
    9.7315  -15.6516   26.3863 N   0  0  0  0  0  0  0  0  0  0  0  0
    9.8614  -17.8255   27.3666 C   0  0  0  0  0  0  0  0  0  0  0  0
   10.3547  -18.8552   27.8515 O   0  0  0  0  0  0  0  0  0  0  0  0
    8.5011  -17.9337   26.9995 O   0  0  0  0  0  0  0  0  0  0  0  0
  2  1  1  6
  3  2  1  0
  4  2  1  0
  4  5  1  6
  6  4  1  0
  7  6  2  0
  8  9  1  0
  9 10  1  0
 11 10  1  0
 12 11  1  1
 12 13  1  0
 13  6  1  0
 14 12  1  0
 14 15  2  0
 17 16  1  1
 17 18  1  0
 20 19  1  1
 19 17  1  0
 20 21  1  0
 21 14  1  0
 22 20  1  0
 23 22  2  0
 24 22  1  0
M  END
$$$$
