TML.pdb
     RDKit          3D

 24 23  0  0  1  0  0  0  0  0999 V2000
    5.1502  -19.9518   24.4545 C   0  0  0  0  0  0  0  0  0  0  0  0
    6.2198  -18.9671   24.0961 C   0  0  1  0  0  0  0  0  0  0  0  0
    7.3863  -19.2132   24.8051 O   0  0  0  0  0  0  0  0  0  0  0  0
    6.4721  -18.9732   22.5866 C   0  0  2  0  0  0  0  0  0  0  0  0
    6.9966  -20.2749   22.1980 N   0  0  0  0  0  0  0  0  0  0  0  0
    7.5312  -17.9620   22.3418 C   0  0  0  0  0  0  0  0  0  0  0  0
    8.7344  -18.3227   22.2755 O   0  0  0  0  0  0  0  0  0  0  0  0
    7.0899  -12.7379   18.4888 C   0  0  0  0  0  0  0  0  0  0  0  0
    7.7641  -11.9797   19.9964 S   0  0  0  0  0  0  0  0  0  0  0  0
    8.5693  -13.2400   21.0496 C   0  0  0  0  0  0  0  0  0  0  0  0
    7.6949  -14.4089   21.2749 C   0  0  0  0  0  0  0  0  0  0  0  0
    8.2959  -15.5831   21.9772 C   0  0  2  0  0  0  0  0  0  0  0  0
    7.2508  -16.6005   22.1777 N   0  0  0  0  0  0  0  0  0  0  0  0
    8.8510  -15.2813   23.3203 C   0  0  0  0  0  0  0  0  0  0  0  0
    9.9550  -14.6281   23.3993 O   0  0  0  0  0  0  0  0  0  0  0  0
    6.1980  -12.6924   26.6001 C   0  0  0  0  0  0  0  0  0  0  0  0
    7.4396  -13.2242   25.9141 C   0  0  1  0  0  0  0  0  0  0  0  0
    8.5403  -12.1498   25.9355 C   0  0  0  0  0  0  0  0  0  0  0  0
    7.8966  -14.4571   26.6353 C   0  0  0  0  0  0  0  0  0  0  0  0
    8.8735  -15.2285   25.8216 C   0  0  2  0  0  0  0  0  0  0  0  0
    8.2755  -15.6436   24.5486 N   0  0  0  0  0  0  0  0  0  0  0  0
    9.3455  -16.4193   26.5379 C   0  0  0  0  0  0  0  0  0  0  0  0
    9.2032  -17.5884   26.1484 O   0  0  0  0  0  0  0  0  0  0  0  0
   10.0210  -16.2816   27.7713 O   0  0  0  0  0  0  0  0  0  0  0  0
  2  1  1  6
  3  2  1  0
  4  2  1  0
  4  5  1  1
  6  4  1  0
  7  6  2  0
  8  9  1  0
  9 10  1  0
 11 10  1  0
 12 11  1  1
 12 13  1  0
 13  6  1  0
 14 12  1  0
 14 15  2  0
 17 16  1  1
 17 18  1  0
 20 19  1  1
 19 17  1  0
 20 21  1  0
 21 14  1  0
 22 20  1  0
 23 22  2  0
 24 22  1  0
M  END
$$$$
