TML.pdb
     RDKit          3D

 24 23  0  0  1  0  0  0  0  0999 V2000
    8.1847  -18.7171   19.6368 C   0  0  0  0  0  0  0  0  0  0  0  0
    8.7106  -17.9865   20.8334 C   0  0  1  0  0  0  0  0  0  0  0  0
    9.8278  -18.6203   21.3572 O   0  0  0  0  0  0  0  0  0  0  0  0
    9.0095  -16.5270   20.4834 C   0  0  2  0  0  0  0  0  0  0  0  0
   10.1507  -16.4792   19.5802 N   0  0  0  0  0  0  0  0  0  0  0  0
    9.4053  -15.8710   21.7551 C   0  0  0  0  0  0  0  0  0  0  0  0
   10.6244  -15.7251   22.0285 O   0  0  0  0  0  0  0  0  0  0  0  0
    4.8842  -13.0525   26.0168 C   0  0  0  0  0  0  0  0  0  0  0  0
    6.3967  -12.0462   25.9732 S   0  0  0  0  0  0  0  0  0  0  0  0
    7.8568  -13.0886   25.6159 C   0  0  0  0  0  0  0  0  0  0  0  0
    7.6773  -13.8831   24.3836 C   0  0  0  0  0  0  0  0  0  0  0  0
    8.8489  -14.6822   23.9124 C   0  0  2  0  0  0  0  0  0  0  0  0
    8.4701  -15.3975   22.6827 N   0  0  0  0  0  0  0  0  0  0  0  0
    9.3178  -15.7142   24.8707 C   0  0  0  0  0  0  0  0  0  0  0  0
    9.0456  -16.9473   24.6318 O   0  0  0  0  0  0  0  0  0  0  0  0
   11.1772  -14.9399   30.1501 C   0  0  0  0  0  0  0  0  0  0  0  0
   10.5144  -15.1709   28.8076 C   0  0  1  0  0  0  0  0  0  0  0  0
   10.2945  -13.8215   28.1025 C   0  0  0  0  0  0  0  0  0  0  0  0
   11.3986  -16.0562   27.9809 C   0  0  0  0  0  0  0  0  0  0  0  0
   10.6807  -16.5724   26.7853 C   0  0  2  0  0  0  0  0  0  0  0  0
   10.0521  -15.4749   26.0432 N   0  0  0  0  0  0  0  0  0  0  0  0
    9.6499  -17.5479   27.1589 C   0  0  0  0  0  0  0  0  0  0  0  0
    9.8529  -18.5870   27.8053 O   0  0  0  0  0  0  0  0  0  0  0  0
    8.3053  -17.3370   26.7791 O   0  0  0  0  0  0  0  0  0  0  0  0
  2  1  1  6
  3  2  1  0
  4  2  1  0
  4  5  1  6
  6  4  1  0
  7  6  2  0
  8  9  1  0
  9 10  1  0
 11 10  1  0
 12 11  1  1
 12 13  1  0
 13  6  1  0
 14 12  1  0
 14 15  2  0
 17 16  1  1
 17 18  1  0
 20 19  1  1
 19 17  1  0
 20 21  1  0
 21 14  1  0
 22 20  1  0
 23 22  2  0
 24 22  1  0
M  END
$$$$
