TML.pdb
     RDKit          3D

 24 23  0  0  1  0  0  0  0  0999 V2000
    8.6315  -19.4104   19.1269 C   0  0  0  0  0  0  0  0  0  0  0  0
    9.0146  -18.1827   19.8938 C   0  0  1  0  0  0  0  0  0  0  0  0
    8.2734  -17.0839   19.4846 O   0  0  0  0  0  0  0  0  0  0  0  0
    8.8727  -18.4228   21.3985 C   0  0  2  0  0  0  0  0  0  0  0  0
    7.4620  -18.5806   21.7234 N   0  0  0  0  0  0  0  0  0  0  0  0
    9.3587  -17.1861   22.0608 C   0  0  0  0  0  0  0  0  0  0  0  0
   10.5486  -16.8146   21.8922 O   0  0  0  0  0  0  0  0  0  0  0  0
    5.6860  -13.2048   26.4628 C   0  0  0  0  0  0  0  0  0  0  0  0
    6.4536  -12.2701   25.1065 S   0  0  0  0  0  0  0  0  0  0  0  0
    8.0172  -13.0605   24.5804 C   0  0  0  0  0  0  0  0  0  0  0  0
    7.7801  -14.3495   23.8993 C   0  0  0  0  0  0  0  0  0  0  0  0
    8.9838  -15.1224   23.4672 C   0  0  2  0  0  0  0  0  0  0  0  0
    8.5415  -16.3977   22.8794 N   0  0  0  0  0  0  0  0  0  0  0  0
    9.9216  -15.4688   24.5643 C   0  0  0  0  0  0  0  0  0  0  0  0
   11.1347  -15.0500   24.4946 O   0  0  0  0  0  0  0  0  0  0  0  0
    9.0731  -14.0709   29.1954 C   0  0  0  0  0  0  0  0  0  0  0  0
    9.8341  -14.4829   27.9519 C   0  0  1  0  0  0  0  0  0  0  0  0
   11.1189  -13.6455   27.8330 C   0  0  0  0  0  0  0  0  0  0  0  0
   10.1667  -15.9417   28.0532 C   0  0  0  0  0  0  0  0  0  0  0  0
   10.6118  -16.4868   26.7431 C   0  0  2  0  0  0  0  0  0  0  0  0
    9.6097  -16.2259   25.7048 N   0  0  0  0  0  0  0  0  0  0  0  0
   10.8553  -17.9320   26.8189 C   0  0  0  0  0  0  0  0  0  0  0  0
   11.6932  -18.4760   27.5543 O   0  0  0  0  0  0  0  0  0  0  0  0
   10.1056  -18.8190   26.0140 O   0  0  0  0  0  0  0  0  0  0  0  0
  2  1  1  6
  3  2  1  0
  4  2  1  0
  4  5  1  6
  6  4  1  0
  7  6  2  0
  8  9  1  0
  9 10  1  0
 11 10  1  0
 12 11  1  1
 12 13  1  0
 13  6  1  0
 14 12  1  0
 14 15  2  0
 17 16  1  1
 17 18  1  0
 20 19  1  1
 19 17  1  0
 20 21  1  0
 21 14  1  0
 22 20  1  0
 23 22  2  0
 24 22  1  0
M  END
$$$$
