TML.pdb
     RDKit          3D

 24 23  0  0  1  0  0  0  0  0999 V2000
    8.5441  -19.6247   20.2727 C   0  0  0  0  0  0  0  0  0  0  0  0
    9.0521  -18.6150   21.2548 C   0  0  1  0  0  0  0  0  0  0  0  0
   10.3881  -18.8358   21.5557 O   0  0  0  0  0  0  0  0  0  0  0  0
    8.8250  -17.1948   20.7316 C   0  0  2  0  0  0  0  0  0  0  0  0
    9.7820  -16.9215   19.6686 N   0  0  0  0  0  0  0  0  0  0  0  0
    9.1283  -16.2848   21.8648 C   0  0  0  0  0  0  0  0  0  0  0  0
   10.2789  -15.7887   21.9756 O   0  0  0  0  0  0  0  0  0  0  0  0
    5.8874  -11.0854   26.3902 C   0  0  0  0  0  0  0  0  0  0  0  0
    5.6091  -12.8146   25.9059 S   0  0  0  0  0  0  0  0  0  0  0  0
    7.2001  -13.6969   25.7155 C   0  0  0  0  0  0  0  0  0  0  0  0
    7.1546  -14.6824   24.6162 C   0  0  0  0  0  0  0  0  0  0  0  0
    8.4391  -14.9748   23.9108 C   0  0  2  0  0  0  0  0  0  0  0  0
    8.1779  -15.9450   22.8347 N   0  0  0  0  0  0  0  0  0  0  0  0
    9.4922  -15.5732   24.7688 C   0  0  0  0  0  0  0  0  0  0  0  0
   10.6377  -15.8349   24.2480 O   0  0  0  0  0  0  0  0  0  0  0  0
    9.7175  -14.1153   29.7674 C   0  0  0  0  0  0  0  0  0  0  0  0
    9.9535  -14.5007   28.3214 C   0  0  1  0  0  0  0  0  0  0  0  0
   10.9468  -13.5159   27.6812 C   0  0  0  0  0  0  0  0  0  0  0  0
   10.4989  -15.8970   28.2789 C   0  0  0  0  0  0  0  0  0  0  0  0
   10.4863  -16.4404   26.8947 C   0  0  2  0  0  0  0  0  0  0  0  0
    9.3628  -15.8888   26.1307 N   0  0  0  0  0  0  0  0  0  0  0  0
   10.3903  -17.9048   26.8947 C   0  0  0  0  0  0  0  0  0  0  0  0
   11.2496  -18.6754   27.3492 O   0  0  0  0  0  0  0  0  0  0  0  0
    9.2524  -18.5392   26.3474 O   0  0  0  0  0  0  0  0  0  0  0  0
  2  1  1  6
  3  2  1  0
  4  2  1  0
  4  5  1  6
  6  4  1  0
  7  6  2  0
  8  9  1  0
  9 10  1  0
 11 10  1  0
 12 11  1  1
 12 13  1  0
 13  6  1  0
 14 12  1  0
 14 15  2  0
 17 16  1  1
 17 18  1  0
 20 19  1  1
 19 17  1  0
 20 21  1  0
 21 14  1  0
 22 20  1  0
 23 22  2  0
 24 22  1  0
M  END
$$$$
