TML.pdb
     RDKit          3D

 24 23  0  0  1  0  0  0  0  0999 V2000
    8.6181  -19.2025   23.1726 C   0  0  0  0  0  0  0  0  0  0  0  0
    9.0965  -18.8174   21.8070 C   0  0  1  0  0  0  0  0  0  0  0  0
    8.9552  -19.8671   20.9113 O   0  0  0  0  0  0  0  0  0  0  0  0
    8.3692  -17.5633   21.3165 C   0  0  2  0  0  0  0  0  0  0  0  0
    8.7408  -17.3097   19.9316 N   0  0  0  0  0  0  0  0  0  0  0  0
    8.8828  -16.4402   22.1406 C   0  0  0  0  0  0  0  0  0  0  0  0
    9.9935  -15.9196   21.8623 O   0  0  0  0  0  0  0  0  0  0  0  0
    6.1969  -12.3049   26.8268 C   0  0  0  0  0  0  0  0  0  0  0  0
    5.6897  -12.1229   25.0914 S   0  0  0  0  0  0  0  0  0  0  0  0
    6.7841  -13.0931   23.9927 C   0  0  0  0  0  0  0  0  0  0  0  0
    7.5000  -14.1555   24.7280 C   0  0  0  0  0  0  0  0  0  0  0  0
    8.6646  -14.7921   24.0414 C   0  0  2  0  0  0  0  0  0  0  0  0
    8.1777  -15.9222   23.2332 N   0  0  0  0  0  0  0  0  0  0  0  0
    9.6948  -15.3437   24.9566 C   0  0  0  0  0  0  0  0  0  0  0  0
   10.8684  -14.8199   24.9521 O   0  0  0  0  0  0  0  0  0  0  0  0
    9.9154  -14.1925   29.4018 C   0  0  0  0  0  0  0  0  0  0  0  0
   10.2507  -14.7299   28.0256 C   0  0  1  0  0  0  0  0  0  0  0  0
   11.5605  -14.0941   27.5292 C   0  0  0  0  0  0  0  0  0  0  0  0
   10.3917  -16.2203   28.1127 C   0  0  0  0  0  0  0  0  0  0  0  0
   10.5817  -16.8249   26.7674 C   0  0  2  0  0  0  0  0  0  0  0  0
    9.5126  -16.4072   25.8548 N   0  0  0  0  0  0  0  0  0  0  0  0
   10.6043  -18.2906   26.8370 C   0  0  0  0  0  0  0  0  0  0  0  0
    9.8075  -19.0440   26.2571 O   0  0  0  0  0  0  0  0  0  0  0  0
   11.5885  -18.9472   27.6096 O   0  0  0  0  0  0  0  0  0  0  0  0
  2  1  1  1
  3  2  1  0
  4  2  1  0
  4  5  1  6
  6  4  1  0
  7  6  2  0
  8  9  1  0
  9 10  1  0
 11 10  1  0
 12 11  1  1
 12 13  1  0
 13  6  1  0
 14 12  1  0
 14 15  2  0
 17 16  1  1
 17 18  1  0
 20 19  1  1
 19 17  1  0
 20 21  1  0
 21 14  1  0
 22 20  1  0
 23 22  2  0
 24 22  1  0
M  END
$$$$
