TML.pdb
     RDKit          3D

 24 23  0  0  1  0  0  0  0  0999 V2000
    8.9535  -12.5177   21.2068 C   0  0  0  0  0  0  0  0  0  0  0  0
    7.9814  -13.1144   20.2367 C   0  0  1  0  0  0  0  0  0  0  0  0
    7.9139  -12.3669   19.0701 O   0  0  0  0  0  0  0  0  0  0  0  0
    8.3404  -14.5733   19.9449 C   0  0  2  0  0  0  0  0  0  0  0  0
    7.3805  -15.1178   18.9948 N   0  0  0  0  0  0  0  0  0  0  0  0
    8.1773  -15.3023   21.2280 C   0  0  0  0  0  0  0  0  0  0  0  0
    7.0617  -15.8023   21.5237 O   0  0  0  0  0  0  0  0  0  0  0  0
   13.9813  -18.0467   23.8021 C   0  0  0  0  0  0  0  0  0  0  0  0
   12.6446  -19.1372   23.2310 S   0  0  0  0  0  0  0  0  0  0  0  0
   11.0103  -18.4343   23.6567 C   0  0  0  0  0  0  0  0  0  0  0  0
   10.6715  -17.2752   22.8061 C   0  0  0  0  0  0  0  0  0  0  0  0
    9.3424  -16.6306   23.0322 C   0  0  2  0  0  0  0  0  0  0  0  0
    9.2248  -15.4636   22.1423 N   0  0  0  0  0  0  0  0  0  0  0  0
    9.1263  -16.1292   24.4125 C   0  0  0  0  0  0  0  0  0  0  0  0
    9.0832  -16.9772   25.3774 O   0  0  0  0  0  0  0  0  0  0  0  0
    5.5618  -12.7686   26.2144 C   0  0  0  0  0  0  0  0  0  0  0  0
    6.9435  -13.0949   25.6858 C   0  0  1  0  0  0  0  0  0  0  0  0
    7.7485  -11.7958   25.5111 C   0  0  0  0  0  0  0  0  0  0  0  0
    7.6272  -14.0082   26.6591 C   0  0  0  0  0  0  0  0  0  0  0  0
    8.9903  -14.3746   26.1908 C   0  0  2  0  0  0  0  0  0  0  0  0
    8.9627  -14.7850   24.7833 N   0  0  0  0  0  0  0  0  0  0  0  0
    9.5584  -15.4633   26.9943 C   0  0  0  0  0  0  0  0  0  0  0  0
    9.8204  -16.5996   26.5712 O   0  0  0  0  0  0  0  0  0  0  0  0
    9.8493  -15.2563   28.3615 O   0  0  0  0  0  0  0  0  0  0  0  0
  2  1  1  1
  3  2  1  0
  4  2  1  0
  4  5  1  6
  6  4  1  0
  7  6  2  0
  8  9  1  0
  9 10  1  0
 11 10  1  0
 12 11  1  1
 12 13  1  0
 13  6  1  0
 14 12  1  0
 14 15  2  0
 17 16  1  1
 17 18  1  0
 20 19  1  1
 19 17  1  0
 20 21  1  0
 21 14  1  0
 22 20  1  0
 23 22  2  0
 24 22  1  0
M  END
$$$$
