TML.pdb
     RDKit          3D

 24 23  0  0  1  0  0  0  0  0999 V2000
    9.7623  -19.1445   22.1996 C   0  0  0  0  0  0  0  0  0  0  0  0
   10.3225  -18.3771   21.0423 C   0  0  1  0  0  0  0  0  0  0  0  0
   10.4869  -19.1925   19.9322 O   0  0  0  0  0  0  0  0  0  0  0  0
    9.4402  -17.1684   20.7214 C   0  0  2  0  0  0  0  0  0  0  0  0
   10.0026  -16.4593   19.5806 N   0  0  0  0  0  0  0  0  0  0  0  0
    9.5231  -16.2726   21.9025 C   0  0  0  0  0  0  0  0  0  0  0  0
   10.5133  -15.5087   22.0376 O   0  0  0  0  0  0  0  0  0  0  0  0
    5.9929  -11.4123   25.5606 C   0  0  0  0  0  0  0  0  0  0  0  0
    7.4644  -12.4743   25.6551 S   0  0  0  0  0  0  0  0  0  0  0  0
    6.9866  -14.2397   25.6884 C   0  0  0  0  0  0  0  0  0  0  0  0
    7.1938  -14.8906   24.3787 C   0  0  0  0  0  0  0  0  0  0  0  0
    8.5851  -15.3229   24.0461 C   0  0  2  0  0  0  0  0  0  0  0  0
    8.5339  -16.2358   22.8922 N   0  0  0  0  0  0  0  0  0  0  0  0
    9.2793  -16.0583   25.1326 C   0  0  0  0  0  0  0  0  0  0  0  0
    8.7273  -17.1147   25.6134 O   0  0  0  0  0  0  0  0  0  0  0  0
    9.2883  -14.0159   29.3815 C   0  0  0  0  0  0  0  0  0  0  0  0
   10.0185  -14.4129   28.1148 C   0  0  1  0  0  0  0  0  0  0  0  0
   11.3901  -13.7180   28.0714 C   0  0  0  0  0  0  0  0  0  0  0  0
   10.1854  -15.9032   28.1031 C   0  0  0  0  0  0  0  0  0  0  0  0
   10.9906  -16.3478   26.9346 C   0  0  2  0  0  0  0  0  0  0  0  0
   10.5141  -15.7103   25.7030 N   0  0  0  0  0  0  0  0  0  0  0  0
   10.9362  -17.8050   26.7696 C   0  0  0  0  0  0  0  0  0  0  0  0
   10.3271  -18.5848   27.5178 O   0  0  0  0  0  0  0  0  0  0  0  0
   11.6116  -18.4208   25.6919 O   0  0  0  0  0  0  0  0  0  0  0  0
  2  1  1  1
  3  2  1  0
  4  2  1  0
  4  5  1  6
  6  4  1  0
  7  6  2  0
  8  9  1  0
  9 10  1  0
 11 10  1  0
 12 11  1  1
 12 13  1  0
 13  6  1  0
 14 12  1  0
 14 15  2  0
 17 16  1  1
 17 18  1  0
 20 19  1  1
 19 17  1  0
 20 21  1  0
 21 14  1  0
 22 20  1  0
 23 22  2  0
 24 22  1  0
M  END
$$$$
