TML.pdb
     RDKit          3D

 24 23  0  0  1  0  0  0  0  0999 V2000
    7.9440  -19.2498   23.4538 C   0  0  0  0  0  0  0  0  0  0  0  0
    8.5021  -19.1799   22.0661 C   0  0  1  0  0  0  0  0  0  0  0  0
    8.2133  -20.3326   21.3505 O   0  0  0  0  0  0  0  0  0  0  0  0
    7.9907  -17.9314   21.3435 C   0  0  2  0  0  0  0  0  0  0  0  0
    8.4306  -17.9720   19.9560 N   0  0  0  0  0  0  0  0  0  0  0  0
    8.6528  -16.7756   21.9993 C   0  0  0  0  0  0  0  0  0  0  0  0
    9.8232  -16.4564   21.6670 O   0  0  0  0  0  0  0  0  0  0  0  0
    5.5210  -13.0175   26.6187 C   0  0  0  0  0  0  0  0  0  0  0  0
    6.6900  -11.9103   25.7761 S   0  0  0  0  0  0  0  0  0  0  0  0
    8.0904  -12.8583   25.0788 C   0  0  0  0  0  0  0  0  0  0  0  0
    7.6298  -14.0004   24.2632 C   0  0  0  0  0  0  0  0  0  0  0  0
    8.6815  -14.8763   23.6633 C   0  0  2  0  0  0  0  0  0  0  0  0
    8.0259  -16.0086   22.9883 N   0  0  0  0  0  0  0  0  0  0  0  0
    9.6288  -15.4635   24.6436 C   0  0  0  0  0  0  0  0  0  0  0  0
   10.8905  -15.3540   24.4244 O   0  0  0  0  0  0  0  0  0  0  0  0
    9.2745  -14.0234   29.3487 C   0  0  0  0  0  0  0  0  0  0  0  0
    9.8162  -14.5137   28.0216 C   0  0  1  0  0  0  0  0  0  0  0  0
   11.1247  -13.7740   27.6943 C   0  0  0  0  0  0  0  0  0  0  0  0
   10.0589  -15.9905   28.1175 C   0  0  0  0  0  0  0  0  0  0  0  0
   10.2981  -16.5871   26.7765 C   0  0  2  0  0  0  0  0  0  0  0  0
    9.2781  -16.1428   25.8212 N   0  0  0  0  0  0  0  0  0  0  0  0
   10.2918  -18.0536   26.8336 C   0  0  0  0  0  0  0  0  0  0  0  0
   11.0894  -18.7449   27.4854 O   0  0  0  0  0  0  0  0  0  0  0  0
    9.3241  -18.7858   26.1096 O   0  0  0  0  0  0  0  0  0  0  0  0
  2  1  1  1
  3  2  1  0
  4  2  1  0
  4  5  1  6
  6  4  1  0
  7  6  2  0
  8  9  1  0
  9 10  1  0
 11 10  1  0
 12 11  1  1
 12 13  1  0
 13  6  1  0
 14 12  1  0
 14 15  2  0
 17 16  1  1
 17 18  1  0
 20 19  1  1
 19 17  1  0
 20 21  1  0
 21 14  1  0
 22 20  1  0
 23 22  2  0
 24 22  1  0
M  END
$$$$
