KIY.pdb
     RDKit          3D

 30 30  0  0  1  0  0  0  0  0999 V2000
   11.8537  -15.0570   15.1959 N   0  0  0  0  0  0  0  0  0  0  0  0
   11.1008  -15.8736   16.0939 C   0  0  1  0  0  0  0  0  0  0  0  0
   11.7404  -17.2207   16.2189 C   0  0  0  0  0  0  0  0  0  0  0  0
   12.1731  -17.8587   14.9543 C   0  0  0  0  0  0  0  0  0  0  0  0
   11.1082  -18.4554   14.1028 C   0  0  0  0  0  0  0  0  0  0  0  0
   11.6194  -19.1511   12.8720 C   0  0  0  0  0  0  0  0  0  0  0  0
   12.1412  -20.4775   13.2253 N   0  0  0  0  0  0  0  0  0  0  0  0
   10.9476  -15.1920   17.4030 C   0  0  0  0  0  0  0  0  0  0  0  0
   11.9517  -14.6296   17.8962 O   0  0  0  0  0  0  0  0  0  0  0  0
    6.3633  -12.6963   18.8288 C   0  0  0  0  0  0  0  0  0  0  0  0
    7.8526  -12.9810   18.5520 C   0  0  0  0  0  0  0  0  0  0  0  0
    8.2874  -13.9624   19.5976 C   0  0  2  0  0  0  0  0  0  0  0  0
    7.9843  -13.4472   20.9871 C   0  0  0  0  0  0  0  0  0  0  0  0
    9.6699  -14.4991   19.4599 C   0  0  2  0  0  0  0  0  0  0  0  0
    9.7353  -15.1321   18.1406 N   0  0  0  0  0  0  0  0  0  0  0  0
   10.1564  -15.3845   20.5095 C   0  0  0  0  0  0  0  0  0  0  0  0
    9.8032  -16.6237   20.4723 O   0  0  0  0  0  0  0  0  0  0  0  0
   16.0186  -16.1688   17.9532 O   0  0  0  0  0  0  0  0  0  0  0  0
   15.2631  -16.0552   19.1297 C   0  0  0  0  0  0  0  0  0  0  0  0
   14.8571  -14.8376   19.6158 C   0  0  0  0  0  0  0  0  0  0  0  0
   14.1172  -14.7691   20.7731 C   0  0  0  0  0  0  0  0  0  0  0  0
   13.7793  -15.9411   21.4535 C   0  0  0  0  0  0  0  0  0  0  0  0
   13.0082  -15.8522   22.6960 C   0  0  0  0  0  0  0  0  0  0  0  0
   11.5436  -16.0512   22.4967 C   0  0  2  0  0  0  0  0  0  0  0  0
   11.0001  -15.0191   21.5893 N   0  0  0  0  0  0  0  0  0  0  0  0
   10.8311  -15.9682   23.7842 C   0  0  0  0  0  0  0  0  0  0  0  0
   11.0110  -16.8945   24.8104 O   0  0  0  0  0  0  0  0  0  0  0  0
   14.2011  -17.1401   20.9406 C   0  0  0  0  0  0  0  0  0  0  0  0
   14.9485  -17.2166   19.7722 C   0  0  0  0  0  0  0  0  0  0  0  0
   10.0145  -15.0448   24.0231 O   0  0  0  0  0  0  0  0  0  0  0  0
  2  3  1  0
  2  1  1  6
  3  4  1  0
  4  5  1  0
  5  6  1  0
  7  6  1  0
  8  9  2  0
  8  2  1  0
 10 11  1  0
 11 12  1  0
 12 14  1  0
 12 13  1  1
 14 15  1  6
 15  8  1  0
 16 14  1  0
 16 17  2  0
 18 19  1  0
 19 29  2  0
 20 21  2  0
 20 19  1  0
 21 22  1  0
 22 23  1  0
 22 28  2  0
 24 25  1  0
 24 23  1  1
 25 16  1  0
 26 24  1  0
 27 26  1  0
 29 28  1  0
 30 26  2  0
M  END
$$$$
