KIY.pdb
     RDKit          3D

 30 30  0  0  1  0  0  0  0  0999 V2000
    9.9656  -18.4516   18.1368 N   0  0  0  0  0  0  0  0  0  0  0  0
   10.5803  -17.1690   18.0054 C   0  0  1  0  0  0  0  0  0  0  0  0
    9.9596  -16.4183   16.8694 C   0  0  0  0  0  0  0  0  0  0  0  0
    9.8186  -17.1599   15.5952 C   0  0  0  0  0  0  0  0  0  0  0  0
    9.2553  -16.4106   14.4392 C   0  0  0  0  0  0  0  0  0  0  0  0
   10.0609  -15.2087   14.0310 C   0  0  0  0  0  0  0  0  0  0  0  0
    9.3890  -14.5039   12.9317 N   0  0  0  0  0  0  0  0  0  0  0  0
   10.5024  -16.4277   19.2884 C   0  0  0  0  0  0  0  0  0  0  0  0
   11.3669  -15.5512   19.5166 O   0  0  0  0  0  0  0  0  0  0  0  0
    6.0401  -14.2803   20.8113 C   0  0  0  0  0  0  0  0  0  0  0  0
    7.5360  -14.5073   20.5171 C   0  0  0  0  0  0  0  0  0  0  0  0
    8.0513  -15.3650   21.6326 C   0  0  2  0  0  0  0  0  0  0  0  0
    7.7531  -14.7438   22.9791 C   0  0  0  0  0  0  0  0  0  0  0  0
    9.4585  -15.8355   21.5027 C   0  0  2  0  0  0  0  0  0  0  0  0
    9.5104  -16.6432   20.2819 N   0  0  0  0  0  0  0  0  0  0  0  0
   10.0425  -16.5349   22.6394 C   0  0  0  0  0  0  0  0  0  0  0  0
    9.8813  -17.8115   22.7165 O   0  0  0  0  0  0  0  0  0  0  0  0
    9.3876  -12.2768   28.6892 O   0  0  0  0  0  0  0  0  0  0  0  0
   10.1020  -13.2220   27.9382 C   0  0  0  0  0  0  0  0  0  0  0  0
   10.1385  -14.5486   28.2885 C   0  0  0  0  0  0  0  0  0  0  0  0
   10.8508  -15.4439   27.5252 C   0  0  0  0  0  0  0  0  0  0  0  0
   11.5374  -15.0012   26.3924 C   0  0  0  0  0  0  0  0  0  0  0  0
   12.3088  -15.9621   25.6001 C   0  0  0  0  0  0  0  0  0  0  0  0
   11.4635  -16.7946   24.6963 C   0  0  2  0  0  0  0  0  0  0  0  0
   10.7901  -15.9462   23.6910 N   0  0  0  0  0  0  0  0  0  0  0  0
   10.4356  -17.5148   25.4688 C   0  0  0  0  0  0  0  0  0  0  0  0
   10.7250  -18.6183   26.2701 O   0  0  0  0  0  0  0  0  0  0  0  0
   11.4801  -13.6699   26.0715 C   0  0  0  0  0  0  0  0  0  0  0  0
   10.7625  -12.7602   26.8378 C   0  0  0  0  0  0  0  0  0  0  0  0
    9.2302  -17.1642   25.4424 O   0  0  0  0  0  0  0  0  0  0  0  0
  2  3  1  0
  2  1  1  1
  3  4  1  0
  4  5  1  0
  5  6  1  0
  7  6  1  0
  8  9  2  0
  8  2  1  0
 10 11  1  0
 11 12  1  0
 12 14  1  0
 12 13  1  1
 14 15  1  6
 15  8  1  0
 16 14  1  0
 16 17  2  0
 18 19  1  0
 19 29  2  0
 20 21  2  0
 20 19  1  0
 21 22  1  0
 22 23  1  0
 22 28  2  0
 24 25  1  0
 24 23  1  1
 25 16  1  0
 26 24  1  0
 27 26  1  0
 29 28  1  0
 30 26  2  0
M  END
$$$$
