KIY.pdb
     RDKit          3D

 30 30  0  0  1  0  0  0  0  0999 V2000
    5.7244  -17.2735   21.4407 N   0  0  0  0  0  0  0  0  0  0  0  0
    5.6672  -17.2244   22.8671 C   0  0  1  0  0  0  0  0  0  0  0  0
    5.7877  -18.6050   23.4317 C   0  0  0  0  0  0  0  0  0  0  0  0
    5.1840  -19.6941   22.6300 C   0  0  0  0  0  0  0  0  0  0  0  0
    5.2315  -21.0634   23.2112 C   0  0  0  0  0  0  0  0  0  0  0  0
    4.5513  -22.1124   22.3763 C   0  0  0  0  0  0  0  0  0  0  0  0
    4.6619  -23.4232   23.0292 N   0  0  0  0  0  0  0  0  0  0  0  0
    6.7041  -16.3018   23.3918 C   0  0  0  0  0  0  0  0  0  0  0  0
    7.8065  -16.2556   22.7998 O   0  0  0  0  0  0  0  0  0  0  0  0
    5.2495  -12.0211   26.4183 C   0  0  0  0  0  0  0  0  0  0  0  0
    5.9414  -12.7849   25.2721 C   0  0  0  0  0  0  0  0  0  0  0  0
    7.0140  -13.6113   25.9141 C   0  0  2  0  0  0  0  0  0  0  0  0
    8.0285  -12.7361   26.6162 C   0  0  0  0  0  0  0  0  0  0  0  0
    7.6365  -14.6590   25.0578 C   0  0  2  0  0  0  0  0  0  0  0  0
    6.5336  -15.4623   24.5247 N   0  0  0  0  0  0  0  0  0  0  0  0
    8.6714  -15.4911   25.6567 C   0  0  0  0  0  0  0  0  0  0  0  0
    8.3405  -16.2658   26.6325 O   0  0  0  0  0  0  0  0  0  0  0  0
    7.6488  -20.4986   29.5881 O   0  0  0  0  0  0  0  0  0  0  0  0
    8.3391  -19.8821   28.5339 C   0  0  0  0  0  0  0  0  0  0  0  0
    9.7088  -19.9085   28.4506 C   0  0  0  0  0  0  0  0  0  0  0  0
   10.3477  -19.2917   27.4005 C   0  0  0  0  0  0  0  0  0  0  0  0
    9.6004  -18.6380   26.4182 C   0  0  0  0  0  0  0  0  0  0  0  0
   10.2949  -17.9677   25.3161 C   0  0  0  0  0  0  0  0  0  0  0  0
   10.8961  -16.6599   25.7064 C   0  0  2  0  0  0  0  0  0  0  0  0
   10.0342  -15.5427   25.2674 N   0  0  0  0  0  0  0  0  0  0  0  0
   12.2256  -16.4984   25.0912 C   0  0  0  0  0  0  0  0  0  0  0  0
   13.3418  -17.2281   25.4975 O   0  0  0  0  0  0  0  0  0  0  0  0
    8.2346  -18.6305   26.5322 C   0  0  0  0  0  0  0  0  0  0  0  0
    7.5827  -19.2515   27.5901 C   0  0  0  0  0  0  0  0  0  0  0  0
   12.4207  -15.6829   24.1565 O   0  0  0  0  0  0  0  0  0  0  0  0
  2  3  1  0
  2  1  1  6
  3  4  1  0
  4  5  1  0
  5  6  1  0
  7  6  1  0
  8  9  2  0
  8  2  1  0
 10 11  1  0
 11 12  1  0
 12 14  1  0
 12 13  1  6
 14 15  1  1
 15  8  1  0
 16 14  1  0
 16 17  2  0
 18 19  1  0
 19 29  2  0
 20 21  2  0
 20 19  1  0
 21 22  1  0
 22 23  1  0
 22 28  2  0
 24 25  1  0
 24 23  1  6
 25 16  1  0
 26 24  1  0
 27 26  1  0
 29 28  1  0
 30 26  2  0
M  END
$$$$
