KIY.pdb
     RDKit          3D

 30 30  0  0  1  0  0  0  0  0999 V2000
   11.2347  -17.8791   17.3089 N   0  0  0  0  0  0  0  0  0  0  0  0
   10.4389  -18.2224   18.4444 C   0  0  1  0  0  0  0  0  0  0  0  0
   10.9874  -19.4499   19.1013 C   0  0  0  0  0  0  0  0  0  0  0  0
   11.9707  -20.2288   18.3139 C   0  0  0  0  0  0  0  0  0  0  0  0
   12.4028  -21.5355   18.8803 C   0  0  0  0  0  0  0  0  0  0  0  0
   13.4590  -22.2388   18.0741 C   0  0  0  0  0  0  0  0  0  0  0  0
   13.9129  -23.4424   18.7826 N   0  0  0  0  0  0  0  0  0  0  0  0
   10.3474  -17.0705   19.3753 C   0  0  0  0  0  0  0  0  0  0  0  0
   11.3712  -16.3713   19.5507 O   0  0  0  0  0  0  0  0  0  0  0  0
    6.6435  -12.6778   20.3198 C   0  0  0  0  0  0  0  0  0  0  0  0
    7.8809  -13.3054   20.9913 C   0  0  0  0  0  0  0  0  0  0  0  0
    7.9640  -14.7097   20.4751 C   0  0  2  0  0  0  0  0  0  0  0  0
    6.6449  -15.4305   20.6438 C   0  0  0  0  0  0  0  0  0  0  0  0
    9.1326  -15.5103   20.9353 C   0  0  2  0  0  0  0  0  0  0  0  0
    9.1737  -16.7028   20.0855 N   0  0  0  0  0  0  0  0  0  0  0  0
    9.2003  -15.8515   22.3499 C   0  0  0  0  0  0  0  0  0  0  0  0
    8.7211  -16.9878   22.7253 O   0  0  0  0  0  0  0  0  0  0  0  0
   10.6492  -16.1076   31.0524 O   0  0  0  0  0  0  0  0  0  0  0  0
   10.5287  -15.6566   29.7296 C   0  0  0  0  0  0  0  0  0  0  0  0
   10.1957  -14.3584   29.4338 C   0  0  0  0  0  0  0  0  0  0  0  0
   10.0877  -13.9558   28.1231 C   0  0  0  0  0  0  0  0  0  0  0  0
   10.3176  -14.8703   27.0929 C   0  0  0  0  0  0  0  0  0  0  0  0
   10.1792  -14.4331   25.7015 C   0  0  0  0  0  0  0  0  0  0  0  0
    9.7672  -15.5287   24.7773 C   0  0  2  0  0  0  0  0  0  0  0  0
    9.7543  -15.0489   23.3796 N   0  0  0  0  0  0  0  0  0  0  0  0
    8.4188  -16.0144   25.1205 C   0  0  0  0  0  0  0  0  0  0  0  0
    8.1953  -17.2071   25.8068 O   0  0  0  0  0  0  0  0  0  0  0  0
   10.6480  -16.1588   27.4235 C   0  0  0  0  0  0  0  0  0  0  0  0
   10.7589  -16.5722   28.7451 C   0  0  0  0  0  0  0  0  0  0  0  0
    7.3894  -15.3675   24.8066 O   0  0  0  0  0  0  0  0  0  0  0  0
  2  3  1  0
  2  1  1  6
  3  4  1  0
  4  5  1  0
  5  6  1  0
  7  6  1  0
  8  9  2  0
  8  2  1  0
 10 11  1  0
 11 12  1  0
 12 14  1  0
 12 13  1  1
 14 15  1  6
 15  8  1  0
 16 14  1  0
 16 17  2  0
 18 19  1  0
 19 29  2  0
 20 21  2  0
 20 19  1  0
 21 22  1  0
 22 23  1  0
 22 28  2  0
 24 25  1  0
 24 23  1  1
 25 16  1  0
 26 24  1  0
 27 26  1  0
 29 28  1  0
 30 26  2  0
M  END
$$$$
