KIY.pdb
     RDKit          3D

 30 30  0  0  1  0  0  0  0  0999 V2000
   10.4720  -18.5141   18.5713 N   0  0  0  0  0  0  0  0  0  0  0  0
    9.4792  -18.4633   19.5970 C   0  0  1  0  0  0  0  0  0  0  0  0
    9.5293  -19.7122   20.4197 C   0  0  0  0  0  0  0  0  0  0  0  0
    9.3197  -20.9842   19.6905 C   0  0  0  0  0  0  0  0  0  0  0  0
    9.1716  -22.2152   20.5136 C   0  0  0  0  0  0  0  0  0  0  0  0
    8.1579  -22.1012   21.6179 C   0  0  0  0  0  0  0  0  0  0  0  0
    6.8950  -22.7279   21.2068 N   0  0  0  0  0  0  0  0  0  0  0  0
    9.6463  -17.2359   20.4139 C   0  0  0  0  0  0  0  0  0  0  0  0
   10.8081  -16.8139   20.6135 O   0  0  0  0  0  0  0  0  0  0  0  0
    6.6966  -12.9327   19.7442 C   0  0  0  0  0  0  0  0  0  0  0  0
    7.8388  -13.9483   19.9439 C   0  0  0  0  0  0  0  0  0  0  0  0
    7.8336  -14.2952   21.4016 C   0  0  2  0  0  0  0  0  0  0  0  0
    7.8662  -13.0487   22.2579 C   0  0  0  0  0  0  0  0  0  0  0  0
    8.8146  -15.3292   21.8339 C   0  0  2  0  0  0  0  0  0  0  0  0
    8.5751  -16.5014   20.9887 N   0  0  0  0  0  0  0  0  0  0  0  0
    8.8456  -15.6790   23.2477 C   0  0  0  0  0  0  0  0  0  0  0  0
    7.9649  -16.5110   23.6882 O   0  0  0  0  0  0  0  0  0  0  0  0
    6.0459  -10.6209   26.5534 O   0  0  0  0  0  0  0  0  0  0  0  0
    6.6458  -11.8856   26.4608 C   0  0  0  0  0  0  0  0  0  0  0  0
    7.9464  -12.1007   26.8428 C   0  0  0  0  0  0  0  0  0  0  0  0
    8.4977  -13.3562   26.7363 C   0  0  0  0  0  0  0  0  0  0  0  0
    7.7317  -14.4127   26.2385 C   0  0  0  0  0  0  0  0  0  0  0  0
    8.3378  -15.7404   26.1113 C   0  0  0  0  0  0  0  0  0  0  0  0
    9.7374  -15.7029   25.5976 C   0  0  2  0  0  0  0  0  0  0  0  0
    9.7661  -15.1929   24.2109 N   0  0  0  0  0  0  0  0  0  0  0  0
   10.3303  -17.0521   25.6151 C   0  0  0  0  0  0  0  0  0  0  0  0
   10.5407  -17.7718   26.7903 O   0  0  0  0  0  0  0  0  0  0  0  0
    6.4366  -14.1630   25.8659 C   0  0  0  0  0  0  0  0  0  0  0  0
    5.8734  -12.8974   25.9709 C   0  0  0  0  0  0  0  0  0  0  0  0
   10.6805  -17.6280   24.5556 O   0  0  0  0  0  0  0  0  0  0  0  0
  2  3  1  0
  2  1  1  6
  3  4  1  0
  4  5  1  0
  5  6  1  0
  7  6  1  0
  8  9  2  0
  8  2  1  0
 10 11  1  0
 11 12  1  0
 12 14  1  0
 12 13  1  1
 14 15  1  6
 15  8  1  0
 16 14  1  0
 16 17  2  0
 18 19  1  0
 19 29  2  0
 20 21  2  0
 20 19  1  0
 21 22  1  0
 22 23  1  0
 22 28  2  0
 24 25  1  0
 24 23  1  6
 25 16  1  0
 26 24  1  0
 27 26  1  0
 29 28  1  0
 30 26  2  0
M  END
$$$$
