KIY.pdb
     RDKit          3D

 30 30  0  0  1  0  0  0  0  0999 V2000
    7.1733  -14.5170   19.8949 N   0  0  0  0  0  0  0  0  0  0  0  0
    6.8537  -15.1464   21.1366 C   0  0  1  0  0  0  0  0  0  0  0  0
    6.9766  -16.6318   21.0038 C   0  0  0  0  0  0  0  0  0  0  0  0
    6.4974  -17.2161   19.7301 C   0  0  0  0  0  0  0  0  0  0  0  0
    6.4011  -18.6998   19.6646 C   0  0  0  0  0  0  0  0  0  0  0  0
    5.7749  -19.2227   18.4017 C   0  0  0  0  0  0  0  0  0  0  0  0
    5.7274  -20.6901   18.4352 N   0  0  0  0  0  0  0  0  0  0  0  0
    7.7026  -14.5993   22.2238 C   0  0  0  0  0  0  0  0  0  0  0  0
    8.8733  -14.2562   21.9420 O   0  0  0  0  0  0  0  0  0  0  0  0
    5.5512  -11.6702   26.2411 C   0  0  0  0  0  0  0  0  0  0  0  0
    6.3945  -12.1592   25.0472 C   0  0  0  0  0  0  0  0  0  0  0  0
    7.3104  -13.2129   25.5917 C   0  0  2  0  0  0  0  0  0  0  0  0
    8.0739  -12.7021   26.7935 C   0  0  0  0  0  0  0  0  0  0  0  0
    8.1765  -13.9070   24.5986 C   0  0  2  0  0  0  0  0  0  0  0  0
    7.2785  -14.4363   23.5695 N   0  0  0  0  0  0  0  0  0  0  0  0
    9.0889  -14.9274   25.0972 C   0  0  0  0  0  0  0  0  0  0  0  0
    8.5930  -15.9157   25.7599 O   0  0  0  0  0  0  0  0  0  0  0  0
   11.4219  -16.0077   31.8692 O   0  0  0  0  0  0  0  0  0  0  0  0
   11.1793  -16.2633   30.5114 C   0  0  0  0  0  0  0  0  0  0  0  0
   11.0902  -17.5414   30.0190 C   0  0  0  0  0  0  0  0  0  0  0  0
   10.8510  -17.7496   28.6807 C   0  0  0  0  0  0  0  0  0  0  0  0
   10.6987  -16.6580   27.8228 C   0  0  0  0  0  0  0  0  0  0  0  0
   10.4647  -16.8943   26.3961 C   0  0  0  0  0  0  0  0  0  0  0  0
   11.3055  -16.0378   25.5108 C   0  0  2  0  0  0  0  0  0  0  0  0
   10.4961  -14.9504   24.9225 N   0  0  0  0  0  0  0  0  0  0  0  0
   11.8848  -16.8378   24.4169 C   0  0  0  0  0  0  0  0  0  0  0  0
   11.3282  -16.8900   23.1399 O   0  0  0  0  0  0  0  0  0  0  0  0
   10.7939  -15.3954   28.3475 C   0  0  0  0  0  0  0  0  0  0  0  0
   11.0351  -15.1778   29.6981 C   0  0  0  0  0  0  0  0  0  0  0  0
   12.9242  -17.5222   24.5846 O   0  0  0  0  0  0  0  0  0  0  0  0
  2  3  1  0
  2  1  1  6
  3  4  1  0
  4  5  1  0
  5  6  1  0
  7  6  1  0
  8  9  2  0
  8  2  1  0
 10 11  1  0
 11 12  1  0
 12 14  1  0
 12 13  1  1
 14 15  1  6
 15  8  1  0
 16 14  1  0
 16 17  2  0
 18 19  1  0
 19 29  2  0
 20 21  2  0
 20 19  1  0
 21 22  1  0
 22 23  1  0
 22 28  2  0
 24 25  1  0
 24 23  1  1
 25 16  1  0
 26 24  1  0
 27 26  1  0
 29 28  1  0
 30 26  2  0
M  END
$$$$
