KIY.pdb
     RDKit          3D

 30 30  0  0  1  0  0  0  0  0999 V2000
    6.5116  -16.4609   20.8325 N   0  0  0  0  0  0  0  0  0  0  0  0
    6.2456  -16.5852   22.2304 C   0  0  1  0  0  0  0  0  0  0  0  0
    6.3255  -18.0221   22.6405 C   0  0  0  0  0  0  0  0  0  0  0  0
    5.3939  -18.9495   21.9581 C   0  0  0  0  0  0  0  0  0  0  0  0
    4.1005  -19.2267   22.6402 C   0  0  0  0  0  0  0  0  0  0  0  0
    3.2174  -20.2040   21.9154 C   0  0  0  0  0  0  0  0  0  0  0  0
    3.9211  -21.4808   21.7385 N   0  0  0  0  0  0  0  0  0  0  0  0
    7.1657  -15.7188   23.0078 C   0  0  0  0  0  0  0  0  0  0  0  0
    8.3649  -15.6629   22.6520 O   0  0  0  0  0  0  0  0  0  0  0  0
    5.4092  -11.3558   25.7681 C   0  0  0  0  0  0  0  0  0  0  0  0
    6.1946  -12.2641   24.8016 C   0  0  0  0  0  0  0  0  0  0  0  0
    7.0318  -13.1593   25.6636 C   0  0  2  0  0  0  0  0  0  0  0  0
    7.9085  -12.3528   26.5958 C   0  0  0  0  0  0  0  0  0  0  0  0
    7.7681  -14.2466   24.9607 C   0  0  2  0  0  0  0  0  0  0  0  0
    6.7801  -14.9436   24.1338 N   0  0  0  0  0  0  0  0  0  0  0  0
    8.5410  -15.1734   25.7766 C   0  0  0  0  0  0  0  0  0  0  0  0
    8.1346  -15.4127   26.9763 O   0  0  0  0  0  0  0  0  0  0  0  0
   11.6365  -21.4138   30.5039 O   0  0  0  0  0  0  0  0  0  0  0  0
   11.1437  -20.5661   29.5007 C   0  0  0  0  0  0  0  0  0  0  0  0
   10.1028  -19.7012   29.7291 C   0  0  0  0  0  0  0  0  0  0  0  0
    9.6491  -18.8862   28.7184 C   0  0  0  0  0  0  0  0  0  0  0  0
   10.2494  -18.9400   27.4584 C   0  0  0  0  0  0  0  0  0  0  0  0
    9.7427  -18.0810   26.3853 C   0  0  0  0  0  0  0  0  0  0  0  0
   10.4182  -16.7526   26.3246 C   0  0  2  0  0  0  0  0  0  0  0  0
    9.7174  -15.8587   25.3792 N   0  0  0  0  0  0  0  0  0  0  0  0
   11.8157  -16.9035   25.8816 C   0  0  0  0  0  0  0  0  0  0  0  0
   12.8680  -17.1446   26.7636 O   0  0  0  0  0  0  0  0  0  0  0  0
   11.2861  -19.8152   27.2646 C   0  0  0  0  0  0  0  0  0  0  0  0
   11.7496  -20.6411   28.2809 C   0  0  0  0  0  0  0  0  0  0  0  0
   12.1315  -16.8210   24.6691 O   0  0  0  0  0  0  0  0  0  0  0  0
  2  3  1  0
  2  1  1  6
  3  4  1  0
  4  5  1  0
  5  6  1  0
  7  6  1  0
  8  9  2  0
  8  2  1  0
 10 11  1  0
 11 12  1  0
 12 14  1  0
 12 13  1  6
 14 15  1  1
 15  8  1  0
 16 14  1  0
 16 17  2  0
 18 19  1  0
 19 29  2  0
 20 21  2  0
 20 19  1  0
 21 22  1  0
 22 23  1  0
 22 28  2  0
 24 25  1  0
 24 23  1  6
 25 16  1  0
 26 24  1  0
 27 26  1  0
 29 28  1  0
 30 26  2  0
M  END
$$$$
