KIY.pdb
     RDKit          3D

 30 30  0  0  1  0  0  0  0  0999 V2000
    8.0097  -18.7762   18.6161 N   0  0  0  0  0  0  0  0  0  0  0  0
    7.2910  -18.2402   19.7281 C   0  0  1  0  0  0  0  0  0  0  0  0
    6.9741  -19.3286   20.7050 C   0  0  0  0  0  0  0  0  0  0  0  0
    6.1552  -20.4504   20.1909 C   0  0  0  0  0  0  0  0  0  0  0  0
    5.8088  -21.5285   21.1566 C   0  0  0  0  0  0  0  0  0  0  0  0
    5.0346  -22.6692   20.5569 C   0  0  0  0  0  0  0  0  0  0  0  0
    4.9111  -23.7599   21.5325 N   0  0  0  0  0  0  0  0  0  0  0  0
    8.0531  -17.1259   20.3440 C   0  0  0  0  0  0  0  0  0  0  0  0
    9.2974  -17.2374   20.4269 O   0  0  0  0  0  0  0  0  0  0  0  0
    6.8891  -11.9826   19.6142 C   0  0  0  0  0  0  0  0  0  0  0  0
    7.6724  -13.3031   19.7502 C   0  0  0  0  0  0  0  0  0  0  0  0
    7.7107  -13.6123   21.2159 C   0  0  2  0  0  0  0  0  0  0  0  0
    8.3327  -12.4752   21.9959 C   0  0  0  0  0  0  0  0  0  0  0  0
    8.2543  -14.9471   21.5914 C   0  0  2  0  0  0  0  0  0  0  0  0
    7.4673  -15.9347   20.8491 N   0  0  0  0  0  0  0  0  0  0  0  0
    8.3279  -15.2697   23.0100 C   0  0  0  0  0  0  0  0  0  0  0  0
    7.4209  -14.7906   23.7909 O   0  0  0  0  0  0  0  0  0  0  0  0
    6.8063  -10.9689   27.8020 O   0  0  0  0  0  0  0  0  0  0  0  0
    7.1651  -12.2268   27.2950 C   0  0  0  0  0  0  0  0  0  0  0  0
    8.4645  -12.5384   26.9819 C   0  0  0  0  0  0  0  0  0  0  0  0
    8.7750  -13.7835   26.4871 C   0  0  0  0  0  0  0  0  0  0  0  0
    7.7654  -14.7311   26.3036 C   0  0  0  0  0  0  0  0  0  0  0  0
    8.1072  -16.0464   25.7566 C   0  0  0  0  0  0  0  0  0  0  0  0
    9.4491  -16.0844   25.1069 C   0  0  2  0  0  0  0  0  0  0  0  0
    9.3119  -16.0771   23.6356 N   0  0  0  0  0  0  0  0  0  0  0  0
   10.1816  -17.2997   25.5052 C   0  0  0  0  0  0  0  0  0  0  0  0
   10.6949  -17.4886   26.7874 O   0  0  0  0  0  0  0  0  0  0  0  0
    6.4786  -14.3868   26.6262 C   0  0  0  0  0  0  0  0  0  0  0  0
    6.1580  -13.1311   27.1265 C   0  0  0  0  0  0  0  0  0  0  0  0
   10.3822  -18.2389   24.6962 O   0  0  0  0  0  0  0  0  0  0  0  0
  2  3  1  0
  2  1  1  6
  3  4  1  0
  4  5  1  0
  5  6  1  0
  7  6  1  0
  8  9  2  0
  8  2  1  0
 10 11  1  0
 11 12  1  0
 12 14  1  0
 12 13  1  1
 14 15  1  6
 15  8  1  0
 16 14  1  0
 16 17  2  0
 18 19  1  0
 19 29  2  0
 20 21  2  0
 20 19  1  0
 21 22  1  0
 22 23  1  0
 22 28  2  0
 24 25  1  0
 24 23  1  1
 25 16  1  0
 26 24  1  0
 27 26  1  0
 29 28  1  0
 30 26  2  0
M  END
$$$$
