KIY.pdb
     RDKit          3D

 30 30  0  0  1  0  0  0  0  0999 V2000
   11.4742  -17.9961   18.2714 N   0  0  0  0  0  0  0  0  0  0  0  0
   10.3067  -18.1050   19.0871 C   0  0  1  0  0  0  0  0  0  0  0  0
   10.3127  -19.4112   19.8171 C   0  0  0  0  0  0  0  0  0  0  0  0
    9.4853  -20.4911   19.2317 C   0  0  0  0  0  0  0  0  0  0  0  0
    8.8607  -20.2182   17.9087 C   0  0  0  0  0  0  0  0  0  0  0  0
    8.0842  -21.3744   17.3424 C   0  0  0  0  0  0  0  0  0  0  0  0
    6.8623  -21.5912   18.1276 N   0  0  0  0  0  0  0  0  0  0  0  0
   10.2087  -16.9412   20.0023 C   0  0  0  0  0  0  0  0  0  0  0  0
   11.2628  -16.5084   20.5212 O   0  0  0  0  0  0  0  0  0  0  0  0
    6.5290  -13.0375   19.1636 C   0  0  0  0  0  0  0  0  0  0  0  0
    7.8919  -13.7109   19.4187 C   0  0  0  0  0  0  0  0  0  0  0  0
    7.8176  -14.2845   20.8010 C   0  0  2  0  0  0  0  0  0  0  0  0
    7.4445  -13.2226   21.8116 C   0  0  0  0  0  0  0  0  0  0  0  0
    8.9743  -15.1198   21.2282 C   0  0  2  0  0  0  0  0  0  0  0  0
    8.9963  -16.2793   20.3333 N   0  0  0  0  0  0  0  0  0  0  0  0
    9.0383  -15.5160   22.6286 C   0  0  0  0  0  0  0  0  0  0  0  0
    8.3209  -16.5164   23.0114 O   0  0  0  0  0  0  0  0  0  0  0  0
   10.5467  -16.1246   31.3145 O   0  0  0  0  0  0  0  0  0  0  0  0
   10.5681  -15.7613   29.9597 C   0  0  0  0  0  0  0  0  0  0  0  0
   10.9566  -16.6401   28.9796 C   0  0  0  0  0  0  0  0  0  0  0  0
   10.9636  -16.2448   27.6623 C   0  0  0  0  0  0  0  0  0  0  0  0
   10.5745  -14.9470   27.3231 C   0  0  0  0  0  0  0  0  0  0  0  0
   10.6062  -14.5329   25.9182 C   0  0  0  0  0  0  0  0  0  0  0  0
    9.7497  -15.3762   25.0353 C   0  0  2  0  0  0  0  0  0  0  0  0
    9.8278  -14.9060   23.6365 N   0  0  0  0  0  0  0  0  0  0  0  0
    8.3434  -15.3195   25.4729 C   0  0  0  0  0  0  0  0  0  0  0  0
    7.7646  -16.2898   26.2895 O   0  0  0  0  0  0  0  0  0  0  0  0
   10.1928  -14.0951   28.3266 C   0  0  0  0  0  0  0  0  0  0  0  0
   10.1832  -14.4878   29.6591 C   0  0  0  0  0  0  0  0  0  0  0  0
    7.5864  -14.3797   25.1260 O   0  0  0  0  0  0  0  0  0  0  0  0
  2  3  1  0
  2  1  1  1
  3  4  1  0
  4  5  1  0
  5  6  1  0
  7  6  1  0
  8  9  2  0
  8  2  1  0
 10 11  1  0
 11 12  1  0
 12 14  1  0
 12 13  1  1
 14 15  1  6
 15  8  1  0
 16 14  1  0
 16 17  2  0
 18 19  1  0
 19 29  2  0
 20 21  2  0
 20 19  1  0
 21 22  1  0
 22 23  1  0
 22 28  2  0
 24 25  1  0
 24 23  1  1
 25 16  1  0
 26 24  1  0
 27 26  1  0
 29 28  1  0
 30 26  2  0
M  END
$$$$
