KIY.pdb
     RDKit          3D

 30 30  0  0  1  0  0  0  0  0999 V2000
    8.4024  -14.6545   20.2130 N   0  0  0  0  0  0  0  0  0  0  0  0
    7.6614  -15.2142   21.2983 C   0  0  1  0  0  0  0  0  0  0  0  0
    7.6215  -16.7050   21.1754 C   0  0  0  0  0  0  0  0  0  0  0  0
    7.3323  -17.2422   19.8258 C   0  0  0  0  0  0  0  0  0  0  0  0
    6.4711  -18.4539   19.7542 C   0  0  0  0  0  0  0  0  0  0  0  0
    6.2983  -19.0074   18.3671 C   0  0  0  0  0  0  0  0  0  0  0  0
    5.4016  -20.1699   18.3986 N   0  0  0  0  0  0  0  0  0  0  0  0
    8.2279  -14.7643   22.5938 C   0  0  0  0  0  0  0  0  0  0  0  0
    9.4730  -14.7678   22.7261 O   0  0  0  0  0  0  0  0  0  0  0  0
    5.6638  -11.2040   25.7727 C   0  0  0  0  0  0  0  0  0  0  0  0
    6.7624  -11.8948   24.9410 C   0  0  0  0  0  0  0  0  0  0  0  0
    7.1558  -13.1188   25.7107 C   0  0  2  0  0  0  0  0  0  0  0  0
    7.6329  -12.7581   27.1001 C   0  0  0  0  0  0  0  0  0  0  0  0
    8.0597  -14.0729   25.0098 C   0  0  2  0  0  0  0  0  0  0  0  0
    7.4531  -14.3272   23.7010 N   0  0  0  0  0  0  0  0  0  0  0  0
    8.3974  -15.3109   25.6992 C   0  0  0  0  0  0  0  0  0  0  0  0
    7.5591  -16.2884   25.6404 O   0  0  0  0  0  0  0  0  0  0  0  0
   15.1770  -15.7481   23.5170 O   0  0  0  0  0  0  0  0  0  0  0  0
   14.0091  -16.2524   24.1083 C   0  0  0  0  0  0  0  0  0  0  0  0
   14.0205  -16.8432   25.3471 C   0  0  0  0  0  0  0  0  0  0  0  0
   12.8533  -17.3250   25.8920 C   0  0  0  0  0  0  0  0  0  0  0  0
   11.6555  -17.2123   25.1827 C   0  0  0  0  0  0  0  0  0  0  0  0
   10.4232  -17.7481   25.7662 C   0  0  0  0  0  0  0  0  0  0  0  0
    9.9018  -16.9288   26.8981 C   0  0  2  0  0  0  0  0  0  0  0  0
    9.5800  -15.5608   26.4412 N   0  0  0  0  0  0  0  0  0  0  0  0
   10.9025  -16.8415   27.9765 C   0  0  0  0  0  0  0  0  0  0  0  0
   11.4337  -15.6317   28.4208 O   0  0  0  0  0  0  0  0  0  0  0  0
   11.6798  -16.6172   23.9482 C   0  0  0  0  0  0  0  0  0  0  0  0
   12.8550  -16.1282   23.3919 C   0  0  0  0  0  0  0  0  0  0  0  0
   11.3322  -17.8689   28.5567 O   0  0  0  0  0  0  0  0  0  0  0  0
  2  3  1  0
  2  1  1  6
  3  4  1  0
  4  5  1  0
  5  6  1  0
  7  6  1  0
  8  9  2  0
  8  2  1  0
 10 11  1  0
 11 12  1  0
 12 14  1  0
 12 13  1  1
 14 15  1  6
 15  8  1  0
 16 14  1  0
 16 17  2  0
 18 19  1  0
 19 29  2  0
 20 21  2  0
 20 19  1  0
 21 22  1  0
 22 23  1  0
 22 28  2  0
 24 25  1  0
 24 23  1  6
 25 16  1  0
 26 24  1  0
 27 26  1  0
 29 28  1  0
 30 26  2  0
M  END
$$$$
