KIY.pdb
     RDKit          3D

 30 30  0  0  1  0  0  0  0  0999 V2000
    9.1456  -19.0811   18.4285 N   0  0  0  0  0  0  0  0  0  0  0  0
    8.1911  -18.4246   19.2640 C   0  0  1  0  0  0  0  0  0  0  0  0
    7.5871  -19.4054   20.2193 C   0  0  0  0  0  0  0  0  0  0  0  0
    8.5288  -20.0941   21.1316 C   0  0  0  0  0  0  0  0  0  0  0  0
    7.9570  -21.1350   22.0285 C   0  0  0  0  0  0  0  0  0  0  0  0
    8.0837  -22.5385   21.5048 C   0  0  0  0  0  0  0  0  0  0  0  0
    9.1941  -23.2264   22.1760 N   0  0  0  0  0  0  0  0  0  0  0  0
    8.8192  -17.2705   19.9536 C   0  0  0  0  0  0  0  0  0  0  0  0
   10.0691  -17.1971   19.9614 O   0  0  0  0  0  0  0  0  0  0  0  0
    6.6906  -12.3785   19.5354 C   0  0  0  0  0  0  0  0  0  0  0  0
    7.7065  -13.5378   19.5318 C   0  0  0  0  0  0  0  0  0  0  0  0
    7.9169  -13.9078   20.9686 C   0  0  2  0  0  0  0  0  0  0  0  0
    8.3097  -12.6998   21.7899 C   0  0  0  0  0  0  0  0  0  0  0  0
    8.7808  -15.0945   21.2212 C   0  0  2  0  0  0  0  0  0  0  0  0
    8.0984  -16.2370   20.6092 N   0  0  0  0  0  0  0  0  0  0  0  0
    9.1632  -15.3680   22.6000 C   0  0  0  0  0  0  0  0  0  0  0  0
   10.0958  -14.6505   23.1266 O   0  0  0  0  0  0  0  0  0  0  0  0
    6.4991  -10.8125   26.5914 O   0  0  0  0  0  0  0  0  0  0  0  0
    6.7861  -12.1674   26.3686 C   0  0  0  0  0  0  0  0  0  0  0  0
    5.8012  -13.0795   26.0823 C   0  0  0  0  0  0  0  0  0  0  0  0
    6.1243  -14.3994   25.8701 C   0  0  0  0  0  0  0  0  0  0  0  0
    7.4569  -14.8107   25.9465 C   0  0  0  0  0  0  0  0  0  0  0  0
    7.7845  -16.2233   25.7385 C   0  0  0  0  0  0  0  0  0  0  0  0
    8.9799  -16.4299   24.8709 C   0  0  2  0  0  0  0  0  0  0  0  0
    8.6018  -16.3599   23.4440 N   0  0  0  0  0  0  0  0  0  0  0  0
    9.5868  -17.7471   25.1328 C   0  0  0  0  0  0  0  0  0  0  0  0
   10.1473  -18.0919   26.3618 O   0  0  0  0  0  0  0  0  0  0  0  0
    8.4151  -13.8740   26.2347 C   0  0  0  0  0  0  0  0  0  0  0  0
    8.0959  -12.5393   26.4499 C   0  0  0  0  0  0  0  0  0  0  0  0
    9.6294  -18.6369   24.2478 O   0  0  0  0  0  0  0  0  0  0  0  0
  2  3  1  0
  2  1  1  1
  3  4  1  0
  4  5  1  0
  5  6  1  0
  7  6  1  0
  8  9  2  0
  8  2  1  0
 10 11  1  0
 11 12  1  0
 12 14  1  0
 12 13  1  1
 14 15  1  1
 15  8  1  0
 16 14  1  0
 16 17  2  0
 18 19  1  0
 19 29  2  0
 20 21  2  0
 20 19  1  0
 21 22  1  0
 22 23  1  0
 22 28  2  0
 24 25  1  0
 24 23  1  1
 25 16  1  0
 26 24  1  0
 27 26  1  0
 29 28  1  0
 30 26  2  0
M  END
$$$$
