KIY.pdb
     RDKit          3D

 30 30  0  0  1  0  0  0  0  0999 V2000
    8.2808  -19.0620   18.2690 N   0  0  0  0  0  0  0  0  0  0  0  0
    7.7781  -18.6600   19.5441 C   0  0  1  0  0  0  0  0  0  0  0  0
    7.9203  -19.7799   20.5263 C   0  0  0  0  0  0  0  0  0  0  0  0
    7.1588  -21.0140   20.2252 C   0  0  0  0  0  0  0  0  0  0  0  0
    7.8515  -22.0509   19.4128 C   0  0  0  0  0  0  0  0  0  0  0  0
    7.1007  -23.3483   19.2975 C   0  0  0  0  0  0  0  0  0  0  0  0
    7.8772  -24.3087   18.5030 N   0  0  0  0  0  0  0  0  0  0  0  0
    8.4535  -17.4179   19.9947 C   0  0  0  0  0  0  0  0  0  0  0  0
    9.6864  -17.3140   19.8026 O   0  0  0  0  0  0  0  0  0  0  0  0
    6.6212  -12.5669   19.0778 C   0  0  0  0  0  0  0  0  0  0  0  0
    7.4848  -13.8337   19.2365 C   0  0  0  0  0  0  0  0  0  0  0  0
    7.7536  -13.9698   20.7043 C   0  0  2  0  0  0  0  0  0  0  0  0
    8.2882  -12.6779   21.2818 C   0  0  0  0  0  0  0  0  0  0  0  0
    8.5370  -15.1663   21.1202 C   0  0  2  0  0  0  0  0  0  0  0  0
    7.7964  -16.3320   20.6322 N   0  0  0  0  0  0  0  0  0  0  0  0
    8.8757  -15.2926   22.5314 C   0  0  0  0  0  0  0  0  0  0  0  0
    7.9462  -15.0885   23.4009 O   0  0  0  0  0  0  0  0  0  0  0  0
   10.7055  -15.3673   30.8282 O   0  0  0  0  0  0  0  0  0  0  0  0
   10.4011  -15.5662   29.4733 C   0  0  0  0  0  0  0  0  0  0  0  0
   10.4032  -16.8158   28.9056 C   0  0  0  0  0  0  0  0  0  0  0  0
   10.0989  -16.9683   27.5731 C   0  0  0  0  0  0  0  0  0  0  0  0
    9.7876  -15.8491   26.7978 C   0  0  0  0  0  0  0  0  0  0  0  0
    9.4854  -16.0237   25.3749 C   0  0  0  0  0  0  0  0  0  0  0  0
   10.4666  -15.3496   24.4766 C   0  0  2  0  0  0  0  0  0  0  0  0
   10.1480  -15.6282   23.0607 N   0  0  0  0  0  0  0  0  0  0  0  0
   11.8333  -15.8264   24.7539 C   0  0  0  0  0  0  0  0  0  0  0  0
   12.2900  -17.0848   24.3650 O   0  0  0  0  0  0  0  0  0  0  0  0
    9.7952  -14.6160   27.3962 C   0  0  0  0  0  0  0  0  0  0  0  0
   10.1014  -14.4548   28.7416 C   0  0  0  0  0  0  0  0  0  0  0  0
   12.6660  -15.1111   25.3637 O   0  0  0  0  0  0  0  0  0  0  0  0
  2  3  1  0
  2  1  1  6
  3  4  1  0
  4  5  1  0
  5  6  1  0
  7  6  1  0
  8  9  2  0
  8  2  1  0
 10 11  1  0
 11 12  1  0
 12 14  1  0
 12 13  1  6
 14 15  1  1
 15  8  1  0
 16 14  1  0
 16 17  2  0
 18 19  1  0
 19 29  2  0
 20 21  2  0
 20 19  1  0
 21 22  1  0
 22 23  1  0
 22 28  2  0
 24 25  1  0
 24 23  1  1
 25 16  1  0
 26 24  1  0
 27 26  1  0
 29 28  1  0
 30 26  2  0
M  END
$$$$
