KIY.pdb
     RDKit          3D

 30 30  0  0  1  0  0  0  0  0999 V2000
    8.6243  -19.4856   19.2108 N   0  0  0  0  0  0  0  0  0  0  0  0
    7.8099  -18.7861   20.1531 C   0  0  1  0  0  0  0  0  0  0  0  0
    7.3442  -19.7239   21.2221 C   0  0  0  0  0  0  0  0  0  0  0  0
    6.9616  -21.0838   20.7775 C   0  0  0  0  0  0  0  0  0  0  0  0
    6.2638  -21.9451   21.7706 C   0  0  0  0  0  0  0  0  0  0  0  0
    5.9584  -23.3323   21.2781 C   0  0  0  0  0  0  0  0  0  0  0  0
    7.1948  -23.9933   20.8409 N   0  0  0  0  0  0  0  0  0  0  0  0
    8.5440  -17.6182   20.6999 C   0  0  0  0  0  0  0  0  0  0  0  0
    9.7947  -17.6682   20.7282 O   0  0  0  0  0  0  0  0  0  0  0  0
    6.8041  -12.6613   19.7020 C   0  0  0  0  0  0  0  0  0  0  0  0
    7.7599  -13.8639   19.8285 C   0  0  0  0  0  0  0  0  0  0  0  0
    7.9615  -14.0792   21.2976 C   0  0  2  0  0  0  0  0  0  0  0  0
    8.4844  -12.8263   21.9647 C   0  0  0  0  0  0  0  0  0  0  0  0
    8.7121  -15.3061   21.6845 C   0  0  2  0  0  0  0  0  0  0  0  0
    7.9244  -16.4405   21.1963 N   0  0  0  0  0  0  0  0  0  0  0  0
    9.0719  -15.4613   23.0875 C   0  0  0  0  0  0  0  0  0  0  0  0
   10.0399  -14.7466   23.5502 O   0  0  0  0  0  0  0  0  0  0  0  0
    6.5560  -10.5162   26.6406 O   0  0  0  0  0  0  0  0  0  0  0  0
    6.8696  -11.8818   26.5708 C   0  0  0  0  0  0  0  0  0  0  0  0
    8.1479  -12.3428   26.7640 C   0  0  0  0  0  0  0  0  0  0  0  0
    8.4139  -13.6900   26.6872 C   0  0  0  0  0  0  0  0  0  0  0  0
    7.3809  -14.5889   26.4122 C   0  0  0  0  0  0  0  0  0  0  0  0
    7.6820  -16.0191   26.3131 C   0  0  0  0  0  0  0  0  0  0  0  0
    8.8553  -16.3157   25.4415 C   0  0  2  0  0  0  0  0  0  0  0  0
    8.4525  -16.3323   24.0198 N   0  0  0  0  0  0  0  0  0  0  0  0
    9.4333  -17.6279   25.7822 C   0  0  0  0  0  0  0  0  0  0  0  0
    9.5504  -18.6665   24.8596 O   0  0  0  0  0  0  0  0  0  0  0  0
    6.1163  -14.0946   26.2244 C   0  0  0  0  0  0  0  0  0  0  0  0
    5.8405  -12.7353   26.3006 C   0  0  0  0  0  0  0  0  0  0  0  0
    9.8550  -17.8783   26.9381 O   0  0  0  0  0  0  0  0  0  0  0  0
  2  3  1  0
  2  1  1  6
  3  4  1  0
  4  5  1  0
  5  6  1  0
  7  6  1  0
  8  9  2  0
  8  2  1  0
 10 11  1  0
 11 12  1  0
 12 14  1  0
 12 13  1  6
 14 15  1  1
 15  8  1  0
 16 14  1  0
 16 17  2  0
 18 19  1  0
 19 29  2  0
 20 21  2  0
 20 19  1  0
 21 22  1  0
 22 23  1  0
 22 28  2  0
 24 25  1  0
 24 23  1  1
 25 16  1  0
 26 24  1  0
 27 26  1  0
 29 28  1  0
 30 26  2  0
M  END
$$$$
