GKK.pdb
     RDKit          3D

 23 22  0  0  1  0  0  0  0  0999 V2000
    6.7709  -20.1537   16.4588 N   0  0  0  0  0  0  0  0  0  0  0  0
    6.4847  -19.4751   17.6868 C   0  0  0  0  0  0  0  0  0  0  0  0
    7.4555  -18.3735   17.9035 C   0  0  0  0  0  0  0  0  0  0  0  0
    8.6806  -18.6076   17.7843 O   0  0  0  0  0  0  0  0  0  0  0  0
    7.0108  -17.0715   18.2411 N   0  0  0  0  0  0  0  0  0  0  0  0
    7.9443  -16.0290   18.6615 C   0  0  1  0  0  0  0  0  0  0  0  0
    7.2432  -14.6960   18.7239 C   0  0  0  0  0  0  0  0  0  0  0  0
    8.1187  -13.5042   18.5807 C   0  0  0  0  0  0  0  0  0  0  0  0
    8.8510  -13.1938   19.8876 C   0  0  0  0  0  0  0  0  0  0  0  0
    9.6790  -11.9512   19.7494 C   0  0  0  0  0  0  0  0  0  0  0  0
   10.2546  -11.6469   21.0472 N   0  0  0  0  0  0  0  0  0  0  0  0
    8.4870  -16.3644   20.0220 C   0  0  0  0  0  0  0  0  0  0  0  0
    7.7330  -16.5572   21.0066 O   0  0  0  0  0  0  0  0  0  0  0  0
    9.8788  -16.4770   20.2492 N   0  0  0  0  0  0  0  0  0  0  0  0
   10.3690  -16.7958   21.5977 C   0  0  1  0  0  0  0  0  0  0  0  0
   10.9151  -18.1800   21.6369 C   0  0  0  0  0  0  0  0  0  0  0  0
   11.4753  -18.5091   22.9864 C   0  0  0  0  0  0  0  0  0  0  0  0
   12.1556  -19.8812   22.9782 C   0  0  0  0  0  0  0  0  0  0  0  0
   12.5812  -20.1950   24.4074 C   0  0  0  0  0  0  0  0  0  0  0  0
   13.3289  -21.4357   24.4376 N   0  0  0  0  0  0  0  0  0  0  0  0
   11.3773  -15.7760   21.9051 C   0  0  0  0  0  0  0  0  0  0  0  0
   12.0574  -15.2218   21.0203 O   0  0  0  0  0  0  0  0  0  0  0  0
   11.6061  -15.3927   23.2137 O   0  0  0  0  0  0  0  0  0  0  0  0
  1  2  1  0
  3  2  1  0
  3  4  2  0
  5  3  1  0
  6  5  1  0
  6 12  1  0
  6  7  1  1
  8  7  1  0
  9  8  1  0
  9 10  1  0
 11 10  1  0
 12 14  1  0
 13 12  2  0
 14 15  1  0
 15 21  1  0
 15 16  1  6
 17 16  1  0
 18 17  1  0
 19 18  1  0
 20 19  1  0
 21 22  2  0
 21 23  1  0
M  END
$$$$
