GKK.pdb
     RDKit          3D

 23 22  0  0  1  0  0  0  0  0999 V2000
    4.6245  -19.5215   22.8863 N   0  0  0  0  0  0  0  0  0  0  0  0
    4.6905  -18.1030   23.0711 C   0  0  0  0  0  0  0  0  0  0  0  0
    6.0230  -17.5929   22.6623 C   0  0  0  0  0  0  0  0  0  0  0  0
    6.9284  -18.4110   22.3775 O   0  0  0  0  0  0  0  0  0  0  0  0
    6.2761  -16.2009   22.5925 N   0  0  0  0  0  0  0  0  0  0  0  0
    7.6085  -15.6791   22.2970 C   0  0  1  0  0  0  0  0  0  0  0  0
    7.5106  -14.2744   21.7589 C   0  0  0  0  0  0  0  0  0  0  0  0
    7.0599  -14.1588   20.3479 C   0  0  0  0  0  0  0  0  0  0  0  0
    8.0569  -13.3548   19.5113 C   0  0  0  0  0  0  0  0  0  0  0  0
    7.6221  -13.2982   18.0774 C   0  0  0  0  0  0  0  0  0  0  0  0
    8.5231  -12.4074   17.3682 N   0  0  0  0  0  0  0  0  0  0  0  0
    8.4305  -15.6687   23.5549 C   0  0  0  0  0  0  0  0  0  0  0  0
    8.0328  -15.1005   24.6011 O   0  0  0  0  0  0  0  0  0  0  0  0
    9.6938  -16.3028   23.6110 N   0  0  0  0  0  0  0  0  0  0  0  0
   10.4545  -16.2918   24.8686 C   0  0  1  0  0  0  0  0  0  0  0  0
   10.2296  -17.5561   25.6215 C   0  0  0  0  0  0  0  0  0  0  0  0
   11.0777  -17.6168   26.8545 C   0  0  0  0  0  0  0  0  0  0  0  0
   10.9155  -18.9633   27.5660 C   0  0  0  0  0  0  0  0  0  0  0  0
   11.8315  -18.9560   28.7840 C   0  0  0  0  0  0  0  0  0  0  0  0
   11.7016  -20.2058   29.5054 N   0  0  0  0  0  0  0  0  0  0  0  0
   11.8564  -16.0995   24.4829 C   0  0  0  0  0  0  0  0  0  0  0  0
   12.7523  -15.8663   25.3170 O   0  0  0  0  0  0  0  0  0  0  0  0
   12.2313  -16.1734   23.1541 O   0  0  0  0  0  0  0  0  0  0  0  0
  1  2  1  0
  3  2  1  0
  3  4  2  0
  5  3  1  0
  6  5  1  0
  6 12  1  0
  6  7  1  1
  8  7  1  0
  9  8  1  0
  9 10  1  0
 11 10  1  0
 12 14  1  0
 13 12  2  0
 14 15  1  0
 15 21  1  0
 15 16  1  6
 17 16  1  0
 18 17  1  0
 19 18  1  0
 20 19  1  0
 21 22  2  0
 21 23  1  0
M  END
$$$$
