GKK.pdb
     RDKit          3D

 23 22  0  0  1  0  0  0  0  0999 V2000
    3.4565  -19.6802   21.8112 N   0  0  0  0  0  0  0  0  0  0  0  0
    3.6843  -18.3897   22.3883 C   0  0  0  0  0  0  0  0  0  0  0  0
    5.1062  -17.9971   22.2242 C   0  0  0  0  0  0  0  0  0  0  0  0
    5.9574  -18.8803   21.9682 O   0  0  0  0  0  0  0  0  0  0  0  0
    5.5041  -16.6437   22.3538 N   0  0  0  0  0  0  0  0  0  0  0  0
    6.9019  -16.2406   22.2178 C   0  0  1  0  0  0  0  0  0  0  0  0
    6.9932  -14.8965   21.5415 C   0  0  0  0  0  0  0  0  0  0  0  0
    7.3151  -14.9293   20.0915 C   0  0  0  0  0  0  0  0  0  0  0  0
    7.8813  -13.5891   19.6185 C   0  0  0  0  0  0  0  0  0  0  0  0
    8.1550  -13.6194   18.1445 C   0  0  0  0  0  0  0  0  0  0  0  0
    8.5253  -12.2789   17.7275 N   0  0  0  0  0  0  0  0  0  0  0  0
    7.5299  -16.1504   23.5800 C   0  0  0  0  0  0  0  0  0  0  0  0
    7.0219  -15.4632   24.4992 O   0  0  0  0  0  0  0  0  0  0  0  0
    8.7268  -16.8409   23.8831 N   0  0  0  0  0  0  0  0  0  0  0  0
    9.3365  -16.6847   25.2114 C   0  0  1  0  0  0  0  0  0  0  0  0
    9.5695  -18.0164   25.8346 C   0  0  0  0  0  0  0  0  0  0  0  0
    8.3232  -18.5467   26.4739 C   0  0  0  0  0  0  0  0  0  0  0  0
    8.5442  -19.9622   27.0154 C   0  0  0  0  0  0  0  0  0  0  0  0
    7.1966  -20.4908   27.4918 C   0  0  0  0  0  0  0  0  0  0  0  0
    7.3237  -21.8790   27.8865 N   0  0  0  0  0  0  0  0  0  0  0  0
   10.5765  -15.9325   24.9931 C   0  0  0  0  0  0  0  0  0  0  0  0
   11.0497  -15.7408   23.8564 O   0  0  0  0  0  0  0  0  0  0  0  0
   11.2699  -15.4033   26.0659 O   0  0  0  0  0  0  0  0  0  0  0  0
  1  2  1  0
  3  2  1  0
  3  4  2  0
  5  3  1  0
  6  5  1  0
  6 12  1  0
  6  7  1  1
  8  7  1  0
  9  8  1  0
  9 10  1  0
 11 10  1  0
 12 14  1  0
 13 12  2  0
 14 15  1  0
 15 21  1  0
 15 16  1  6
 17 16  1  0
 18 17  1  0
 19 18  1  0
 20 19  1  0
 21 22  2  0
 21 23  1  0
M  END
$$$$
