GKK.pdb
     RDKit          3D

 23 22  0  0  1  0  0  0  0  0999 V2000
    9.3520  -20.1516   19.0332 N   0  0  0  0  0  0  0  0  0  0  0  0
    8.3828  -19.4379   19.8088 C   0  0  0  0  0  0  0  0  0  0  0  0
    9.0363  -18.3399   20.5639 C   0  0  0  0  0  0  0  0  0  0  0  0
   10.2553  -18.4302   20.8395 O   0  0  0  0  0  0  0  0  0  0  0  0
    8.2986  -17.2013   20.9715 N   0  0  0  0  0  0  0  0  0  0  0  0
    8.8785  -16.1878   21.8498 C   0  0  1  0  0  0  0  0  0  0  0  0
    8.1161  -14.8932   21.7264 C   0  0  0  0  0  0  0  0  0  0  0  0
    8.5833  -13.9740   20.6568 C   0  0  0  0  0  0  0  0  0  0  0  0
    7.4185  -13.4974   19.7871 C   0  0  0  0  0  0  0  0  0  0  0  0
    7.9101  -12.6140   18.6796 C   0  0  0  0  0  0  0  0  0  0  0  0
    6.7608  -12.1796   17.9060 N   0  0  0  0  0  0  0  0  0  0  0  0
    8.8126  -16.6645   23.2734 C   0  0  0  0  0  0  0  0  0  0  0  0
    7.7439  -17.0803   23.7836 O   0  0  0  0  0  0  0  0  0  0  0  0
    9.9598  -16.6638   24.1010 N   0  0  0  0  0  0  0  0  0  0  0  0
    9.8701  -17.2074   25.4637 C   0  0  1  0  0  0  0  0  0  0  0  0
   10.8769  -18.2865   25.6586 C   0  0  0  0  0  0  0  0  0  0  0  0
   10.8768  -18.7863   27.0705 C   0  0  0  0  0  0  0  0  0  0  0  0
   11.9699  -19.8383   27.2801 C   0  0  0  0  0  0  0  0  0  0  0  0
   11.8714  -20.3270   28.7201 C   0  0  0  0  0  0  0  0  0  0  0  0
   12.8402  -21.3795   28.9504 N   0  0  0  0  0  0  0  0  0  0  0  0
   10.0768  -16.0658   26.3610 C   0  0  0  0  0  0  0  0  0  0  0  0
    9.7553  -16.0960   27.5645 O   0  0  0  0  0  0  0  0  0  0  0  0
   10.6467  -14.8990   25.8861 O   0  0  0  0  0  0  0  0  0  0  0  0
  1  2  1  0
  3  2  1  0
  3  4  2  0
  5  3  1  0
  6  5  1  0
  6 12  1  0
  6  7  1  1
  8  7  1  0
  9  8  1  0
  9 10  1  0
 11 10  1  0
 12 14  1  0
 13 12  2  0
 14 15  1  0
 15 21  1  0
 15 16  1  6
 17 16  1  0
 18 17  1  0
 19 18  1  0
 20 19  1  0
 21 22  2  0
 21 23  1  0
M  END
$$$$
