GKK.pdb
     RDKit          3D

 23 22  0  0  1  0  0  0  0  0999 V2000
    8.3760  -11.9120   19.1802 N   0  0  0  0  0  0  0  0  0  0  0  0
    8.7228  -13.3011   19.2008 C   0  0  0  0  0  0  0  0  0  0  0  0
    8.1077  -13.9669   20.3762 C   0  0  0  0  0  0  0  0  0  0  0  0
    7.7076  -13.2657   21.3344 O   0  0  0  0  0  0  0  0  0  0  0  0
    7.9713  -15.3761   20.4218 N   0  0  0  0  0  0  0  0  0  0  0  0
    7.4420  -16.0559   21.6019 C   0  0  1  0  0  0  0  0  0  0  0  0
    6.9651  -17.4386   21.2368 C   0  0  0  0  0  0  0  0  0  0  0  0
    6.5715  -18.3031   22.3792 C   0  0  0  0  0  0  0  0  0  0  0  0
    6.2179  -19.7155   21.9099 C   0  0  0  0  0  0  0  0  0  0  0  0
    5.8025  -20.5713   23.0690 C   0  0  0  0  0  0  0  0  0  0  0  0
    5.6372  -21.9313   22.5885 N   0  0  0  0  0  0  0  0  0  0  0  0
    8.5221  -16.1657   22.6408 C   0  0  0  0  0  0  0  0  0  0  0  0
    9.7193  -16.3805   22.3312 O   0  0  0  0  0  0  0  0  0  0  0  0
    8.2311  -16.0304   24.0186 N   0  0  0  0  0  0  0  0  0  0  0  0
    9.3316  -15.8598   24.9779 C   0  0  1  0  0  0  0  0  0  0  0  0
    8.8408  -15.1971   26.2172 C   0  0  0  0  0  0  0  0  0  0  0  0
    9.9141  -15.1223   27.2593 C   0  0  0  0  0  0  0  0  0  0  0  0
    9.4076  -14.4124   28.5182 C   0  0  0  0  0  0  0  0  0  0  0  0
   10.5434  -14.4060   29.5342 C   0  0  0  0  0  0  0  0  0  0  0  0
   10.1361  -13.6862   30.7239 N   0  0  0  0  0  0  0  0  0  0  0  0
    9.8582  -17.2068   25.2218 C   0  0  0  0  0  0  0  0  0  0  0  0
    9.1187  -18.2048   25.3209 O   0  0  0  0  0  0  0  0  0  0  0  0
   11.2196  -17.4112   25.3510 O   0  0  0  0  0  0  0  0  0  0  0  0
  1  2  1  0
  3  2  1  0
  3  4  2  0
  5  3  1  0
  6  5  1  0
  6 12  1  0
  6  7  1  6
  8  7  1  0
  9  8  1  0
  9 10  1  0
 11 10  1  0
 12 14  1  0
 13 12  2  0
 14 15  1  0
 15 21  1  0
 15 16  1  1
 17 16  1  0
 18 17  1  0
 19 18  1  0
 20 19  1  0
 21 22  2  0
 21 23  1  0
M  END
$$$$
