GKK.pdb
     RDKit          3D

 23 22  0  0  1  0  0  0  0  0999 V2000
    5.0357  -19.2024   22.4675 N   0  0  0  0  0  0  0  0  0  0  0  0
    5.1326  -17.8329   22.8743 C   0  0  0  0  0  0  0  0  0  0  0  0
    6.4473  -17.2704   22.4766 C   0  0  0  0  0  0  0  0  0  0  0  0
    7.3420  -18.0441   22.0632 O   0  0  0  0  0  0  0  0  0  0  0  0
    6.6953  -15.8782   22.5603 N   0  0  0  0  0  0  0  0  0  0  0  0
    7.9988  -15.3113   22.2219 C   0  0  1  0  0  0  0  0  0  0  0  0
    7.8338  -13.9184   21.6698 C   0  0  0  0  0  0  0  0  0  0  0  0
    7.1263  -13.8253   20.3667 C   0  0  0  0  0  0  0  0  0  0  0  0
    8.0794  -13.4032   19.2469 C   0  0  0  0  0  0  0  0  0  0  0  0
    7.3427  -13.2618   17.9485 C   0  0  0  0  0  0  0  0  0  0  0  0
    8.2943  -12.8458   16.9338 N   0  0  0  0  0  0  0  0  0  0  0  0
    8.8535  -15.2540   23.4564 C   0  0  0  0  0  0  0  0  0  0  0  0
    8.3534  -15.1819   24.6053 O   0  0  0  0  0  0  0  0  0  0  0  0
   10.2655  -15.2790   23.3729 N   0  0  0  0  0  0  0  0  0  0  0  0
   11.0375  -16.0211   24.3797 C   0  0  1  0  0  0  0  0  0  0  0  0
   10.6120  -17.4472   24.4116 C   0  0  0  0  0  0  0  0  0  0  0  0
   11.4595  -18.2501   25.3498 C   0  0  0  0  0  0  0  0  0  0  0  0
   10.9923  -19.7077   25.4000 C   0  0  0  0  0  0  0  0  0  0  0  0
   11.8757  -20.4424   26.4012 C   0  0  0  0  0  0  0  0  0  0  0  0
   11.3628  -21.7792   26.6225 N   0  0  0  0  0  0  0  0  0  0  0  0
   12.4451  -15.8543   24.0029 C   0  0  0  0  0  0  0  0  0  0  0  0
   12.8258  -15.8763   22.8166 O   0  0  0  0  0  0  0  0  0  0  0  0
   13.4100  -15.6636   24.9748 O   0  0  0  0  0  0  0  0  0  0  0  0
  1  2  1  0
  3  2  1  0
  3  4  2  0
  5  3  1  0
  6  5  1  0
  6 12  1  0
  6  7  1  1
  8  7  1  0
  9  8  1  0
  9 10  1  0
 11 10  1  0
 12 14  1  0
 13 12  2  0
 14 15  1  0
 15 21  1  0
 15 16  1  6
 17 16  1  0
 18 17  1  0
 19 18  1  0
 20 19  1  0
 21 22  2  0
 21 23  1  0
M  END
$$$$
