GKK.pdb
     RDKit          3D

 23 22  0  0  1  0  0  0  0  0999 V2000
    9.1450  -22.5846   17.8220 N   0  0  0  0  0  0  0  0  0  0  0  0
    8.3367  -23.5706   18.4738 C   0  0  0  0  0  0  0  0  0  0  0  0
    7.8579  -23.0594   19.7824 C   0  0  0  0  0  0  0  0  0  0  0  0
    8.3329  -21.9899   20.2304 O   0  0  0  0  0  0  0  0  0  0  0  0
    6.8770  -23.7654   20.5214 N   0  0  0  0  0  0  0  0  0  0  0  0
    6.3984  -23.2823   21.8147 C   0  0  1  0  0  0  0  0  0  0  0  0
    4.9691  -23.7083   22.0337 C   0  0  0  0  0  0  0  0  0  0  0  0
    4.3508  -23.2478   23.3038 C   0  0  0  0  0  0  0  0  0  0  0  0
    2.8771  -23.6511   23.3813 C   0  0  0  0  0  0  0  0  0  0  0  0
    2.2475  -23.1216   24.6350 C   0  0  0  0  0  0  0  0  0  0  0  0
    0.8680  -23.5730   24.6717 N   0  0  0  0  0  0  0  0  0  0  0  0
    7.2558  -23.8531   22.9088 C   0  0  0  0  0  0  0  0  0  0  0  0
    7.5014  -25.0816   22.9848 O   0  0  0  0  0  0  0  0  0  0  0  0
    7.8244  -23.0235   23.9035 N   0  0  0  0  0  0  0  0  0  0  0  0
    8.7108  -23.6120   24.9177 C   0  0  1  0  0  0  0  0  0  0  0  0
   10.1251  -23.2290   24.6551 C   0  0  0  0  0  0  0  0  0  0  0  0
   10.5835  -22.1536   25.5913 C   0  0  0  0  0  0  0  0  0  0  0  0
   12.0387  -21.7667   25.3117 C   0  0  0  0  0  0  0  0  0  0  0  0
   12.4620  -20.7599   26.3746 C   0  0  0  0  0  0  0  0  0  0  0  0
   13.8054  -20.2909   26.1016 N   0  0  0  0  0  0  0  0  0  0  0  0
    8.2175  -23.1215   26.2089 C   0  0  0  0  0  0  0  0  0  0  0  0
    7.3533  -22.2283   26.2977 O   0  0  0  0  0  0  0  0  0  0  0  0
    8.7084  -23.6482   27.3894 O   0  0  0  0  0  0  0  0  0  0  0  0
  1  2  1  0
  3  2  1  0
  3  4  2  0
  5  3  1  0
  6  5  1  0
  6 12  1  0
  6  7  1  1
  8  7  1  0
  9  8  1  0
  9 10  1  0
 11 10  1  0
 12 14  1  0
 13 12  2  0
 14 15  1  0
 15 21  1  0
 15 16  1  6
 17 16  1  0
 18 17  1  0
 19 18  1  0
 20 19  1  0
 21 22  2  0
 21 23  1  0
M  END
$$$$
