GKK.pdb
     RDKit          3D

 23 22  0  0  1  0  0  0  0  0999 V2000
    4.0300  -19.7816   22.0100 N   0  0  0  0  0  0  0  0  0  0  0  0
    4.2400  -18.6211   22.8222 C   0  0  0  0  0  0  0  0  0  0  0  0
    5.4877  -17.9279   22.4153 C   0  0  0  0  0  0  0  0  0  0  0  0
    6.5304  -18.6007   22.2410 O   0  0  0  0  0  0  0  0  0  0  0  0
    5.5080  -16.5244   22.2245 N   0  0  0  0  0  0  0  0  0  0  0  0
    6.7475  -15.8104   21.9267 C   0  0  1  0  0  0  0  0  0  0  0  0
    6.4409  -14.4320   21.3990 C   0  0  0  0  0  0  0  0  0  0  0  0
    7.6184  -13.6334   20.9709 C   0  0  0  0  0  0  0  0  0  0  0  0
    7.8797  -13.7905   19.4717 C   0  0  0  0  0  0  0  0  0  0  0  0
    9.1287  -13.0634   19.0719 C   0  0  0  0  0  0  0  0  0  0  0  0
    9.3594  -13.3074   17.6593 N   0  0  0  0  0  0  0  0  0  0  0  0
    7.5658  -15.6870   23.1809 C   0  0  0  0  0  0  0  0  0  0  0  0
    7.0351  -15.4899   24.3011 O   0  0  0  0  0  0  0  0  0  0  0  0
    8.9764  -15.7887   23.1494 N   0  0  0  0  0  0  0  0  0  0  0  0
    9.7178  -15.9679   24.4059 C   0  0  1  0  0  0  0  0  0  0  0  0
    9.3522  -17.2625   25.0433 C   0  0  0  0  0  0  0  0  0  0  0  0
   10.2339  -17.5631   26.2162 C   0  0  0  0  0  0  0  0  0  0  0  0
    9.9054  -18.9352   26.8119 C   0  0  0  0  0  0  0  0  0  0  0  0
   10.7972  -19.1355   28.0313 C   0  0  0  0  0  0  0  0  0  0  0  0
   10.5178  -20.4202   28.6402 N   0  0  0  0  0  0  0  0  0  0  0  0
   11.1371  -15.8913   24.0438 C   0  0  0  0  0  0  0  0  0  0  0  0
   12.0452  -15.9037   24.8969 O   0  0  0  0  0  0  0  0  0  0  0  0
   11.5150  -15.8015   22.7168 O   0  0  0  0  0  0  0  0  0  0  0  0
  1  2  1  0
  3  2  1  0
  3  4  2  0
  5  3  1  0
  6  5  1  0
  6 12  1  0
  6  7  1  1
  8  7  1  0
  9  8  1  0
  9 10  1  0
 11 10  1  0
 12 14  1  0
 13 12  2  0
 14 15  1  0
 15 21  1  0
 15 16  1  6
 17 16  1  0
 18 17  1  0
 19 18  1  0
 20 19  1  0
 21 22  2  0
 21 23  1  0
M  END
$$$$
