GKK.pdb
     RDKit          3D

 23 22  0  0  1  0  0  0  0  0999 V2000
    5.7280  -19.2157   16.8360 N   0  0  0  0  0  0  0  0  0  0  0  0
    5.1372  -20.2314   17.6544 C   0  0  0  0  0  0  0  0  0  0  0  0
    5.0187  -19.7576   19.0560 C   0  0  0  0  0  0  0  0  0  0  0  0
    5.6545  -18.7379   19.4111 O   0  0  0  0  0  0  0  0  0  0  0  0
    4.1997  -20.4436   19.9862 N   0  0  0  0  0  0  0  0  0  0  0  0
    4.1574  -20.0618   21.3960 C   0  0  1  0  0  0  0  0  0  0  0  0
    2.7878  -20.3275   21.9669 C   0  0  0  0  0  0  0  0  0  0  0  0
    1.6933  -19.4796   21.4278 C   0  0  0  0  0  0  0  0  0  0  0  0
    0.4237  -20.2988   21.1884 C   0  0  0  0  0  0  0  0  0  0  0  0
   -0.6749  -19.4301   20.6525 C   0  0  0  0  0  0  0  0  0  0  0  0
   -1.8094  -20.2804   20.3395 N   0  0  0  0  0  0  0  0  0  0  0  0
    5.1736  -20.8624   22.1604 C   0  0  0  0  0  0  0  0  0  0  0  0
    5.4706  -22.0379   21.8361 O   0  0  0  0  0  0  0  0  0  0  0  0
    5.8408  -20.3198   23.2836 N   0  0  0  0  0  0  0  0  0  0  0  0
    6.8512  -21.1250   23.9845 C   0  0  1  0  0  0  0  0  0  0  0  0
    7.7473  -20.2480   24.7870 C   0  0  0  0  0  0  0  0  0  0  0  0
    8.7367  -21.0509   25.5743 C   0  0  0  0  0  0  0  0  0  0  0  0
    9.6132  -20.1430   26.4421 C   0  0  0  0  0  0  0  0  0  0  0  0
   10.6291  -21.0263   27.1563 C   0  0  0  0  0  0  0  0  0  0  0  0
   11.5687  -20.2025   27.8895 N   0  0  0  0  0  0  0  0  0  0  0  0
    6.0988  -22.0774   24.8078 C   0  0  0  0  0  0  0  0  0  0  0  0
    6.5033  -23.2354   25.0270 O   0  0  0  0  0  0  0  0  0  0  0  0
    4.8934  -21.7088   25.3761 O   0  0  0  0  0  0  0  0  0  0  0  0
  1  2  1  0
  3  2  1  0
  3  4  2  0
  5  3  1  0
  6  5  1  0
  6 12  1  0
  6  7  1  1
  8  7  1  0
  9  8  1  0
  9 10  1  0
 11 10  1  0
 12 14  1  0
 13 12  2  0
 14 15  1  0
 15 21  1  0
 15 16  1  1
 17 16  1  0
 18 17  1  0
 19 18  1  0
 20 19  1  0
 21 22  2  0
 21 23  1  0
M  END
$$$$
