GKK.pdb
     RDKit          3D

 23 22  0  0  1  0  0  0  0  0999 V2000
    2.4532  -22.7372   23.6320 N   0  0  0  0  0  0  0  0  0  0  0  0
    2.7288  -21.3336   23.5648 C   0  0  0  0  0  0  0  0  0  0  0  0
    4.1720  -21.1052   23.3039 C   0  0  0  0  0  0  0  0  0  0  0  0
    5.0049  -21.9548   23.6968 O   0  0  0  0  0  0  0  0  0  0  0  0
    4.6101  -19.9445   22.6202 N   0  0  0  0  0  0  0  0  0  0  0  0
    6.0303  -19.6568   22.4330 C   0  0  1  0  0  0  0  0  0  0  0  0
    6.2189  -18.6745   21.3053 C   0  0  0  0  0  0  0  0  0  0  0  0
    7.5087  -18.7771   20.5750 C   0  0  0  0  0  0  0  0  0  0  0  0
    7.5712  -17.7797   19.4167 C   0  0  0  0  0  0  0  0  0  0  0  0
    8.7673  -18.0450   18.5522 C   0  0  0  0  0  0  0  0  0  0  0  0
    8.7965  -17.0414   17.5034 N   0  0  0  0  0  0  0  0  0  0  0  0
    6.5912  -19.0692   23.6972 C   0  0  0  0  0  0  0  0  0  0  0  0
    5.9826  -18.1800   24.3409 O   0  0  0  0  0  0  0  0  0  0  0  0
    7.8357  -19.4972   24.2160 N   0  0  0  0  0  0  0  0  0  0  0  0
    8.3111  -18.9557   25.4971 C   0  0  1  0  0  0  0  0  0  0  0  0
    8.5322  -20.0561   26.4749 C   0  0  0  0  0  0  0  0  0  0  0  0
    9.1395  -19.5453   27.7452 C   0  0  0  0  0  0  0  0  0  0  0  0
    9.3989  -20.6906   28.7283 C   0  0  0  0  0  0  0  0  0  0  0  0
    9.8031  -20.0730   30.0616 C   0  0  0  0  0  0  0  0  0  0  0  0
   10.1349  -21.1184   31.0083 N   0  0  0  0  0  0  0  0  0  0  0  0
    9.5382  -18.2156   25.1844 C   0  0  0  0  0  0  0  0  0  0  0  0
   10.1312  -18.3361   24.0951 O   0  0  0  0  0  0  0  0  0  0  0  0
   10.0830  -17.3445   26.1097 O   0  0  0  0  0  0  0  0  0  0  0  0
  1  2  1  0
  3  2  1  0
  3  4  2  0
  5  3  1  0
  6  5  1  0
  6 12  1  0
  6  7  1  6
  8  7  1  0
  9  8  1  0
  9 10  1  0
 11 10  1  0
 12 14  1  0
 13 12  2  0
 14 15  1  0
 15 21  1  0
 15 16  1  1
 17 16  1  0
 18 17  1  0
 19 18  1  0
 20 19  1  0
 21 22  2  0
 21 23  1  0
M  END
$$$$
