GKK.pdb
     RDKit          3D

 23 22  0  0  1  0  0  0  0  0999 V2000
    4.8558  -20.4371   22.9052 N   0  0  0  0  0  0  0  0  0  0  0  0
    5.0746  -19.0781   23.2997 C   0  0  0  0  0  0  0  0  0  0  0  0
    6.3712  -18.5906   22.7664 C   0  0  0  0  0  0  0  0  0  0  0  0
    7.1623  -19.4095   22.2433 O   0  0  0  0  0  0  0  0  0  0  0  0
    6.7172  -17.2191   22.8440 N   0  0  0  0  0  0  0  0  0  0  0  0
    7.9921  -16.7214   22.3323 C   0  0  1  0  0  0  0  0  0  0  0  0
    7.8700  -15.2671   21.9547 C   0  0  0  0  0  0  0  0  0  0  0  0
    7.7222  -14.9926   20.5020 C   0  0  0  0  0  0  0  0  0  0  0  0
    7.9087  -13.5052   20.1968 C   0  0  0  0  0  0  0  0  0  0  0  0
    7.6474  -13.2242   18.7472 C   0  0  0  0  0  0  0  0  0  0  0  0
    7.7188  -11.7880   18.5468 N   0  0  0  0  0  0  0  0  0  0  0  0
    9.0467  -16.8682   23.3927 C   0  0  0  0  0  0  0  0  0  0  0  0
    8.8479  -16.5083   24.5786 O   0  0  0  0  0  0  0  0  0  0  0  0
   10.3142  -17.4214   23.0950 N   0  0  0  0  0  0  0  0  0  0  0  0
   11.2983  -17.5983   24.1723 C   0  0  1  0  0  0  0  0  0  0  0  0
   11.8436  -18.9833   24.1540 C   0  0  0  0  0  0  0  0  0  0  0  0
   12.9398  -19.1530   25.1604 C   0  0  0  0  0  0  0  0  0  0  0  0
   13.5123  -20.5727   25.1137 C   0  0  0  0  0  0  0  0  0  0  0  0
   14.6292  -20.6552   26.1471 C   0  0  0  0  0  0  0  0  0  0  0  0
   15.2960  -21.9379   26.0504 N   0  0  0  0  0  0  0  0  0  0  0  0
   12.3263  -16.5777   23.9426 C   0  0  0  0  0  0  0  0  0  0  0  0
   12.5087  -16.0532   22.8271 O   0  0  0  0  0  0  0  0  0  0  0  0
   13.1391  -16.1597   24.9801 O   0  0  0  0  0  0  0  0  0  0  0  0
  1  2  1  0
  3  2  1  0
  3  4  2  0
  5  3  1  0
  6  5  1  0
  6 12  1  0
  6  7  1  1
  8  7  1  0
  9  8  1  0
  9 10  1  0
 11 10  1  0
 12 14  1  0
 13 12  2  0
 14 15  1  0
 15 21  1  0
 15 16  1  6
 17 16  1  0
 18 17  1  0
 19 18  1  0
 20 19  1  0
 21 22  2  0
 21 23  1  0
M  END
$$$$
