INC.pdb
     RDKit          3D

 23 22  0  0  1  0  0  0  0  0999 V2000
   21.0453  -14.6229  -21.1815 C   0  0  0  0  0  0  0  0  0  0  0  0
   22.0551  -13.5401  -21.0160 C   0  0  0  0  0  0  0  0  0  0  0  0
   21.4395  -12.1566  -20.8965 C   0  0  2  0  0  0  0  0  0  0  0  0
   21.5664  -11.4659  -22.2063 C   0  0  0  0  0  0  0  0  0  0  0  0
   22.0733  -11.4569  -19.7429 C   0  0  2  0  0  0  0  0  0  0  0  0
   21.7105  -12.2128  -18.5332 N   0  0  0  0  0  0  0  0  0  0  0  0
   21.6188  -10.0729  -19.5543 C   0  0  0  0  0  0  0  0  0  0  0  0
   21.8894   -9.2312  -20.4495 O   0  0  0  0  0  0  0  0  0  0  0  0
   19.2976   -5.7525  -17.7354 N   0  0  0  0  0  0  0  0  0  0  0  0
   18.4279   -6.8703  -17.7981 C   0  0  0  0  0  0  0  0  0  0  0  0
   17.1866   -6.7157  -17.7200 O   0  0  0  0  0  0  0  0  0  0  0  0
   18.9737   -8.2209  -17.9554 C   0  0  0  0  0  0  0  0  0  0  0  0
   20.4680   -8.2333  -18.2387 C   0  0  2  0  0  0  0  0  0  0  0  0
   20.8895   -9.6064  -18.4268 N   0  0  0  0  0  0  0  0  0  0  0  0
   21.1105   -7.7236  -17.0040 C   0  0  0  0  0  0  0  0  0  0  0  0
   21.2738   -8.5039  -16.0398 O   0  0  0  0  0  0  0  0  0  0  0  0
   21.5571   -6.3796  -16.8532 N   0  0  0  0  0  0  0  0  0  0  0  0
   22.1947   -5.9076  -15.6364 C   0  0  1  0  0  0  0  0  0  0  0  0
   22.9926   -4.6505  -15.9637 C   0  0  0  0  0  0  0  0  0  0  0  0
   23.5840   -3.8422  -14.4601 S   0  0  0  0  0  0  0  0  0  0  0  0
   21.1667   -5.6458  -14.6150 C   0  0  0  0  0  0  0  0  0  0  0  0
   20.1131   -4.7379  -14.8317 O   0  0  0  0  0  0  0  0  0  0  0  0
   21.1638   -6.2120  -13.4920 O   0  0  0  0  0  0  0  0  0  0  0  0
  2  1  1  0
  3  2  1  0
  3  4  1  6
  5  3  1  0
  5  6  1  1
  7  5  1  0
  7  8  2  0
 10 12  1  0
 10  9  1  0
 11 10  2  0
 13 12  1  1
 13 14  1  0
 13 15  1  0
 14  7  1  0
 15 17  1  0
 16 15  2  0
 17 18  1  0
 18 21  1  0
 19 20  1  0
 18 19  1  6
 21 23  2  0
 21 22  1  0
M  END
$$$$
