INC.pdb
     RDKit          3D

 23 22  0  0  1  0  0  0  0  0999 V2000
   18.8219  -15.1842  -19.0952 C   0  0  0  0  0  0  0  0  0  0  0  0
   19.2851  -13.8352  -19.5257 C   0  0  0  0  0  0  0  0  0  0  0  0
   18.8454  -12.7216  -18.5910 C   0  0  2  0  0  0  0  0  0  0  0  0
   17.3675  -12.7794  -18.4459 C   0  0  0  0  0  0  0  0  0  0  0  0
   19.3850  -11.4318  -19.1081 C   0  0  2  0  0  0  0  0  0  0  0  0
   20.8473  -11.5807  -19.1849 N   0  0  0  0  0  0  0  0  0  0  0  0
   19.1014  -10.2731  -18.2510 C   0  0  0  0  0  0  0  0  0  0  0  0
   17.8986   -9.9843  -18.0211 O   0  0  0  0  0  0  0  0  0  0  0  0
   19.6103   -6.1985  -14.9991 N   0  0  0  0  0  0  0  0  0  0  0  0
   20.6332   -7.1503  -14.7595 C   0  0  0  0  0  0  0  0  0  0  0  0
   21.3752   -7.0473  -13.7547 O   0  0  0  0  0  0  0  0  0  0  0  0
   20.8331   -8.2667  -15.6870 C   0  0  0  0  0  0  0  0  0  0  0  0
   19.8004   -8.3102  -16.8028 C   0  0  2  0  0  0  0  0  0  0  0  0
   20.0911   -9.4448  -17.6552 N   0  0  0  0  0  0  0  0  0  0  0  0
   20.0190   -7.0765  -17.5946 C   0  0  0  0  0  0  0  0  0  0  0  0
   21.0984   -6.9359  -18.2112 O   0  0  0  0  0  0  0  0  0  0  0  0
   19.0571   -6.0307  -17.6933 N   0  0  0  0  0  0  0  0  0  0  0  0
   19.2577   -4.8724  -18.5466 C   0  0  1  0  0  0  0  0  0  0  0  0
   17.8969   -4.3895  -19.0357 C   0  0  0  0  0  0  0  0  0  0  0  0
   17.0783   -5.6497  -20.0385 S   0  0  0  0  0  0  0  0  0  0  0  0
   19.9647   -3.8244  -17.7912 C   0  0  0  0  0  0  0  0  0  0  0  0
   20.2823   -2.5778  -18.3625 O   0  0  0  0  0  0  0  0  0  0  0  0
   20.3274   -3.9744  -16.5964 O   0  0  0  0  0  0  0  0  0  0  0  0
  2  1  1  0
  3  2  1  0
  3  4  1  6
  5  3  1  0
  5  6  1  1
  7  5  1  0
  7  8  2  0
 10 12  1  0
 10  9  1  0
 11 10  2  0
 13 12  1  1
 13 14  1  0
 13 15  1  0
 14  7  1  0
 15 17  1  0
 16 15  2  0
 17 18  1  0
 18 21  1  0
 19 20  1  0
 18 19  1  1
 21 23  2  0
 21 22  1  0
M  END
$$$$
