INC.pdb
     RDKit          3D

 23 22  0  0  1  0  0  0  0  0999 V2000
   21.1645  -17.7633  -18.6296 C   0  0  0  0  0  0  0  0  0  0  0  0
   21.3537  -16.6606  -17.6458 C   0  0  0  0  0  0  0  0  0  0  0  0
   20.5212  -15.4285  -17.9559 C   0  0  2  0  0  0  0  0  0  0  0  0
   20.8044  -15.0031  -19.3514 C   0  0  0  0  0  0  0  0  0  0  0  0
   20.7913  -14.4018  -16.9094 C   0  0  2  0  0  0  0  0  0  0  0  0
   20.4380  -15.0077  -15.6154 N   0  0  0  0  0  0  0  0  0  0  0  0
   20.0013  -13.1719  -17.0540 C   0  0  0  0  0  0  0  0  0  0  0  0
   20.2136  -12.4438  -18.0579 O   0  0  0  0  0  0  0  0  0  0  0  0
   15.1495  -13.4829  -16.1774 N   0  0  0  0  0  0  0  0  0  0  0  0
   15.9958  -12.4511  -16.6556 C   0  0  0  0  0  0  0  0  0  0  0  0
   16.0142  -12.1568  -17.8737 O   0  0  0  0  0  0  0  0  0  0  0  0
   16.8596  -11.7169  -15.7275 C   0  0  0  0  0  0  0  0  0  0  0  0
   18.2656  -11.4976  -16.2647 C   0  0  2  0  0  0  0  0  0  0  0  0
   19.0053  -12.7366  -16.1379 N   0  0  0  0  0  0  0  0  0  0  0  0
   18.8857  -10.5011  -15.3594 C   0  0  0  0  0  0  0  0  0  0  0  0
   19.0986  -10.8156  -14.1674 O   0  0  0  0  0  0  0  0  0  0  0  0
   19.2565   -9.1907  -15.7766 N   0  0  0  0  0  0  0  0  0  0  0  0
   20.0217   -8.2952  -14.9266 C   0  0  1  0  0  0  0  0  0  0  0  0
   21.3318   -8.9808  -14.5557 C   0  0  0  0  0  0  0  0  0  0  0  0
   22.4086   -7.8705  -13.6221 S   0  0  0  0  0  0  0  0  0  0  0  0
   20.2565   -7.0271  -15.6374 C   0  0  0  0  0  0  0  0  0  0  0  0
   20.3348   -5.7953  -14.9608 O   0  0  0  0  0  0  0  0  0  0  0  0
   20.4010   -6.9633  -16.8851 O   0  0  0  0  0  0  0  0  0  0  0  0
  2  1  1  0
  3  2  1  0
  3  4  1  6
  5  3  1  0
  5  6  1  1
  7  5  1  0
  7  8  2  0
 10 12  1  0
 10  9  1  0
 11 10  2  0
 13 12  1  1
 13 14  1  0
 13 15  1  0
 14  7  1  0
 15 17  1  0
 16 15  2  0
 17 18  1  0
 18 21  1  0
 19 20  1  0
 18 19  1  6
 21 23  2  0
 21 22  1  0
M  END
$$$$
