INC.pdb
     RDKit          3D

 23 22  0  0  1  0  0  0  0  0999 V2000
   29.9363  -21.7905  -10.1189 C   0  0  0  0  0  0  0  0  0  0  0  0
   28.5573  -21.2430   -9.9847 C   0  0  0  0  0  0  0  0  0  0  0  0
   27.7982  -21.1959  -11.2996 C   0  0  2  0  0  0  0  0  0  0  0  0
   28.6289  -20.4788  -12.3018 C   0  0  0  0  0  0  0  0  0  0  0  0
   26.4533  -20.6049  -11.0464 C   0  0  2  0  0  0  0  0  0  0  0  0
   25.8478  -21.3760   -9.9485 N   0  0  0  0  0  0  0  0  0  0  0  0
   25.5391  -20.6740  -12.1940 C   0  0  0  0  0  0  0  0  0  0  0  0
   25.7777  -19.9415  -13.1888 O   0  0  0  0  0  0  0  0  0  0  0  0
   25.5966  -22.5621  -15.0648 N   0  0  0  0  0  0  0  0  0  0  0  0
   24.6155  -23.5082  -14.6748 C   0  0  0  0  0  0  0  0  0  0  0  0
   24.7064  -24.7047  -15.0365 O   0  0  0  0  0  0  0  0  0  0  0  0
   23.4826  -23.0948  -13.8428 C   0  0  0  0  0  0  0  0  0  0  0  0
   23.5428  -21.6309  -13.4342 C   0  0  2  0  0  0  0  0  0  0  0  0
   24.3941  -21.5131  -12.2681 N   0  0  0  0  0  0  0  0  0  0  0  0
   22.1622  -21.2745  -13.0294 C   0  0  0  0  0  0  0  0  0  0  0  0
   21.9490  -20.9239  -11.8476 O   0  0  0  0  0  0  0  0  0  0  0  0
   21.0527  -21.3096  -13.9218 N   0  0  0  0  0  0  0  0  0  0  0  0
   19.8504  -20.5271  -13.6933 C   0  0  1  0  0  0  0  0  0  0  0  0
   20.2225  -19.0489  -13.7170 C   0  0  0  0  0  0  0  0  0  0  0  0
   18.9641  -18.0453  -12.8967 S   0  0  0  0  0  0  0  0  0  0  0  0
   18.8520  -20.8508  -14.7263 C   0  0  0  0  0  0  0  0  0  0  0  0
   17.4727  -20.8838  -14.4472 O   0  0  0  0  0  0  0  0  0  0  0  0
   19.1648  -21.1164  -15.9150 O   0  0  0  0  0  0  0  0  0  0  0  0
  2  1  1  0
  3  2  1  0
  3  4  1  6
  5  3  1  0
  5  6  1  1
  7  5  1  0
  7  8  2  0
 10 12  1  0
 10  9  1  0
 11 10  2  0
 13 12  1  1
 13 14  1  0
 13 15  1  0
 14  7  1  0
 15 17  1  0
 16 15  2  0
 17 18  1  0
 18 21  1  0
 19 20  1  0
 18 19  1  6
 21 23  2  0
 21 22  1  0
M  END
$$$$
