INC.pdb
     RDKit          3D

 23 22  0  0  1  0  0  0  0  0999 V2000
   23.8344  -17.2555  -16.3508 C   0  0  0  0  0  0  0  0  0  0  0  0
   22.8697  -16.1343  -16.1730 C   0  0  0  0  0  0  0  0  0  0  0  0
   23.5186  -14.7634  -16.2565 C   0  0  2  0  0  0  0  0  0  0  0  0
   24.5731  -14.6730  -15.2132 C   0  0  0  0  0  0  0  0  0  0  0  0
   22.4481  -13.7295  -16.1720 C   0  0  2  0  0  0  0  0  0  0  0  0
   21.4315  -14.0841  -17.1757 N   0  0  0  0  0  0  0  0  0  0  0  0
   22.9044  -12.3645  -16.4657 C   0  0  0  0  0  0  0  0  0  0  0  0
   23.6621  -11.7995  -15.6352 O   0  0  0  0  0  0  0  0  0  0  0  0
   23.6493   -7.7000  -18.7252 N   0  0  0  0  0  0  0  0  0  0  0  0
   23.0870   -8.5642  -19.6982 C   0  0  0  0  0  0  0  0  0  0  0  0
   22.9130   -8.1695  -20.8750 O   0  0  0  0  0  0  0  0  0  0  0  0
   22.7027   -9.9309  -19.3362 C   0  0  0  0  0  0  0  0  0  0  0  0
   22.9380  -10.2497  -17.8677 C   0  0  2  0  0  0  0  0  0  0  0  0
   22.5522  -11.6252  -17.6277 N   0  0  0  0  0  0  0  0  0  0  0  0
   22.0049   -9.3762  -17.1172 C   0  0  0  0  0  0  0  0  0  0  0  0
   20.7778   -9.6139  -17.1703 O   0  0  0  0  0  0  0  0  0  0  0  0
   22.4331   -8.2691  -16.3302 N   0  0  0  0  0  0  0  0  0  0  0  0
   21.5026   -7.4563  -15.5664 C   0  0  1  0  0  0  0  0  0  0  0  0
   21.2416   -8.1440  -14.2311 C   0  0  0  0  0  0  0  0  0  0  0  0
   20.3697   -7.0471  -13.0907 S   0  0  0  0  0  0  0  0  0  0  0  0
   22.0678   -6.1092  -15.3802 C   0  0  0  0  0  0  0  0  0  0  0  0
   21.2544   -4.9829  -15.1539 O   0  0  0  0  0  0  0  0  0  0  0  0
   23.3040   -5.8800  -15.4113 O   0  0  0  0  0  0  0  0  0  0  0  0
  2  1  1  0
  3  2  1  0
  3  4  1  1
  5  3  1  0
  5  6  1  6
  7  5  1  0
  7  8  2  0
 10 12  1  0
 10  9  1  0
 11 10  2  0
 13 12  1  6
 13 14  1  0
 13 15  1  0
 14  7  1  0
 15 17  1  0
 16 15  2  0
 17 18  1  0
 18 21  1  0
 19 20  1  0
 18 19  1  1
 21 23  2  0
 21 22  1  0
M  END
$$$$
