INC.pdb
     RDKit          3D

 23 22  0  0  1  0  0  0  0  0999 V2000
   23.3010  -28.1561  -19.6072 C   0  0  0  0  0  0  0  0  0  0  0  0
   22.7199  -27.3626  -18.4881 C   0  0  0  0  0  0  0  0  0  0  0  0
   22.1411  -28.2228  -17.3780 C   0  0  2  0  0  0  0  0  0  0  0  0
   21.1443  -29.1532  -17.9690 C   0  0  0  0  0  0  0  0  0  0  0  0
   21.6189  -27.3242  -16.3093 C   0  0  2  0  0  0  0  0  0  0  0  0
   22.7491  -26.4967  -15.8571 N   0  0  0  0  0  0  0  0  0  0  0  0
   21.0877  -28.0295  -15.1355 C   0  0  0  0  0  0  0  0  0  0  0  0
   20.0736  -28.7583  -15.2886 O   0  0  0  0  0  0  0  0  0  0  0  0
   22.3624  -30.7331  -10.1452 N   0  0  0  0  0  0  0  0  0  0  0  0
   21.7896  -29.4652  -10.4170 C   0  0  0  0  0  0  0  0  0  0  0  0
   20.9342  -28.9746   -9.6434 O   0  0  0  0  0  0  0  0  0  0  0  0
   22.1935  -28.7141  -11.6083 C   0  0  0  0  0  0  0  0  0  0  0  0
   21.1139  -28.6635  -12.6785 C   0  0  2  0  0  0  0  0  0  0  0  0
   21.6367  -27.9514  -13.8265 N   0  0  0  0  0  0  0  0  0  0  0  0
   20.0175  -27.8520  -12.0985 C   0  0  0  0  0  0  0  0  0  0  0  0
   20.1911  -26.6231  -11.9420 O   0  0  0  0  0  0  0  0  0  0  0  0
   18.7633  -28.4006  -11.7053 N   0  0  0  0  0  0  0  0  0  0  0  0
   17.7042  -27.5833  -11.1394 C   0  0  1  0  0  0  0  0  0  0  0  0
   16.6566  -27.3327  -12.2182 C   0  0  0  0  0  0  0  0  0  0  0  0
   15.1766  -26.5623  -11.5252 S   0  0  0  0  0  0  0  0  0  0  0  0
   17.1259  -28.2707   -9.9725 C   0  0  0  0  0  0  0  0  0  0  0  0
   16.6529  -27.5660   -8.8495 O   0  0  0  0  0  0  0  0  0  0  0  0
   17.0182  -29.5219   -9.9044 O   0  0  0  0  0  0  0  0  0  0  0  0
  2  1  1  0
  3  2  1  0
  3  4  1  6
  5  3  1  0
  5  6  1  1
  7  5  1  0
  7  8  2  0
 10 12  1  0
 10  9  1  0
 11 10  2  0
 13 12  1  1
 13 14  1  0
 13 15  1  0
 14  7  1  0
 15 17  1  0
 16 15  2  0
 17 18  1  0
 18 21  1  0
 19 20  1  0
 18 19  1  6
 21 23  2  0
 21 22  1  0
M  END
$$$$
