INC.pdb
     RDKit          3D

 23 22  0  0  1  0  0  0  0  0999 V2000
   16.5614  -14.7525  -19.6998 C   0  0  0  0  0  0  0  0  0  0  0  0
   18.0009  -14.3812  -19.6022 C   0  0  0  0  0  0  0  0  0  0  0  0
   18.2646  -13.2458  -18.6283 C   0  0  2  0  0  0  0  0  0  0  0  0
   17.4389  -12.0764  -19.0277 C   0  0  0  0  0  0  0  0  0  0  0  0
   19.7341  -13.0006  -18.5771 C   0  0  2  0  0  0  0  0  0  0  0  0
   20.3617  -14.2575  -18.1380 N   0  0  0  0  0  0  0  0  0  0  0  0
   20.1371  -11.9498  -17.6331 C   0  0  0  0  0  0  0  0  0  0  0  0
   20.1541  -12.2279  -16.4062 O   0  0  0  0  0  0  0  0  0  0  0  0
   23.8542   -7.5295  -16.4763 N   0  0  0  0  0  0  0  0  0  0  0  0
   22.8810   -8.4795  -16.0762 C   0  0  0  0  0  0  0  0  0  0  0  0
   22.4265   -8.4712  -14.9082 O   0  0  0  0  0  0  0  0  0  0  0  0
   22.3960   -9.4829  -17.0272 C   0  0  0  0  0  0  0  0  0  0  0  0
   20.8793   -9.5916  -17.0611 C   0  0  2  0  0  0  0  0  0  0  0  0
   20.5131  -10.6297  -18.0028 N   0  0  0  0  0  0  0  0  0  0  0  0
   20.4002   -8.2967  -17.6001 C   0  0  0  0  0  0  0  0  0  0  0  0
   20.6722   -7.9954  -18.7834 O   0  0  0  0  0  0  0  0  0  0  0  0
   19.6389   -7.3662  -16.8364 N   0  0  0  0  0  0  0  0  0  0  0  0
   19.0925   -6.1519  -17.4169 C   0  0  1  0  0  0  0  0  0  0  0  0
   17.6635   -5.9759  -16.9160 C   0  0  0  0  0  0  0  0  0  0  0  0
   17.5759   -6.1418  -15.1192 S   0  0  0  0  0  0  0  0  0  0  0  0
   19.9412   -5.0071  -17.0458 C   0  0  0  0  0  0  0  0  0  0  0  0
   21.0598   -5.1491  -16.2030 O   0  0  0  0  0  0  0  0  0  0  0  0
   19.7232   -3.8379  -17.4546 O   0  0  0  0  0  0  0  0  0  0  0  0
  2  1  1  0
  3  2  1  0
  3  4  1  6
  5  3  1  0
  5  6  1  1
  7  5  1  0
  7  8  2  0
 10 12  1  0
 10  9  1  0
 11 10  2  0
 13 12  1  6
 13 14  1  0
 13 15  1  0
 14  7  1  0
 15 17  1  0
 16 15  2  0
 17 18  1  0
 18 21  1  0
 19 20  1  0
 18 19  1  1
 21 23  2  0
 21 22  1  0
M  END
$$$$
