INC.pdb
     RDKit          3D

 23 22  0  0  1  0  0  0  0  0999 V2000
   15.9011  -14.9869  -16.9514 C   0  0  0  0  0  0  0  0  0  0  0  0
   16.7140  -14.1797  -15.9989 C   0  0  0  0  0  0  0  0  0  0  0  0
   17.0326  -12.7857  -16.5113 C   0  0  2  0  0  0  0  0  0  0  0  0
   17.7236  -12.9078  -17.8213 C   0  0  0  0  0  0  0  0  0  0  0  0
   17.7924  -12.0578  -15.4554 C   0  0  2  0  0  0  0  0  0  0  0  0
   16.9373  -12.0279  -14.2577 N   0  0  0  0  0  0  0  0  0  0  0  0
   18.1222  -10.6685  -15.7999 C   0  0  0  0  0  0  0  0  0  0  0  0
   18.9412  -10.4661  -16.7334 O   0  0  0  0  0  0  0  0  0  0  0  0
   15.5799   -6.0881  -16.9630 N   0  0  0  0  0  0  0  0  0  0  0  0
   15.6915   -7.2063  -16.0988 C   0  0  0  0  0  0  0  0  0  0  0  0
   14.8818   -8.1592  -16.1838 O   0  0  0  0  0  0  0  0  0  0  0  0
   16.7576   -7.2588  -15.0952 C   0  0  0  0  0  0  0  0  0  0  0  0
   17.9164   -8.1572  -15.4994 C   0  0  2  0  0  0  0  0  0  0  0  0
   17.5820   -9.5235  -15.1534 N   0  0  0  0  0  0  0  0  0  0  0  0
   19.0581   -7.7382  -14.6521 C   0  0  0  0  0  0  0  0  0  0  0  0
   18.9522   -7.8221  -13.4084 O   0  0  0  0  0  0  0  0  0  0  0  0
   20.2826   -7.2397  -15.1818 N   0  0  0  0  0  0  0  0  0  0  0  0
   21.4177   -6.9164  -14.3351 C   0  0  1  0  0  0  0  0  0  0  0  0
   22.6358   -7.6773  -14.8462 C   0  0  0  0  0  0  0  0  0  0  0  0
   22.5503   -9.4250  -14.3966 S   0  0  0  0  0  0  0  0  0  0  0  0
   21.6422   -5.4610  -14.3519 C   0  0  0  0  0  0  0  0  0  0  0  0
   22.2710   -4.7902  -13.2861 O   0  0  0  0  0  0  0  0  0  0  0  0
   21.2893   -4.7294  -15.3121 O   0  0  0  0  0  0  0  0  0  0  0  0
  2  1  1  0
  3  2  1  0
  3  4  1  6
  5  3  1  0
  5  6  1  1
  7  5  1  0
  7  8  2  0
 10 12  1  0
 10  9  1  0
 11 10  2  0
 13 12  1  1
 13 14  1  0
 13 15  1  0
 14  7  1  0
 15 17  1  0
 16 15  2  0
 17 18  1  0
 18 21  1  0
 19 20  1  0
 18 19  1  6
 21 23  2  0
 21 22  1  0
M  END
$$$$
