INC.pdb
     RDKit          3D

 23 22  0  0  1  0  0  0  0  0999 V2000
   18.1745  -13.9969  -20.9261 C   0  0  0  0  0  0  0  0  0  0  0  0
   18.5867  -13.8282  -19.5044 C   0  0  0  0  0  0  0  0  0  0  0  0
   18.5019  -12.3910  -19.0200 C   0  0  2  0  0  0  0  0  0  0  0  0
   19.3286  -11.5391  -19.9141 C   0  0  0  0  0  0  0  0  0  0  0  0
   18.8799  -12.3566  -17.5784 C   0  0  2  0  0  0  0  0  0  0  0  0
   17.9276  -13.2242  -16.8664 N   0  0  0  0  0  0  0  0  0  0  0  0
   18.8067  -11.0225  -16.9681 C   0  0  0  0  0  0  0  0  0  0  0  0
   17.6890  -10.4457  -16.9327 O   0  0  0  0  0  0  0  0  0  0  0  0
   20.1762   -6.4211  -14.8159 N   0  0  0  0  0  0  0  0  0  0  0  0
   20.8401   -7.4902  -14.1634 C   0  0  0  0  0  0  0  0  0  0  0  0
   21.4553   -7.2958  -13.0889 O   0  0  0  0  0  0  0  0  0  0  0  0
   20.8133   -8.8365  -14.7407 C   0  0  0  0  0  0  0  0  0  0  0  0
   19.8543   -8.9656  -15.9142 C   0  0  2  0  0  0  0  0  0  0  0  0
   19.9124  -10.3259  -16.4087 N   0  0  0  0  0  0  0  0  0  0  0  0
   20.3936   -8.0735  -16.9678 C   0  0  0  0  0  0  0  0  0  0  0  0
   21.5149   -8.3276  -17.4610 O   0  0  0  0  0  0  0  0  0  0  0  0
   19.6979   -6.9302  -17.4550 N   0  0  0  0  0  0  0  0  0  0  0  0
   20.2119   -6.1165  -18.5429 C   0  0  1  0  0  0  0  0  0  0  0  0
   19.1843   -6.1080  -19.6691 C   0  0  0  0  0  0  0  0  0  0  0  0
   19.1064   -7.7131  -20.4945 S   0  0  0  0  0  0  0  0  0  0  0  0
   20.4861   -4.7563  -18.0498 C   0  0  0  0  0  0  0  0  0  0  0  0
   21.5325   -3.9707  -18.5687 O   0  0  0  0  0  0  0  0  0  0  0  0
   19.8083   -4.2130  -17.1403 O   0  0  0  0  0  0  0  0  0  0  0  0
  2  1  1  0
  3  2  1  0
  3  4  1  6
  5  3  1  0
  5  6  1  1
  7  5  1  0
  7  8  2  0
 10 12  1  0
 10  9  1  0
 11 10  2  0
 13 12  1  1
 13 14  1  0
 13 15  1  0
 14  7  1  0
 15 17  1  0
 16 15  2  0
 17 18  1  0
 18 21  1  0
 19 20  1  0
 18 19  1  6
 21 23  2  0
 21 22  1  0
M  END
$$$$
