INC.pdb
     RDKit          3D

 23 22  0  0  1  0  0  0  0  0999 V2000
   20.1701  -14.8572  -18.1993 C   0  0  0  0  0  0  0  0  0  0  0  0
   19.2941  -14.0560  -17.2993 C   0  0  0  0  0  0  0  0  0  0  0  0
   19.4790  -12.5567  -17.4583 C   0  0  2  0  0  0  0  0  0  0  0  0
   20.8522  -12.1983  -17.0173 C   0  0  0  0  0  0  0  0  0  0  0  0
   18.3757  -11.8662  -16.7317 C   0  0  2  0  0  0  0  0  0  0  0  0
   17.1124  -12.3919  -17.2740 N   0  0  0  0  0  0  0  0  0  0  0  0
   18.3602  -10.4077  -16.9052 C   0  0  0  0  0  0  0  0  0  0  0  0
   17.8245   -9.9383  -17.9424 O   0  0  0  0  0  0  0  0  0  0  0  0
   18.6118   -5.2843  -16.3858 N   0  0  0  0  0  0  0  0  0  0  0  0
   17.4314   -6.0578  -16.2514 C   0  0  0  0  0  0  0  0  0  0  0  0
   16.3049   -5.5093  -16.2792 O   0  0  0  0  0  0  0  0  0  0  0  0
   17.5177   -7.5101  -16.0780 C   0  0  0  0  0  0  0  0  0  0  0  0
   18.9380   -8.0428  -16.1891 C   0  0  2  0  0  0  0  0  0  0  0  0
   18.9095   -9.4763  -15.9823 N   0  0  0  0  0  0  0  0  0  0  0  0
   19.6801   -7.4335  -15.0600 C   0  0  0  0  0  0  0  0  0  0  0  0
   19.2479   -7.5899  -13.8964 O   0  0  0  0  0  0  0  0  0  0  0  0
   20.8714   -6.6713  -15.2286 N   0  0  0  0  0  0  0  0  0  0  0  0
   21.6205   -6.1459  -14.1005 C   0  0  1  0  0  0  0  0  0  0  0  0
   22.9349   -6.9107  -13.9932 C   0  0  0  0  0  0  0  0  0  0  0  0
   22.6632   -8.5971  -13.4047 S   0  0  0  0  0  0  0  0  0  0  0  0
   21.8475   -4.7036  -14.2926 C   0  0  0  0  0  0  0  0  0  0  0  0
   22.1804   -3.8512  -13.2230 O   0  0  0  0  0  0  0  0  0  0  0  0
   21.7592   -4.1448  -15.4158 O   0  0  0  0  0  0  0  0  0  0  0  0
  2  1  1  0
  3  2  1  0
  3  4  1  1
  5  3  1  0
  5  6  1  6
  7  5  1  0
  7  8  2  0
 10 12  1  0
 10  9  1  0
 11 10  2  0
 13 12  1  1
 13 14  1  0
 13 15  1  0
 14  7  1  0
 15 17  1  0
 16 15  2  0
 17 18  1  0
 18 21  1  0
 19 20  1  0
 18 19  1  6
 21 23  2  0
 21 22  1  0
M  END
$$$$
