INC.pdb
     RDKit          3D

 23 22  0  0  1  0  0  0  0  0999 V2000
   12.1269  -13.1572  -13.8353 C   0  0  0  0  0  0  0  0  0  0  0  0
   12.9168  -13.7020  -12.6957 C   0  0  0  0  0  0  0  0  0  0  0  0
   13.7476  -12.6495  -11.9821 C   0  0  2  0  0  0  0  0  0  0  0  0
   12.8543  -11.5320  -11.5796 C   0  0  0  0  0  0  0  0  0  0  0  0
   14.8860  -12.2687  -12.8660 C   0  0  2  0  0  0  0  0  0  0  0  0
   15.6810  -13.4875  -13.0874 N   0  0  0  0  0  0  0  0  0  0  0  0
   15.7800  -11.2536  -12.2933 C   0  0  0  0  0  0  0  0  0  0  0  0
   16.3672  -11.5203  -11.2130 O   0  0  0  0  0  0  0  0  0  0  0  0
   18.7317   -6.9925  -11.5895 N   0  0  0  0  0  0  0  0  0  0  0  0
   18.5979   -7.2670  -12.9738 C   0  0  0  0  0  0  0  0  0  0  0  0
   19.3136   -6.6712  -13.8126 O   0  0  0  0  0  0  0  0  0  0  0  0
   17.6186   -8.2528  -13.4384 C   0  0  0  0  0  0  0  0  0  0  0  0
   16.9257   -8.9895  -12.3024 C   0  0  2  0  0  0  0  0  0  0  0  0
   16.0355   -9.9804  -12.8716 N   0  0  0  0  0  0  0  0  0  0  0  0
   16.0960   -7.9709  -11.6162 C   0  0  0  0  0  0  0  0  0  0  0  0
   15.0721   -7.5374  -12.1896 O   0  0  0  0  0  0  0  0  0  0  0  0
   16.4036   -7.4528  -10.3256 N   0  0  0  0  0  0  0  0  0  0  0  0
   15.5633   -6.4685   -9.6662 C   0  0  1  0  0  0  0  0  0  0  0  0
   15.7533   -6.6007   -8.1593 C   0  0  0  0  0  0  0  0  0  0  0  0
   14.9909   -8.1150   -7.5352 S   0  0  0  0  0  0  0  0  0  0  0  0
   15.9222   -5.1215  -10.1410 C   0  0  0  0  0  0  0  0  0  0  0  0
   15.1578   -3.9859   -9.8129 O   0  0  0  0  0  0  0  0  0  0  0  0
   16.9268   -4.9006  -10.8646 O   0  0  0  0  0  0  0  0  0  0  0  0
  2  1  1  0
  3  2  1  0
  3  4  1  6
  5  3  1  0
  5  6  1  1
  7  5  1  0
  7  8  2  0
 10 12  1  0
 10  9  1  0
 11 10  2  0
 13 12  1  6
 13 14  1  0
 13 15  1  0
 14  7  1  0
 15 17  1  0
 16 15  2  0
 17 18  1  0
 18 21  1  0
 19 20  1  0
 18 19  1  1
 21 23  2  0
 21 22  1  0
M  END
$$$$
