INC.pdb
     RDKit          3D

 23 22  0  0  1  0  0  0  0  0999 V2000
   26.5145  -15.9067  -15.1272 C   0  0  0  0  0  0  0  0  0  0  0  0
   25.0255  -15.9363  -15.1679 C   0  0  0  0  0  0  0  0  0  0  0  0
   24.4094  -14.6181  -15.6037 C   0  0  2  0  0  0  0  0  0  0  0  0
   24.8684  -13.5503  -14.6774 C   0  0  0  0  0  0  0  0  0  0  0  0
   22.9317  -14.7945  -15.6906 C   0  0  2  0  0  0  0  0  0  0  0  0
   22.6900  -15.9361  -16.5876 N   0  0  0  0  0  0  0  0  0  0  0  0
   22.2182  -13.6361  -16.2444 C   0  0  0  0  0  0  0  0  0  0  0  0
   22.3187  -13.4104  -17.4781 O   0  0  0  0  0  0  0  0  0  0  0  0
   19.0174  -13.4525  -17.4106 N   0  0  0  0  0  0  0  0  0  0  0  0
   18.4213  -12.7341  -16.3437 C   0  0  0  0  0  0  0  0  0  0  0  0
   17.2167  -12.9157  -16.0492 O   0  0  0  0  0  0  0  0  0  0  0  0
   19.2102  -11.7696  -15.5730 C   0  0  0  0  0  0  0  0  0  0  0  0
   20.6481  -11.6517  -16.0546 C   0  0  2  0  0  0  0  0  0  0  0  0
   21.4148  -12.7414  -15.4862 N   0  0  0  0  0  0  0  0  0  0  0  0
   21.1578  -10.3852  -15.4773 C   0  0  0  0  0  0  0  0  0  0  0  0
   21.3932  -10.3307  -14.2499 O   0  0  0  0  0  0  0  0  0  0  0  0
   21.3968   -9.2140  -16.2517 N   0  0  0  0  0  0  0  0  0  0  0  0
   22.0509   -8.0407  -15.6991 C   0  0  1  0  0  0  0  0  0  0  0  0
   22.3930   -7.0927  -16.8430 C   0  0  0  0  0  0  0  0  0  0  0  0
   23.4908   -7.8832  -18.0404 S   0  0  0  0  0  0  0  0  0  0  0  0
   21.1611   -7.4023  -14.7145 C   0  0  0  0  0  0  0  0  0  0  0  0
   21.6603   -6.6544  -13.6316 O   0  0  0  0  0  0  0  0  0  0  0  0
   19.9077   -7.4836  -14.7772 O   0  0  0  0  0  0  0  0  0  0  0  0
  2  1  1  0
  3  2  1  0
  3  4  1  1
  5  3  1  0
  5  6  1  6
  7  5  1  0
  7  8  2  0
 10 12  1  0
 10  9  1  0
 11 10  2  0
 13 12  1  1
 13 14  1  0
 13 15  1  0
 14  7  1  0
 15 17  1  0
 16 15  2  0
 17 18  1  0
 18 21  1  0
 19 20  1  0
 18 19  1  6
 21 23  2  0
 21 22  1  0
M  END
$$$$
