INC.pdb
     RDKit          3D

 23 22  0  0  1  0  0  0  0  0999 V2000
   19.2993  -14.4792  -19.6917 C   0  0  0  0  0  0  0  0  0  0  0  0
   19.8196  -13.5199  -18.6775 C   0  0  0  0  0  0  0  0  0  0  0  0
   19.0433  -12.2151  -18.6298 C   0  0  2  0  0  0  0  0  0  0  0  0
   19.0134  -11.6303  -19.9957 C   0  0  0  0  0  0  0  0  0  0  0  0
   19.6451  -11.3470  -17.5779 C   0  0  2  0  0  0  0  0  0  0  0  0
   19.6182  -12.1157  -16.3230 N   0  0  0  0  0  0  0  0  0  0  0  0
   18.9191  -10.0915  -17.3450 C   0  0  0  0  0  0  0  0  0  0  0  0
   18.9883   -9.1932  -18.2232 O   0  0  0  0  0  0  0  0  0  0  0  0
   15.7513   -6.4070  -15.4739 N   0  0  0  0  0  0  0  0  0  0  0  0
   15.4304   -7.6292  -14.8312 C   0  0  0  0  0  0  0  0  0  0  0  0
   14.4379   -7.7061  -14.0698 O   0  0  0  0  0  0  0  0  0  0  0  0
   16.2585   -8.8175  -15.0519 C   0  0  0  0  0  0  0  0  0  0  0  0
   17.4533   -8.5550  -15.9558 C   0  0  2  0  0  0  0  0  0  0  0  0
   18.1365   -9.8103  -16.1921 N   0  0  0  0  0  0  0  0  0  0  0  0
   18.3598   -7.6824  -15.1724 C   0  0  0  0  0  0  0  0  0  0  0  0
   17.9586   -6.5499  -14.8237 O   0  0  0  0  0  0  0  0  0  0  0  0
   19.6771   -8.0665  -14.7906 N   0  0  0  0  0  0  0  0  0  0  0  0
   20.5435   -7.1954  -14.0156 C   0  0  1  0  0  0  0  0  0  0  0  0
   21.3911   -8.0570  -13.0865 C   0  0  0  0  0  0  0  0  0  0  0  0
   20.3918   -8.7622  -11.7569 S   0  0  0  0  0  0  0  0  0  0  0  0
   21.3803   -6.3990  -14.9289 C   0  0  0  0  0  0  0  0  0  0  0  0
   22.2462   -5.3924  -14.4615 O   0  0  0  0  0  0  0  0  0  0  0  0
   21.3755   -6.5655  -16.1754 O   0  0  0  0  0  0  0  0  0  0  0  0
  2  1  1  0
  3  2  1  0
  3  4  1  6
  5  3  1  0
  5  6  1  1
  7  5  1  0
  7  8  2  0
 10 12  1  0
 10  9  1  0
 11 10  2  0
 13 12  1  1
 13 14  1  0
 13 15  1  0
 14  7  1  0
 15 17  1  0
 16 15  2  0
 17 18  1  0
 18 21  1  0
 19 20  1  0
 18 19  1  1
 21 23  2  0
 21 22  1  0
M  END
$$$$
