INC.pdb
     RDKit          3D

 23 22  0  0  1  0  0  0  0  0999 V2000
   29.8077  -20.9450  -10.9664 C   0  0  0  0  0  0  0  0  0  0  0  0
   29.1194  -21.0047  -12.2863 C   0  0  0  0  0  0  0  0  0  0  0  0
   27.6578  -20.5962  -12.2215 C   0  0  2  0  0  0  0  0  0  0  0  0
   26.9532  -21.5018  -11.2769 C   0  0  0  0  0  0  0  0  0  0  0  0
   27.1129  -20.5734  -13.6088 C   0  0  2  0  0  0  0  0  0  0  0  0
   27.9917  -19.6957  -14.3985 N   0  0  0  0  0  0  0  0  0  0  0  0
   25.7472  -20.0422  -13.7110 C   0  0  0  0  0  0  0  0  0  0  0  0
   25.5691  -18.8155  -13.4955 O   0  0  0  0  0  0  0  0  0  0  0  0
   23.5658  -18.0004  -15.7719 N   0  0  0  0  0  0  0  0  0  0  0  0
   23.0744  -19.1635  -16.4164 C   0  0  0  0  0  0  0  0  0  0  0  0
   22.8200  -19.1513  -17.6436 O   0  0  0  0  0  0  0  0  0  0  0  0
   22.8587  -20.3944  -15.6516 C   0  0  0  0  0  0  0  0  0  0  0  0
   23.2661  -20.2710  -14.1914 C   0  0  2  0  0  0  0  0  0  0  0  0
   24.5999  -20.8151  -14.0381 N   0  0  0  0  0  0  0  0  0  0  0  0
   22.3291  -21.1418  -13.4427 C   0  0  0  0  0  0  0  0  0  0  0  0
   22.4178  -22.3826  -13.5757 O   0  0  0  0  0  0  0  0  0  0  0  0
   21.3221  -20.6381  -12.5704 N   0  0  0  0  0  0  0  0  0  0  0  0
   20.4115  -21.5128  -11.8524 C   0  0  1  0  0  0  0  0  0  0  0  0
   19.9037  -20.7759  -10.6182 C   0  0  0  0  0  0  0  0  0  0  0  0
   18.8987  -21.8586   -9.5783 S   0  0  0  0  0  0  0  0  0  0  0  0
   19.3055  -21.9048  -12.7422 C   0  0  0  0  0  0  0  0  0  0  0  0
   18.6965  -23.1714  -12.6630 O   0  0  0  0  0  0  0  0  0  0  0  0
   18.8373  -21.1392  -13.6233 O   0  0  0  0  0  0  0  0  0  0  0  0
  2  1  1  0
  3  2  1  0
  3  4  1  1
  5  3  1  0
  5  6  1  6
  7  5  1  0
  7  8  2  0
 10 12  1  0
 10  9  1  0
 11 10  2  0
 13 12  1  6
 13 14  1  0
 13 15  1  0
 14  7  1  0
 15 17  1  0
 16 15  2  0
 17 18  1  0
 18 21  1  0
 19 20  1  0
 18 19  1  1
 21 23  2  0
 21 22  1  0
M  END
$$$$
