ADS.pdb
     RDKit          3D

 20 19  0  0  1  0  0  0  0  0999 V2000
   16.2115  -13.0302  -14.8531 C   0  0  0  0  0  0  0  0  0  0  0  0
   15.3661  -11.8449  -14.4739 C   0  0  2  0  0  0  0  0  0  0  0  0
   14.8208  -11.2012  -15.6497 N   0  0  0  0  0  0  0  0  0  0  0  0
   16.2020  -10.8423  -13.7477 C   0  0  0  0  0  0  0  0  0  0  0  0
   16.7896  -11.1901  -12.6776 O   0  0  0  0  0  0  0  0  0  0  0  0
   16.3687   -9.5206  -14.1991 N   0  0  0  0  0  0  0  0  0  0  0  0
   17.2302   -8.6043  -13.5038 C   0  0  1  0  0  0  0  0  0  0  0  0
   18.1835   -7.8672  -14.4101 C   0  0  0  0  0  0  0  0  0  0  0  0
   19.1621   -8.7282  -15.0701 C   0  0  0  0  0  0  0  0  0  0  0  0
   20.0627   -9.2884  -14.4105 O   0  0  0  0  0  0  0  0  0  0  0  0
   16.4354   -7.6802  -12.6586 C   0  0  0  0  0  0  0  0  0  0  0  0
   15.3351   -7.2436  -13.0732 O   0  0  0  0  0  0  0  0  0  0  0  0
   19.1174   -8.9438  -16.4321 O   0  0  0  0  0  0  0  0  0  0  0  0
   17.5584   -6.6783   -8.7780 O   0  0  0  0  0  0  0  0  0  0  0  0
   16.2045   -6.7550   -9.0794 C   0  0  0  0  0  0  0  0  0  0  0  0
   15.9769   -6.4961  -10.5537 C   0  0  2  0  0  0  0  0  0  0  0  0
   16.8789   -7.2652  -11.3798 N   0  0  0  0  0  0  0  0  0  0  0  0
   16.2503   -5.0491  -10.8416 C   0  0  0  0  0  0  0  0  0  0  0  0
   17.1984   -4.7400  -11.6211 O   0  0  0  0  0  0  0  0  0  0  0  0
   15.5026   -4.0258  -10.2857 O   0  0  0  0  0  0  0  0  0  0  0  0
  2  1  1  6
  2  3  1  0
  4  2  1  0
  4  5  2  0
  6  4  1  0
  7  6  1  0
  7  8  1  6
  9  8  1  0
  9 10  2  0
 11  7  1  0
 12 11  2  0
 13  9  1  0
 14 15  1  0
 16 15  1  1
 16 17  1  0
 16 18  1  0
 17 11  1  0
 18 19  2  0
 18 20  1  0
M  END
$$$$
