ADS.pdb
     RDKit          3D

 20 19  0  0  1  0  0  0  0  0999 V2000
   17.4855  -10.5847  -16.7534 C   0  0  0  0  0  0  0  0  0  0  0  0
   18.0677   -9.2939  -17.2613 C   0  0  2  0  0  0  0  0  0  0  0  0
   18.8463   -9.5144  -18.4611 N   0  0  0  0  0  0  0  0  0  0  0  0
   18.9734   -8.7091  -16.2274 C   0  0  0  0  0  0  0  0  0  0  0  0
   18.5088   -8.4577  -15.0732 O   0  0  0  0  0  0  0  0  0  0  0  0
   20.3276   -8.4221  -16.4767 N   0  0  0  0  0  0  0  0  0  0  0  0
   21.1230   -7.7119  -15.5132 C   0  0  1  0  0  0  0  0  0  0  0  0
   22.4394   -8.3806  -15.2075 C   0  0  0  0  0  0  0  0  0  0  0  0
   22.3076   -9.7076  -14.6105 C   0  0  0  0  0  0  0  0  0  0  0  0
   22.5180  -10.7339  -15.2905 O   0  0  0  0  0  0  0  0  0  0  0  0
   21.2968   -6.2966  -15.9218 C   0  0  0  0  0  0  0  0  0  0  0  0
   21.0962   -5.9606  -17.1135 O   0  0  0  0  0  0  0  0  0  0  0  0
   21.9492   -9.8609  -13.2871 O   0  0  0  0  0  0  0  0  0  0  0  0
   19.2528   -2.5638  -15.1649 O   0  0  0  0  0  0  0  0  0  0  0  0
   19.6856   -3.8809  -15.0776 C   0  0  0  0  0  0  0  0  0  0  0  0
   21.1933   -3.9497  -15.1977 C   0  0  2  0  0  0  0  0  0  0  0  0
   21.6871   -5.2934  -15.0023 N   0  0  0  0  0  0  0  0  0  0  0  0
   21.8063   -3.1004  -14.1232 C   0  0  0  0  0  0  0  0  0  0  0  0
   22.2057   -3.6462  -13.0534 O   0  0  0  0  0  0  0  0  0  0  0  0
   21.9559   -1.7307  -14.2523 O   0  0  0  0  0  0  0  0  0  0  0  0
  2  1  1  1
  2  3  1  0
  4  2  1  0
  4  5  2  0
  6  4  1  0
  7  6  1  0
  7  8  1  6
  9  8  1  0
  9 10  2  0
 11  7  1  0
 12 11  2  0
 13  9  1  0
 14 15  1  0
 16 15  1  1
 16 17  1  0
 16 18  1  0
 17 11  1  0
 18 19  2  0
 18 20  1  0
M  END
$$$$
