ADS.pdb
     RDKit          3D

 20 19  0  0  1  0  0  0  0  0999 V2000
   18.6316  -10.4433  -17.7688 C   0  0  0  0  0  0  0  0  0  0  0  0
   19.8271  -10.5957  -16.8684 C   0  0  2  0  0  0  0  0  0  0  0  0
   19.7139  -11.7878  -16.0557 N   0  0  0  0  0  0  0  0  0  0  0  0
   19.9185   -9.4211  -15.9501 C   0  0  0  0  0  0  0  0  0  0  0  0
   19.0865   -9.3187  -14.9969 O   0  0  0  0  0  0  0  0  0  0  0  0
   20.8919   -8.4161  -16.0948 N   0  0  0  0  0  0  0  0  0  0  0  0
   20.9055   -7.2690  -15.2291 C   0  0  1  0  0  0  0  0  0  0  0  0
   22.2138   -7.0756  -14.5049 C   0  0  0  0  0  0  0  0  0  0  0  0
   22.2239   -5.9367  -13.5897 C   0  0  0  0  0  0  0  0  0  0  0  0
   22.7681   -4.8618  -13.9191 O   0  0  0  0  0  0  0  0  0  0  0  0
   20.4912   -6.0521  -15.9692 C   0  0  0  0  0  0  0  0  0  0  0  0
   21.0294   -5.7747  -17.0676 O   0  0  0  0  0  0  0  0  0  0  0  0
   21.6357   -6.0183  -12.3444 O   0  0  0  0  0  0  0  0  0  0  0  0
   17.3181   -2.9043  -17.3487 O   0  0  0  0  0  0  0  0  0  0  0  0
   17.6445   -4.0255  -16.5965 C   0  0  0  0  0  0  0  0  0  0  0  0
   19.1239   -4.0322  -16.2743 C   0  0  2  0  0  0  0  0  0  0  0  0
   19.4944   -5.1770  -15.4745 N   0  0  0  0  0  0  0  0  0  0  0  0
   19.4512   -2.8118  -15.4650 C   0  0  0  0  0  0  0  0  0  0  0  0
   19.3328   -2.8526  -14.2055 O   0  0  0  0  0  0  0  0  0  0  0  0
   19.8817   -1.6299  -16.0420 O   0  0  0  0  0  0  0  0  0  0  0  0
  2  1  1  6
  2  3  1  0
  4  2  1  0
  4  5  2  0
  6  4  1  0
  7  6  1  0
  7  8  1  6
  9  8  1  0
  9 10  2  0
 11  7  1  0
 12 11  2  0
 13  9  1  0
 14 15  1  0
 16 15  1  1
 16 17  1  0
 16 18  1  0
 17 11  1  0
 18 19  2  0
 18 20  1  0
M  END
$$$$
