ADS.pdb
     RDKit          3D

 20 19  0  0  1  0  0  0  0  0999 V2000
   14.0457   -9.1679  -14.2919 C   0  0  0  0  0  0  0  0  0  0  0  0
   15.5255   -9.4320  -14.2320 C   0  0  2  0  0  0  0  0  0  0  0  0
   15.8122  -10.5840  -13.4045 N   0  0  0  0  0  0  0  0  0  0  0  0
   16.2233   -8.2534  -13.6357 C   0  0  0  0  0  0  0  0  0  0  0  0
   16.0845   -7.1153  -14.1805 O   0  0  0  0  0  0  0  0  0  0  0  0
   17.0331   -8.3483  -12.4896 N   0  0  0  0  0  0  0  0  0  0  0  0
   17.7422   -7.2035  -11.9878 C   0  0  1  0  0  0  0  0  0  0  0  0
   17.8970   -7.1998  -10.4880 C   0  0  0  0  0  0  0  0  0  0  0  0
   17.6309   -5.9048   -9.8660 C   0  0  0  0  0  0  0  0  0  0  0  0
   17.3167   -4.9175  -10.5636 O   0  0  0  0  0  0  0  0  0  0  0  0
   19.0428   -7.0490  -12.6842 C   0  0  0  0  0  0  0  0  0  0  0  0
   19.8485   -8.0095  -12.7244 O   0  0  0  0  0  0  0  0  0  0  0  0
   17.7191   -5.7394   -8.4992 O   0  0  0  0  0  0  0  0  0  0  0  0
   21.7844   -4.8583  -15.9312 O   0  0  0  0  0  0  0  0  0  0  0  0
   20.5571   -4.9271  -15.2842 C   0  0  0  0  0  0  0  0  0  0  0  0
   20.6592   -5.7988  -14.0505 C   0  0  2  0  0  0  0  0  0  0  0  0
   19.4156   -5.8383  -13.3160 N   0  0  0  0  0  0  0  0  0  0  0  0
   21.6907   -5.2181  -13.1284 C   0  0  0  0  0  0  0  0  0  0  0  0
   22.9017   -5.1835  -13.4952 O   0  0  0  0  0  0  0  0  0  0  0  0
   21.3725   -4.7128  -11.8800 O   0  0  0  0  0  0  0  0  0  0  0  0
  2  1  1  1
  2  3  1  0
  4  2  1  0
  4  5  2  0
  6  4  1  0
  7  6  1  0
  7  8  1  1
  9  8  1  0
  9 10  2  0
 11  7  1  0
 12 11  2  0
 13  9  1  0
 14 15  1  0
 16 15  1  6
 16 17  1  0
 16 18  1  0
 17 11  1  0
 18 19  2  0
 18 20  1  0
M  END
$$$$
