ADS.pdb
     RDKit          3D

 20 19  0  0  1  0  0  0  0  0999 V2000
   18.8643  -11.4557  -18.5365 C   0  0  0  0  0  0  0  0  0  0  0  0
   19.6011  -11.2249  -17.2454 C   0  0  2  0  0  0  0  0  0  0  0  0
   19.1530  -12.1453  -16.2225 N   0  0  0  0  0  0  0  0  0  0  0  0
   19.3417   -9.8365  -16.7592 C   0  0  0  0  0  0  0  0  0  0  0  0
   19.7116   -8.8548  -17.4738 O   0  0  0  0  0  0  0  0  0  0  0  0
   18.7015   -9.5657  -15.5364 N   0  0  0  0  0  0  0  0  0  0  0  0
   18.4416   -8.2148  -15.1205 C   0  0  1  0  0  0  0  0  0  0  0  0
   17.2144   -8.0757  -14.2555 C   0  0  0  0  0  0  0  0  0  0  0  0
   15.9563   -8.2681  -14.9730 C   0  0  0  0  0  0  0  0  0  0  0  0
   15.8304   -7.8743  -16.1516 O   0  0  0  0  0  0  0  0  0  0  0  0
   19.6441   -7.6246  -14.4835 C   0  0  0  0  0  0  0  0  0  0  0  0
   20.4662   -8.3653  -13.8930 O   0  0  0  0  0  0  0  0  0  0  0  0
   14.8801   -8.8866  -14.3707 O   0  0  0  0  0  0  0  0  0  0  0  0
   23.4708   -5.7250  -15.1294 O   0  0  0  0  0  0  0  0  0  0  0  0
   22.2390   -6.3555  -15.2509 C   0  0  0  0  0  0  0  0  0  0  0  0
   21.2504   -5.7771  -14.2607 C   0  0  2  0  0  0  0  0  0  0  0  0
   19.9037   -6.2333  -14.5173 N   0  0  0  0  0  0  0  0  0  0  0  0
   21.2380   -4.2833  -14.4015 C   0  0  0  0  0  0  0  0  0  0  0  0
   20.5591   -3.7533  -15.3290 O   0  0  0  0  0  0  0  0  0  0  0  0
   21.9444   -3.4501  -13.5519 O   0  0  0  0  0  0  0  0  0  0  0  0
  2  1  1  6
  2  3  1  0
  4  2  1  0
  4  5  2  0
  6  4  1  0
  7  6  1  0
  7  8  1  1
  9  8  1  0
  9 10  2  0
 11  7  1  0
 12 11  2  0
 13  9  1  0
 14 15  1  0
 16 15  1  6
 16 17  1  0
 16 18  1  0
 17 11  1  0
 18 19  2  0
 18 20  1  0
M  END
$$$$
