ADS.pdb
     RDKit          3D

 20 19  0  0  1  0  0  0  0  0999 V2000
   20.3054  -12.1115  -17.8010 C   0  0  0  0  0  0  0  0  0  0  0  0
   20.1313  -11.4263  -16.4731 C   0  0  2  0  0  0  0  0  0  0  0  0
   18.8999  -11.8397  -15.8352 N   0  0  0  0  0  0  0  0  0  0  0  0
   20.0700   -9.9474  -16.6741 C   0  0  0  0  0  0  0  0  0  0  0  0
   21.0878   -9.3463  -17.1371 O   0  0  0  0  0  0  0  0  0  0  0  0
   18.9274   -9.1850  -16.3714 N   0  0  0  0  0  0  0  0  0  0  0  0
   18.9187   -7.7598  -16.5556 C   0  0  1  0  0  0  0  0  0  0  0  0
   17.5629   -7.2064  -16.9151 C   0  0  0  0  0  0  0  0  0  0  0  0
   16.9614   -7.8261  -18.0935 C   0  0  0  0  0  0  0  0  0  0  0  0
   17.5460   -7.7936  -19.1967 O   0  0  0  0  0  0  0  0  0  0  0  0
   19.5058   -7.0778  -15.3764 C   0  0  0  0  0  0  0  0  0  0  0  0
   19.0501   -7.3067  -14.2305 O   0  0  0  0  0  0  0  0  0  0  0  0
   15.7382   -8.4599  -18.0190 O   0  0  0  0  0  0  0  0  0  0  0  0
   22.3348   -7.6802  -13.6115 O   0  0  0  0  0  0  0  0  0  0  0  0
   22.5420   -6.3768  -14.0449 C   0  0  0  0  0  0  0  0  0  0  0  0
   21.2174   -5.6862  -14.2917 C   0  0  2  0  0  0  0  0  0  0  0  0
   20.5793   -6.1629  -15.4971 N   0  0  0  0  0  0  0  0  0  0  0  0
   21.4619   -4.2178  -14.4803 C   0  0  0  0  0  0  0  0  0  0  0  0
   21.2392   -3.6919  -15.6098 O   0  0  0  0  0  0  0  0  0  0  0  0
   21.9255   -3.4039  -13.4615 O   0  0  0  0  0  0  0  0  0  0  0  0
  2  1  1  6
  2  3  1  0
  4  2  1  0
  4  5  2  0
  6  4  1  0
  7  6  1  0
  7  8  1  1
  9  8  1  0
  9 10  2  0
 11  7  1  0
 12 11  2  0
 13  9  1  0
 14 15  1  0
 16 15  1  6
 16 17  1  0
 16 18  1  0
 17 11  1  0
 18 19  2  0
 18 20  1  0
M  END
$$$$
