ADS.pdb
     RDKit          3D

 20 19  0  0  1  0  0  0  0  0999 V2000
   20.6952  -10.1360  -15.7909 C   0  0  0  0  0  0  0  0  0  0  0  0
   19.3676   -9.4541  -15.6023 C   0  0  2  0  0  0  0  0  0  0  0  0
   19.1675   -8.4263  -16.6012 N   0  0  0  0  0  0  0  0  0  0  0  0
   19.3225   -8.8032  -14.2586 C   0  0  0  0  0  0  0  0  0  0  0  0
   19.4138   -9.5277  -13.2202 O   0  0  0  0  0  0  0  0  0  0  0  0
   19.1825   -7.4138  -14.0904 N   0  0  0  0  0  0  0  0  0  0  0  0
   19.2582   -6.8149  -12.7862 C   0  0  1  0  0  0  0  0  0  0  0  0
   19.9541   -5.4773  -12.7763 C   0  0  0  0  0  0  0  0  0  0  0  0
   21.4124   -5.5658  -12.7773 C   0  0  0  0  0  0  0  0  0  0  0  0
   21.9879   -6.5768  -12.3227 O   0  0  0  0  0  0  0  0  0  0  0  0
   17.9137   -6.7500  -12.1631 C   0  0  0  0  0  0  0  0  0  0  0  0
   16.9365   -6.3288  -12.8270 O   0  0  0  0  0  0  0  0  0  0  0  0
   22.1880   -4.5404  -13.2779 O   0  0  0  0  0  0  0  0  0  0  0  0
   16.4202   -9.3828   -9.6500 O   0  0  0  0  0  0  0  0  0  0  0  0
   16.1166   -8.1036   -9.2018 C   0  0  0  0  0  0  0  0  0  0  0  0
   16.3408   -7.0911  -10.3050 C   0  0  2  0  0  0  0  0  0  0  0  0
   17.6875   -7.1522  -10.8247 N   0  0  0  0  0  0  0  0  0  0  0  0
   16.1526   -5.7117   -9.7453 C   0  0  0  0  0  0  0  0  0  0  0  0
   15.0405   -5.3983   -9.2286 O   0  0  0  0  0  0  0  0  0  0  0  0
   17.1534   -4.7562   -9.7694 O   0  0  0  0  0  0  0  0  0  0  0  0
  2  1  1  6
  2  3  1  0
  4  2  1  0
  4  5  2  0
  6  4  1  0
  7  6  1  0
  7  8  1  6
  9  8  1  0
  9 10  2  0
 11  7  1  0
 12 11  2  0
 13  9  1  0
 14 15  1  0
 16 15  1  1
 16 17  1  0
 16 18  1  0
 17 11  1  0
 18 19  2  0
 18 20  1  0
M  END
$$$$
