ADS.pdb
     RDKit          3D

 20 19  0  0  1  0  0  0  0  0999 V2000
   17.3794  -11.0588  -14.8116 C   0  0  0  0  0  0  0  0  0  0  0  0
   18.1397  -11.3877  -16.0673 C   0  0  2  0  0  0  0  0  0  0  0  0
   18.9065  -12.6040  -15.9041 N   0  0  0  0  0  0  0  0  0  0  0  0
   19.0938  -10.2823  -16.3820 C   0  0  0  0  0  0  0  0  0  0  0  0
   20.2944  -10.3721  -15.9796 O   0  0  0  0  0  0  0  0  0  0  0  0
   18.7196   -9.1380  -17.1094 N   0  0  0  0  0  0  0  0  0  0  0  0
   19.6513   -8.0673  -17.3352 C   0  0  1  0  0  0  0  0  0  0  0  0
   19.2896   -7.1905  -18.5074 C   0  0  0  0  0  0  0  0  0  0  0  0
   19.2575   -7.8933  -19.7879 C   0  0  0  0  0  0  0  0  0  0  0  0
   18.1754   -8.0799  -20.3832 O   0  0  0  0  0  0  0  0  0  0  0  0
   19.8559   -7.2831  -16.0929 C   0  0  0  0  0  0  0  0  0  0  0  0
   18.8838   -7.0437  -15.3373 O   0  0  0  0  0  0  0  0  0  0  0  0
   20.4153   -8.3667  -20.3700 O   0  0  0  0  0  0  0  0  0  0  0  0
   22.0481   -6.4615  -12.1912 O   0  0  0  0  0  0  0  0  0  0  0  0
   21.9640   -7.0737  -13.4352 C   0  0  0  0  0  0  0  0  0  0  0  0
   21.2728   -6.1615  -14.4264 C   0  0  2  0  0  0  0  0  0  0  0  0
   21.1283   -6.7861  -15.7212 N   0  0  0  0  0  0  0  0  0  0  0  0
   22.1131   -4.9346  -14.6266 C   0  0  0  0  0  0  0  0  0  0  0  0
   22.8218   -4.8315  -15.6702 O   0  0  0  0  0  0  0  0  0  0  0  0
   22.1475   -3.8987  -13.7096 O   0  0  0  0  0  0  0  0  0  0  0  0
  2  1  1  1
  2  3  1  0
  4  2  1  0
  4  5  2  0
  6  4  1  0
  7  6  1  0
  7  8  1  6
  9  8  1  0
  9 10  2  0
 11  7  1  0
 12 11  2  0
 13  9  1  0
 14 15  1  0
 16 15  1  1
 16 17  1  0
 16 18  1  0
 17 11  1  0
 18 19  2  0
 18 20  1  0
M  END
$$$$
