ADS.pdb
     RDKit          3D

 20 19  0  0  1  0  0  0  0  0999 V2000
   19.7374  -11.4630  -16.6806 C   0  0  0  0  0  0  0  0  0  0  0  0
   21.1179  -11.7136  -17.2234 C   0  0  2  0  0  0  0  0  0  0  0  0
   21.6463  -12.9687  -16.7337 N   0  0  0  0  0  0  0  0  0  0  0  0
   22.0384  -10.6239  -16.7802 C   0  0  0  0  0  0  0  0  0  0  0  0
   22.6444  -10.7430  -15.6711 O   0  0  0  0  0  0  0  0  0  0  0  0
   22.2660   -9.4633  -17.5415 N   0  0  0  0  0  0  0  0  0  0  0  0
   23.1847   -8.4529  -17.0939 C   0  0  1  0  0  0  0  0  0  0  0  0
   24.2626   -8.1305  -18.0977 C   0  0  0  0  0  0  0  0  0  0  0  0
   25.2574   -7.1753  -17.6157 C   0  0  0  0  0  0  0  0  0  0  0  0
   25.9225   -6.4900  -18.4208 O   0  0  0  0  0  0  0  0  0  0  0  0
   22.4525   -7.2412  -16.6515 C   0  0  0  0  0  0  0  0  0  0  0  0
   21.5806   -6.7311  -17.3951 O   0  0  0  0  0  0  0  0  0  0  0  0
   25.4870   -7.0060  -16.2659 O   0  0  0  0  0  0  0  0  0  0  0  0
   21.4715   -6.3279  -12.8736 O   0  0  0  0  0  0  0  0  0  0  0  0
   21.9505   -5.2119  -13.5478 C   0  0  0  0  0  0  0  0  0  0  0  0
   21.9416   -5.4545  -15.0423 C   0  0  2  0  0  0  0  0  0  0  0  0
   22.7046   -6.6279  -15.4007 N   0  0  0  0  0  0  0  0  0  0  0  0
   22.5895   -4.2879  -15.7286 C   0  0  0  0  0  0  0  0  0  0  0  0
   22.1348   -3.1229  -15.5338 O   0  0  0  0  0  0  0  0  0  0  0  0
   23.6750   -4.4318  -16.5749 O   0  0  0  0  0  0  0  0  0  0  0  0
  2  1  1  1
  2  3  1  0
  4  2  1  0
  4  5  2  0
  6  4  1  0
  7  6  1  0
  7  8  1  6
  9  8  1  0
  9 10  2  0
 11  7  1  0
 12 11  2  0
 13  9  1  0
 14 15  1  0
 16 15  1  1
 16 17  1  0
 16 18  1  0
 17 11  1  0
 18 19  2  0
 18 20  1  0
M  END
$$$$
