ADS.pdb
     RDKit          3D

 20 19  0  0  1  0  0  0  0  0999 V2000
   17.5367  -12.6258  -16.3025 C   0  0  0  0  0  0  0  0  0  0  0  0
   17.5655  -11.1262  -16.4190 C   0  0  2  0  0  0  0  0  0  0  0  0
   17.3871  -10.7107  -17.7937 N   0  0  0  0  0  0  0  0  0  0  0  0
   18.8871  -10.6104  -15.9515 C   0  0  0  0  0  0  0  0  0  0  0  0
   19.1593  -10.6482  -14.7122 O   0  0  0  0  0  0  0  0  0  0  0  0
   19.8508  -10.0808  -16.8286 N   0  0  0  0  0  0  0  0  0  0  0  0
   21.0540   -9.4752  -16.3277 C   0  0  1  0  0  0  0  0  0  0  0  0
   22.2949   -9.8895  -17.0774 C   0  0  0  0  0  0  0  0  0  0  0  0
   23.5343   -9.3583  -16.5151 C   0  0  0  0  0  0  0  0  0  0  0  0
   23.8704   -8.1736  -16.7239 O   0  0  0  0  0  0  0  0  0  0  0  0
   20.9073   -8.0007  -16.2615 C   0  0  0  0  0  0  0  0  0  0  0  0
   20.5695   -7.3593  -17.2850 O   0  0  0  0  0  0  0  0  0  0  0  0
   24.3617  -10.1473  -15.7427 O   0  0  0  0  0  0  0  0  0  0  0  0
   19.4226   -4.0704  -14.6342 O   0  0  0  0  0  0  0  0  0  0  0  0
   19.5584   -5.4529  -14.6386 C   0  0  0  0  0  0  0  0  0  0  0  0
   20.9522   -5.8446  -15.0816 C   0  0  2  0  0  0  0  0  0  0  0  0
   21.1380   -7.2774  -15.0666 N   0  0  0  0  0  0  0  0  0  0  0  0
   21.9488   -5.2666  -14.1202 C   0  0  0  0  0  0  0  0  0  0  0  0
   22.6891   -6.0454  -13.4512 O   0  0  0  0  0  0  0  0  0  0  0  0
   22.0958   -3.9037  -13.9308 O   0  0  0  0  0  0  0  0  0  0  0  0
  2  1  1  6
  2  3  1  0
  4  2  1  0
  4  5  2  0
  6  4  1  0
  7  6  1  0
  7  8  1  6
  9  8  1  0
  9 10  2  0
 11  7  1  0
 12 11  2  0
 13  9  1  0
 14 15  1  0
 16 15  1  1
 16 17  1  0
 16 18  1  0
 17 11  1  0
 18 19  2  0
 18 20  1  0
M  END
$$$$
