ADS.pdb
     RDKit          3D

 20 19  0  0  1  0  0  0  0  0999 V2000
   17.2941  -12.0659  -15.0778 C   0  0  0  0  0  0  0  0  0  0  0  0
   17.0787  -10.5829  -15.2091 C   0  0  2  0  0  0  0  0  0  0  0  0
   16.5061  -10.2554  -16.4971 N   0  0  0  0  0  0  0  0  0  0  0  0
   18.3875   -9.8721  -15.0945 C   0  0  0  0  0  0  0  0  0  0  0  0
   18.9935   -9.8740  -13.9790 O   0  0  0  0  0  0  0  0  0  0  0  0
   18.9833   -9.1959  -16.1744 N   0  0  0  0  0  0  0  0  0  0  0  0
   20.2867   -8.6038  -16.0483 C   0  0  1  0  0  0  0  0  0  0  0  0
   21.1735   -8.8375  -17.2452 C   0  0  0  0  0  0  0  0  0  0  0  0
   21.7991  -10.1575  -17.2730 C   0  0  0  0  0  0  0  0  0  0  0  0
   21.4698  -10.9987  -18.1356 O   0  0  0  0  0  0  0  0  0  0  0  0
   20.1752   -7.1644  -15.7080 C   0  0  0  0  0  0  0  0  0  0  0  0
   19.2553   -6.4732  -16.2074 O   0  0  0  0  0  0  0  0  0  0  0  0
   22.7648  -10.5077  -16.3520 O   0  0  0  0  0  0  0  0  0  0  0  0
   22.6913   -5.1563  -12.9623 O   0  0  0  0  0  0  0  0  0  0  0  0
   21.3554   -4.8045  -13.1070 C   0  0  0  0  0  0  0  0  0  0  0  0
   20.8702   -5.1383  -14.5019 C   0  0  2  0  0  0  0  0  0  0  0  0
   21.0829   -6.5302  -14.8260 N   0  0  0  0  0  0  0  0  0  0  0  0
   21.6565   -4.3351  -15.4958 C   0  0  0  0  0  0  0  0  0  0  0  0
   22.4127   -4.9322  -16.3166 O   0  0  0  0  0  0  0  0  0  0  0  0
   21.5904   -2.9540  -15.5552 O   0  0  0  0  0  0  0  0  0  0  0  0
  2  1  1  6
  2  3  1  0
  4  2  1  0
  4  5  2  0
  6  4  1  0
  7  6  1  0
  7  8  1  6
  9  8  1  0
  9 10  2  0
 11  7  1  0
 12 11  2  0
 13  9  1  0
 14 15  1  0
 16 15  1  1
 16 17  1  0
 16 18  1  0
 17 11  1  0
 18 19  2  0
 18 20  1  0
M  END
$$$$
