ADS.pdb
     RDKit          3D

 20 19  0  0  1  0  0  0  0  0999 V2000
   15.4735  -11.5638  -15.3871 C   0  0  0  0  0  0  0  0  0  0  0  0
   15.0127  -10.1503  -15.1574 C   0  0  2  0  0  0  0  0  0  0  0  0
   15.1076   -9.3712  -16.3732 N   0  0  0  0  0  0  0  0  0  0  0  0
   15.8772   -9.5003  -14.1271 C   0  0  0  0  0  0  0  0  0  0  0  0
   15.8831   -9.9654  -12.9460 O   0  0  0  0  0  0  0  0  0  0  0  0
   16.6910   -8.3880  -14.4084 N   0  0  0  0  0  0  0  0  0  0  0  0
   17.5277   -7.8079  -13.3941 C   0  0  1  0  0  0  0  0  0  0  0  0
   18.8477   -7.3014  -13.9182 C   0  0  0  0  0  0  0  0  0  0  0  0
   19.7305   -8.3518  -14.4200 C   0  0  0  0  0  0  0  0  0  0  0  0
   20.3067   -9.1288  -13.6298 O   0  0  0  0  0  0  0  0  0  0  0  0
   16.7883   -6.7654  -12.6414 C   0  0  0  0  0  0  0  0  0  0  0  0
   16.0016   -5.9975  -13.2453 O   0  0  0  0  0  0  0  0  0  0  0  0
   19.9498   -8.5122  -15.7726 O   0  0  0  0  0  0  0  0  0  0  0  0
   17.4266   -6.0953   -8.6220 O   0  0  0  0  0  0  0  0  0  0  0  0
   16.1666   -5.7368   -9.0840 C   0  0  0  0  0  0  0  0  0  0  0  0
   16.1877   -5.5561  -10.5871 C   0  0  2  0  0  0  0  0  0  0  0  0
   16.9392   -6.6012  -11.2434 N   0  0  0  0  0  0  0  0  0  0  0  0
   16.8701   -4.2599  -10.9120 C   0  0  0  0  0  0  0  0  0  0  0  0
   17.9106   -4.2702  -11.6327 O   0  0  0  0  0  0  0  0  0  0  0  0
   16.4064   -3.0395  -10.4529 O   0  0  0  0  0  0  0  0  0  0  0  0
  2  1  1  6
  2  3  1  0
  4  2  1  0
  4  5  2  0
  6  4  1  0
  7  6  1  0
  7  8  1  6
  9  8  1  0
  9 10  2  0
 11  7  1  0
 12 11  2  0
 13  9  1  0
 14 15  1  0
 16 15  1  1
 16 17  1  0
 16 18  1  0
 17 11  1  0
 18 19  2  0
 18 20  1  0
M  END
$$$$
