ADS.pdb
     RDKit          3D

 20 19  0  0  1  0  0  0  0  0999 V2000
   17.0597  -11.1233  -14.0900 C   0  0  0  0  0  0  0  0  0  0  0  0
   17.2807  -11.2920  -15.5685 C   0  0  2  0  0  0  0  0  0  0  0  0
   17.7109  -12.6389  -15.8767 N   0  0  0  0  0  0  0  0  0  0  0  0
   18.3475  -10.3529  -16.0283 C   0  0  0  0  0  0  0  0  0  0  0  0
   19.5605  -10.7222  -15.9683 O   0  0  0  0  0  0  0  0  0  0  0  0
   18.0668   -9.0685  -16.5283 N   0  0  0  0  0  0  0  0  0  0  0  0
   19.1263   -8.1637  -16.8804 C   0  0  1  0  0  0  0  0  0  0  0  0
   18.9055   -7.4588  -18.1949 C   0  0  0  0  0  0  0  0  0  0  0  0
   20.0044   -6.5811  -18.5908 C   0  0  0  0  0  0  0  0  0  0  0  0
   21.1894   -6.9641  -18.4956 O   0  0  0  0  0  0  0  0  0  0  0  0
   19.3891   -7.2121  -15.7733 C   0  0  0  0  0  0  0  0  0  0  0  0
   18.4361   -6.7751  -15.0848 O   0  0  0  0  0  0  0  0  0  0  0  0
   19.7632   -5.3129  -19.0775 O   0  0  0  0  0  0  0  0  0  0  0  0
   22.3659   -5.2616  -12.5701 O   0  0  0  0  0  0  0  0  0  0  0  0
   22.2558   -6.0440  -13.7126 C   0  0  0  0  0  0  0  0  0  0  0  0
   20.8754   -5.9019  -14.3182 C   0  0  2  0  0  0  0  0  0  0  0  0
   20.6970   -6.7708  -15.4587 N   0  0  0  0  0  0  0  0  0  0  0  0
   20.7030   -4.4954  -14.8117 C   0  0  0  0  0  0  0  0  0  0  0  0
   21.1326   -4.1841  -15.9609 O   0  0  0  0  0  0  0  0  0  0  0  0
   20.0876   -3.5123  -14.0568 O   0  0  0  0  0  0  0  0  0  0  0  0
  2  1  1  1
  2  3  1  0
  4  2  1  0
  4  5  2  0
  6  4  1  0
  7  6  1  0
  7  8  1  6
  9  8  1  0
  9 10  2  0
 11  7  1  0
 12 11  2  0
 13  9  1  0
 14 15  1  0
 16 15  1  6
 16 17  1  0
 16 18  1  0
 17 11  1  0
 18 19  2  0
 18 20  1  0
M  END
$$$$
