ADS.pdb
     RDKit          3D

 20 19  0  0  1  0  0  0  0  0999 V2000
   20.1055  -12.7248  -18.8570 C   0  0  0  0  0  0  0  0  0  0  0  0
   21.1833  -11.7481  -18.4727 C   0  0  2  0  0  0  0  0  0  0  0  0
   22.0180  -12.2866  -17.4204 N   0  0  0  0  0  0  0  0  0  0  0  0
   20.5626  -10.4872  -17.9665 C   0  0  0  0  0  0  0  0  0  0  0  0
   19.8419   -9.7974  -18.7515 O   0  0  0  0  0  0  0  0  0  0  0  0
   20.7419  -10.0262  -16.6497 N   0  0  0  0  0  0  0  0  0  0  0  0
   20.1298   -8.8049  -16.2036 C   0  0  1  0  0  0  0  0  0  0  0  0
   19.0495   -9.0133  -15.1726 C   0  0  0  0  0  0  0  0  0  0  0  0
   18.4403   -7.7756  -14.6912 C   0  0  0  0  0  0  0  0  0  0  0  0
   18.6805   -7.3552  -13.5399 O   0  0  0  0  0  0  0  0  0  0  0  0
   21.1607   -7.8416  -15.7459 C   0  0  0  0  0  0  0  0  0  0  0  0
   22.0349   -8.2052  -14.9231 O   0  0  0  0  0  0  0  0  0  0  0  0
   17.5884   -7.0427  -15.4915 O   0  0  0  0  0  0  0  0  0  0  0  0
   23.4427   -3.6132  -16.1362 O   0  0  0  0  0  0  0  0  0  0  0  0
   22.3967   -4.4031  -16.5962 C   0  0  0  0  0  0  0  0  0  0  0  0
   22.2471   -5.6365  -15.7309 C   0  0  2  0  0  0  0  0  0  0  0  0
   21.1963   -6.5047  -16.2101 N   0  0  0  0  0  0  0  0  0  0  0  0
   21.8633   -5.2140  -14.3433 C   0  0  0  0  0  0  0  0  0  0  0  0
   20.6690   -4.8669  -14.1085 O   0  0  0  0  0  0  0  0  0  0  0  0
   22.7685   -5.1867  -13.2968 O   0  0  0  0  0  0  0  0  0  0  0  0
  2  1  1  1
  2  3  1  0
  4  2  1  0
  4  5  2  0
  6  4  1  0
  7  6  1  0
  7  8  1  1
  9  8  1  0
  9 10  2  0
 11  7  1  0
 12 11  2  0
 13  9  1  0
 14 15  1  0
 16 15  1  6
 16 17  1  0
 16 18  1  0
 17 11  1  0
 18 19  2  0
 18 20  1  0
M  END
$$$$
