DDV.pdb
     RDKit          3D

 24 23  0  0  1  0  0  0  0  0999 V2000
   14.9760  -11.1253  -16.6101 N   0  0  0  0  0  0  0  0  0  0  0  0
   15.8484  -10.8539  -15.5002 C   0  0  1  0  0  0  0  0  0  0  0  0
   16.7005  -12.0629  -15.2023 C   0  0  0  0  0  0  0  0  0  0  0  0
   15.9673  -13.1194  -14.5018 C   0  0  0  0  0  0  0  0  0  0  0  0
   14.7109  -13.0667  -14.5011 O   0  0  0  0  0  0  0  0  0  0  0  0
   16.6808   -9.6383  -15.7280 C   0  0  0  0  0  0  0  0  0  0  0  0
   17.4795   -9.5595  -16.6967 O   0  0  0  0  0  0  0  0  0  0  0  0
   16.5565  -14.1820  -13.8337 O   0  0  0  0  0  0  0  0  0  0  0  0
   16.6210   -8.5050  -14.8696 N   0  0  0  0  0  0  0  0  0  0  0  0
   17.4437   -7.3446  -15.0314 C   0  0  1  0  0  0  0  0  0  0  0  0
   16.7401   -6.0440  -14.7200 C   0  0  0  0  0  0  0  0  0  0  0  0
   17.5491   -4.8503  -14.9543 C   0  0  0  0  0  0  0  0  0  0  0  0
   17.5755   -3.9429  -14.0907 O   0  0  0  0  0  0  0  0  0  0  0  0
   18.6818   -7.3840  -14.2184 C   0  0  0  0  0  0  0  0  0  0  0  0
   18.5860   -7.5920  -12.9890 O   0  0  0  0  0  0  0  0  0  0  0  0
   18.2983   -4.6745  -16.1041 O   0  0  0  0  0  0  0  0  0  0  0  0
   23.3313   -8.4674  -13.7051 C   0  0  0  0  0  0  0  0  0  0  0  0
   22.1236   -8.3160  -14.5931 C   0  0  2  0  0  0  0  0  0  0  0  0
   22.5232   -7.6497  -15.9126 C   0  0  0  0  0  0  0  0  0  0  0  0
   21.1844   -7.3395  -13.9051 C   0  0  2  0  0  0  0  0  0  0  0  0
   19.9835   -7.2014  -14.7360 N   0  0  0  0  0  0  0  0  0  0  0  0
   21.8162   -5.9854  -13.8204 C   0  0  0  0  0  0  0  0  0  0  0  0
   22.7022   -5.6551  -12.8046 O   0  0  0  0  0  0  0  0  0  0  0  0
   21.5729   -5.0840  -14.6666 O   0  0  0  0  0  0  0  0  0  0  0  0
  2  1  1  6
  3  4  1  0
  3  2  1  0
  4  8  1  0
  5  4  2  0
  6  2  1  0
  7  6  2  0
  9  6  1  0
 10 14  1  0
 10  9  1  0
 10 11  1  1
 12 11  1  0
 13 12  2  0
 14 21  1  0
 15 14  2  0
 16 12  1  0
 18 20  1  0
 18 17  1  1
 19 18  1  0
 20 22  1  0
 20 21  1  6
 22 24  2  0
 22 23  1  0
M  END
$$$$
