DDV.pdb
     RDKit          3D

 24 23  0  0  1  0  0  0  0  0999 V2000
   18.5743  -14.3381  -17.5758 N   0  0  0  0  0  0  0  0  0  0  0  0
   18.0215  -13.0758  -17.1665 C   0  0  1  0  0  0  0  0  0  0  0  0
   17.3914  -13.2035  -15.8015 C   0  0  0  0  0  0  0  0  0  0  0  0
   16.1609  -13.9973  -15.8128 C   0  0  0  0  0  0  0  0  0  0  0  0
   15.2632  -13.6851  -16.6361 O   0  0  0  0  0  0  0  0  0  0  0  0
   19.0354  -11.9834  -17.2031 C   0  0  0  0  0  0  0  0  0  0  0  0
   20.2203  -12.1724  -16.8255 O   0  0  0  0  0  0  0  0  0  0  0  0
   15.9074  -15.0756  -14.9788 O   0  0  0  0  0  0  0  0  0  0  0  0
   18.7243  -10.6735  -17.6636 N   0  0  0  0  0  0  0  0  0  0  0  0
   19.6907   -9.6233  -17.7764 C   0  0  1  0  0  0  0  0  0  0  0  0
   19.2537   -8.4782  -18.6602 C   0  0  0  0  0  0  0  0  0  0  0  0
   20.2544   -7.4261  -18.8219 C   0  0  0  0  0  0  0  0  0  0  0  0
   19.8971   -6.2254  -18.8004 O   0  0  0  0  0  0  0  0  0  0  0  0
   20.0884   -9.0479  -16.4702 C   0  0  0  0  0  0  0  0  0  0  0  0
   19.1926   -8.7133  -15.6643 O   0  0  0  0  0  0  0  0  0  0  0  0
   21.5987   -7.7005  -19.0002 O   0  0  0  0  0  0  0  0  0  0  0  0
   23.9428   -9.2707  -15.2714 C   0  0  0  0  0  0  0  0  0  0  0  0
   22.9113   -9.1548  -14.1792 C   0  0  2  0  0  0  0  0  0  0  0  0
   22.3141  -10.5313  -13.8738 C   0  0  0  0  0  0  0  0  0  0  0  0
   21.7675   -8.3220  -14.7333 C   0  0  2  0  0  0  0  0  0  0  0  0
   21.4250   -8.8455  -16.0601 N   0  0  0  0  0  0  0  0  0  0  0  0
   22.2039   -6.9028  -14.9220 C   0  0  0  0  0  0  0  0  0  0  0  0
   22.4205   -6.0560  -13.8443 O   0  0  0  0  0  0  0  0  0  0  0  0
   22.3945   -6.4125  -16.0670 O   0  0  0  0  0  0  0  0  0  0  0  0
  2  1  1  1
  3  4  1  0
  3  2  1  0
  4  8  1  0
  5  4  2  0
  6  2  1  0
  7  6  2  0
  9  6  1  0
 10 14  1  0
 10  9  1  0
 10 11  1  6
 12 11  1  0
 13 12  2  0
 14 21  1  0
 15 14  2  0
 16 12  1  0
 18 20  1  0
 18 17  1  6
 19 18  1  0
 20 22  1  0
 20 21  1  6
 22 24  2  0
 22 23  1  0
M  END
$$$$
