DDV.pdb
     RDKit          3D

 24 23  0  0  1  0  0  0  0  0999 V2000
   20.7907   -6.3254  -17.3366 N   0  0  0  0  0  0  0  0  0  0  0  0
   21.2481   -6.8815  -16.0924 C   0  0  1  0  0  0  0  0  0  0  0  0
   20.0859   -7.0660  -15.1481 C   0  0  0  0  0  0  0  0  0  0  0  0
   19.3629   -5.8206  -14.8825 C   0  0  0  0  0  0  0  0  0  0  0  0
   20.0355   -4.7747  -14.6950 O   0  0  0  0  0  0  0  0  0  0  0  0
   22.0007   -8.1529  -16.2916 C   0  0  0  0  0  0  0  0  0  0  0  0
   22.4813   -8.7924  -15.3208 O   0  0  0  0  0  0  0  0  0  0  0  0
   17.9825   -5.7046  -14.8213 O   0  0  0  0  0  0  0  0  0  0  0  0
   22.2175   -8.7129  -17.5816 N   0  0  0  0  0  0  0  0  0  0  0  0
   22.8727   -9.9669  -17.8008 C   0  0  1  0  0  0  0  0  0  0  0  0
   22.2619  -10.7944  -18.9079 C   0  0  0  0  0  0  0  0  0  0  0  0
   22.9052  -12.0893  -19.1172 C   0  0  0  0  0  0  0  0  0  0  0  0
   23.2183  -12.7904  -18.1272 O   0  0  0  0  0  0  0  0  0  0  0  0
   24.3184   -9.8309  -18.0955 C   0  0  0  0  0  0  0  0  0  0  0  0
   24.6886   -8.9308  -18.8808 O   0  0  0  0  0  0  0  0  0  0  0  0
   23.1881  -12.5830  -20.3782 O   0  0  0  0  0  0  0  0  0  0  0  0
   27.1850  -12.2246  -16.2189 C   0  0  0  0  0  0  0  0  0  0  0  0
   27.5087  -10.7833  -16.5157 C   0  0  2  0  0  0  0  0  0  0  0  0
   26.9469   -9.8820  -15.4126 C   0  0  0  0  0  0  0  0  0  0  0  0
   26.7536  -10.4083  -17.7799 C   0  0  2  0  0  0  0  0  0  0  0  0
   25.3264  -10.6549  -17.5472 N   0  0  0  0  0  0  0  0  0  0  0  0
   27.1711  -11.2914  -18.9139 C   0  0  0  0  0  0  0  0  0  0  0  0
   28.3507  -11.0750  -19.6119 O   0  0  0  0  0  0  0  0  0  0  0  0
   26.4713  -12.2708  -19.2864 O   0  0  0  0  0  0  0  0  0  0  0  0
  2  1  1  6
  3  4  1  0
  3  2  1  0
  4  8  1  0
  5  4  2  0
  6  2  1  0
  7  6  2  0
  9  6  1  0
 10 14  1  0
 10  9  1  0
 10 11  1  6
 12 11  1  0
 13 12  2  0
 14 21  1  0
 15 14  2  0
 16 12  1  0
 18 20  1  0
 18 17  1  1
 19 18  1  0
 20 22  1  0
 20 21  1  1
 22 24  2  0
 22 23  1  0
M  END
$$$$
