DDV.pdb
     RDKit          3D

 24 23  0  0  1  0  0  0  0  0999 V2000
   16.1778  -11.2866  -16.9880 N   0  0  0  0  0  0  0  0  0  0  0  0
   16.2269  -10.3926  -15.8633 C   0  0  1  0  0  0  0  0  0  0  0  0
   16.4550  -11.1713  -14.5912 C   0  0  0  0  0  0  0  0  0  0  0  0
   15.3502  -12.0775  -14.2707 C   0  0  0  0  0  0  0  0  0  0  0  0
   15.6316  -13.2135  -13.8105 O   0  0  0  0  0  0  0  0  0  0  0  0
   17.2501   -9.3235  -16.0434 C   0  0  0  0  0  0  0  0  0  0  0  0
   18.3566   -9.5575  -16.5941 O   0  0  0  0  0  0  0  0  0  0  0  0
   14.0068  -11.7772  -14.4371 O   0  0  0  0  0  0  0  0  0  0  0  0
   17.0366   -7.9864  -15.6061 N   0  0  0  0  0  0  0  0  0  0  0  0
   17.9828   -6.9294  -15.7988 C   0  0  1  0  0  0  0  0  0  0  0  0
   17.3531   -5.5783  -16.0468 C   0  0  0  0  0  0  0  0  0  0  0  0
   18.3069   -4.5184  -16.3650 C   0  0  0  0  0  0  0  0  0  0  0  0
   18.0059   -3.3254  -16.1285 O   0  0  0  0  0  0  0  0  0  0  0  0
   18.9302   -6.7759  -14.6700 C   0  0  0  0  0  0  0  0  0  0  0  0
   18.4717   -6.6794  -13.5106 O   0  0  0  0  0  0  0  0  0  0  0  0
   19.5457   -4.7771  -16.9241 O   0  0  0  0  0  0  0  0  0  0  0  0
   22.9577   -7.4300  -15.2194 C   0  0  0  0  0  0  0  0  0  0  0  0
   22.3219   -7.7606  -13.8940 C   0  0  2  0  0  0  0  0  0  0  0  0
   21.5998   -9.1081  -13.9805 C   0  0  0  0  0  0  0  0  0  0  0  0
   21.2368   -6.7254  -13.6499 C   0  0  2  0  0  0  0  0  0  0  0  0
   20.3355   -6.7297  -14.8072 N   0  0  0  0  0  0  0  0  0  0  0  0
   21.8360   -5.3564  -13.5669 C   0  0  0  0  0  0  0  0  0  0  0  0
   22.5235   -4.9272  -12.4405 O   0  0  0  0  0  0  0  0  0  0  0  0
   21.7437   -4.5316  -14.5150 O   0  0  0  0  0  0  0  0  0  0  0  0
  2  1  1  6
  3  4  1  0
  3  2  1  0
  4  8  1  0
  5  4  2  0
  6  2  1  0
  7  6  2  0
  9  6  1  0
 10 14  1  0
 10  9  1  0
 10 11  1  1
 12 11  1  0
 13 12  2  0
 14 21  1  0
 15 14  2  0
 16 12  1  0
 18 20  1  0
 18 17  1  6
 19 18  1  0
 20 22  1  0
 20 21  1  6
 22 24  2  0
 22 23  1  0
M  END
$$$$
