DDV.pdb
     RDKit          3D

 24 23  0  0  1  0  0  0  0  0999 V2000
   19.8537  -20.5460  -16.6540 N   0  0  0  0  0  0  0  0  0  0  0  0
   20.6467  -19.4697  -16.1255 C   0  0  1  0  0  0  0  0  0  0  0  0
   20.0440  -18.9651  -14.8375 C   0  0  0  0  0  0  0  0  0  0  0  0
   18.7404  -18.3262  -15.0290 C   0  0  0  0  0  0  0  0  0  0  0  0
   18.5435  -17.6930  -16.0975 O   0  0  0  0  0  0  0  0  0  0  0  0
   22.0738  -19.8623  -15.9470 C   0  0  0  0  0  0  0  0  0  0  0  0
   22.3950  -20.9249  -15.3554 O   0  0  0  0  0  0  0  0  0  0  0  0
   17.6980  -18.3658  -14.1156 O   0  0  0  0  0  0  0  0  0  0  0  0
   23.1474  -19.0641  -16.4316 N   0  0  0  0  0  0  0  0  0  0  0  0
   24.5272  -19.4101  -16.2703 C   0  0  1  0  0  0  0  0  0  0  0  0
   25.4679  -18.6071  -17.1384 C   0  0  0  0  0  0  0  0  0  0  0  0
   26.8170  -19.1593  -17.2360 C   0  0  0  0  0  0  0  0  0  0  0  0
   27.0987  -20.2136  -16.6205 O   0  0  0  0  0  0  0  0  0  0  0  0
   25.0035  -19.2903  -14.8723 C   0  0  0  0  0  0  0  0  0  0  0  0
   24.9843  -18.1654  -14.3263 O   0  0  0  0  0  0  0  0  0  0  0  0
   27.8118  -18.5612  -17.9887 O   0  0  0  0  0  0  0  0  0  0  0  0
   25.5494  -22.5208  -12.2856 C   0  0  0  0  0  0  0  0  0  0  0  0
   25.2958  -21.1151  -11.8062 C   0  0  2  0  0  0  0  0  0  0  0  0
   23.8118  -20.7693  -11.9573 C   0  0  0  0  0  0  0  0  0  0  0  0
   26.0354  -20.1822  -12.7504 C   0  0  2  0  0  0  0  0  0  0  0  0
   25.4854  -20.3686  -14.0974 N   0  0  0  0  0  0  0  0  0  0  0  0
   27.4844  -20.5517  -12.8143 C   0  0  0  0  0  0  0  0  0  0  0  0
   28.0433  -21.1220  -13.9492 O   0  0  0  0  0  0  0  0  0  0  0  0
   28.2624  -20.3621  -11.8414 O   0  0  0  0  0  0  0  0  0  0  0  0
  2  1  1  1
  3  4  1  0
  3  2  1  0
  4  8  1  0
  5  4  2  0
  6  2  1  0
  7  6  2  0
  9  6  1  0
 10 14  1  0
 10  9  1  0
 10 11  1  6
 12 11  1  0
 13 12  2  0
 14 21  1  0
 15 14  2  0
 16 12  1  0
 18 20  1  0
 18 17  1  6
 19 18  1  0
 20 22  1  0
 20 21  1  6
 22 24  2  0
 22 23  1  0
M  END
$$$$
