DDV.pdb
     RDKit          3D

 24 23  0  0  1  0  0  0  0  0999 V2000
   14.7413  -13.1431  -13.3312 N   0  0  0  0  0  0  0  0  0  0  0  0
   14.0805  -11.9215  -12.9603 C   0  0  1  0  0  0  0  0  0  0  0  0
   12.9366  -12.2150  -12.0210 C   0  0  0  0  0  0  0  0  0  0  0  0
   11.9557  -13.1424  -12.5884 C   0  0  0  0  0  0  0  0  0  0  0  0
   11.4010  -12.8266  -13.6720 O   0  0  0  0  0  0  0  0  0  0  0  0
   15.0277  -10.9283  -12.3782 C   0  0  0  0  0  0  0  0  0  0  0  0
   15.8336  -11.2439  -11.4654 O   0  0  0  0  0  0  0  0  0  0  0  0
   11.5883  -14.3519  -12.0185 O   0  0  0  0  0  0  0  0  0  0  0  0
   15.0750   -9.5758  -12.8178 N   0  0  0  0  0  0  0  0  0  0  0  0
   15.9485   -8.5904  -12.2560 C   0  0  1  0  0  0  0  0  0  0  0  0
   16.8550   -7.9253  -13.2656 C   0  0  0  0  0  0  0  0  0  0  0  0
   17.7539   -6.9224  -12.6994 C   0  0  0  0  0  0  0  0  0  0  0  0
   17.7260   -5.7495  -13.1391 O   0  0  0  0  0  0  0  0  0  0  0  0
   15.2322   -7.5165  -11.5286 C   0  0  0  0  0  0  0  0  0  0  0  0
   14.4236   -6.8008  -12.1593 O   0  0  0  0  0  0  0  0  0  0  0  0
   18.6477   -7.2143  -11.6844 O   0  0  0  0  0  0  0  0  0  0  0  0
   15.5113   -7.2055   -7.4630 C   0  0  0  0  0  0  0  0  0  0  0  0
   14.2864   -6.6041   -8.1018 C   0  0  2  0  0  0  0  0  0  0  0  0
   13.2256   -7.6860   -8.3229 C   0  0  0  0  0  0  0  0  0  0  0  0
   14.6924   -6.1343   -9.4887 C   0  0  2  0  0  0  0  0  0  0  0  0
   15.3967   -7.2357  -10.1539 N   0  0  0  0  0  0  0  0  0  0  0  0
   15.6578   -4.9950   -9.3877 C   0  0  0  0  0  0  0  0  0  0  0  0
   15.2593   -3.7357   -8.9623 O   0  0  0  0  0  0  0  0  0  0  0  0
   16.8753   -5.1269   -9.6841 O   0  0  0  0  0  0  0  0  0  0  0  0
  2  1  1  1
  3  4  1  0
  3  2  1  0
  4  8  1  0
  5  4  2  0
  6  2  1  0
  7  6  2  0
  9  6  1  0
 10 14  1  0
 10  9  1  0
 10 11  1  6
 12 11  1  0
 13 12  2  0
 14 21  1  0
 15 14  2  0
 16 12  1  0
 18 20  1  0
 18 17  1  6
 19 18  1  0
 20 22  1  0
 20 21  1  1
 22 24  2  0
 22 23  1  0
M  END
$$$$
