DDV.pdb
     RDKit          3D

 24 23  0  0  1  0  0  0  0  0999 V2000
   16.2670  -11.4825  -16.9448 N   0  0  0  0  0  0  0  0  0  0  0  0
   16.7445  -10.9347  -15.7044 C   0  0  1  0  0  0  0  0  0  0  0  0
   17.5670  -11.9619  -14.9662 C   0  0  0  0  0  0  0  0  0  0  0  0
   16.7817  -13.1211  -14.5375 C   0  0  0  0  0  0  0  0  0  0  0  0
   15.5389  -12.9786  -14.4089 O   0  0  0  0  0  0  0  0  0  0  0  0
   17.5031   -9.6676  -15.9084 C   0  0  0  0  0  0  0  0  0  0  0  0
   18.4182   -9.5792  -16.7670 O   0  0  0  0  0  0  0  0  0  0  0  0
   17.3071  -14.3740  -14.2601 O   0  0  0  0  0  0  0  0  0  0  0  0
   17.2383   -8.4934  -15.1495 N   0  0  0  0  0  0  0  0  0  0  0  0
   17.9581   -7.2665  -15.3116 C   0  0  1  0  0  0  0  0  0  0  0  0
   17.0918   -6.0308  -15.2352 C   0  0  0  0  0  0  0  0  0  0  0  0
   17.7988   -4.7816  -15.5075 C   0  0  0  0  0  0  0  0  0  0  0  0
   17.5575   -3.7705  -14.8081 O   0  0  0  0  0  0  0  0  0  0  0  0
   19.0584   -7.0972  -14.3338 C   0  0  0  0  0  0  0  0  0  0  0  0
   18.7842   -7.1106  -13.1137 O   0  0  0  0  0  0  0  0  0  0  0  0
   18.7365   -4.6637  -16.5179 O   0  0  0  0  0  0  0  0  0  0  0  0
   22.9533   -7.1793  -15.6223 C   0  0  0  0  0  0  0  0  0  0  0  0
   22.6399   -7.7733  -14.2735 C   0  0  2  0  0  0  0  0  0  0  0  0
   22.1046   -9.1982  -14.4397 C   0  0  0  0  0  0  0  0  0  0  0  0
   21.4931   -6.9670  -13.6872 C   0  0  2  0  0  0  0  0  0  0  0  0
   20.4159   -6.9190  -14.6816 N   0  0  0  0  0  0  0  0  0  0  0  0
   21.9250   -5.5552  -13.4412 C   0  0  0  0  0  0  0  0  0  0  0  0
   22.7624   -5.2210  -12.3863 O   0  0  0  0  0  0  0  0  0  0  0  0
   21.5484   -4.6064  -14.1799 O   0  0  0  0  0  0  0  0  0  0  0  0
  2  1  1  6
  3  4  1  0
  3  2  1  0
  4  8  1  0
  5  4  2  0
  6  2  1  0
  7  6  2  0
  9  6  1  0
 10 14  1  0
 10  9  1  0
 10 11  1  1
 12 11  1  0
 13 12  2  0
 14 21  1  0
 15 14  2  0
 16 12  1  0
 18 20  1  0
 18 17  1  6
 19 18  1  0
 20 22  1  0
 20 21  1  6
 22 24  2  0
 22 23  1  0
M  END
$$$$
