DDV.pdb
     RDKit          3D

 24 23  0  0  1  0  0  0  0  0999 V2000
   16.3936  -13.7354  -14.5497 N   0  0  0  0  0  0  0  0  0  0  0  0
   15.5537  -12.6009  -14.2772 C   0  0  1  0  0  0  0  0  0  0  0  0
   14.2904  -13.0456  -13.5823 C   0  0  0  0  0  0  0  0  0  0  0  0
   13.4856  -13.9621  -14.3925 C   0  0  0  0  0  0  0  0  0  0  0  0
   13.2724  -13.6577  -15.5939 O   0  0  0  0  0  0  0  0  0  0  0  0
   16.2688  -11.5508  -13.4972 C   0  0  0  0  0  0  0  0  0  0  0  0
   16.8934  -11.8265  -12.4407 O   0  0  0  0  0  0  0  0  0  0  0  0
   12.9358  -15.1494  -13.9335 O   0  0  0  0  0  0  0  0  0  0  0  0
   16.2862  -10.1859  -13.8991 N   0  0  0  0  0  0  0  0  0  0  0  0
   16.9832   -9.1590  -13.1855 C   0  0  1  0  0  0  0  0  0  0  0  0
   18.0029   -8.4161  -14.0173 C   0  0  0  0  0  0  0  0  0  0  0  0
   18.6635   -7.3158  -13.3191 C   0  0  0  0  0  0  0  0  0  0  0  0
   18.5496   -6.1483  -13.7591 O   0  0  0  0  0  0  0  0  0  0  0  0
   16.0832   -8.1486  -12.5817 C   0  0  0  0  0  0  0  0  0  0  0  0
   15.3403   -7.4808  -13.3340 O   0  0  0  0  0  0  0  0  0  0  0  0
   19.4204   -7.5085  -12.1771 O   0  0  0  0  0  0  0  0  0  0  0  0
   16.0544   -7.3982   -8.4723 C   0  0  0  0  0  0  0  0  0  0  0  0
   14.7795   -7.1592   -9.2390 C   0  0  2  0  0  0  0  0  0  0  0  0
   13.9845   -8.4629   -9.3536 C   0  0  0  0  0  0  0  0  0  0  0  0
   15.1759   -6.7910  -10.6589 C   0  0  2  0  0  0  0  0  0  0  0  0
   15.9999   -7.8785  -11.1975 N   0  0  0  0  0  0  0  0  0  0  0  0
   16.0249   -5.5584  -10.6567 C   0  0  0  0  0  0  0  0  0  0  0  0
   15.4841   -4.2995  -10.4370 O   0  0  0  0  0  0  0  0  0  0  0  0
   17.2685   -5.6073  -10.8541 O   0  0  0  0  0  0  0  0  0  0  0  0
  2  1  1  1
  3  4  1  0
  3  2  1  0
  4  8  1  0
  5  4  2  0
  6  2  1  0
  7  6  2  0
  9  6  1  0
 10 14  1  0
 10  9  1  0
 10 11  1  6
 12 11  1  0
 13 12  2  0
 14 21  1  0
 15 14  2  0
 16 12  1  0
 18 20  1  0
 18 17  1  1
 19 18  1  0
 20 22  1  0
 20 21  1  1
 22 24  2  0
 22 23  1  0
M  END
$$$$
