DDV.pdb
     RDKit          3D

 24 23  0  0  1  0  0  0  0  0999 V2000
   16.9636  -11.4335  -14.7155 N   0  0  0  0  0  0  0  0  0  0  0  0
   17.7758  -11.0479  -15.8372 C   0  0  1  0  0  0  0  0  0  0  0  0
   17.0907  -11.4248  -17.1277 C   0  0  0  0  0  0  0  0  0  0  0  0
   16.8074  -12.8581  -17.2261 C   0  0  0  0  0  0  0  0  0  0  0  0
   17.6431  -13.5867  -17.8196 O   0  0  0  0  0  0  0  0  0  0  0  0
   18.1238   -9.5987  -15.8033 C   0  0  0  0  0  0  0  0  0  0  0  0
   18.7782   -9.0570  -16.7311 O   0  0  0  0  0  0  0  0  0  0  0  0
   15.6795  -13.4788  -16.7113 O   0  0  0  0  0  0  0  0  0  0  0  0
   17.7389   -8.7502  -14.7279 N   0  0  0  0  0  0  0  0  0  0  0  0
   17.9971   -7.3423  -14.6984 C   0  0  1  0  0  0  0  0  0  0  0  0
   16.8664   -6.5220  -14.1220 C   0  0  0  0  0  0  0  0  0  0  0  0
   15.6013   -6.6506  -14.8413 C   0  0  0  0  0  0  0  0  0  0  0  0
   14.6521   -7.2758  -14.3143 O   0  0  0  0  0  0  0  0  0  0  0  0
   19.2273   -6.9859  -13.9534 C   0  0  0  0  0  0  0  0  0  0  0  0
   19.2849   -7.2447  -12.7313 O   0  0  0  0  0  0  0  0  0  0  0  0
   15.4018   -6.1047  -16.0969 O   0  0  0  0  0  0  0  0  0  0  0  0
   22.6437   -6.1305  -15.9680 C   0  0  0  0  0  0  0  0  0  0  0  0
   22.7526   -6.6952  -14.5754 C   0  0  2  0  0  0  0  0  0  0  0  0
   22.5369   -8.2109  -14.6059 C   0  0  0  0  0  0  0  0  0  0  0  0
   21.5930   -6.1291  -13.7731 C   0  0  2  0  0  0  0  0  0  0  0  0
   20.3585   -6.3658  -14.5292 N   0  0  0  0  0  0  0  0  0  0  0  0
   21.7391   -4.6467  -13.6266 C   0  0  0  0  0  0  0  0  0  0  0  0
   22.6653   -4.0865  -12.7583 O   0  0  0  0  0  0  0  0  0  0  0  0
   21.0286   -3.8403  -14.2843 O   0  0  0  0  0  0  0  0  0  0  0  0
  2  1  1  1
  3  4  1  0
  3  2  1  0
  4  8  1  0
  5  4  2  0
  6  2  1  0
  7  6  2  0
  9  6  1  0
 10 14  1  0
 10  9  1  0
 10 11  1  1
 12 11  1  0
 13 12  2  0
 14 21  1  0
 15 14  2  0
 16 12  1  0
 18 20  1  0
 18 17  1  6
 19 18  1  0
 20 22  1  0
 20 21  1  6
 22 24  2  0
 22 23  1  0
M  END
$$$$
