DDV.pdb
     RDKit          3D

 24 23  0  0  1  0  0  0  0  0999 V2000
   18.2281  -12.1094  -16.0616 N   0  0  0  0  0  0  0  0  0  0  0  0
   19.2574  -11.4543  -16.8220 C   0  0  1  0  0  0  0  0  0  0  0  0
   19.0942  -11.7633  -18.2898 C   0  0  0  0  0  0  0  0  0  0  0  0
   19.2776  -13.1830  -18.5981 C   0  0  0  0  0  0  0  0  0  0  0  0
   18.4062  -13.9937  -18.1922 O   0  0  0  0  0  0  0  0  0  0  0  0
   19.2887   -9.9852  -16.5704 C   0  0  0  0  0  0  0  0  0  0  0  0
   20.0600   -9.2243  -17.2095 O   0  0  0  0  0  0  0  0  0  0  0  0
   20.3468  -13.7066  -19.3089 O   0  0  0  0  0  0  0  0  0  0  0  0
   18.4544   -9.3628  -15.6002 N   0  0  0  0  0  0  0  0  0  0  0  0
   18.4254   -7.9501  -15.3698 C   0  0  1  0  0  0  0  0  0  0  0  0
   17.1504   -7.4585  -14.7248 C   0  0  0  0  0  0  0  0  0  0  0  0
   15.9415   -7.7234  -15.5012 C   0  0  0  0  0  0  0  0  0  0  0  0
   15.0456   -8.4546  -15.0189 O   0  0  0  0  0  0  0  0  0  0  0  0
   19.5554   -7.4664  -14.5424 C   0  0  0  0  0  0  0  0  0  0  0  0
   19.6349   -7.8472  -13.3539 O   0  0  0  0  0  0  0  0  0  0  0  0
   15.7388   -7.1951  -16.7637 O   0  0  0  0  0  0  0  0  0  0  0  0
   22.8345   -5.8462  -16.2961 C   0  0  0  0  0  0  0  0  0  0  0  0
   22.9809   -6.5035  -14.9482 C   0  0  2  0  0  0  0  0  0  0  0  0
   23.0274   -8.0255  -15.1094 C   0  0  0  0  0  0  0  0  0  0  0  0
   21.7102   -6.2093  -14.1687 C   0  0  2  0  0  0  0  0  0  0  0  0
   20.5661   -6.5932  -15.0025 N   0  0  0  0  0  0  0  0  0  0  0  0
   21.5897   -4.7401  -13.9097 C   0  0  0  0  0  0  0  0  0  0  0  0
   20.6080   -3.9697  -14.5167 O   0  0  0  0  0  0  0  0  0  0  0  0
   22.3733   -4.1361  -13.1295 O   0  0  0  0  0  0  0  0  0  0  0  0
  2  1  1  1
  3  4  1  0
  3  2  1  0
  4  8  1  0
  5  4  2  0
  6  2  1  0
  7  6  2  0
  9  6  1  0
 10 14  1  0
 10  9  1  0
 10 11  1  1
 12 11  1  0
 13 12  2  0
 14 21  1  0
 15 14  2  0
 16 12  1  0
 18 20  1  0
 18 17  1  6
 19 18  1  0
 20 22  1  0
 20 21  1  6
 22 24  2  0
 22 23  1  0
M  END
$$$$
