DDV.pdb
     RDKit          3D

 24 23  0  0  1  0  0  0  0  0999 V2000
   14.6739  -14.0245  -12.9593 N   0  0  0  0  0  0  0  0  0  0  0  0
   13.9679  -12.8044  -12.6772 C   0  0  1  0  0  0  0  0  0  0  0  0
   12.8490  -13.0667  -11.6995 C   0  0  0  0  0  0  0  0  0  0  0  0
   11.8219  -13.9630  -12.2344 C   0  0  0  0  0  0  0  0  0  0  0  0
   11.5166  -13.8541  -13.4494 O   0  0  0  0  0  0  0  0  0  0  0  0
   14.8805  -11.7301  -12.1917 C   0  0  0  0  0  0  0  0  0  0  0  0
   15.5450  -11.8603  -11.1316 O   0  0  0  0  0  0  0  0  0  0  0  0
   11.1547  -14.9303  -11.4984 O   0  0  0  0  0  0  0  0  0  0  0  0
   15.0518  -10.5044  -12.8938 N   0  0  0  0  0  0  0  0  0  0  0  0
   16.0047   -9.5037  -12.5194 C   0  0  1  0  0  0  0  0  0  0  0  0
   16.9038   -9.0578  -13.6491 C   0  0  0  0  0  0  0  0  0  0  0  0
   17.9159   -8.0776  -13.2626 C   0  0  0  0  0  0  0  0  0  0  0  0
   18.5452   -8.2300  -12.1900 O   0  0  0  0  0  0  0  0  0  0  0  0
   15.3844   -8.2887  -11.9412 C   0  0  0  0  0  0  0  0  0  0  0  0
   14.5879   -7.6290  -12.6442 O   0  0  0  0  0  0  0  0  0  0  0  0
   18.2148   -6.9725  -14.0395 O   0  0  0  0  0  0  0  0  0  0  0  0
   16.1299   -7.2002   -8.0479 C   0  0  0  0  0  0  0  0  0  0  0  0
   14.8181   -6.7369   -8.6266 C   0  0  2  0  0  0  0  0  0  0  0  0
   13.7588   -7.8310   -8.4662 C   0  0  0  0  0  0  0  0  0  0  0  0
   15.0233   -6.5771  -10.1237 C   0  0  2  0  0  0  0  0  0  0  0  0
   15.6289   -7.8117  -10.6341 N   0  0  0  0  0  0  0  0  0  0  0  0
   15.9909   -5.4688  -10.3986 C   0  0  0  0  0  0  0  0  0  0  0  0
   17.2432   -5.7114  -10.9449 O   0  0  0  0  0  0  0  0  0  0  0  0
   15.7130   -4.2659  -10.1468 O   0  0  0  0  0  0  0  0  0  0  0  0
  2  1  1  1
  3  4  1  0
  3  2  1  0
  4  8  1  0
  5  4  2  0
  6  2  1  0
  7  6  2  0
  9  6  1  0
 10 14  1  0
 10  9  1  0
 10 11  1  6
 12 11  1  0
 13 12  2  0
 14 21  1  0
 15 14  2  0
 16 12  1  0
 18 20  1  0
 18 17  1  1
 19 18  1  0
 20 22  1  0
 20 21  1  1
 22 24  2  0
 22 23  1  0
M  END
$$$$
