DDV.pdb
     RDKit          3D

 24 23  0  0  1  0  0  0  0  0999 V2000
   18.3174  -12.7562  -17.3299 N   0  0  0  0  0  0  0  0  0  0  0  0
   17.4934  -12.3979  -16.2077 C   0  0  1  0  0  0  0  0  0  0  0  0
   17.4960  -13.5088  -15.1866 C   0  0  0  0  0  0  0  0  0  0  0  0
   16.8411  -14.7272  -15.6670 C   0  0  0  0  0  0  0  0  0  0  0  0
   16.5627  -14.8058  -16.8908 O   0  0  0  0  0  0  0  0  0  0  0  0
   17.9043  -11.0976  -15.6053 C   0  0  0  0  0  0  0  0  0  0  0  0
   17.2577  -10.5764  -14.6604 O   0  0  0  0  0  0  0  0  0  0  0  0
   16.5016  -15.8099  -14.8700 O   0  0  0  0  0  0  0  0  0  0  0  0
   19.0429  -10.3758  -16.0603 N   0  0  0  0  0  0  0  0  0  0  0  0
   19.4726   -9.1340  -15.4920 C   0  0  1  0  0  0  0  0  0  0  0  0
   20.9616   -9.0523  -15.2476 C   0  0  0  0  0  0  0  0  0  0  0  0
   21.4122   -7.7776  -14.6940 C   0  0  0  0  0  0  0  0  0  0  0  0
   21.1366   -7.4882  -13.5066 O   0  0  0  0  0  0  0  0  0  0  0  0
   19.0915   -7.9537  -16.3027 C   0  0  0  0  0  0  0  0  0  0  0  0
   19.4936   -7.8823  -17.4846 O   0  0  0  0  0  0  0  0  0  0  0  0
   22.1404   -6.8626  -15.4333 O   0  0  0  0  0  0  0  0  0  0  0  0
   15.9491   -5.4923  -15.4026 C   0  0  0  0  0  0  0  0  0  0  0  0
   16.5315   -5.5386  -16.7914 C   0  0  2  0  0  0  0  0  0  0  0  0
   16.0597   -6.8024  -17.5160 C   0  0  0  0  0  0  0  0  0  0  0  0
   18.0360   -5.6874  -16.6387 C   0  0  2  0  0  0  0  0  0  0  0  0
   18.2951   -6.8855  -15.8332 N   0  0  0  0  0  0  0  0  0  0  0  0
   18.5980   -4.5230  -15.8848 C   0  0  0  0  0  0  0  0  0  0  0  0
   18.7881   -3.2868  -16.4859 O   0  0  0  0  0  0  0  0  0  0  0  0
   18.9238   -4.6117  -14.6708 O   0  0  0  0  0  0  0  0  0  0  0  0
  2  1  1  6
  3  4  1  0
  3  2  1  0
  4  8  1  0
  5  4  2  0
  6  2  1  0
  7  6  2  0
  9  6  1  0
 10 14  1  0
 10  9  1  0
 10 11  1  6
 12 11  1  0
 13 12  2  0
 14 21  1  0
 15 14  2  0
 16 12  1  0
 18 20  1  0
 18 17  1  1
 19 18  1  0
 20 22  1  0
 20 21  1  1
 22 24  2  0
 22 23  1  0
M  END
$$$$
