DDV.pdb
     RDKit          3D

 24 23  0  0  1  0  0  0  0  0999 V2000
   20.6582  -17.0615  -17.1274 N   0  0  0  0  0  0  0  0  0  0  0  0
   20.4895  -16.2693  -15.9397 C   0  0  1  0  0  0  0  0  0  0  0  0
   21.4847  -16.6930  -14.8878 C   0  0  0  0  0  0  0  0  0  0  0  0
   21.2401  -18.0454  -14.3823 C   0  0  0  0  0  0  0  0  0  0  0  0
   20.2223  -18.6566  -14.7970 O   0  0  0  0  0  0  0  0  0  0  0  0
   20.5803  -14.8088  -16.2246 C   0  0  0  0  0  0  0  0  0  0  0  0
   21.5105  -14.3311  -16.9239 O   0  0  0  0  0  0  0  0  0  0  0  0
   22.0507  -18.7094  -13.4742 O   0  0  0  0  0  0  0  0  0  0  0  0
   19.6274  -13.8771  -15.7260 N   0  0  0  0  0  0  0  0  0  0  0  0
   19.6240  -12.4872  -16.0693 C   0  0  1  0  0  0  0  0  0  0  0  0
   18.2450  -11.9148  -16.3018 C   0  0  0  0  0  0  0  0  0  0  0  0
   17.4807  -12.5904  -17.3477 C   0  0  0  0  0  0  0  0  0  0  0  0
   17.9143  -12.5964  -18.5231 O   0  0  0  0  0  0  0  0  0  0  0  0
   20.2948  -11.6316  -15.0626 C   0  0  0  0  0  0  0  0  0  0  0  0
   19.8380  -11.6037  -13.8988 O   0  0  0  0  0  0  0  0  0  0  0  0
   16.2820  -13.2331  -17.0943 O   0  0  0  0  0  0  0  0  0  0  0  0
   23.8771   -9.8043  -15.9161 C   0  0  0  0  0  0  0  0  0  0  0  0
   23.5994  -10.1759  -14.4826 C   0  0  2  0  0  0  0  0  0  0  0  0
   23.9346  -11.6517  -14.2492 C   0  0  0  0  0  0  0  0  0  0  0  0
   22.0991  -10.0551  -14.2738 C   0  0  2  0  0  0  0  0  0  0  0  0
   21.4299  -10.8320  -15.3227 N   0  0  0  0  0  0  0  0  0  0  0  0
   21.6659   -8.6321  -14.4393 C   0  0  0  0  0  0  0  0  0  0  0  0
   21.8414   -7.6935  -13.4323 O   0  0  0  0  0  0  0  0  0  0  0  0
   21.1226   -8.2214  -15.4994 O   0  0  0  0  0  0  0  0  0  0  0  0
  2  1  1  6
  3  4  1  0
  3  2  1  0
  4  8  1  0
  5  4  2  0
  6  2  1  0
  7  6  2  0
  9  6  1  0
 10 14  1  0
 10  9  1  0
 10 11  1  1
 12 11  1  0
 13 12  2  0
 14 21  1  0
 15 14  2  0
 16 12  1  0
 18 20  1  0
 18 17  1  6
 19 18  1  0
 20 22  1  0
 20 21  1  6
 22 24  2  0
 22 23  1  0
M  END
$$$$
