MWS.pdb
     RDKit          3D

 29 30  0  0  1  0  0  0  0  0999 V2000
   27.6011  -22.6126  -20.5240 C   0  0  0  0  0  0  0  0  0  0  0  0
   27.6267  -23.4383  -18.9220 S   0  0  0  0  0  0  0  0  0  0  0  0
   26.4131  -24.7849  -18.9367 C   0  0  0  0  0  0  0  0  0  0  0  0
   25.3828  -24.6191  -17.8389 C   0  0  0  0  0  0  0  0  0  0  0  0
   25.9718  -23.9150  -16.6333 C   0  0  2  0  0  0  0  0  0  0  0  0
   26.9484  -24.7516  -15.9572 N   0  0  0  0  0  0  0  0  0  0  0  0
   24.8464  -23.5858  -15.7183 C   0  0  0  0  0  0  0  0  0  0  0  0
   24.3174  -24.5416  -15.0861 O   0  0  0  0  0  0  0  0  0  0  0  0
   24.3707  -22.2630  -15.5462 N   0  0  0  0  0  0  0  0  0  0  0  0
   23.2705  -22.0050  -14.5806 C   0  0  1  0  0  0  0  0  0  0  0  0
   23.3897  -20.5852  -14.1558 C   0  0  0  0  0  0  0  0  0  0  0  0
   22.3918  -20.1656  -13.1693 C   0  0  0  0  0  0  0  0  0  0  0  0
   21.9246  -20.8440  -12.0537 C   0  0  0  0  0  0  0  0  0  0  0  0
   20.9834  -20.1046  -11.4544 N   0  0  0  0  0  0  0  0  0  0  0  0
   20.8274  -18.9620  -12.1536 C   0  0  0  0  0  0  0  0  0  0  0  0
   19.9818  -17.8985  -11.9301 C   0  0  0  0  0  0  0  0  0  0  0  0
   20.0289  -16.8297  -12.8284 C   0  0  0  0  0  0  0  0  0  0  0  0
   20.8789  -16.8275  -13.8942 C   0  0  0  0  0  0  0  0  0  0  0  0
   21.7362  -17.9111  -14.1165 C   0  0  0  0  0  0  0  0  0  0  0  0
   21.6887  -18.9754  -13.2211 C   0  0  0  0  0  0  0  0  0  0  0  0
   21.9932  -22.3213  -15.2190 C   0  0  0  0  0  0  0  0  0  0  0  0
   21.8287  -22.0744  -16.4621 O   0  0  0  0  0  0  0  0  0  0  0  0
   19.8203  -25.4599  -14.8527 O   0  0  0  0  0  0  0  0  0  0  0  0
   18.9383  -24.3876  -14.6890 C   0  0  0  0  0  0  0  0  0  0  0  0
   19.6413  -23.1726  -15.2744 C   0  0  2  0  0  0  0  0  0  0  0  0
   20.8831  -22.9015  -14.5829 N   0  0  0  0  0  0  0  0  0  0  0  0
   18.7281  -22.0363  -15.3518 C   0  0  0  0  0  0  0  0  0  0  0  0
   19.1149  -20.8000  -14.8705 O   0  0  0  0  0  0  0  0  0  0  0  0
   17.5672  -22.1957  -15.8678 O   0  0  0  0  0  0  0  0  0  0  0  0
  2  1  1  0
  3  2  1  0
  4  3  1  0
  4  5  1  0
  5  7  1  0
  5  6  1  1
  7  8  2  0
  9 10  1  0
  9  7  1  0
 10 11  1  6
 12 11  1  0
 13 12  2  0
 14 13  1  0
 15 14  1  0
 15 20  2  0
 16 15  1  0
 17 16  2  0
 17 18  1  0
 18 19  2  0
 19 20  1  0
 20 12  1  0
 21 22  2  0
 21 10  1  0
 23 24  1  0
 25 24  1  1
 25 27  1  0
 25 26  1  0
 26 21  1  0
 27 28  1  0
 29 27  2  0
M  END
$$$$
