MWS.pdb
     RDKit          3D

 29 30  0  0  1  0  0  0  0  0999 V2000
   22.7391   -9.3928  -12.4450 C   0  0  0  0  0  0  0  0  0  0  0  0
   21.2198   -8.6598  -11.8099 S   0  0  0  0  0  0  0  0  0  0  0  0
   20.3074   -7.9149  -13.1880 C   0  0  0  0  0  0  0  0  0  0  0  0
   19.0504   -7.2165  -12.7118 C   0  0  0  0  0  0  0  0  0  0  0  0
   18.1815   -8.1471  -11.8902 C   0  0  2  0  0  0  0  0  0  0  0  0
   17.6790   -9.2482  -12.6937 N   0  0  0  0  0  0  0  0  0  0  0  0
   17.0546   -7.3404  -11.3502 C   0  0  0  0  0  0  0  0  0  0  0  0
   16.0989   -7.0857  -12.1342 O   0  0  0  0  0  0  0  0  0  0  0  0
   17.0319   -6.8669  -10.0157 N   0  0  0  0  0  0  0  0  0  0  0  0
   15.8512   -6.1028   -9.5346 C   0  0  1  0  0  0  0  0  0  0  0  0
   15.3982   -6.7508   -8.2754 C   0  0  0  0  0  0  0  0  0  0  0  0
   14.5595   -7.9348   -8.4749 C   0  0  0  0  0  0  0  0  0  0  0  0
   14.9282   -9.2124   -8.8684 C   0  0  0  0  0  0  0  0  0  0  0  0
   13.8319   -9.9748   -8.9621 N   0  0  0  0  0  0  0  0  0  0  0  0
   12.7596   -9.2234   -8.6391 C   0  0  0  0  0  0  0  0  0  0  0  0
   11.4258   -9.5626   -8.5915 C   0  0  0  0  0  0  0  0  0  0  0  0
   10.5150   -8.5705   -8.2206 C   0  0  0  0  0  0  0  0  0  0  0  0
   10.9200   -7.3055   -7.9138 C   0  0  0  0  0  0  0  0  0  0  0  0
   12.2769   -6.9664   -7.9638 C   0  0  0  0  0  0  0  0  0  0  0  0
   13.1837   -7.9554   -8.3332 C   0  0  0  0  0  0  0  0  0  0  0  0
   16.2277   -4.6992   -9.3697 C   0  0  0  0  0  0  0  0  0  0  0  0
   17.2132   -4.3926   -8.6159 O   0  0  0  0  0  0  0  0  0  0  0  0
   14.8486   -1.8526  -11.7665 O   0  0  0  0  0  0  0  0  0  0  0  0
   16.0236   -1.4716  -11.1117 C   0  0  0  0  0  0  0  0  0  0  0  0
   16.0421   -2.2417   -9.8004 C   0  0  2  0  0  0  0  0  0  0  0  0
   15.5974   -3.6060   -9.9871 N   0  0  0  0  0  0  0  0  0  0  0  0
   15.3278   -1.5065   -8.7608 C   0  0  0  0  0  0  0  0  0  0  0  0
   15.7245   -0.2283   -8.4164 O   0  0  0  0  0  0  0  0  0  0  0  0
   14.3329   -2.0564   -8.1715 O   0  0  0  0  0  0  0  0  0  0  0  0
  2  1  1  0
  3  2  1  0
  4  3  1  0
  4  5  1  0
  5  7  1  0
  5  6  1  6
  7  8  2  0
  9 10  1  0
  9  7  1  0
 10 11  1  1
 12 11  1  0
 13 12  2  0
 14 13  1  0
 15 14  1  0
 15 20  2  0
 16 15  1  0
 17 16  2  0
 17 18  1  0
 18 19  2  0
 19 20  1  0
 20 12  1  0
 21 22  2  0
 21 10  1  0
 23 24  1  0
 25 24  1  6
 25 27  1  0
 25 26  1  0
 26 21  1  0
 27 28  1  0
 29 27  2  0
M  END
$$$$
