MWS.pdb
     RDKit          3D

 29 30  0  0  1  0  0  0  0  0999 V2000
   30.3506  -17.1492  -17.2978 C   0  0  0  0  0  0  0  0  0  0  0  0
   29.3230  -17.8999  -16.0213 S   0  0  0  0  0  0  0  0  0  0  0  0
   28.3736  -19.2582  -16.7561 C   0  0  0  0  0  0  0  0  0  0  0  0
   27.5754  -20.0099  -15.7110 C   0  0  0  0  0  0  0  0  0  0  0  0
   28.4854  -20.7230  -14.7314 C   0  0  2  0  0  0  0  0  0  0  0  0
   29.0261  -21.9437  -15.3043 N   0  0  0  0  0  0  0  0  0  0  0  0
   27.6792  -21.0296  -13.5197 C   0  0  0  0  0  0  0  0  0  0  0  0
   26.7892  -21.9180  -13.6275 O   0  0  0  0  0  0  0  0  0  0  0  0
   27.8832  -20.3664  -12.2851 N   0  0  0  0  0  0  0  0  0  0  0  0
   27.0608  -20.7504  -11.1080 C   0  0  1  0  0  0  0  0  0  0  0  0
   27.6594  -20.0811   -9.9230 C   0  0  0  0  0  0  0  0  0  0  0  0
   26.9269  -20.2992   -8.6737 C   0  0  0  0  0  0  0  0  0  0  0  0
   25.5979  -20.6486   -8.4878 C   0  0  0  0  0  0  0  0  0  0  0  0
   25.3391  -20.7025   -7.1756 N   0  0  0  0  0  0  0  0  0  0  0  0
   26.4679  -20.3965   -6.5041 C   0  0  0  0  0  0  0  0  0  0  0  0
   26.6955  -20.3199   -5.1481 C   0  0  0  0  0  0  0  0  0  0  0  0
   27.9802  -19.9739   -4.7224 C   0  0  0  0  0  0  0  0  0  0  0  0
   28.9834  -19.7182   -5.6093 C   0  0  0  0  0  0  0  0  0  0  0  0
   28.7465  -19.7975   -6.9863 C   0  0  0  0  0  0  0  0  0  0  0  0
   27.4664  -20.1425   -7.4096 C   0  0  0  0  0  0  0  0  0  0  0  0
   25.6699  -20.3718  -11.3555 C   0  0  0  0  0  0  0  0  0  0  0  0
   25.3407  -19.1369  -11.3564 O   0  0  0  0  0  0  0  0  0  0  0  0
   22.8966  -23.0439  -12.5252 O   0  0  0  0  0  0  0  0  0  0  0  0
   22.6351  -21.7456  -12.9732 C   0  0  0  0  0  0  0  0  0  0  0  0
   23.2830  -20.8137  -11.9609 C   0  0  2  0  0  0  0  0  0  0  0  0
   24.6138  -21.2620  -11.6121 N   0  0  0  0  0  0  0  0  0  0  0  0
   22.3973  -20.5946  -10.8213 C   0  0  0  0  0  0  0  0  0  0  0  0
   21.1335  -20.0698  -11.0142 O   0  0  0  0  0  0  0  0  0  0  0  0
   22.8019  -20.8919   -9.6434 O   0  0  0  0  0  0  0  0  0  0  0  0
  2  1  1  0
  3  2  1  0
  4  3  1  0
  4  5  1  0
  5  7  1  0
  5  6  1  6
  7  8  2  0
  9 10  1  0
  9  7  1  0
 10 11  1  1
 12 11  1  0
 13 12  2  0
 14 13  1  0
 15 14  1  0
 15 20  2  0
 16 15  1  0
 17 16  2  0
 17 18  1  0
 18 19  2  0
 19 20  1  0
 20 12  1  0
 21 22  2  0
 21 10  1  0
 23 24  1  0
 25 24  1  6
 25 27  1  0
 25 26  1  0
 26 21  1  0
 27 28  1  0
 29 27  2  0
M  END
$$$$
