MWS.pdb
     RDKit          3D

 29 30  0  0  1  0  0  0  0  0999 V2000
   28.6510  -16.6023  -16.6778 C   0  0  0  0  0  0  0  0  0  0  0  0
   28.4077  -18.2613  -17.3394 S   0  0  0  0  0  0  0  0  0  0  0  0
   29.4744  -19.4154  -16.4357 C   0  0  0  0  0  0  0  0  0  0  0  0
   28.6857  -20.2408  -15.4402 C   0  0  0  0  0  0  0  0  0  0  0  0
   27.5598  -19.4338  -14.8259 C   0  0  2  0  0  0  0  0  0  0  0  0
   28.0723  -18.3344  -14.0264 N   0  0  0  0  0  0  0  0  0  0  0  0
   26.7585  -20.3609  -13.9828 C   0  0  0  0  0  0  0  0  0  0  0  0
   26.6745  -21.5613  -14.3636 O   0  0  0  0  0  0  0  0  0  0  0  0
   26.1080  -19.9382  -12.7980 N   0  0  0  0  0  0  0  0  0  0  0  0
   25.2982  -20.9152  -12.0240 C   0  0  1  0  0  0  0  0  0  0  0  0
   25.5073  -20.6086  -10.5843 C   0  0  0  0  0  0  0  0  0  0  0  0
   26.8592  -20.8927  -10.0978 C   0  0  0  0  0  0  0  0  0  0  0  0
   27.8739  -21.6168  -10.7053 C   0  0  0  0  0  0  0  0  0  0  0  0
   28.9321  -21.6585   -9.8866 N   0  0  0  0  0  0  0  0  0  0  0  0
   28.6296  -20.9790   -8.7616 C   0  0  0  0  0  0  0  0  0  0  0  0
   29.3911  -20.7480   -7.6378 C   0  0  0  0  0  0  0  0  0  0  0  0
   28.8177  -20.0021   -6.6052 C   0  0  0  0  0  0  0  0  0  0  0  0
   27.5481  -19.5137   -6.6947 C   0  0  0  0  0  0  0  0  0  0  0  0
   26.7786  -19.7515   -7.8393 C   0  0  0  0  0  0  0  0  0  0  0  0
   27.3507  -20.4946   -8.8676 C   0  0  0  0  0  0  0  0  0  0  0  0
   23.9019  -20.8178  -12.4481 C   0  0  0  0  0  0  0  0  0  0  0  0
   23.3378  -19.6726  -12.5103 O   0  0  0  0  0  0  0  0  0  0  0  0
   21.4990  -24.0437  -13.3255 O   0  0  0  0  0  0  0  0  0  0  0  0
   21.2669  -22.9119  -14.1128 C   0  0  0  0  0  0  0  0  0  0  0  0
   21.7237  -21.7222  -13.2827 C   0  0  2  0  0  0  0  0  0  0  0  0
   23.0830  -21.8975  -12.8187 N   0  0  0  0  0  0  0  0  0  0  0  0
   20.7559  -21.4257  -12.2307 C   0  0  0  0  0  0  0  0  0  0  0  0
   19.4464  -21.1264  -12.5555 O   0  0  0  0  0  0  0  0  0  0  0  0
   21.1311  -21.4446  -11.0067 O   0  0  0  0  0  0  0  0  0  0  0  0
  2  1  1  0
  3  2  1  0
  4  3  1  0
  4  5  1  0
  5  7  1  0
  5  6  1  1
  7  8  2  0
  9 10  1  0
  9  7  1  0
 10 11  1  1
 12 11  1  0
 13 12  2  0
 14 13  1  0
 15 14  1  0
 15 20  2  0
 16 15  1  0
 17 16  2  0
 17 18  1  0
 18 19  2  0
 19 20  1  0
 20 12  1  0
 21 22  2  0
 21 10  1  0
 23 24  1  0
 25 24  1  1
 25 27  1  0
 25 26  1  0
 26 21  1  0
 27 28  1  0
 29 27  2  0
M  END
$$$$
