MWS.pdb
     RDKit          3D

 29 30  0  0  1  0  0  0  0  0999 V2000
   11.7394  -23.7107    1.6867 C   0  0  0  0  0  0  0  0  0  0  0  0
   13.3855  -23.1976    2.2123 S   0  0  0  0  0  0  0  0  0  0  0  0
   13.2725  -21.5574    2.9763 C   0  0  0  0  0  0  0  0  0  0  0  0
   14.5848  -21.1467    3.6116 C   0  0  0  0  0  0  0  0  0  0  0  0
   15.1532  -19.9083    2.9488 C   0  0  2  0  0  0  0  0  0  0  0  0
   15.3506  -20.1144    1.5243 N   0  0  0  0  0  0  0  0  0  0  0  0
   16.4478  -19.6035    3.6147 C   0  0  0  0  0  0  0  0  0  0  0  0
   17.4978  -20.0290    3.0584 O   0  0  0  0  0  0  0  0  0  0  0  0
   16.5249  -18.8681    4.8225 N   0  0  0  0  0  0  0  0  0  0  0  0
   17.8585  -18.5179    5.3776 C   0  0  1  0  0  0  0  0  0  0  0  0
   17.8310  -17.0645    5.6898 C   0  0  0  0  0  0  0  0  0  0  0  0
   17.9826  -16.1942    4.5216 C   0  0  0  0  0  0  0  0  0  0  0  0
   17.1690  -15.1570    4.0913 C   0  0  0  0  0  0  0  0  0  0  0  0
   17.6630  -14.6573    2.9519 N   0  0  0  0  0  0  0  0  0  0  0  0
   18.7780  -15.3450    2.6312 C   0  0  0  0  0  0  0  0  0  0  0  0
   19.6262  -15.2000    1.5562 C   0  0  0  0  0  0  0  0  0  0  0  0
   20.7215  -16.0628    1.4706 C   0  0  0  0  0  0  0  0  0  0  0  0
   20.9539  -17.0201    2.4129 C   0  0  0  0  0  0  0  0  0  0  0  0
   20.0885  -17.1629    3.5034 C   0  0  0  0  0  0  0  0  0  0  0  0
   18.9976  -16.3029    3.5881 C   0  0  0  0  0  0  0  0  0  0  0  0
   18.1266  -19.3630    6.5408 C   0  0  0  0  0  0  0  0  0  0  0  0
   17.1692  -19.6832    7.3246 O   0  0  0  0  0  0  0  0  0  0  0  0
   21.8360  -20.6506    7.4941 O   0  0  0  0  0  0  0  0  0  0  0  0
   20.8534  -21.5119    7.9913 C   0  0  0  0  0  0  0  0  0  0  0  0
   19.5807  -20.6850    8.0890 C   0  0  2  0  0  0  0  0  0  0  0  0
   19.3793  -19.8896    6.8972 N   0  0  0  0  0  0  0  0  0  0  0  0
   19.5524  -19.9280    9.3370 C   0  0  0  0  0  0  0  0  0  0  0  0
   19.4921  -20.5886   10.5493 O   0  0  0  0  0  0  0  0  0  0  0  0
   19.5831  -18.6485    9.2978 O   0  0  0  0  0  0  0  0  0  0  0  0
  2  1  1  0
  3  2  1  0
  4  3  1  0
  4  5  1  0
  5  7  1  0
  5  6  1  6
  7  8  2  0
  9 10  1  0
  9  7  1  0
 10 11  1  1
 12 11  1  0
 13 12  2  0
 14 13  1  0
 15 14  1  0
 15 20  2  0
 16 15  1  0
 17 16  2  0
 17 18  1  0
 18 19  2  0
 19 20  1  0
 20 12  1  0
 21 22  2  0
 21 10  1  0
 23 24  1  0
 25 24  1  6
 25 27  1  0
 25 26  1  0
 26 21  1  0
 27 28  1  0
 29 27  2  0
M  END
$$$$
