MWS.pdb
     RDKit          3D

 29 30  0  0  1  0  0  0  0  0999 V2000
   29.6774  -16.7693  -17.0182 C   0  0  0  0  0  0  0  0  0  0  0  0
   28.7718  -17.7802  -15.8320 S   0  0  0  0  0  0  0  0  0  0  0  0
   27.7033  -18.9313  -16.7375 C   0  0  0  0  0  0  0  0  0  0  0  0
   26.8977  -19.8024  -15.7959 C   0  0  0  0  0  0  0  0  0  0  0  0
   27.7736  -20.3976  -14.7121 C   0  0  2  0  0  0  0  0  0  0  0  0
   28.6778  -21.3978  -15.2528 N   0  0  0  0  0  0  0  0  0  0  0  0
   26.8719  -21.0057  -13.6974 C   0  0  0  0  0  0  0  0  0  0  0  0
   26.5024  -22.1966  -13.8927 O   0  0  0  0  0  0  0  0  0  0  0  0
   26.4332  -20.2985  -12.5515 N   0  0  0  0  0  0  0  0  0  0  0  0
   25.4898  -20.9543  -11.6084 C   0  0  1  0  0  0  0  0  0  0  0  0
   25.7512  -20.3792  -10.2625 C   0  0  0  0  0  0  0  0  0  0  0  0
   27.0830  -20.6744   -9.7294 C   0  0  0  0  0  0  0  0  0  0  0  0
   28.1094  -21.4134  -10.2980 C   0  0  0  0  0  0  0  0  0  0  0  0
   29.1393  -21.4609   -9.4442 N   0  0  0  0  0  0  0  0  0  0  0  0
   28.8069  -20.7705   -8.3343 C   0  0  0  0  0  0  0  0  0  0  0  0
   29.5331  -20.5400   -7.1873 C   0  0  0  0  0  0  0  0  0  0  0  0
   28.9339  -19.7810   -6.1793 C   0  0  0  0  0  0  0  0  0  0  0  0
   27.6734  -19.2796   -6.3143 C   0  0  0  0  0  0  0  0  0  0  0  0
   26.9398  -19.5170   -7.4823 C   0  0  0  0  0  0  0  0  0  0  0  0
   27.5376  -20.2732   -8.4861 C   0  0  0  0  0  0  0  0  0  0  0  0
   24.1217  -20.7441  -12.0808 C   0  0  0  0  0  0  0  0  0  0  0  0
   23.6846  -19.5544  -12.2451 O   0  0  0  0  0  0  0  0  0  0  0  0
   21.5754  -23.7645  -13.3294 O   0  0  0  0  0  0  0  0  0  0  0  0
   21.5311  -22.5423  -14.0069 C   0  0  0  0  0  0  0  0  0  0  0  0
   21.9083  -21.4816  -12.9843 C   0  0  2  0  0  0  0  0  0  0  0  0
   23.2007  -21.7574  -12.3949 N   0  0  0  0  0  0  0  0  0  0  0  0
   20.8293  -21.2884  -12.0201 C   0  0  0  0  0  0  0  0  0  0  0  0
   21.0616  -21.4751  -10.6707 O   0  0  0  0  0  0  0  0  0  0  0  0
   19.6676  -20.9460  -12.4357 O   0  0  0  0  0  0  0  0  0  0  0  0
  2  1  1  0
  3  2  1  0
  4  3  1  0
  4  5  1  0
  5  7  1  0
  5  6  1  6
  7  8  2  0
  9 10  1  0
  9  7  1  0
 10 11  1  1
 12 11  1  0
 13 12  2  0
 14 13  1  0
 15 14  1  0
 15 20  2  0
 16 15  1  0
 17 16  2  0
 17 18  1  0
 18 19  2  0
 19 20  1  0
 20 12  1  0
 21 22  2  0
 21 10  1  0
 23 24  1  0
 25 24  1  6
 25 27  1  0
 25 26  1  0
 26 21  1  0
 27 28  1  0
 29 27  2  0
M  END
$$$$
