MWS.pdb
     RDKit          3D

 29 30  0  0  1  0  0  0  0  0999 V2000
   22.8686  -15.5131  -17.4315 C   0  0  0  0  0  0  0  0  0  0  0  0
   23.7461  -15.5063  -19.0060 S   0  0  0  0  0  0  0  0  0  0  0  0
   24.9958  -16.8194  -18.9867 C   0  0  0  0  0  0  0  0  0  0  0  0
   24.7158  -17.8398  -17.9028 C   0  0  0  0  0  0  0  0  0  0  0  0
   26.0011  -18.4144  -17.3427 C   0  0  2  0  0  0  0  0  0  0  0  0
   26.7405  -19.1446  -18.3579 N   0  0  0  0  0  0  0  0  0  0  0  0
   25.6312  -19.3160  -16.2190 C   0  0  0  0  0  0  0  0  0  0  0  0
   25.1269  -20.4339  -16.5175 O   0  0  0  0  0  0  0  0  0  0  0  0
   25.8274  -18.9578  -14.8630 N   0  0  0  0  0  0  0  0  0  0  0  0
   25.4785  -19.9313  -13.7953 C   0  0  1  0  0  0  0  0  0  0  0  0
   26.2821  -19.5691  -12.5979 C   0  0  0  0  0  0  0  0  0  0  0  0
   26.1315  -20.4908  -11.4697 C   0  0  0  0  0  0  0  0  0  0  0  0
   25.8757  -21.8537  -11.4811 C   0  0  0  0  0  0  0  0  0  0  0  0
   25.7766  -22.2907  -10.2196 N   0  0  0  0  0  0  0  0  0  0  0  0
   25.9618  -21.2447   -9.3888 C   0  0  0  0  0  0  0  0  0  0  0  0
   25.9508  -21.1974   -8.0127 C   0  0  0  0  0  0  0  0  0  0  0  0
   26.1732  -19.9607   -7.4022 C   0  0  0  0  0  0  0  0  0  0  0  0
   26.3949  -18.8314   -8.1330 C   0  0  0  0  0  0  0  0  0  0  0  0
   26.4050  -18.8853   -9.5314 C   0  0  0  0  0  0  0  0  0  0  0  0
   26.1835  -20.1178  -10.1387 C   0  0  0  0  0  0  0  0  0  0  0  0
   24.0345  -19.8903  -13.5673 C   0  0  0  0  0  0  0  0  0  0  0  0
   23.4180  -18.7716  -13.6133 O   0  0  0  0  0  0  0  0  0  0  0  0
   21.3710  -22.0199  -15.0058 O   0  0  0  0  0  0  0  0  0  0  0  0
   21.0144  -22.0133  -13.6540 C   0  0  0  0  0  0  0  0  0  0  0  0
   21.8034  -20.8798  -13.0172 C   0  0  2  0  0  0  0  0  0  0  0  0
   23.2173  -21.0014  -13.3002 N   0  0  0  0  0  0  0  0  0  0  0  0
   21.4757  -20.7563  -11.5999 C   0  0  0  0  0  0  0  0  0  0  0  0
   20.1643  -20.5762  -11.2031 O   0  0  0  0  0  0  0  0  0  0  0  0
   22.4130  -20.8154  -10.7297 O   0  0  0  0  0  0  0  0  0  0  0  0
  2  1  1  0
  3  2  1  0
  4  3  1  0
  4  5  1  0
  5  7  1  0
  5  6  1  6
  7  8  2  0
  9 10  1  0
  9  7  1  0
 10 11  1  1
 12 11  1  0
 13 12  2  0
 14 13  1  0
 15 14  1  0
 15 20  2  0
 16 15  1  0
 17 16  2  0
 17 18  1  0
 18 19  2  0
 19 20  1  0
 20 12  1  0
 21 22  2  0
 21 10  1  0
 23 24  1  0
 25 24  1  1
 25 27  1  0
 25 26  1  0
 26 21  1  0
 27 28  1  0
 29 27  2  0
M  END
$$$$
