MWS.pdb
     RDKit          3D

 29 30  0  0  1  0  0  0  0  0999 V2000
   23.6612  -27.0694  -19.1738 C   0  0  0  0  0  0  0  0  0  0  0  0
   25.1482  -26.0603  -19.0346 S   0  0  0  0  0  0  0  0  0  0  0  0
   25.7719  -26.1660  -17.3358 C   0  0  0  0  0  0  0  0  0  0  0  0
   24.9235  -25.3544  -16.3787 C   0  0  0  0  0  0  0  0  0  0  0  0
   25.3013  -23.8875  -16.4170 C   0  0  2  0  0  0  0  0  0  0  0  0
   26.6857  -23.6876  -16.0248 N   0  0  0  0  0  0  0  0  0  0  0  0
   24.3884  -23.1701  -15.4874 C   0  0  0  0  0  0  0  0  0  0  0  0
   24.4223  -23.5054  -14.2711 O   0  0  0  0  0  0  0  0  0  0  0  0
   23.5093  -22.1495  -15.9247 N   0  0  0  0  0  0  0  0  0  0  0  0
   22.6449  -21.4588  -14.9321 C   0  0  1  0  0  0  0  0  0  0  0  0
   22.5205  -20.0447  -15.3743 C   0  0  0  0  0  0  0  0  0  0  0  0
   21.7170  -19.2036  -14.4844 C   0  0  0  0  0  0  0  0  0  0  0  0
   21.5542  -19.2892  -13.1099 C   0  0  0  0  0  0  0  0  0  0  0  0
   20.6971  -18.3415  -12.7110 N   0  0  0  0  0  0  0  0  0  0  0  0
   20.2988  -17.6421  -13.7932 C   0  0  0  0  0  0  0  0  0  0  0  0
   19.4280  -16.5795  -13.8863 C   0  0  0  0  0  0  0  0  0  0  0  0
   19.1925  -16.0402  -15.1533 C   0  0  0  0  0  0  0  0  0  0  0  0
   19.7982  -16.5399  -16.2676 C   0  0  0  0  0  0  0  0  0  0  0  0
   20.6824  -17.6200  -16.1671 C   0  0  0  0  0  0  0  0  0  0  0  0
   20.9165  -18.1566  -14.9045 C   0  0  0  0  0  0  0  0  0  0  0  0
   21.3650  -22.1613  -14.8452 C   0  0  0  0  0  0  0  0  0  0  0  0
   20.8032  -22.5872  -15.9112 O   0  0  0  0  0  0  0  0  0  0  0  0
   19.4046  -22.9898  -11.3220 O   0  0  0  0  0  0  0  0  0  0  0  0
   19.1633  -23.8825  -12.3706 C   0  0  0  0  0  0  0  0  0  0  0  0
   19.3721  -23.0910  -13.6523 C   0  0  2  0  0  0  0  0  0  0  0  0
   20.6626  -22.4364  -13.6601 N   0  0  0  0  0  0  0  0  0  0  0  0
   18.2393  -22.2042  -13.9008 C   0  0  0  0  0  0  0  0  0  0  0  0
   16.9787  -22.7297  -14.1120 O   0  0  0  0  0  0  0  0  0  0  0  0
   18.4244  -20.9374  -13.9221 O   0  0  0  0  0  0  0  0  0  0  0  0
  2  1  1  0
  3  2  1  0
  4  3  1  0
  4  5  1  0
  5  7  1  0
  5  6  1  1
  7  8  2  0
  9 10  1  0
  9  7  1  0
 10 11  1  6
 12 11  1  0
 13 12  2  0
 14 13  1  0
 15 14  1  0
 15 20  2  0
 16 15  1  0
 17 16  2  0
 17 18  1  0
 18 19  2  0
 19 20  1  0
 20 12  1  0
 21 22  2  0
 21 10  1  0
 23 24  1  0
 25 24  1  1
 25 27  1  0
 25 26  1  0
 26 21  1  0
 27 28  1  0
 29 27  2  0
M  END
$$$$
