MWS.pdb
     RDKit          3D

 29 30  0  0  1  0  0  0  0  0999 V2000
   29.4019  -18.3405  -18.4448 C   0  0  0  0  0  0  0  0  0  0  0  0
   28.3907  -18.9909  -17.1019 S   0  0  0  0  0  0  0  0  0  0  0  0
   29.0377  -20.6121  -16.6126 C   0  0  0  0  0  0  0  0  0  0  0  0
   28.2292  -21.2177  -15.4839 C   0  0  0  0  0  0  0  0  0  0  0  0
   27.7049  -20.1483  -14.5472 C   0  0  2  0  0  0  0  0  0  0  0  0
   28.7890  -19.4797  -13.8484 N   0  0  0  0  0  0  0  0  0  0  0  0
   26.7942  -20.8149  -13.5784 C   0  0  0  0  0  0  0  0  0  0  0  0
   26.3842  -21.9716  -13.8730 O   0  0  0  0  0  0  0  0  0  0  0  0
   26.3904  -20.1982  -12.3692 N   0  0  0  0  0  0  0  0  0  0  0  0
   25.4464  -20.9107  -11.4687 C   0  0  1  0  0  0  0  0  0  0  0  0
   25.7002  -20.4119  -10.0912 C   0  0  0  0  0  0  0  0  0  0  0  0
   27.0018  -20.7969   -9.5412 C   0  0  0  0  0  0  0  0  0  0  0  0
   27.9626  -21.6420  -10.0757 C   0  0  0  0  0  0  0  0  0  0  0  0
   28.9840  -21.7421   -9.2163 N   0  0  0  0  0  0  0  0  0  0  0  0
   28.7102  -20.9825   -8.1361 C   0  0  0  0  0  0  0  0  0  0  0  0
   29.4522  -20.7686   -6.9960 C   0  0  0  0  0  0  0  0  0  0  0  0
   28.9183  -19.9222   -6.0214 C   0  0  0  0  0  0  0  0  0  0  0  0
   27.7048  -19.3221   -6.1815 C   0  0  0  0  0  0  0  0  0  0  0  0
   26.9549  -19.5431   -7.3423 C   0  0  0  0  0  0  0  0  0  0  0  0
   27.4876  -20.3863   -8.3128 C   0  0  0  0  0  0  0  0  0  0  0  0
   24.0792  -20.6798  -11.9339 C   0  0  0  0  0  0  0  0  0  0  0  0
   23.6964  -19.4920  -12.2094 O   0  0  0  0  0  0  0  0  0  0  0  0
   20.3143  -22.1749  -14.1876 O   0  0  0  0  0  0  0  0  0  0  0  0
   21.0430  -22.6003  -13.0729 C   0  0  0  0  0  0  0  0  0  0  0  0
   21.7497  -21.3649  -12.5368 C   0  0  2  0  0  0  0  0  0  0  0  0
   23.1029  -21.6716  -12.1262 N   0  0  0  0  0  0  0  0  0  0  0  0
   20.9384  -20.7095  -11.5153 C   0  0  0  0  0  0  0  0  0  0  0  0
   19.7826  -20.0399  -11.8698 O   0  0  0  0  0  0  0  0  0  0  0  0
   21.3074  -20.7598  -10.2903 O   0  0  0  0  0  0  0  0  0  0  0  0
  2  1  1  0
  3  2  1  0
  4  3  1  0
  4  5  1  0
  5  7  1  0
  5  6  1  1
  7  8  2  0
  9 10  1  0
  9  7  1  0
 10 11  1  1
 12 11  1  0
 13 12  2  0
 14 13  1  0
 15 14  1  0
 15 20  2  0
 16 15  1  0
 17 16  2  0
 17 18  1  0
 18 19  2  0
 19 20  1  0
 20 12  1  0
 21 22  2  0
 21 10  1  0
 23 24  1  0
 25 24  1  1
 25 27  1  0
 25 26  1  0
 26 21  1  0
 27 28  1  0
 29 27  2  0
M  END
$$$$
