MWS.pdb
     RDKit          3D

 29 30  0  0  1  0  0  0  0  0999 V2000
   25.5945  -18.7658  -16.9230 C   0  0  0  0  0  0  0  0  0  0  0  0
   26.9730  -17.7545  -16.3520 S   0  0  0  0  0  0  0  0  0  0  0  0
   27.9662  -18.7223  -15.1843 C   0  0  0  0  0  0  0  0  0  0  0  0
   27.0942  -19.4748  -14.2006 C   0  0  0  0  0  0  0  0  0  0  0  0
   27.9296  -20.3110  -13.2525 C   0  0  2  0  0  0  0  0  0  0  0  0
   28.5776  -21.4099  -13.9475 N   0  0  0  0  0  0  0  0  0  0  0  0
   27.0183  -20.8281  -12.1968 C   0  0  0  0  0  0  0  0  0  0  0  0
   26.5834  -22.0049  -12.3350 O   0  0  0  0  0  0  0  0  0  0  0  0
   26.6404  -20.0521  -11.0741 N   0  0  0  0  0  0  0  0  0  0  0  0
   25.7518  -20.6488  -10.0427 C   0  0  1  0  0  0  0  0  0  0  0  0
   26.0313  -19.9398   -8.7660 C   0  0  0  0  0  0  0  0  0  0  0  0
   27.3296  -20.2620   -8.1695 C   0  0  0  0  0  0  0  0  0  0  0  0
   28.4283  -20.8811   -8.7461 C   0  0  0  0  0  0  0  0  0  0  0  0
   29.3902  -21.0123   -7.8245 N   0  0  0  0  0  0  0  0  0  0  0  0
   28.9430  -20.4934   -6.6627 C   0  0  0  0  0  0  0  0  0  0  0  0
   29.5676  -20.4000   -5.4391 C   0  0  0  0  0  0  0  0  0  0  0  0
   28.8595  -19.8077   -4.3906 C   0  0  0  0  0  0  0  0  0  0  0  0
   27.5924  -19.3343   -4.5602 C   0  0  0  0  0  0  0  0  0  0  0  0
   26.9625  -19.4319   -5.8061 C   0  0  0  0  0  0  0  0  0  0  0  0
   27.6687  -20.0218   -6.8501 C   0  0  0  0  0  0  0  0  0  0  0  0
   24.3631  -20.5330  -10.4864 C   0  0  0  0  0  0  0  0  0  0  0  0
   23.9866  -19.4899  -11.1219 O   0  0  0  0  0  0  0  0  0  0  0  0
   19.8494  -21.7733   -9.9366 O   0  0  0  0  0  0  0  0  0  0  0  0
   21.0797  -22.3888  -10.1859 C   0  0  0  0  0  0  0  0  0  0  0  0
   21.9931  -21.2985  -10.7244 C   0  0  2  0  0  0  0  0  0  0  0  0
   23.3582  -21.4941  -10.2861 N   0  0  0  0  0  0  0  0  0  0  0  0
   21.4450  -19.9769  -10.4340 C   0  0  0  0  0  0  0  0  0  0  0  0
   20.4562  -19.4427  -11.2381 O   0  0  0  0  0  0  0  0  0  0  0  0
   21.8889  -19.3182   -9.4298 O   0  0  0  0  0  0  0  0  0  0  0  0
  2  1  1  0
  3  2  1  0
  4  3  1  0
  4  5  1  0
  5  7  1  0
  5  6  1  6
  7  8  2  0
  9 10  1  0
  9  7  1  0
 10 11  1  1
 12 11  1  0
 13 12  2  0
 14 13  1  0
 15 14  1  0
 15 20  2  0
 16 15  1  0
 17 16  2  0
 17 18  1  0
 18 19  2  0
 19 20  1  0
 20 12  1  0
 21 22  2  0
 21 10  1  0
 23 24  1  0
 25 24  1  1
 25 27  1  0
 25 26  1  0
 26 21  1  0
 27 28  1  0
 29 27  2  0
M  END
$$$$
