MWS.pdb
     RDKit          3D

 29 30  0  0  1  0  0  0  0  0999 V2000
   23.9021  -14.5431  -15.3746 C   0  0  0  0  0  0  0  0  0  0  0  0
   24.7755  -16.0222  -14.8282 S   0  0  0  0  0  0  0  0  0  0  0  0
   25.7088  -16.7022  -16.2257 C   0  0  0  0  0  0  0  0  0  0  0  0
   26.4577  -17.9601  -15.8368 C   0  0  0  0  0  0  0  0  0  0  0  0
   26.7662  -17.9805  -14.3534 C   0  0  2  0  0  0  0  0  0  0  0  0
   28.0582  -17.3781  -14.0737 N   0  0  0  0  0  0  0  0  0  0  0  0
   26.7493  -19.4021  -13.9164 C   0  0  0  0  0  0  0  0  0  0  0  0
   27.7637  -20.1021  -14.1887 O   0  0  0  0  0  0  0  0  0  0  0  0
   25.6530  -19.9694  -13.2222 N   0  0  0  0  0  0  0  0  0  0  0  0
   25.7043  -21.4012  -12.8264 C   0  0  1  0  0  0  0  0  0  0  0  0
   25.0928  -21.5004  -11.4748 C   0  0  0  0  0  0  0  0  0  0  0  0
   25.8985  -20.9092  -10.4041 C   0  0  0  0  0  0  0  0  0  0  0  0
   25.5070  -20.0559   -9.3835 C   0  0  0  0  0  0  0  0  0  0  0  0
   26.5789  -19.7293   -8.6511 N   0  0  0  0  0  0  0  0  0  0  0  0
   27.6575  -20.3496   -9.1712 C   0  0  0  0  0  0  0  0  0  0  0  0
   28.9734  -20.3203   -8.7667 C   0  0  0  0  0  0  0  0  0  0  0  0
   29.8968  -21.0680   -9.5014 C   0  0  0  0  0  0  0  0  0  0  0  0
   29.5207  -21.8058  -10.5842 C   0  0  0  0  0  0  0  0  0  0  0  0
   28.1818  -21.8319  -10.9909 C   0  0  0  0  0  0  0  0  0  0  0  0
   27.2625  -21.0870  -10.2583 C   0  0  0  0  0  0  0  0  0  0  0  0
   25.0179  -22.2002  -13.8412 C   0  0  0  0  0  0  0  0  0  0  0  0
   24.0516  -21.6883  -14.5027 O   0  0  0  0  0  0  0  0  0  0  0  0
   26.5565  -24.8098  -16.2413 O   0  0  0  0  0  0  0  0  0  0  0  0
   25.3894  -25.4065  -15.7549 C   0  0  0  0  0  0  0  0  0  0  0  0
   24.5621  -24.2813  -15.1529 C   0  0  2  0  0  0  0  0  0  0  0  0
   25.3290  -23.5261  -14.1856 N   0  0  0  0  0  0  0  0  0  0  0  0
   23.2869  -24.7885  -14.6550 C   0  0  0  0  0  0  0  0  0  0  0  0
   22.8838  -24.5074  -13.3634 O   0  0  0  0  0  0  0  0  0  0  0  0
   22.5473  -25.4958  -15.4245 O   0  0  0  0  0  0  0  0  0  0  0  0
  2  1  1  0
  3  2  1  0
  4  3  1  0
  4  5  1  0
  5  7  1  0
  5  6  1  6
  7  8  2  0
  9 10  1  0
  9  7  1  0
 10 11  1  1
 12 11  1  0
 13 12  2  0
 14 13  1  0
 15 14  1  0
 15 20  2  0
 16 15  1  0
 17 16  2  0
 17 18  1  0
 18 19  2  0
 19 20  1  0
 20 12  1  0
 21 22  2  0
 21 10  1  0
 23 24  1  0
 25 24  1  1
 25 27  1  0
 25 26  1  0
 26 21  1  0
 27 28  1  0
 29 27  2  0
M  END
$$$$
