MWS.pdb
     RDKit          3D

 29 30  0  0  1  0  0  0  0  0999 V2000
   30.3811  -17.5477  -15.5106 C   0  0  0  0  0  0  0  0  0  0  0  0
   29.8472  -17.9637  -17.1812 S   0  0  0  0  0  0  0  0  0  0  0  0
   29.6775  -19.7638  -17.3116 C   0  0  0  0  0  0  0  0  0  0  0  0
   29.0709  -20.3590  -16.0577 C   0  0  0  0  0  0  0  0  0  0  0  0
   27.5584  -20.3953  -16.1419 C   0  0  2  0  0  0  0  0  0  0  0  0
   27.0059  -19.0620  -16.3076 N   0  0  0  0  0  0  0  0  0  0  0  0
   27.0590  -21.0130  -14.8844 C   0  0  0  0  0  0  0  0  0  0  0  0
   27.4305  -22.1928  -14.6332 O   0  0  0  0  0  0  0  0  0  0  0  0
   26.2022  -20.3262  -13.9902 N   0  0  0  0  0  0  0  0  0  0  0  0
   25.5115  -21.0862  -12.9155 C   0  0  1  0  0  0  0  0  0  0  0  0
   25.7180  -20.3336  -11.6499 C   0  0  0  0  0  0  0  0  0  0  0  0
   26.9780  -20.6363  -10.9676 C   0  0  0  0  0  0  0  0  0  0  0  0
   28.1667  -21.1161  -11.4967 C   0  0  0  0  0  0  0  0  0  0  0  0
   29.0495  -21.2869  -10.5050 N   0  0  0  0  0  0  0  0  0  0  0  0
   28.4632  -20.9299   -9.3442 C   0  0  0  0  0  0  0  0  0  0  0  0
   28.9673  -20.9332   -8.0628 C   0  0  0  0  0  0  0  0  0  0  0  0
   28.1265  -20.5075   -7.0316 C   0  0  0  0  0  0  0  0  0  0  0  0
   26.8481  -20.1002   -7.2726 C   0  0  0  0  0  0  0  0  0  0  0  0
   26.3409  -20.0989   -8.5770 C   0  0  0  0  0  0  0  0  0  0  0  0
   27.1793  -20.5229   -9.6037 C   0  0  0  0  0  0  0  0  0  0  0  0
   24.1041  -21.2502  -13.2779 C   0  0  0  0  0  0  0  0  0  0  0  0
   23.3822  -20.2182  -13.4956 O   0  0  0  0  0  0  0  0  0  0  0  0
   22.1479  -24.8559  -13.4184 O   0  0  0  0  0  0  0  0  0  0  0  0
   21.7437  -23.9529  -14.4063 C   0  0  0  0  0  0  0  0  0  0  0  0
   22.0595  -22.5678  -13.8635 C   0  0  2  0  0  0  0  0  0  0  0  0
   23.4360  -22.4770  -13.4265 N   0  0  0  0  0  0  0  0  0  0  0  0
   21.0760  -22.1706  -12.8604 C   0  0  0  0  0  0  0  0  0  0  0  0
   19.7277  -22.1911  -13.1630 O   0  0  0  0  0  0  0  0  0  0  0  0
   21.4735  -21.8030  -11.7001 O   0  0  0  0  0  0  0  0  0  0  0  0
  2  1  1  0
  3  2  1  0
  4  3  1  0
  4  5  1  0
  5  7  1  0
  5  6  1  1
  7  8  2  0
  9 10  1  0
  9  7  1  0
 10 11  1  1
 12 11  1  0
 13 12  2  0
 14 13  1  0
 15 14  1  0
 15 20  2  0
 16 15  1  0
 17 16  2  0
 17 18  1  0
 18 19  2  0
 19 20  1  0
 20 12  1  0
 21 22  2  0
 21 10  1  0
 23 24  1  0
 25 24  1  1
 25 27  1  0
 25 26  1  0
 26 21  1  0
 27 28  1  0
 29 27  2  0
M  END
$$$$
