MWS.pdb
     RDKit          3D

 29 30  0  0  1  0  0  0  0  0999 V2000
   30.1050  -17.6151  -17.1438 C   0  0  0  0  0  0  0  0  0  0  0  0
   28.3554  -17.2138  -17.3084 S   0  0  0  0  0  0  0  0  0  0  0  0
   27.5827  -17.2761  -15.6696 C   0  0  0  0  0  0  0  0  0  0  0  0
   26.9664  -18.6322  -15.3949 C   0  0  0  0  0  0  0  0  0  0  0  0
   27.8274  -19.4468  -14.4508 C   0  0  2  0  0  0  0  0  0  0  0  0
   28.7999  -20.2447  -15.1774 N   0  0  0  0  0  0  0  0  0  0  0  0
   26.9176  -20.3233  -13.6657 C   0  0  0  0  0  0  0  0  0  0  0  0
   26.6257  -21.4460  -14.1630 O   0  0  0  0  0  0  0  0  0  0  0  0
   26.3888  -19.9369  -12.4101 N   0  0  0  0  0  0  0  0  0  0  0  0
   25.5953  -20.9161  -11.6220 C   0  0  1  0  0  0  0  0  0  0  0  0
   25.7766  -20.5680  -10.1879 C   0  0  0  0  0  0  0  0  0  0  0  0
   27.1349  -20.7806   -9.6833 C   0  0  0  0  0  0  0  0  0  0  0  0
   28.1962  -21.4447  -10.2795 C   0  0  0  0  0  0  0  0  0  0  0  0
   29.2434  -21.4333   -9.4458 N   0  0  0  0  0  0  0  0  0  0  0  0
   28.8882  -20.7778   -8.3219 C   0  0  0  0  0  0  0  0  0  0  0  0
   29.6199  -20.5121   -7.1861 C   0  0  0  0  0  0  0  0  0  0  0  0
   28.9920  -19.8045   -6.1582 C   0  0  0  0  0  0  0  0  0  0  0  0
   27.6990  -19.3857   -6.2637 C   0  0  0  0  0  0  0  0  0  0  0  0
   26.9601  -19.6586   -7.4205 C   0  0  0  0  0  0  0  0  0  0  0  0
   27.5864  -20.3634   -8.4441 C   0  0  0  0  0  0  0  0  0  0  0  0
   24.2027  -20.8674  -12.0662 C   0  0  0  0  0  0  0  0  0  0  0  0
   23.6448  -19.7370  -12.2772 O   0  0  0  0  0  0  0  0  0  0  0  0
   20.3379  -22.8759  -14.0639 O   0  0  0  0  0  0  0  0  0  0  0  0
   21.6223  -23.1240  -13.5704 C   0  0  0  0  0  0  0  0  0  0  0  0
   22.0378  -21.8632  -12.8283 C   0  0  2  0  0  0  0  0  0  0  0  0
   23.3812  -21.9820  -12.3039 N   0  0  0  0  0  0  0  0  0  0  0  0
   21.0301  -21.4914  -11.8395 C   0  0  0  0  0  0  0  0  0  0  0  0
   19.7830  -21.0579  -12.2475 O   0  0  0  0  0  0  0  0  0  0  0  0
   21.3124  -21.5697  -10.5931 O   0  0  0  0  0  0  0  0  0  0  0  0
  2  1  1  0
  3  2  1  0
  4  3  1  0
  4  5  1  0
  5  7  1  0
  5  6  1  6
  7  8  2  0
  9 10  1  0
  9  7  1  0
 10 11  1  1
 12 11  1  0
 13 12  2  0
 14 13  1  0
 15 14  1  0
 15 20  2  0
 16 15  1  0
 17 16  2  0
 17 18  1  0
 18 19  2  0
 19 20  1  0
 20 12  1  0
 21 22  2  0
 21 10  1  0
 23 24  1  0
 25 24  1  1
 25 27  1  0
 25 26  1  0
 26 21  1  0
 27 28  1  0
 29 27  2  0
M  END
$$$$
