KVQ.pdb
     RDKit          3D

 26 25  0  0  1  0  0  0  0  0999 V2000
   25.9076  -20.7873   -8.9156 N   0  0  0  0  0  0  0  0  0  0  0  0
   25.1155  -21.0141  -10.1374 C   0  0  1  0  0  0  0  0  0  0  0  0
   23.7200  -20.5257   -9.8561 C   0  0  0  0  0  0  0  0  0  0  0  0
   22.9715  -21.2944   -8.8283 C   0  0  0  0  0  0  0  0  0  0  0  0
   21.5146  -20.9527   -8.7396 C   0  0  0  0  0  0  0  0  0  0  0  0
   20.7768  -21.7432   -7.6986 C   0  0  0  0  0  0  0  0  0  0  0  0
   20.6786  -23.1368   -7.9958 N   0  0  0  0  0  0  0  0  0  0  0  0
   25.8025  -20.2382  -11.2072 C   0  0  0  0  0  0  0  0  0  0  0  0
   26.2676  -19.0908  -10.8915 O   0  0  0  0  0  0  0  0  0  0  0  0
   28.3810  -20.3077  -15.3524 C   0  0  0  0  0  0  0  0  0  0  0  0
   27.4813  -20.8858  -14.3226 C   0  0  2  0  0  0  0  0  0  0  0  0
   26.4474  -21.7675  -15.0344 C   0  0  0  0  0  0  0  0  0  0  0  0
   26.7138  -19.9168  -13.4834 C   0  0  2  0  0  0  0  0  0  0  0  0
   25.9545  -20.7129  -12.5249 N   0  0  0  0  0  0  0  0  0  0  0  0
   25.8402  -19.0845  -14.3064 C   0  0  0  0  0  0  0  0  0  0  0  0
   24.7861  -19.6413  -14.7851 O   0  0  0  0  0  0  0  0  0  0  0  0
   25.8591  -12.8541  -15.7596 N   0  0  0  0  0  0  0  0  0  0  0  0
   24.8760  -13.3837  -16.6163 C   0  0  0  0  0  0  0  0  0  0  0  0
   24.2996  -12.6545  -17.4380 O   0  0  0  0  0  0  0  0  0  0  0  0
   24.5076  -14.8337  -16.5529 C   0  0  0  0  0  0  0  0  0  0  0  0
   25.3560  -15.5694  -15.5660 C   0  0  0  0  0  0  0  0  0  0  0  0
   25.0290  -17.0254  -15.5101 C   0  0  2  0  0  0  0  0  0  0  0  0
   25.9932  -17.7331  -14.6506 N   0  0  0  0  0  0  0  0  0  0  0  0
   25.0407  -17.6833  -16.8223 C   0  0  0  0  0  0  0  0  0  0  0  0
   26.2583  -18.1155  -17.3866 O   0  0  0  0  0  0  0  0  0  0  0  0
   23.9978  -17.9065  -17.5258 O   0  0  0  0  0  0  0  0  0  0  0  0
  2  3  1  0
  2  1  1  1
  4  5  1  0
  4  3  1  0
  5  6  1  0
  7  6  1  0
  8  9  2  0
  8  2  1  0
 11 10  1  6
 11 13  1  0
 11 12  1  0
 13 15  1  0
 13 14  1  1
 14  8  1  0
 15 16  2  0
 17 18  1  0
 18 20  1  0
 18 19  2  0
 20 21  1  0
 22 21  1  6
 22 24  1  0
 23 22  1  0
 23 15  1  0
 24 26  2  0
 24 25  1  0
M  END
$$$$
