KVQ.pdb
     RDKit          3D

 26 25  0  0  1  0  0  0  0  0999 V2000
   27.9679  -22.0342  -16.0110 N   0  0  0  0  0  0  0  0  0  0  0  0
   27.5679  -20.8049  -15.3036 C   0  0  1  0  0  0  0  0  0  0  0  0
   27.0907  -19.8305  -16.3466 C   0  0  0  0  0  0  0  0  0  0  0  0
   28.1602  -19.1780  -17.1453 C   0  0  0  0  0  0  0  0  0  0  0  0
   28.7537  -20.0480  -18.2120 C   0  0  0  0  0  0  0  0  0  0  0  0
   29.8471  -19.3775  -18.9916 C   0  0  0  0  0  0  0  0  0  0  0  0
   30.5666  -20.2617  -19.8521 N   0  0  0  0  0  0  0  0  0  0  0  0
   26.4957  -21.2209  -14.3572 C   0  0  0  0  0  0  0  0  0  0  0  0
   25.5681  -21.9702  -14.8161 O   0  0  0  0  0  0  0  0  0  0  0  0
   24.8176  -21.3558   -9.6814 C   0  0  0  0  0  0  0  0  0  0  0  0
   25.7753  -20.9703  -10.7483 C   0  0  2  0  0  0  0  0  0  0  0  0
   25.9758  -19.4510  -10.6819 C   0  0  0  0  0  0  0  0  0  0  0  0
   25.3778  -21.2898  -12.1526 C   0  0  2  0  0  0  0  0  0  0  0  0
   26.4678  -20.8268  -13.0049 N   0  0  0  0  0  0  0  0  0  0  0  0
   24.1116  -20.6499  -12.4997 C   0  0  0  0  0  0  0  0  0  0  0  0
   24.1414  -19.3871  -12.7335 O   0  0  0  0  0  0  0  0  0  0  0  0
   19.8588  -21.9403  -16.5690 N   0  0  0  0  0  0  0  0  0  0  0  0
   19.2883  -20.8013  -15.9706 C   0  0  0  0  0  0  0  0  0  0  0  0
   18.2850  -20.2664  -16.4673 O   0  0  0  0  0  0  0  0  0  0  0  0
   19.8793  -20.2145  -14.7263 C   0  0  0  0  0  0  0  0  0  0  0  0
   21.1075  -20.9551  -14.3041 C   0  0  0  0  0  0  0  0  0  0  0  0
   21.6507  -20.4596  -13.0043 C   0  0  2  0  0  0  0  0  0  0  0  0
   22.8423  -21.2352  -12.6195 N   0  0  0  0  0  0  0  0  0  0  0  0
   20.6927  -20.5416  -11.8950 C   0  0  0  0  0  0  0  0  0  0  0  0
   19.6970  -19.5547  -11.7453 O   0  0  0  0  0  0  0  0  0  0  0  0
   20.6846  -21.4698  -11.0171 O   0  0  0  0  0  0  0  0  0  0  0  0
  2  3  1  0
  2  1  1  6
  4  5  1  0
  4  3  1  0
  5  6  1  0
  7  6  1  0
  8  9  2  0
  8  2  1  0
 11 10  1  1
 11 13  1  0
 11 12  1  0
 13 15  1  0
 13 14  1  6
 14  8  1  0
 15 16  2  0
 17 18  1  0
 18 20  1  0
 18 19  2  0
 20 21  1  0
 22 21  1  6
 22 24  1  0
 23 22  1  0
 23 15  1  0
 24 26  2  0
 24 25  1  0
M  END
$$$$
