KVQ.pdb
     RDKit          3D

 26 25  0  0  1  0  0  0  0  0999 V2000
   17.2410  -14.6681  -18.0341 N   0  0  0  0  0  0  0  0  0  0  0  0
   18.1228  -14.3345  -16.9016 C   0  0  1  0  0  0  0  0  0  0  0  0
   19.2045  -15.3802  -16.8610 C   0  0  0  0  0  0  0  0  0  0  0  0
   18.7463  -16.7584  -16.5479 C   0  0  0  0  0  0  0  0  0  0  0  0
   19.8503  -17.7655  -16.4297 C   0  0  0  0  0  0  0  0  0  0  0  0
   19.3604  -19.1693  -16.2247 C   0  0  0  0  0  0  0  0  0  0  0  0
   20.4000  -20.1488  -16.2300 N   0  0  0  0  0  0  0  0  0  0  0  0
   18.6407  -12.9678  -17.1891 C   0  0  0  0  0  0  0  0  0  0  0  0
   18.9546  -12.7033  -18.3990 O   0  0  0  0  0  0  0  0  0  0  0  0
   17.6817   -9.6595  -14.9511 C   0  0  0  0  0  0  0  0  0  0  0  0
   18.2677   -9.6760  -16.3150 C   0  0  2  0  0  0  0  0  0  0  0  0
   17.1422   -9.9750  -17.3134 C   0  0  0  0  0  0  0  0  0  0  0  0
   19.3447  -10.6798  -16.5691 C   0  0  2  0  0  0  0  0  0  0  0  0
   18.7934  -11.9787  -16.1976 N   0  0  0  0  0  0  0  0  0  0  0  0
   20.5485  -10.3653  -15.8042 C   0  0  0  0  0  0  0  0  0  0  0  0
   20.6196  -10.8340  -14.6102 O   0  0  0  0  0  0  0  0  0  0  0  0
   26.3190  -11.3068  -16.8849 N   0  0  0  0  0  0  0  0  0  0  0  0
   26.4189  -10.6656  -15.6360 C   0  0  0  0  0  0  0  0  0  0  0  0
   27.4936  -10.6612  -15.0161 O   0  0  0  0  0  0  0  0  0  0  0  0
   25.2333   -9.9782  -15.0327 C   0  0  0  0  0  0  0  0  0  0  0  0
   24.0345  -10.0784  -15.9205 C   0  0  0  0  0  0  0  0  0  0  0  0
   22.8335   -9.4162  -15.3297 C   0  0  2  0  0  0  0  0  0  0  0  0
   21.6623   -9.6104  -16.2015 N   0  0  0  0  0  0  0  0  0  0  0  0
   22.9973   -7.9719  -15.1247 C   0  0  0  0  0  0  0  0  0  0  0  0
   23.1657   -7.4563  -13.8233 O   0  0  0  0  0  0  0  0  0  0  0  0
   22.9999   -7.1064  -16.0645 O   0  0  0  0  0  0  0  0  0  0  0  0
  2  3  1  0
  2  1  1  6
  4  5  1  0
  4  3  1  0
  5  6  1  0
  7  6  1  0
  8  9  2  0
  8  2  1  0
 11 10  1  1
 11 13  1  0
 11 12  1  0
 13 15  1  0
 13 14  1  1
 14  8  1  0
 15 16  2  0
 17 18  1  0
 18 20  1  0
 18 19  2  0
 20 21  1  0
 22 21  1  6
 22 24  1  0
 23 22  1  0
 23 15  1  0
 24 26  2  0
 24 25  1  0
M  END
$$$$
