KVQ.pdb
     RDKit          3D

 26 25  0  0  1  0  0  0  0  0999 V2000
   27.4050  -21.7193  -16.4582 N   0  0  0  0  0  0  0  0  0  0  0  0
   26.6666  -20.5700  -15.9055 C   0  0  1  0  0  0  0  0  0  0  0  0
   25.7853  -20.0411  -17.0050 C   0  0  0  0  0  0  0  0  0  0  0  0
   26.4992  -19.4128  -18.1465 C   0  0  0  0  0  0  0  0  0  0  0  0
   27.5670  -18.4392  -17.7480 C   0  0  0  0  0  0  0  0  0  0  0  0
   28.2524  -17.7914  -18.9157 C   0  0  0  0  0  0  0  0  0  0  0  0
   29.3724  -16.9838  -18.5507 N   0  0  0  0  0  0  0  0  0  0  0  0
   25.8990  -21.1089  -14.7484 C   0  0  0  0  0  0  0  0  0  0  0  0
   25.1809  -22.1454  -14.9539 O   0  0  0  0  0  0  0  0  0  0  0  0
   26.9755  -21.3211  -10.8219 C   0  0  0  0  0  0  0  0  0  0  0  0
   25.6654  -20.6898  -11.1206 C   0  0  2  0  0  0  0  0  0  0  0  0
   24.6728  -21.1144  -10.0310 C   0  0  0  0  0  0  0  0  0  0  0  0
   25.0381  -21.0367  -12.4314 C   0  0  2  0  0  0  0  0  0  0  0  0
   25.9352  -20.5299  -13.4646 N   0  0  0  0  0  0  0  0  0  0  0  0
   23.7019  -20.4579  -12.5450 C   0  0  0  0  0  0  0  0  0  0  0  0
   23.6283  -19.1814  -12.6709 O   0  0  0  0  0  0  0  0  0  0  0  0
   19.7083  -19.1197  -16.3930 N   0  0  0  0  0  0  0  0  0  0  0  0
   20.0556  -20.4793  -16.2853 C   0  0  0  0  0  0  0  0  0  0  0  0
   19.8091  -21.2662  -17.2123 O   0  0  0  0  0  0  0  0  0  0  0  0
   20.7274  -21.0013  -15.0532 C   0  0  0  0  0  0  0  0  0  0  0  0
   21.0351  -19.8991  -14.0911 C   0  0  0  0  0  0  0  0  0  0  0  0
   21.1877  -20.3940  -12.6905 C   0  0  2  0  0  0  0  0  0  0  0  0
   22.4628  -21.1156  -12.5396 N   0  0  0  0  0  0  0  0  0  0  0  0
   20.1140  -21.3001  -12.2649 C   0  0  0  0  0  0  0  0  0  0  0  0
   18.8394  -20.7877  -11.9477 O   0  0  0  0  0  0  0  0  0  0  0  0
   20.2421  -22.5664  -12.1525 O   0  0  0  0  0  0  0  0  0  0  0  0
  2  3  1  0
  2  1  1  6
  4  5  1  0
  4  3  1  0
  5  6  1  0
  7  6  1  0
  8  9  2  0
  8  2  1  0
 11 10  1  1
 11 13  1  0
 11 12  1  0
 13 15  1  0
 13 14  1  6
 14  8  1  0
 15 16  2  0
 17 18  1  0
 18 20  1  0
 18 19  2  0
 20 21  1  0
 22 21  1  6
 22 24  1  0
 23 22  1  0
 23 15  1  0
 24 26  2  0
 24 25  1  0
M  END
$$$$
