KVQ.pdb
     RDKit          3D

 26 25  0  0  1  0  0  0  0  0999 V2000
   18.4669  -23.2739  -10.0756 N   0  0  0  0  0  0  0  0  0  0  0  0
   18.1253  -23.0892  -11.4972 C   0  0  1  0  0  0  0  0  0  0  0  0
   16.6268  -23.1768  -11.6064 C   0  0  0  0  0  0  0  0  0  0  0  0
   16.0879  -24.5298  -11.9008 C   0  0  0  0  0  0  0  0  0  0  0  0
   16.2875  -25.5281  -10.8005 C   0  0  0  0  0  0  0  0  0  0  0  0
   15.7111  -26.8796  -11.1068 C   0  0  0  0  0  0  0  0  0  0  0  0
   14.2853  -26.8924  -11.1903 N   0  0  0  0  0  0  0  0  0  0  0  0
   18.6614  -21.7491  -11.8648 C   0  0  0  0  0  0  0  0  0  0  0  0
   18.5641  -20.8203  -10.9929 O   0  0  0  0  0  0  0  0  0  0  0  0
   20.9860  -21.1637  -15.3495 C   0  0  0  0  0  0  0  0  0  0  0  0
   21.0560  -20.3228  -14.1280 C   0  0  2  0  0  0  0  0  0  0  0  0
   22.0559  -20.9697  -13.1612 C   0  0  0  0  0  0  0  0  0  0  0  0
   19.7829  -20.1377  -13.3684 C   0  0  2  0  0  0  0  0  0  0  0  0
   19.2585  -21.4748  -13.1110 N   0  0  0  0  0  0  0  0  0  0  0  0
   18.8345  -19.3214  -14.1217 C   0  0  0  0  0  0  0  0  0  0  0  0
   17.9480  -19.9449  -14.8116 O   0  0  0  0  0  0  0  0  0  0  0  0
   17.2281  -13.1710  -13.8179 N   0  0  0  0  0  0  0  0  0  0  0  0
   16.4894  -13.6318  -14.9237 C   0  0  0  0  0  0  0  0  0  0  0  0
   15.7166  -12.8697  -15.5248 O   0  0  0  0  0  0  0  0  0  0  0  0
   16.6213  -15.0469  -15.3950 C   0  0  0  0  0  0  0  0  0  0  0  0
   17.6035  -15.8091  -14.5645 C   0  0  0  0  0  0  0  0  0  0  0  0
   17.7228  -17.2349  -14.9920 C   0  0  2  0  0  0  0  0  0  0  0  0
   18.7528  -17.9229  -14.1950 N   0  0  0  0  0  0  0  0  0  0  0  0
   18.0764  -17.3988  -16.4072 C   0  0  0  0  0  0  0  0  0  0  0  0
   19.4181  -17.2708  -16.8210 O   0  0  0  0  0  0  0  0  0  0  0  0
   17.2365  -17.6579  -17.3345 O   0  0  0  0  0  0  0  0  0  0  0  0
  2  3  1  0
  2  1  1  1
  4  5  1  0
  4  3  1  0
  5  6  1  0
  7  6  1  0
  8  9  2  0
  8  2  1  0
 11 10  1  6
 11 13  1  0
 11 12  1  0
 13 15  1  0
 13 14  1  6
 14  8  1  0
 15 16  2  0
 17 18  1  0
 18 20  1  0
 18 19  2  0
 20 21  1  0
 22 21  1  1
 22 24  1  0
 23 22  1  0
 23 15  1  0
 24 26  2  0
 24 25  1  0
M  END
$$$$
