KVQ.pdb
     RDKit          3D

 26 25  0  0  1  0  0  0  0  0999 V2000
   12.7857  -11.4247  -10.9900 N   0  0  0  0  0  0  0  0  0  0  0  0
   14.2347  -11.1587  -10.9572 C   0  0  1  0  0  0  0  0  0  0  0  0
   14.8164  -11.7242  -12.2249 C   0  0  0  0  0  0  0  0  0  0  0  0
   14.7149  -13.1994  -12.3694 C   0  0  0  0  0  0  0  0  0  0  0  0
   15.1927  -13.7261  -13.6890 C   0  0  0  0  0  0  0  0  0  0  0  0
   14.9385  -15.1936  -13.8752 C   0  0  0  0  0  0  0  0  0  0  0  0
   15.5201  -15.7328  -15.0631 N   0  0  0  0  0  0  0  0  0  0  0  0
   14.3659   -9.6781  -10.8628 C   0  0  0  0  0  0  0  0  0  0  0  0
   13.5851   -8.9737  -11.5885 O   0  0  0  0  0  0  0  0  0  0  0  0
   13.7175   -7.4351   -7.9657 C   0  0  0  0  0  0  0  0  0  0  0  0
   15.0890   -7.2420   -8.5001 C   0  0  2  0  0  0  0  0  0  0  0  0
   15.4587   -5.7620   -8.3395 C   0  0  0  0  0  0  0  0  0  0  0  0
   15.3015   -7.5837   -9.9390 C   0  0  2  0  0  0  0  0  0  0  0  0
   15.2987   -9.0405  -10.0213 N   0  0  0  0  0  0  0  0  0  0  0  0
   16.5528   -7.0171  -10.4353 C   0  0  0  0  0  0  0  0  0  0  0  0
   17.6331   -7.6523  -10.1525 O   0  0  0  0  0  0  0  0  0  0  0  0
   20.5434   -8.0084  -12.2877 N   0  0  0  0  0  0  0  0  0  0  0  0
   20.5457   -7.1965  -13.4372 C   0  0  0  0  0  0  0  0  0  0  0  0
   21.5896   -7.0296  -14.0866 O   0  0  0  0  0  0  0  0  0  0  0  0
   19.2917   -6.5200  -13.8978 C   0  0  0  0  0  0  0  0  0  0  0  0
   18.1600   -6.7670  -12.9525 C   0  0  0  0  0  0  0  0  0  0  0  0
   17.9533   -5.6312  -12.0052 C   0  0  2  0  0  0  0  0  0  0  0  0
   16.7426   -5.8542  -11.1967 N   0  0  0  0  0  0  0  0  0  0  0  0
   17.8087   -4.3294  -12.6679 C   0  0  0  0  0  0  0  0  0  0  0  0
   18.9257   -3.4817  -12.8145 O   0  0  0  0  0  0  0  0  0  0  0  0
   16.7107   -3.8804  -13.1426 O   0  0  0  0  0  0  0  0  0  0  0  0
  2  3  1  0
  2  1  1  6
  4  5  1  0
  4  3  1  0
  5  6  1  0
  7  6  1  0
  8  9  2  0
  8  2  1  0
 11 10  1  6
 11 13  1  0
 11 12  1  0
 13 15  1  0
 13 14  1  1
 14  8  1  0
 15 16  2  0
 17 18  1  0
 18 20  1  0
 18 19  2  0
 20 21  1  0
 22 21  1  6
 22 24  1  0
 23 22  1  0
 23 15  1  0
 24 26  2  0
 24 25  1  0
M  END
$$$$
