KVQ.pdb
     RDKit          3D

 26 25  0  0  1  0  0  0  0  0999 V2000
   20.0423  -21.1627  -11.3180 N   0  0  0  0  0  0  0  0  0  0  0  0
   20.8746  -21.7843  -12.3632 C   0  0  1  0  0  0  0  0  0  0  0  0
   20.0209  -21.8993  -13.5974 C   0  0  0  0  0  0  0  0  0  0  0  0
   19.0704  -23.0411  -13.6101 C   0  0  0  0  0  0  0  0  0  0  0  0
   18.4966  -23.3833  -12.2681 C   0  0  0  0  0  0  0  0  0  0  0  0
   17.4447  -24.4526  -12.3220 C   0  0  0  0  0  0  0  0  0  0  0  0
   17.8148  -25.6589  -11.6528 N   0  0  0  0  0  0  0  0  0  0  0  0
   22.0389  -20.8723  -12.5400 C   0  0  0  0  0  0  0  0  0  0  0  0
   21.8406  -19.6253  -12.3454 O   0  0  0  0  0  0  0  0  0  0  0  0
   25.9328  -22.3940  -13.2245 C   0  0  0  0  0  0  0  0  0  0  0  0
   25.6441  -21.1284  -12.5040 C   0  0  2  0  0  0  0  0  0  0  0  0
   25.4534  -21.4591  -11.0184 C   0  0  0  0  0  0  0  0  0  0  0  0
   24.4286  -20.3744  -12.9354 C   0  0  2  0  0  0  0  0  0  0  0  0
   23.3219  -21.3249  -12.9057 N   0  0  0  0  0  0  0  0  0  0  0  0
   24.6107  -19.7989  -14.2654 C   0  0  0  0  0  0  0  0  0  0  0  0
   24.4149  -20.5767  -15.2690 O   0  0  0  0  0  0  0  0  0  0  0  0
   22.9601  -14.6901  -16.7344 N   0  0  0  0  0  0  0  0  0  0  0  0
   23.8799  -15.0391  -17.7408 C   0  0  0  0  0  0  0  0  0  0  0  0
   23.7957  -14.5351  -18.8714 O   0  0  0  0  0  0  0  0  0  0  0  0
   24.9752  -16.0228  -17.4675 C   0  0  0  0  0  0  0  0  0  0  0  0
   24.9060  -16.5410  -16.0668 C   0  0  0  0  0  0  0  0  0  0  0  0
   25.0404  -18.0269  -16.0038 C   0  0  2  0  0  0  0  0  0  0  0  0
   24.9732  -18.4873  -14.6063 N   0  0  0  0  0  0  0  0  0  0  0  0
   26.2955  -18.5303  -16.5751 C   0  0  0  0  0  0  0  0  0  0  0  0
   26.4009  -18.7572  -17.9626 O   0  0  0  0  0  0  0  0  0  0  0  0
   27.3439  -18.7915  -15.8932 O   0  0  0  0  0  0  0  0  0  0  0  0
  2  3  1  0
  2  1  1  1
  4  5  1  0
  4  3  1  0
  5  6  1  0
  7  6  1  0
  8  9  2  0
  8  2  1  0
 11 10  1  6
 11 13  1  0
 11 12  1  0
 13 15  1  0
 13 14  1  6
 14  8  1  0
 15 16  2  0
 17 18  1  0
 18 20  1  0
 18 19  2  0
 20 21  1  0
 22 21  1  1
 22 24  1  0
 23 22  1  0
 23 15  1  0
 24 26  2  0
 24 25  1  0
M  END
$$$$
