KVQ.pdb
     RDKit          3D

 26 25  0  0  1  0  0  0  0  0999 V2000
   18.9780  -16.0685  -16.3599 N   0  0  0  0  0  0  0  0  0  0  0  0
   18.1216  -14.9605  -16.8186 C   0  0  1  0  0  0  0  0  0  0  0  0
   16.7556  -15.1843  -16.2276 C   0  0  0  0  0  0  0  0  0  0  0  0
   15.9721  -16.2904  -16.8360 C   0  0  0  0  0  0  0  0  0  0  0  0
   15.6399  -17.4057  -15.8911 C   0  0  0  0  0  0  0  0  0  0  0  0
   14.7676  -18.4652  -16.4988 C   0  0  0  0  0  0  0  0  0  0  0  0
   14.4225  -19.5157  -15.5948 N   0  0  0  0  0  0  0  0  0  0  0  0
   18.7774  -13.7185  -16.3227 C   0  0  0  0  0  0  0  0  0  0  0  0
   19.5532  -13.8289  -15.3136 O   0  0  0  0  0  0  0  0  0  0  0  0
   20.6314   -9.3329  -17.1908 C   0  0  0  0  0  0  0  0  0  0  0  0
   19.9264  -10.6027  -17.4982 C   0  0  2  0  0  0  0  0  0  0  0  0
   18.8304  -10.3016  -18.5282 C   0  0  0  0  0  0  0  0  0  0  0  0
   19.2609  -11.2936  -16.3528 C   0  0  2  0  0  0  0  0  0  0  0  0
   18.5776  -12.4549  -16.9127 N   0  0  0  0  0  0  0  0  0  0  0  0
   18.3320  -10.3993  -15.6667 C   0  0  0  0  0  0  0  0  0  0  0  0
   17.2767  -10.0494  -16.3103 O   0  0  0  0  0  0  0  0  0  0  0  0
   16.5648   -6.6024   -9.5496 N   0  0  0  0  0  0  0  0  0  0  0  0
   16.8497   -7.8058  -10.2215 C   0  0  0  0  0  0  0  0  0  0  0  0
   17.3057   -8.7789   -9.6015 O   0  0  0  0  0  0  0  0  0  0  0  0
   16.6087   -7.9348  -11.6937 C   0  0  0  0  0  0  0  0  0  0  0  0
   17.5305   -8.9367  -12.3115 C   0  0  0  0  0  0  0  0  0  0  0  0
   17.3850   -9.0023  -13.7962 C   0  0  2  0  0  0  0  0  0  0  0  0
   18.4322   -9.8615  -14.3748 N   0  0  0  0  0  0  0  0  0  0  0  0
   17.4725   -7.6938  -14.4558 C   0  0  0  0  0  0  0  0  0  0  0  0
   18.7319   -7.1250  -14.7356 O   0  0  0  0  0  0  0  0  0  0  0  0
   16.4623   -6.9976  -14.8124 O   0  0  0  0  0  0  0  0  0  0  0  0
  2  3  1  0
  2  1  1  1
  4  5  1  0
  4  3  1  0
  5  6  1  0
  7  6  1  0
  8  9  2  0
  8  2  1  0
 11 10  1  1
 11 13  1  0
 11 12  1  0
 13 15  1  0
 13 14  1  6
 14  8  1  0
 15 16  2  0
 17 18  1  0
 18 20  1  0
 18 19  2  0
 20 21  1  0
 22 21  1  1
 22 24  1  0
 23 22  1  0
 23 15  1  0
 24 26  2  0
 24 25  1  0
M  END
$$$$
