KVQ.pdb
     RDKit          3D

 26 25  0  0  1  0  0  0  0  0999 V2000
   27.9346  -21.3324  -15.1813 N   0  0  0  0  0  0  0  0  0  0  0  0
   27.5800  -20.2905  -14.2014 C   0  0  1  0  0  0  0  0  0  0  0  0
   26.8834  -19.1915  -14.9578 C   0  0  0  0  0  0  0  0  0  0  0  0
   27.6604  -18.5965  -16.0758 C   0  0  0  0  0  0  0  0  0  0  0  0
   28.8755  -17.8310  -15.6460 C   0  0  0  0  0  0  0  0  0  0  0  0
   29.5963  -17.1656  -16.7819 C   0  0  0  0  0  0  0  0  0  0  0  0
   28.8198  -16.1735  -17.4547 N   0  0  0  0  0  0  0  0  0  0  0  0
   26.7007  -20.9634  -13.2051 C   0  0  0  0  0  0  0  0  0  0  0  0
   25.9131  -21.8714  -13.6382 O   0  0  0  0  0  0  0  0  0  0  0  0
   25.0801  -21.2826   -8.5192 C   0  0  0  0  0  0  0  0  0  0  0  0
   26.0027  -20.8095   -9.5817 C   0  0  2  0  0  0  0  0  0  0  0  0
   26.1224  -19.2848   -9.4642 C   0  0  0  0  0  0  0  0  0  0  0  0
   25.6057  -21.1014  -10.9922 C   0  0  2  0  0  0  0  0  0  0  0  0
   26.7059  -20.6421  -11.8334 N   0  0  0  0  0  0  0  0  0  0  0  0
   24.3508  -20.4370  -11.3340 C   0  0  0  0  0  0  0  0  0  0  0  0
   24.4327  -19.2503  -11.8193 O   0  0  0  0  0  0  0  0  0  0  0  0
   22.1590  -22.3623  -15.9146 N   0  0  0  0  0  0  0  0  0  0  0  0
   21.0559  -21.5298  -15.6482 C   0  0  0  0  0  0  0  0  0  0  0  0
   20.1638  -21.3779  -16.4969 O   0  0  0  0  0  0  0  0  0  0  0  0
   20.9378  -20.8132  -14.3387 C   0  0  0  0  0  0  0  0  0  0  0  0
   22.0858  -21.1335  -13.4361 C   0  0  0  0  0  0  0  0  0  0  0  0
   21.9497  -20.4916  -12.0947 C   0  0  2  0  0  0  0  0  0  0  0  0
   23.0420  -20.9259  -11.2072 N   0  0  0  0  0  0  0  0  0  0  0  0
   20.6829  -20.7990  -11.4196 C   0  0  0  0  0  0  0  0  0  0  0  0
   19.4707  -20.2802  -11.9188 O   0  0  0  0  0  0  0  0  0  0  0  0
   20.5815  -21.5266  -10.3743 O   0  0  0  0  0  0  0  0  0  0  0  0
  2  3  1  0
  2  1  1  6
  4  5  1  0
  4  3  1  0
  5  6  1  0
  7  6  1  0
  8  9  2  0
  8  2  1  0
 11 10  1  1
 11 13  1  0
 11 12  1  0
 13 15  1  0
 13 14  1  6
 14  8  1  0
 15 16  2  0
 17 18  1  0
 18 20  1  0
 18 19  2  0
 20 21  1  0
 22 21  1  6
 22 24  1  0
 23 22  1  0
 23 15  1  0
 24 26  2  0
 24 25  1  0
M  END
$$$$
