KVQ.pdb
     RDKit          3D

 26 25  0  0  1  0  0  0  0  0999 V2000
   25.6978  -20.9836   -9.4856 N   0  0  0  0  0  0  0  0  0  0  0  0
   24.3185  -20.9593  -10.0039 C   0  0  1  0  0  0  0  0  0  0  0  0
   23.5638  -19.9325   -9.2032 C   0  0  0  0  0  0  0  0  0  0  0  0
   22.1231  -20.2256   -8.9885 C   0  0  0  0  0  0  0  0  0  0  0  0
   21.8500  -21.5590   -8.3604 C   0  0  0  0  0  0  0  0  0  0  0  0
   20.3889  -21.8907   -8.2714 C   0  0  0  0  0  0  0  0  0  0  0  0
   20.1271  -23.2396   -7.8815 N   0  0  0  0  0  0  0  0  0  0  0  0
   24.4409  -20.6033  -11.4450 C   0  0  0  0  0  0  0  0  0  0  0  0
   25.3204  -19.7319  -11.7602 O   0  0  0  0  0  0  0  0  0  0  0  0
   25.5745  -22.5387  -14.2442 C   0  0  0  0  0  0  0  0  0  0  0  0
   24.2505  -21.9663  -14.5954 C   0  0  2  0  0  0  0  0  0  0  0  0
   24.2816  -21.5683  -16.0765 C   0  0  0  0  0  0  0  0  0  0  0  0
   23.8216  -20.7543  -13.8343 C   0  0  2  0  0  0  0  0  0  0  0  0
   23.6398  -21.1797  -12.4505 N   0  0  0  0  0  0  0  0  0  0  0  0
   22.5951  -20.1898  -14.3913 C   0  0  0  0  0  0  0  0  0  0  0  0
   21.5332  -20.9083  -14.3101 O   0  0  0  0  0  0  0  0  0  0  0  0
   21.1710  -14.4430  -16.8191 N   0  0  0  0  0  0  0  0  0  0  0  0
   19.9168  -15.0680  -16.6886 C   0  0  0  0  0  0  0  0  0  0  0  0
   18.8768  -14.4568  -16.9789 O   0  0  0  0  0  0  0  0  0  0  0  0
   19.8132  -16.4790  -16.1982 C   0  0  0  0  0  0  0  0  0  0  0  0
   21.1592  -17.0450  -15.8770 C   0  0  0  0  0  0  0  0  0  0  0  0
   21.0884  -18.4775  -15.4612 C   0  0  2  0  0  0  0  0  0  0  0  0
   22.4108  -18.9452  -15.0119 N   0  0  0  0  0  0  0  0  0  0  0  0
   20.6396  -19.3799  -16.5285 C   0  0  0  0  0  0  0  0  0  0  0  0
   19.2911  -19.7867  -16.5912 O   0  0  0  0  0  0  0  0  0  0  0  0
   21.3990  -19.8478  -17.4433 O   0  0  0  0  0  0  0  0  0  0  0  0
  2  3  1  0
  2  1  1  1
  4  5  1  0
  4  3  1  0
  5  6  1  0
  7  6  1  0
  8  9  2  0
  8  2  1  0
 11 10  1  1
 11 13  1  0
 11 12  1  0
 13 15  1  0
 13 14  1  1
 14  8  1  0
 15 16  2  0
 17 18  1  0
 18 20  1  0
 18 19  2  0
 20 21  1  0
 22 21  1  6
 22 24  1  0
 23 22  1  0
 23 15  1  0
 24 26  2  0
 24 25  1  0
M  END
$$$$
