KVQ.pdb
     RDKit          3D

 26 25  0  0  1  0  0  0  0  0999 V2000
   22.5653  -14.1908  -16.8960 N   0  0  0  0  0  0  0  0  0  0  0  0
   22.6678  -12.8939  -17.5881 C   0  0  1  0  0  0  0  0  0  0  0  0
   21.3713  -12.6812  -18.3223 C   0  0  0  0  0  0  0  0  0  0  0  0
   20.9626  -13.7873  -19.2261 C   0  0  0  0  0  0  0  0  0  0  0  0
   19.7448  -13.4951  -20.0499 C   0  0  0  0  0  0  0  0  0  0  0  0
   19.3491  -14.6253  -20.9549 C   0  0  0  0  0  0  0  0  0  0  0  0
   18.1412  -14.3874  -21.6792 N   0  0  0  0  0  0  0  0  0  0  0  0
   22.9049  -11.8877  -16.5158 C   0  0  0  0  0  0  0  0  0  0  0  0
   22.2174  -12.0005  -15.4448 O   0  0  0  0  0  0  0  0  0  0  0  0
   26.3133   -9.3949  -16.4222 C   0  0  0  0  0  0  0  0  0  0  0  0
   25.4581   -9.7858  -15.2734 C   0  0  2  0  0  0  0  0  0  0  0  0
   25.9203  -11.1637  -14.7828 C   0  0  0  0  0  0  0  0  0  0  0  0
   23.9914   -9.8938  -15.5365 C   0  0  2  0  0  0  0  0  0  0  0  0
   23.8386  -10.8397  -16.6370 N   0  0  0  0  0  0  0  0  0  0  0  0
   23.4175   -8.5905  -15.8611 C   0  0  0  0  0  0  0  0  0  0  0  0
   23.6407   -8.1326  -17.0405 O   0  0  0  0  0  0  0  0  0  0  0  0
   17.5482   -4.4720  -16.0142 N   0  0  0  0  0  0  0  0  0  0  0  0
   18.4065   -5.5673  -16.2251 C   0  0  0  0  0  0  0  0  0  0  0  0
   17.9427   -6.6881  -16.4855 O   0  0  0  0  0  0  0  0  0  0  0  0
   19.8923   -5.4016  -16.1396 C   0  0  0  0  0  0  0  0  0  0  0  0
   20.5541   -6.6544  -15.6623 C   0  0  0  0  0  0  0  0  0  0  0  0
   22.0360   -6.5067  -15.5512 C   0  0  2  0  0  0  0  0  0  0  0  0
   22.6375   -7.7539  -15.0489 N   0  0  0  0  0  0  0  0  0  0  0  0
   22.4551   -5.4219  -14.6554 C   0  0  0  0  0  0  0  0  0  0  0  0
   22.3322   -4.0784  -15.0650 O   0  0  0  0  0  0  0  0  0  0  0  0
   22.9423   -5.5993  -13.4877 O   0  0  0  0  0  0  0  0  0  0  0  0
  2  3  1  0
  2  1  1  1
  4  5  1  0
  4  3  1  0
  5  6  1  0
  7  6  1  0
  8  9  2  0
  8  2  1  0
 11 10  1  6
 11 13  1  0
 11 12  1  0
 13 15  1  0
 13 14  1  6
 14  8  1  0
 15 16  2  0
 17 18  1  0
 18 20  1  0
 18 19  2  0
 20 21  1  0
 22 21  1  1
 22 24  1  0
 23 22  1  0
 23 15  1  0
 24 26  2  0
 24 25  1  0
M  END
$$$$
