KVQ.pdb
     RDKit          3D

 26 25  0  0  1  0  0  0  0  0999 V2000
   20.5275  -20.5081  -12.0171 N   0  0  0  0  0  0  0  0  0  0  0  0
   21.4212  -21.4660  -12.6918 C   0  0  1  0  0  0  0  0  0  0  0  0
   20.8335  -21.7368  -14.0506 C   0  0  0  0  0  0  0  0  0  0  0  0
   19.5183  -22.4279  -14.0493 C   0  0  0  0  0  0  0  0  0  0  0  0
   19.5808  -23.8760  -13.6671 C   0  0  0  0  0  0  0  0  0  0  0  0
   18.2434  -24.5571  -13.6814 C   0  0  0  0  0  0  0  0  0  0  0  0
   18.2768  -25.9022  -13.2022 N   0  0  0  0  0  0  0  0  0  0  0  0
   22.7503  -20.7964  -12.7519 C   0  0  0  0  0  0  0  0  0  0  0  0
   22.7615  -19.5343  -12.9501 O   0  0  0  0  0  0  0  0  0  0  0  0
   26.1222  -21.5371  -10.5762 C   0  0  0  0  0  0  0  0  0  0  0  0
   26.2683  -21.5173  -12.0534 C   0  0  2  0  0  0  0  0  0  0  0  0
   27.6117  -20.8580  -12.3903 C   0  0  0  0  0  0  0  0  0  0  0  0
   25.2221  -20.7757  -12.8201 C   0  0  2  0  0  0  0  0  0  0  0  0
   23.9680  -21.4888  -12.6016 N   0  0  0  0  0  0  0  0  0  0  0  0
   25.5618  -20.7026  -14.2387 C   0  0  0  0  0  0  0  0  0  0  0  0
   25.7107  -21.8168  -14.8607 O   0  0  0  0  0  0  0  0  0  0  0  0
   22.7227  -17.7629  -18.4209 N   0  0  0  0  0  0  0  0  0  0  0  0
   23.7566  -16.9417  -17.9339 C   0  0  0  0  0  0  0  0  0  0  0  0
   23.7018  -15.7106  -18.0775 O   0  0  0  0  0  0  0  0  0  0  0  0
   24.9400  -17.5361  -17.2349 C   0  0  0  0  0  0  0  0  0  0  0  0
   24.8872  -19.0302  -17.2476 C   0  0  0  0  0  0  0  0  0  0  0  0
   26.0114  -19.6446  -16.4804 C   0  0  2  0  0  0  0  0  0  0  0  0
   25.7481  -19.5618  -15.0336 N   0  0  0  0  0  0  0  0  0  0  0  0
   27.3116  -19.0105  -16.7300 C   0  0  0  0  0  0  0  0  0  0  0  0
   27.9346  -18.2511  -15.7185 O   0  0  0  0  0  0  0  0  0  0  0  0
   27.9532  -19.0915  -17.8319 O   0  0  0  0  0  0  0  0  0  0  0  0
  2  3  1  0
  2  1  1  1
  4  5  1  0
  4  3  1  0
  5  6  1  0
  7  6  1  0
  8  9  2  0
  8  2  1  0
 11 10  1  1
 11 13  1  0
 11 12  1  0
 13 15  1  0
 13 14  1  6
 14  8  1  0
 15 16  2  0
 17 18  1  0
 18 20  1  0
 18 19  2  0
 20 21  1  0
 22 21  1  6
 22 24  1  0
 23 22  1  0
 23 15  1  0
 24 26  2  0
 24 25  1  0
M  END
$$$$
