KVQ.pdb
     RDKit          3D

 26 25  0  0  1  0  0  0  0  0999 V2000
   26.0941  -18.6424  -17.6020 N   0  0  0  0  0  0  0  0  0  0  0  0
   24.9640  -19.3532  -16.9782 C   0  0  1  0  0  0  0  0  0  0  0  0
   24.4017  -20.2863  -18.0166 C   0  0  0  0  0  0  0  0  0  0  0  0
   24.2510  -19.7084  -19.3771 C   0  0  0  0  0  0  0  0  0  0  0  0
   23.7791  -18.2857  -19.3960 C   0  0  0  0  0  0  0  0  0  0  0  0
   23.5188  -17.7598  -20.7775 C   0  0  0  0  0  0  0  0  0  0  0  0
   23.1266  -16.3868  -20.8068 N   0  0  0  0  0  0  0  0  0  0  0  0
   25.5404  -20.0644  -15.8033 C   0  0  0  0  0  0  0  0  0  0  0  0
   24.9216  -21.1009  -15.3848 O   0  0  0  0  0  0  0  0  0  0  0  0
   29.5649  -20.4155  -14.7456 C   0  0  0  0  0  0  0  0  0  0  0  0
   28.5811  -19.9607  -13.7310 C   0  0  2  0  0  0  0  0  0  0  0  0
   28.9918  -20.5455  -12.3738 C   0  0  0  0  0  0  0  0  0  0  0  0
   27.1574  -20.3545  -13.9550 C   0  0  2  0  0  0  0  0  0  0  0  0
   26.7168  -19.6449  -15.1514 N   0  0  0  0  0  0  0  0  0  0  0  0
   26.3316  -20.0244  -12.7964 C   0  0  0  0  0  0  0  0  0  0  0  0
   26.1824  -18.7780  -12.5229 O   0  0  0  0  0  0  0  0  0  0  0  0
   20.6955  -21.2697  -11.4241 N   0  0  0  0  0  0  0  0  0  0  0  0
   21.0477  -20.4851  -10.3100 C   0  0  0  0  0  0  0  0  0  0  0  0
   20.1744  -20.0677   -9.5340 O   0  0  0  0  0  0  0  0  0  0  0  0
   22.4795  -20.1396  -10.0404 C   0  0  0  0  0  0  0  0  0  0  0  0
   23.3815  -20.6871  -11.0996 C   0  0  0  0  0  0  0  0  0  0  0  0
   24.8217  -20.4113  -10.8171 C   0  0  2  0  0  0  0  0  0  0  0  0
   25.6618  -20.8966  -11.9254 N   0  0  0  0  0  0  0  0  0  0  0  0
   25.3115  -21.0387   -9.5837 C   0  0  0  0  0  0  0  0  0  0  0  0
   25.1629  -20.3789   -8.3466 O   0  0  0  0  0  0  0  0  0  0  0  0
   25.8853  -22.1792   -9.5341 O   0  0  0  0  0  0  0  0  0  0  0  0
  2  3  1  0
  2  1  1  6
  4  5  1  0
  4  3  1  0
  5  6  1  0
  7  6  1  0
  8  9  2  0
  8  2  1  0
 11 10  1  6
 11 13  1  0
 11 12  1  0
 13 15  1  0
 13 14  1  6
 14  8  1  0
 15 16  2  0
 17 18  1  0
 18 20  1  0
 18 19  2  0
 20 21  1  0
 22 21  1  6
 22 24  1  0
 23 22  1  0
 23 15  1  0
 24 26  2  0
 24 25  1  0
M  END
$$$$
