GIK.pdb
     RDKit          3D

 22 21  0  0  1  0  0  0  0  0999 V2000
    4.4152  -18.8784   23.9754 N   0  0  0  0  0  0  0  0  0  0  0  0
    5.0476  -18.2558   25.1105 C   0  0  0  0  0  0  0  0  0  0  0  0
    5.9300  -17.1617   24.6356 C   0  0  0  0  0  0  0  0  0  0  0  0
    6.3600  -17.1703   23.4363 O   0  0  0  0  0  0  0  0  0  0  0  0
    5.9649  -12.1379   27.1241 C   0  0  0  0  0  0  0  0  0  0  0  0
    5.9616  -13.2314   26.0321 C   0  0  0  0  0  0  0  0  0  0  0  0
    7.2557  -13.9632   26.0513 C   0  0  2  0  0  0  0  0  0  0  0  0
    8.3749  -12.9660   25.8064 C   0  0  0  0  0  0  0  0  0  0  0  0
    7.3557  -15.1416   25.1095 C   0  0  2  0  0  0  0  0  0  0  0  0
    6.2973  -16.1139   25.4962 N   0  0  0  0  0  0  0  0  0  0  0  0
    8.6599  -15.8388   25.1668 C   0  0  0  0  0  0  0  0  0  0  0  0
    8.9891  -16.5520   26.1697 O   0  0  0  0  0  0  0  0  0  0  0  0
    9.5731  -15.7366   24.1044 N   0  0  0  0  0  0  0  0  0  0  0  0
   10.7187  -16.7442   24.0070 C   0  0  1  0  0  0  0  0  0  0  0  0
   10.8472  -16.9199   22.5572 C   0  0  0  0  0  0  0  0  0  0  0  0
   11.5668  -17.8953   21.8002 C   0  0  0  0  0  0  0  0  0  0  0  0
   11.9270  -17.9168   20.3994 C   0  0  0  0  0  0  0  0  0  0  0  0
   12.6996  -19.0356   19.8358 C   0  0  0  0  0  0  0  0  0  0  0  0
   13.0161  -18.8809   18.4337 N   0  0  0  0  0  0  0  0  0  0  0  0
   11.7482  -16.1413   24.8096 C   0  0  0  0  0  0  0  0  0  0  0  0
   12.8645  -16.8483   25.2137 O   0  0  0  0  0  0  0  0  0  0  0  0
   11.6870  -14.9535   25.1835 O   0  0  0  0  0  0  0  0  0  0  0  0
  2  3  1  0
  2  1  1  0
  3 10  1  0
  4  3  2  0
  6  5  1  0
  7  9  1  0
  7  6  1  0
  7  8  1  6
  9 11  1  0
  9 10  1  1
 11 13  1  0
 11 12  2  0
 13 14  1  0
 14 20  1  0
 14 15  1  6
 16 15  1  0
 17 18  1  0
 17 16  1  0
 19 18  1  0
 20 21  1  0
 22 20  2  0
M  END
$$$$
