GIK.pdb
     RDKit          3D

 22 21  0  0  1  0  0  0  0  0999 V2000
   13.6988  -13.7858   18.5388 N   0  0  0  0  0  0  0  0  0  0  0  0
   12.6533  -14.7541   18.7513 C   0  0  0  0  0  0  0  0  0  0  0  0
   11.8894  -14.3851   19.9687 C   0  0  0  0  0  0  0  0  0  0  0  0
   12.4081  -13.6007   20.8281 O   0  0  0  0  0  0  0  0  0  0  0  0
    6.4955  -15.1788   19.6098 C   0  0  0  0  0  0  0  0  0  0  0  0
    8.0309  -15.0683   19.7448 C   0  0  0  0  0  0  0  0  0  0  0  0
    8.3825  -14.6163   21.1169 C   0  0  2  0  0  0  0  0  0  0  0  0
    7.7487  -13.2561   21.3515 C   0  0  0  0  0  0  0  0  0  0  0  0
    9.8588  -14.5966   21.4418 C   0  0  2  0  0  0  0  0  0  0  0  0
   10.5974  -14.8928   20.1840 N   0  0  0  0  0  0  0  0  0  0  0  0
   10.2581  -15.6003   22.4534 C   0  0  0  0  0  0  0  0  0  0  0  0
   10.8571  -16.6751   22.1233 O   0  0  0  0  0  0  0  0  0  0  0  0
    9.9903  -15.3885   23.8160 N   0  0  0  0  0  0  0  0  0  0  0  0
   10.7378  -16.2182   24.8600 C   0  0  1  0  0  0  0  0  0  0  0  0
   10.4694  -15.4707   26.0922 C   0  0  0  0  0  0  0  0  0  0  0  0
   10.9420  -15.6769   27.4250 C   0  0  0  0  0  0  0  0  0  0  0  0
   10.2163  -15.7814   28.6720 C   0  0  0  0  0  0  0  0  0  0  0  0
   10.9258  -16.0083   29.9414 C   0  0  0  0  0  0  0  0  0  0  0  0
   10.0513  -16.1443   31.0846 N   0  0  0  0  0  0  0  0  0  0  0  0
   10.2377  -17.5474   24.6345 C   0  0  0  0  0  0  0  0  0  0  0  0
    8.8835  -17.8209   24.6054 O   0  0  0  0  0  0  0  0  0  0  0  0
   10.9970  -18.5200   24.4561 O   0  0  0  0  0  0  0  0  0  0  0  0
  2  3  1  0
  2  1  1  0
  3 10  1  0
  4  3  2  0
  6  5  1  0
  7  9  1  0
  7  6  1  0
  7  8  1  6
  9 11  1  0
  9 10  1  6
 11 13  1  0
 11 12  2  0
 13 14  1  0
 14 20  1  0
 14 15  1  1
 16 15  1  0
 17 18  1  0
 17 16  1  0
 19 18  1  0
 20 21  1  0
 22 20  2  0
M  END
$$$$
