GIK.pdb
     RDKit          3D

 22 21  0  0  1  0  0  0  0  0999 V2000
    4.6725  -18.8167   23.6391 N   0  0  0  0  0  0  0  0  0  0  0  0
    4.9737  -17.9931   24.7822 C   0  0  0  0  0  0  0  0  0  0  0  0
    5.9902  -16.9825   24.3988 C   0  0  0  0  0  0  0  0  0  0  0  0
    6.5051  -17.0128   23.2338 O   0  0  0  0  0  0  0  0  0  0  0  0
    5.9696  -11.9657   26.7730 C   0  0  0  0  0  0  0  0  0  0  0  0
    6.0771  -13.0489   25.6762 C   0  0  0  0  0  0  0  0  0  0  0  0
    7.3282  -13.8301   25.8636 C   0  0  2  0  0  0  0  0  0  0  0  0
    8.5095  -12.8854   25.7248 C   0  0  0  0  0  0  0  0  0  0  0  0
    7.4854  -15.0394   24.9702 C   0  0  2  0  0  0  0  0  0  0  0  0
    6.3917  -15.9904   25.3087 N   0  0  0  0  0  0  0  0  0  0  0  0
    8.7747  -15.7443   25.1459 C   0  0  0  0  0  0  0  0  0  0  0  0
    9.0284  -16.4136   26.1997 O   0  0  0  0  0  0  0  0  0  0  0  0
    9.7577  -15.6985   24.1434 N   0  0  0  0  0  0  0  0  0  0  0  0
   10.8483  -16.7695   24.1197 C   0  0  1  0  0  0  0  0  0  0  0  0
   11.1901  -16.8246   22.6952 C   0  0  0  0  0  0  0  0  0  0  0  0
   10.9524  -17.8437   21.7220 C   0  0  0  0  0  0  0  0  0  0  0  0
   10.7678  -17.7490   20.2904 C   0  0  0  0  0  0  0  0  0  0  0  0
   10.4724  -18.9460   19.4866 C   0  0  0  0  0  0  0  0  0  0  0  0
   10.1420  -18.6590   18.1087 N   0  0  0  0  0  0  0  0  0  0  0  0
   11.7722  -16.3117   25.1220 C   0  0  0  0  0  0  0  0  0  0  0  0
   11.7933  -14.9971   25.5471 O   0  0  0  0  0  0  0  0  0  0  0  0
   12.6013  -17.0738   25.6569 O   0  0  0  0  0  0  0  0  0  0  0  0
  2  3  1  0
  2  1  1  0
  3 10  1  0
  4  3  2  0
  6  5  1  0
  7  9  1  0
  7  6  1  0
  7  8  1  6
  9 11  1  0
  9 10  1  1
 11 13  1  0
 11 12  2  0
 13 14  1  0
 14 20  1  0
 14 15  1  6
 16 15  1  0
 17 18  1  0
 17 16  1  0
 19 18  1  0
 20 21  1  0
 22 20  2  0
M  END
$$$$
