GIK.pdb
     RDKit          3D

 22 21  0  0  1  0  0  0  0  0999 V2000
    5.5031  -19.4537   25.0781 N   0  0  0  0  0  0  0  0  0  0  0  0
    5.6350  -18.3346   25.9760 C   0  0  0  0  0  0  0  0  0  0  0  0
    6.2945  -17.2137   25.2618 C   0  0  0  0  0  0  0  0  0  0  0  0
    6.6548  -17.3605   24.0486 O   0  0  0  0  0  0  0  0  0  0  0  0
    5.7132  -12.1652   27.3920 C   0  0  0  0  0  0  0  0  0  0  0  0
    5.7775  -13.2324   26.2762 C   0  0  0  0  0  0  0  0  0  0  0  0
    7.1853  -13.6680   26.0793 C   0  0  2  0  0  0  0  0  0  0  0  0
    7.9638  -12.5153   25.4691 C   0  0  0  0  0  0  0  0  0  0  0  0
    7.3723  -14.9387   25.2819 C   0  0  2  0  0  0  0  0  0  0  0  0
    6.5264  -15.9895   25.9106 N   0  0  0  0  0  0  0  0  0  0  0  0
    8.7690  -15.4275   25.2621 C   0  0  0  0  0  0  0  0  0  0  0  0
    9.3753  -15.7517   26.3346 O   0  0  0  0  0  0  0  0  0  0  0  0
    9.4657  -15.5542   24.0489 N   0  0  0  0  0  0  0  0  0  0  0  0
   10.7986  -16.3025   24.0297 C   0  0  1  0  0  0  0  0  0  0  0  0
   10.3977  -17.6263   23.5439 C   0  0  0  0  0  0  0  0  0  0  0  0
   11.1506  -18.8335   23.4100 C   0  0  0  0  0  0  0  0  0  0  0  0
   10.7703  -20.1215   22.8726 C   0  0  0  0  0  0  0  0  0  0  0  0
   11.6833  -21.2731   22.9547 C   0  0  0  0  0  0  0  0  0  0  0  0
   11.1049  -22.5132   22.4881 N   0  0  0  0  0  0  0  0  0  0  0  0
   11.6510  -15.4245   23.2745 C   0  0  0  0  0  0  0  0  0  0  0  0
   13.0232  -15.4240   23.4370 O   0  0  0  0  0  0  0  0  0  0  0  0
   11.1981  -14.6189   22.4377 O   0  0  0  0  0  0  0  0  0  0  0  0
  2  3  1  0
  2  1  1  0
  3 10  1  0
  4  3  2  0
  6  5  1  0
  7  9  1  0
  7  6  1  0
  7  8  1  6
  9 11  1  0
  9 10  1  1
 11 13  1  0
 11 12  2  0
 13 14  1  0
 14 20  1  0
 14 15  1  6
 16 15  1  0
 17 18  1  0
 17 16  1  0
 19 18  1  0
 20 21  1  0
 22 20  2  0
M  END
$$$$
