GIK.pdb
     RDKit          3D

 22 21  0  0  1  0  0  0  0  0999 V2000
    3.6231  -18.6300   20.1320 N   0  0  0  0  0  0  0  0  0  0  0  0
    3.8981  -17.4879   20.9661 C   0  0  0  0  0  0  0  0  0  0  0  0
    5.3639  -17.2631   21.0143 C   0  0  0  0  0  0  0  0  0  0  0  0
    6.1606  -18.2210   20.7481 O   0  0  0  0  0  0  0  0  0  0  0  0
    7.5536  -12.1632   20.1830 C   0  0  0  0  0  0  0  0  0  0  0  0
    7.3576  -13.6933   20.0921 C   0  0  0  0  0  0  0  0  0  0  0  0
    7.6125  -14.3114   21.4201 C   0  0  2  0  0  0  0  0  0  0  0  0
    9.0332  -13.9767   21.8408 C   0  0  0  0  0  0  0  0  0  0  0  0
    7.3491  -15.7972   21.5124 C   0  0  2  0  0  0  0  0  0  0  0  0
    5.8838  -16.0022   21.3510 N   0  0  0  0  0  0  0  0  0  0  0  0
    7.7544  -16.3932   22.8050 C   0  0  0  0  0  0  0  0  0  0  0  0
    7.0848  -16.1904   23.8697 O   0  0  0  0  0  0  0  0  0  0  0  0
    8.8938  -17.2103   22.8903 N   0  0  0  0  0  0  0  0  0  0  0  0
    9.2563  -17.8457   24.2326 C   0  0  1  0  0  0  0  0  0  0  0  0
    8.9025  -19.2508   24.0099 C   0  0  0  0  0  0  0  0  0  0  0  0
    8.9728  -20.3765   24.8875 C   0  0  0  0  0  0  0  0  0  0  0  0
    8.6257  -21.7629   24.6645 C   0  0  0  0  0  0  0  0  0  0  0  0
    8.6947  -22.7438   25.7596 C   0  0  0  0  0  0  0  0  0  0  0  0
    7.6611  -22.5813   26.7572 N   0  0  0  0  0  0  0  0  0  0  0  0
   10.6109  -17.4105   24.4405 C   0  0  0  0  0  0  0  0  0  0  0  0
   11.1855  -17.3926   25.6971 O   0  0  0  0  0  0  0  0  0  0  0  0
   11.3351  -17.0258   23.5014 O   0  0  0  0  0  0  0  0  0  0  0  0
  2  3  1  0
  2  1  1  0
  3 10  1  0
  4  3  2  0
  6  5  1  0
  7  9  1  0
  7  6  1  0
  7  8  1  6
  9 11  1  0
  9 10  1  1
 11 13  1  0
 11 12  2  0
 13 14  1  0
 14 20  1  0
 14 15  1  6
 16 15  1  0
 17 18  1  0
 17 16  1  0
 19 18  1  0
 20 21  1  0
 22 20  2  0
M  END
$$$$
