GIK.pdb
     RDKit          3D

 22 21  0  0  1  0  0  0  0  0999 V2000
   10.3683  -18.4275   27.5233 N   0  0  0  0  0  0  0  0  0  0  0  0
   10.4056  -17.0388   27.1417 C   0  0  0  0  0  0  0  0  0  0  0  0
    9.0591  -16.6272   26.6735 C   0  0  0  0  0  0  0  0  0  0  0  0
    8.1540  -17.5063   26.4970 O   0  0  0  0  0  0  0  0  0  0  0  0
    7.6220  -11.3330   27.4016 C   0  0  0  0  0  0  0  0  0  0  0  0
    7.6795  -12.8772   27.3856 C   0  0  0  0  0  0  0  0  0  0  0  0
    7.3215  -13.3784   26.0325 C   0  0  2  0  0  0  0  0  0  0  0  0
    5.9125  -12.9145   25.7058 C   0  0  0  0  0  0  0  0  0  0  0  0
    7.4697  -14.8686   25.8256 C   0  0  2  0  0  0  0  0  0  0  0  0
    8.7711  -15.2754   26.4222 N   0  0  0  0  0  0  0  0  0  0  0  0
    7.4731  -15.2733   24.4021 C   0  0  0  0  0  0  0  0  0  0  0  0
    6.3880  -15.4467   23.7575 O   0  0  0  0  0  0  0  0  0  0  0  0
    8.6835  -15.4718   23.7175 N   0  0  0  0  0  0  0  0  0  0  0  0
    8.6607  -15.6461   22.1989 C   0  0  1  0  0  0  0  0  0  0  0  0
    8.3451  -14.2896   21.7413 C   0  0  0  0  0  0  0  0  0  0  0  0
    7.7087  -13.8379   20.5442 C   0  0  0  0  0  0  0  0  0  0  0  0
    8.2441  -13.6376   19.2154 C   0  0  0  0  0  0  0  0  0  0  0  0
    7.3747  -13.2078   18.1082 C   0  0  0  0  0  0  0  0  0  0  0  0
    8.0633  -13.0631   16.8453 N   0  0  0  0  0  0  0  0  0  0  0  0
    9.9214  -16.2825   21.9280 C   0  0  0  0  0  0  0  0  0  0  0  0
   10.1343  -17.0166   20.7769 O   0  0  0  0  0  0  0  0  0  0  0  0
   10.8848  -16.2072   22.7157 O   0  0  0  0  0  0  0  0  0  0  0  0
  2  3  1  0
  2  1  1  0
  3 10  1  0
  4  3  2  0
  6  5  1  0
  7  9  1  0
  7  6  1  0
  7  8  1  1
  9 11  1  0
  9 10  1  6
 11 13  1  0
 11 12  2  0
 13 14  1  0
 14 20  1  0
 14 15  1  6
 16 15  1  0
 17 18  1  0
 17 16  1  0
 19 18  1  0
 20 21  1  0
 22 20  2  0
M  END
$$$$
