GIK.pdb
     RDKit          3D

 22 21  0  0  1  0  0  0  0  0999 V2000
    6.7194  -18.9350   17.7706 N   0  0  0  0  0  0  0  0  0  0  0  0
    6.4405  -18.4265   19.0895 C   0  0  0  0  0  0  0  0  0  0  0  0
    7.5543  -17.5436   19.5155 C   0  0  0  0  0  0  0  0  0  0  0  0
    8.7557  -17.8577   19.2306 O   0  0  0  0  0  0  0  0  0  0  0  0
    6.7134  -12.1218   20.1782 C   0  0  0  0  0  0  0  0  0  0  0  0
    7.4046  -13.4455   19.7806 C   0  0  0  0  0  0  0  0  0  0  0  0
    7.8865  -14.1458   21.0004 C   0  0  2  0  0  0  0  0  0  0  0  0
    8.9218  -13.2672   21.6812 C   0  0  0  0  0  0  0  0  0  0  0  0
    8.4120  -15.5470   20.7867 C   0  0  2  0  0  0  0  0  0  0  0  0
    7.2976  -16.3624   20.2312 N   0  0  0  0  0  0  0  0  0  0  0  0
    8.8821  -16.2011   22.0282 C   0  0  0  0  0  0  0  0  0  0  0  0
    8.0826  -16.4659   22.9840 O   0  0  0  0  0  0  0  0  0  0  0  0
   10.2325  -16.5558   22.1829 N   0  0  0  0  0  0  0  0  0  0  0  0
   10.6703  -17.2861   23.4526 C   0  0  1  0  0  0  0  0  0  0  0  0
   11.2343  -18.5263   22.9114 C   0  0  0  0  0  0  0  0  0  0  0  0
   10.6157  -19.7845   22.6346 C   0  0  0  0  0  0  0  0  0  0  0  0
   11.1616  -20.9899   22.0503 C   0  0  0  0  0  0  0  0  0  0  0  0
   10.3386  -22.2024   21.9141 C   0  0  0  0  0  0  0  0  0  0  0  0
   10.3521  -22.7730   20.5859 N   0  0  0  0  0  0  0  0  0  0  0  0
   11.4693  -16.3022   24.1318 C   0  0  0  0  0  0  0  0  0  0  0  0
   11.6896  -16.3576   25.4947 O   0  0  0  0  0  0  0  0  0  0  0  0
   12.0017  -15.3497   23.5289 O   0  0  0  0  0  0  0  0  0  0  0  0
  2  3  1  0
  2  1  1  0
  3 10  1  0
  4  3  2  0
  6  5  1  0
  7  9  1  0
  7  6  1  0
  7  8  1  6
  9 11  1  0
  9 10  1  1
 11 13  1  0
 11 12  2  0
 13 14  1  0
 14 20  1  0
 14 15  1  6
 16 15  1  0
 17 18  1  0
 17 16  1  0
 19 18  1  0
 20 21  1  0
 22 20  2  0
M  END
$$$$
