GIK.pdb
     RDKit          3D

 22 21  0  0  1  0  0  0  0  0999 V2000
    6.8767  -15.1100   20.2126 N   0  0  0  0  0  0  0  0  0  0  0  0
    6.2701  -15.1010   21.5194 C   0  0  0  0  0  0  0  0  0  0  0  0
    7.3165  -14.8429   22.5392 C   0  0  0  0  0  0  0  0  0  0  0  0
    8.5448  -14.8463   22.2008 O   0  0  0  0  0  0  0  0  0  0  0  0
    6.1452  -11.5268   26.7276 C   0  0  0  0  0  0  0  0  0  0  0  0
    6.8651  -12.2230   25.5507 C   0  0  0  0  0  0  0  0  0  0  0  0
    7.4160  -13.5284   26.0013 C   0  0  2  0  0  0  0  0  0  0  0  0
    8.4184  -13.2687   27.1126 C   0  0  0  0  0  0  0  0  0  0  0  0
    8.0123  -14.3970   24.9172 C   0  0  2  0  0  0  0  0  0  0  0  0
    6.9665  -14.5943   23.8767 N   0  0  0  0  0  0  0  0  0  0  0  0
    8.4408  -15.7311   25.3933 C   0  0  0  0  0  0  0  0  0  0  0  0
    7.6082  -16.5609   25.8845 O   0  0  0  0  0  0  0  0  0  0  0  0
    9.7872  -16.1226   25.3087 N   0  0  0  0  0  0  0  0  0  0  0  0
   10.1681  -17.5616   25.6572 C   0  0  1  0  0  0  0  0  0  0  0  0
   10.9504  -17.9621   24.4839 C   0  0  0  0  0  0  0  0  0  0  0  0
   10.5279  -18.4400   23.2050 C   0  0  0  0  0  0  0  0  0  0  0  0
   11.2990  -18.7846   22.0307 C   0  0  0  0  0  0  0  0  0  0  0  0
   10.6385  -19.2816   20.8130 C   0  0  0  0  0  0  0  0  0  0  0  0
   11.5509  -19.5791   19.7318 N   0  0  0  0  0  0  0  0  0  0  0  0
   10.7455  -17.4344   26.9679 C   0  0  0  0  0  0  0  0  0  0  0  0
   11.3238  -16.2554   27.3979 O   0  0  0  0  0  0  0  0  0  0  0  0
   10.7565  -18.3787   27.7819 O   0  0  0  0  0  0  0  0  0  0  0  0
  2  3  1  0
  2  1  1  0
  3 10  1  0
  4  3  2  0
  6  5  1  0
  7  9  1  0
  7  6  1  0
  7  8  1  1
  9 11  1  0
  9 10  1  6
 11 13  1  0
 11 12  2  0
 13 14  1  0
 14 20  1  0
 14 15  1  6
 16 15  1  0
 17 18  1  0
 17 16  1  0
 19 18  1  0
 20 21  1  0
 22 20  2  0
M  END
$$$$
