GIK.pdb
     RDKit          3D

 22 21  0  0  1  0  0  0  0  0999 V2000
    4.6816  -18.4054   22.9886 N   0  0  0  0  0  0  0  0  0  0  0  0
    4.9702  -17.8900   24.3027 C   0  0  0  0  0  0  0  0  0  0  0  0
    6.0981  -16.9303   24.2114 C   0  0  0  0  0  0  0  0  0  0  0  0
    6.8765  -16.9621   23.2033 O   0  0  0  0  0  0  0  0  0  0  0  0
    6.0458  -12.0105   26.8355 C   0  0  0  0  0  0  0  0  0  0  0  0
    6.2764  -13.0868   25.7509 C   0  0  0  0  0  0  0  0  0  0  0  0
    7.3480  -14.0194   26.1895 C   0  0  2  0  0  0  0  0  0  0  0  0
    8.6237  -13.2214   26.3972 C   0  0  0  0  0  0  0  0  0  0  0  0
    7.5873  -15.2113   25.2910 C   0  0  2  0  0  0  0  0  0  0  0  0
    6.3174  -15.9849   25.2271 N   0  0  0  0  0  0  0  0  0  0  0  0
    8.6508  -16.1181   25.7775 C   0  0  0  0  0  0  0  0  0  0  0  0
    8.5169  -16.7813   26.8570 O   0  0  0  0  0  0  0  0  0  0  0  0
    9.8428  -16.2774   25.0515 N   0  0  0  0  0  0  0  0  0  0  0  0
   10.8204  -17.3806   25.4567 C   0  0  1  0  0  0  0  0  0  0  0  0
   11.5465  -17.6187   24.2056 C   0  0  0  0  0  0  0  0  0  0  0  0
   11.1956  -18.4019   23.0629 C   0  0  0  0  0  0  0  0  0  0  0  0
   11.6766  -18.3406   21.7001 C   0  0  0  0  0  0  0  0  0  0  0  0
   11.1687  -19.2697   20.6778 C   0  0  0  0  0  0  0  0  0  0  0  0
   11.7933  -19.1143   19.3833 N   0  0  0  0  0  0  0  0  0  0  0  0
   11.4520  -16.8379   26.6290 C   0  0  0  0  0  0  0  0  0  0  0  0
   12.1098  -17.6418   27.5402 O   0  0  0  0  0  0  0  0  0  0  0  0
   11.4377  -15.6178   26.8849 O   0  0  0  0  0  0  0  0  0  0  0  0
  2  3  1  0
  2  1  1  0
  3 10  1  0
  4  3  2  0
  6  5  1  0
  7  9  1  0
  7  6  1  0
  7  8  1  6
  9 11  1  0
  9 10  1  1
 11 13  1  0
 11 12  2  0
 13 14  1  0
 14 20  1  0
 14 15  1  6
 16 15  1  0
 17 18  1  0
 17 16  1  0
 19 18  1  0
 20 21  1  0
 22 20  2  0
M  END
$$$$
