GIK.pdb
     RDKit          3D

 22 21  0  0  1  0  0  0  0  0999 V2000
    7.6210  -19.5541   27.6902 N   0  0  0  0  0  0  0  0  0  0  0  0
    7.7092  -18.1782   28.1085 C   0  0  0  0  0  0  0  0  0  0  0  0
    7.5144  -17.2985   26.9296 C   0  0  0  0  0  0  0  0  0  0  0  0
    7.3086  -17.8132   25.7826 O   0  0  0  0  0  0  0  0  0  0  0  0
    5.3765  -12.0069   25.8428 C   0  0  0  0  0  0  0  0  0  0  0  0
    6.7060  -12.6353   25.3680 C   0  0  0  0  0  0  0  0  0  0  0  0
    7.1906  -13.6092   26.3815 C   0  0  2  0  0  0  0  0  0  0  0  0
    8.4337  -13.0374   27.0410 C   0  0  0  0  0  0  0  0  0  0  0  0
    7.4345  -15.0131   25.8767 C   0  0  2  0  0  0  0  0  0  0  0  0
    7.5547  -15.9009   27.0653 N   0  0  0  0  0  0  0  0  0  0  0  0
    8.6719  -15.1503   25.0767 C   0  0  0  0  0  0  0  0  0  0  0  0
    9.8187  -15.2018   25.6292 O   0  0  0  0  0  0  0  0  0  0  0  0
    8.6126  -15.2348   23.6758 N   0  0  0  0  0  0  0  0  0  0  0  0
    9.8743  -15.6087   22.8977 C   0  0  1  0  0  0  0  0  0  0  0  0
   10.1921  -16.9292   23.4492 C   0  0  0  0  0  0  0  0  0  0  0  0
   11.4521  -17.5728   23.6505 C   0  0  0  0  0  0  0  0  0  0  0  0
   11.8628  -18.9344   23.3865 C   0  0  0  0  0  0  0  0  0  0  0  0
   13.2324  -19.3816   23.6871 C   0  0  0  0  0  0  0  0  0  0  0  0
   13.4882  -20.7607   23.3372 N   0  0  0  0  0  0  0  0  0  0  0  0
    9.4790  -15.4144   21.5289 C   0  0  0  0  0  0  0  0  0  0  0  0
    8.2028  -15.7109   21.0902 O   0  0  0  0  0  0  0  0  0  0  0  0
   10.2651  -14.9715   20.6684 O   0  0  0  0  0  0  0  0  0  0  0  0
  2  3  1  0
  2  1  1  0
  3 10  1  0
  4  3  2  0
  6  5  1  0
  7  9  1  0
  7  6  1  0
  7  8  1  6
  9 11  1  0
  9 10  1  1
 11 13  1  0
 11 12  2  0
 13 14  1  0
 14 20  1  0
 14 15  1  6
 16 15  1  0
 17 18  1  0
 17 16  1  0
 19 18  1  0
 20 21  1  0
 22 20  2  0
M  END
$$$$
