GIK.pdb
     RDKit          3D

 22 21  0  0  1  0  0  0  0  0999 V2000
    4.9574  -18.3338   22.8347 N   0  0  0  0  0  0  0  0  0  0  0  0
    4.9064  -17.6151   24.0823 C   0  0  0  0  0  0  0  0  0  0  0  0
    6.1073  -16.7510   24.1948 C   0  0  0  0  0  0  0  0  0  0  0  0
    7.0720  -16.8979   23.3758 O   0  0  0  0  0  0  0  0  0  0  0  0
    5.7759  -11.7398   26.6272 C   0  0  0  0  0  0  0  0  0  0  0  0
    6.1494  -12.8489   25.6179 C   0  0  0  0  0  0  0  0  0  0  0  0
    7.1122  -13.7931   26.2439 C   0  0  2  0  0  0  0  0  0  0  0  0
    8.3618  -13.0201   26.6288 C   0  0  0  0  0  0  0  0  0  0  0  0
    7.4552  -15.0172   25.4257 C   0  0  2  0  0  0  0  0  0  0  0  0
    6.1920  -15.7704   25.1972 N   0  0  0  0  0  0  0  0  0  0  0  0
    8.4156  -15.9261   26.0902 C   0  0  0  0  0  0  0  0  0  0  0  0
    8.1236  -16.5223   27.1775 O   0  0  0  0  0  0  0  0  0  0  0  0
    9.6822  -16.1620   25.5306 N   0  0  0  0  0  0  0  0  0  0  0  0
   10.5186  -17.3330   26.0467 C   0  0  1  0  0  0  0  0  0  0  0  0
   10.4251  -18.2864   24.9370 C   0  0  0  0  0  0  0  0  0  0  0  0
    9.8126  -19.5758   24.8696 C   0  0  0  0  0  0  0  0  0  0  0  0
   10.3958  -20.8969   24.9524 C   0  0  0  0  0  0  0  0  0  0  0  0
    9.5630  -22.1007   24.7989 C   0  0  0  0  0  0  0  0  0  0  0  0
   10.3010  -23.3398   24.8983 N   0  0  0  0  0  0  0  0  0  0  0  0
   11.7545  -16.7042   26.4271 C   0  0  0  0  0  0  0  0  0  0  0  0
   12.5005  -17.1538   27.4998 O   0  0  0  0  0  0  0  0  0  0  0  0
   12.2154  -15.7223   25.8123 O   0  0  0  0  0  0  0  0  0  0  0  0
  2  3  1  0
  2  1  1  0
  3 10  1  0
  4  3  2  0
  6  5  1  0
  7  9  1  0
  7  6  1  0
  7  8  1  6
  9 11  1  0
  9 10  1  1
 11 13  1  0
 11 12  2  0
 13 14  1  0
 14 20  1  0
 14 15  1  6
 16 15  1  0
 17 18  1  0
 17 16  1  0
 19 18  1  0
 20 21  1  0
 22 20  2  0
M  END
$$$$
