GIK.pdb
     RDKit          3D

 22 21  0  0  1  0  0  0  0  0999 V2000
    5.4355  -19.2747   24.8752 N   0  0  0  0  0  0  0  0  0  0  0  0
    5.5016  -18.0439   25.6210 C   0  0  0  0  0  0  0  0  0  0  0  0
    6.4518  -17.1210   24.9525 C   0  0  0  0  0  0  0  0  0  0  0  0
    7.0156  -17.4712   23.8650 O   0  0  0  0  0  0  0  0  0  0  0  0
    7.2371  -11.8065   27.0416 C   0  0  0  0  0  0  0  0  0  0  0  0
    7.1357  -13.3143   26.7188 C   0  0  0  0  0  0  0  0  0  0  0  0
    7.3250  -13.5288   25.2599 C   0  0  2  0  0  0  0  0  0  0  0  0
    6.0750  -13.0550   24.5386 C   0  0  0  0  0  0  0  0  0  0  0  0
    7.6962  -14.9350   24.8473 C   0  0  2  0  0  0  0  0  0  0  0  0
    6.7371  -15.8623   25.5072 N   0  0  0  0  0  0  0  0  0  0  0  0
    9.0644  -15.3305   25.2492 C   0  0  0  0  0  0  0  0  0  0  0  0
    9.4406  -15.2814   26.4654 O   0  0  0  0  0  0  0  0  0  0  0  0
    9.9893  -15.7807   24.2925 N   0  0  0  0  0  0  0  0  0  0  0  0
   11.4034  -16.1513   24.7398 C   0  0  1  0  0  0  0  0  0  0  0  0
   11.2852  -17.5964   24.9565 C   0  0  0  0  0  0  0  0  0  0  0  0
   11.5225  -18.3824   26.1261 C   0  0  0  0  0  0  0  0  0  0  0  0
   10.7046  -19.3945   26.7580 C   0  0  0  0  0  0  0  0  0  0  0  0
   11.0770  -19.9577   28.0658 C   0  0  0  0  0  0  0  0  0  0  0  0
   10.1073  -20.8870   28.6006 N   0  0  0  0  0  0  0  0  0  0  0  0
   12.2276  -15.5869   23.7055 C   0  0  0  0  0  0  0  0  0  0  0  0
   11.7235  -15.2886   22.4540 O   0  0  0  0  0  0  0  0  0  0  0  0
   13.4367  -15.3397   23.8823 O   0  0  0  0  0  0  0  0  0  0  0  0
  2  3  1  0
  2  1  1  0
  3 10  1  0
  4  3  2  0
  6  5  1  0
  7  9  1  0
  7  6  1  0
  7  8  1  6
  9 11  1  0
  9 10  1  1
 11 13  1  0
 11 12  2  0
 13 14  1  0
 14 20  1  0
 14 15  1  6
 16 15  1  0
 17 18  1  0
 17 16  1  0
 19 18  1  0
 20 21  1  0
 22 20  2  0
M  END
$$$$
