WTY.pdb
     RDKit          3D

 34 36  0  0  1  0  0  0  0  0999 V2000
    6.5924  -17.7687   24.6348 N   0  0  0  0  0  0  0  0  0  0  0  0
    7.6060  -16.7980   24.3503 C   0  0  1  0  0  0  0  0  0  0  0  0
    8.0920  -16.1111   25.6010 C   0  0  0  0  0  0  0  0  0  0  0  0
    7.1960  -15.0364   26.0800 C   0  0  0  0  0  0  0  0  0  0  0  0
    6.0845  -15.2424   26.8668 C   0  0  0  0  0  0  0  0  0  0  0  0
    5.5080  -14.0580   27.1437 N   0  0  0  0  0  0  0  0  0  0  0  0
    6.2142  -13.0694   26.5562 C   0  0  0  0  0  0  0  0  0  0  0  0
    6.0176  -11.7063   26.5472 C   0  0  0  0  0  0  0  0  0  0  0  0
    6.8834  -10.8990   25.8609 C   0  0  0  0  0  0  0  0  0  0  0  0
    7.9343  -11.4902   25.1948 C   0  0  0  0  0  0  0  0  0  0  0  0
    8.1333  -12.8636   25.2034 C   0  0  0  0  0  0  0  0  0  0  0  0
    7.2731  -13.6808   25.8881 C   0  0  0  0  0  0  0  0  0  0  0  0
    8.7529  -17.4618   23.6825 C   0  0  0  0  0  0  0  0  0  0  0  0
    9.2588  -18.4680   24.2352 O   0  0  0  0  0  0  0  0  0  0  0  0
    9.7112  -17.9804   19.8648 C   0  0  0  0  0  0  0  0  0  0  0  0
   10.7969  -17.2593   20.6123 C   0  0  1  0  0  0  0  0  0  0  0  0
   10.6860  -15.9020   20.2845 O   0  0  0  0  0  0  0  0  0  0  0  0
   10.6546  -17.3695   22.1114 C   0  0  2  0  0  0  0  0  0  0  0  0
    9.2991  -17.0128   22.4572 N   0  0  0  0  0  0  0  0  0  0  0  0
   11.6477  -16.5373   22.8298 C   0  0  0  0  0  0  0  0  0  0  0  0
   11.6784  -15.3124   22.6090 O   0  0  0  0  0  0  0  0  0  0  0  0
    9.7313  -16.5650   29.4916 O   0  0  0  0  0  0  0  0  0  0  0  0
   10.5625  -16.2384   28.4254 C   0  0  0  0  0  0  0  0  0  0  0  0
   11.3494  -17.1681   27.7883 C   0  0  0  0  0  0  0  0  0  0  0  0
   12.1672  -16.8282   26.7338 C   0  0  0  0  0  0  0  0  0  0  0  0
   12.2485  -15.5360   26.2518 C   0  0  0  0  0  0  0  0  0  0  0  0
   13.1212  -15.1455   25.1393 C   0  0  0  0  0  0  0  0  0  0  0  0
   13.6011  -16.2848   24.3305 C   0  0  2  0  0  0  0  0  0  0  0  0
   12.5615  -17.0810   23.7562 N   0  0  0  0  0  0  0  0  0  0  0  0
   14.4503  -17.1856   25.1347 C   0  0  0  0  0  0  0  0  0  0  0  0
   14.0764  -18.3714   25.3288 O   0  0  0  0  0  0  0  0  0  0  0  0
   11.4407  -14.5962   26.9097 C   0  0  0  0  0  0  0  0  0  0  0  0
   10.6254  -14.9412   27.9624 C   0  0  0  0  0  0  0  0  0  0  0  0
   15.6652  -16.7667   25.6945 O   0  0  0  0  0  0  0  0  0  0  0  0
  2  1  1  1
  2 13  1  0
  2  3  1  0
  4  3  1  0
  5  4  2  0
  6  7  1  0
  6  5  1  0
  7 12  2  0
  8  9  2  0
  8  7  1  0
  9 10  1  0
 10 11  2  0
 12  4  1  0
 12 11  1  0
 13 14  2  0
 16 15  1  6
 16 18  1  0
 17 16  1  0
 18 20  1  0
 18 19  1  6
 19 13  1  0
 20 29  1  0
 20 21  2  0
 22 23  1  0
 23 33  2  0
 23 24  1  0
 24 25  2  0
 25 26  1  0
 26 27  1  0
 28 27  1  1
 28 30  1  0
 29 28  1  0
 30 31  2  0
 30 34  1  0
 32 26  2  0
 33 32  1  0
M  END
$$$$
