WTY.pdb
     RDKit          3D

 34 36  0  0  1  0  0  0  0  0999 V2000
    6.3525  -17.5923   24.3551 N   0  0  0  0  0  0  0  0  0  0  0  0
    7.3892  -16.6869   23.9601 C   0  0  1  0  0  0  0  0  0  0  0  0
    7.8910  -15.8673   25.1214 C   0  0  0  0  0  0  0  0  0  0  0  0
    6.9559  -14.8060   25.5532 C   0  0  0  0  0  0  0  0  0  0  0  0
    5.8995  -15.0025   26.4149 C   0  0  0  0  0  0  0  0  0  0  0  0
    5.2660  -13.8325   26.6185 N   0  0  0  0  0  0  0  0  0  0  0  0
    5.8804  -12.8627   25.9089 C   0  0  0  0  0  0  0  0  0  0  0  0
    5.6004  -11.5193   25.7916 C   0  0  0  0  0  0  0  0  0  0  0  0
    6.3800  -10.7297   24.9909 C   0  0  0  0  0  0  0  0  0  0  0  0
    7.4307  -11.3184   24.3223 C   0  0  0  0  0  0  0  0  0  0  0  0
    7.7137  -12.6719   24.4399 C   0  0  0  0  0  0  0  0  0  0  0  0
    6.9402  -13.4711   25.2397 C   0  0  0  0  0  0  0  0  0  0  0  0
    8.5202  -17.4526   23.3801 C   0  0  0  0  0  0  0  0  0  0  0  0
    8.8718  -18.5132   23.9505 O   0  0  0  0  0  0  0  0  0  0  0  0
    9.7296  -18.3336   19.7786 C   0  0  0  0  0  0  0  0  0  0  0  0
   10.7985  -17.5704   20.5085 C   0  0  1  0  0  0  0  0  0  0  0  0
   10.7618  -16.2553   20.0275 O   0  0  0  0  0  0  0  0  0  0  0  0
   10.5653  -17.5072   21.9988 C   0  0  2  0  0  0  0  0  0  0  0  0
    9.2164  -17.0423   22.2189 N   0  0  0  0  0  0  0  0  0  0  0  0
   11.5646  -16.6558   22.6854 C   0  0  0  0  0  0  0  0  0  0  0  0
   11.6465  -15.4534   22.3730 O   0  0  0  0  0  0  0  0  0  0  0  0
   10.1186  -17.1864   29.6163 O   0  0  0  0  0  0  0  0  0  0  0  0
   10.8633  -16.7401   28.5297 C   0  0  0  0  0  0  0  0  0  0  0  0
   12.2175  -16.9508   28.4237 C   0  0  0  0  0  0  0  0  0  0  0  0
   12.9404  -16.5022   27.3408 C   0  0  0  0  0  0  0  0  0  0  0  0
   12.3525  -15.8143   26.2968 C   0  0  0  0  0  0  0  0  0  0  0  0
   13.1020  -15.3145   25.1393 C   0  0  0  0  0  0  0  0  0  0  0  0
   13.5094  -16.3720   24.1916 C   0  0  2  0  0  0  0  0  0  0  0  0
   12.4283  -17.1565   23.6814 N   0  0  0  0  0  0  0  0  0  0  0  0
   14.4701  -17.3026   24.8164 C   0  0  0  0  0  0  0  0  0  0  0  0
   14.1748  -18.5226   24.9048 O   0  0  0  0  0  0  0  0  0  0  0  0
   10.9702  -15.6057   26.4162 C   0  0  0  0  0  0  0  0  0  0  0  0
   10.2529  -16.0561   27.4999 C   0  0  0  0  0  0  0  0  0  0  0  0
   15.7069  -16.8752   25.3189 O   0  0  0  0  0  0  0  0  0  0  0  0
  2  1  1  1
  2 13  1  0
  2  3  1  0
  4  3  1  0
  5  4  2  0
  6  7  1  0
  6  5  1  0
  7 12  2  0
  8  9  2  0
  8  7  1  0
  9 10  1  0
 10 11  2  0
 12  4  1  0
 12 11  1  0
 13 14  2  0
 16 15  1  6
 16 18  1  0
 17 16  1  0
 18 20  1  0
 18 19  1  6
 19 13  1  0
 20 29  1  0
 20 21  2  0
 22 23  1  0
 23 33  2  0
 23 24  1  0
 24 25  2  0
 25 26  1  0
 26 27  1  0
 28 27  1  1
 28 30  1  0
 29 28  1  0
 30 31  2  0
 30 34  1  0
 32 26  2  0
 33 32  1  0
M  END
$$$$
