WTY.pdb
     RDKit          3D

 34 36  0  0  1  0  0  0  0  0999 V2000
    8.1654  -18.0252   21.4351 N   0  0  0  0  0  0  0  0  0  0  0  0
    9.2995  -17.1512   21.4111 C   0  0  1  0  0  0  0  0  0  0  0  0
    9.0405  -15.8748   22.1700 C   0  0  0  0  0  0  0  0  0  0  0  0
    7.9605  -15.0448   21.5940 C   0  0  0  0  0  0  0  0  0  0  0  0
    6.7214  -14.8706   22.1695 C   0  0  0  0  0  0  0  0  0  0  0  0
    5.9871  -14.0406   21.4055 N   0  0  0  0  0  0  0  0  0  0  0  0
    6.7138  -13.6603   20.3336 C   0  0  0  0  0  0  0  0  0  0  0  0
    6.3968  -12.8321   19.2798 C   0  0  0  0  0  0  0  0  0  0  0  0
    7.3178  -12.6030   18.2943 C   0  0  0  0  0  0  0  0  0  0  0  0
    8.5456  -13.2195   18.3956 C   0  0  0  0  0  0  0  0  0  0  0  0
    8.8660  -14.0539   19.4571 C   0  0  0  0  0  0  0  0  0  0  0  0
    7.9516  -14.2893   20.4496 C   0  0  0  0  0  0  0  0  0  0  0  0
   10.4696  -17.8427   22.0066 C   0  0  0  0  0  0  0  0  0  0  0  0
   10.2729  -18.6063   22.9824 O   0  0  0  0  0  0  0  0  0  0  0  0
   13.4086  -19.8935   20.7447 C   0  0  0  0  0  0  0  0  0  0  0  0
   13.9443  -18.7131   21.5044 C   0  0  1  0  0  0  0  0  0  0  0  0
   14.3583  -17.7703   20.5547 O   0  0  0  0  0  0  0  0  0  0  0  0
   12.9026  -18.0464   22.3703 C   0  0  2  0  0  0  0  0  0  0  0  0
   11.7902  -17.6801   21.5262 N   0  0  0  0  0  0  0  0  0  0  0  0
   13.4486  -16.8816   23.1051 C   0  0  0  0  0  0  0  0  0  0  0  0
   13.4297  -15.7630   22.5587 O   0  0  0  0  0  0  0  0  0  0  0  0
   10.4920  -16.8165   29.9651 O   0  0  0  0  0  0  0  0  0  0  0  0
   11.2498  -16.3659   28.8893 C   0  0  0  0  0  0  0  0  0  0  0  0
   11.7973  -17.2188   27.9606 C   0  0  0  0  0  0  0  0  0  0  0  0
   12.5454  -16.7564   26.9010 C   0  0  0  0  0  0  0  0  0  0  0  0
   12.7924  -15.4112   26.7054 C   0  0  0  0  0  0  0  0  0  0  0  0
   13.5968  -14.8941   25.5931 C   0  0  0  0  0  0  0  0  0  0  0  0
   14.5747  -15.8663   25.0629 C   0  0  2  0  0  0  0  0  0  0  0  0
   13.9901  -16.9918   24.4026 N   0  0  0  0  0  0  0  0  0  0  0  0
   15.4394  -16.3893   26.1390 C   0  0  0  0  0  0  0  0  0  0  0  0
   16.1419  -15.5870   26.8071 O   0  0  0  0  0  0  0  0  0  0  0  0
   12.2284  -14.5507   27.6594 C   0  0  0  0  0  0  0  0  0  0  0  0
   11.4817  -15.0180   28.7158 C   0  0  0  0  0  0  0  0  0  0  0  0
   15.5084  -17.7553   26.4460 O   0  0  0  0  0  0  0  0  0  0  0  0
  2  1  1  1
  2 13  1  0
  2  3  1  0
  4  3  1  0
  5  4  2  0
  6  7  1  0
  6  5  1  0
  7 12  2  0
  8  9  2  0
  8  7  1  0
  9 10  1  0
 10 11  2  0
 12  4  1  0
 12 11  1  0
 13 14  2  0
 16 15  1  6
 16 18  1  0
 17 16  1  0
 18 20  1  0
 18 19  1  6
 19 13  1  0
 20 29  1  0
 20 21  2  0
 22 23  1  0
 23 33  2  0
 23 24  1  0
 24 25  2  0
 25 26  1  0
 26 27  1  0
 28 27  1  1
 28 30  1  0
 29 28  1  0
 30 31  2  0
 30 34  1  0
 32 26  2  0
 33 32  1  0
M  END
$$$$
