WTY.pdb
     RDKit          3D

 34 36  0  0  1  0  0  0  0  0999 V2000
    6.3994  -17.7763   23.8943 N   0  0  0  0  0  0  0  0  0  0  0  0
    7.2779  -16.7753   23.3683 C   0  0  1  0  0  0  0  0  0  0  0  0
    7.9890  -16.0213   24.4629 C   0  0  0  0  0  0  0  0  0  0  0  0
    7.1063  -15.1303   25.2465 C   0  0  0  0  0  0  0  0  0  0  0  0
    6.0581  -15.5636   26.0279 C   0  0  0  0  0  0  0  0  0  0  0  0
    5.4772  -14.5049   26.6225 N   0  0  0  0  0  0  0  0  0  0  0  0
    6.1185  -13.3769   26.2514 C   0  0  0  0  0  0  0  0  0  0  0  0
    5.8924  -12.0609   26.5891 C   0  0  0  0  0  0  0  0  0  0  0  0
    6.6896  -11.0786   26.0679 C   0  0  0  0  0  0  0  0  0  0  0  0
    7.7032  -11.4497   25.2118 C   0  0  0  0  0  0  0  0  0  0  0  0
    7.9319  -12.7754   24.8711 C   0  0  0  0  0  0  0  0  0  0  0  0
    7.1403  -13.7667   25.3880 C   0  0  0  0  0  0  0  0  0  0  0  0
    8.2841  -17.4151   22.4851 C   0  0  0  0  0  0  0  0  0  0  0  0
    8.5574  -18.6243   22.6771 O   0  0  0  0  0  0  0  0  0  0  0  0
    9.7205  -17.6591   18.8641 C   0  0  0  0  0  0  0  0  0  0  0  0
   10.6044  -16.8002   19.7236 C   0  0  1  0  0  0  0  0  0  0  0  0
   10.3074  -15.4674   19.4108 O   0  0  0  0  0  0  0  0  0  0  0  0
   10.3466  -16.9802   21.2003 C   0  0  2  0  0  0  0  0  0  0  0  0
    8.9462  -16.7260   21.4419 N   0  0  0  0  0  0  0  0  0  0  0  0
   11.2184  -16.1156   22.0294 C   0  0  0  0  0  0  0  0  0  0  0  0
   11.0503  -14.8825   21.9952 O   0  0  0  0  0  0  0  0  0  0  0  0
   11.2024  -15.0995   30.4636 O   0  0  0  0  0  0  0  0  0  0  0  0
   11.1326  -15.4405   29.1169 C   0  0  0  0  0  0  0  0  0  0  0  0
   10.7650  -16.6940   28.6888 C   0  0  0  0  0  0  0  0  0  0  0  0
   10.7009  -17.0155   27.3513 C   0  0  0  0  0  0  0  0  0  0  0  0
   11.0014  -16.1022   26.3591 C   0  0  0  0  0  0  0  0  0  0  0  0
   10.9539  -16.4233   24.9287 C   0  0  0  0  0  0  0  0  0  0  0  0
   12.2690  -16.3551   24.2589 C   0  0  2  0  0  0  0  0  0  0  0  0
   12.2336  -16.6375   22.8577 N   0  0  0  0  0  0  0  0  0  0  0  0
   13.2260  -17.2969   24.8723 C   0  0  0  0  0  0  0  0  0  0  0  0
   13.7537  -17.0044   25.9766 O   0  0  0  0  0  0  0  0  0  0  0  0
   11.3749  -14.8266   26.8083 C   0  0  0  0  0  0  0  0  0  0  0  0
   11.4370  -14.5107   28.1456 C   0  0  0  0  0  0  0  0  0  0  0  0
   13.5719  -18.5127   24.2664 O   0  0  0  0  0  0  0  0  0  0  0  0
  2  1  1  1
  2 13  1  0
  2  3  1  0
  4  3  1  0
  5  4  2  0
  6  7  1  0
  6  5  1  0
  7 12  2  0
  8  9  2  0
  8  7  1  0
  9 10  1  0
 10 11  2  0
 12  4  1  0
 12 11  1  0
 13 14  2  0
 16 15  1  6
 16 18  1  0
 17 16  1  0
 18 20  1  0
 18 19  1  6
 19 13  1  0
 20 29  1  0
 20 21  2  0
 22 23  1  0
 23 33  2  0
 23 24  1  0
 24 25  2  0
 25 26  1  0
 26 27  1  0
 28 27  1  1
 28 30  1  0
 29 28  1  0
 30 31  2  0
 30 34  1  0
 32 26  2  0
 33 32  1  0
M  END
$$$$
