WTY.pdb
     RDKit          3D

 34 36  0  0  1  0  0  0  0  0999 V2000
    6.4528  -17.5030   24.1005 N   0  0  0  0  0  0  0  0  0  0  0  0
    7.5167  -16.5605   23.9262 C   0  0  1  0  0  0  0  0  0  0  0  0
    7.9106  -15.9116   25.2286 C   0  0  0  0  0  0  0  0  0  0  0  0
    6.8933  -14.9823   25.7657 C   0  0  0  0  0  0  0  0  0  0  0  0
    5.7265  -15.3768   26.3822 C   0  0  0  0  0  0  0  0  0  0  0  0
    5.0383  -14.2882   26.7735 N   0  0  0  0  0  0  0  0  0  0  0  0
    5.7246  -13.1784   26.4290 C   0  0  0  0  0  0  0  0  0  0  0  0
    5.4288  -11.8454   26.6097 C   0  0  0  0  0  0  0  0  0  0  0  0
    6.2967  -10.8891   26.1578 C   0  0  0  0  0  0  0  0  0  0  0  0
    7.4506  -11.3029   25.5293 C   0  0  0  0  0  0  0  0  0  0  0  0
    7.7496  -12.6457   25.3468 C   0  0  0  0  0  0  0  0  0  0  0  0
    6.8880  -13.6113   25.7963 C   0  0  0  0  0  0  0  0  0  0  0  0
    8.6976  -17.2489   23.3488 C   0  0  0  0  0  0  0  0  0  0  0  0
    9.0385  -18.3523   23.8389 O   0  0  0  0  0  0  0  0  0  0  0  0
   10.0172  -17.4670   19.6113 C   0  0  0  0  0  0  0  0  0  0  0  0
   11.0841  -16.9792   20.5501 C   0  0  1  0  0  0  0  0  0  0  0  0
   11.1566  -15.5886   20.3985 O   0  0  0  0  0  0  0  0  0  0  0  0
   10.7650  -17.2542   22.0000 C   0  0  2  0  0  0  0  0  0  0  0  0
    9.4528  -16.7194   22.2761 N   0  0  0  0  0  0  0  0  0  0  0  0
   11.7927  -16.7017   22.9130 C   0  0  0  0  0  0  0  0  0  0  0  0
   11.7904  -15.4798   23.1522 O   0  0  0  0  0  0  0  0  0  0  0  0
   10.1662  -14.3344   28.7846 O   0  0  0  0  0  0  0  0  0  0  0  0
   11.0977  -15.0307   28.0218 C   0  0  0  0  0  0  0  0  0  0  0  0
   12.1882  -14.4218   27.4476 C   0  0  0  0  0  0  0  0  0  0  0  0
   13.1014  -15.1259   26.6949 C   0  0  0  0  0  0  0  0  0  0  0  0
   12.9795  -16.4835   26.4698 C   0  0  0  0  0  0  0  0  0  0  0  0
   13.9306  -17.2536   25.6611 C   0  0  0  0  0  0  0  0  0  0  0  0
   13.8833  -16.9332   24.2197 C   0  0  2  0  0  0  0  0  0  0  0  0
   12.7753  -17.5088   23.5228 N   0  0  0  0  0  0  0  0  0  0  0  0
   15.1124  -17.3815   23.5362 C   0  0  0  0  0  0  0  0  0  0  0  0
   15.0186  -18.1551   22.5481 O   0  0  0  0  0  0  0  0  0  0  0  0
   11.8631  -17.0938   27.0609 C   0  0  0  0  0  0  0  0  0  0  0  0
   10.9540  -16.3858   27.8121 C   0  0  0  0  0  0  0  0  0  0  0  0
   16.3889  -16.9756   23.9496 O   0  0  0  0  0  0  0  0  0  0  0  0
  2  1  1  1
  2 13  1  0
  2  3  1  0
  4  3  1  0
  5  4  2  0
  6  7  1  0
  6  5  1  0
  7 12  2  0
  8  9  2  0
  8  7  1  0
  9 10  1  0
 10 11  2  0
 12  4  1  0
 12 11  1  0
 13 14  2  0
 16 15  1  6
 16 18  1  0
 17 16  1  0
 18 20  1  0
 18 19  1  1
 19 13  1  0
 20 29  1  0
 20 21  2  0
 22 23  1  0
 23 33  2  0
 23 24  1  0
 24 25  2  0
 25 26  1  0
 26 27  1  0
 28 27  1  1
 28 30  1  0
 29 28  1  0
 30 31  2  0
 30 34  1  0
 32 26  2  0
 33 32  1  0
M  END
$$$$
