WTY.pdb
     RDKit          3D

 34 36  0  0  1  0  0  0  0  0999 V2000
    6.2688  -17.3039   24.1356 N   0  0  0  0  0  0  0  0  0  0  0  0
    7.3766  -16.4318   23.8847 C   0  0  1  0  0  0  0  0  0  0  0  0
    7.8721  -15.7762   25.1484 C   0  0  0  0  0  0  0  0  0  0  0  0
    7.0194  -14.6634   25.6191 C   0  0  0  0  0  0  0  0  0  0  0  0
    5.9660  -14.8063   26.4949 C   0  0  0  0  0  0  0  0  0  0  0  0
    5.4180  -13.6005   26.7346 N   0  0  0  0  0  0  0  0  0  0  0  0
    6.0863  -12.6593   26.0352 C   0  0  0  0  0  0  0  0  0  0  0  0
    5.8977  -11.2976   25.9516 C   0  0  0  0  0  0  0  0  0  0  0  0
    6.7168  -10.5455   25.1543 C   0  0  0  0  0  0  0  0  0  0  0  0
    7.7136  -11.1897   24.4548 C   0  0  0  0  0  0  0  0  0  0  0  0
    7.9045  -12.5617   24.5385 C   0  0  0  0  0  0  0  0  0  0  0  0
    7.0907  -13.3238   25.3345 C   0  0  0  0  0  0  0  0  0  0  0  0
    8.4847  -17.2040   23.2702 C   0  0  0  0  0  0  0  0  0  0  0  0
    8.7710  -18.3223   23.7614 O   0  0  0  0  0  0  0  0  0  0  0  0
    9.9769  -17.1938   19.5734 C   0  0  0  0  0  0  0  0  0  0  0  0
   11.0256  -16.8399   20.5896 C   0  0  1  0  0  0  0  0  0  0  0  0
   11.2203  -15.4550   20.5099 O   0  0  0  0  0  0  0  0  0  0  0  0
   10.6039  -17.1507   22.0056 C   0  0  2  0  0  0  0  0  0  0  0  0
    9.2293  -16.7380   22.1613 N   0  0  0  0  0  0  0  0  0  0  0  0
   11.4914  -16.5129   23.0059 C   0  0  0  0  0  0  0  0  0  0  0  0
   11.2157  -15.3687   23.4118 O   0  0  0  0  0  0  0  0  0  0  0  0
    8.9358  -15.4229   28.8853 O   0  0  0  0  0  0  0  0  0  0  0  0
   10.0463  -15.8233   28.1498 C   0  0  0  0  0  0  0  0  0  0  0  0
   11.2683  -15.2031   28.2571 C   0  0  0  0  0  0  0  0  0  0  0  0
   12.3582  -15.6121   27.5214 C   0  0  0  0  0  0  0  0  0  0  0  0
   12.2923  -16.6673   26.6320 C   0  0  0  0  0  0  0  0  0  0  0  0
   13.4344  -17.1137   25.8271 C   0  0  0  0  0  0  0  0  0  0  0  0
   13.4827  -16.5143   24.4777 C   0  0  2  0  0  0  0  0  0  0  0  0
   12.6390  -17.1539   23.5167 N   0  0  0  0  0  0  0  0  0  0  0  0
   14.8564  -16.5339   23.9376 C   0  0  0  0  0  0  0  0  0  0  0  0
   15.0746  -17.0979   22.8340 O   0  0  0  0  0  0  0  0  0  0  0  0
   11.0403  -17.2924   26.5314 C   0  0  0  0  0  0  0  0  0  0  0  0
    9.9550  -16.8800   27.2689 C   0  0  0  0  0  0  0  0  0  0  0  0
   15.9343  -15.9447   24.6127 O   0  0  0  0  0  0  0  0  0  0  0  0
  2  1  1  1
  2 13  1  0
  2  3  1  0
  4  3  1  0
  5  4  2  0
  6  7  1  0
  6  5  1  0
  7 12  2  0
  8  9  2  0
  8  7  1  0
  9 10  1  0
 10 11  2  0
 12  4  1  0
 12 11  1  0
 13 14  2  0
 16 15  1  6
 16 18  1  0
 17 16  1  0
 18 20  1  0
 18 19  1  1
 19 13  1  0
 20 29  1  0
 20 21  2  0
 22 23  1  0
 23 33  2  0
 23 24  1  0
 24 25  2  0
 25 26  1  0
 26 27  1  0
 28 27  1  1
 28 30  1  0
 29 28  1  0
 30 31  2  0
 30 34  1  0
 32 26  2  0
 33 32  1  0
M  END
$$$$
