WTY.pdb
     RDKit          3D

 34 36  0  0  1  0  0  0  0  0999 V2000
    6.2570  -16.5414   25.3173 N   0  0  0  0  0  0  0  0  0  0  0  0
    6.6556  -16.9634   24.0082 C   0  0  1  0  0  0  0  0  0  0  0  0
    6.4656  -15.8728   22.9850 C   0  0  0  0  0  0  0  0  0  0  0  0
    6.6719  -14.5091   23.5186 C   0  0  0  0  0  0  0  0  0  0  0  0
    6.5259  -13.3544   22.7821 C   0  0  0  0  0  0  0  0  0  0  0  0
    6.7615  -12.2893   23.5705 N   0  0  0  0  0  0  0  0  0  0  0  0
    7.0616  -12.7134   24.8161 C   0  0  0  0  0  0  0  0  0  0  0  0
    7.3785  -12.0068   25.9550 C   0  0  0  0  0  0  0  0  0  0  0  0
    7.6548  -12.6765   27.1158 C   0  0  0  0  0  0  0  0  0  0  0  0
    7.6051  -14.0531   27.0999 C   0  0  0  0  0  0  0  0  0  0  0  0
    7.2858  -14.7659   25.9528 C   0  0  0  0  0  0  0  0  0  0  0  0
    7.0065  -14.1053   24.7857 C   0  0  0  0  0  0  0  0  0  0  0  0
    8.0838  -17.3654   24.0315 C   0  0  0  0  0  0  0  0  0  0  0  0
    8.6456  -17.4910   25.1462 O   0  0  0  0  0  0  0  0  0  0  0  0
    9.6974  -19.9996   21.4269 C   0  0  0  0  0  0  0  0  0  0  0  0
   10.5528  -18.7926   21.6901 C   0  0  1  0  0  0  0  0  0  0  0  0
   10.3209  -17.8917   20.6427 O   0  0  0  0  0  0  0  0  0  0  0  0
   10.1955  -18.0849   22.9750 C   0  0  2  0  0  0  0  0  0  0  0  0
    8.8366  -17.6115   22.8593 N   0  0  0  0  0  0  0  0  0  0  0  0
   11.1401  -16.9879   23.2903 C   0  0  0  0  0  0  0  0  0  0  0  0
   10.9604  -15.8712   22.7700 O   0  0  0  0  0  0  0  0  0  0  0  0
   10.4121  -17.1995   30.1398 O   0  0  0  0  0  0  0  0  0  0  0  0
   10.9823  -16.6879   28.9789 C   0  0  0  0  0  0  0  0  0  0  0  0
   12.3422  -16.6119   28.7932 C   0  0  0  0  0  0  0  0  0  0  0  0
   12.8907  -16.1024   27.6374 C   0  0  0  0  0  0  0  0  0  0  0  0
   12.1119  -15.6368   26.5956 C   0  0  0  0  0  0  0  0  0  0  0  0
   12.6712  -15.0774   25.3604 C   0  0  0  0  0  0  0  0  0  0  0  0
   13.1607  -16.0990   24.4121 C   0  0  2  0  0  0  0  0  0  0  0  0
   12.2373  -17.1610   24.1592 N   0  0  0  0  0  0  0  0  0  0  0  0
   14.4139  -16.7126   24.8939 C   0  0  0  0  0  0  0  0  0  0  0  0
   14.4486  -17.9523   25.1069 O   0  0  0  0  0  0  0  0  0  0  0  0
   10.7258  -15.7198   26.7966 C   0  0  0  0  0  0  0  0  0  0  0  0
   10.1831  -16.2298   27.9530 C   0  0  0  0  0  0  0  0  0  0  0  0
   15.5743  -15.9609   25.1253 O   0  0  0  0  0  0  0  0  0  0  0  0
  2  1  1  1
  2 13  1  0
  2  3  1  0
  4  3  1  0
  5  4  2  0
  6  7  1  0
  6  5  1  0
  7 12  2  0
  8  9  2  0
  8  7  1  0
  9 10  1  0
 10 11  2  0
 12  4  1  0
 12 11  1  0
 13 14  2  0
 16 15  1  6
 16 18  1  0
 17 16  1  0
 18 20  1  0
 18 19  1  6
 19 13  1  0
 20 29  1  0
 20 21  2  0
 22 23  1  0
 23 33  2  0
 23 24  1  0
 24 25  2  0
 25 26  1  0
 26 27  1  0
 28 27  1  1
 28 30  1  0
 29 28  1  0
 30 31  2  0
 30 34  1  0
 32 26  2  0
 33 32  1  0
M  END
$$$$
