WTY.pdb
     RDKit          3D

 34 36  0  0  1  0  0  0  0  0999 V2000
    7.0234  -17.1789   24.4032 N   0  0  0  0  0  0  0  0  0  0  0  0
    8.0229  -16.2465   23.9762 C   0  0  1  0  0  0  0  0  0  0  0  0
    8.4656  -15.3446   25.0999 C   0  0  0  0  0  0  0  0  0  0  0  0
    7.4057  -14.4386   25.5929 C   0  0  0  0  0  0  0  0  0  0  0  0
    6.3662  -14.8277   26.4084 C   0  0  0  0  0  0  0  0  0  0  0  0
    5.5967  -13.7600   26.6907 N   0  0  0  0  0  0  0  0  0  0  0  0
    6.1041  -12.6695   26.0786 C   0  0  0  0  0  0  0  0  0  0  0  0
    5.6704  -11.3623   26.0643 C   0  0  0  0  0  0  0  0  0  0  0  0
    6.3645  -10.4235   25.3509 C   0  0  0  0  0  0  0  0  0  0  0  0
    7.4875  -10.8284   24.6634 C   0  0  0  0  0  0  0  0  0  0  0  0
    7.9254  -12.1452   24.6773 C   0  0  0  0  0  0  0  0  0  0  0  0
    7.2384  -13.0929   25.3891 C   0  0  0  0  0  0  0  0  0  0  0  0
    9.1984  -16.9862   23.4539 C   0  0  0  0  0  0  0  0  0  0  0  0
    9.5150  -18.0648   24.0111 O   0  0  0  0  0  0  0  0  0  0  0  0
   10.4890  -17.6486   19.8407 C   0  0  0  0  0  0  0  0  0  0  0  0
   11.5837  -17.0399   20.6706 C   0  0  1  0  0  0  0  0  0  0  0  0
   11.6729  -15.6912   20.3028 O   0  0  0  0  0  0  0  0  0  0  0  0
   11.2934  -17.0804   22.1517 C   0  0  2  0  0  0  0  0  0  0  0  0
    9.9746  -16.5319   22.3619 N   0  0  0  0  0  0  0  0  0  0  0  0
   12.3232  -16.3674   22.9429 C   0  0  0  0  0  0  0  0  0  0  0  0
   12.3953  -15.1274   22.8580 O   0  0  0  0  0  0  0  0  0  0  0  0
    9.0682  -16.5765   28.6707 O   0  0  0  0  0  0  0  0  0  0  0  0
   10.2979  -16.6562   28.0256 C   0  0  0  0  0  0  0  0  0  0  0  0
   10.7868  -17.8314   27.5065 C   0  0  0  0  0  0  0  0  0  0  0  0
   12.0067  -17.8932   26.8705 C   0  0  0  0  0  0  0  0  0  0  0  0
   12.8132  -16.7824   26.7151 C   0  0  0  0  0  0  0  0  0  0  0  0
   14.1219  -16.8243   26.0539 C   0  0  0  0  0  0  0  0  0  0  0  0
   14.1033  -16.3248   24.6637 C   0  0  2  0  0  0  0  0  0  0  0  0
   13.2269  -17.0414   23.7903 N   0  0  0  0  0  0  0  0  0  0  0  0
   15.4522  -16.3700   24.0658 C   0  0  0  0  0  0  0  0  0  0  0  0
   16.3964  -15.7616   24.6332 O   0  0  0  0  0  0  0  0  0  0  0  0
   12.3036  -15.5890   27.2486 C   0  0  0  0  0  0  0  0  0  0  0  0
   11.0843  -15.5327   27.8827 C   0  0  0  0  0  0  0  0  0  0  0  0
   15.7225  -17.0694   22.8814 O   0  0  0  0  0  0  0  0  0  0  0  0
  2  1  1  1
  2 13  1  0
  2  3  1  0
  4  3  1  0
  5  4  2  0
  6  7  1  0
  6  5  1  0
  7 12  2  0
  8  9  2  0
  8  7  1  0
  9 10  1  0
 10 11  2  0
 12  4  1  0
 12 11  1  0
 13 14  2  0
 16 15  1  6
 16 18  1  0
 17 16  1  0
 18 20  1  0
 18 19  1  6
 19 13  1  0
 20 29  1  0
 20 21  2  0
 22 23  1  0
 23 33  2  0
 23 24  1  0
 24 25  2  0
 25 26  1  0
 26 27  1  0
 28 27  1  1
 28 30  1  0
 29 28  1  0
 30 31  2  0
 30 34  1  0
 32 26  2  0
 33 32  1  0
M  END
$$$$
