WTY.pdb
     RDKit          3D

 34 36  0  0  1  0  0  0  0  0999 V2000
    6.5429  -17.3487   24.8514 N   0  0  0  0  0  0  0  0  0  0  0  0
    7.3393  -16.3906   24.1453 C   0  0  1  0  0  0  0  0  0  0  0  0
    7.9618  -15.3825   25.0773 C   0  0  0  0  0  0  0  0  0  0  0  0
    6.9857  -14.4669   25.7067 C   0  0  0  0  0  0  0  0  0  0  0  0
    5.9035  -14.8766   26.4538 C   0  0  0  0  0  0  0  0  0  0  0  0
    5.2345  -13.7971   26.8997 N   0  0  0  0  0  0  0  0  0  0  0  0
    5.8506  -12.6784   26.4634 C   0  0  0  0  0  0  0  0  0  0  0  0
    5.5424  -11.3495   26.6529 C   0  0  0  0  0  0  0  0  0  0  0  0
    6.3313  -10.3820   26.0927 C   0  0  0  0  0  0  0  0  0  0  0  0
    7.4200  -10.7808   25.3488 C   0  0  0  0  0  0  0  0  0  0  0  0
    7.7314  -12.1195   25.1573 C   0  0  0  0  0  0  0  0  0  0  0  0
    6.9489  -13.0962   25.7146 C   0  0  0  0  0  0  0  0  0  0  0  0
    8.4133  -17.0930   23.4004 C   0  0  0  0  0  0  0  0  0  0  0  0
    8.8423  -18.1778   23.8619 O   0  0  0  0  0  0  0  0  0  0  0  0
   10.5853  -17.4915   19.4405 C   0  0  0  0  0  0  0  0  0  0  0  0
   10.6164  -16.4037   20.4766 C   0  0  1  0  0  0  0  0  0  0  0  0
    9.5920  -15.5041   20.1547 O   0  0  0  0  0  0  0  0  0  0  0  0
   10.3433  -16.9102   21.8724 C   0  0  2  0  0  0  0  0  0  0  0  0
    8.9727  -16.5966   22.1996 N   0  0  0  0  0  0  0  0  0  0  0  0
   11.2920  -16.3532   22.8648 C   0  0  0  0  0  0  0  0  0  0  0  0
   10.8448  -15.6841   23.8147 O   0  0  0  0  0  0  0  0  0  0  0  0
    9.5499  -14.8855   28.7389 O   0  0  0  0  0  0  0  0  0  0  0  0
   10.4522  -15.4548   27.8465 C   0  0  0  0  0  0  0  0  0  0  0  0
   11.6973  -14.9218   27.6114 C   0  0  0  0  0  0  0  0  0  0  0  0
   12.5790  -15.4980   26.7243 C   0  0  0  0  0  0  0  0  0  0  0  0
   12.2687  -16.6434   26.0168 C   0  0  0  0  0  0  0  0  0  0  0  0
   13.1844  -17.2688   25.0566 C   0  0  0  0  0  0  0  0  0  0  0  0
   13.5343  -16.3998   23.9143 C   0  0  2  0  0  0  0  0  0  0  0  0
   12.6852  -16.5525   22.7741 N   0  0  0  0  0  0  0  0  0  0  0  0
   14.9193  -16.6452   23.4660 C   0  0  0  0  0  0  0  0  0  0  0  0
   15.8658  -16.0464   24.0396 O   0  0  0  0  0  0  0  0  0  0  0  0
   10.9956  -17.1781   26.2652 C   0  0  0  0  0  0  0  0  0  0  0  0
   10.1189  -16.5987   27.1527 C   0  0  0  0  0  0  0  0  0  0  0  0
   15.2215  -17.5256   22.4179 O   0  0  0  0  0  0  0  0  0  0  0  0
  2  1  1  1
  2 13  1  0
  2  3  1  0
  4  3  1  0
  5  4  2  0
  6  7  1  0
  6  5  1  0
  7 12  2  0
  8  9  2  0
  8  7  1  0
  9 10  1  0
 10 11  2  0
 12  4  1  0
 12 11  1  0
 13 14  2  0
 16 15  1  6
 16 18  1  0
 17 16  1  0
 18 20  1  0
 18 19  1  1
 19 13  1  0
 20 29  1  0
 20 21  2  0
 22 23  1  0
 23 33  2  0
 23 24  1  0
 24 25  2  0
 25 26  1  0
 26 27  1  0
 28 27  1  1
 28 30  1  0
 29 28  1  0
 30 31  2  0
 30 34  1  0
 32 26  2  0
 33 32  1  0
M  END
$$$$
