WTY.pdb
     RDKit          3D

 34 36  0  0  1  0  0  0  0  0999 V2000
    6.6870  -17.5218   24.2841 N   0  0  0  0  0  0  0  0  0  0  0  0
    7.7403  -16.6301   23.9020 C   0  0  1  0  0  0  0  0  0  0  0  0
    8.2632  -15.8432   25.0766 C   0  0  0  0  0  0  0  0  0  0  0  0
    7.3193  -14.8224   25.5808 C   0  0  0  0  0  0  0  0  0  0  0  0
    6.0452  -15.0936   26.0282 C   0  0  0  0  0  0  0  0  0  0  0  0
    5.4636  -13.9511   26.4384 N   0  0  0  0  0  0  0  0  0  0  0  0
    6.3259  -12.9263   26.2719 C   0  0  0  0  0  0  0  0  0  0  0  0
    6.1878  -11.5821   26.5384 C   0  0  0  0  0  0  0  0  0  0  0  0
    7.2216  -10.7264   26.2718 C   0  0  0  0  0  0  0  0  0  0  0  0
    8.3786  -11.2507   25.7384 C   0  0  0  0  0  0  0  0  0  0  0  0
    8.5187  -12.6049   25.4697 C   0  0  0  0  0  0  0  0  0  0  0  0
    7.4902  -13.4704   25.7338 C   0  0  0  0  0  0  0  0  0  0  0  0
    8.8532  -17.4073   23.3026 C   0  0  0  0  0  0  0  0  0  0  0  0
    9.2298  -18.4508   23.8885 O   0  0  0  0  0  0  0  0  0  0  0  0
   10.1349  -17.9566   19.5415 C   0  0  0  0  0  0  0  0  0  0  0  0
   11.1660  -17.2926   20.4096 C   0  0  1  0  0  0  0  0  0  0  0  0
   11.1343  -15.9251   20.1076 O   0  0  0  0  0  0  0  0  0  0  0  0
   10.8734  -17.4310   21.8843 C   0  0  2  0  0  0  0  0  0  0  0  0
    9.5057  -17.0261   22.1066 N   0  0  0  0  0  0  0  0  0  0  0  0
   11.8234  -16.6576   22.7176 C   0  0  0  0  0  0  0  0  0  0  0  0
   11.8785  -15.4217   22.5771 O   0  0  0  0  0  0  0  0  0  0  0  0
    8.7859  -14.9505   28.4368 O   0  0  0  0  0  0  0  0  0  0  0  0
    9.9502  -15.3759   27.8058 C   0  0  0  0  0  0  0  0  0  0  0  0
   10.5579  -14.6524   26.8073 C   0  0  0  0  0  0  0  0  0  0  0  0
   11.7107  -15.0878   26.1926 C   0  0  0  0  0  0  0  0  0  0  0  0
   12.3266  -16.2750   26.5390 C   0  0  0  0  0  0  0  0  0  0  0  0
   13.5468  -16.7674   25.8908 C   0  0  0  0  0  0  0  0  0  0  0  0
   13.5976  -16.5036   24.4381 C   0  0  2  0  0  0  0  0  0  0  0  0
   12.6693  -17.2693   23.6658 N   0  0  0  0  0  0  0  0  0  0  0  0
   14.9447  -16.7719   23.8972 C   0  0  0  0  0  0  0  0  0  0  0  0
   15.0844  -17.6444   23.0012 O   0  0  0  0  0  0  0  0  0  0  0  0
   11.6974  -17.0043   27.5591 C   0  0  0  0  0  0  0  0  0  0  0  0
   10.5462  -16.5646   28.1700 C   0  0  0  0  0  0  0  0  0  0  0  0
   16.0819  -16.0871   24.3476 O   0  0  0  0  0  0  0  0  0  0  0  0
  2  1  1  1
  2 13  1  0
  2  3  1  0
  4  3  1  0
  5  4  2  0
  6  7  1  0
  6  5  1  0
  7 12  2  0
  8  9  2  0
  8  7  1  0
  9 10  1  0
 10 11  2  0
 12  4  1  0
 12 11  1  0
 13 14  2  0
 16 15  1  6
 16 18  1  0
 17 16  1  0
 18 20  1  0
 18 19  1  6
 19 13  1  0
 20 29  1  0
 20 21  2  0
 22 23  1  0
 23 33  2  0
 23 24  1  0
 24 25  2  0
 25 26  1  0
 26 27  1  0
 28 27  1  1
 28 30  1  0
 29 28  1  0
 30 31  2  0
 30 34  1  0
 32 26  2  0
 33 32  1  0
M  END
$$$$
