WTY.pdb
     RDKit          3D

 34 36  0  0  1  0  0  0  0  0999 V2000
    6.0966  -17.4710   23.4914 N   0  0  0  0  0  0  0  0  0  0  0  0
    7.2291  -16.6262   23.2581 C   0  0  1  0  0  0  0  0  0  0  0  0
    7.8932  -16.2097   24.5456 C   0  0  0  0  0  0  0  0  0  0  0  0
    7.0898  -15.2691   25.3562 C   0  0  0  0  0  0  0  0  0  0  0  0
    6.0936  -15.6478   26.2286 C   0  0  0  0  0  0  0  0  0  0  0  0
    5.5806  -14.5541   26.8222 N   0  0  0  0  0  0  0  0  0  0  0  0
    6.2160  -13.4563   26.3612 C   0  0  0  0  0  0  0  0  0  0  0  0
    6.0430  -12.1236   26.6626 C   0  0  0  0  0  0  0  0  0  0  0  0
    6.8197  -11.1807   26.0462 C   0  0  0  0  0  0  0  0  0  0  0  0
    7.7591  -11.6076   25.1334 C   0  0  0  0  0  0  0  0  0  0  0  0
    7.9342  -12.9502   24.8292 C   0  0  0  0  0  0  0  0  0  0  0  0
    7.1626  -13.9024   25.4412 C   0  0  0  0  0  0  0  0  0  0  0  0
    8.2148  -17.3432   22.4117 C   0  0  0  0  0  0  0  0  0  0  0  0
    8.4766  -18.5381   22.6902 O   0  0  0  0  0  0  0  0  0  0  0  0
    9.6172  -17.4231   18.7455 C   0  0  0  0  0  0  0  0  0  0  0  0
   10.5975  -16.7458   19.6609 C   0  0  1  0  0  0  0  0  0  0  0  0
   10.5035  -15.3703   19.4138 O   0  0  0  0  0  0  0  0  0  0  0  0
   10.2845  -16.9592   21.1225 C   0  0  2  0  0  0  0  0  0  0  0  0
    8.8697  -16.7426   21.3109 N   0  0  0  0  0  0  0  0  0  0  0  0
   11.1007  -16.0898   22.0016 C   0  0  0  0  0  0  0  0  0  0  0  0
   10.8275  -14.8770   22.0696 O   0  0  0  0  0  0  0  0  0  0  0  0
   11.2781  -14.9013   30.3533 O   0  0  0  0  0  0  0  0  0  0  0  0
   11.2117  -15.3287   29.0314 C   0  0  0  0  0  0  0  0  0  0  0  0
   11.2938  -16.6543   28.6768 C   0  0  0  0  0  0  0  0  0  0  0  0
   11.2263  -17.0608   27.3628 C   0  0  0  0  0  0  0  0  0  0  0  0
   11.0729  -16.1655   26.3219 C   0  0  0  0  0  0  0  0  0  0  0  0
   11.0118  -16.5715   24.9137 C   0  0  0  0  0  0  0  0  0  0  0  0
   12.2677  -16.3382   24.1715 C   0  0  2  0  0  0  0  0  0  0  0  0
   12.1776  -16.5848   22.7659 N   0  0  0  0  0  0  0  0  0  0  0  0
   13.3586  -17.1830   24.6962 C   0  0  0  0  0  0  0  0  0  0  0  0
   13.4760  -18.3642   24.2785 O   0  0  0  0  0  0  0  0  0  0  0  0
   10.9901  -14.8158   26.6961 C   0  0  0  0  0  0  0  0  0  0  0  0
   11.0578  -14.4152   28.0102 C   0  0  0  0  0  0  0  0  0  0  0  0
   14.2743  -16.7159   25.6492 O   0  0  0  0  0  0  0  0  0  0  0  0
  2  1  1  1
  2 13  1  0
  2  3  1  0
  4  3  1  0
  5  4  2  0
  6  7  1  0
  6  5  1  0
  7 12  2  0
  8  9  2  0
  8  7  1  0
  9 10  1  0
 10 11  2  0
 12  4  1  0
 12 11  1  0
 13 14  2  0
 16 15  1  6
 16 18  1  0
 17 16  1  0
 18 20  1  0
 18 19  1  6
 19 13  1  0
 20 29  1  0
 20 21  2  0
 22 23  1  0
 23 33  2  0
 23 24  1  0
 24 25  2  0
 25 26  1  0
 26 27  1  0
 28 27  1  1
 28 30  1  0
 29 28  1  0
 30 31  2  0
 30 34  1  0
 32 26  2  0
 33 32  1  0
M  END
$$$$
