WTY.pdb
     RDKit          3D

 34 36  0  0  1  0  0  0  0  0999 V2000
    6.9460  -17.3727   25.3209 N   0  0  0  0  0  0  0  0  0  0  0  0
    7.6703  -16.4859   24.4609 C   0  0  1  0  0  0  0  0  0  0  0  0
    8.2467  -15.3166   25.2178 C   0  0  0  0  0  0  0  0  0  0  0  0
    7.2262  -14.4002   25.7708 C   0  0  0  0  0  0  0  0  0  0  0  0
    6.1606  -14.7989   26.5471 C   0  0  0  0  0  0  0  0  0  0  0  0
    5.4401  -13.7196   26.9045 N   0  0  0  0  0  0  0  0  0  0  0  0
    6.0057  -12.6118   26.3807 C   0  0  0  0  0  0  0  0  0  0  0  0
    5.6352  -11.2878   26.4628 C   0  0  0  0  0  0  0  0  0  0  0  0
    6.3810  -10.3325   25.8278 C   0  0  0  0  0  0  0  0  0  0  0  0
    7.4906  -10.7383   25.1193 C   0  0  0  0  0  0  0  0  0  0  0  0
    7.8648  -12.0720   25.0360 C   0  0  0  0  0  0  0  0  0  0  0  0
    7.1257  -13.0364   25.6689 C   0  0  0  0  0  0  0  0  0  0  0  0
    8.7718  -17.2283   23.7996 C   0  0  0  0  0  0  0  0  0  0  0  0
    9.2881  -18.1930   24.4132 O   0  0  0  0  0  0  0  0  0  0  0  0
    9.6922  -17.4305   19.8333 C   0  0  0  0  0  0  0  0  0  0  0  0
   10.8156  -16.9337   20.6987 C   0  0  1  0  0  0  0  0  0  0  0  0
   10.8380  -15.5384   20.5771 O   0  0  0  0  0  0  0  0  0  0  0  0
   10.6183  -17.2511   22.1615 C   0  0  2  0  0  0  0  0  0  0  0  0
    9.2638  -16.8983   22.5149 N   0  0  0  0  0  0  0  0  0  0  0  0
   11.6121  -16.5666   23.0210 C   0  0  0  0  0  0  0  0  0  0  0  0
   11.5087  -15.3388   23.1994 O   0  0  0  0  0  0  0  0  0  0  0  0
    9.0672  -15.7136   28.9304 O   0  0  0  0  0  0  0  0  0  0  0  0
   10.1844  -16.0535   28.1748 C   0  0  0  0  0  0  0  0  0  0  0  0
   10.3292  -17.2842   27.5796 C   0  0  0  0  0  0  0  0  0  0  0  0
   11.4420  -17.6049   26.8345 C   0  0  0  0  0  0  0  0  0  0  0  0
   12.4794  -16.7136   26.6392 C   0  0  0  0  0  0  0  0  0  0  0  0
   13.6808  -17.0351   25.8616 C   0  0  0  0  0  0  0  0  0  0  0  0
   13.6266  -16.5681   24.4611 C   0  0  2  0  0  0  0  0  0  0  0  0
   12.6729  -17.2542   23.6461 N   0  0  0  0  0  0  0  0  0  0  0  0
   14.9422  -16.7036   23.8055 C   0  0  0  0  0  0  0  0  0  0  0  0
   15.9488  -16.1601   24.3299 O   0  0  0  0  0  0  0  0  0  0  0  0
   12.3202  -15.4611   27.2511 C   0  0  0  0  0  0  0  0  0  0  0  0
   11.2064  -15.1459   27.9942 C   0  0  0  0  0  0  0  0  0  0  0  0
   15.1134  -17.4192   22.6123 O   0  0  0  0  0  0  0  0  0  0  0  0
  2  1  1  1
  2 13  1  0
  2  3  1  0
  4  3  1  0
  5  4  2  0
  6  7  1  0
  6  5  1  0
  7 12  2  0
  8  9  2  0
  8  7  1  0
  9 10  1  0
 10 11  2  0
 12  4  1  0
 12 11  1  0
 13 14  2  0
 16 15  1  6
 16 18  1  0
 17 16  1  0
 18 20  1  0
 18 19  1  1
 19 13  1  0
 20 29  1  0
 20 21  2  0
 22 23  1  0
 23 33  2  0
 23 24  1  0
 24 25  2  0
 25 26  1  0
 26 27  1  0
 28 27  1  1
 28 30  1  0
 29 28  1  0
 30 31  2  0
 30 34  1  0
 32 26  2  0
 33 32  1  0
M  END
$$$$
