WTY.pdb
     RDKit          3D

 34 36  0  0  1  0  0  0  0  0999 V2000
    6.6067  -17.3950   24.4077 N   0  0  0  0  0  0  0  0  0  0  0  0
    7.6370  -16.4567   24.0777 C   0  0  1  0  0  0  0  0  0  0  0  0
    8.0545  -15.6384   25.2729 C   0  0  0  0  0  0  0  0  0  0  0  0
    7.0398  -14.6546   25.7084 C   0  0  0  0  0  0  0  0  0  0  0  0
    5.8219  -14.9848   26.2605 C   0  0  0  0  0  0  0  0  0  0  0  0
    5.1507  -13.8590   26.5667 N   0  0  0  0  0  0  0  0  0  0  0  0
    5.8983  -12.7875   26.2286 C   0  0  0  0  0  0  0  0  0  0  0  0
    5.6410  -11.4392   26.3419 C   0  0  0  0  0  0  0  0  0  0  0  0
    6.5711  -10.5313   25.9142 C   0  0  0  0  0  0  0  0  0  0  0  0
    7.7469  -11.0084   25.3781 C   0  0  0  0  0  0  0  0  0  0  0  0
    8.0072  -12.3667   25.2637 C   0  0  0  0  0  0  0  0  0  0  0  0
    7.0833  -13.2841   25.6897 C   0  0  0  0  0  0  0  0  0  0  0  0
    8.8175  -17.1840   23.5494 C   0  0  0  0  0  0  0  0  0  0  0  0
    9.0843  -18.3106   24.0327 O   0  0  0  0  0  0  0  0  0  0  0  0
   10.2814  -17.4477   19.9196 C   0  0  0  0  0  0  0  0  0  0  0  0
   11.3485  -17.0166   20.8857 C   0  0  1  0  0  0  0  0  0  0  0  0
   11.5249  -15.6381   20.7104 O   0  0  0  0  0  0  0  0  0  0  0  0
   10.9623  -17.2373   22.3285 C   0  0  2  0  0  0  0  0  0  0  0  0
    9.6518  -16.6665   22.5307 N   0  0  0  0  0  0  0  0  0  0  0  0
   11.9624  -16.6767   23.2669 C   0  0  0  0  0  0  0  0  0  0  0  0
   11.9198  -15.4619   23.5362 O   0  0  0  0  0  0  0  0  0  0  0  0
    9.3111  -15.2367   28.8280 O   0  0  0  0  0  0  0  0  0  0  0  0
   10.4378  -15.7233   28.1736 C   0  0  0  0  0  0  0  0  0  0  0  0
   11.5614  -14.9589   27.9663 C   0  0  0  0  0  0  0  0  0  0  0  0
   12.6690  -15.4560   27.3163 C   0  0  0  0  0  0  0  0  0  0  0  0
   12.7205  -16.7492   26.8328 C   0  0  0  0  0  0  0  0  0  0  0  0
   13.8824  -17.2982   26.1256 C   0  0  0  0  0  0  0  0  0  0  0  0
   13.9645  -16.8899   24.7082 C   0  0  2  0  0  0  0  0  0  0  0  0
   12.9628  -17.4685   23.8678 N   0  0  0  0  0  0  0  0  0  0  0  0
   15.2773  -17.2398   24.1308 C   0  0  0  0  0  0  0  0  0  0  0  0
   16.3259  -16.8752   24.7233 O   0  0  0  0  0  0  0  0  0  0  0  0
   11.5682  -17.5195   27.0506 C   0  0  0  0  0  0  0  0  0  0  0  0
   10.4647  -17.0181   27.7007 C   0  0  0  0  0  0  0  0  0  0  0  0
   15.4005  -17.9671   22.9388 O   0  0  0  0  0  0  0  0  0  0  0  0
  2  1  1  1
  2 13  1  0
  2  3  1  0
  4  3  1  0
  5  4  2  0
  6  7  1  0
  6  5  1  0
  7 12  2  0
  8  9  2  0
  8  7  1  0
  9 10  1  0
 10 11  2  0
 12  4  1  0
 12 11  1  0
 13 14  2  0
 16 15  1  6
 16 18  1  0
 17 16  1  0
 18 20  1  0
 18 19  1  1
 19 13  1  0
 20 29  1  0
 20 21  2  0
 22 23  1  0
 23 33  2  0
 23 24  1  0
 24 25  2  0
 25 26  1  0
 26 27  1  0
 28 27  1  1
 28 30  1  0
 29 28  1  0
 30 31  2  0
 30 34  1  0
 32 26  2  0
 33 32  1  0
M  END
$$$$
