WTY.pdb
     RDKit          3D

 34 36  0  0  1  0  0  0  0  0999 V2000
    6.8795  -17.6895   25.0878 N   0  0  0  0  0  0  0  0  0  0  0  0
    7.5813  -16.8341   24.1787 C   0  0  1  0  0  0  0  0  0  0  0  0
    8.2473  -15.6844   24.8907 C   0  0  0  0  0  0  0  0  0  0  0  0
    7.2994  -14.7507   25.5363 C   0  0  0  0  0  0  0  0  0  0  0  0
    6.2551  -15.1379   26.3465 C   0  0  0  0  0  0  0  0  0  0  0  0
    5.6048  -14.0456   26.7891 N   0  0  0  0  0  0  0  0  0  0  0  0
    6.1962  -12.9405   26.2886 C   0  0  0  0  0  0  0  0  0  0  0  0
    5.8933  -11.6067   26.4501 C   0  0  0  0  0  0  0  0  0  0  0  0
    6.6519  -10.6564   25.8225 C   0  0  0  0  0  0  0  0  0  0  0  0
    7.7053  -11.0773   25.0408 C   0  0  0  0  0  0  0  0  0  0  0  0
    8.0113  -12.4209   24.8776 C   0  0  0  0  0  0  0  0  0  0  0  0
    7.2589  -13.3804   25.5022 C   0  0  0  0  0  0  0  0  0  0  0  0
    8.6107  -17.6202   23.4547 C   0  0  0  0  0  0  0  0  0  0  0  0
    9.1436  -18.5880   24.0491 O   0  0  0  0  0  0  0  0  0  0  0  0
    9.3246  -18.2713   19.5038 C   0  0  0  0  0  0  0  0  0  0  0  0
   10.4210  -17.5234   20.2084 C   0  0  1  0  0  0  0  0  0  0  0  0
   10.2477  -16.1663   19.9080 O   0  0  0  0  0  0  0  0  0  0  0  0
   10.3572  -17.6597   21.7107 C   0  0  2  0  0  0  0  0  0  0  0  0
    9.0165  -17.3286   22.1312 N   0  0  0  0  0  0  0  0  0  0  0  0
   11.3743  -16.8247   22.3914 C   0  0  0  0  0  0  0  0  0  0  0  0
   11.5135  -15.6390   22.0380 O   0  0  0  0  0  0  0  0  0  0  0  0
    9.8499  -16.7951   29.5933 O   0  0  0  0  0  0  0  0  0  0  0  0
   10.4929  -16.4334   28.4143 C   0  0  0  0  0  0  0  0  0  0  0  0
    9.8099  -16.1489   27.2557 C   0  0  0  0  0  0  0  0  0  0  0  0
   10.4620  -15.7923   26.0964 C   0  0  0  0  0  0  0  0  0  0  0  0
   11.8385  -15.6987   26.0247 C   0  0  0  0  0  0  0  0  0  0  0  0
   12.5575  -15.3341   24.7992 C   0  0  0  0  0  0  0  0  0  0  0  0
   13.1459  -16.4878   24.0883 C   0  0  2  0  0  0  0  0  0  0  0  0
   12.1923  -17.3228   23.4265 N   0  0  0  0  0  0  0  0  0  0  0  0
   13.9131  -17.3454   25.0130 C   0  0  0  0  0  0  0  0  0  0  0  0
   14.8840  -16.8533   25.6445 O   0  0  0  0  0  0  0  0  0  0  0  0
   12.5244  -15.9909   27.2132 C   0  0  0  0  0  0  0  0  0  0  0  0
   11.8681  -16.3465   28.3685 C   0  0  0  0  0  0  0  0  0  0  0  0
   13.5991  -18.6965   25.2149 O   0  0  0  0  0  0  0  0  0  0  0  0
  2  1  1  1
  2 13  1  0
  2  3  1  0
  4  3  1  0
  5  4  2  0
  6  7  1  0
  6  5  1  0
  7 12  2  0
  8  9  2  0
  8  7  1  0
  9 10  1  0
 10 11  2  0
 12  4  1  0
 12 11  1  0
 13 14  2  0
 16 15  1  6
 16 18  1  0
 17 16  1  0
 18 20  1  0
 18 19  1  1
 19 13  1  0
 20 29  1  0
 20 21  2  0
 22 23  1  0
 23 33  2  0
 23 24  1  0
 24 25  2  0
 25 26  1  0
 26 27  1  0
 28 27  1  1
 28 30  1  0
 29 28  1  0
 30 31  2  0
 30 34  1  0
 32 26  2  0
 33 32  1  0
M  END
$$$$
