WTY.pdb
     RDKit          3D

 34 36  0  0  1  0  0  0  0  0999 V2000
   12.6924  -13.9873   19.5550 N   0  0  0  0  0  0  0  0  0  0  0  0
   11.7621  -14.8785   20.1803 C   0  0  1  0  0  0  0  0  0  0  0  0
   11.1909  -15.8715   19.2005 C   0  0  0  0  0  0  0  0  0  0  0  0
   10.0019  -15.3777   18.4728 C   0  0  0  0  0  0  0  0  0  0  0  0
    9.3732  -16.0600   17.4548 C   0  0  0  0  0  0  0  0  0  0  0  0
    8.3144  -15.3474   17.0272 N   0  0  0  0  0  0  0  0  0  0  0  0
    8.2274  -14.2051   17.7406 C   0  0  0  0  0  0  0  0  0  0  0  0
    7.3265  -13.1658   17.6686 C   0  0  0  0  0  0  0  0  0  0  0  0
    7.4549  -12.0951   18.5108 C   0  0  0  0  0  0  0  0  0  0  0  0
    8.4969  -12.0979   19.4119 C   0  0  0  0  0  0  0  0  0  0  0  0
    9.4051  -13.1446   19.4853 C   0  0  0  0  0  0  0  0  0  0  0  0
    9.2851  -14.2218   18.6475 C   0  0  0  0  0  0  0  0  0  0  0  0
   12.4409  -15.6123   21.2770 C   0  0  0  0  0  0  0  0  0  0  0  0
   13.6901  -15.5311   21.3596 O   0  0  0  0  0  0  0  0  0  0  0  0
   11.2570  -15.0555   24.8224 C   0  0  0  0  0  0  0  0  0  0  0  0
   11.4945  -16.5226   24.6008 C   0  0  1  0  0  0  0  0  0  0  0  0
   10.2542  -17.0945   24.2900 O   0  0  0  0  0  0  0  0  0  0  0  0
   12.4184  -16.8020   23.4397 C   0  0  2  0  0  0  0  0  0  0  0  0
   11.7463  -16.3957   22.2284 N   0  0  0  0  0  0  0  0  0  0  0  0
   12.8408  -18.2212   23.3905 C   0  0  0  0  0  0  0  0  0  0  0  0
   12.3143  -18.9767   22.5526 O   0  0  0  0  0  0  0  0  0  0  0  0
   18.6044  -17.5742   20.2821 O   0  0  0  0  0  0  0  0  0  0  0  0
   17.8792  -18.2717   21.2423 C   0  0  0  0  0  0  0  0  0  0  0  0
   17.1329  -19.3862   20.9414 C   0  0  0  0  0  0  0  0  0  0  0  0
   16.4203  -20.0656   21.9042 C   0  0  0  0  0  0  0  0  0  0  0  0
   16.4100  -19.6711   23.2283 C   0  0  0  0  0  0  0  0  0  0  0  0
   15.6490  -20.3691   24.2700 C   0  0  0  0  0  0  0  0  0  0  0  0
   14.1927  -20.1289   24.2057 C   0  0  2  0  0  0  0  0  0  0  0  0
   13.8186  -18.7499   24.2584 N   0  0  0  0  0  0  0  0  0  0  0  0
   13.4928  -20.8160   25.3089 C   0  0  0  0  0  0  0  0  0  0  0  0
   12.8478  -20.1336   26.1467 O   0  0  0  0  0  0  0  0  0  0  0  0
   17.1754  -18.5328   23.5231 C   0  0  0  0  0  0  0  0  0  0  0  0
   17.8856  -17.8581   22.5575 C   0  0  0  0  0  0  0  0  0  0  0  0
   13.5203  -22.2094   25.4597 O   0  0  0  0  0  0  0  0  0  0  0  0
  2  1  1  6
  2 13  1  0
  2  3  1  0
  4  3  1  0
  5  4  2  0
  6  7  1  0
  6  5  1  0
  7 12  2  0
  8  9  2  0
  8  7  1  0
  9 10  1  0
 10 11  2  0
 12  4  1  0
 12 11  1  0
 13 14  2  0
 16 15  1  6
 16 18  1  0
 17 16  1  0
 18 20  1  0
 18 19  1  6
 19 13  1  0
 20 29  1  0
 20 21  2  0
 22 23  1  0
 23 33  2  0
 23 24  1  0
 24 25  2  0
 25 26  1  0
 26 27  1  0
 28 27  1  1
 28 30  1  0
 29 28  1  0
 30 31  2  0
 30 34  1  0
 32 26  2  0
 33 32  1  0
M  END
$$$$
