IVQ.pdb
     RDKit          3D

 25 24  0  0  1  0  0  0  0  0999 V2000
    6.6934  -11.3762   27.5198 C   0  0  0  0  0  0  0  0  0  0  0  0
    5.8927  -12.4244   26.7771 C   0  0  0  0  0  0  0  0  0  0  0  0
    6.8055  -13.3558   26.0292 C   0  0  2  0  0  0  0  0  0  0  0  0
    7.7829  -12.5424   25.2002 C   0  0  0  0  0  0  0  0  0  0  0  0
    6.1012  -14.3900   25.2190 C   0  0  2  0  0  0  0  0  0  0  0  0
    5.2681  -15.1718   26.0699 N   0  0  0  0  0  0  0  0  0  0  0  0
    7.0420  -15.2984   24.4891 C   0  0  0  0  0  0  0  0  0  0  0  0
    7.4207  -16.3724   25.0220 O   0  0  0  0  0  0  0  0  0  0  0  0
    6.9449  -15.1591   20.3696 C   0  0  0  0  0  0  0  0  0  0  0  0
    8.3593  -15.1101   20.9124 C   0  0  2  0  0  0  0  0  0  0  0  0
    9.1904  -15.9636   19.9915 C   0  0  0  0  0  0  0  0  0  0  0  0
    8.3679  -15.6227   22.3105 C   0  0  2  0  0  0  0  0  0  0  0  0
    7.4792  -14.9261   23.2228 N   0  0  0  0  0  0  0  0  0  0  0  0
    9.6445  -15.8517   22.9632 C   0  0  0  0  0  0  0  0  0  0  0  0
   10.2423  -14.8368   23.4930 O   0  0  0  0  0  0  0  0  0  0  0  0
   13.7801  -20.3542   26.7343 N   0  0  0  0  0  0  0  0  0  0  0  0
   12.8403  -19.3144   26.6994 C   0  0  0  0  0  0  0  0  0  0  0  0
   11.9699  -19.2149   27.5742 O   0  0  0  0  0  0  0  0  0  0  0  0
   12.8890  -18.3176   25.5974 C   0  0  0  0  0  0  0  0  0  0  0  0
   11.5323  -18.0961   24.9868 C   0  0  0  0  0  0  0  0  0  0  0  0
   11.6289  -17.1428   23.8518 C   0  0  2  0  0  0  0  0  0  0  0  0
   10.3575  -17.0612   23.1177 N   0  0  0  0  0  0  0  0  0  0  0  0
   12.7339  -17.4605   22.9528 C   0  0  0  0  0  0  0  0  0  0  0  0
   12.4970  -17.9733   21.7873 O   0  0  0  0  0  0  0  0  0  0  0  0
   14.0803  -17.2721   23.1929 O   0  0  0  0  0  0  0  0  0  0  0  0
  1  2  1  0
  3  2  1  0
  3  5  1  0
  3  4  1  6
  5  6  1  1
  7  5  1  0
  7  8  2  0
 10  9  1  6
 10 12  1  0
 11 10  1  0
 12 13  1  1
 12 14  1  0
 13  7  1  0
 14 22  1  0
 15 14  2  0
 17 16  1  0
 17 19  1  0
 18 17  2  0
 20 19  1  0
 21 20  1  1
 21 23  1  0
 22 21  1  0
 23 24  2  0
 23 25  1  0
M  END
$$$$
