IVQ.pdb
     RDKit          3D

 25 24  0  0  1  0  0  0  0  0999 V2000
    6.6573  -10.8862   27.5563 C   0  0  0  0  0  0  0  0  0  0  0  0
    5.8637  -11.9271   26.7961 C   0  0  0  0  0  0  0  0  0  0  0  0
    6.7838  -12.9147   26.1341 C   0  0  2  0  0  0  0  0  0  0  0  0
    7.8439  -12.1644   25.3483 C   0  0  0  0  0  0  0  0  0  0  0  0
    6.0912  -13.9445   25.3083 C   0  0  2  0  0  0  0  0  0  0  0  0
    5.1327  -14.6283   26.1102 N   0  0  0  0  0  0  0  0  0  0  0  0
    7.0338  -14.9457   24.7149 C   0  0  0  0  0  0  0  0  0  0  0  0
    7.3858  -15.9516   25.3822 O   0  0  0  0  0  0  0  0  0  0  0  0
    7.1377  -15.1416   20.5399 C   0  0  0  0  0  0  0  0  0  0  0  0
    8.5064  -15.1327   21.1913 C   0  0  2  0  0  0  0  0  0  0  0  0
    9.3576  -16.0806   20.3888 C   0  0  0  0  0  0  0  0  0  0  0  0
    8.3780  -15.5611   22.6117 C   0  0  2  0  0  0  0  0  0  0  0  0
    7.5026  -14.7349   23.4231 N   0  0  0  0  0  0  0  0  0  0  0  0
    9.5835  -15.8657   23.3615 C   0  0  0  0  0  0  0  0  0  0  0  0
   10.2556  -14.8776   23.8514 O   0  0  0  0  0  0  0  0  0  0  0  0
   10.5582  -19.8877   27.8117 N   0  0  0  0  0  0  0  0  0  0  0  0
   11.7907  -19.2200   27.7809 C   0  0  0  0  0  0  0  0  0  0  0  0
   12.6381  -19.4092   28.6635 O   0  0  0  0  0  0  0  0  0  0  0  0
   12.0846  -18.2722   26.6740 C   0  0  0  0  0  0  0  0  0  0  0  0
   10.9103  -18.1177   25.7468 C   0  0  0  0  0  0  0  0  0  0  0  0
   11.2871  -17.2878   24.5739 C   0  0  2  0  0  0  0  0  0  0  0  0
   10.1527  -17.1252   23.6526 N   0  0  0  0  0  0  0  0  0  0  0  0
   12.4578  -17.8112   23.8769 C   0  0  0  0  0  0  0  0  0  0  0  0
   13.6417  -17.6353   24.3720 O   0  0  0  0  0  0  0  0  0  0  0  0
   12.4714  -18.5149   22.6893 O   0  0  0  0  0  0  0  0  0  0  0  0
  1  2  1  0
  3  2  1  0
  3  5  1  0
  3  4  1  6
  5  6  1  1
  7  5  1  0
  7  8  2  0
 10  9  1  6
 10 12  1  0
 11 10  1  0
 12 13  1  1
 12 14  1  0
 13  7  1  0
 14 22  1  0
 15 14  2  0
 17 16  1  0
 17 19  1  0
 18 17  2  0
 20 19  1  0
 21 20  1  1
 21 23  1  0
 22 21  1  0
 23 24  2  0
 23 25  1  0
M  END
$$$$
