IVQ.pdb
     RDKit          3D

 25 24  0  0  1  0  0  0  0  0999 V2000
    6.0898  -10.6608   26.9358 C   0  0  0  0  0  0  0  0  0  0  0  0
    5.4635  -11.9156   26.3661 C   0  0  0  0  0  0  0  0  0  0  0  0
    6.5243  -12.8573   25.8681 C   0  0  2  0  0  0  0  0  0  0  0  0
    7.5005  -12.0949   24.9905 C   0  0  0  0  0  0  0  0  0  0  0  0
    5.9975  -14.0799   25.1975 C   0  0  2  0  0  0  0  0  0  0  0  0
    5.1104  -14.7596   26.0809 N   0  0  0  0  0  0  0  0  0  0  0  0
    7.0802  -15.0235   24.7724 C   0  0  0  0  0  0  0  0  0  0  0  0
    7.4720  -15.9260   25.5554 O   0  0  0  0  0  0  0  0  0  0  0  0
    7.3179  -15.6021   20.7029 C   0  0  0  0  0  0  0  0  0  0  0  0
    8.6865  -15.4690   21.3409 C   0  0  2  0  0  0  0  0  0  0  0  0
    9.5683  -16.4772   20.6530 C   0  0  0  0  0  0  0  0  0  0  0  0
    8.5750  -15.7280   22.8031 C   0  0  2  0  0  0  0  0  0  0  0  0
    7.6326  -14.8757   23.5051 N   0  0  0  0  0  0  0  0  0  0  0  0
    9.7917  -15.8477   23.5864 C   0  0  0  0  0  0  0  0  0  0  0  0
   10.4729  -14.7738   23.8114 O   0  0  0  0  0  0  0  0  0  0  0  0
   10.7914  -15.5186   29.2201 N   0  0  0  0  0  0  0  0  0  0  0  0
   11.6373  -16.5875   28.8920 C   0  0  0  0  0  0  0  0  0  0  0  0
   11.9962  -17.4013   29.7530 O   0  0  0  0  0  0  0  0  0  0  0  0
   12.1099  -16.7463   27.4913 C   0  0  0  0  0  0  0  0  0  0  0  0
   10.9672  -16.7330   26.5133 C   0  0  0  0  0  0  0  0  0  0  0  0
   11.4712  -16.9374   25.1311 C   0  0  2  0  0  0  0  0  0  0  0  0
   10.3634  -17.0018   24.1665 N   0  0  0  0  0  0  0  0  0  0  0  0
   12.3305  -18.1122   25.0218 C   0  0  0  0  0  0  0  0  0  0  0  0
   13.5254  -18.0923   25.5209 O   0  0  0  0  0  0  0  0  0  0  0  0
   12.0182  -19.3166   24.4238 O   0  0  0  0  0  0  0  0  0  0  0  0
  1  2  1  0
  3  2  1  0
  3  5  1  0
  3  4  1  6
  5  6  1  1
  7  5  1  0
  7  8  2  0
 10  9  1  6
 10 12  1  0
 11 10  1  0
 12 13  1  1
 12 14  1  0
 13  7  1  0
 14 22  1  0
 15 14  2  0
 17 16  1  0
 17 19  1  0
 18 17  2  0
 20 19  1  0
 21 20  1  1
 21 23  1  0
 22 21  1  0
 23 24  2  0
 23 25  1  0
M  END
$$$$
