IVQ.pdb
     RDKit          3D

 25 24  0  0  1  0  0  0  0  0999 V2000
    6.7792  -19.4253   21.1747 C   0  0  0  0  0  0  0  0  0  0  0  0
    6.7768  -17.9265   20.9623 C   0  0  0  0  0  0  0  0  0  0  0  0
    7.3112  -17.2192   22.1764 C   0  0  2  0  0  0  0  0  0  0  0  0
    6.5910  -17.7286   23.4117 C   0  0  0  0  0  0  0  0  0  0  0  0
    7.2890  -15.7317   22.0825 C   0  0  2  0  0  0  0  0  0  0  0  0
    7.9127  -15.3245   20.8682 N   0  0  0  0  0  0  0  0  0  0  0  0
    7.9792  -15.0651   23.2325 C   0  0  0  0  0  0  0  0  0  0  0  0
    9.2353  -15.0323   23.2796 O   0  0  0  0  0  0  0  0  0  0  0  0
    6.4179  -11.7462   24.9983 C   0  0  0  0  0  0  0  0  0  0  0  0
    6.6357  -12.8557   26.0079 C   0  0  2  0  0  0  0  0  0  0  0  0
    7.1412  -12.1888   27.2596 C   0  0  0  0  0  0  0  0  0  0  0  0
    7.6155  -13.8342   25.4600 C   0  0  2  0  0  0  0  0  0  0  0  0
    7.2029  -14.4913   24.2331 N   0  0  0  0  0  0  0  0  0  0  0  0
    8.2009  -14.8141   26.3574 C   0  0  0  0  0  0  0  0  0  0  0  0
    7.4540  -15.7891   26.7568 O   0  0  0  0  0  0  0  0  0  0  0  0
   12.9297  -18.3382   25.6753 N   0  0  0  0  0  0  0  0  0  0  0  0
   12.5486  -18.7312   26.9661 C   0  0  0  0  0  0  0  0  0  0  0  0
   13.0745  -19.7090   27.5138 O   0  0  0  0  0  0  0  0  0  0  0  0
   11.4992  -17.9638   27.6872 C   0  0  0  0  0  0  0  0  0  0  0  0
   11.0043  -16.7986   26.8748 C   0  0  0  0  0  0  0  0  0  0  0  0
   10.0108  -16.0148   27.6525 C   0  0  2  0  0  0  0  0  0  0  0  0
    9.5136  -14.8693   26.8762 N   0  0  0  0  0  0  0  0  0  0  0  0
   10.5329  -15.5846   28.9458 C   0  0  0  0  0  0  0  0  0  0  0  0
   10.7498  -14.3283   29.1741 O   0  0  0  0  0  0  0  0  0  0  0  0
   10.8416  -16.3877   30.0254 O   0  0  0  0  0  0  0  0  0  0  0  0
  1  2  1  0
  3  2  1  0
  3  5  1  0
  3  4  1  1
  5  6  1  6
  7  5  1  0
  7  8  2  0
 10  9  1  6
 10 12  1  0
 11 10  1  0
 12 13  1  6
 12 14  1  0
 13  7  1  0
 14 22  1  0
 15 14  2  0
 17 16  1  0
 17 19  1  0
 18 17  2  0
 20 19  1  0
 21 20  1  6
 21 23  1  0
 22 21  1  0
 23 24  2  0
 23 25  1  0
M  END
$$$$
