IVQ.pdb
     RDKit          3D

 25 24  0  0  1  0  0  0  0  0999 V2000
    8.5348  -12.3211   27.6395 C   0  0  0  0  0  0  0  0  0  0  0  0
    7.8951  -13.6008   27.1451 C   0  0  0  0  0  0  0  0  0  0  0  0
    6.8660  -13.3047   26.0900 C   0  0  2  0  0  0  0  0  0  0  0  0
    5.8330  -12.3449   26.6517 C   0  0  0  0  0  0  0  0  0  0  0  0
    6.2420  -14.5139   25.4814 C   0  0  2  0  0  0  0  0  0  0  0  0
    5.7093  -15.3413   26.5115 N   0  0  0  0  0  0  0  0  0  0  0  0
    7.2047  -15.3159   24.6609 C   0  0  0  0  0  0  0  0  0  0  0  0
    7.6088  -16.4317   25.0763 O   0  0  0  0  0  0  0  0  0  0  0  0
    6.9582  -15.0998   20.6641 C   0  0  0  0  0  0  0  0  0  0  0  0
    8.3972  -14.8784   21.0861 C   0  0  2  0  0  0  0  0  0  0  0  0
    9.2427  -15.6576   20.1139 C   0  0  0  0  0  0  0  0  0  0  0  0
    8.5771  -15.3495   22.4872 C   0  0  2  0  0  0  0  0  0  0  0  0
    7.6336  -14.7992   23.4434 N   0  0  0  0  0  0  0  0  0  0  0  0
    9.9097  -15.3357   23.0636 C   0  0  0  0  0  0  0  0  0  0  0  0
   10.1807  -14.4226   23.9359 O   0  0  0  0  0  0  0  0  0  0  0  0
   12.1022  -15.7662   27.5105 N   0  0  0  0  0  0  0  0  0  0  0  0
   11.8435  -17.1335   27.3385 C   0  0  0  0  0  0  0  0  0  0  0  0
   11.3698  -17.8114   28.2597 O   0  0  0  0  0  0  0  0  0  0  0  0
   12.1419  -17.7783   26.0326 C   0  0  0  0  0  0  0  0  0  0  0  0
   11.1827  -17.3365   24.9615 C   0  0  0  0  0  0  0  0  0  0  0  0
   11.9152  -16.6499   23.8668 C   0  0  2  0  0  0  0  0  0  0  0  0
   10.9946  -16.2040   22.8105 N   0  0  0  0  0  0  0  0  0  0  0  0
   12.9872  -17.4726   23.3151 C   0  0  0  0  0  0  0  0  0  0  0  0
   14.1374  -17.5250   23.9083 O   0  0  0  0  0  0  0  0  0  0  0  0
   12.9335  -18.2529   22.1776 O   0  0  0  0  0  0  0  0  0  0  0  0
  1  2  1  0
  3  2  1  0
  3  5  1  0
  3  4  1  1
  5  6  1  1
  7  5  1  0
  7  8  2  0
 10  9  1  6
 10 12  1  0
 11 10  1  0
 12 13  1  1
 12 14  1  0
 13  7  1  0
 14 22  1  0
 15 14  2  0
 17 16  1  0
 17 19  1  0
 18 17  2  0
 20 19  1  0
 21 20  1  1
 21 23  1  0
 22 21  1  0
 23 24  2  0
 23 25  1  0
M  END
$$$$
