IVQ.pdb
     RDKit          3D

 25 24  0  0  1  0  0  0  0  0999 V2000
    7.5668  -12.3463   18.7076 C   0  0  0  0  0  0  0  0  0  0  0  0
    7.3624  -13.6202   19.4992 C   0  0  0  0  0  0  0  0  0  0  0  0
    7.9908  -13.5042   20.8600 C   0  0  2  0  0  0  0  0  0  0  0  0
    9.4277  -13.0380   20.7112 C   0  0  0  0  0  0  0  0  0  0  0  0
    7.8790  -14.7326   21.6970 C   0  0  2  0  0  0  0  0  0  0  0  0
    6.5098  -15.1120   21.8008 N   0  0  0  0  0  0  0  0  0  0  0  0
    8.4407  -14.5525   23.0737 C   0  0  0  0  0  0  0  0  0  0  0  0
    9.6858  -14.5294   23.2476 O   0  0  0  0  0  0  0  0  0  0  0  0
    6.4558  -12.1185   25.4885 C   0  0  0  0  0  0  0  0  0  0  0  0
    6.7716  -13.3875   26.2549 C   0  0  2  0  0  0  0  0  0  0  0  0
    7.2132  -12.9490   27.6260 C   0  0  0  0  0  0  0  0  0  0  0  0
    7.8365  -14.1428   25.5387 C   0  0  2  0  0  0  0  0  0  0  0  0
    7.5591  -14.4133   24.1397 N   0  0  0  0  0  0  0  0  0  0  0  0
    8.3860  -15.3347   26.1596 C   0  0  0  0  0  0  0  0  0  0  0  0
    7.5922  -16.3347   26.3543 O   0  0  0  0  0  0  0  0  0  0  0  0
   13.2967  -16.7748   23.6682 N   0  0  0  0  0  0  0  0  0  0  0  0
   13.0606  -17.3871   24.9072 C   0  0  0  0  0  0  0  0  0  0  0  0
   13.5716  -18.4804   25.1834 O   0  0  0  0  0  0  0  0  0  0  0  0
   12.1850  -16.7150   25.9031 C   0  0  0  0  0  0  0  0  0  0  0  0
   11.0460  -17.5998   26.3299 C   0  0  0  0  0  0  0  0  0  0  0  0
   10.1153  -16.8503   27.2119 C   0  0  2  0  0  0  0  0  0  0  0  0
    9.7073  -15.5794   26.5951 N   0  0  0  0  0  0  0  0  0  0  0  0
   10.6685  -16.6322   28.5449 C   0  0  0  0  0  0  0  0  0  0  0  0
   10.8126  -15.4282   29.0000 O   0  0  0  0  0  0  0  0  0  0  0  0
   11.0804  -17.5981   29.4412 O   0  0  0  0  0  0  0  0  0  0  0  0
  1  2  1  0
  3  2  1  0
  3  5  1  0
  3  4  1  6
  5  6  1  1
  7  5  1  0
  7  8  2  0
 10  9  1  6
 10 12  1  0
 11 10  1  0
 12 13  1  6
 12 14  1  0
 13  7  1  0
 14 22  1  0
 15 14  2  0
 17 16  1  0
 17 19  1  0
 18 17  2  0
 20 19  1  0
 21 20  1  6
 21 23  1  0
 22 21  1  0
 23 24  2  0
 23 25  1  0
M  END
$$$$
