IVQ.pdb
     RDKit          3D

 25 24  0  0  1  0  0  0  0  0999 V2000
    6.8464  -11.8625   27.8730 C   0  0  0  0  0  0  0  0  0  0  0  0
    6.1531  -13.0584   27.2560 C   0  0  0  0  0  0  0  0  0  0  0  0
    7.0296  -13.7001   26.2167 C   0  0  2  0  0  0  0  0  0  0  0  0
    7.5466  -12.6337   25.2682 C   0  0  0  0  0  0  0  0  0  0  0  0
    6.3957  -14.8397   25.4945 C   0  0  2  0  0  0  0  0  0  0  0  0
    5.8959  -15.7805   26.4402 N   0  0  0  0  0  0  0  0  0  0  0  0
    7.3401  -15.5376   24.5648 C   0  0  0  0  0  0  0  0  0  0  0  0
    7.8334  -16.6487   24.8857 O   0  0  0  0  0  0  0  0  0  0  0  0
    6.7075  -14.8808   20.5558 C   0  0  0  0  0  0  0  0  0  0  0  0
    8.1691  -14.7490   20.9355 C   0  0  2  0  0  0  0  0  0  0  0  0
    8.9518  -15.3635   19.8054 C   0  0  0  0  0  0  0  0  0  0  0  0
    8.4071  -15.4501   22.2275 C   0  0  2  0  0  0  0  0  0  0  0  0
    7.6519  -14.9309   23.3533 N   0  0  0  0  0  0  0  0  0  0  0  0
    9.7747  -15.7059   22.6423 C   0  0  0  0  0  0  0  0  0  0  0  0
   10.4036  -14.7639   23.2630 O   0  0  0  0  0  0  0  0  0  0  0  0
   12.1606  -20.2739   25.7850 N   0  0  0  0  0  0  0  0  0  0  0  0
   13.3107  -19.5013   25.5698 C   0  0  0  0  0  0  0  0  0  0  0  0
   14.3733  -19.7694   26.1458 O   0  0  0  0  0  0  0  0  0  0  0  0
   13.2541  -18.3445   24.6377 C   0  0  0  0  0  0  0  0  0  0  0  0
   11.8940  -18.1998   24.0119 C   0  0  0  0  0  0  0  0  0  0  0  0
   11.8764  -17.0415   23.0823 C   0  0  2  0  0  0  0  0  0  0  0  0
   10.5507  -16.8734   22.4689 N   0  0  0  0  0  0  0  0  0  0  0  0
   12.9178  -17.1317   22.0636 C   0  0  0  0  0  0  0  0  0  0  0  0
   14.1355  -16.7934   22.3469 O   0  0  0  0  0  0  0  0  0  0  0  0
   12.7689  -17.5592   20.7594 O   0  0  0  0  0  0  0  0  0  0  0  0
  1  2  1  0
  3  2  1  0
  3  5  1  0
  3  4  1  6
  5  6  1  1
  7  5  1  0
  7  8  2  0
 10  9  1  6
 10 12  1  0
 11 10  1  0
 12 13  1  1
 12 14  1  0
 13  7  1  0
 14 22  1  0
 15 14  2  0
 17 16  1  0
 17 19  1  0
 18 17  2  0
 20 19  1  0
 21 20  1  6
 21 23  1  0
 22 21  1  0
 23 24  2  0
 23 25  1  0
M  END
$$$$
