IVQ.pdb
     RDKit          3D

 25 24  0  0  1  0  0  0  0  0999 V2000
    6.7484  -11.2604   27.6106 C   0  0  0  0  0  0  0  0  0  0  0  0
    5.9528  -12.2634   26.8029 C   0  0  0  0  0  0  0  0  0  0  0  0
    6.8694  -13.2437   26.1256 C   0  0  2  0  0  0  0  0  0  0  0  0
    7.9650  -12.4860   25.3977 C   0  0  0  0  0  0  0  0  0  0  0  0
    6.1777  -14.2248   25.2418 C   0  0  2  0  0  0  0  0  0  0  0  0
    5.2288  -14.9634   26.0057 N   0  0  0  0  0  0  0  0  0  0  0  0
    7.1226  -15.1811   24.5815 C   0  0  0  0  0  0  0  0  0  0  0  0
    7.3928  -16.2794   25.1308 O   0  0  0  0  0  0  0  0  0  0  0  0
    7.2615  -15.2328   20.4648 C   0  0  0  0  0  0  0  0  0  0  0  0
    8.6371  -15.1098   21.0894 C   0  0  2  0  0  0  0  0  0  0  0  0
    9.5556  -15.9561   20.2483 C   0  0  0  0  0  0  0  0  0  0  0  0
    8.5801  -15.5790   22.5015 C   0  0  2  0  0  0  0  0  0  0  0  0
    7.6850  -14.8255   23.3608 N   0  0  0  0  0  0  0  0  0  0  0  0
    9.8249  -15.8301   23.2054 C   0  0  0  0  0  0  0  0  0  0  0  0
   10.5495  -14.8122   23.5325 O   0  0  0  0  0  0  0  0  0  0  0  0
   11.5014  -19.8345   27.4505 N   0  0  0  0  0  0  0  0  0  0  0  0
   10.8305  -18.6083   27.5614 C   0  0  0  0  0  0  0  0  0  0  0  0
   10.1935  -18.3227   28.5838 O   0  0  0  0  0  0  0  0  0  0  0  0
   10.8843  -17.6378   26.4365 C   0  0  0  0  0  0  0  0  0  0  0  0
   11.7561  -18.1329   25.3153 C   0  0  0  0  0  0  0  0  0  0  0  0
   11.7323  -17.1721   24.1828 C   0  0  2  0  0  0  0  0  0  0  0  0
   10.3837  -17.0636   23.6071 N   0  0  0  0  0  0  0  0  0  0  0  0
   12.7160  -17.5004   23.1557 C   0  0  0  0  0  0  0  0  0  0  0  0
   12.3529  -18.1361   22.0874 O   0  0  0  0  0  0  0  0  0  0  0  0
   14.0638  -17.2017   23.1710 O   0  0  0  0  0  0  0  0  0  0  0  0
  1  2  1  0
  3  2  1  0
  3  5  1  0
  3  4  1  6
  5  6  1  1
  7  5  1  0
  7  8  2  0
 10  9  1  6
 10 12  1  0
 11 10  1  0
 12 13  1  1
 12 14  1  0
 13  7  1  0
 14 22  1  0
 15 14  2  0
 17 16  1  0
 17 19  1  0
 18 17  2  0
 20 19  1  0
 21 20  1  1
 21 23  1  0
 22 21  1  0
 23 24  2  0
 23 25  1  0
M  END
$$$$
