IVQ.pdb
     RDKit          3D

 25 24  0  0  1  0  0  0  0  0999 V2000
    6.9606  -16.2650   18.2362 C   0  0  0  0  0  0  0  0  0  0  0  0
    6.8816  -14.8730   18.8254 C   0  0  0  0  0  0  0  0  0  0  0  0
    7.3297  -14.8795   20.2604 C   0  0  2  0  0  0  0  0  0  0  0  0
    6.5850  -15.9668   21.0138 C   0  0  0  0  0  0  0  0  0  0  0  0
    7.2380  -13.5563   20.9407 C   0  0  2  0  0  0  0  0  0  0  0  0
    7.8423  -12.5598   20.1214 N   0  0  0  0  0  0  0  0  0  0  0  0
    7.8960  -13.5462   22.2861 C   0  0  0  0  0  0  0  0  0  0  0  0
    9.1497  -13.5838   22.3741 O   0  0  0  0  0  0  0  0  0  0  0  0
    6.3272  -11.4722   25.4607 C   0  0  0  0  0  0  0  0  0  0  0  0
    6.4753  -12.9511   25.7585 C   0  0  2  0  0  0  0  0  0  0  0  0
    6.9236  -13.0459   27.1929 C   0  0  0  0  0  0  0  0  0  0  0  0
    7.4685  -13.5448   24.8212 C   0  0  2  0  0  0  0  0  0  0  0  0
    7.0928  -13.4949   23.4198 N   0  0  0  0  0  0  0  0  0  0  0  0
    8.0215  -14.8525   25.1249 C   0  0  0  0  0  0  0  0  0  0  0  0
    7.2535  -15.8809   24.9814 O   0  0  0  0  0  0  0  0  0  0  0  0
   12.8892  -20.1232   24.5089 N   0  0  0  0  0  0  0  0  0  0  0  0
   12.4999  -18.7763   24.5229 C   0  0  0  0  0  0  0  0  0  0  0  0
   13.1163  -17.9297   23.8626 O   0  0  0  0  0  0  0  0  0  0  0  0
   11.3314  -18.3584   25.3416 C   0  0  0  0  0  0  0  0  0  0  0  0
   10.8337  -16.9951   24.9463 C   0  0  0  0  0  0  0  0  0  0  0  0
    9.7323  -16.5688   25.8471 C   0  0  2  0  0  0  0  0  0  0  0  0
    9.3216  -15.1854   25.5653 N   0  0  0  0  0  0  0  0  0  0  0  0
   10.0712  -16.7383   27.2567 C   0  0  0  0  0  0  0  0  0  0  0  0
   10.3809  -15.7090   27.9792 O   0  0  0  0  0  0  0  0  0  0  0  0
   10.1039  -17.9220   27.9663 O   0  0  0  0  0  0  0  0  0  0  0  0
  1  2  1  0
  3  2  1  0
  3  5  1  0
  3  4  1  1
  5  6  1  6
  7  5  1  0
  7  8  2  0
 10  9  1  6
 10 12  1  0
 11 10  1  0
 12 13  1  6
 12 14  1  0
 13  7  1  0
 14 22  1  0
 15 14  2  0
 17 16  1  0
 17 19  1  0
 18 17  2  0
 20 19  1  0
 21 20  1  6
 21 23  1  0
 22 21  1  0
 23 24  2  0
 23 25  1  0
M  END
$$$$
