IVQ.pdb
     RDKit          3D

 25 24  0  0  1  0  0  0  0  0999 V2000
    6.6204  -11.2721   27.3573 C   0  0  0  0  0  0  0  0  0  0  0  0
    5.8851  -12.4314   26.7196 C   0  0  0  0  0  0  0  0  0  0  0  0
    6.8341  -13.2911   25.9320 C   0  0  2  0  0  0  0  0  0  0  0  0
    7.6436  -12.4150   24.9931 C   0  0  0  0  0  0  0  0  0  0  0  0
    6.1884  -14.4328   25.2239 C   0  0  2  0  0  0  0  0  0  0  0  0
    5.5156  -15.2577   26.1705 N   0  0  0  0  0  0  0  0  0  0  0  0
    7.1649  -15.2690   24.4554 C   0  0  0  0  0  0  0  0  0  0  0  0
    7.6253  -16.3239   24.9614 O   0  0  0  0  0  0  0  0  0  0  0  0
    6.8731  -15.1137   20.3383 C   0  0  0  0  0  0  0  0  0  0  0  0
    8.3013  -14.9747   20.8270 C   0  0  2  0  0  0  0  0  0  0  0  0
    9.1521  -15.7533   19.8589 C   0  0  0  0  0  0  0  0  0  0  0  0
    8.4009  -15.5076   22.2139 C   0  0  2  0  0  0  0  0  0  0  0  0
    7.5431  -14.8519   23.1842 N   0  0  0  0  0  0  0  0  0  0  0  0
    9.7173  -15.7077   22.7929 C   0  0  0  0  0  0  0  0  0  0  0  0
   10.3957  -14.6605   23.1263 O   0  0  0  0  0  0  0  0  0  0  0  0
   11.8986  -18.5075   27.5549 N   0  0  0  0  0  0  0  0  0  0  0  0
   11.1850  -19.2372   26.5935 C   0  0  0  0  0  0  0  0  0  0  0  0
   10.5918  -20.2801   26.8987 O   0  0  0  0  0  0  0  0  0  0  0  0
   11.1396  -18.7526   25.1888 C   0  0  0  0  0  0  0  0  0  0  0  0
   11.7195  -17.3709   25.0575 C   0  0  0  0  0  0  0  0  0  0  0  0
   11.7487  -16.9590   23.6308 C   0  0  2  0  0  0  0  0  0  0  0  0
   10.3932  -16.9184   23.0623 N   0  0  0  0  0  0  0  0  0  0  0  0
   12.6289  -17.8021   22.8277 C   0  0  0  0  0  0  0  0  0  0  0  0
   12.1411  -18.5245   21.8698 O   0  0  0  0  0  0  0  0  0  0  0  0
   13.9965  -17.9371   22.9592 O   0  0  0  0  0  0  0  0  0  0  0  0
  1  2  1  0
  3  2  1  0
  3  5  1  0
  3  4  1  6
  5  6  1  1
  7  5  1  0
  7  8  2  0
 10  9  1  6
 10 12  1  0
 11 10  1  0
 12 13  1  1
 12 14  1  0
 13  7  1  0
 14 22  1  0
 15 14  2  0
 17 16  1  0
 17 19  1  0
 18 17  2  0
 20 19  1  0
 21 20  1  1
 21 23  1  0
 22 21  1  0
 23 24  2  0
 23 25  1  0
M  END
$$$$
