IVQ.pdb
     RDKit          3D

 25 24  0  0  1  0  0  0  0  0999 V2000
    7.2269  -11.6921   27.8178 C   0  0  0  0  0  0  0  0  0  0  0  0
    6.3857  -12.7592   27.1506 C   0  0  0  0  0  0  0  0  0  0  0  0
    7.2185  -13.5705   26.1976 C   0  0  2  0  0  0  0  0  0  0  0  0
    7.9928  -12.6354   25.2864 C   0  0  0  0  0  0  0  0  0  0  0  0
    6.4557  -14.5995   25.4350 C   0  0  2  0  0  0  0  0  0  0  0  0
    5.7603  -15.4453   26.3462 N   0  0  0  0  0  0  0  0  0  0  0  0
    7.3303  -15.4419   24.5583 C   0  0  0  0  0  0  0  0  0  0  0  0
    7.8318  -16.5051   25.0045 O   0  0  0  0  0  0  0  0  0  0  0  0
    6.7569  -15.4391   20.4651 C   0  0  0  0  0  0  0  0  0  0  0  0
    8.1858  -15.1172   20.8554 C   0  0  2  0  0  0  0  0  0  0  0  0
    9.0616  -15.8147   19.8486 C   0  0  0  0  0  0  0  0  0  0  0  0
    8.4367  -15.5963   22.2429 C   0  0  2  0  0  0  0  0  0  0  0  0
    7.5692  -15.0212   23.2548 N   0  0  0  0  0  0  0  0  0  0  0  0
    9.8016  -15.6221   22.7372 C   0  0  0  0  0  0  0  0  0  0  0  0
   10.3423  -14.4991   23.0762 O   0  0  0  0  0  0  0  0  0  0  0  0
   13.6186  -19.2649   25.6212 N   0  0  0  0  0  0  0  0  0  0  0  0
   12.2278  -19.4077   25.5147 C   0  0  0  0  0  0  0  0  0  0  0  0
   11.6692  -20.4593   25.8533 O   0  0  0  0  0  0  0  0  0  0  0  0
   11.4126  -18.2815   24.9881 C   0  0  0  0  0  0  0  0  0  0  0  0
   12.2508  -17.0587   24.7338 C   0  0  0  0  0  0  0  0  0  0  0  0
   12.0607  -16.5862   23.3385 C   0  0  2  0  0  0  0  0  0  0  0  0
   10.6597  -16.7297   22.9159 N   0  0  0  0  0  0  0  0  0  0  0  0
   12.9617  -17.2486   22.4006 C   0  0  0  0  0  0  0  0  0  0  0  0
   12.4819  -17.9338   21.4119 O   0  0  0  0  0  0  0  0  0  0  0  0
   14.3420  -17.2382   22.4270 O   0  0  0  0  0  0  0  0  0  0  0  0
  1  2  1  0
  3  2  1  0
  3  5  1  0
  3  4  1  6
  5  6  1  1
  7  5  1  0
  7  8  2  0
 10  9  1  6
 10 12  1  0
 11 10  1  0
 12 13  1  1
 12 14  1  0
 13  7  1  0
 14 22  1  0
 15 14  2  0
 17 16  1  0
 17 19  1  0
 18 17  2  0
 20 19  1  0
 21 20  1  1
 21 23  1  0
 22 21  1  0
 23 24  2  0
 23 25  1  0
M  END
$$$$
