IVQ.pdb
     RDKit          3D

 25 24  0  0  1  0  0  0  0  0999 V2000
    6.8110  -11.6983   27.8387 C   0  0  0  0  0  0  0  0  0  0  0  0
    6.0083  -12.7560   27.1119 C   0  0  0  0  0  0  0  0  0  0  0  0
    6.8965  -13.5690   26.2119 C   0  0  2  0  0  0  0  0  0  0  0  0
    7.7258  -12.6355   25.3486 C   0  0  0  0  0  0  0  0  0  0  0  0
    6.1804  -14.5978   25.4052 C   0  0  2  0  0  0  0  0  0  0  0  0
    5.3984  -15.4171   26.2692 N   0  0  0  0  0  0  0  0  0  0  0  0
    7.1086  -15.4686   24.6156 C   0  0  0  0  0  0  0  0  0  0  0  0
    7.4071  -16.6151   25.0367 O   0  0  0  0  0  0  0  0  0  0  0  0
    6.8303  -15.0231   20.6589 C   0  0  0  0  0  0  0  0  0  0  0  0
    8.2962  -15.1019   21.0368 C   0  0  2  0  0  0  0  0  0  0  0  0
    8.9463  -15.9880   20.0076 C   0  0  0  0  0  0  0  0  0  0  0  0
    8.4204  -15.6577   22.4128 C   0  0  2  0  0  0  0  0  0  0  0  0
    7.6240  -14.9806   23.4201 N   0  0  0  0  0  0  0  0  0  0  0  0
    9.7462  -15.9198   22.9436 C   0  0  0  0  0  0  0  0  0  0  0  0
   10.3586  -14.9533   23.5427 O   0  0  0  0  0  0  0  0  0  0  0  0
   15.2409  -15.2225   23.4783 N   0  0  0  0  0  0  0  0  0  0  0  0
   14.7692  -15.5893   22.2100 C   0  0  0  0  0  0  0  0  0  0  0  0
   15.5108  -15.5476   21.2196 O   0  0  0  0  0  0  0  0  0  0  0  0
   13.3596  -16.0345   22.0516 C   0  0  0  0  0  0  0  0  0  0  0  0
   12.6138  -15.9967   23.3573 C   0  0  0  0  0  0  0  0  0  0  0  0
   11.8208  -17.2403   23.5325 C   0  0  2  0  0  0  0  0  0  0  0  0
   10.4952  -17.1168   22.9083 N   0  0  0  0  0  0  0  0  0  0  0  0
   11.7059  -17.6325   24.9337 C   0  0  0  0  0  0  0  0  0  0  0  0
   11.5810  -16.7292   25.8535 O   0  0  0  0  0  0  0  0  0  0  0  0
   11.7093  -18.9170   25.4395 O   0  0  0  0  0  0  0  0  0  0  0  0
  1  2  1  0
  3  2  1  0
  3  5  1  0
  3  4  1  6
  5  6  1  1
  7  5  1  0
  7  8  2  0
 10  9  1  6
 10 12  1  0
 11 10  1  0
 12 13  1  1
 12 14  1  0
 13  7  1  0
 14 22  1  0
 15 14  2  0
 17 16  1  0
 17 19  1  0
 18 17  2  0
 20 19  1  0
 21 20  1  1
 21 23  1  0
 22 21  1  0
 23 24  2  0
 23 25  1  0
M  END
$$$$
