IVQ.pdb
     RDKit          3D

 25 24  0  0  1  0  0  0  0  0999 V2000
    9.9568  -13.6394   29.1429 C   0  0  0  0  0  0  0  0  0  0  0  0
    8.7838  -14.4185   28.5877 C   0  0  0  0  0  0  0  0  0  0  0  0
    9.0486  -14.8331   27.1672 C   0  0  2  0  0  0  0  0  0  0  0  0
    9.5373  -13.6328   26.3768 C   0  0  0  0  0  0  0  0  0  0  0  0
    7.9048  -15.5199   26.5023 C   0  0  2  0  0  0  0  0  0  0  0  0
    7.4731  -16.6109   27.3102 N   0  0  0  0  0  0  0  0  0  0  0  0
    8.2461  -16.0299   25.1361 C   0  0  0  0  0  0  0  0  0  0  0  0
    8.6725  -17.2038   24.9906 O   0  0  0  0  0  0  0  0  0  0  0  0
    5.9714  -15.2344   22.0122 C   0  0  0  0  0  0  0  0  0  0  0  0
    7.3791  -14.7623   21.7069 C   0  0  2  0  0  0  0  0  0  0  0  0
    7.6419  -15.1318   20.2711 C   0  0  0  0  0  0  0  0  0  0  0  0
    8.3331  -15.4245   22.6391 C   0  0  2  0  0  0  0  0  0  0  0  0
    8.0808  -15.1807   24.0477 N   0  0  0  0  0  0  0  0  0  0  0  0
    9.7570  -15.3113   22.3787 C   0  0  0  0  0  0  0  0  0  0  0  0
   10.4156  -14.3973   23.0104 O   0  0  0  0  0  0  0  0  0  0  0  0
   13.4513  -17.1996   26.0274 N   0  0  0  0  0  0  0  0  0  0  0  0
   13.8862  -16.6838   24.7984 C   0  0  0  0  0  0  0  0  0  0  0  0
   14.6103  -15.6807   24.7507 O   0  0  0  0  0  0  0  0  0  0  0  0
   13.4729  -17.3499   23.5352 C   0  0  0  0  0  0  0  0  0  0  0  0
   12.0391  -17.0516   23.1919 C   0  0  0  0  0  0  0  0  0  0  0  0
   11.9496  -16.4490   21.8372 C   0  0  2  0  0  0  0  0  0  0  0  0
   10.5641  -16.0801   21.5110 N   0  0  0  0  0  0  0  0  0  0  0  0
   12.5187  -17.3122   20.8071 C   0  0  0  0  0  0  0  0  0  0  0  0
   13.7561  -17.1711   20.4513 O   0  0  0  0  0  0  0  0  0  0  0  0
   11.8750  -18.3233   20.1222 O   0  0  0  0  0  0  0  0  0  0  0  0
  1  2  1  0
  3  2  1  0
  3  5  1  0
  3  4  1  6
  5  6  1  1
  7  5  1  0
  7  8  2  0
 10  9  1  1
 10 12  1  0
 11 10  1  0
 12 13  1  1
 12 14  1  0
 13  7  1  0
 14 22  1  0
 15 14  2  0
 17 16  1  0
 17 19  1  0
 18 17  2  0
 20 19  1  0
 21 20  1  1
 21 23  1  0
 22 21  1  0
 23 24  2  0
 23 25  1  0
M  END
$$$$
