HIR.pdb
     RDKit          3D

 30 30  0  0  1  0  0  0  0  0999 V2000
    9.4645  -13.0769   20.2927 N   0  0  0  0  0  0  0  0  0  0  0  0
    8.3771  -13.7799   20.9195 C   0  0  1  0  0  0  0  0  0  0  0  0
    8.0621  -15.0876   20.2282 C   0  0  0  0  0  0  0  0  0  0  0  0
    7.7417  -14.8934   18.8011 C   0  0  0  0  0  0  0  0  0  0  0  0
    7.8533  -13.7595   18.0411 C   0  0  0  0  0  0  0  0  0  0  0  0
    7.4404  -14.0800   16.8043 N   0  0  0  0  0  0  0  0  0  0  0  0
    7.0727  -15.3886   16.7721 C   0  0  0  0  0  0  0  0  0  0  0  0
    7.2686  -15.8540   18.0038 N   0  0  0  0  0  0  0  0  0  0  0  0
    8.6249  -13.9763   22.3696 C   0  0  0  0  0  0  0  0  0  0  0  0
    9.7781  -14.1837   22.8268 O   0  0  0  0  0  0  0  0  0  0  0  0
    5.0195  -11.4479   25.8615 C   0  0  0  0  0  0  0  0  0  0  0  0
    6.2568  -11.9502   25.2100 C   0  0  0  0  0  0  0  0  0  0  0  0
    6.7125  -13.3101   25.5745 C   0  0  2  0  0  0  0  0  0  0  0  0
    7.1289  -13.4234   27.0315 C   0  0  0  0  0  0  0  0  0  0  0  0
    7.7597  -13.9399   24.7332 C   0  0  2  0  0  0  0  0  0  0  0  0
    7.5359  -13.9360   23.3216 N   0  0  0  0  0  0  0  0  0  0  0  0
    8.1238  -15.3103   25.1812 C   0  0  0  0  0  0  0  0  0  0  0  0
    7.2591  -16.2296   25.1453 O   0  0  0  0  0  0  0  0  0  0  0  0
   15.4769  -19.9801   24.2157 N   0  0  0  0  0  0  0  0  0  0  0  0
   14.6356  -20.8769   24.9747 C   0  0  0  0  0  0  0  0  0  0  0  0
   15.0391  -22.0607   25.1936 N   0  0  0  0  0  0  0  0  0  0  0  0
   13.4047  -20.3549   25.4214 N   0  0  0  0  0  0  0  0  0  0  0  0
   13.0612  -18.9605   25.0111 C   0  0  0  0  0  0  0  0  0  0  0  0
   11.7303  -18.6529   25.5982 C   0  0  0  0  0  0  0  0  0  0  0  0
   11.0452  -17.3903   25.3838 C   0  0  0  0  0  0  0  0  0  0  0  0
    9.7862  -17.0445   26.0216 C   0  0  2  0  0  0  0  0  0  0  0  0
    9.4037  -15.6516   25.6542 N   0  0  0  0  0  0  0  0  0  0  0  0
    9.6164  -17.1449   27.4526 C   0  0  0  0  0  0  0  0  0  0  0  0
    9.5702  -16.2638   28.3247 O   0  0  0  0  0  0  0  0  0  0  0  0
    9.4721  -18.4583   28.0085 O   0  0  0  0  0  0  0  0  0  0  0  0
  2  1  1  6
  3  4  1  0
  3  2  1  0
  4  5  2  0
  6  5  1  0
  7  6  1  0
  8  7  2  0
  8  4  1  0
  9 10  2  0
  9  2  1  0
 11 12  1  0
 12 13  1  0
 13 15  1  0
 13 14  1  1
 15 16  1  6
 16  9  1  0
 17 15  1  0
 18 17  2  0
 19 20  1  0
 20 22  1  0
 21 20  2  0
 22 23  1  0
 23 24  1  0
 24 25  1  0
 26 25  1  1
 26 28  1  0
 26 27  1  0
 27 17  1  0
 28 30  1  0
 29 28  2  0
M  END
$$$$
