HIR.pdb
     RDKit          3D

 30 30  0  0  1  0  0  0  0  0999 V2000
    9.4320  -13.5893   20.7568 N   0  0  0  0  0  0  0  0  0  0  0  0
    8.4145  -14.3172   21.4671 C   0  0  1  0  0  0  0  0  0  0  0  0
    8.0730  -15.6303   20.7991 C   0  0  0  0  0  0  0  0  0  0  0  0
    7.5960  -15.4374   19.4162 C   0  0  0  0  0  0  0  0  0  0  0  0
    7.5504  -14.2868   18.6747 C   0  0  0  0  0  0  0  0  0  0  0  0
    7.0368  -14.6169   17.4787 N   0  0  0  0  0  0  0  0  0  0  0  0
    6.7595  -15.9478   17.4541 C   0  0  0  0  0  0  0  0  0  0  0  0
    7.1119  -16.4170   18.6490 N   0  0  0  0  0  0  0  0  0  0  0  0
    8.7830  -14.5105   22.8917 C   0  0  0  0  0  0  0  0  0  0  0  0
    9.9745  -14.6860   23.2542 O   0  0  0  0  0  0  0  0  0  0  0  0
    5.7974  -11.7030   26.6390 C   0  0  0  0  0  0  0  0  0  0  0  0
    6.9123  -12.3540   25.9035 C   0  0  0  0  0  0  0  0  0  0  0  0
    7.2045  -13.7683   26.2258 C   0  0  2  0  0  0  0  0  0  0  0  0
    7.6856  -13.9621   27.6542 C   0  0  0  0  0  0  0  0  0  0  0  0
    8.1090  -14.5147   25.3171 C   0  0  2  0  0  0  0  0  0  0  0  0
    7.7730  -14.5043   23.9279 N   0  0  0  0  0  0  0  0  0  0  0  0
    8.3643  -15.9102   25.7627 C   0  0  0  0  0  0  0  0  0  0  0  0
    7.3926  -16.6957   25.9441 O   0  0  0  0  0  0  0  0  0  0  0  0
   11.9465  -20.9297   22.7434 N   0  0  0  0  0  0  0  0  0  0  0  0
   12.3851  -19.7886   21.9730 C   0  0  0  0  0  0  0  0  0  0  0  0
   12.3341  -19.8461   20.7057 N   0  0  0  0  0  0  0  0  0  0  0  0
   12.8465  -18.6766   22.7064 N   0  0  0  0  0  0  0  0  0  0  0  0
   12.8597  -18.7940   24.1954 C   0  0  0  0  0  0  0  0  0  0  0  0
   11.5140  -18.3803   24.6733 C   0  0  0  0  0  0  0  0  0  0  0  0
   11.1706  -18.2858   26.0813 C   0  0  0  0  0  0  0  0  0  0  0  0
    9.8967  -17.7783   26.5622 C   0  0  2  0  0  0  0  0  0  0  0  0
    9.6537  -16.4194   26.0004 N   0  0  0  0  0  0  0  0  0  0  0  0
    9.6092  -17.6878   27.9749 C   0  0  0  0  0  0  0  0  0  0  0  0
    9.6610  -16.7202   28.7497 O   0  0  0  0  0  0  0  0  0  0  0  0
    9.1894  -18.8861   28.6402 O   0  0  0  0  0  0  0  0  0  0  0  0
  2  1  1  6
  3  4  1  0
  3  2  1  0
  4  5  2  0
  6  5  1  0
  7  6  1  0
  8  7  2  0
  8  4  1  0
  9 10  2  0
  9  2  1  0
 11 12  1  0
 12 13  1  0
 13 15  1  0
 13 14  1  1
 15 16  1  6
 16  9  1  0
 17 15  1  0
 18 17  2  0
 19 20  1  0
 20 22  1  0
 21 20  2  0
 22 23  1  0
 23 24  1  0
 24 25  1  0
 26 25  1  1
 26 28  1  0
 26 27  1  0
 27 17  1  0
 28 30  1  0
 29 28  2  0
M  END
$$$$
