HIR.pdb
     RDKit          3D

 30 30  0  0  1  0  0  0  0  0999 V2000
   10.1371  -17.0900   15.6914 N   0  0  0  0  0  0  0  0  0  0  0  0
    9.1608  -17.2910   16.7287 C   0  0  1  0  0  0  0  0  0  0  0  0
    8.9256  -18.7558   17.0223 C   0  0  0  0  0  0  0  0  0  0  0  0
    8.1047  -19.4018   15.9803 C   0  0  0  0  0  0  0  0  0  0  0  0
    7.5762  -18.8564   14.8406 C   0  0  0  0  0  0  0  0  0  0  0  0
    6.9069  -19.8385   14.2155 N   0  0  0  0  0  0  0  0  0  0  0  0
    7.0040  -20.9865   14.9375 C   0  0  0  0  0  0  0  0  0  0  0  0
    7.7397  -20.6859   16.0055 N   0  0  0  0  0  0  0  0  0  0  0  0
    9.5158  -16.5393   17.9582 C   0  0  0  0  0  0  0  0  0  0  0  0
   10.7049  -16.4310   18.3535 O   0  0  0  0  0  0  0  0  0  0  0  0
    6.3472  -12.2042   19.7785 C   0  0  0  0  0  0  0  0  0  0  0  0
    7.5515  -13.0278   19.4973 C   0  0  0  0  0  0  0  0  0  0  0  0
    7.8211  -14.1679   20.4014 C   0  0  2  0  0  0  0  0  0  0  0  0
    8.1782  -13.7319   21.8126 C   0  0  0  0  0  0  0  0  0  0  0  0
    8.8038  -15.1874   19.9587 C   0  0  2  0  0  0  0  0  0  0  0  0
    8.4947  -15.8960   18.7566 N   0  0  0  0  0  0  0  0  0  0  0  0
    9.1701  -16.1507   21.0307 C   0  0  0  0  0  0  0  0  0  0  0  0
    8.4616  -17.1794   21.2149 O   0  0  0  0  0  0  0  0  0  0  0  0
   14.8663  -21.8048   20.7819 N   0  0  0  0  0  0  0  0  0  0  0  0
   15.0193  -21.5994   22.2040 C   0  0  0  0  0  0  0  0  0  0  0  0
   15.6739  -22.4508   22.8813 N   0  0  0  0  0  0  0  0  0  0  0  0
   14.4148  -20.4440   22.7394 N   0  0  0  0  0  0  0  0  0  0  0  0
   13.5586  -19.6306   21.8248 C   0  0  0  0  0  0  0  0  0  0  0  0
   13.0311  -18.4935   22.6244 C   0  0  0  0  0  0  0  0  0  0  0  0
   12.1631  -17.4714   22.0665 C   0  0  0  0  0  0  0  0  0  0  0  0
   10.8874  -17.0972   22.6531 C   0  0  2  0  0  0  0  0  0  0  0  0
   10.2844  -15.9803   21.8719 N   0  0  0  0  0  0  0  0  0  0  0  0
   10.7818  -16.7197   24.0434 C   0  0  0  0  0  0  0  0  0  0  0  0
   10.5727  -15.6146   24.5670 O   0  0  0  0  0  0  0  0  0  0  0  0
   10.9353  -17.7565   25.0213 O   0  0  0  0  0  0  0  0  0  0  0  0
  2  1  1  6
  3  4  1  0
  3  2  1  0
  4  5  2  0
  6  5  1  0
  7  6  1  0
  8  7  2  0
  8  4  1  0
  9 10  2  0
  9  2  1  0
 11 12  1  0
 12 13  1  0
 13 15  1  0
 13 14  1  1
 15 16  1  6
 16  9  1  0
 17 15  1  0
 18 17  2  0
 19 20  1  0
 20 22  1  0
 21 20  2  0
 22 23  1  0
 23 24  1  0
 24 25  1  0
 26 25  1  6
 26 28  1  0
 26 27  1  0
 27 17  1  0
 28 30  1  0
 29 28  2  0
M  END
$$$$
