HIR.pdb
     RDKit          3D

 30 30  0  0  1  0  0  0  0  0999 V2000
    8.2335  -15.3324   20.5601 N   0  0  0  0  0  0  0  0  0  0  0  0
    7.5764  -15.7440   21.7719 C   0  0  1  0  0  0  0  0  0  0  0  0
    7.3018  -17.2309   21.8017 C   0  0  0  0  0  0  0  0  0  0  0  0
    6.3541  -17.6376   20.7465 C   0  0  0  0  0  0  0  0  0  0  0  0
    5.7650  -16.8702   19.7770 C   0  0  0  0  0  0  0  0  0  0  0  0
    4.9826  -17.6898   19.0565 N   0  0  0  0  0  0  0  0  0  0  0  0
    5.0679  -18.9529   19.5523 C   0  0  0  0  0  0  0  0  0  0  0  0
    5.9111  -18.8861   20.5804 N   0  0  0  0  0  0  0  0  0  0  0  0
    8.3313  -15.3054   22.9720 C   0  0  0  0  0  0  0  0  0  0  0  0
    9.5877  -15.2491   22.9855 O   0  0  0  0  0  0  0  0  0  0  0  0
    5.9910  -11.6441   26.4409 C   0  0  0  0  0  0  0  0  0  0  0  0
    7.0356  -12.3515   25.6559 C   0  0  0  0  0  0  0  0  0  0  0  0
    7.6340  -13.5634   26.2583 C   0  0  2  0  0  0  0  0  0  0  0  0
    8.5358  -13.2523   27.4411 C   0  0  0  0  0  0  0  0  0  0  0  0
    8.3421  -14.5079   25.3596 C   0  0  2  0  0  0  0  0  0  0  0  0
    7.6414  -14.9222   24.1848 N   0  0  0  0  0  0  0  0  0  0  0  0
    8.8815  -15.6979   26.0698 C   0  0  0  0  0  0  0  0  0  0  0  0
    8.0891  -16.4911   26.6503 O   0  0  0  0  0  0  0  0  0  0  0  0
   15.4254  -18.1561   23.6029 N   0  0  0  0  0  0  0  0  0  0  0  0
   15.3862  -19.5224   24.0716 C   0  0  0  0  0  0  0  0  0  0  0  0
   16.4631  -20.1944   24.0981 N   0  0  0  0  0  0  0  0  0  0  0  0
   14.1261  -20.0128   24.4703 N   0  0  0  0  0  0  0  0  0  0  0  0
   12.9598  -19.0875   24.3493 C   0  0  0  0  0  0  0  0  0  0  0  0
   12.4381  -18.8681   25.7241 C   0  0  0  0  0  0  0  0  0  0  0  0
   12.0873  -17.5547   26.2354 C   0  0  0  0  0  0  0  0  0  0  0  0
   10.7814  -17.2325   26.7854 C   0  0  2  0  0  0  0  0  0  0  0  0
   10.2537  -15.9994   26.1355 N   0  0  0  0  0  0  0  0  0  0  0  0
   10.5877  -17.0541   28.2057 C   0  0  0  0  0  0  0  0  0  0  0  0
   10.5495  -16.0217   28.8926 O   0  0  0  0  0  0  0  0  0  0  0  0
   10.4036  -18.2337   28.9990 O   0  0  0  0  0  0  0  0  0  0  0  0
  2  1  1  6
  3  4  1  0
  3  2  1  0
  4  5  2  0
  6  5  1  0
  7  6  1  0
  8  7  2  0
  8  4  1  0
  9 10  2  0
  9  2  1  0
 11 12  1  0
 12 13  1  0
 13 15  1  0
 13 14  1  1
 15 16  1  6
 16  9  1  0
 17 15  1  0
 18 17  2  0
 19 20  1  0
 20 22  1  0
 21 20  2  0
 22 23  1  0
 23 24  1  0
 24 25  1  0
 26 25  1  1
 26 28  1  0
 26 27  1  0
 27 17  1  0
 28 30  1  0
 29 28  2  0
M  END
$$$$
