HIR.pdb
     RDKit          3D

 30 30  0  0  1  0  0  0  0  0999 V2000
    7.0555  -14.7468   20.1787 N   0  0  0  0  0  0  0  0  0  0  0  0
    6.9097  -15.5499   21.3633 C   0  0  1  0  0  0  0  0  0  0  0  0
    7.2739  -16.9984   21.1256 C   0  0  0  0  0  0  0  0  0  0  0  0
    6.4352  -17.6129   20.0787 C   0  0  0  0  0  0  0  0  0  0  0  0
    5.1301  -18.0217   20.1520 C   0  0  0  0  0  0  0  0  0  0  0  0
    4.8110  -18.5168   18.9453 N   0  0  0  0  0  0  0  0  0  0  0  0
    5.8862  -18.4276   18.1179 C   0  0  0  0  0  0  0  0  0  0  0  0
    6.8579  -17.8728   18.8392 N   0  0  0  0  0  0  0  0  0  0  0  0
    7.6701  -14.9769   22.5018 C   0  0  0  0  0  0  0  0  0  0  0  0
    8.8950  -14.7049   22.4159 O   0  0  0  0  0  0  0  0  0  0  0  0
    5.1487  -11.8293   26.2831 C   0  0  0  0  0  0  0  0  0  0  0  0
    6.3188  -12.2826   25.4875 C   0  0  0  0  0  0  0  0  0  0  0  0
    7.0122  -13.5098   25.9379 C   0  0  2  0  0  0  0  0  0  0  0  0
    7.9249  -13.2701   27.1289 C   0  0  0  0  0  0  0  0  0  0  0  0
    7.7549  -14.2989   24.9246 C   0  0  2  0  0  0  0  0  0  0  0  0
    7.0223  -14.7073   23.7673 N   0  0  0  0  0  0  0  0  0  0  0  0
    8.4730  -15.4655   25.5032 C   0  0  0  0  0  0  0  0  0  0  0  0
    7.8335  -16.5186   25.7789 O   0  0  0  0  0  0  0  0  0  0  0  0
   16.8698  -17.7701   25.1578 N   0  0  0  0  0  0  0  0  0  0  0  0
   16.1973  -18.9926   24.7819 C   0  0  0  0  0  0  0  0  0  0  0  0
   16.8869  -20.0436   24.6028 N   0  0  0  0  0  0  0  0  0  0  0  0
   14.7968  -18.9197   24.6396 N   0  0  0  0  0  0  0  0  0  0  0  0
   14.1420  -17.6143   24.9528 C   0  0  0  0  0  0  0  0  0  0  0  0
   12.6766  -17.8209   24.8099 C   0  0  0  0  0  0  0  0  0  0  0  0
   11.7120  -16.7410   24.9236 C   0  0  0  0  0  0  0  0  0  0  0  0
   10.6502  -16.7172   25.9153 C   0  0  2  0  0  0  0  0  0  0  0  0
    9.8543  -15.4657   25.7683 N   0  0  0  0  0  0  0  0  0  0  0  0
   10.9359  -16.8500   27.3251 C   0  0  0  0  0  0  0  0  0  0  0  0
   10.9260  -16.0062   28.2345 O   0  0  0  0  0  0  0  0  0  0  0  0
   11.2947  -18.1522   27.8051 O   0  0  0  0  0  0  0  0  0  0  0  0
  2  1  1  6
  3  4  1  0
  3  2  1  0
  4  5  2  0
  6  5  1  0
  7  6  1  0
  8  7  2  0
  8  4  1  0
  9 10  2  0
  9  2  1  0
 11 12  1  0
 12 13  1  0
 13 15  1  0
 13 14  1  1
 15 16  1  6
 16  9  1  0
 17 15  1  0
 18 17  2  0
 19 20  1  0
 20 22  1  0
 21 20  2  0
 22 23  1  0
 23 24  1  0
 24 25  1  0
 26 25  1  6
 26 28  1  0
 26 27  1  0
 27 17  1  0
 28 30  1  0
 29 28  2  0
M  END
$$$$
