HIR.pdb
     RDKit          3D

 30 30  0  0  1  0  0  0  0  0999 V2000
    8.8326  -16.8990   14.4938 N   0  0  0  0  0  0  0  0  0  0  0  0
    8.7695  -17.2918   15.8764 C   0  0  1  0  0  0  0  0  0  0  0  0
    9.4889  -18.5961   16.1379 C   0  0  0  0  0  0  0  0  0  0  0  0
    8.7789  -19.7456   15.5449 C   0  0  0  0  0  0  0  0  0  0  0  0
    7.4940  -20.1675   15.7609 C   0  0  0  0  0  0  0  0  0  0  0  0
    7.3095  -21.2551   14.9952 N   0  0  0  0  0  0  0  0  0  0  0  0
    8.4494  -21.5242   14.3047 C   0  0  0  0  0  0  0  0  0  0  0  0
    9.3239  -20.5864   14.6625 N   0  0  0  0  0  0  0  0  0  0  0  0
    9.2593  -16.2113   16.7681 C   0  0  0  0  0  0  0  0  0  0  0  0
   10.2382  -15.4844   16.4594 O   0  0  0  0  0  0  0  0  0  0  0  0
    7.3359  -11.7752   20.4895 C   0  0  0  0  0  0  0  0  0  0  0  0
    8.4002  -12.7245   20.0725 C   0  0  0  0  0  0  0  0  0  0  0  0
    7.9802  -13.9303   19.3247 C   0  0  2  0  0  0  0  0  0  0  0  0
    6.8823  -14.7101   20.0286 C   0  0  0  0  0  0  0  0  0  0  0  0
    9.0338  -14.8818   18.8938 C   0  0  2  0  0  0  0  0  0  0  0  0
    8.6212  -15.9516   18.0406 N   0  0  0  0  0  0  0  0  0  0  0  0
    9.8336  -15.4207   20.0258 C   0  0  0  0  0  0  0  0  0  0  0  0
    9.5620  -16.5607   20.4955 O   0  0  0  0  0  0  0  0  0  0  0  0
   15.8505  -13.7547   17.9891 N   0  0  0  0  0  0  0  0  0  0  0  0
   16.7436  -14.7896   18.4575 C   0  0  0  0  0  0  0  0  0  0  0  0
   17.4377  -15.4323   17.6105 N   0  0  0  0  0  0  0  0  0  0  0  0
   16.7735  -15.0096   19.8495 N   0  0  0  0  0  0  0  0  0  0  0  0
   15.8442  -14.1993   20.6926 C   0  0  0  0  0  0  0  0  0  0  0  0
   14.6589  -15.0525   20.9714 C   0  0  0  0  0  0  0  0  0  0  0  0
   13.2935  -14.5829   20.8152 C   0  0  0  0  0  0  0  0  0  0  0  0
   12.1279  -15.3928   21.1268 C   0  0  2  0  0  0  0  0  0  0  0  0
   10.8990  -14.7196   20.6188 N   0  0  0  0  0  0  0  0  0  0  0  0
   11.8349  -15.7976   22.4821 C   0  0  0  0  0  0  0  0  0  0  0  0
   12.3845  -16.6374   23.2113 O   0  0  0  0  0  0  0  0  0  0  0  0
   10.7370  -15.1521   23.1400 O   0  0  0  0  0  0  0  0  0  0  0  0
  2  1  1  6
  3  4  1  0
  3  2  1  0
  4  5  2  0
  6  5  1  0
  7  6  1  0
  8  7  2  0
  8  4  1  0
  9 10  2  0
  9  2  1  0
 11 12  1  0
 12 13  1  0
 13 15  1  0
 13 14  1  1
 15 16  1  1
 16  9  1  0
 17 15  1  0
 18 17  2  0
 19 20  1  0
 20 22  1  0
 21 20  2  0
 22 23  1  0
 23 24  1  0
 24 25  1  0
 26 25  1  1
 26 28  1  0
 26 27  1  0
 27 17  1  0
 28 30  1  0
 29 28  2  0
M  END
$$$$
