HIR.pdb
     RDKit          3D

 30 30  0  0  1  0  0  0  0  0999 V2000
    9.5741  -14.7370   20.4462 N   0  0  0  0  0  0  0  0  0  0  0  0
    8.4727  -15.0857   21.3035 C   0  0  1  0  0  0  0  0  0  0  0  0
    8.0011  -16.5062   21.0865 C   0  0  0  0  0  0  0  0  0  0  0  0
    7.4931  -16.7150   19.7171 C   0  0  0  0  0  0  0  0  0  0  0  0
    7.4072  -15.8183   18.6855 C   0  0  0  0  0  0  0  0  0  0  0  0
    6.8780  -16.4775   17.6422 N   0  0  0  0  0  0  0  0  0  0  0  0
    6.6304  -17.7666   17.9966 C   0  0  0  0  0  0  0  0  0  0  0  0
    7.0164  -17.8776   19.2658 N   0  0  0  0  0  0  0  0  0  0  0  0
    8.7960  -14.8311   22.7295 C   0  0  0  0  0  0  0  0  0  0  0  0
    9.9757  -14.8739   23.1636 O   0  0  0  0  0  0  0  0  0  0  0  0
    5.5228  -11.5327   25.8021 C   0  0  0  0  0  0  0  0  0  0  0  0
    6.7682  -12.1841   25.3201 C   0  0  0  0  0  0  0  0  0  0  0  0
    7.0824  -13.5280   25.8539 C   0  0  2  0  0  0  0  0  0  0  0  0
    7.5394  -13.4967   27.3028 C   0  0  0  0  0  0  0  0  0  0  0  0
    8.0192  -14.3801   25.0811 C   0  0  2  0  0  0  0  0  0  0  0  0
    7.7535  -14.5208   23.6838 N   0  0  0  0  0  0  0  0  0  0  0  0
    8.2293  -15.7201   25.6907 C   0  0  0  0  0  0  0  0  0  0  0  0
    7.2799  -16.5521   25.7130 O   0  0  0  0  0  0  0  0  0  0  0  0
   14.2434  -20.8184   27.5796 N   0  0  0  0  0  0  0  0  0  0  0  0
   13.6740  -21.8043   26.6898 C   0  0  0  0  0  0  0  0  0  0  0  0
   14.3827  -22.7974   26.3382 N   0  0  0  0  0  0  0  0  0  0  0  0
   12.3465  -21.5797   26.2719 N   0  0  0  0  0  0  0  0  0  0  0  0
   12.0593  -20.3005   25.5563 C   0  0  0  0  0  0  0  0  0  0  0  0
   11.1322  -19.5216   26.4191 C   0  0  0  0  0  0  0  0  0  0  0  0
   10.5708  -18.2424   26.0219 C   0  0  0  0  0  0  0  0  0  0  0  0
    9.6585  -17.4758   26.8535 C   0  0  2  0  0  0  0  0  0  0  0  0
    9.4510  -16.1255   26.2579 N   0  0  0  0  0  0  0  0  0  0  0  0
    9.9223  -17.2609   28.2574 C   0  0  0  0  0  0  0  0  0  0  0  0
   10.2828  -16.2410   28.8650 O   0  0  0  0  0  0  0  0  0  0  0  0
    9.7537  -18.3790   29.1384 O   0  0  0  0  0  0  0  0  0  0  0  0
  2  1  1  6
  3  4  1  0
  3  2  1  0
  4  5  2  0
  6  5  1  0
  7  6  1  0
  8  7  2  0
  8  4  1  0
  9 10  2  0
  9  2  1  0
 11 12  1  0
 12 13  1  0
 13 15  1  0
 13 14  1  1
 15 16  1  6
 16  9  1  0
 17 15  1  0
 18 17  2  0
 19 20  1  0
 20 22  1  0
 21 20  2  0
 22 23  1  0
 23 24  1  0
 24 25  1  0
 26 25  1  6
 26 28  1  0
 26 27  1  0
 27 17  1  0
 28 30  1  0
 29 28  2  0
M  END
$$$$
