HIR.pdb
     RDKit          3D

 30 30  0  0  1  0  0  0  0  0999 V2000
    9.7698  -16.2949   14.9628 N   0  0  0  0  0  0  0  0  0  0  0  0
    8.8819  -16.6933   16.0222 C   0  0  1  0  0  0  0  0  0  0  0  0
    8.6692  -18.1900   16.0633 C   0  0  0  0  0  0  0  0  0  0  0  0
    7.9991  -18.6850   14.8456 C   0  0  0  0  0  0  0  0  0  0  0  0
    6.9466  -18.1386   14.1605 C   0  0  0  0  0  0  0  0  0  0  0  0
    6.6951  -18.9530   13.1229 N   0  0  0  0  0  0  0  0  0  0  0  0
    7.5659  -19.9970   13.1423 C   0  0  0  0  0  0  0  0  0  0  0  0
    8.3458  -19.8032   14.2036 N   0  0  0  0  0  0  0  0  0  0  0  0
    9.3382  -16.1718   17.3347 C   0  0  0  0  0  0  0  0  0  0  0  0
   10.5442  -16.2203   17.6886 O   0  0  0  0  0  0  0  0  0  0  0  0
    6.1839  -12.2565   19.8909 C   0  0  0  0  0  0  0  0  0  0  0  0
    7.4307  -12.9255   19.4372 C   0  0  0  0  0  0  0  0  0  0  0  0
    7.8777  -14.1152   20.1952 C   0  0  2  0  0  0  0  0  0  0  0  0
    8.4345  -13.7683   21.5658 C   0  0  0  0  0  0  0  0  0  0  0  0
    8.8150  -15.0516   19.5274 C   0  0  2  0  0  0  0  0  0  0  0  0
    8.4013  -15.5817   18.2663 N   0  0  0  0  0  0  0  0  0  0  0  0
    9.2679  -16.1566   20.4136 C   0  0  0  0  0  0  0  0  0  0  0  0
    8.6107  -17.2338   20.4546 O   0  0  0  0  0  0  0  0  0  0  0  0
   15.0403  -21.7259   21.5152 N   0  0  0  0  0  0  0  0  0  0  0  0
   13.9708  -22.1488   20.6405 C   0  0  0  0  0  0  0  0  0  0  0  0
   13.7720  -23.3910   20.4685 N   0  0  0  0  0  0  0  0  0  0  0  0
   13.2161  -21.1253   20.0323 N   0  0  0  0  0  0  0  0  0  0  0  0
   13.6550  -19.7170   20.2667 C   0  0  0  0  0  0  0  0  0  0  0  0
   12.6842  -19.1147   21.2182 C   0  0  0  0  0  0  0  0  0  0  0  0
   11.8922  -17.9395   20.9003 C   0  0  0  0  0  0  0  0  0  0  0  0
   11.0424  -17.2620   21.8649 C   0  0  2  0  0  0  0  0  0  0  0  0
   10.4112  -16.0713   21.2284 N   0  0  0  0  0  0  0  0  0  0  0  0
   11.5596  -16.8126   23.1366 C   0  0  0  0  0  0  0  0  0  0  0  0
   12.0284  -17.4531   24.0901 O   0  0  0  0  0  0  0  0  0  0  0  0
   11.5537  -15.4016   23.3890 O   0  0  0  0  0  0  0  0  0  0  0  0
  2  1  1  6
  3  4  1  0
  3  2  1  0
  4  5  2  0
  6  5  1  0
  7  6  1  0
  8  7  2  0
  8  4  1  0
  9 10  2  0
  9  2  1  0
 11 12  1  0
 12 13  1  0
 13 15  1  0
 13 14  1  1
 15 16  1  6
 16  9  1  0
 17 15  1  0
 18 17  2  0
 19 20  1  0
 20 22  1  0
 21 20  2  0
 22 23  1  0
 23 24  1  0
 24 25  1  0
 26 25  1  6
 26 28  1  0
 26 27  1  0
 27 17  1  0
 28 30  1  0
 29 28  2  0
M  END
$$$$
