HIR.pdb
     RDKit          3D

 30 30  0  0  1  0  0  0  0  0999 V2000
    9.0695  -12.9360   20.4871 N   0  0  0  0  0  0  0  0  0  0  0  0
    8.3800  -14.0578   21.0666 C   0  0  1  0  0  0  0  0  0  0  0  0
    8.6309  -15.3423   20.3088 C   0  0  0  0  0  0  0  0  0  0  0  0
    8.1648  -15.2577   18.9114 C   0  0  0  0  0  0  0  0  0  0  0  0
    8.7337  -14.6005   17.8531 C   0  0  0  0  0  0  0  0  0  0  0  0
    7.9409  -14.8169   16.7912 N   0  0  0  0  0  0  0  0  0  0  0  0
    6.8883  -15.5945   17.1600 C   0  0  0  0  0  0  0  0  0  0  0  0
    7.0552  -15.8449   18.4568 N   0  0  0  0  0  0  0  0  0  0  0  0
    8.7017  -14.2041   22.5081 C   0  0  0  0  0  0  0  0  0  0  0  0
    9.8737  -14.4185   22.9112 O   0  0  0  0  0  0  0  0  0  0  0  0
    5.6284  -11.2815   26.0402 C   0  0  0  0  0  0  0  0  0  0  0  0
    6.8100  -11.9385   25.4238 C   0  0  0  0  0  0  0  0  0  0  0  0
    7.0784  -13.3444   25.7994 C   0  0  2  0  0  0  0  0  0  0  0  0
    7.5700  -13.4908   27.2297 C   0  0  0  0  0  0  0  0  0  0  0  0
    7.9594  -14.1435   24.9127 C   0  0  2  0  0  0  0  0  0  0  0  0
    7.6666  -14.1045   23.5143 N   0  0  0  0  0  0  0  0  0  0  0  0
    8.1102  -15.5549   25.3561 C   0  0  0  0  0  0  0  0  0  0  0  0
    7.4338  -16.4615   24.7951 O   0  0  0  0  0  0  0  0  0  0  0  0
   14.3741  -19.3981   22.2902 N   0  0  0  0  0  0  0  0  0  0  0  0
   14.0816  -20.3827   23.3065 C   0  0  0  0  0  0  0  0  0  0  0  0
   14.6875  -21.4980   23.2746 N   0  0  0  0  0  0  0  0  0  0  0  0
   13.1238  -20.0191   24.2748 N   0  0  0  0  0  0  0  0  0  0  0  0
   12.4576  -18.6916   24.1167 C   0  0  0  0  0  0  0  0  0  0  0  0
   11.4376  -18.5891   25.1936 C   0  0  0  0  0  0  0  0  0  0  0  0
   10.6045  -17.4147   25.3830 C   0  0  0  0  0  0  0  0  0  0  0  0
    9.6149  -17.2975   26.4407 C   0  0  2  0  0  0  0  0  0  0  0  0
    8.9811  -15.9496   26.3876 N   0  0  0  0  0  0  0  0  0  0  0  0
    9.9634  -17.5248   27.8240 C   0  0  0  0  0  0  0  0  0  0  0  0
   10.0282  -18.5767   28.4785 O   0  0  0  0  0  0  0  0  0  0  0  0
   10.2993  -16.3783   28.6160 O   0  0  0  0  0  0  0  0  0  0  0  0
  2  1  1  6
  3  4  1  0
  3  2  1  0
  4  5  2  0
  6  5  1  0
  7  6  1  0
  8  7  2  0
  8  4  1  0
  9 10  2  0
  9  2  1  0
 11 12  1  0
 12 13  1  0
 13 15  1  0
 13 14  1  1
 15 16  1  6
 16  9  1  0
 17 15  1  0
 18 17  2  0
 19 20  1  0
 20 22  1  0
 21 20  2  0
 22 23  1  0
 23 24  1  0
 24 25  1  0
 26 25  1  6
 26 28  1  0
 26 27  1  0
 27 17  1  0
 28 30  1  0
 29 28  2  0
M  END
$$$$
