HIR.pdb
     RDKit          3D

 30 30  0  0  1  0  0  0  0  0999 V2000
    8.0327  -15.1040   19.7729 N   0  0  0  0  0  0  0  0  0  0  0  0
    7.7360  -15.6247   21.0807 C   0  0  1  0  0  0  0  0  0  0  0  0
    8.0776  -17.0926   21.2073 C   0  0  0  0  0  0  0  0  0  0  0  0
    7.3038  -17.9218   20.2635 C   0  0  0  0  0  0  0  0  0  0  0  0
    7.0735  -17.7184   18.9289 C   0  0  0  0  0  0  0  0  0  0  0  0
    6.3154  -18.7429   18.5061 N   0  0  0  0  0  0  0  0  0  0  0  0
    6.0655  -19.5833   19.5453 C   0  0  0  0  0  0  0  0  0  0  0  0
    6.6817  -19.0542   20.6000 N   0  0  0  0  0  0  0  0  0  0  0  0
    8.3882  -14.8201   22.1436 C   0  0  0  0  0  0  0  0  0  0  0  0
    9.5933  -14.4677   22.0684 O   0  0  0  0  0  0  0  0  0  0  0  0
    7.1792  -11.0301   26.9923 C   0  0  0  0  0  0  0  0  0  0  0  0
    8.0505  -11.9633   26.2322 C   0  0  0  0  0  0  0  0  0  0  0  0
    7.4189  -12.7571   25.1548 C   0  0  2  0  0  0  0  0  0  0  0  0
    6.1738  -13.4955   25.6167 C   0  0  0  0  0  0  0  0  0  0  0  0
    8.2748  -13.7021   24.3962 C   0  0  2  0  0  0  0  0  0  0  0  0
    7.6530  -14.4069   23.3195 N   0  0  0  0  0  0  0  0  0  0  0  0
    9.0052  -14.6592   25.2689 C   0  0  0  0  0  0  0  0  0  0  0  0
    8.4480  -15.7373   25.6173 O   0  0  0  0  0  0  0  0  0  0  0  0
   11.1863  -19.7336   29.7185 N   0  0  0  0  0  0  0  0  0  0  0  0
   11.0786  -19.0000   30.9588 C   0  0  0  0  0  0  0  0  0  0  0  0
   11.1569  -19.6333   32.0565 N   0  0  0  0  0  0  0  0  0  0  0  0
   10.8897  -17.6074   30.8494 N   0  0  0  0  0  0  0  0  0  0  0  0
   11.4948  -16.9234   29.6674 C   0  0  0  0  0  0  0  0  0  0  0  0
   10.4502  -16.8827   28.6103 C   0  0  0  0  0  0  0  0  0  0  0  0
   10.2212  -15.7201   27.7705 C   0  0  0  0  0  0  0  0  0  0  0  0
   11.0372  -15.3958   26.6126 C   0  0  2  0  0  0  0  0  0  0  0  0
   10.3100  -14.4298   25.7411 N   0  0  0  0  0  0  0  0  0  0  0  0
   11.5422  -16.4276   25.7369 C   0  0  0  0  0  0  0  0  0  0  0  0
   12.2933  -17.3876   25.9683 O   0  0  0  0  0  0  0  0  0  0  0  0
   11.1384  -16.3814   24.3623 O   0  0  0  0  0  0  0  0  0  0  0  0
  2  1  1  6
  3  4  1  0
  3  2  1  0
  4  5  2  0
  6  5  1  0
  7  6  1  0
  8  7  2  0
  8  4  1  0
  9 10  2  0
  9  2  1  0
 11 12  1  0
 12 13  1  0
 13 15  1  0
 13 14  1  1
 15 16  1  6
 16  9  1  0
 17 15  1  0
 18 17  2  0
 19 20  1  0
 20 22  1  0
 21 20  2  0
 22 23  1  0
 23 24  1  0
 24 25  1  0
 26 25  1  1
 26 28  1  0
 26 27  1  0
 27 17  1  0
 28 30  1  0
 29 28  2  0
M  END
$$$$
