HIR.pdb
     RDKit          3D

 30 30  0  0  1  0  0  0  0  0999 V2000
    9.1732  -13.4107   20.2546 N   0  0  0  0  0  0  0  0  0  0  0  0
    8.1931  -14.1617   20.9927 C   0  0  1  0  0  0  0  0  0  0  0  0
    7.9539  -15.5334   20.4022 C   0  0  0  0  0  0  0  0  0  0  0  0
    7.3801  -15.4567   19.0451 C   0  0  0  0  0  0  0  0  0  0  0  0
    7.1740  -14.3540   18.2594 C   0  0  0  0  0  0  0  0  0  0  0  0
    6.6281  -14.7916   17.1132 N   0  0  0  0  0  0  0  0  0  0  0  0
    6.4874  -16.1430   17.1630 C   0  0  0  0  0  0  0  0  0  0  0  0
    6.9549  -16.5159   18.3524 N   0  0  0  0  0  0  0  0  0  0  0  0
    8.5455  -14.2424   22.4322 C   0  0  0  0  0  0  0  0  0  0  0  0
    9.7186  -14.4789   22.8191 O   0  0  0  0  0  0  0  0  0  0  0  0
    5.2152  -11.5152   26.0992 C   0  0  0  0  0  0  0  0  0  0  0  0
    6.3985  -12.0388   25.3687 C   0  0  0  0  0  0  0  0  0  0  0  0
    6.8960  -13.3784   25.7529 C   0  0  2  0  0  0  0  0  0  0  0  0
    7.4487  -13.4206   27.1677 C   0  0  0  0  0  0  0  0  0  0  0  0
    7.8636  -14.0453   24.8473 C   0  0  2  0  0  0  0  0  0  0  0  0
    7.5403  -14.0498   23.4552 N   0  0  0  0  0  0  0  0  0  0  0  0
    8.2220  -15.4206   25.2851 C   0  0  0  0  0  0  0  0  0  0  0  0
    7.3810  -16.3542   25.1623 O   0  0  0  0  0  0  0  0  0  0  0  0
   13.7163  -21.7054   26.0669 N   0  0  0  0  0  0  0  0  0  0  0  0
   13.2235  -21.5231   24.7208 C   0  0  0  0  0  0  0  0  0  0  0  0
   13.1356  -22.5329   23.9562 N   0  0  0  0  0  0  0  0  0  0  0  0
   12.8724  -20.2080   24.3542 N   0  0  0  0  0  0  0  0  0  0  0  0
   13.0825  -19.1330   25.3698 C   0  0  0  0  0  0  0  0  0  0  0  0
   11.7443  -18.7912   25.9201 C   0  0  0  0  0  0  0  0  0  0  0  0
   11.0679  -17.5389   25.6310 C   0  0  0  0  0  0  0  0  0  0  0  0
    9.8264  -17.1340   26.2684 C   0  0  2  0  0  0  0  0  0  0  0  0
    9.4708  -15.7511   25.8414 N   0  0  0  0  0  0  0  0  0  0  0  0
    9.6748  -17.1639   27.7047 C   0  0  0  0  0  0  0  0  0  0  0  0
    9.5922  -16.2394   28.5279 O   0  0  0  0  0  0  0  0  0  0  0  0
    9.6016  -18.4501   28.3331 O   0  0  0  0  0  0  0  0  0  0  0  0
  2  1  1  6
  3  4  1  0
  3  2  1  0
  4  5  2  0
  6  5  1  0
  7  6  1  0
  8  7  2  0
  8  4  1  0
  9 10  2  0
  9  2  1  0
 11 12  1  0
 12 13  1  0
 13 15  1  0
 13 14  1  1
 15 16  1  6
 16  9  1  0
 17 15  1  0
 18 17  2  0
 19 20  1  0
 20 22  1  0
 21 20  2  0
 22 23  1  0
 23 24  1  0
 24 25  1  0
 26 25  1  1
 26 28  1  0
 26 27  1  0
 27 17  1  0
 28 30  1  0
 29 28  2  0
M  END
$$$$
