HIR.pdb
     RDKit          3D

 30 30  0  0  1  0  0  0  0  0999 V2000
    9.7741  -14.2398   20.7393 N   0  0  0  0  0  0  0  0  0  0  0  0
    8.5309  -14.4807   21.4219 C   0  0  1  0  0  0  0  0  0  0  0  0
    7.7811  -15.6642   20.8526 C   0  0  0  0  0  0  0  0  0  0  0  0
    7.3643  -15.4326   19.4562 C   0  0  0  0  0  0  0  0  0  0  0  0
    7.6830  -14.3920   18.6248 C   0  0  0  0  0  0  0  0  0  0  0  0
    7.0640  -14.6262   17.4564 N   0  0  0  0  0  0  0  0  0  0  0  0
    6.3648  -15.7895   17.5369 C   0  0  0  0  0  0  0  0  0  0  0  0
    6.5692  -16.2547   18.7674 N   0  0  0  0  0  0  0  0  0  0  0  0
    8.7357  -14.6185   22.8854 C   0  0  0  0  0  0  0  0  0  0  0  0
    9.7351  -15.2121   23.3658 O   0  0  0  0  0  0  0  0  0  0  0  0
    5.9763  -11.0491   26.4072 C   0  0  0  0  0  0  0  0  0  0  0  0
    7.0191  -11.8571   25.7235 C   0  0  0  0  0  0  0  0  0  0  0  0
    7.1102  -13.2904   26.0800 C   0  0  2  0  0  0  0  0  0  0  0  0
    7.4757  -13.5151   27.5378 C   0  0  0  0  0  0  0  0  0  0  0  0
    7.9665  -14.1619   25.2384 C   0  0  2  0  0  0  0  0  0  0  0  0
    7.7816  -14.0687   23.8242 N   0  0  0  0  0  0  0  0  0  0  0  0
    7.9386  -15.5887   25.6566 C   0  0  0  0  0  0  0  0  0  0  0  0
    6.9693  -16.3213   25.3136 O   0  0  0  0  0  0  0  0  0  0  0  0
   11.8984  -21.0443   21.9255 N   0  0  0  0  0  0  0  0  0  0  0  0
   12.4404  -19.9531   22.7024 C   0  0  0  0  0  0  0  0  0  0  0  0
   13.5697  -19.4704   22.3800 N   0  0  0  0  0  0  0  0  0  0  0  0
   11.6551  -19.5013   23.7823 N   0  0  0  0  0  0  0  0  0  0  0  0
   10.4969  -20.3510   24.1916 C   0  0  0  0  0  0  0  0  0  0  0  0
    9.8973  -19.7139   25.3938 C   0  0  0  0  0  0  0  0  0  0  0  0
    9.6121  -18.2921   25.4748 C   0  0  0  0  0  0  0  0  0  0  0  0
    9.0415  -17.6559   26.6501 C   0  0  2  0  0  0  0  0  0  0  0  0
    8.9510  -16.1846   26.4300 N   0  0  0  0  0  0  0  0  0  0  0  0
    9.6269  -17.8325   27.9588 C   0  0  0  0  0  0  0  0  0  0  0  0
    9.7722  -18.8539   28.6478 O   0  0  0  0  0  0  0  0  0  0  0  0
   10.1413  -16.6658   28.6136 O   0  0  0  0  0  0  0  0  0  0  0  0
  2  1  1  6
  3  4  1  0
  3  2  1  0
  4  5  2  0
  6  5  1  0
  7  6  1  0
  8  7  2  0
  8  4  1  0
  9 10  2  0
  9  2  1  0
 11 12  1  0
 12 13  1  0
 13 15  1  0
 13 14  1  1
 15 16  1  6
 16  9  1  0
 17 15  1  0
 18 17  2  0
 19 20  1  0
 20 22  1  0
 21 20  2  0
 22 23  1  0
 23 24  1  0
 24 25  1  0
 26 25  1  6
 26 28  1  0
 26 27  1  0
 27 17  1  0
 28 30  1  0
 29 28  2  0
M  END
$$$$
