RFG.pdb
     RDKit          3D

 27 27  0  0  1  0  0  0  0  0999 V2000
   24.4354  -25.0797  -18.3155 N   0  0  0  0  0  0  0  0  0  0  0  0
   25.1545  -24.9030  -19.5200 C   0  0  0  0  0  0  0  0  0  0  0  0
   25.1599  -25.7892  -20.4380 N   0  0  0  0  0  0  0  0  0  0  0  0
   25.8969  -23.6884  -19.7027 N   0  0  0  0  0  0  0  0  0  0  0  0
   25.7134  -22.5536  -18.8602 C   0  0  0  0  0  0  0  0  0  0  0  0
   26.6090  -22.5587  -17.6436 C   0  0  0  0  0  0  0  0  0  0  0  0
   26.0290  -21.5440  -16.6687 C   0  0  0  0  0  0  0  0  0  0  0  0
   25.0465  -22.2260  -15.7738 C   0  0  2  0  0  0  0  0  0  0  0  0
   23.7138  -21.7405  -15.9765 N   0  0  0  0  0  0  0  0  0  0  0  0
   25.4881  -22.0849  -14.3471 C   0  0  0  0  0  0  0  0  0  0  0  0
   26.2083  -22.9885  -13.8536 O   0  0  0  0  0  0  0  0  0  0  0  0
   25.5759  -25.6865  -21.3695 N   0  0  0  0  0  0  0  0  0  0  0  0
   25.1326  -20.9848  -13.5294 C   0  0  1  0  0  0  0  0  0  0  0  0
   25.7105  -20.8977  -12.2024 C   0  0  0  0  0  0  0  0  0  0  0  0
   26.5024  -19.6458  -12.0009 C   0  0  0  0  0  0  0  0  0  0  0  0
   27.2919  -19.2127  -13.1514 C   0  0  0  0  0  0  0  0  0  0  0  0
   26.8646  -18.1495  -13.9047 C   0  0  0  0  0  0  0  0  0  0  0  0
   27.5576  -17.6862  -15.0054 C   0  0  0  0  0  0  0  0  0  0  0  0
   28.7127  -18.3075  -15.3607 C   0  0  0  0  0  0  0  0  0  0  0  0
   29.1726  -19.3815  -14.6247 C   0  0  0  0  0  0  0  0  0  0  0  0
   28.4557  -19.8410  -13.5067 C   0  0  0  0  0  0  0  0  0  0  0  0
   24.5773  -20.8345  -11.2161 O   0  0  0  0  0  0  0  0  0  0  0  0
   24.8411  -20.5702  -10.0205 N   0  0  0  0  0  0  0  0  0  0  0  0
   23.2282  -21.0619  -11.5959 C   0  0  0  0  0  0  0  0  0  0  0  0
   22.2046  -20.9427  -10.5838 C   0  0  0  0  0  0  0  0  0  0  0  0
   20.8805  -21.1493  -11.1961 O   0  0  0  0  0  0  0  0  0  0  0  0
   20.7775  -21.4150  -12.4094 O   0  0  0  0  0  0  0  0  0  0  0  0
  2  1  1  0
  3  2  2  0
  4  2  1  0
  5  4  1  0
  6  5  1  0
  7  6  1  0
  8  7  1  0
  8  9  1  1
 10  8  1  0
 10 11  2  0
 12 10  1  0
 13 12  1  0
 13 14  1  1
 15 14  1  0
 15 16  2  0
 16 17  1  0
 18 17  2  0
 19 18  1  0
 20 19  2  0
 20 15  1  0
 21 13  1  0
 22 21  2  0
 23 21  1  0
 24 25  1  0
 24 23  1  0
 25 27  1  0
 26 25  2  0
M  END
$$$$
