RFG.pdb
     RDKit          3D

 27 27  0  0  1  0  0  0  0  0999 V2000
   30.2015  -18.9666  -17.6403 N   0  0  0  0  0  0  0  0  0  0  0  0
   29.7292  -17.6360  -17.7138 C   0  0  0  0  0  0  0  0  0  0  0  0
   30.0937  -16.8418  -18.6436 N   0  0  0  0  0  0  0  0  0  0  0  0
   28.8153  -17.1768  -16.7069 N   0  0  0  0  0  0  0  0  0  0  0  0
   28.1948  -18.0674  -15.7832 C   0  0  0  0  0  0  0  0  0  0  0  0
   27.3520  -19.1301  -16.4484 C   0  0  0  0  0  0  0  0  0  0  0  0
   26.5274  -19.7859  -15.3501 C   0  0  0  0  0  0  0  0  0  0  0  0
   27.4166  -20.6460  -14.5130 C   0  0  2  0  0  0  0  0  0  0  0  0
   27.9983  -21.7117  -15.2738 N   0  0  0  0  0  0  0  0  0  0  0  0
   26.6503  -21.1519  -13.3267 C   0  0  0  0  0  0  0  0  0  0  0  0
   26.1388  -22.2977  -13.3915 O   0  0  0  0  0  0  0  0  0  0  0  0
   29.8189  -15.8583  -18.7354 N   0  0  0  0  0  0  0  0  0  0  0  0
   26.4743  -20.4018  -12.1386 C   0  0  2  0  0  0  0  0  0  0  0  0
   25.4891  -20.8562  -11.1766 C   0  0  0  0  0  0  0  0  0  0  0  0
   25.5318  -20.0803   -9.8995 C   0  0  0  0  0  0  0  0  0  0  0  0
   26.7431  -20.2544   -9.1016 C   0  0  0  0  0  0  0  0  0  0  0  0
   26.8869  -19.5600   -7.9278 C   0  0  0  0  0  0  0  0  0  0  0  0
   28.0037  -19.6731   -7.1239 C   0  0  0  0  0  0  0  0  0  0  0  0
   29.0053  -20.5070   -7.5085 C   0  0  0  0  0  0  0  0  0  0  0  0
   28.8941  -21.2217   -8.6846 C   0  0  0  0  0  0  0  0  0  0  0  0
   27.7507  -21.0957   -9.4920 C   0  0  0  0  0  0  0  0  0  0  0  0
   24.1288  -20.6080  -11.7672 O   0  0  0  0  0  0  0  0  0  0  0  0
   23.9204  -19.5178  -12.3476 N   0  0  0  0  0  0  0  0  0  0  0  0
   23.0824  -21.5645  -11.6891 C   0  0  0  0  0  0  0  0  0  0  0  0
   21.9026  -21.3532  -12.4952 C   0  0  0  0  0  0  0  0  0  0  0  0
   20.7352  -21.1590  -11.6176 O   0  0  0  0  0  0  0  0  0  0  0  0
   20.8694  -21.1393  -10.3787 O   0  0  0  0  0  0  0  0  0  0  0  0
  2  1  1  0
  3  2  2  0
  4  2  1  0
  5  4  1  0
  6  5  1  0
  7  6  1  0
  8  7  1  0
  8  9  1  6
 10  8  1  0
 10 11  2  0
 12 10  1  0
 13 12  1  0
 13 14  1  6
 15 14  1  0
 15 16  2  0
 16 17  1  0
 18 17  2  0
 19 18  1  0
 20 19  2  0
 20 15  1  0
 21 13  1  0
 22 21  2  0
 23 21  1  0
 24 25  1  0
 24 23  1  0
 25 27  1  0
 26 25  2  0
M  END
$$$$
