RFG.pdb
     RDKit          3D

 27 27  0  0  1  0  0  0  0  0999 V2000
   28.6981  -15.1454  -17.8432 N   0  0  0  0  0  0  0  0  0  0  0  0
   29.1711  -16.4125  -18.2554 C   0  0  0  0  0  0  0  0  0  0  0  0
   30.2317  -16.5417  -18.9529 N   0  0  0  0  0  0  0  0  0  0  0  0
   28.4273  -17.5789  -17.8731 N   0  0  0  0  0  0  0  0  0  0  0  0
   27.1724  -17.4920  -17.2031 C   0  0  0  0  0  0  0  0  0  0  0  0
   27.3011  -17.3532  -15.7043 C   0  0  0  0  0  0  0  0  0  0  0  0
   26.4952  -18.4881  -15.0888 C   0  0  0  0  0  0  0  0  0  0  0  0
   27.3929  -19.3249  -14.2373 C   0  0  2  0  0  0  0  0  0  0  0  0
   28.4002  -19.9857  -15.0129 N   0  0  0  0  0  0  0  0  0  0  0  0
   26.5679  -20.2924  -13.4412 C   0  0  0  0  0  0  0  0  0  0  0  0
   26.4610  -21.4717  -13.8613 O   0  0  0  0  0  0  0  0  0  0  0  0
   30.6201  -17.4260  -19.2971 N   0  0  0  0  0  0  0  0  0  0  0  0
   25.9034  -19.9419  -12.2408 C   0  0  1  0  0  0  0  0  0  0  0  0
   25.1501  -20.9675  -11.5457 C   0  0  0  0  0  0  0  0  0  0  0  0
   25.1314  -20.7633  -10.0649 C   0  0  0  0  0  0  0  0  0  0  0  0
   26.4425  -20.6246   -9.4357 C   0  0  0  0  0  0  0  0  0  0  0  0
   26.6040  -19.7495   -8.3923 C   0  0  0  0  0  0  0  0  0  0  0  0
   27.8128  -19.5651   -7.7510 C   0  0  0  0  0  0  0  0  0  0  0  0
   28.8908  -20.2794   -8.1685 C   0  0  0  0  0  0  0  0  0  0  0  0
   28.7644  -21.1696   -9.2163 C   0  0  0  0  0  0  0  0  0  0  0  0
   27.5269  -21.3461   -9.8587 C   0  0  0  0  0  0  0  0  0  0  0  0
   23.7193  -20.8650  -11.9965 O   0  0  0  0  0  0  0  0  0  0  0  0
   23.2672  -19.7354  -12.2942 N   0  0  0  0  0  0  0  0  0  0  0  0
   22.8726  -22.0004  -12.0958 C   0  0  0  0  0  0  0  0  0  0  0  0
   21.6225  -21.8599  -12.8057 C   0  0  0  0  0  0  0  0  0  0  0  0
   20.5554  -21.4979  -11.8564 O   0  0  0  0  0  0  0  0  0  0  0  0
   20.8137  -21.3175  -10.6506 O   0  0  0  0  0  0  0  0  0  0  0  0
  2  1  1  0
  3  2  2  0
  4  2  1  0
  5  4  1  0
  6  5  1  0
  7  6  1  0
  8  7  1  0
  8  9  1  6
 10  8  1  0
 10 11  2  0
 12 10  1  0
 13 12  1  0
 13 14  1  6
 15 14  1  0
 15 16  2  0
 16 17  1  0
 18 17  2  0
 19 18  1  0
 20 19  2  0
 20 15  1  0
 21 13  1  0
 22 21  2  0
 23 21  1  0
 24 25  1  0
 24 23  1  0
 25 27  1  0
 26 25  2  0
M  END
$$$$
