RFG.pdb
     RDKit          3D

 27 27  0  0  1  0  0  0  0  0999 V2000
   27.0339  -22.7595  -15.7585 N   0  0  0  0  0  0  0  0  0  0  0  0
   27.4273  -21.6079  -16.4785 C   0  0  0  0  0  0  0  0  0  0  0  0
   26.6526  -21.0413  -17.3191 N   0  0  0  0  0  0  0  0  0  0  0  0
   28.7388  -21.0717  -16.2495 N   0  0  0  0  0  0  0  0  0  0  0  0
   29.3572  -21.1030  -14.9658 C   0  0  0  0  0  0  0  0  0  0  0  0
   28.9372  -19.9616  -14.0697 C   0  0  0  0  0  0  0  0  0  0  0  0
   27.9626  -20.5387  -13.0532 C   0  0  0  0  0  0  0  0  0  0  0  0
   28.7048  -20.8987  -11.8079 C   0  0  2  0  0  0  0  0  0  0  0  0
   29.5257  -22.0584  -11.9925 N   0  0  0  0  0  0  0  0  0  0  0  0
   27.7327  -21.0689  -10.6781 C   0  0  0  0  0  0  0  0  0  0  0  0
   27.2990  -22.2224  -10.4331 O   0  0  0  0  0  0  0  0  0  0  0  0
   26.9054  -20.2668  -17.9416 N   0  0  0  0  0  0  0  0  0  0  0  0
   27.2795  -19.9940   -9.8752 C   0  0  1  0  0  0  0  0  0  0  0  0
   26.2764  -20.2650   -8.8638 C   0  0  0  0  0  0  0  0  0  0  0  0
   26.3228  -19.2895   -7.7319 C   0  0  0  0  0  0  0  0  0  0  0  0
   27.3904  -19.5098   -6.7592 C   0  0  0  0  0  0  0  0  0  0  0  0
   28.2393  -18.4811   -6.4405 C   0  0  0  0  0  0  0  0  0  0  0  0
   29.2705  -18.6165   -5.5324 C   0  0  0  0  0  0  0  0  0  0  0  0
   29.4555  -19.8186   -4.9265 C   0  0  0  0  0  0  0  0  0  0  0  0
   28.6193  -20.8765   -5.2236 C   0  0  0  0  0  0  0  0  0  0  0  0
   27.5740  -20.7226   -6.1503 C   0  0  0  0  0  0  0  0  0  0  0  0
   24.9269  -20.0929   -9.5042 O   0  0  0  0  0  0  0  0  0  0  0  0
   24.8050  -19.2479  -10.4208 N   0  0  0  0  0  0  0  0  0  0  0  0
   23.7963  -20.8540   -9.1062 C   0  0  0  0  0  0  0  0  0  0  0  0
   22.5119  -20.5171   -9.6748 C   0  0  0  0  0  0  0  0  0  0  0  0
   22.2978  -21.2994  -10.9049 O   0  0  0  0  0  0  0  0  0  0  0  0
   23.1910  -22.0506  -11.3422 O   0  0  0  0  0  0  0  0  0  0  0  0
  2  1  1  0
  3  2  2  0
  4  2  1  0
  5  4  1  0
  6  5  1  0
  7  6  1  0
  8  7  1  0
  8  9  1  6
 10  8  1  0
 10 11  2  0
 12 10  1  0
 13 12  1  0
 13 14  1  1
 15 14  1  0
 15 16  2  0
 16 17  1  0
 18 17  2  0
 19 18  1  0
 20 19  2  0
 20 15  1  0
 21 13  1  0
 22 21  2  0
 23 21  1  0
 24 25  1  0
 24 23  1  0
 25 27  1  0
 26 25  2  0
M  END
$$$$
