RFG.pdb
     RDKit          3D

 27 27  0  0  1  0  0  0  0  0999 V2000
   27.6397  -16.1663  -17.5315 N   0  0  0  0  0  0  0  0  0  0  0  0
   27.0342  -15.3400  -16.5570 C   0  0  0  0  0  0  0  0  0  0  0  0
   26.4389  -14.2554  -16.8688 N   0  0  0  0  0  0  0  0  0  0  0  0
   27.0993  -15.7429  -15.1810 N   0  0  0  0  0  0  0  0  0  0  0  0
   27.6945  -16.9738  -14.7787 C   0  0  0  0  0  0  0  0  0  0  0  0
   27.1832  -18.1676  -15.5504 C   0  0  0  0  0  0  0  0  0  0  0  0
   26.3473  -18.9905  -14.5806 C   0  0  0  0  0  0  0  0  0  0  0  0
   27.2517  -19.8368  -13.7456 C   0  0  2  0  0  0  0  0  0  0  0  0
   28.0402  -20.7257  -14.5461 N   0  0  0  0  0  0  0  0  0  0  0  0
   26.4418  -20.5705  -12.7178 C   0  0  0  0  0  0  0  0  0  0  0  0
   25.9793  -21.6996  -13.0178 O   0  0  0  0  0  0  0  0  0  0  0  0
   26.0593  -13.5677  -16.2097 N   0  0  0  0  0  0  0  0  0  0  0  0
   26.1723  -20.0531  -11.4275 C   0  0  2  0  0  0  0  0  0  0  0  0
   25.3457  -20.8366  -10.5300 C   0  0  0  0  0  0  0  0  0  0  0  0
   25.4628  -20.3944   -9.1068 C   0  0  0  0  0  0  0  0  0  0  0  0
   26.7844  -20.5600   -8.5067 C   0  0  0  0  0  0  0  0  0  0  0  0
   27.1244  -19.8217   -7.4022 C   0  0  0  0  0  0  0  0  0  0  0  0
   28.3545  -19.9243   -6.7836 C   0  0  0  0  0  0  0  0  0  0  0  0
   29.2701  -20.7926   -7.2876 C   0  0  0  0  0  0  0  0  0  0  0  0
   28.9617  -21.5519   -8.3988 C   0  0  0  0  0  0  0  0  0  0  0  0
   27.7050  -21.4361   -9.0171 C   0  0  0  0  0  0  0  0  0  0  0  0
   23.9109  -20.6090  -10.9181 O   0  0  0  0  0  0  0  0  0  0  0  0
   23.6169  -19.5516  -11.5218 N   0  0  0  0  0  0  0  0  0  0  0  0
   22.8880  -21.5490  -10.6251 C   0  0  0  0  0  0  0  0  0  0  0  0
   21.5289  -21.2120  -10.9797 C   0  0  0  0  0  0  0  0  0  0  0  0
   21.2576  -21.6495  -12.3602 O   0  0  0  0  0  0  0  0  0  0  0  0
   22.1526  -22.1832  -13.0438 O   0  0  0  0  0  0  0  0  0  0  0  0
  2  1  1  0
  3  2  2  0
  4  2  1  0
  5  4  1  0
  6  5  1  0
  7  6  1  0
  8  7  1  0
  8  9  1  6
 10  8  1  0
 10 11  2  0
 12 10  1  0
 13 12  1  0
 13 14  1  6
 15 14  1  0
 15 16  2  0
 16 17  1  0
 18 17  2  0
 19 18  1  0
 20 19  2  0
 20 15  1  0
 21 13  1  0
 22 21  2  0
 23 21  1  0
 24 25  1  0
 24 23  1  0
 25 27  1  0
 26 25  2  0
M  END
$$$$
