RFG.pdb
     RDKit          3D

 27 27  0  0  1  0  0  0  0  0999 V2000
   18.6076  -24.2052  -12.6669 N   0  0  0  0  0  0  0  0  0  0  0  0
   19.0571  -24.0444  -13.9978 C   0  0  0  0  0  0  0  0  0  0  0  0
   19.4214  -25.0379  -14.7107 N   0  0  0  0  0  0  0  0  0  0  0  0
   19.1018  -22.7207  -14.5506 N   0  0  0  0  0  0  0  0  0  0  0  0
   20.1919  -21.8348  -14.3097 C   0  0  0  0  0  0  0  0  0  0  0  0
   20.3107  -21.4088  -12.8652 C   0  0  0  0  0  0  0  0  0  0  0  0
   21.4713  -20.4269  -12.7924 C   0  0  0  0  0  0  0  0  0  0  0  0
   22.4777  -20.7747  -13.8400 C   0  0  2  0  0  0  0  0  0  0  0  0
   22.6137  -22.1920  -13.9995 N   0  0  0  0  0  0  0  0  0  0  0  0
   23.7853  -20.1148  -13.5156 C   0  0  0  0  0  0  0  0  0  0  0  0
   23.7748  -18.9053  -13.1755 O   0  0  0  0  0  0  0  0  0  0  0  0
   19.6679  -25.0050  -15.7054 N   0  0  0  0  0  0  0  0  0  0  0  0
   25.0301  -20.7872  -13.5748 C   0  0  2  0  0  0  0  0  0  0  0  0
   26.2322  -20.0404  -13.2590 C   0  0  0  0  0  0  0  0  0  0  0  0
   27.0398  -20.6812  -12.1764 C   0  0  0  0  0  0  0  0  0  0  0  0
   26.4619  -20.6062  -10.8368 C   0  0  0  0  0  0  0  0  0  0  0  0
   25.6315  -21.6064  -10.4002 C   0  0  0  0  0  0  0  0  0  0  0  0
   25.0487  -21.6016   -9.1485 C   0  0  0  0  0  0  0  0  0  0  0  0
   25.3064  -20.5634   -8.3105 C   0  0  0  0  0  0  0  0  0  0  0  0
   26.1379  -19.5390   -8.7173 C   0  0  0  0  0  0  0  0  0  0  0  0
   26.7237  -19.5585   -9.9946 C   0  0  0  0  0  0  0  0  0  0  0  0
   27.1044  -20.0434  -14.4839 O   0  0  0  0  0  0  0  0  0  0  0  0
   27.2653  -21.1227  -15.0988 N   0  0  0  0  0  0  0  0  0  0  0  0
   27.7444  -18.8696  -14.9617 C   0  0  0  0  0  0  0  0  0  0  0  0
   28.6035  -18.9825  -16.1174 C   0  0  0  0  0  0  0  0  0  0  0  0
   27.9197  -18.4212  -17.2956 O   0  0  0  0  0  0  0  0  0  0  0  0
   26.7060  -18.6319  -17.4847 O   0  0  0  0  0  0  0  0  0  0  0  0
  2  1  1  0
  3  2  2  0
  4  2  1  0
  5  4  1  0
  6  5  1  0
  7  6  1  0
  8  7  1  0
  8  9  1  1
 10  8  1  0
 10 11  2  0
 12 10  1  0
 13 12  1  0
 13 14  1  1
 15 14  1  0
 15 16  2  0
 16 17  1  0
 18 17  2  0
 19 18  1  0
 20 19  2  0
 20 15  1  0
 21 13  1  0
 22 21  2  0
 23 21  1  0
 24 25  1  0
 24 23  1  0
 25 27  1  0
 26 25  2  0
M  END
$$$$
