RFG.pdb
     RDKit          3D

 27 27  0  0  1  0  0  0  0  0999 V2000
   27.5066  -20.8387  -18.3103 N   0  0  0  0  0  0  0  0  0  0  0  0
   26.2202  -20.2856  -18.1140 C   0  0  0  0  0  0  0  0  0  0  0  0
   25.4373  -20.0371  -19.0904 N   0  0  0  0  0  0  0  0  0  0  0  0
   25.7953  -19.9983  -16.7736 N   0  0  0  0  0  0  0  0  0  0  0  0
   26.5352  -20.4304  -15.6346 C   0  0  0  0  0  0  0  0  0  0  0  0
   26.1853  -21.8304  -15.1879 C   0  0  0  0  0  0  0  0  0  0  0  0
   25.6555  -21.7166  -13.7657 C   0  0  0  0  0  0  0  0  0  0  0  0
   26.5184  -22.5241  -12.8521 C   0  0  2  0  0  0  0  0  0  0  0  0
   26.3177  -23.9311  -13.0337 N   0  0  0  0  0  0  0  0  0  0  0  0
   26.2805  -22.0981  -11.4335 C   0  0  0  0  0  0  0  0  0  0  0  0
   25.3324  -22.6289  -10.8025 O   0  0  0  0  0  0  0  0  0  0  0  0
   24.4923  -19.6461  -19.0179 N   0  0  0  0  0  0  0  0  0  0  0  0
   27.0706  -21.1273  -10.7714 C   0  0  2  0  0  0  0  0  0  0  0  0
   26.6058  -20.6127   -9.4979 C   0  0  0  0  0  0  0  0  0  0  0  0
   27.5815  -19.6723   -8.8667 C   0  0  0  0  0  0  0  0  0  0  0  0
   27.6929  -19.7686   -7.4133 C   0  0  0  0  0  0  0  0  0  0  0  0
   28.4170  -20.7910   -6.8555 C   0  0  0  0  0  0  0  0  0  0  0  0
   28.5641  -20.9458   -5.4914 C   0  0  0  0  0  0  0  0  0  0  0  0
   27.9678  -20.0490   -4.6628 C   0  0  0  0  0  0  0  0  0  0  0  0
   27.2311  -19.0070   -5.1900 C   0  0  0  0  0  0  0  0  0  0  0  0
   27.0908  -18.8630   -6.5809 C   0  0  0  0  0  0  0  0  0  0  0  0
   25.3633  -19.8072   -9.7592 O   0  0  0  0  0  0  0  0  0  0  0  0
   25.2602  -19.2081  -10.8544 N   0  0  0  0  0  0  0  0  0  0  0  0
   24.3113  -19.7070   -8.8109 C   0  0  0  0  0  0  0  0  0  0  0  0
   23.2674  -20.7049   -8.8413 C   0  0  0  0  0  0  0  0  0  0  0  0
   22.1723  -20.2451   -9.7131 O   0  0  0  0  0  0  0  0  0  0  0  0
   20.9833  -20.4005   -9.3732 O   0  0  0  0  0  0  0  0  0  0  0  0
  2  1  1  0
  3  2  2  0
  4  2  1  0
  5  4  1  0
  6  5  1  0
  7  6  1  0
  8  7  1  0
  8  9  1  1
 10  8  1  0
 10 11  2  0
 12 10  1  0
 13 12  1  0
 13 14  1  6
 15 14  1  0
 15 16  2  0
 16 17  1  0
 18 17  2  0
 19 18  1  0
 20 19  2  0
 20 15  1  0
 21 13  1  0
 22 21  2  0
 23 21  1  0
 24 25  1  0
 24 23  1  0
 25 27  1  0
 26 25  2  0
M  END
$$$$
