RFG.pdb
     RDKit          3D

 27 27  0  0  1  0  0  0  0  0999 V2000
   29.7011  -21.2741  -18.1872 N   0  0  0  0  0  0  0  0  0  0  0  0
   28.9182  -20.2803  -18.8187 C   0  0  0  0  0  0  0  0  0  0  0  0
   28.3209  -20.4953  -19.9255 N   0  0  0  0  0  0  0  0  0  0  0  0
   28.8012  -18.9967  -18.1874 N   0  0  0  0  0  0  0  0  0  0  0  0
   28.6611  -18.8557  -16.7761 C   0  0  0  0  0  0  0  0  0  0  0  0
   27.4834  -19.6150  -16.2116 C   0  0  0  0  0  0  0  0  0  0  0  0
   27.2882  -19.1224  -14.7848 C   0  0  0  0  0  0  0  0  0  0  0  0
   27.8729  -20.1167  -13.8357 C   0  0  2  0  0  0  0  0  0  0  0  0
   28.7060  -21.0694  -14.5073 N   0  0  0  0  0  0  0  0  0  0  0  0
   26.7705  -20.7770  -13.0617 C   0  0  0  0  0  0  0  0  0  0  0  0
   26.2756  -21.8387  -13.5163 O   0  0  0  0  0  0  0  0  0  0  0  0
   27.7730  -19.8095  -20.4553 N   0  0  0  0  0  0  0  0  0  0  0  0
   26.2598  -20.2626  -11.8452 C   0  0  1  0  0  0  0  0  0  0  0  0
   25.3101  -21.0673  -11.1016 C   0  0  0  0  0  0  0  0  0  0  0  0
   25.1859  -20.6388   -9.6748 C   0  0  0  0  0  0  0  0  0  0  0  0
   26.4351  -20.6142   -8.9177 C   0  0  0  0  0  0  0  0  0  0  0  0
   26.6675  -19.5977   -8.0270 C   0  0  0  0  0  0  0  0  0  0  0  0
   27.8247  -19.5088   -7.2790 C   0  0  0  0  0  0  0  0  0  0  0  0
   28.7761  -20.4673   -7.4288 C   0  0  0  0  0  0  0  0  0  0  0  0
   28.5754  -21.5053   -8.3169 C   0  0  0  0  0  0  0  0  0  0  0  0
   27.3920  -21.5818   -9.0710 C   0  0  0  0  0  0  0  0  0  0  0  0
   23.9547  -20.8560  -11.7174 O   0  0  0  0  0  0  0  0  0  0  0  0
   23.7053  -19.7473  -12.2443 N   0  0  0  0  0  0  0  0  0  0  0  0
   22.9579  -21.8670  -11.7214 C   0  0  0  0  0  0  0  0  0  0  0  0
   21.7547  -21.6366  -12.4867 C   0  0  0  0  0  0  0  0  0  0  0  0
   20.7855  -20.8887  -11.6669 O   0  0  0  0  0  0  0  0  0  0  0  0
   20.6739  -21.1208  -10.4475 O   0  0  0  0  0  0  0  0  0  0  0  0
  2  1  1  0
  3  2  2  0
  4  2  1  0
  5  4  1  0
  6  5  1  0
  7  6  1  0
  8  7  1  0
  8  9  1  6
 10  8  1  0
 10 11  2  0
 12 10  1  0
 13 12  1  0
 13 14  1  6
 15 14  1  0
 15 16  2  0
 16 17  1  0
 18 17  2  0
 19 18  1  0
 20 19  2  0
 20 15  1  0
 21 13  1  0
 22 21  2  0
 23 21  1  0
 24 25  1  0
 24 23  1  0
 25 27  1  0
 26 25  2  0
M  END
$$$$
