RFG.pdb
     RDKit          3D

 27 27  0  0  1  0  0  0  0  0999 V2000
   22.5574  -18.3662  -15.0176 N   0  0  0  0  0  0  0  0  0  0  0  0
   22.6507  -19.5406  -15.7995 C   0  0  0  0  0  0  0  0  0  0  0  0
   22.7092  -19.4993  -17.0734 N   0  0  0  0  0  0  0  0  0  0  0  0
   22.6780  -20.8094  -15.1292 N   0  0  0  0  0  0  0  0  0  0  0  0
   22.7148  -20.9157  -13.7084 C   0  0  0  0  0  0  0  0  0  0  0  0
   23.5952  -19.8784  -13.0519 C   0  0  0  0  0  0  0  0  0  0  0  0
   24.1231  -20.5015  -11.7677 C   0  0  0  0  0  0  0  0  0  0  0  0
   25.6157  -20.5366  -11.8140 C   0  0  2  0  0  0  0  0  0  0  0  0
   26.0977  -21.5080  -12.7504 N   0  0  0  0  0  0  0  0  0  0  0  0
   26.1534  -20.7682  -10.4328 C   0  0  0  0  0  0  0  0  0  0  0  0
   26.3227  -21.9527  -10.0496 O   0  0  0  0  0  0  0  0  0  0  0  0
   22.7692  -20.3098  -17.6985 N   0  0  0  0  0  0  0  0  0  0  0  0
   26.4784  -19.7182   -9.5400 C   0  0  2  0  0  0  0  0  0  0  0  0
   26.9738  -20.0635   -8.2217 C   0  0  0  0  0  0  0  0  0  0  0  0
   27.8528  -19.0026   -7.6414 C   0  0  0  0  0  0  0  0  0  0  0  0
   28.4497  -19.3233   -6.3471 C   0  0  0  0  0  0  0  0  0  0  0  0
   29.4088  -20.3002   -6.2668 C   0  0  0  0  0  0  0  0  0  0  0  0
   30.0149  -20.6573   -5.0787 C   0  0  0  0  0  0  0  0  0  0  0  0
   29.6484  -20.0158   -3.9383 C   0  0  0  0  0  0  0  0  0  0  0  0
   28.6858  -19.0270   -3.9822 C   0  0  0  0  0  0  0  0  0  0  0  0
   28.0781  -18.6748   -5.1996 C   0  0  0  0  0  0  0  0  0  0  0  0
   25.7878  -20.1674   -7.3032 O   0  0  0  0  0  0  0  0  0  0  0  0
   25.1614  -19.1210   -7.0172 N   0  0  0  0  0  0  0  0  0  0  0  0
   25.3588  -21.4053   -6.7560 C   0  0  0  0  0  0  0  0  0  0  0  0
   24.8880  -21.4218   -5.3905 C   0  0  0  0  0  0  0  0  0  0  0  0
   23.6510  -22.2177   -5.3060 O   0  0  0  0  0  0  0  0  0  0  0  0
   23.1867  -22.7774   -6.3181 O   0  0  0  0  0  0  0  0  0  0  0  0
  2  1  1  0
  3  2  2  0
  4  2  1  0
  5  4  1  0
  6  5  1  0
  7  6  1  0
  8  7  1  0
  8  9  1  6
 10  8  1  0
 10 11  2  0
 12 10  1  0
 13 12  1  0
 13 14  1  6
 15 14  1  0
 15 16  2  0
 16 17  1  0
 18 17  2  0
 19 18  1  0
 20 19  2  0
 20 15  1  0
 21 13  1  0
 22 21  2  0
 23 21  1  0
 24 25  1  0
 24 23  1  0
 25 27  1  0
 26 25  2  0
M  END
$$$$
