RFG.pdb
     RDKit          3D

 27 27  0  0  1  0  0  0  0  0999 V2000
   23.2541  -31.1313  -18.2353 N   0  0  0  0  0  0  0  0  0  0  0  0
   23.9011  -31.1754  -19.4918 C   0  0  0  0  0  0  0  0  0  0  0  0
   23.2497  -31.3073  -20.5810 N   0  0  0  0  0  0  0  0  0  0  0  0
   25.3319  -31.0694  -19.5297 N   0  0  0  0  0  0  0  0  0  0  0  0
   26.0738  -30.4446  -18.4853 C   0  0  0  0  0  0  0  0  0  0  0  0
   25.6055  -30.8321  -17.1023 C   0  0  0  0  0  0  0  0  0  0  0  0
   26.4532  -30.0420  -16.1157 C   0  0  0  0  0  0  0  0  0  0  0  0
   27.1031  -28.9008  -16.8275 C   0  0  2  0  0  0  0  0  0  0  0  0
   28.5325  -28.9857  -16.7781 N   0  0  0  0  0  0  0  0  0  0  0  0
   26.5944  -27.6062  -16.2657 C   0  0  0  0  0  0  0  0  0  0  0  0
   27.1232  -27.1631  -15.2156 O   0  0  0  0  0  0  0  0  0  0  0  0
   23.6568  -31.3778  -21.5194 N   0  0  0  0  0  0  0  0  0  0  0  0
   25.5476  -26.8600  -16.8596 C   0  0  2  0  0  0  0  0  0  0  0  0
   25.1932  -25.5826  -16.2723 C   0  0  0  0  0  0  0  0  0  0  0  0
   25.5891  -24.4249  -17.1313 C   0  0  0  0  0  0  0  0  0  0  0  0
   27.0007  -24.0534  -17.0691 C   0  0  0  0  0  0  0  0  0  0  0  0
   27.9382  -24.8501  -17.6749 C   0  0  0  0  0  0  0  0  0  0  0  0
   29.2885  -24.5629  -17.6559 C   0  0  0  0  0  0  0  0  0  0  0  0
   29.7107  -23.4441  -17.0104 C   0  0  0  0  0  0  0  0  0  0  0  0
   28.7942  -22.6191  -16.3894 C   0  0  0  0  0  0  0  0  0  0  0  0
   27.4228  -22.9251  -16.4179 C   0  0  0  0  0  0  0  0  0  0  0  0
   23.6939  -25.5294  -16.1702 O   0  0  0  0  0  0  0  0  0  0  0  0
   23.0163  -26.1818  -16.9974 N   0  0  0  0  0  0  0  0  0  0  0  0
   23.0285  -24.7699  -15.1722 C   0  0  0  0  0  0  0  0  0  0  0  0
   21.5842  -24.7827  -15.1540 C   0  0  0  0  0  0  0  0  0  0  0  0
   21.0969  -23.8642  -14.1102 O   0  0  0  0  0  0  0  0  0  0  0  0
   21.8994  -23.2550  -13.3765 O   0  0  0  0  0  0  0  0  0  0  0  0
  2  1  1  0
  3  2  2  0
  4  2  1  0
  5  4  1  0
  6  5  1  0
  7  6  1  0
  8  7  1  0
  8  9  1  1
 10  8  1  0
 10 11  2  0
 12 10  1  0
 13 12  1  0
 13 14  1  1
 15 14  1  0
 15 16  2  0
 16 17  1  0
 18 17  2  0
 19 18  1  0
 20 19  2  0
 20 15  1  0
 21 13  1  0
 22 21  2  0
 23 21  1  0
 24 25  1  0
 24 23  1  0
 25 27  1  0
 26 25  2  0
M  END
$$$$
