SKT.pdb
     RDKit          3D

 23 22  0  0  1  0  0  0  0  0999 V2000
   28.2970  -18.4378  -17.7917 O   0  0  0  0  0  0  0  0  0  0  0  0
   27.4376  -19.5158  -17.5967 C   0  0  0  0  0  0  0  0  0  0  0  0
   28.0640  -20.4995  -16.6204 C   0  0  2  0  0  0  0  0  0  0  0  0
   28.5559  -21.6173  -17.4040 N   0  0  0  0  0  0  0  0  0  0  0  0
   27.0041  -20.9529  -15.6685 C   0  0  0  0  0  0  0  0  0  0  0  0
   26.1970  -21.8268  -16.0814 O   0  0  0  0  0  0  0  0  0  0  0  0
   26.8903  -20.4376  -14.3527 N   0  0  0  0  0  0  0  0  0  0  0  0
   25.8288  -20.7747  -13.4659 C   0  0  1  0  0  0  0  0  0  0  0  0
   26.1553  -20.5396  -12.0048 C   0  0  0  0  0  0  0  0  0  0  0  0
   25.0625  -20.8543  -11.0741 C   0  0  0  0  0  0  0  0  0  0  0  0
   25.4250  -20.5579   -9.6549 C   0  0  0  0  0  0  0  0  0  0  0  0
   24.4136  -20.8704   -8.6162 C   0  0  0  0  0  0  0  0  0  0  0  0
   24.7733  -20.5585   -7.2615 N   0  0  0  0  0  0  0  0  0  0  0  0
   24.5417  -20.0911  -13.8313 C   0  0  0  0  0  0  0  0  0  0  0  0
   24.4863  -18.8345  -13.8233 O   0  0  0  0  0  0  0  0  0  0  0  0
   22.6521  -19.7062  -16.8915 C   0  0  0  0  0  0  0  0  0  0  0  0
   21.7054  -20.3933  -15.9271 C   0  0  1  0  0  0  0  0  0  0  0  0
   21.7157  -21.7534  -16.2065 O   0  0  0  0  0  0  0  0  0  0  0  0
   22.1108  -20.1556  -14.4831 C   0  0  2  0  0  0  0  0  0  0  0  0
   23.3760  -20.8260  -14.1885 N   0  0  0  0  0  0  0  0  0  0  0  0
   21.0368  -20.7201  -13.6267 C   0  0  0  0  0  0  0  0  0  0  0  0
   19.8671  -20.2485  -13.6028 O   0  0  0  0  0  0  0  0  0  0  0  0
   21.3001  -21.8013  -12.8168 O   0  0  0  0  0  0  0  0  0  0  0  0
  2  1  1  0
  2  3  1  0
  3  5  1  0
  3  4  1  6
  5  6  2  0
  7  8  1  0
  7  5  1  0
  8  9  1  1
 10  9  1  0
 11 10  1  0
 11 12  1  0
 13 12  1  0
 14 15  2  0
 14  8  1  0
 17 16  1  6
 17 19  1  0
 18 17  1  0
 19 21  1  0
 19 20  1  1
 20 14  1  0
 21 23  1  0
 22 21  2  0
M  END
$$$$
