SKT.pdb
     RDKit          3D

 23 22  0  0  1  0  0  0  0  0999 V2000
   16.7822   -8.6965  -19.9183 O   0  0  0  0  0  0  0  0  0  0  0  0
   17.6436   -8.8557  -18.8360 C   0  0  0  0  0  0  0  0  0  0  0  0
   18.9509   -9.4726  -19.3090 C   0  0  2  0  0  0  0  0  0  0  0  0
   18.6715  -10.8595  -19.6313 N   0  0  0  0  0  0  0  0  0  0  0  0
   19.9412   -9.3832  -18.1925 C   0  0  0  0  0  0  0  0  0  0  0  0
   19.4878   -9.1585  -17.0394 O   0  0  0  0  0  0  0  0  0  0  0  0
   21.3353   -9.5405  -18.3957 N   0  0  0  0  0  0  0  0  0  0  0  0
   22.2977   -9.4420  -17.3514 C   0  0  1  0  0  0  0  0  0  0  0  0
   23.5967  -10.1644  -17.6474 C   0  0  0  0  0  0  0  0  0  0  0  0
   24.5652  -10.1618  -16.5422 C   0  0  0  0  0  0  0  0  0  0  0  0
   25.8822  -10.7437  -16.9426 C   0  0  0  0  0  0  0  0  0  0  0  0
   26.9206  -10.8617  -15.8903 C   0  0  0  0  0  0  0  0  0  0  0  0
   28.2018  -11.3550  -16.3111 N   0  0  0  0  0  0  0  0  0  0  0  0
   22.5687   -8.0174  -16.9583 C   0  0  0  0  0  0  0  0  0  0  0  0
   23.2767   -7.2948  -17.7058 O   0  0  0  0  0  0  0  0  0  0  0  0
   19.8076   -5.6623  -15.4231 C   0  0  0  0  0  0  0  0  0  0  0  0
   21.1585   -5.1785  -15.9121 C   0  0  1  0  0  0  0  0  0  0  0  0
   21.3366   -3.8744  -15.4700 O   0  0  0  0  0  0  0  0  0  0  0  0
   22.2849   -6.0596  -15.4011 C   0  0  2  0  0  0  0  0  0  0  0  0
   22.0458   -7.4568  -15.7588 N   0  0  0  0  0  0  0  0  0  0  0  0
   22.3139   -5.9220  -13.9226 C   0  0  0  0  0  0  0  0  0  0  0  0
   21.9961   -6.8632  -13.1453 O   0  0  0  0  0  0  0  0  0  0  0  0
   22.6990   -4.7309  -13.3505 O   0  0  0  0  0  0  0  0  0  0  0  0
  2  1  1  0
  2  3  1  0
  3  5  1  0
  3  4  1  1
  5  6  2  0
  7  8  1  0
  7  5  1  0
  8  9  1  6
 10  9  1  0
 11 10  1  0
 11 12  1  0
 13 12  1  0
 14 15  2  0
 14  8  1  0
 17 16  1  1
 17 19  1  0
 18 17  1  0
 19 21  1  0
 19 20  1  1
 20 14  1  0
 21 23  1  0
 22 21  2  0
M  END
$$$$
