SKT.pdb
     RDKit          3D

 23 22  0  0  1  0  0  0  0  0999 V2000
   24.1116  -36.0014  -13.3116 O   0  0  0  0  0  0  0  0  0  0  0  0
   23.2902  -35.0039  -13.8300 C   0  0  0  0  0  0  0  0  0  0  0  0
   24.0145  -33.6675  -13.7803 C   0  0  2  0  0  0  0  0  0  0  0  0
   25.3888  -33.9166  -14.1737 N   0  0  0  0  0  0  0  0  0  0  0  0
   23.9557  -33.1554  -12.3769 C   0  0  0  0  0  0  0  0  0  0  0  0
   24.9611  -33.3623  -11.6475 O   0  0  0  0  0  0  0  0  0  0  0  0
   22.8292  -32.4640  -11.8644 N   0  0  0  0  0  0  0  0  0  0  0  0
   22.7210  -32.0312  -10.5125 C   0  0  1  0  0  0  0  0  0  0  0  0
   21.4529  -31.2549  -10.2190 C   0  0  0  0  0  0  0  0  0  0  0  0
   21.6711  -29.9047   -9.6817 C   0  0  0  0  0  0  0  0  0  0  0  0
   21.2639  -28.8389  -10.6470 C   0  0  0  0  0  0  0  0  0  0  0  0
   19.8402  -28.4238  -10.6395 C   0  0  0  0  0  0  0  0  0  0  0  0
   19.4323  -27.5256  -11.6829 N   0  0  0  0  0  0  0  0  0  0  0  0
   22.8797  -33.1629   -9.5370 C   0  0  0  0  0  0  0  0  0  0  0  0
   22.2305  -34.2257   -9.7137 O   0  0  0  0  0  0  0  0  0  0  0  0
   26.2258  -33.3742   -6.8965 C   0  0  0  0  0  0  0  0  0  0  0  0
   25.3997  -34.5514   -7.3762 C   0  0  1  0  0  0  0  0  0  0  0  0
   25.5642  -35.5920   -6.4718 O   0  0  0  0  0  0  0  0  0  0  0  0
   23.9292  -34.1903   -7.4922 C   0  0  2  0  0  0  0  0  0  0  0  0
   23.7473  -33.0689   -8.4124 N   0  0  0  0  0  0  0  0  0  0  0  0
   23.4639  -33.8023   -6.1362 C   0  0  0  0  0  0  0  0  0  0  0  0
   23.2171  -34.6483   -5.2337 O   0  0  0  0  0  0  0  0  0  0  0  0
   23.2864  -32.4736   -5.8242 O   0  0  0  0  0  0  0  0  0  0  0  0
  2  1  1  0
  2  3  1  0
  3  5  1  0
  3  4  1  1
  5  6  2  0
  7  8  1  0
  7  5  1  0
  8  9  1  6
 10  9  1  0
 11 10  1  0
 11 12  1  0
 13 12  1  0
 14 15  2  0
 14  8  1  0
 17 16  1  1
 17 19  1  0
 18 17  1  0
 19 21  1  0
 19 20  1  6
 20 14  1  0
 21 23  1  0
 22 21  2  0
M  END
$$$$
