SKT.pdb
     RDKit          3D

 23 22  0  0  1  0  0  0  0  0999 V2000
   26.4067  -12.2444  -15.8495 O   0  0  0  0  0  0  0  0  0  0  0  0
   25.5655  -11.1673  -16.1152 C   0  0  0  0  0  0  0  0  0  0  0  0
   24.1841  -11.6783  -16.4946 C   0  0  2  0  0  0  0  0  0  0  0  0
   24.2905  -12.2311  -17.8319 N   0  0  0  0  0  0  0  0  0  0  0  0
   23.2370  -10.5216  -16.4794 C   0  0  0  0  0  0  0  0  0  0  0  0
   23.2078   -9.7898  -17.5038 O   0  0  0  0  0  0  0  0  0  0  0  0
   22.3973  -10.2384  -15.3729 N   0  0  0  0  0  0  0  0  0  0  0  0
   21.3765   -9.2463  -15.3947 C   0  0  1  0  0  0  0  0  0  0  0  0
   20.0613   -9.7095  -14.8009 C   0  0  0  0  0  0  0  0  0  0  0  0
   19.3549  -10.7256  -15.5935 C   0  0  0  0  0  0  0  0  0  0  0  0
   18.0403  -11.1008  -14.9899 C   0  0  0  0  0  0  0  0  0  0  0  0
   17.2096  -12.0828  -15.7282 C   0  0  0  0  0  0  0  0  0  0  0  0
   15.9685  -12.4594  -15.1119 N   0  0  0  0  0  0  0  0  0  0  0  0
   21.8168   -7.9610  -14.7530 C   0  0  0  0  0  0  0  0  0  0  0  0
   22.2490   -7.9772  -13.5718 O   0  0  0  0  0  0  0  0  0  0  0  0
   24.2882   -5.1984  -16.1538 C   0  0  0  0  0  0  0  0  0  0  0  0
   22.9399   -4.6013  -15.8019 C   0  0  1  0  0  0  0  0  0  0  0  0
   22.2066   -4.4693  -16.9736 O   0  0  0  0  0  0  0  0  0  0  0  0
   22.1861   -5.4714  -14.8115 C   0  0  2  0  0  0  0  0  0  0  0  0
   21.7597   -6.7181  -15.4446 N   0  0  0  0  0  0  0  0  0  0  0  0
   20.9938   -4.7033  -14.3709 C   0  0  0  0  0  0  0  0  0  0  0  0
   19.8172   -5.0373  -14.6794 O   0  0  0  0  0  0  0  0  0  0  0  0
   21.1494   -3.5779  -13.5941 O   0  0  0  0  0  0  0  0  0  0  0  0
  2  1  1  0
  2  3  1  0
  3  5  1  0
  3  4  1  6
  5  6  2  0
  7  8  1  0
  7  5  1  0
  8  9  1  1
 10  9  1  0
 11 10  1  0
 11 12  1  0
 13 12  1  0
 14 15  2  0
 14  8  1  0
 17 16  1  6
 17 19  1  0
 18 17  1  0
 19 21  1  0
 19 20  1  6
 20 14  1  0
 21 23  1  0
 22 21  2  0
M  END
$$$$
