SKT.pdb
     RDKit          3D

 23 22  0  0  1  0  0  0  0  0999 V2000
   21.6535  -10.3917  -16.2965 O   0  0  0  0  0  0  0  0  0  0  0  0
   20.5756   -9.5766  -16.6319 C   0  0  0  0  0  0  0  0  0  0  0  0
   19.3432  -10.4335  -16.8777 C   0  0  2  0  0  0  0  0  0  0  0  0
   19.4239  -10.9068  -18.2469 N   0  0  0  0  0  0  0  0  0  0  0  0
   18.1326   -9.5766  -16.6898 C   0  0  0  0  0  0  0  0  0  0  0  0
   17.7214   -8.9356  -17.6927 O   0  0  0  0  0  0  0  0  0  0  0  0
   17.4580   -9.4722  -15.4474 N   0  0  0  0  0  0  0  0  0  0  0  0
   16.2303   -8.7722  -15.2762 C   0  0  1  0  0  0  0  0  0  0  0  0
   15.1737   -9.5642  -14.5324 C   0  0  0  0  0  0  0  0  0  0  0  0
   13.8488   -8.9299  -14.4898 C   0  0  0  0  0  0  0  0  0  0  0  0
   12.8571   -9.7422  -13.7217 C   0  0  0  0  0  0  0  0  0  0  0  0
   11.4910   -9.1840  -13.5739 C   0  0  0  0  0  0  0  0  0  0  0  0
   10.6219   -9.8605  -12.6526 N   0  0  0  0  0  0  0  0  0  0  0  0
   16.4252   -7.4277  -14.6343 C   0  0  0  0  0  0  0  0  0  0  0  0
   16.8734   -7.3631  -13.4608 O   0  0  0  0  0  0  0  0  0  0  0  0
   18.1953   -4.0819  -16.1539 C   0  0  0  0  0  0  0  0  0  0  0  0
   16.7516   -3.8884  -15.7337 C   0  0  1  0  0  0  0  0  0  0  0  0
   15.9534   -4.0025  -16.8641 O   0  0  0  0  0  0  0  0  0  0  0  0
   16.3312   -4.9126  -14.6942 C   0  0  2  0  0  0  0  0  0  0  0  0
   16.1164   -6.2175  -15.3173 N   0  0  0  0  0  0  0  0  0  0  0  0
   15.0608   -4.4325  -14.0933 C   0  0  0  0  0  0  0  0  0  0  0  0
   14.9940   -3.3905  -13.3855 O   0  0  0  0  0  0  0  0  0  0  0  0
   13.8943   -5.1329  -14.3005 O   0  0  0  0  0  0  0  0  0  0  0  0
  2  1  1  0
  2  3  1  0
  3  5  1  0
  3  4  1  6
  5  6  2  0
  7  8  1  0
  7  5  1  0
  8  9  1  1
 10  9  1  0
 11 10  1  0
 11 12  1  0
 13 12  1  0
 14 15  2  0
 14  8  1  0
 17 16  1  6
 17 19  1  0
 18 17  1  0
 19 21  1  0
 19 20  1  6
 20 14  1  0
 21 23  1  0
 22 21  2  0
M  END
$$$$
