SKT.pdb
     RDKit          3D

 23 22  0  0  1  0  0  0  0  0999 V2000
   14.1995   -8.1506  -10.9949 O   0  0  0  0  0  0  0  0  0  0  0  0
   15.5192   -8.0636  -11.4301 C   0  0  0  0  0  0  0  0  0  0  0  0
   15.9266   -9.3705  -12.0929 C   0  0  2  0  0  0  0  0  0  0  0  0
   16.0314  -10.3636  -11.0402 N   0  0  0  0  0  0  0  0  0  0  0  0
   17.2516   -9.1662  -12.7546 C   0  0  0  0  0  0  0  0  0  0  0  0
   18.2753   -9.2394  -12.0249 O   0  0  0  0  0  0  0  0  0  0  0  0
   17.3782   -8.9004  -14.1413 N   0  0  0  0  0  0  0  0  0  0  0  0
   18.6301   -8.8105  -14.8131 C   0  0  1  0  0  0  0  0  0  0  0  0
   18.6495   -9.4979  -16.1637 C   0  0  0  0  0  0  0  0  0  0  0  0
   18.7893  -10.9596  -16.1058 C   0  0  0  0  0  0  0  0  0  0  0  0
   18.6891  -11.5915  -17.4563 C   0  0  0  0  0  0  0  0  0  0  0  0
   18.7396  -13.0724  -17.5185 C   0  0  0  0  0  0  0  0  0  0  0  0
   18.5694  -13.6624  -18.8165 N   0  0  0  0  0  0  0  0  0  0  0  0
   19.1081   -7.3918  -14.9408 C   0  0  0  0  0  0  0  0  0  0  0  0
   18.3087   -6.5041  -15.3346 O   0  0  0  0  0  0  0  0  0  0  0  0
   20.5685   -4.9143  -12.3938 C   0  0  0  0  0  0  0  0  0  0  0  0
   21.5799   -5.1668  -13.4945 C   0  0  1  0  0  0  0  0  0  0  0  0
   22.4769   -6.1269  -13.0454 O   0  0  0  0  0  0  0  0  0  0  0  0
   20.9078   -5.6395  -14.7717 C   0  0  2  0  0  0  0  0  0  0  0  0
   20.4459   -7.0190  -14.6280 N   0  0  0  0  0  0  0  0  0  0  0  0
   21.9209   -5.5637  -15.8550 C   0  0  0  0  0  0  0  0  0  0  0  0
   22.3604   -6.5865  -16.4483 O   0  0  0  0  0  0  0  0  0  0  0  0
   22.4175   -4.3417  -16.2477 O   0  0  0  0  0  0  0  0  0  0  0  0
  2  1  1  0
  2  3  1  0
  3  5  1  0
  3  4  1  1
  5  6  2  0
  7  8  1  0
  7  5  1  0
  8  9  1  6
 10  9  1  0
 11 10  1  0
 11 12  1  0
 13 12  1  0
 14 15  2  0
 14  8  1  0
 17 16  1  1
 17 19  1  0
 18 17  1  0
 19 21  1  0
 19 20  1  1
 20 14  1  0
 21 23  1  0
 22 21  2  0
M  END
$$$$
