SKT.pdb
     RDKit          3D

 23 22  0  0  1  0  0  0  0  0999 V2000
   19.8868  -10.9153  -14.5014 O   0  0  0  0  0  0  0  0  0  0  0  0
   18.7532  -10.1500  -14.2410 C   0  0  0  0  0  0  0  0  0  0  0  0
   17.5674  -11.0653  -13.9776 C   0  0  2  0  0  0  0  0  0  0  0  0
   17.0764  -11.5035  -15.2708 N   0  0  0  0  0  0  0  0  0  0  0  0
   16.5195  -10.2779  -13.2584 C   0  0  0  0  0  0  0  0  0  0  0  0
   15.8912   -9.4142  -13.9255 O   0  0  0  0  0  0  0  0  0  0  0  0
   16.2260  -10.4751  -11.8856 N   0  0  0  0  0  0  0  0  0  0  0  0
   15.2690   -9.7033  -11.1679 C   0  0  1  0  0  0  0  0  0  0  0  0
   14.2263  -10.5366  -10.4500 C   0  0  0  0  0  0  0  0  0  0  0  0
   13.1736   -9.7589   -9.7819 C   0  0  0  0  0  0  0  0  0  0  0  0
   12.0731  -10.6260   -9.2621 C   0  0  0  0  0  0  0  0  0  0  0  0
   10.9939   -9.9637   -8.4899 C   0  0  0  0  0  0  0  0  0  0  0  0
    9.8373  -10.7626   -8.1964 N   0  0  0  0  0  0  0  0  0  0  0  0
   15.9144   -8.7376  -10.2147 C   0  0  0  0  0  0  0  0  0  0  0  0
   16.6891   -9.1734   -9.3247 O   0  0  0  0  0  0  0  0  0  0  0  0
   18.1818   -5.7159  -10.9201 C   0  0  0  0  0  0  0  0  0  0  0  0
   16.9618   -5.2568  -10.1462 C   0  0  1  0  0  0  0  0  0  0  0  0
   16.0494   -4.7297  -11.0505 O   0  0  0  0  0  0  0  0  0  0  0  0
   16.3279   -6.4007   -9.3744 C   0  0  2  0  0  0  0  0  0  0  0  0
   15.6747   -7.3363  -10.2882 N   0  0  0  0  0  0  0  0  0  0  0  0
   15.3170   -5.8080   -8.4620 C   0  0  0  0  0  0  0  0  0  0  0  0
   14.0788   -6.0071   -8.5970 O   0  0  0  0  0  0  0  0  0  0  0  0
   15.7192   -5.0053   -7.4187 O   0  0  0  0  0  0  0  0  0  0  0  0
  2  1  1  0
  2  3  1  0
  3  5  1  0
  3  4  1  6
  5  6  2  0
  7  8  1  0
  7  5  1  0
  8  9  1  1
 10  9  1  0
 11 10  1  0
 11 12  1  0
 13 12  1  0
 14 15  2  0
 14  8  1  0
 17 16  1  6
 17 19  1  0
 18 17  1  0
 19 21  1  0
 19 20  1  6
 20 14  1  0
 21 23  1  0
 22 21  2  0
M  END
$$$$
