SKT.pdb
     RDKit          3D

 23 22  0  0  1  0  0  0  0  0999 V2000
   23.0403  -14.0176  -16.8904 O   0  0  0  0  0  0  0  0  0  0  0  0
   22.8005  -12.6462  -16.8669 C   0  0  0  0  0  0  0  0  0  0  0  0
   21.4147  -12.3595  -17.4242 C   0  0  2  0  0  0  0  0  0  0  0  0
   21.4927  -12.5363  -18.8623 N   0  0  0  0  0  0  0  0  0  0  0  0
   21.0586  -10.9468  -17.0884 C   0  0  0  0  0  0  0  0  0  0  0  0
   21.4579  -10.0507  -17.8778 O   0  0  0  0  0  0  0  0  0  0  0  0
   20.3052  -10.6036  -15.9376 N   0  0  0  0  0  0  0  0  0  0  0  0
   19.7884   -9.2992  -15.6969 C   0  0  1  0  0  0  0  0  0  0  0  0
   18.4109   -9.2946  -15.0650 C   0  0  0  0  0  0  0  0  0  0  0  0
   17.3290   -9.7486  -15.9497 C   0  0  0  0  0  0  0  0  0  0  0  0
   16.0062   -9.7815  -15.2551 C   0  0  0  0  0  0  0  0  0  0  0  0
   14.8446  -10.2812  -16.0299 C   0  0  0  0  0  0  0  0  0  0  0  0
   13.5791  -10.2844  -15.3513 N   0  0  0  0  0  0  0  0  0  0  0  0
   20.7345   -8.4498  -14.8963 C   0  0  0  0  0  0  0  0  0  0  0  0
   21.1665   -8.8771  -13.7949 O   0  0  0  0  0  0  0  0  0  0  0  0
   24.0852   -6.9025  -16.1037 C   0  0  0  0  0  0  0  0  0  0  0  0
   23.1917   -5.8141  -15.5422 C   0  0  1  0  0  0  0  0  0  0  0  0
   22.5777   -5.1672  -16.6064 O   0  0  0  0  0  0  0  0  0  0  0  0
   22.1422   -6.3832  -14.6036 C   0  0  2  0  0  0  0  0  0  0  0  0
   21.1596   -7.1686  -15.3484 N   0  0  0  0  0  0  0  0  0  0  0  0
   21.4679   -5.2328  -13.9496 C   0  0  0  0  0  0  0  0  0  0  0  0
   20.2477   -4.9679  -14.1285 O   0  0  0  0  0  0  0  0  0  0  0  0
   22.1787   -4.4060  -13.1096 O   0  0  0  0  0  0  0  0  0  0  0  0
  2  1  1  0
  2  3  1  0
  3  5  1  0
  3  4  1  6
  5  6  2  0
  7  8  1  0
  7  5  1  0
  8  9  1  1
 10  9  1  0
 11 10  1  0
 11 12  1  0
 13 12  1  0
 14 15  2  0
 14  8  1  0
 17 16  1  6
 17 19  1  0
 18 17  1  0
 19 21  1  0
 19 20  1  6
 20 14  1  0
 21 23  1  0
 22 21  2  0
M  END
$$$$
