SKT.pdb
     RDKit          3D

 23 22  0  0  1  0  0  0  0  0999 V2000
   12.8187  -27.1963    1.5318 O   0  0  0  0  0  0  0  0  0  0  0  0
   13.7398  -26.3451    2.1365 C   0  0  0  0  0  0  0  0  0  0  0  0
   14.1063  -25.2233    1.1772 C   0  0  2  0  0  0  0  0  0  0  0  0
   14.7575  -25.8389    0.0359 N   0  0  0  0  0  0  0  0  0  0  0  0
   15.0456  -24.2957    1.8791 C   0  0  0  0  0  0  0  0  0  0  0  0
   16.2778  -24.5242    1.7554 O   0  0  0  0  0  0  0  0  0  0  0  0
   14.5951  -23.1992    2.6564 N   0  0  0  0  0  0  0  0  0  0  0  0
   15.4683  -22.2379    3.2395 C   0  0  1  0  0  0  0  0  0  0  0  0
   14.8889  -20.8385    3.2922 C   0  0  0  0  0  0  0  0  0  0  0  0
   15.8314  -19.8009    3.7335 C   0  0  0  0  0  0  0  0  0  0  0  0
   15.2532  -18.4273    3.6227 C   0  0  0  0  0  0  0  0  0  0  0  0
   16.1072  -17.2942    4.0545 C   0  0  0  0  0  0  0  0  0  0  0  0
   15.6031  -15.9769    3.7852 N   0  0  0  0  0  0  0  0  0  0  0  0
   15.9505  -22.6565    4.5997 C   0  0  0  0  0  0  0  0  0  0  0  0
   15.1112  -22.9700    5.4825 O   0  0  0  0  0  0  0  0  0  0  0  0
   18.1709  -25.5332    5.7570 C   0  0  0  0  0  0  0  0  0  0  0  0
   18.8183  -24.2212    6.1543 C   0  0  1  0  0  0  0  0  0  0  0  0
   19.7778  -23.9066    5.2012 O   0  0  0  0  0  0  0  0  0  0  0  0
   17.7962  -23.1023    6.2527 C   0  0  2  0  0  0  0  0  0  0  0  0
   17.3360  -22.7094    4.9219 N   0  0  0  0  0  0  0  0  0  0  0  0
   18.4674  -21.9507    6.9077 C   0  0  0  0  0  0  0  0  0  0  0  0
   18.7268  -20.8775    6.2978 O   0  0  0  0  0  0  0  0  0  0  0  0
   18.8321  -22.0302    8.2325 O   0  0  0  0  0  0  0  0  0  0  0  0
  2  1  1  0
  2  3  1  0
  3  5  1  0
  3  4  1  6
  5  6  2  0
  7  8  1  0
  7  5  1  0
  8  9  1  1
 10  9  1  0
 11 10  1  0
 11 12  1  0
 13 12  1  0
 14 15  2  0
 14  8  1  0
 17 16  1  6
 17 19  1  0
 18 17  1  0
 19 21  1  0
 19 20  1  6
 20 14  1  0
 21 23  1  0
 22 21  2  0
M  END
$$$$
