SKT.pdb
     RDKit          3D

 23 22  0  0  1  0  0  0  0  0999 V2000
   27.1288  -11.6976  -15.1688 O   0  0  0  0  0  0  0  0  0  0  0  0
   26.1586  -10.8623  -15.7160 C   0  0  0  0  0  0  0  0  0  0  0  0
   24.8903  -11.6579  -15.9836 C   0  0  2  0  0  0  0  0  0  0  0  0
   25.1321  -12.4508  -17.1746 N   0  0  0  0  0  0  0  0  0  0  0  0
   23.7724  -10.6924  -16.2148 C   0  0  0  0  0  0  0  0  0  0  0  0
   23.6444  -10.2301  -17.3791 O   0  0  0  0  0  0  0  0  0  0  0  0
   22.8811  -10.2977  -15.1855 N   0  0  0  0  0  0  0  0  0  0  0  0
   21.7645   -9.4408  -15.3989 C   0  0  1  0  0  0  0  0  0  0  0  0
   20.4320  -10.0767  -15.0565 C   0  0  0  0  0  0  0  0  0  0  0  0
   19.2587   -9.2521  -15.3773 C   0  0  0  0  0  0  0  0  0  0  0  0
   17.9825   -9.8828  -14.9226 C   0  0  0  0  0  0  0  0  0  0  0  0
   16.7233   -9.1573  -15.2185 C   0  0  0  0  0  0  0  0  0  0  0  0
   15.5325   -9.6680  -14.5998 N   0  0  0  0  0  0  0  0  0  0  0  0
   21.9131   -8.1236  -14.6914 C   0  0  0  0  0  0  0  0  0  0  0  0
   22.2095   -8.1095  -13.4691 O   0  0  0  0  0  0  0  0  0  0  0  0
   24.0405   -4.9600  -15.9056 C   0  0  0  0  0  0  0  0  0  0  0  0
   22.5921   -4.6069  -15.6306 C   0  0  1  0  0  0  0  0  0  0  0  0
   21.9146   -4.5865  -16.8425 O   0  0  0  0  0  0  0  0  0  0  0  0
   21.9436   -5.6063  -14.6887 C   0  0  2  0  0  0  0  0  0  0  0  0
   21.7276   -6.8837  -15.3658 N   0  0  0  0  0  0  0  0  0  0  0  0
   20.6369   -5.0350  -14.2742 C   0  0  0  0  0  0  0  0  0  0  0  0
   19.5340   -5.5556  -14.5961 O   0  0  0  0  0  0  0  0  0  0  0  0
   20.5981   -3.8924  -13.5079 O   0  0  0  0  0  0  0  0  0  0  0  0
  2  1  1  0
  2  3  1  0
  3  5  1  0
  3  4  1  6
  5  6  2  0
  7  8  1  0
  7  5  1  0
  8  9  1  1
 10  9  1  0
 11 10  1  0
 11 12  1  0
 13 12  1  0
 14 15  2  0
 14  8  1  0
 17 16  1  6
 17 19  1  0
 18 17  1  0
 19 21  1  0
 19 20  1  6
 20 14  1  0
 21 23  1  0
 22 21  2  0
M  END
$$$$
