SKT.pdb
     RDKit          3D

 23 22  0  0  1  0  0  0  0  0999 V2000
   22.6862  -14.4204  -18.4641 O   0  0  0  0  0  0  0  0  0  0  0  0
   22.1041  -15.6619  -18.2224 C   0  0  0  0  0  0  0  0  0  0  0  0
   23.0993  -16.5632  -17.5080 C   0  0  2  0  0  0  0  0  0  0  0  0
   24.0934  -16.9563  -18.4891 N   0  0  0  0  0  0  0  0  0  0  0  0
   22.3636  -17.7609  -16.9985 C   0  0  0  0  0  0  0  0  0  0  0  0
   21.8285  -18.5135  -17.8547 O   0  0  0  0  0  0  0  0  0  0  0  0
   22.2577  -18.0596  -15.6168 N   0  0  0  0  0  0  0  0  0  0  0  0
   21.5771  -19.2025  -15.1097 C   0  0  1  0  0  0  0  0  0  0  0  0
   22.2559  -19.8367  -13.9123 C   0  0  0  0  0  0  0  0  0  0  0  0
   23.3627  -20.7445  -14.2446 C   0  0  0  0  0  0  0  0  0  0  0  0
   24.0068  -21.3214  -13.0256 C   0  0  0  0  0  0  0  0  0  0  0  0
   25.0872  -22.3155  -13.2344 C   0  0  0  0  0  0  0  0  0  0  0  0
   25.7146  -22.8335  -12.0513 N   0  0  0  0  0  0  0  0  0  0  0  0
   20.1340  -18.9175  -14.8033 C   0  0  0  0  0  0  0  0  0  0  0  0
   19.8449  -18.0077  -13.9842 O   0  0  0  0  0  0  0  0  0  0  0  0
   17.1770  -17.9958  -17.1707 C   0  0  0  0  0  0  0  0  0  0  0  0
   16.8701  -19.2688  -16.4068 C   0  0  1  0  0  0  0  0  0  0  0  0
   17.1662  -20.3481  -17.2286 O   0  0  0  0  0  0  0  0  0  0  0  0
   17.6756  -19.3563  -15.1224 C   0  0  2  0  0  0  0  0  0  0  0  0
   19.0775  -19.6497  -15.4151 N   0  0  0  0  0  0  0  0  0  0  0  0
   17.0945  -20.4582  -14.3138 C   0  0  0  0  0  0  0  0  0  0  0  0
   17.7149  -21.5314  -14.0806 O   0  0  0  0  0  0  0  0  0  0  0  0
   15.8301  -20.3302  -13.7853 O   0  0  0  0  0  0  0  0  0  0  0  0
  2  1  1  0
  2  3  1  0
  3  5  1  0
  3  4  1  6
  5  6  2  0
  7  8  1  0
  7  5  1  0
  8  9  1  1
 10  9  1  0
 11 10  1  0
 11 12  1  0
 13 12  1  0
 14 15  2  0
 14  8  1  0
 17 16  1  6
 17 19  1  0
 18 17  1  0
 19 21  1  0
 19 20  1  6
 20 14  1  0
 21 23  1  0
 22 21  2  0
M  END
$$$$
