VFN.pdb
     RDKit          3D

 27 27  0  0  1  0  0  0  0  0999 V2000
    8.2713  -12.3858   19.2335 C   0  0  0  0  0  0  0  0  0  0  0  0
    7.7212  -13.7651   19.0205 C   0  0  1  0  0  0  0  0  0  0  0  0
    7.5842  -14.0831   17.5524 C   0  0  0  0  0  0  0  0  0  0  0  0
    8.5221  -14.7856   19.7669 C   0  0  2  0  0  0  0  0  0  0  0  0
    7.8212  -16.0498   19.6824 N   0  0  0  0  0  0  0  0  0  0  0  0
    8.7877  -14.4166   21.1661 C   0  0  0  0  0  0  0  0  0  0  0  0
    9.6857  -13.6107   21.5146 O   0  0  0  0  0  0  0  0  0  0  0  0
    7.9750  -15.0130   22.1730 N   0  0  0  0  0  0  0  0  0  0  0  0
    8.0860  -14.7659   23.5740 C   0  0  1  0  0  0  0  0  0  0  0  0
    6.7922  -14.3827   24.2690 C   0  0  0  0  0  0  0  0  0  0  0  0
    7.0149  -13.7412   25.5904 C   0  0  0  0  0  0  0  0  0  0  0  0
    7.5973  -14.3733   26.6685 C   0  0  0  0  0  0  0  0  0  0  0  0
    7.7740  -13.7325   27.8937 C   0  0  0  0  0  0  0  0  0  0  0  0
    7.3426  -12.4328   27.9912 C   0  0  0  0  0  0  0  0  0  0  0  0
    6.7591  -11.7839   26.9266 C   0  0  0  0  0  0  0  0  0  0  0  0
    6.5837  -12.4135   25.7177 C   0  0  0  0  0  0  0  0  0  0  0  0
    8.8818  -15.7635   24.3003 C   0  0  0  0  0  0  0  0  0  0  0  0
    8.7610  -15.8308   25.5729 O   0  0  0  0  0  0  0  0  0  0  0  0
    9.0176  -18.8170   22.4577 N   0  0  0  0  0  0  0  0  0  0  0  0
   10.4273  -19.1003   22.3741 C   0  0  0  0  0  0  0  0  0  0  0  0
   10.8074  -19.7763   21.3943 O   0  0  0  0  0  0  0  0  0  0  0  0
   11.2922  -18.5696   23.4473 C   0  0  0  0  0  0  0  0  0  0  0  0
   10.5683  -17.6464   24.4056 C   0  0  2  0  0  0  0  0  0  0  0  0
    9.7810  -16.6611   23.6718 N   0  0  0  0  0  0  0  0  0  0  0  0
   11.5043  -16.9641   25.3038 C   0  0  0  0  0  0  0  0  0  0  0  0
   11.7154  -15.6024   25.2415 O   0  0  0  0  0  0  0  0  0  0  0  0
   12.1450  -17.6151   26.1633 O   0  0  0  0  0  0  0  0  0  0  0  0
  2  1  1  6
  2  4  1  0
  3  2  1  0
  4  5  1  1
  6  7  2  0
  6  4  1  0
  8  6  1  0
  9  8  1  0
  9 17  1  0
  9 10  1  1
 11 12  2  0
 11 10  1  0
 13 12  1  0
 14 13  2  0
 15 14  1  0
 15 16  2  0
 16 11  1  0
 17 24  1  0
 18 17  2  0
 19 20  1  0
 20 22  1  0
 21 20  2  0
 23 22  1  6
 23 25  1  0
 24 23  1  0
 25 27  2  0
 25 26  1  0
M  END
$$$$
