VFN.pdb
     RDKit          3D

 27 27  0  0  1  0  0  0  0  0999 V2000
    7.7454  -18.5194   20.8512 C   0  0  0  0  0  0  0  0  0  0  0  0
    8.8664  -18.1272   19.9346 C   0  0  1  0  0  0  0  0  0  0  0  0
    8.6652  -18.6855   18.5479 C   0  0  0  0  0  0  0  0  0  0  0  0
    9.0755  -16.6452   19.9430 C   0  0  2  0  0  0  0  0  0  0  0  0
   10.2100  -16.3514   19.0925 N   0  0  0  0  0  0  0  0  0  0  0  0
    9.2612  -16.0848   21.2905 C   0  0  0  0  0  0  0  0  0  0  0  0
   10.2906  -16.2707   21.9854 O   0  0  0  0  0  0  0  0  0  0  0  0
    8.2080  -15.2890   21.8266 N   0  0  0  0  0  0  0  0  0  0  0  0
    8.1707  -14.7555   23.1496 C   0  0  1  0  0  0  0  0  0  0  0  0
    7.1732  -13.6324   23.3677 C   0  0  0  0  0  0  0  0  0  0  0  0
    7.0727  -13.2179   24.7908 C   0  0  0  0  0  0  0  0  0  0  0  0
    6.0805  -13.6387   25.6505 C   0  0  0  0  0  0  0  0  0  0  0  0
    6.0213  -13.2119   26.9761 C   0  0  0  0  0  0  0  0  0  0  0  0
    6.9985  -12.3465   27.4019 C   0  0  0  0  0  0  0  0  0  0  0  0
    7.9979  -11.9149   26.5595 C   0  0  0  0  0  0  0  0  0  0  0  0
    8.0583  -12.3342   25.2522 C   0  0  0  0  0  0  0  0  0  0  0  0
    8.1673  -15.7720   24.2091 C   0  0  0  0  0  0  0  0  0  0  0  0
    7.1284  -16.5076   24.3449 O   0  0  0  0  0  0  0  0  0  0  0  0
   11.2460  -18.4171   23.4317 N   0  0  0  0  0  0  0  0  0  0  0  0
   11.1470  -18.1636   24.8460 C   0  0  0  0  0  0  0  0  0  0  0  0
   12.1962  -17.8172   25.4296 O   0  0  0  0  0  0  0  0  0  0  0  0
    9.8222  -18.3346   25.4762 C   0  0  0  0  0  0  0  0  0  0  0  0
    9.2735  -17.0604   26.0845 C   0  0  2  0  0  0  0  0  0  0  0  0
    9.2524  -15.9880   25.0952 N   0  0  0  0  0  0  0  0  0  0  0  0
   10.0553  -16.6429   27.2519 C   0  0  0  0  0  0  0  0  0  0  0  0
   10.6528  -15.4018   27.3252 O   0  0  0  0  0  0  0  0  0  0  0  0
   10.2007  -17.4189   28.2265 O   0  0  0  0  0  0  0  0  0  0  0  0
  2  1  1  1
  2  4  1  0
  3  2  1  0
  4  5  1  6
  6  7  2  0
  6  4  1  0
  8  6  1  0
  9  8  1  0
  9 17  1  0
  9 10  1  6
 11 12  2  0
 11 10  1  0
 13 12  1  0
 14 13  2  0
 15 14  1  0
 15 16  2  0
 16 11  1  0
 17 24  1  0
 18 17  2  0
 19 20  1  0
 20 22  1  0
 21 20  2  0
 23 22  1  6
 23 25  1  0
 24 23  1  0
 25 27  2  0
 25 26  1  0
M  END
$$$$
