VFN.pdb
     RDKit          3D

 27 27  0  0  1  0  0  0  0  0999 V2000
    7.2327  -13.6416   18.4693 C   0  0  0  0  0  0  0  0  0  0  0  0
    7.9916  -13.4660   19.7514 C   0  0  1  0  0  0  0  0  0  0  0  0
    7.2752  -12.5295   20.6919 C   0  0  0  0  0  0  0  0  0  0  0  0
    8.3098  -14.7891   20.3745 C   0  0  2  0  0  0  0  0  0  0  0  0
    7.0650  -15.5066   20.5548 N   0  0  0  0  0  0  0  0  0  0  0  0
    9.0497  -14.6801   21.6414 C   0  0  0  0  0  0  0  0  0  0  0  0
   10.2377  -14.2806   21.7209 O   0  0  0  0  0  0  0  0  0  0  0  0
    8.3709  -15.0512   22.8378 N   0  0  0  0  0  0  0  0  0  0  0  0
    8.9592  -15.1001   24.1369 C   0  0  1  0  0  0  0  0  0  0  0  0
    8.0172  -14.7933   25.2869 C   0  0  0  0  0  0  0  0  0  0  0  0
    8.7137  -14.7084   26.5965 C   0  0  0  0  0  0  0  0  0  0  0  0
    9.0808  -15.8033   27.3495 C   0  0  0  0  0  0  0  0  0  0  0  0
    9.7225  -15.6723   28.5800 C   0  0  0  0  0  0  0  0  0  0  0  0
    9.9800  -14.3982   29.0220 C   0  0  0  0  0  0  0  0  0  0  0  0
    9.6220  -13.2921   28.2850 C   0  0  0  0  0  0  0  0  0  0  0  0
    8.9892  -13.4187   27.0717 C   0  0  0  0  0  0  0  0  0  0  0  0
    9.8200  -16.2676   24.3646 C   0  0  0  0  0  0  0  0  0  0  0  0
    9.2834  -17.4298   24.3659 O   0  0  0  0  0  0  0  0  0  0  0  0
   14.5163  -18.9775   22.9779 N   0  0  0  0  0  0  0  0  0  0  0  0
   14.4292  -18.1112   24.1252 C   0  0  0  0  0  0  0  0  0  0  0  0
   15.1819  -18.3752   25.0871 O   0  0  0  0  0  0  0  0  0  0  0  0
   13.4640  -16.9949   24.0626 C   0  0  0  0  0  0  0  0  0  0  0  0
   12.0945  -17.3493   24.6044 C   0  0  2  0  0  0  0  0  0  0  0  0
   11.2178  -16.1831   24.5844 N   0  0  0  0  0  0  0  0  0  0  0  0
   12.1780  -17.8838   25.9667 C   0  0  0  0  0  0  0  0  0  0  0  0
   12.2103  -17.0612   27.0735 O   0  0  0  0  0  0  0  0  0  0  0  0
   12.2232  -19.1224   26.1588 O   0  0  0  0  0  0  0  0  0  0  0  0
  2  1  1  6
  2  4  1  0
  3  2  1  0
  4  5  1  1
  6  7  2  0
  6  4  1  0
  8  6  1  0
  9  8  1  0
  9 17  1  0
  9 10  1  1
 11 12  2  0
 11 10  1  0
 13 12  1  0
 14 13  2  0
 15 14  1  0
 15 16  2  0
 16 11  1  0
 17 24  1  0
 18 17  2  0
 19 20  1  0
 20 22  1  0
 21 20  2  0
 23 22  1  1
 23 25  1  0
 24 23  1  0
 25 27  2  0
 25 26  1  0
M  END
$$$$
