VFN.pdb
     RDKit          3D

 27 27  0  0  1  0  0  0  0  0999 V2000
    8.0650  -12.4955   19.0505 C   0  0  0  0  0  0  0  0  0  0  0  0
    7.5395  -13.8937   18.9113 C   0  0  1  0  0  0  0  0  0  0  0  0
    7.3901  -14.2844   17.4621 C   0  0  0  0  0  0  0  0  0  0  0  0
    8.3698  -14.8617   19.6946 C   0  0  2  0  0  0  0  0  0  0  0  0
    7.6732  -16.1310   19.7143 N   0  0  0  0  0  0  0  0  0  0  0  0
    8.6790  -14.4030   21.0579 C   0  0  0  0  0  0  0  0  0  0  0  0
    9.5561  -13.5433   21.3203 O   0  0  0  0  0  0  0  0  0  0  0  0
    7.9362  -14.9728   22.1318 N   0  0  0  0  0  0  0  0  0  0  0  0
    8.0610  -14.6059   23.5051 C   0  0  1  0  0  0  0  0  0  0  0  0
    6.7506  -14.3937   24.2410 C   0  0  0  0  0  0  0  0  0  0  0  0
    6.9317  -13.7538   25.5695 C   0  0  0  0  0  0  0  0  0  0  0  0
    7.1689  -14.4485   26.7365 C   0  0  0  0  0  0  0  0  0  0  0  0
    7.3201  -13.8033   27.9628 C   0  0  0  0  0  0  0  0  0  0  0  0
    7.2234  -12.4338   27.9685 C   0  0  0  0  0  0  0  0  0  0  0  0
    6.9873  -11.7217   26.8143 C   0  0  0  0  0  0  0  0  0  0  0  0
    6.8380  -12.3556   25.6042 C   0  0  0  0  0  0  0  0  0  0  0  0
    9.0450  -15.3984   24.2532 C   0  0  0  0  0  0  0  0  0  0  0  0
    9.2292  -15.1307   25.4914 O   0  0  0  0  0  0  0  0  0  0  0  0
    8.9812  -19.6191   22.5491 N   0  0  0  0  0  0  0  0  0  0  0  0
    9.4943  -19.3007   23.8567 C   0  0  0  0  0  0  0  0  0  0  0  0
    8.7702  -19.5953   24.8316 O   0  0  0  0  0  0  0  0  0  0  0  0
   10.8225  -18.6584   23.9280 C   0  0  0  0  0  0  0  0  0  0  0  0
   10.7775  -17.2328   24.4382 C   0  0  2  0  0  0  0  0  0  0  0  0
    9.8072  -16.4482   23.6819 N   0  0  0  0  0  0  0  0  0  0  0  0
   12.0952  -16.5951   24.3662 C   0  0  0  0  0  0  0  0  0  0  0  0
   12.3391  -15.5124   23.5471 O   0  0  0  0  0  0  0  0  0  0  0  0
   13.0464  -17.0280   25.0597 O   0  0  0  0  0  0  0  0  0  0  0  0
  2  1  1  6
  2  4  1  0
  3  2  1  0
  4  5  1  1
  6  7  2  0
  6  4  1  0
  8  6  1  0
  9  8  1  0
  9 17  1  0
  9 10  1  1
 11 12  2  0
 11 10  1  0
 13 12  1  0
 14 13  2  0
 15 14  1  0
 15 16  2  0
 16 11  1  0
 17 24  1  0
 18 17  2  0
 19 20  1  0
 20 22  1  0
 21 20  2  0
 23 22  1  6
 23 25  1  0
 24 23  1  0
 25 27  2  0
 25 26  1  0
M  END
$$$$
