VFN.pdb
     RDKit          3D

 27 27  0  0  1  0  0  0  0  0999 V2000
    8.3333  -12.5477   18.8945 C   0  0  0  0  0  0  0  0  0  0  0  0
    7.8886  -13.9793   18.8378 C   0  0  1  0  0  0  0  0  0  0  0  0
    7.8598  -14.4916   17.4194 C   0  0  0  0  0  0  0  0  0  0  0  0
    8.7094  -14.8349   19.7512 C   0  0  2  0  0  0  0  0  0  0  0  0
    8.0684  -16.1300   19.8428 N   0  0  0  0  0  0  0  0  0  0  0  0
    8.9127  -14.2461   21.0841 C   0  0  0  0  0  0  0  0  0  0  0  0
    9.7661  -13.3581   21.3294 O   0  0  0  0  0  0  0  0  0  0  0  0
    8.0902  -14.7174   22.1477 N   0  0  0  0  0  0  0  0  0  0  0  0
    8.1896  -14.3051   23.5102 C   0  0  1  0  0  0  0  0  0  0  0  0
    6.8704  -14.2004   24.2536 C   0  0  0  0  0  0  0  0  0  0  0  0
    7.0051  -13.5411   25.5781 C   0  0  0  0  0  0  0  0  0  0  0  0
    7.3296  -14.2042   26.7425 C   0  0  0  0  0  0  0  0  0  0  0  0
    7.4323  -13.5430   27.9653 C   0  0  0  0  0  0  0  0  0  0  0  0
    7.1962  -12.1905   27.9702 C   0  0  0  0  0  0  0  0  0  0  0  0
    6.8714  -11.5100   26.8186 C   0  0  0  0  0  0  0  0  0  0  0  0
    6.7694  -12.1596   25.6119 C   0  0  0  0  0  0  0  0  0  0  0  0
    9.2507  -14.9805   24.2679 C   0  0  0  0  0  0  0  0  0  0  0  0
   10.1953  -14.2703   24.7597 O   0  0  0  0  0  0  0  0  0  0  0  0
   10.5589  -20.3456   27.1411 N   0  0  0  0  0  0  0  0  0  0  0  0
   10.8953  -19.0424   26.6283 C   0  0  0  0  0  0  0  0  0  0  0  0
   12.0285  -18.6009   26.9152 O   0  0  0  0  0  0  0  0  0  0  0  0
    9.8769  -18.3486   25.8139 C   0  0  0  0  0  0  0  0  0  0  0  0
   10.3642  -17.0423   25.2218 C   0  0  2  0  0  0  0  0  0  0  0  0
    9.2907  -16.3802   24.4879 N   0  0  0  0  0  0  0  0  0  0  0  0
   11.5148  -17.2497   24.3379 C   0  0  0  0  0  0  0  0  0  0  0  0
   12.8110  -17.2300   24.8093 O   0  0  0  0  0  0  0  0  0  0  0  0
   11.3428  -17.4528   23.1123 O   0  0  0  0  0  0  0  0  0  0  0  0
  2  1  1  6
  2  4  1  0
  3  2  1  0
  4  5  1  1
  6  7  2  0
  6  4  1  0
  8  6  1  0
  9  8  1  0
  9 17  1  0
  9 10  1  1
 11 12  2  0
 11 10  1  0
 13 12  1  0
 14 13  2  0
 15 14  1  0
 15 16  2  0
 16 11  1  0
 17 24  1  0
 18 17  2  0
 19 20  1  0
 20 22  1  0
 21 20  2  0
 23 22  1  6
 23 25  1  0
 24 23  1  0
 25 27  2  0
 25 26  1  0
M  END
$$$$
