VFN.pdb
     RDKit          3D

 27 27  0  0  1  0  0  0  0  0999 V2000
    6.8089  -15.2764   18.8646 C   0  0  0  0  0  0  0  0  0  0  0  0
    7.5213  -15.4356   20.1752 C   0  0  1  0  0  0  0  0  0  0  0  0
    8.8853  -16.0522   19.9895 C   0  0  0  0  0  0  0  0  0  0  0  0
    7.5624  -14.1419   20.9265 C   0  0  2  0  0  0  0  0  0  0  0  0
    8.2232  -13.1623   20.0896 N   0  0  0  0  0  0  0  0  0  0  0  0
    8.2147  -14.2455   22.2412 C   0  0  0  0  0  0  0  0  0  0  0  0
    9.3854  -13.8525   22.4697 O   0  0  0  0  0  0  0  0  0  0  0  0
    7.4672  -14.8256   23.3063 N   0  0  0  0  0  0  0  0  0  0  0  0
    7.9845  -15.1427   24.5979 C   0  0  1  0  0  0  0  0  0  0  0  0
    6.9904  -15.0314   25.7395 C   0  0  0  0  0  0  0  0  0  0  0  0
    6.7725  -13.6296   26.1805 C   0  0  0  0  0  0  0  0  0  0  0  0
    5.5349  -13.0271   26.2588 C   0  0  0  0  0  0  0  0  0  0  0  0
    5.3820  -11.7032   26.6672 C   0  0  0  0  0  0  0  0  0  0  0  0
    6.5217  -11.0106   26.9933 C   0  0  0  0  0  0  0  0  0  0  0  0
    7.7665  -11.5939   26.9221 C   0  0  0  0  0  0  0  0  0  0  0  0
    7.9197  -12.8990   26.5198 C   0  0  0  0  0  0  0  0  0  0  0  0
    8.8045  -16.3602   24.6360 C   0  0  0  0  0  0  0  0  0  0  0  0
    8.2379  -17.4844   24.4038 O   0  0  0  0  0  0  0  0  0  0  0  0
   11.6871  -17.4911   22.3608 N   0  0  0  0  0  0  0  0  0  0  0  0
   12.6317  -16.9853   23.3234 C   0  0  0  0  0  0  0  0  0  0  0  0
   13.5575  -16.2721   22.8810 O   0  0  0  0  0  0  0  0  0  0  0  0
   12.4228  -17.3526   24.7387 C   0  0  0  0  0  0  0  0  0  0  0  0
   10.9690  -17.5875   25.0936 C   0  0  2  0  0  0  0  0  0  0  0  0
   10.1940  -16.3640   24.9163 N   0  0  0  0  0  0  0  0  0  0  0  0
   10.8237  -18.0717   26.4694 C   0  0  0  0  0  0  0  0  0  0  0  0
   11.3733  -19.2665   26.8852 O   0  0  0  0  0  0  0  0  0  0  0  0
   10.1850  -17.3984   27.3130 O   0  0  0  0  0  0  0  0  0  0  0  0
  2  1  1  6
  2  4  1  0
  3  2  1  0
  4  5  1  6
  6  7  2  0
  6  4  1  0
  8  6  1  0
  9  8  1  0
  9 17  1  0
  9 10  1  1
 11 12  2  0
 11 10  1  0
 13 12  1  0
 14 13  2  0
 15 14  1  0
 15 16  2  0
 16 11  1  0
 17 24  1  0
 18 17  2  0
 19 20  1  0
 20 22  1  0
 21 20  2  0
 23 22  1  1
 23 25  1  0
 24 23  1  0
 25 27  2  0
 25 26  1  0
M  END
$$$$
