VFN.pdb
     RDKit          3D

 27 27  0  0  1  0  0  0  0  0999 V2000
    9.0376  -18.0559   20.0526 C   0  0  0  0  0  0  0  0  0  0  0  0
    9.5210  -17.0498   19.0504 C   0  0  1  0  0  0  0  0  0  0  0  0
    9.2021  -17.4798   17.6402 C   0  0  0  0  0  0  0  0  0  0  0  0
    9.0108  -15.6802   19.3729 C   0  0  2  0  0  0  0  0  0  0  0  0
    9.5542  -14.7613   18.3946 N   0  0  0  0  0  0  0  0  0  0  0  0
    9.3217  -15.2441   20.7432 C   0  0  0  0  0  0  0  0  0  0  0  0
   10.3669  -14.6214   21.0546 O   0  0  0  0  0  0  0  0  0  0  0  0
    8.3776  -15.5509   21.7650 N   0  0  0  0  0  0  0  0  0  0  0  0
    8.3594  -14.9731   23.0697 C   0  0  1  0  0  0  0  0  0  0  0  0
    7.2983  -13.9111   23.2935 C   0  0  0  0  0  0  0  0  0  0  0  0
    7.3120  -13.3635   24.6745 C   0  0  0  0  0  0  0  0  0  0  0  0
    6.3862  -13.6868   25.6436 C   0  0  0  0  0  0  0  0  0  0  0  0
    6.4336  -13.1368   26.9235 C   0  0  0  0  0  0  0  0  0  0  0  0
    7.4476  -12.2501   27.1894 C   0  0  0  0  0  0  0  0  0  0  0  0
    8.3818  -11.9145   26.2358 C   0  0  0  0  0  0  0  0  0  0  0  0
    8.3372  -12.4555   24.9733 C   0  0  0  0  0  0  0  0  0  0  0  0
    8.4686  -15.9484   24.1619 C   0  0  0  0  0  0  0  0  0  0  0  0
    7.4833  -16.7371   24.3757 O   0  0  0  0  0  0  0  0  0  0  0  0
   12.2083  -17.9372   23.3918 N   0  0  0  0  0  0  0  0  0  0  0  0
   11.1886  -18.4524   24.2689 C   0  0  0  0  0  0  0  0  0  0  0  0
   10.4446  -19.3423   23.8040 O   0  0  0  0  0  0  0  0  0  0  0  0
   11.1139  -17.8864   25.6311 C   0  0  0  0  0  0  0  0  0  0  0  0
    9.8051  -17.1810   25.9212 C   0  0  2  0  0  0  0  0  0  0  0  0
    9.6069  -16.0685   24.9980 N   0  0  0  0  0  0  0  0  0  0  0  0
    9.7523  -16.6944   27.3028 C   0  0  0  0  0  0  0  0  0  0  0  0
    9.5615  -15.3613   27.6011 O   0  0  0  0  0  0  0  0  0  0  0  0
    9.8821  -17.4938   28.2606 O   0  0  0  0  0  0  0  0  0  0  0  0
  2  1  1  1
  2  4  1  0
  3  2  1  0
  4  5  1  6
  6  7  2  0
  6  4  1  0
  8  6  1  0
  9  8  1  0
  9 17  1  0
  9 10  1  1
 11 12  2  0
 11 10  1  0
 13 12  1  0
 14 13  2  0
 15 14  1  0
 15 16  2  0
 16 11  1  0
 17 24  1  0
 18 17  2  0
 19 20  1  0
 20 22  1  0
 21 20  2  0
 23 22  1  6
 23 25  1  0
 24 23  1  0
 25 27  2  0
 25 26  1  0
M  END
$$$$
