VFN.pdb
     RDKit          3D

 27 27  0  0  1  0  0  0  0  0999 V2000
    8.5704  -18.5166   18.9802 C   0  0  0  0  0  0  0  0  0  0  0  0
    8.7419  -18.0576   20.3981 C   0  0  1  0  0  0  0  0  0  0  0  0
    9.4209  -19.1093   21.2394 C   0  0  0  0  0  0  0  0  0  0  0  0
    9.4305  -16.7300   20.4549 C   0  0  2  0  0  0  0  0  0  0  0  0
   10.7392  -16.8817   19.8539 N   0  0  0  0  0  0  0  0  0  0  0  0
    9.5299  -16.1764   21.8143 C   0  0  0  0  0  0  0  0  0  0  0  0
   10.4924  -16.4025   22.5888 O   0  0  0  0  0  0  0  0  0  0  0  0
    8.4698  -15.3389   22.2664 N   0  0  0  0  0  0  0  0  0  0  0  0
    8.3504  -14.7997   23.5822 C   0  0  1  0  0  0  0  0  0  0  0  0
    7.2554  -13.7639   23.7614 C   0  0  0  0  0  0  0  0  0  0  0  0
    7.2284  -13.1831   25.1285 C   0  0  0  0  0  0  0  0  0  0  0  0
    8.0693  -13.5706   26.1500 C   0  0  0  0  0  0  0  0  0  0  0  0
    7.9974  -13.0038   27.4215 C   0  0  0  0  0  0  0  0  0  0  0  0
    7.0477  -12.0333   27.6241 C   0  0  0  0  0  0  0  0  0  0  0  0
    6.1989  -11.6321   26.6174 C   0  0  0  0  0  0  0  0  0  0  0  0
    6.2678  -12.1894   25.3631 C   0  0  0  0  0  0  0  0  0  0  0  0
    8.4037  -15.8042   24.6519 C   0  0  0  0  0  0  0  0  0  0  0  0
    7.4947  -16.7048   24.6883 O   0  0  0  0  0  0  0  0  0  0  0  0
   10.4460  -20.1173   26.3329 N   0  0  0  0  0  0  0  0  0  0  0  0
   11.3316  -19.0719   25.8887 C   0  0  0  0  0  0  0  0  0  0  0  0
   12.5558  -19.2685   26.0444 O   0  0  0  0  0  0  0  0  0  0  0  0
   10.7174  -17.8682   25.2924 C   0  0  0  0  0  0  0  0  0  0  0  0
    9.8801  -17.0698   26.2703 C   0  0  2  0  0  0  0  0  0  0  0  0
    9.4077  -15.8354   25.6519 N   0  0  0  0  0  0  0  0  0  0  0  0
   10.6307  -16.7580   27.4900 C   0  0  0  0  0  0  0  0  0  0  0  0
   10.6976  -17.6366   28.5513 O   0  0  0  0  0  0  0  0  0  0  0  0
   11.2386  -15.6662   27.5972 O   0  0  0  0  0  0  0  0  0  0  0  0
  2  1  1  6
  2  4  1  0
  3  2  1  0
  4  5  1  1
  6  7  2  0
  6  4  1  0
  8  6  1  0
  9  8  1  0
  9 17  1  0
  9 10  1  6
 11 12  2  0
 11 10  1  0
 13 12  1  0
 14 13  2  0
 15 14  1  0
 15 16  2  0
 16 11  1  0
 17 24  1  0
 18 17  2  0
 19 20  1  0
 20 22  1  0
 21 20  2  0
 23 22  1  6
 23 25  1  0
 24 23  1  0
 25 27  2  0
 25 26  1  0
M  END
$$$$
