VFN.pdb
     RDKit          3D

 27 27  0  0  1  0  0  0  0  0999 V2000
    8.9692  -19.0223   19.1763 C   0  0  0  0  0  0  0  0  0  0  0  0
    9.2407  -18.1784   20.3865 C   0  0  1  0  0  0  0  0  0  0  0  0
   10.4731  -18.6466   21.1194 C   0  0  0  0  0  0  0  0  0  0  0  0
    9.2896  -16.7256   20.0303 C   0  0  2  0  0  0  0  0  0  0  0  0
   10.3684  -16.5360   19.0833 N   0  0  0  0  0  0  0  0  0  0  0  0
    9.4411  -15.8391   21.1945 C   0  0  0  0  0  0  0  0  0  0  0  0
   10.5453  -15.3843   21.5834 O   0  0  0  0  0  0  0  0  0  0  0  0
    8.2633  -15.4838   21.9129 N   0  0  0  0  0  0  0  0  0  0  0  0
    8.2272  -14.6678   23.0830 C   0  0  1  0  0  0  0  0  0  0  0  0
    6.8766  -14.0537   23.4036 C   0  0  0  0  0  0  0  0  0  0  0  0
    6.8885  -13.2548   24.6561 C   0  0  0  0  0  0  0  0  0  0  0  0
    6.2910  -13.6532   25.8330 C   0  0  0  0  0  0  0  0  0  0  0  0
    6.3186  -12.8621   26.9804 C   0  0  0  0  0  0  0  0  0  0  0  0
    6.9700  -11.6564   26.8970 C   0  0  0  0  0  0  0  0  0  0  0  0
    7.5731  -11.2407   25.7315 C   0  0  0  0  0  0  0  0  0  0  0  0
    7.5473  -12.0188   24.5991 C   0  0  0  0  0  0  0  0  0  0  0  0
    8.9096  -15.2508   24.2451 C   0  0  0  0  0  0  0  0  0  0  0  0
    9.0328  -14.5376   25.3010 O   0  0  0  0  0  0  0  0  0  0  0  0
   11.4188  -18.3595   27.5108 N   0  0  0  0  0  0  0  0  0  0  0  0
   10.3567  -19.1133   26.8958 C   0  0  0  0  0  0  0  0  0  0  0  0
   10.1187  -20.2425   27.3751 O   0  0  0  0  0  0  0  0  0  0  0  0
    9.6481  -18.4880   25.7607 C   0  0  0  0  0  0  0  0  0  0  0  0
   10.1708  -17.1110   25.4069 C   0  0  2  0  0  0  0  0  0  0  0  0
    9.4430  -16.5639   24.2666 N   0  0  0  0  0  0  0  0  0  0  0  0
   11.6060  -17.1413   25.1111 C   0  0  0  0  0  0  0  0  0  0  0  0
   12.4720  -16.1829   25.5949 O   0  0  0  0  0  0  0  0  0  0  0  0
   12.0861  -18.0552   24.3987 O   0  0  0  0  0  0  0  0  0  0  0  0
  2  1  1  6
  2  4  1  0
  3  2  1  0
  4  5  1  6
  6  7  2  0
  6  4  1  0
  8  6  1  0
  9  8  1  0
  9 17  1  0
  9 10  1  1
 11 12  2  0
 11 10  1  0
 13 12  1  0
 14 13  2  0
 15 14  1  0
 15 16  2  0
 16 11  1  0
 17 24  1  0
 18 17  2  0
 19 20  1  0
 20 22  1  0
 21 20  2  0
 23 22  1  6
 23 25  1  0
 24 23  1  0
 25 27  2  0
 25 26  1  0
M  END
$$$$
