VFN.pdb
     RDKit          3D

 27 27  0  0  1  0  0  0  0  0999 V2000
    7.4302  -18.4218   18.4443 C   0  0  0  0  0  0  0  0  0  0  0  0
    7.8670  -17.9256   19.7910 C   0  0  1  0  0  0  0  0  0  0  0  0
    8.6760  -18.9653   20.5255 C   0  0  0  0  0  0  0  0  0  0  0  0
    8.5715  -16.6100   19.6777 C   0  0  2  0  0  0  0  0  0  0  0  0
    9.7318  -16.7983   18.8321 N   0  0  0  0  0  0  0  0  0  0  0  0
    8.9477  -16.0303   20.9764 C   0  0  0  0  0  0  0  0  0  0  0  0
   10.0872  -16.1543   21.4896 O   0  0  0  0  0  0  0  0  0  0  0  0
    7.9562  -15.2894   21.6820 N   0  0  0  0  0  0  0  0  0  0  0  0
    8.1209  -14.7231   22.9814 C   0  0  1  0  0  0  0  0  0  0  0  0
    7.0775  -13.6943   23.3771 C   0  0  0  0  0  0  0  0  0  0  0  0
    7.2688  -13.1797   24.7577 C   0  0  0  0  0  0  0  0  0  0  0  0
    8.2813  -12.3211   25.1295 C   0  0  0  0  0  0  0  0  0  0  0  0
    8.4271  -11.8749   26.4420 C   0  0  0  0  0  0  0  0  0  0  0  0
    7.5153  -12.3259   27.3640 C   0  0  0  0  0  0  0  0  0  0  0  0
    6.4971  -13.1830   27.0130 C   0  0  0  0  0  0  0  0  0  0  0  0
    6.3513  -13.6243   25.7197 C   0  0  0  0  0  0  0  0  0  0  0  0
    8.4218  -15.7038   24.0320 C   0  0  0  0  0  0  0  0  0  0  0  0
    7.5399  -16.5889   24.3105 O   0  0  0  0  0  0  0  0  0  0  0  0
   13.2155  -18.2764   26.7043 N   0  0  0  0  0  0  0  0  0  0  0  0
   11.9295  -18.4249   26.0727 C   0  0  0  0  0  0  0  0  0  0  0  0
   11.3237  -19.4984   26.2772 O   0  0  0  0  0  0  0  0  0  0  0  0
   11.4449  -17.3017   25.2449 C   0  0  0  0  0  0  0  0  0  0  0  0
   10.0429  -16.8509   25.5996 C   0  0  2  0  0  0  0  0  0  0  0  0
    9.6378  -15.7282   24.7601 N   0  0  0  0  0  0  0  0  0  0  0  0
    9.9410  -16.4755   27.0127 C   0  0  0  0  0  0  0  0  0  0  0  0
    9.5716  -17.3820   27.9846 O   0  0  0  0  0  0  0  0  0  0  0  0
   10.1915  -15.3013   27.3753 O   0  0  0  0  0  0  0  0  0  0  0  0
  2  1  1  6
  2  4  1  0
  3  2  1  0
  4  5  1  6
  6  7  2  0
  6  4  1  0
  8  6  1  0
  9  8  1  0
  9 17  1  0
  9 10  1  1
 11 12  2  0
 11 10  1  0
 13 12  1  0
 14 13  2  0
 15 14  1  0
 15 16  2  0
 16 11  1  0
 17 24  1  0
 18 17  2  0
 19 20  1  0
 20 22  1  0
 21 20  2  0
 23 22  1  6
 23 25  1  0
 24 23  1  0
 25 27  2  0
 25 26  1  0
M  END
$$$$
