VFN.pdb
     RDKit          3D

 27 27  0  0  1  0  0  0  0  0999 V2000
    9.8401  -18.2874   21.1061 C   0  0  0  0  0  0  0  0  0  0  0  0
   10.6126  -17.1003   20.6116 C   0  0  1  0  0  0  0  0  0  0  0  0
   10.7172  -17.0990   19.1069 C   0  0  0  0  0  0  0  0  0  0  0  0
   10.0505  -15.8259   21.1591 C   0  0  2  0  0  0  0  0  0  0  0  0
   10.8951  -14.7385   20.7108 N   0  0  0  0  0  0  0  0  0  0  0  0
    9.9137  -15.8246   22.6239 C   0  0  0  0  0  0  0  0  0  0  0  0
   10.8779  -15.6642   23.4125 O   0  0  0  0  0  0  0  0  0  0  0  0
    8.6105  -16.0170   23.1665 N   0  0  0  0  0  0  0  0  0  0  0  0
    8.3090  -16.1583   24.5541 C   0  0  1  0  0  0  0  0  0  0  0  0
    6.9295  -15.6804   24.9696 C   0  0  0  0  0  0  0  0  0  0  0  0
    6.9062  -14.2441   25.3487 C   0  0  0  0  0  0  0  0  0  0  0  0
    6.9176  -13.2049   24.4427 C   0  0  0  0  0  0  0  0  0  0  0  0
    6.9071  -11.8713   24.8478 C   0  0  0  0  0  0  0  0  0  0  0  0
    6.8846  -11.6248   26.1982 C   0  0  0  0  0  0  0  0  0  0  0  0
    6.8725  -12.6481   27.1188 C   0  0  0  0  0  0  0  0  0  0  0  0
    6.8828  -13.9637   26.7219 C   0  0  0  0  0  0  0  0  0  0  0  0
    8.6880  -17.4575   25.1236 C   0  0  0  0  0  0  0  0  0  0  0  0
    8.6427  -18.4905   24.3689 O   0  0  0  0  0  0  0  0  0  0  0  0
   13.2962  -19.6193   25.1515 N   0  0  0  0  0  0  0  0  0  0  0  0
   11.8822  -19.3456   25.1665 C   0  0  0  0  0  0  0  0  0  0  0  0
   11.1494  -20.1400   24.5394 O   0  0  0  0  0  0  0  0  0  0  0  0
   11.4276  -18.1577   25.9175 C   0  0  0  0  0  0  0  0  0  0  0  0
   10.2625  -18.4382   26.8440 C   0  0  2  0  0  0  0  0  0  0  0  0
    9.1032  -17.6362   26.4670 N   0  0  0  0  0  0  0  0  0  0  0  0
   10.6136  -18.1757   28.2426 C   0  0  0  0  0  0  0  0  0  0  0  0
   11.1453  -19.1528   29.0582 O   0  0  0  0  0  0  0  0  0  0  0  0
   10.4347  -17.0369   28.7370 O   0  0  0  0  0  0  0  0  0  0  0  0
  2  1  1  6
  2  4  1  0
  3  2  1  0
  4  5  1  1
  6  7  2  0
  6  4  1  0
  8  6  1  0
  9  8  1  0
  9 17  1  0
  9 10  1  6
 11 12  2  0
 11 10  1  0
 13 12  1  0
 14 13  2  0
 15 14  1  0
 15 16  2  0
 16 11  1  0
 17 24  1  0
 18 17  2  0
 19 20  1  0
 20 22  1  0
 21 20  2  0
 23 22  1  6
 23 25  1  0
 24 23  1  0
 25 27  2  0
 25 26  1  0
M  END
$$$$
