VFN.pdb
     RDKit          3D

 27 27  0  0  1  0  0  0  0  0999 V2000
    9.3882  -19.7338   19.7091 C   0  0  0  0  0  0  0  0  0  0  0  0
    9.5859  -18.8150   20.8783 C   0  0  1  0  0  0  0  0  0  0  0  0
   10.7349  -19.2659   21.7453 C   0  0  0  0  0  0  0  0  0  0  0  0
    9.7155  -17.3930   20.4299 C   0  0  2  0  0  0  0  0  0  0  0  0
   10.8623  -17.3068   19.5500 N   0  0  0  0  0  0  0  0  0  0  0  0
    9.8231  -16.4335   21.5400 C   0  0  0  0  0  0  0  0  0  0  0  0
   10.9166  -16.0427   22.0181 O   0  0  0  0  0  0  0  0  0  0  0  0
    8.6130  -15.9266   22.0955 N   0  0  0  0  0  0  0  0  0  0  0  0
    8.5238  -15.0820   23.2423 C   0  0  1  0  0  0  0  0  0  0  0  0
    7.1135  -14.7522   23.6962 C   0  0  0  0  0  0  0  0  0  0  0  0
    7.0786  -13.7361   24.7795 C   0  0  0  0  0  0  0  0  0  0  0  0
    7.6564  -12.4878   24.6876 C   0  0  0  0  0  0  0  0  0  0  0  0
    7.6077  -11.5719   25.7373 C   0  0  0  0  0  0  0  0  0  0  0  0
    6.9555  -11.9610   26.8810 C   0  0  0  0  0  0  0  0  0  0  0  0
    6.3717  -13.2026   26.9925 C   0  0  0  0  0  0  0  0  0  0  0  0
    6.4185  -14.1073   25.9591 C   0  0  0  0  0  0  0  0  0  0  0  0
    9.4321  -15.4522   24.3349 C   0  0  0  0  0  0  0  0  0  0  0  0
   10.5572  -14.8481   24.4236 O   0  0  0  0  0  0  0  0  0  0  0  0
   12.2504  -16.0728   28.4437 N   0  0  0  0  0  0  0  0  0  0  0  0
   10.8777  -15.6507   28.5534 C   0  0  0  0  0  0  0  0  0  0  0  0
   10.4283  -15.4951   29.7089 O   0  0  0  0  0  0  0  0  0  0  0  0
   10.1287  -15.4405   27.2978 C   0  0  0  0  0  0  0  0  0  0  0  0
    9.9745  -16.6988   26.4686 C   0  0  2  0  0  0  0  0  0  0  0  0
    9.1349  -16.4445   25.3025 N   0  0  0  0  0  0  0  0  0  0  0  0
    9.4076  -17.7959   27.2581 C   0  0  0  0  0  0  0  0  0  0  0  0
    8.2321  -18.4225   26.8998 O   0  0  0  0  0  0  0  0  0  0  0  0
    9.9890  -18.1954   28.2952 O   0  0  0  0  0  0  0  0  0  0  0  0
  2  1  1  6
  2  4  1  0
  3  2  1  0
  4  5  1  6
  6  7  2  0
  6  4  1  0
  8  6  1  0
  9  8  1  0
  9 17  1  0
  9 10  1  1
 11 12  2  0
 11 10  1  0
 13 12  1  0
 14 13  2  0
 15 14  1  0
 15 16  2  0
 16 11  1  0
 17 24  1  0
 18 17  2  0
 19 20  1  0
 20 22  1  0
 21 20  2  0
 23 22  1  1
 23 25  1  0
 24 23  1  0
 25 27  2  0
 25 26  1  0
M  END
$$$$
