VFN.pdb
     RDKit          3D

 27 27  0  0  1  0  0  0  0  0999 V2000
    8.6441  -12.2301   20.5340 C   0  0  0  0  0  0  0  0  0  0  0  0
    7.5329  -13.2309   20.4146 C   0  0  1  0  0  0  0  0  0  0  0  0
    6.8677  -13.1569   19.0629 C   0  0  0  0  0  0  0  0  0  0  0  0
    8.0091  -14.6079   20.7567 C   0  0  2  0  0  0  0  0  0  0  0  0
    6.8758  -15.5049   20.6697 N   0  0  0  0  0  0  0  0  0  0  0  0
    8.6577  -14.6958   22.0743 C   0  0  0  0  0  0  0  0  0  0  0  0
    9.7608  -14.1593   22.3437 O   0  0  0  0  0  0  0  0  0  0  0  0
    7.9882  -15.4331   23.0930 N   0  0  0  0  0  0  0  0  0  0  0  0
    8.4682  -15.6213   24.4237 C   0  0  1  0  0  0  0  0  0  0  0  0
    7.4375  -15.4180   25.5192 C   0  0  0  0  0  0  0  0  0  0  0  0
    7.2601  -13.9895   25.8868 C   0  0  0  0  0  0  0  0  0  0  0  0
    6.0565  -13.3195   25.8274 C   0  0  0  0  0  0  0  0  0  0  0  0
    5.9423  -11.9736   26.1715 C   0  0  0  0  0  0  0  0  0  0  0  0
    7.0849  -11.3295   26.5771 C   0  0  0  0  0  0  0  0  0  0  0  0
    8.2960  -11.9805   26.6436 C   0  0  0  0  0  0  0  0  0  0  0  0
    8.4111  -13.3073   26.3048 C   0  0  0  0  0  0  0  0  0  0  0  0
    9.2998  -16.8184   24.6002 C   0  0  0  0  0  0  0  0  0  0  0  0
    8.7579  -17.9667   24.4380 O   0  0  0  0  0  0  0  0  0  0  0  0
   12.2197  -18.0953   22.4750 N   0  0  0  0  0  0  0  0  0  0  0  0
   13.2768  -17.7371   23.3853 C   0  0  0  0  0  0  0  0  0  0  0  0
   14.3966  -17.5038   22.8823 O   0  0  0  0  0  0  0  0  0  0  0  0
   12.9447  -17.6777   24.8233 C   0  0  0  0  0  0  0  0  0  0  0  0
   11.4892  -17.9749   25.1199 C   0  0  2  0  0  0  0  0  0  0  0  0
   10.6750  -16.7772   24.9417 N   0  0  0  0  0  0  0  0  0  0  0  0
   11.3138  -18.4963   26.4784 C   0  0  0  0  0  0  0  0  0  0  0  0
   10.7863  -17.7263   27.4941 O   0  0  0  0  0  0  0  0  0  0  0  0
   11.6459  -19.6745   26.7518 O   0  0  0  0  0  0  0  0  0  0  0  0
  2  1  1  6
  2  4  1  0
  3  2  1  0
  4  5  1  1
  6  7  2  0
  6  4  1  0
  8  6  1  0
  9  8  1  0
  9 17  1  0
  9 10  1  1
 11 12  2  0
 11 10  1  0
 13 12  1  0
 14 13  2  0
 15 14  1  0
 15 16  2  0
 16 11  1  0
 17 24  1  0
 18 17  2  0
 19 20  1  0
 20 22  1  0
 21 20  2  0
 23 22  1  1
 23 25  1  0
 24 23  1  0
 25 27  2  0
 25 26  1  0
M  END
$$$$
