FKN.pdb
     RDKit          3D

 29 29  0  0  1  0  0  0  0  0999 V2000
   27.7690  -21.3904   -9.0593 N   0  0  0  0  0  0  0  0  0  0  0  0
   26.6418  -20.5092   -8.8461 C   0  0  1  0  0  0  0  0  0  0  0  0
   27.0290  -19.2991   -8.0257 C   0  0  0  0  0  0  0  0  0  0  0  0
   27.5362  -19.6448   -6.6992 C   0  0  0  0  0  0  0  0  0  0  0  0
   28.7264  -19.0931   -6.2570 C   0  0  0  0  0  0  0  0  0  0  0  0
   29.1759  -19.4404   -5.0012 C   0  0  0  0  0  0  0  0  0  0  0  0
   28.4648  -20.3212   -4.1854 C   0  0  0  0  0  0  0  0  0  0  0  0
   27.2814  -20.8576   -4.6491 C   0  0  0  0  0  0  0  0  0  0  0  0
   26.8078  -20.5278   -5.9013 C   0  0  0  0  0  0  0  0  0  0  0  0
   26.1669  -20.0879  -10.2128 C   0  0  0  0  0  0  0  0  0  0  0  0
   26.6583  -19.0958  -10.8097 O   0  0  0  0  0  0  0  0  0  0  0  0
   25.1362  -20.8040  -10.8826 N   0  0  0  0  0  0  0  0  0  0  0  0
   24.8911  -20.7464  -12.3118 C   0  0  1  0  0  0  0  0  0  0  0  0
   26.1039  -21.2812  -13.0244 C   0  0  0  0  0  0  0  0  0  0  0  0
   25.9347  -21.1139  -14.5051 C   0  0  0  0  0  0  0  0  0  0  0  0
   27.1473  -21.6310  -15.2170 C   0  0  0  0  0  0  0  0  0  0  0  0
   26.9165  -21.3266  -16.7080 C   0  0  0  0  0  0  0  0  0  0  0  0
   28.0494  -21.8727  -17.4182 N   0  0  0  0  0  0  0  0  0  0  0  0
   23.7378  -21.6306  -12.6806 C   0  0  0  0  0  0  0  0  0  0  0  0
   23.6272  -22.6985  -12.0360 O   0  0  0  0  0  0  0  0  0  0  0  0
   19.0406  -22.0000  -11.3925 N   0  0  0  0  0  0  0  0  0  0  0  0
   19.6121  -20.8032  -11.9482 C   0  0  0  0  0  0  0  0  0  0  0  0
   18.8774  -19.8226  -12.1586 O   0  0  0  0  0  0  0  0  0  0  0  0
   21.0389  -20.7670  -12.2518 C   0  0  0  0  0  0  0  0  0  0  0  0
   21.4136  -21.5165  -13.4860 C   0  0  2  0  0  0  0  0  0  0  0  0
   22.8489  -21.2592  -13.6934 N   0  0  0  0  0  0  0  0  0  0  0  0
   20.7089  -21.1042  -14.7120 C   0  0  0  0  0  0  0  0  0  0  0  0
   20.9706  -20.0857  -15.3960 O   0  0  0  0  0  0  0  0  0  0  0  0
   19.6357  -21.8831  -15.2105 O   0  0  0  0  0  0  0  0  0  0  0  0
  2  1  1  6
  3  2  1  0
  3  4  1  0
  4  9  2  0
  4  5  1  0
  5  6  2  0
  6  7  1  0
  8  7  2  0
  9  8  1  0
 10 12  1  0
 10  2  1  0
 11 10  2  0
 13 14  1  6
 13 12  1  0
 14 15  1  0
 15 16  1  0
 16 17  1  0
 17 18  1  0
 19 13  1  0
 20 19  2  0
 21 22  1  0
 22 24  1  0
 22 23  2  0
 25 24  1  1
 25 27  1  0
 25 26  1  0
 26 19  1  0
 27 29  1  0
 28 27  2  0
M  END
$$$$
