FKN.pdb
     RDKit          3D

 29 29  0  0  1  0  0  0  0  0999 V2000
   28.4230  -18.7260  -13.3306 N   0  0  0  0  0  0  0  0  0  0  0  0
   27.6050  -19.8853  -13.6124 C   0  0  1  0  0  0  0  0  0  0  0  0
   27.4984  -20.7965  -12.4101 C   0  0  0  0  0  0  0  0  0  0  0  0
   28.7914  -21.3152  -11.9680 C   0  0  0  0  0  0  0  0  0  0  0  0
   29.6026  -21.9863  -12.8668 C   0  0  0  0  0  0  0  0  0  0  0  0
   30.8153  -22.4625  -12.4168 C   0  0  0  0  0  0  0  0  0  0  0  0
   31.2296  -22.2824  -11.0966 C   0  0  0  0  0  0  0  0  0  0  0  0
   30.4030  -21.6102  -10.2201 C   0  0  0  0  0  0  0  0  0  0  0  0
   29.1844  -21.1231  -10.6429 C   0  0  0  0  0  0  0  0  0  0  0  0
   26.2453  -19.3628  -13.9984 C   0  0  0  0  0  0  0  0  0  0  0  0
   25.5840  -18.6085  -13.2396 O   0  0  0  0  0  0  0  0  0  0  0  0
   25.6558  -19.7073  -15.2464 N   0  0  0  0  0  0  0  0  0  0  0  0
   24.4071  -19.1605  -15.7440 C   0  0  1  0  0  0  0  0  0  0  0  0
   24.4437  -19.1831  -17.2482 C   0  0  0  0  0  0  0  0  0  0  0  0
   25.0230  -17.8975  -17.7590 C   0  0  0  0  0  0  0  0  0  0  0  0
   25.0401  -17.9074  -19.2571 C   0  0  0  0  0  0  0  0  0  0  0  0
   25.6838  -16.5733  -19.6752 C   0  0  0  0  0  0  0  0  0  0  0  0
   25.7439  -16.5814  -21.1183 N   0  0  0  0  0  0  0  0  0  0  0  0
   23.2539  -20.0188  -15.3184 C   0  0  0  0  0  0  0  0  0  0  0  0
   23.4013  -21.2551  -15.4526 O   0  0  0  0  0  0  0  0  0  0  0  0
   20.2998  -22.5421  -12.8142 N   0  0  0  0  0  0  0  0  0  0  0  0
   20.5446  -21.3111  -12.1124 C   0  0  0  0  0  0  0  0  0  0  0  0
   20.4466  -21.2908  -10.8731 O   0  0  0  0  0  0  0  0  0  0  0  0
   20.9019  -20.1160  -12.8695 C   0  0  0  0  0  0  0  0  0  0  0  0
   21.0180  -20.3435  -14.3392 C   0  0  2  0  0  0  0  0  0  0  0  0
   22.0885  -19.4445  -14.8029 N   0  0  0  0  0  0  0  0  0  0  0  0
   19.8096  -20.0329  -15.1224 C   0  0  0  0  0  0  0  0  0  0  0  0
   18.7722  -20.7363  -15.1723 O   0  0  0  0  0  0  0  0  0  0  0  0
   19.7545  -18.8538  -15.9056 O   0  0  0  0  0  0  0  0  0  0  0  0
  2  1  1  1
  3  2  1  0
  3  4  1  0
  4  9  2  0
  4  5  1  0
  5  6  2  0
  6  7  1  0
  8  7  2  0
  9  8  1  0
 10 12  1  0
 10  2  1  0
 11 10  2  0
 13 14  1  6
 13 12  1  0
 14 15  1  0
 15 16  1  0
 16 17  1  0
 17 18  1  0
 19 13  1  0
 20 19  2  0
 21 22  1  0
 22 24  1  0
 22 23  2  0
 25 24  1  1
 25 27  1  0
 25 26  1  0
 26 19  1  0
 27 29  1  0
 28 27  2  0
M  END
$$$$
