FKN.pdb
     RDKit          3D

 29 29  0  0  1  0  0  0  0  0999 V2000
   24.1140  -20.1304  -16.4205 N   0  0  0  0  0  0  0  0  0  0  0  0
   23.0782  -19.5200  -15.6161 C   0  0  1  0  0  0  0  0  0  0  0  0
   21.8377  -19.2318  -16.4319 C   0  0  0  0  0  0  0  0  0  0  0  0
   22.0786  -18.2981  -17.5303 C   0  0  0  0  0  0  0  0  0  0  0  0
   22.2628  -16.9535  -17.2570 C   0  0  0  0  0  0  0  0  0  0  0  0
   22.4876  -16.1005  -18.3161 C   0  0  0  0  0  0  0  0  0  0  0  0
   22.5316  -16.5615  -19.6324 C   0  0  0  0  0  0  0  0  0  0  0  0
   22.3449  -17.9061  -19.8786 C   0  0  0  0  0  0  0  0  0  0  0  0
   22.1182  -18.7822  -18.8384 C   0  0  0  0  0  0  0  0  0  0  0  0
   22.7661  -20.4966  -14.5118 C   0  0  0  0  0  0  0  0  0  0  0  0
   22.6364  -21.7282  -14.7318 O   0  0  0  0  0  0  0  0  0  0  0  0
   22.6057  -20.0563  -13.1686 N   0  0  0  0  0  0  0  0  0  0  0  0
   22.3029  -20.9281  -12.0488 C   0  0  1  0  0  0  0  0  0  0  0  0
   22.8018  -20.2744  -10.7885 C   0  0  0  0  0  0  0  0  0  0  0  0
   24.2966  -20.3779  -10.7232 C   0  0  0  0  0  0  0  0  0  0  0  0
   24.7731  -21.4504  -11.6544 C   0  0  0  0  0  0  0  0  0  0  0  0
   26.2847  -21.5842  -11.3970 C   0  0  0  0  0  0  0  0  0  0  0  0
   26.7646  -22.6082  -12.2955 N   0  0  0  0  0  0  0  0  0  0  0  0
   20.8202  -21.0946  -11.9016 C   0  0  0  0  0  0  0  0  0  0  0  0
   20.4266  -21.6891  -10.8721 O   0  0  0  0  0  0  0  0  0  0  0  0
   15.7431  -21.0393  -12.7896 N   0  0  0  0  0  0  0  0  0  0  0  0
   16.3507  -19.9308  -13.4750 C   0  0  0  0  0  0  0  0  0  0  0  0
   15.6248  -19.1158  -14.0706 O   0  0  0  0  0  0  0  0  0  0  0  0
   17.8027  -19.7879  -13.4558 C   0  0  0  0  0  0  0  0  0  0  0  0
   18.5077  -20.8768  -12.7192 C   0  0  2  0  0  0  0  0  0  0  0  0
   19.9464  -20.6033  -12.8757 N   0  0  0  0  0  0  0  0  0  0  0  0
   18.2597  -22.2396  -13.2204 C   0  0  0  0  0  0  0  0  0  0  0  0
   18.9142  -22.8151  -14.1227 O   0  0  0  0  0  0  0  0  0  0  0  0
   17.2068  -23.0158  -12.6766 O   0  0  0  0  0  0  0  0  0  0  0  0
  2  1  1  6
  3  2  1  0
  3  4  1  0
  4  9  2  0
  4  5  1  0
  5  6  2  0
  6  7  1  0
  8  7  2  0
  9  8  1  0
 10 12  1  0
 10  2  1  0
 11 10  2  0
 13 14  1  1
 13 12  1  0
 14 15  1  0
 15 16  1  0
 16 17  1  0
 17 18  1  0
 19 13  1  0
 20 19  2  0
 21 22  1  0
 22 24  1  0
 22 23  2  0
 25 24  1  6
 25 27  1  0
 25 26  1  0
 26 19  1  0
 27 29  1  0
 28 27  2  0
M  END
$$$$
