FKN.pdb
     RDKit          3D

 29 29  0  0  1  0  0  0  0  0999 V2000
   41.5230   -6.7528   -8.4995 N   0  0  0  0  0  0  0  0  0  0  0  0
   42.7791   -7.1853   -9.0721 C   0  0  1  0  0  0  0  0  0  0  0  0
   43.9548   -6.7523   -8.2250 C   0  0  0  0  0  0  0  0  0  0  0  0
   44.1801   -5.3084   -8.2530 C   0  0  0  0  0  0  0  0  0  0  0  0
   44.2355   -4.6017   -7.0639 C   0  0  0  0  0  0  0  0  0  0  0  0
   44.4493   -3.2415   -7.1263 C   0  0  0  0  0  0  0  0  0  0  0  0
   44.6074   -2.5792   -8.3442 C   0  0  0  0  0  0  0  0  0  0  0  0
   44.5480   -3.3059   -9.5154 C   0  0  0  0  0  0  0  0  0  0  0  0
   44.3353   -4.6678   -9.4829 C   0  0  0  0  0  0  0  0  0  0  0  0
   42.7145   -8.6886   -9.1528 C   0  0  0  0  0  0  0  0  0  0  0  0
   42.1641   -9.3786   -8.2567 O   0  0  0  0  0  0  0  0  0  0  0  0
   43.2792   -9.3875  -10.2557 N   0  0  0  0  0  0  0  0  0  0  0  0
   43.2947  -10.8321  -10.3921 C   0  0  1  0  0  0  0  0  0  0  0  0
   43.0051  -11.1776  -11.8278 C   0  0  0  0  0  0  0  0  0  0  0  0
   43.0671  -12.6647  -12.0122 C   0  0  0  0  0  0  0  0  0  0  0  0
   42.7621  -13.0134  -13.4369 C   0  0  0  0  0  0  0  0  0  0  0  0
   42.8404  -14.5486  -13.5160 C   0  0  0  0  0  0  0  0  0  0  0  0
   42.6646  -14.8971  -14.9066 N   0  0  0  0  0  0  0  0  0  0  0  0
   44.6568  -11.3728  -10.0750 C   0  0  0  0  0  0  0  0  0  0  0  0
   45.6259  -10.7884  -10.6111 O   0  0  0  0  0  0  0  0  0  0  0  0
   48.5976  -13.8164   -7.9138 N   0  0  0  0  0  0  0  0  0  0  0  0
   47.4266  -14.0205   -7.1047 C   0  0  0  0  0  0  0  0  0  0  0  0
   47.5342  -14.6305   -6.0267 O   0  0  0  0  0  0  0  0  0  0  0  0
   46.1409  -13.5077   -7.5665 C   0  0  0  0  0  0  0  0  0  0  0  0
   46.1727  -12.9550   -8.9518 C   0  0  2  0  0  0  0  0  0  0  0  0
   44.8085  -12.4711   -9.2239 N   0  0  0  0  0  0  0  0  0  0  0  0
   46.5178  -13.9219  -10.0082 C   0  0  0  0  0  0  0  0  0  0  0  0
   45.7046  -14.6578  -10.6171 O   0  0  0  0  0  0  0  0  0  0  0  0
   47.8658  -14.0792  -10.4143 O   0  0  0  0  0  0  0  0  0  0  0  0
  2  1  1  1
  3  2  1  0
  3  4  1  0
  4  9  2  0
  4  5  1  0
  5  6  2  0
  6  7  1  0
  8  7  2  0
  9  8  1  0
 10 12  1  0
 10  2  1  0
 11 10  2  0
 13 14  1  6
 13 12  1  0
 14 15  1  0
 15 16  1  0
 16 17  1  0
 17 18  1  0
 19 13  1  0
 20 19  2  0
 21 22  1  0
 22 24  1  0
 22 23  2  0
 25 24  1  1
 25 27  1  0
 25 26  1  0
 26 19  1  0
 27 29  1  0
 28 27  2  0
M  END
$$$$
