FKN.pdb
     RDKit          3D

 29 29  0  0  1  0  0  0  0  0999 V2000
   25.7210  -12.1475  -18.4105 N   0  0  0  0  0  0  0  0  0  0  0  0
   25.3713  -11.8164  -17.0464 C   0  0  1  0  0  0  0  0  0  0  0  0
   26.4381  -10.9699  -16.3886 C   0  0  0  0  0  0  0  0  0  0  0  0
   27.7320  -11.6442  -16.3019 C   0  0  0  0  0  0  0  0  0  0  0  0
   27.8544  -12.7937  -15.5403 C   0  0  0  0  0  0  0  0  0  0  0  0
   29.0886  -13.4044  -15.4801 C   0  0  0  0  0  0  0  0  0  0  0  0
   30.1939  -12.8927  -16.1609 C   0  0  0  0  0  0  0  0  0  0  0  0
   30.0461  -11.7457  -16.9132 C   0  0  0  0  0  0  0  0  0  0  0  0
   28.8231  -11.1139  -16.9913 C   0  0  0  0  0  0  0  0  0  0  0  0
   24.0683  -11.0624  -17.1123 C   0  0  0  0  0  0  0  0  0  0  0  0
   23.8277  -10.2311  -18.0250 O   0  0  0  0  0  0  0  0  0  0  0  0
   23.0544  -11.2661  -16.1355 N   0  0  0  0  0  0  0  0  0  0  0  0
   21.7674  -10.5956  -16.1350 C   0  0  1  0  0  0  0  0  0  0  0  0
   20.7444  -11.5299  -15.5476 C   0  0  0  0  0  0  0  0  0  0  0  0
   19.3795  -10.9180  -15.6568 C   0  0  0  0  0  0  0  0  0  0  0  0
   18.3504  -11.8751  -15.1378 C   0  0  0  0  0  0  0  0  0  0  0  0
   16.9894  -11.2054  -15.3989 C   0  0  0  0  0  0  0  0  0  0  0  0
   15.9868  -12.0826  -14.8409 N   0  0  0  0  0  0  0  0  0  0  0  0
   21.8108   -9.3813  -15.2566 C   0  0  0  0  0  0  0  0  0  0  0  0
   22.6214   -9.4135  -14.3026 O   0  0  0  0  0  0  0  0  0  0  0  0
   21.5377   -4.6427  -13.4496 N   0  0  0  0  0  0  0  0  0  0  0  0
   22.4055   -5.0088  -14.5361 C   0  0  0  0  0  0  0  0  0  0  0  0
   23.2907   -4.2143  -14.8982 O   0  0  0  0  0  0  0  0  0  0  0  0
   22.2279   -6.3022  -15.1878 C   0  0  0  0  0  0  0  0  0  0  0  0
   21.0992   -7.1070  -14.6366 C   0  0  2  0  0  0  0  0  0  0  0  0
   20.9803   -8.2861  -15.5110 N   0  0  0  0  0  0  0  0  0  0  0  0
   19.7902   -6.4314  -14.6251 C   0  0  0  0  0  0  0  0  0  0  0  0
   18.8978   -6.5557  -15.4978 O   0  0  0  0  0  0  0  0  0  0  0  0
   19.4527   -5.5546  -13.5648 O   0  0  0  0  0  0  0  0  0  0  0  0
  2  1  1  6
  3  2  1  0
  3  4  1  0
  4  9  2  0
  4  5  1  0
  5  6  2  0
  6  7  1  0
  8  7  2  0
  9  8  1  0
 10 12  1  0
 10  2  1  0
 11 10  2  0
 13 14  1  1
 13 12  1  0
 14 15  1  0
 15 16  1  0
 16 17  1  0
 17 18  1  0
 19 13  1  0
 20 19  2  0
 21 22  1  0
 22 24  1  0
 22 23  2  0
 25 24  1  6
 25 27  1  0
 25 26  1  0
 26 19  1  0
 27 29  1  0
 28 27  2  0
M  END
$$$$
