FKN.pdb
     RDKit          3D

 29 29  0  0  1  0  0  0  0  0999 V2000
   26.8833  -18.4606   -7.9551 N   0  0  0  0  0  0  0  0  0  0  0  0
   27.2013  -19.7991   -8.4022 C   0  0  1  0  0  0  0  0  0  0  0  0
   27.0108  -20.8144   -7.2977 C   0  0  0  0  0  0  0  0  0  0  0  0
   27.9086  -20.6029   -6.1639 C   0  0  0  0  0  0  0  0  0  0  0  0
   29.2476  -20.9342   -6.2808 C   0  0  0  0  0  0  0  0  0  0  0  0
   30.0665  -20.7219   -5.1926 C   0  0  0  0  0  0  0  0  0  0  0  0
   29.5770  -20.1892   -3.9994 C   0  0  0  0  0  0  0  0  0  0  0  0
   28.2386  -19.8672   -3.9080 C   0  0  0  0  0  0  0  0  0  0  0  0
   27.3963  -20.0689   -4.9809 C   0  0  0  0  0  0  0  0  0  0  0  0
   26.2748  -20.0943   -9.5534 C   0  0  0  0  0  0  0  0  0  0  0  0
   25.0318  -19.9230   -9.4660 O   0  0  0  0  0  0  0  0  0  0  0  0
   26.7779  -20.5819  -10.7915 N   0  0  0  0  0  0  0  0  0  0  0  0
   26.2289  -20.2440  -12.0916 C   0  0  1  0  0  0  0  0  0  0  0  0
   27.2197  -20.6537  -13.1475 C   0  0  0  0  0  0  0  0  0  0  0  0
   26.6888  -20.2975  -14.5042 C   0  0  0  0  0  0  0  0  0  0  0  0
   27.7063  -20.6312  -15.5520 C   0  0  0  0  0  0  0  0  0  0  0  0
   27.1829  -20.0030  -16.8560 C   0  0  0  0  0  0  0  0  0  0  0  0
   28.2273  -20.1697  -17.8396 N   0  0  0  0  0  0  0  0  0  0  0  0
   24.9699  -21.0177  -12.3449 C   0  0  0  0  0  0  0  0  0  0  0  0
   25.0310  -22.2550  -12.1616 O   0  0  0  0  0  0  0  0  0  0  0  0
   19.5439  -21.4127  -10.7375 N   0  0  0  0  0  0  0  0  0  0  0  0
   20.5426  -21.7061  -11.7296 C   0  0  0  0  0  0  0  0  0  0  0  0
   20.4853  -22.7842  -12.3461 O   0  0  0  0  0  0  0  0  0  0  0  0
   21.5987  -20.7334  -11.9896 C   0  0  0  0  0  0  0  0  0  0  0  0
   22.6015  -21.1846  -12.9977 C   0  0  2  0  0  0  0  0  0  0  0  0
   23.8046  -20.3684  -12.7625 N   0  0  0  0  0  0  0  0  0  0  0  0
   22.2084  -20.9975  -14.4049 C   0  0  0  0  0  0  0  0  0  0  0  0
   22.5483  -20.0358  -15.1353 O   0  0  0  0  0  0  0  0  0  0  0  0
   21.3770  -21.9506  -15.0430 O   0  0  0  0  0  0  0  0  0  0  0  0
  2  1  1  1
  3  2  1  0
  3  4  1  0
  4  9  2  0
  4  5  1  0
  5  6  2  0
  6  7  1  0
  8  7  2  0
  9  8  1  0
 10 12  1  0
 10  2  1  0
 11 10  2  0
 13 14  1  6
 13 12  1  0
 14 15  1  0
 15 16  1  0
 16 17  1  0
 17 18  1  0
 19 13  1  0
 20 19  2  0
 21 22  1  0
 22 24  1  0
 22 23  2  0
 25 24  1  1
 25 27  1  0
 25 26  1  0
 26 19  1  0
 27 29  1  0
 28 27  2  0
M  END
$$$$
