FKN.pdb
     RDKit          3D

 29 29  0  0  1  0  0  0  0  0999 V2000
   26.8985  -18.3184   -8.0677 N   0  0  0  0  0  0  0  0  0  0  0  0
   27.0052  -19.7102   -8.4474 C   0  0  1  0  0  0  0  0  0  0  0  0
   26.6167  -20.6283   -7.3102 C   0  0  0  0  0  0  0  0  0  0  0  0
   27.5013  -20.5123   -6.1524 C   0  0  0  0  0  0  0  0  0  0  0  0
   26.9782  -20.1372   -4.9268 C   0  0  0  0  0  0  0  0  0  0  0  0
   27.8402  -20.0374   -3.8560 C   0  0  0  0  0  0  0  0  0  0  0  0
   29.2040  -20.3030   -3.9852 C   0  0  0  0  0  0  0  0  0  0  0  0
   29.7009  -20.6749   -5.2173 C   0  0  0  0  0  0  0  0  0  0  0  0
   28.8616  -20.7828   -6.3059 C   0  0  0  0  0  0  0  0  0  0  0  0
   26.0781  -19.9036   -9.6195 C   0  0  0  0  0  0  0  0  0  0  0  0
   24.8325  -19.7676   -9.5103 O   0  0  0  0  0  0  0  0  0  0  0  0
   26.5836  -20.2501  -10.9033 N   0  0  0  0  0  0  0  0  0  0  0  0
   26.0364  -19.7700  -12.1587 C   0  0  1  0  0  0  0  0  0  0  0  0
   27.1360  -19.7652  -13.1861 C   0  0  0  0  0  0  0  0  0  0  0  0
   26.6303  -19.1667  -14.4649 C   0  0  0  0  0  0  0  0  0  0  0  0
   27.7152  -19.1834  -15.4979 C   0  0  0  0  0  0  0  0  0  0  0  0
   27.1500  -18.4181  -16.7079 C   0  0  0  0  0  0  0  0  0  0  0  0
   28.1996  -18.3863  -17.6997 N   0  0  0  0  0  0  0  0  0  0  0  0
   24.9727  -20.7022  -12.6562 C   0  0  0  0  0  0  0  0  0  0  0  0
   25.1827  -21.9254  -12.4895 O   0  0  0  0  0  0  0  0  0  0  0  0
   20.8961  -20.0638  -10.9594 N   0  0  0  0  0  0  0  0  0  0  0  0
   21.1489  -21.0737  -11.9514 C   0  0  0  0  0  0  0  0  0  0  0  0
   21.0636  -22.2720  -11.6309 O   0  0  0  0  0  0  0  0  0  0  0  0
   21.4990  -20.6698  -13.3091 C   0  0  0  0  0  0  0  0  0  0  0  0
   22.8263  -21.1743  -13.7666 C   0  0  2  0  0  0  0  0  0  0  0  0
   23.8186  -20.2063  -13.2693 N   0  0  0  0  0  0  0  0  0  0  0  0
   22.9949  -21.2696  -15.2269 C   0  0  0  0  0  0  0  0  0  0  0  0
   23.7066  -20.5125  -15.9297 O   0  0  0  0  0  0  0  0  0  0  0  0
   22.3216  -22.2811  -15.9552 O   0  0  0  0  0  0  0  0  0  0  0  0
  2  1  1  1
  3  2  1  0
  3  4  1  0
  4  9  2  0
  4  5  1  0
  5  6  2  0
  6  7  1  0
  8  7  2  0
  9  8  1  0
 10 12  1  0
 10  2  1  0
 11 10  2  0
 13 14  1  6
 13 12  1  0
 14 15  1  0
 15 16  1  0
 16 17  1  0
 17 18  1  0
 19 13  1  0
 20 19  2  0
 21 22  1  0
 22 24  1  0
 22 23  2  0
 25 24  1  6
 25 27  1  0
 25 26  1  0
 26 19  1  0
 27 29  1  0
 28 27  2  0
M  END
$$$$
