FKN.pdb
     RDKit          3D

 29 29  0  0  1  0  0  0  0  0999 V2000
   23.6442  -21.0770  -10.3378 N   0  0  0  0  0  0  0  0  0  0  0  0
   24.5136  -20.0735  -10.9120 C   0  0  1  0  0  0  0  0  0  0  0  0
   25.9717  -20.4078  -10.6896 C   0  0  0  0  0  0  0  0  0  0  0  0
   26.4163  -20.1499   -9.3214 C   0  0  0  0  0  0  0  0  0  0  0  0
   26.6621  -21.2135   -8.4701 C   0  0  0  0  0  0  0  0  0  0  0  0
   27.0801  -20.9349   -7.1866 C   0  0  0  0  0  0  0  0  0  0  0  0
   27.2557  -19.6244   -6.7409 C   0  0  0  0  0  0  0  0  0  0  0  0
   27.0041  -18.5816   -7.6084 C   0  0  0  0  0  0  0  0  0  0  0  0
   26.5849  -18.8310   -8.8981 C   0  0  0  0  0  0  0  0  0  0  0  0
   24.2021  -20.0338  -12.3858 C   0  0  0  0  0  0  0  0  0  0  0  0
   23.5579  -20.9531  -12.9533 O   0  0  0  0  0  0  0  0  0  0  0  0
   24.6295  -18.9449  -13.1953 N   0  0  0  0  0  0  0  0  0  0  0  0
   24.1902  -18.7127  -14.5588 C   0  0  1  0  0  0  0  0  0  0  0  0
   24.4926  -17.2833  -14.9191 C   0  0  0  0  0  0  0  0  0  0  0  0
   24.0752  -17.0201  -16.3354 C   0  0  0  0  0  0  0  0  0  0  0  0
   24.3692  -15.5959  -16.6956 C   0  0  0  0  0  0  0  0  0  0  0  0
   23.9299  -15.4379  -18.1623 C   0  0  0  0  0  0  0  0  0  0  0  0
   24.2101  -14.0694  -18.5293 N   0  0  0  0  0  0  0  0  0  0  0  0
   24.9591  -19.5791  -15.5106 C   0  0  0  0  0  0  0  0  0  0  0  0
   24.7239  -19.4118  -16.7292 O   0  0  0  0  0  0  0  0  0  0  0  0
   29.2518  -21.3897  -13.3598 N   0  0  0  0  0  0  0  0  0  0  0  0
   28.7397  -21.1144  -14.6750 C   0  0  0  0  0  0  0  0  0  0  0  0
   29.1768  -20.1338  -15.3020 O   0  0  0  0  0  0  0  0  0  0  0  0
   27.7205  -21.9908  -15.2428 C   0  0  0  0  0  0  0  0  0  0  0  0
   26.6719  -21.2722  -16.0236 C   0  0  2  0  0  0  0  0  0  0  0  0
   25.8825  -20.5154  -15.0370 N   0  0  0  0  0  0  0  0  0  0  0  0
   25.7388  -22.1349  -16.7684 C   0  0  0  0  0  0  0  0  0  0  0  0
   24.6374  -22.5574  -16.3414 O   0  0  0  0  0  0  0  0  0  0  0  0
   26.0566  -22.5567  -18.0829 O   0  0  0  0  0  0  0  0  0  0  0  0
  2  1  1  1
  3  2  1  0
  3  4  1  0
  4  9  2  0
  4  5  1  0
  5  6  2  0
  6  7  1  0
  8  7  2  0
  9  8  1  0
 10 12  1  0
 10  2  1  0
 11 10  2  0
 13 14  1  6
 13 12  1  0
 14 15  1  0
 15 16  1  0
 16 17  1  0
 17 18  1  0
 19 13  1  0
 20 19  2  0
 21 22  1  0
 22 24  1  0
 22 23  2  0
 25 24  1  1
 25 27  1  0
 25 26  1  0
 26 19  1  0
 27 29  1  0
 28 27  2  0
M  END
$$$$
