FKN.pdb
     RDKit          3D

 29 29  0  0  1  0  0  0  0  0999 V2000
   24.1784  -27.5267  -20.3924 N   0  0  0  0  0  0  0  0  0  0  0  0
   23.8992  -27.7883  -18.9973 C   0  0  1  0  0  0  0  0  0  0  0  0
   22.4483  -27.5248  -18.6615 C   0  0  0  0  0  0  0  0  0  0  0  0
   22.0785  -26.1161  -18.7848 C   0  0  0  0  0  0  0  0  0  0  0  0
   21.5114  -25.6584  -19.9618 C   0  0  0  0  0  0  0  0  0  0  0  0
   21.1746  -24.3244  -20.0445 C   0  0  0  0  0  0  0  0  0  0  0  0
   21.3920  -23.4460  -18.9824 C   0  0  0  0  0  0  0  0  0  0  0  0
   21.9587  -23.9266  -17.8199 C   0  0  0  0  0  0  0  0  0  0  0  0
   22.3054  -25.2565  -17.7093 C   0  0  0  0  0  0  0  0  0  0  0  0
   24.2390  -29.2370  -18.7599 C   0  0  0  0  0  0  0  0  0  0  0  0
   24.1138  -30.1048  -19.6618 O   0  0  0  0  0  0  0  0  0  0  0  0
   24.7181  -29.6790  -17.4954 N   0  0  0  0  0  0  0  0  0  0  0  0
   25.0341  -31.0581  -17.1729 C   0  0  1  0  0  0  0  0  0  0  0  0
   26.4141  -31.1024  -16.5742 C   0  0  0  0  0  0  0  0  0  0  0  0
   27.4404  -30.9663  -17.6593 C   0  0  0  0  0  0  0  0  0  0  0  0
   28.8149  -30.9784  -17.0635 C   0  0  0  0  0  0  0  0  0  0  0  0
   29.7863  -30.9103  -18.2554 C   0  0  0  0  0  0  0  0  0  0  0  0
   31.1193  -30.9321  -17.6999 N   0  0  0  0  0  0  0  0  0  0  0  0
   24.0870  -31.5829  -16.1359 C   0  0  0  0  0  0  0  0  0  0  0  0
   24.1151  -31.0167  -15.0193 O   0  0  0  0  0  0  0  0  0  0  0  0
   20.3409  -33.9673  -13.6333 N   0  0  0  0  0  0  0  0  0  0  0  0
   19.9449  -33.2507  -14.8154 C   0  0  0  0  0  0  0  0  0  0  0  0
   18.7419  -32.9906  -14.9913 O   0  0  0  0  0  0  0  0  0  0  0  0
   20.9623  -32.8457  -15.7798 C   0  0  0  0  0  0  0  0  0  0  0  0
   22.3580  -33.1503  -15.3502 C   0  0  2  0  0  0  0  0  0  0  0  0
   23.2295  -32.6480  -16.4260 N   0  0  0  0  0  0  0  0  0  0  0  0
   22.6628  -34.5796  -15.1655 C   0  0  0  0  0  0  0  0  0  0  0  0
   22.5919  -35.2061  -14.0809 O   0  0  0  0  0  0  0  0  0  0  0  0
   23.0761  -35.3661  -16.2688 O   0  0  0  0  0  0  0  0  0  0  0  0
  2  1  1  6
  3  2  1  0
  3  4  1  0
  4  9  2  0
  4  5  1  0
  5  6  2  0
  6  7  1  0
  8  7  2  0
  9  8  1  0
 10 12  1  0
 10  2  1  0
 11 10  2  0
 13 14  1  1
 13 12  1  0
 14 15  1  0
 15 16  1  0
 16 17  1  0
 17 18  1  0
 19 13  1  0
 20 19  2  0
 21 22  1  0
 22 24  1  0
 22 23  2  0
 25 24  1  6
 25 27  1  0
 25 26  1  0
 26 19  1  0
 27 29  1  0
 28 27  2  0
M  END
$$$$
