FKN.pdb
     RDKit          3D

 29 29  0  0  1  0  0  0  0  0999 V2000
   18.6775   -8.5095  -13.3803 N   0  0  0  0  0  0  0  0  0  0  0  0
   18.8925   -8.1715  -11.9903 C   0  0  1  0  0  0  0  0  0  0  0  0
   20.1916   -7.4223  -11.7946 C   0  0  0  0  0  0  0  0  0  0  0  0
   21.3649   -8.1949  -12.1981 C   0  0  0  0  0  0  0  0  0  0  0  0
   21.7640   -9.2802  -11.4370 C   0  0  0  0  0  0  0  0  0  0  0  0
   22.8746   -9.9868  -11.8458 C   0  0  0  0  0  0  0  0  0  0  0  0
   23.5883   -9.6326  -12.9913 C   0  0  0  0  0  0  0  0  0  0  0  0
   23.1704   -8.5469  -13.7328 C   0  0  0  0  0  0  0  0  0  0  0  0
   22.0628   -7.8218  -13.3474 C   0  0  0  0  0  0  0  0  0  0  0  0
   17.7241   -7.3154  -11.5751 C   0  0  0  0  0  0  0  0  0  0  0  0
   17.1575   -6.5306  -12.3783 O   0  0  0  0  0  0  0  0  0  0  0  0
   17.2155   -7.3647  -10.2474 N   0  0  0  0  0  0  0  0  0  0  0  0
   16.0198   -6.6751   -9.7995 C   0  0  1  0  0  0  0  0  0  0  0  0
   15.2824   -7.5736   -8.8436 C   0  0  0  0  0  0  0  0  0  0  0  0
   14.2929   -8.4107   -9.5982 C   0  0  0  0  0  0  0  0  0  0  0  0
   13.4426   -9.1832   -8.6366 C   0  0  0  0  0  0  0  0  0  0  0  0
   12.4011   -9.9183   -9.4991 C   0  0  0  0  0  0  0  0  0  0  0  0
   11.5975  -10.7034   -8.5913 N   0  0  0  0  0  0  0  0  0  0  0  0
   16.3848   -5.4327   -9.0437 C   0  0  0  0  0  0  0  0  0  0  0  0
   17.1617   -5.5803   -8.0727 O   0  0  0  0  0  0  0  0  0  0  0  0
   18.4878   -0.7312   -7.9536 N   0  0  0  0  0  0  0  0  0  0  0  0
   17.5067   -0.9023   -8.9909 C   0  0  0  0  0  0  0  0  0  0  0  0
   16.9255    0.0983   -9.4457 O   0  0  0  0  0  0  0  0  0  0  0  0
   17.2163   -2.2441   -9.4852 C   0  0  0  0  0  0  0  0  0  0  0  0
   16.2586   -3.0080   -8.6339 C   0  0  2  0  0  0  0  0  0  0  0  0
   15.8713   -4.1894   -9.4235 N   0  0  0  0  0  0  0  0  0  0  0  0
   15.0227   -2.2907   -8.2764 C   0  0  0  0  0  0  0  0  0  0  0  0
   13.9211   -2.3968   -8.8671 O   0  0  0  0  0  0  0  0  0  0  0  0
   15.0148   -1.3908   -7.1824 O   0  0  0  0  0  0  0  0  0  0  0  0
  2  1  1  6
  3  2  1  0
  3  4  1  0
  4  9  2  0
  4  5  1  0
  5  6  2  0
  6  7  1  0
  8  7  2  0
  9  8  1  0
 10 12  1  0
 10  2  1  0
 11 10  2  0
 13 14  1  1
 13 12  1  0
 14 15  1  0
 15 16  1  0
 16 17  1  0
 17 18  1  0
 19 13  1  0
 20 19  2  0
 21 22  1  0
 22 24  1  0
 22 23  2  0
 25 24  1  6
 25 27  1  0
 25 26  1  0
 26 19  1  0
 27 29  1  0
 28 27  2  0
M  END
$$$$
