FKN.pdb
     RDKit          3D

 29 29  0  0  1  0  0  0  0  0999 V2000
   27.7626  -21.2370   -9.4450 N   0  0  0  0  0  0  0  0  0  0  0  0
   26.4943  -20.5518   -9.3250 C   0  0  1  0  0  0  0  0  0  0  0  0
   26.6079  -19.3195   -8.4555 C   0  0  0  0  0  0  0  0  0  0  0  0
   27.0751  -19.6142   -7.1023 C   0  0  0  0  0  0  0  0  0  0  0  0
   26.3450  -20.4729   -6.2985 C   0  0  0  0  0  0  0  0  0  0  0  0
   26.8139  -20.7291   -5.0280 C   0  0  0  0  0  0  0  0  0  0  0  0
   27.9888  -20.1484   -4.5490 C   0  0  0  0  0  0  0  0  0  0  0  0
   28.6984  -19.2960   -5.3694 C   0  0  0  0  0  0  0  0  0  0  0  0
   28.2528  -19.0217   -6.6451 C   0  0  0  0  0  0  0  0  0  0  0  0
   26.0819  -20.1721  -10.7237 C   0  0  0  0  0  0  0  0  0  0  0  0
   26.5723  -19.1750  -11.3129 O   0  0  0  0  0  0  0  0  0  0  0  0
   25.1140  -20.9352  -11.4341 N   0  0  0  0  0  0  0  0  0  0  0  0
   24.8501  -20.8089  -12.8555 C   0  0  1  0  0  0  0  0  0  0  0  0
   25.5021  -21.9648  -13.5650 C   0  0  0  0  0  0  0  0  0  0  0  0
   26.3169  -21.4562  -14.7168 C   0  0  0  0  0  0  0  0  0  0  0  0
   27.3568  -22.4680  -15.0898 C   0  0  0  0  0  0  0  0  0  0  0  0
   28.1200  -21.8614  -16.2809 C   0  0  0  0  0  0  0  0  0  0  0  0
   29.2050  -22.7676  -16.5772 N   0  0  0  0  0  0  0  0  0  0  0  0
   23.3780  -20.9006  -13.1243 C   0  0  0  0  0  0  0  0  0  0  0  0
   22.9979  -20.5506  -14.2650 O   0  0  0  0  0  0  0  0  0  0  0  0
   21.3267  -23.5277  -14.1237 N   0  0  0  0  0  0  0  0  0  0  0  0
   20.7453  -23.7680  -12.8307 C   0  0  0  0  0  0  0  0  0  0  0  0
   20.4405  -24.9300  -12.5103 O   0  0  0  0  0  0  0  0  0  0  0  0
   20.5266  -22.6445  -11.9257 C   0  0  0  0  0  0  0  0  0  0  0  0
   21.0566  -21.3462  -12.4345 C   0  0  2  0  0  0  0  0  0  0  0  0
   22.4990  -21.3555  -12.1372 N   0  0  0  0  0  0  0  0  0  0  0  0
   20.4837  -20.1426  -11.8076 C   0  0  0  0  0  0  0  0  0  0  0  0
   21.0876  -19.3705  -11.0248 O   0  0  0  0  0  0  0  0  0  0  0  0
   19.1417  -19.7741  -12.0723 O   0  0  0  0  0  0  0  0  0  0  0  0
  2  1  1  6
  3  2  1  0
  3  4  1  0
  4  9  2  0
  4  5  1  0
  5  6  2  0
  6  7  1  0
  8  7  2  0
  9  8  1  0
 10 12  1  0
 10  2  1  0
 11 10  2  0
 13 14  1  6
 13 12  1  0
 14 15  1  0
 15 16  1  0
 16 17  1  0
 17 18  1  0
 19 13  1  0
 20 19  2  0
 21 22  1  0
 22 24  1  0
 22 23  2  0
 25 24  1  1
 25 27  1  0
 25 26  1  0
 26 19  1  0
 27 29  1  0
 28 27  2  0
M  END
$$$$
