FKN.pdb
     RDKit          3D

 29 29  0  0  1  0  0  0  0  0999 V2000
   27.5943  -19.8037  -10.2761 N   0  0  0  0  0  0  0  0  0  0  0  0
   26.5385  -20.7581  -10.0175 C   0  0  1  0  0  0  0  0  0  0  0  0
   25.8701  -20.5007   -8.6855 C   0  0  0  0  0  0  0  0  0  0  0  0
   26.8196  -20.3906   -7.5798 C   0  0  0  0  0  0  0  0  0  0  0  0
   26.8005  -19.2672   -6.7711 C   0  0  0  0  0  0  0  0  0  0  0  0
   27.7095  -19.1955   -5.7375 C   0  0  0  0  0  0  0  0  0  0  0  0
   28.6299  -20.2166   -5.4984 C   0  0  0  0  0  0  0  0  0  0  0  0
   28.6289  -21.3260   -6.3186 C   0  0  0  0  0  0  0  0  0  0  0  0
   27.7307  -21.4244   -7.3601 C   0  0  0  0  0  0  0  0  0  0  0  0
   25.5459  -20.6093  -11.1414 C   0  0  0  0  0  0  0  0  0  0  0  0
   24.8729  -19.5583  -11.2980 O   0  0  0  0  0  0  0  0  0  0  0  0
   25.3327  -21.6621  -12.0741 N   0  0  0  0  0  0  0  0  0  0  0  0
   24.6241  -21.5145  -13.3318 C   0  0  1  0  0  0  0  0  0  0  0  0
   25.2771  -22.4061  -14.3533 C   0  0  0  0  0  0  0  0  0  0  0  0
   26.5615  -21.7865  -14.8175 C   0  0  0  0  0  0  0  0  0  0  0  0
   27.2463  -22.7014  -15.7862 C   0  0  0  0  0  0  0  0  0  0  0  0
   28.5371  -21.9747  -16.2044 C   0  0  0  0  0  0  0  0  0  0  0  0
   29.3179  -22.9271  -16.9590 N   0  0  0  0  0  0  0  0  0  0  0  0
   23.2042  -21.9743  -13.1891 C   0  0  0  0  0  0  0  0  0  0  0  0
   23.0284  -23.0588  -12.5882 O   0  0  0  0  0  0  0  0  0  0  0  0
   19.0118  -22.4747  -11.5556 N   0  0  0  0  0  0  0  0  0  0  0  0
   19.0482  -21.0824  -11.9135 C   0  0  0  0  0  0  0  0  0  0  0  0
   18.2683  -20.2927  -11.3534 O   0  0  0  0  0  0  0  0  0  0  0  0
   19.9982  -20.6291  -12.9241 C   0  0  0  0  0  0  0  0  0  0  0  0
   20.7813  -21.7309  -13.5552 C   0  0  2  0  0  0  0  0  0  0  0  0
   22.1521  -21.2144  -13.7083 N   0  0  0  0  0  0  0  0  0  0  0  0
   20.3159  -22.1515  -14.8880 C   0  0  0  0  0  0  0  0  0  0  0  0
   19.6798  -23.2030  -15.1400 O   0  0  0  0  0  0  0  0  0  0  0  0
   20.5788  -21.3418  -16.0203 O   0  0  0  0  0  0  0  0  0  0  0  0
  2  1  1  6
  3  2  1  0
  3  4  1  0
  4  9  2  0
  4  5  1  0
  5  6  2  0
  6  7  1  0
  8  7  2  0
  9  8  1  0
 10 12  1  0
 10  2  1  0
 11 10  2  0
 13 14  1  6
 13 12  1  0
 14 15  1  0
 15 16  1  0
 16 17  1  0
 17 18  1  0
 19 13  1  0
 20 19  2  0
 21 22  1  0
 22 24  1  0
 22 23  2  0
 25 24  1  6
 25 27  1  0
 25 26  1  0
 26 19  1  0
 27 29  1  0
 28 27  2  0
M  END
$$$$
