FKN.pdb
     RDKit          3D

 29 29  0  0  1  0  0  0  0  0999 V2000
   27.0329  -18.3304   -8.2332 N   0  0  0  0  0  0  0  0  0  0  0  0
   26.8857  -19.7511   -8.4625 C   0  0  1  0  0  0  0  0  0  0  0  0
   26.3574  -20.4607   -7.2359 C   0  0  0  0  0  0  0  0  0  0  0  0
   27.2790  -20.4087   -6.1026 C   0  0  0  0  0  0  0  0  0  0  0  0
   28.6271  -20.6486   -6.3058 C   0  0  0  0  0  0  0  0  0  0  0  0
   29.4684  -20.5917   -5.2154 C   0  0  0  0  0  0  0  0  0  0  0  0
   28.9922  -20.3021   -3.9362 C   0  0  0  0  0  0  0  0  0  0  0  0
   27.6443  -20.0669   -3.7597 C   0  0  0  0  0  0  0  0  0  0  0  0
   26.7797  -20.1172   -4.8326 C   0  0  0  0  0  0  0  0  0  0  0  0
   25.9219  -19.8989   -9.6114 C   0  0  0  0  0  0  0  0  0  0  0  0
   24.7678  -19.3999   -9.5782 O   0  0  0  0  0  0  0  0  0  0  0  0
   26.2865  -20.6149  -10.7854 N   0  0  0  0  0  0  0  0  0  0  0  0
   25.6923  -20.4061  -12.0928 C   0  0  1  0  0  0  0  0  0  0  0  0
   26.6649  -20.8803  -13.1386 C   0  0  0  0  0  0  0  0  0  0  0  0
   27.3427  -19.7009  -13.7701 C   0  0  0  0  0  0  0  0  0  0  0  0
   28.3436  -20.1710  -14.7810 C   0  0  0  0  0  0  0  0  0  0  0  0
   28.9918  -18.8960  -15.3495 C   0  0  0  0  0  0  0  0  0  0  0  0
   28.0518  -18.3461  -16.2983 N   0  0  0  0  0  0  0  0  0  0  0  0
   24.4495  -21.2318  -12.2402 C   0  0  0  0  0  0  0  0  0  0  0  0
   24.5534  -22.4481  -11.9611 O   0  0  0  0  0  0  0  0  0  0  0  0
   19.5626  -22.6814  -12.3529 N   0  0  0  0  0  0  0  0  0  0  0  0
   19.6303  -21.2565  -12.1721 C   0  0  0  0  0  0  0  0  0  0  0  0
   18.5911  -20.6306  -11.9000 O   0  0  0  0  0  0  0  0  0  0  0  0
   20.9150  -20.5789  -12.3120 C   0  0  0  0  0  0  0  0  0  0  0  0
   22.0402  -21.4863  -12.6806 C   0  0  2  0  0  0  0  0  0  0  0  0
   23.2527  -20.6502  -12.6683 N   0  0  0  0  0  0  0  0  0  0  0  0
   21.9417  -22.1024  -14.0150 C   0  0  0  0  0  0  0  0  0  0  0  0
   22.3415  -21.5880  -15.0870 O   0  0  0  0  0  0  0  0  0  0  0  0
   21.3553  -23.3833  -14.1644 O   0  0  0  0  0  0  0  0  0  0  0  0
  2  1  1  1
  3  2  1  0
  3  4  1  0
  4  9  2  0
  4  5  1  0
  5  6  2  0
  6  7  1  0
  8  7  2  0
  9  8  1  0
 10 12  1  0
 10  2  1  0
 11 10  2  0
 13 14  1  6
 13 12  1  0
 14 15  1  0
 15 16  1  0
 16 17  1  0
 17 18  1  0
 19 13  1  0
 20 19  2  0
 21 22  1  0
 22 24  1  0
 22 23  2  0
 25 24  1  6
 25 27  1  0
 25 26  1  0
 26 19  1  0
 27 29  1  0
 28 27  2  0
M  END
$$$$
