FKN.pdb
     RDKit          3D

 29 29  0  0  1  0  0  0  0  0999 V2000
   27.1905  -21.7875   -8.9346 N   0  0  0  0  0  0  0  0  0  0  0  0
   26.5408  -20.5337   -8.6208 C   0  0  1  0  0  0  0  0  0  0  0  0
   27.5312  -19.5017   -8.1295 C   0  0  0  0  0  0  0  0  0  0  0  0
   28.0427  -19.7902   -6.7911 C   0  0  0  0  0  0  0  0  0  0  0  0
   29.4050  -19.9429   -6.5978 C   0  0  0  0  0  0  0  0  0  0  0  0
   29.8536  -20.2145   -5.3231 C   0  0  0  0  0  0  0  0  0  0  0  0
   28.9742  -20.3355   -4.2465 C   0  0  0  0  0  0  0  0  0  0  0  0
   27.6210  -20.1790   -4.4651 C   0  0  0  0  0  0  0  0  0  0  0  0
   27.1442  -19.9068   -5.7299 C   0  0  0  0  0  0  0  0  0  0  0  0
   25.8816  -20.0662   -9.8926 C   0  0  0  0  0  0  0  0  0  0  0  0
   25.3003  -18.9535   -9.9689 O   0  0  0  0  0  0  0  0  0  0  0  0
   25.8935  -20.8745  -11.0633 N   0  0  0  0  0  0  0  0  0  0  0  0
   25.3162  -20.4850  -12.3364 C   0  0  1  0  0  0  0  0  0  0  0  0
   25.9866  -21.2784  -13.4253 C   0  0  0  0  0  0  0  0  0  0  0  0
   27.2899  -20.6330  -13.7915 C   0  0  0  0  0  0  0  0  0  0  0  0
   27.8889  -21.3319  -14.9735 C   0  0  0  0  0  0  0  0  0  0  0  0
   29.2128  -21.9367  -14.4730 C   0  0  0  0  0  0  0  0  0  0  0  0
   29.8084  -22.6116  -15.6026 N   0  0  0  0  0  0  0  0  0  0  0  0
   23.8572  -20.8281  -12.3758 C   0  0  0  0  0  0  0  0  0  0  0  0
   23.5331  -21.9366  -11.8917 O   0  0  0  0  0  0  0  0  0  0  0  0
   18.9898  -20.2233  -11.6858 N   0  0  0  0  0  0  0  0  0  0  0  0
   19.4577  -19.0124  -12.3042 C   0  0  0  0  0  0  0  0  0  0  0  0
   18.7439  -17.9953  -12.2607 O   0  0  0  0  0  0  0  0  0  0  0  0
   20.7572  -19.0050  -12.9677 C   0  0  0  0  0  0  0  0  0  0  0  0
   21.5017  -20.2927  -12.8536 C   0  0  2  0  0  0  0  0  0  0  0  0
   22.9298  -19.9406  -12.9290 N   0  0  0  0  0  0  0  0  0  0  0  0
   21.2313  -21.2734  -13.9189 C   0  0  0  0  0  0  0  0  0  0  0  0
   21.8222  -21.3312  -15.0240 O   0  0  0  0  0  0  0  0  0  0  0  0
   20.2306  -22.2599  -13.7391 O   0  0  0  0  0  0  0  0  0  0  0  0
  2  1  1  6
  3  2  1  0
  3  4  1  0
  4  9  2  0
  4  5  1  0
  5  6  2  0
  6  7  1  0
  8  7  2  0
  9  8  1  0
 10 12  1  0
 10  2  1  0
 11 10  2  0
 13 14  1  6
 13 12  1  0
 14 15  1  0
 15 16  1  0
 16 17  1  0
 17 18  1  0
 19 13  1  0
 20 19  2  0
 21 22  1  0
 22 24  1  0
 22 23  2  0
 25 24  1  6
 25 27  1  0
 25 26  1  0
 26 19  1  0
 27 29  1  0
 28 27  2  0
M  END
$$$$
