HSI.pdb
     RDKit          3D

 25 25  0  0  1  0  0  0  0  0999 V2000
    7.9127  -17.2600   19.2728 N   0  0  0  0  0  0  0  0  0  0  0  0
    8.2893  -16.2674   20.2347 C   0  0  1  0  0  0  0  0  0  0  0  0
    7.2962  -15.1086   20.0912 C   0  0  0  0  0  0  0  0  0  0  0  0
    7.6352  -14.4089   18.8246 C   0  0  0  0  0  0  0  0  0  0  0  0
    8.6657  -14.7036   17.9223 C   0  0  0  0  0  0  0  0  0  0  0  0
    8.6223  -13.8296   16.9117 N   0  0  0  0  0  0  0  0  0  0  0  0
    7.6069  -12.9867   17.1286 C   0  0  0  0  0  0  0  0  0  0  0  0
    7.0151  -13.3446   18.2883 N   0  0  0  0  0  0  0  0  0  0  0  0
    8.2748  -16.7966   21.6249 C   0  0  0  0  0  0  0  0  0  0  0  0
    7.6150  -17.8308   21.9011 O   0  0  0  0  0  0  0  0  0  0  0  0
   10.8640  -18.0743   23.6341 O   0  0  0  0  0  0  0  0  0  0  0  0
    9.5014  -18.1637   23.9360 C   0  0  0  0  0  0  0  0  0  0  0  0
    8.9678  -16.7539   23.9960 C   0  0  2  0  0  0  0  0  0  0  0  0
    8.9871  -16.1766   22.6838 N   0  0  0  0  0  0  0  0  0  0  0  0
    9.6821  -15.9240   24.9954 C   0  0  0  0  0  0  0  0  0  0  0  0
   10.7518  -15.3828   24.6146 O   0  0  0  0  0  0  0  0  0  0  0  0
    6.8290  -11.7318   26.3830 C   0  0  0  0  0  0  0  0  0  0  0  0
    8.1307  -12.4518   26.3315 C   0  0  0  0  0  0  0  0  0  0  0  0
    8.2600  -13.6663   27.1796 C   0  0  2  0  0  0  0  0  0  0  0  0
    7.7244  -13.4504   28.5807 C   0  0  0  0  0  0  0  0  0  0  0  0
    9.4955  -14.4610   27.0689 C   0  0  2  0  0  0  0  0  0  0  0  0
    9.2555  -15.7068   26.3059 N   0  0  0  0  0  0  0  0  0  0  0  0
   10.2677  -14.7364   28.2752 C   0  0  0  0  0  0  0  0  0  0  0  0
   10.7190  -13.8662   29.0562 O   0  0  0  0  0  0  0  0  0  0  0  0
   10.5814  -16.0611   28.6760 O   0  0  0  0  0  0  0  0  0  0  0  0
  2  3  1  0
  2  1  1  6
  4  8  1  0
  4  3  1  0
  5  4  2  0
  6  5  1  0
  6  7  1  0
  7  8  2  0
  9  2  1  0
 10  9  2  0
 11 12  1  0
 13 12  1  6
 13 14  1  0
 14  9  1  0
 15 13  1  0
 15 22  1  0
 16 15  2  0
 18 17  1  0
 19 18  1  0
 19 20  1  1
 21 22  1  1
 21 23  1  0
 21 19  1  0
 23 25  1  0
 24 23  2  0
M  END
$$$$
