HSI.pdb
     RDKit          3D

 25 25  0  0  1  0  0  0  0  0999 V2000
    9.5609  -17.3724   17.9724 N   0  0  0  0  0  0  0  0  0  0  0  0
   10.0676  -16.7713   19.1701 C   0  0  1  0  0  0  0  0  0  0  0  0
   10.5887  -15.3821   18.7852 C   0  0  0  0  0  0  0  0  0  0  0  0
    9.4034  -14.5714   18.4024 C   0  0  0  0  0  0  0  0  0  0  0  0
    8.8171  -14.4401   17.1368 C   0  0  0  0  0  0  0  0  0  0  0  0
    7.7687  -13.6156   17.2263 N   0  0  0  0  0  0  0  0  0  0  0  0
    7.6585  -13.2128   18.4968 C   0  0  0  0  0  0  0  0  0  0  0  0
    8.6517  -13.7960   19.2014 N   0  0  0  0  0  0  0  0  0  0  0  0
    9.0281  -16.6628   20.2287 C   0  0  0  0  0  0  0  0  0  0  0  0
    7.8425  -17.0058   19.9885 O   0  0  0  0  0  0  0  0  0  0  0  0
    9.0122  -18.3347   23.3639 O   0  0  0  0  0  0  0  0  0  0  0  0
    7.9192  -17.6902   22.7759 C   0  0  0  0  0  0  0  0  0  0  0  0
    8.3178  -16.2514   22.5590 C   0  0  2  0  0  0  0  0  0  0  0  0
    9.3147  -16.1787   21.5313 N   0  0  0  0  0  0  0  0  0  0  0  0
    8.7440  -15.5901   23.8156 C   0  0  0  0  0  0  0  0  0  0  0  0
    9.9825  -15.5290   24.0260 O   0  0  0  0  0  0  0  0  0  0  0  0
    6.6587  -11.0642   27.4537 C   0  0  0  0  0  0  0  0  0  0  0  0
    7.6511  -12.1524   27.2384 C   0  0  0  0  0  0  0  0  0  0  0  0
    7.3020  -13.1897   26.2318 C   0  0  2  0  0  0  0  0  0  0  0  0
    5.8754  -13.6792   26.3799 C   0  0  0  0  0  0  0  0  0  0  0  0
    8.3126  -14.2125   25.9110 C   0  0  2  0  0  0  0  0  0  0  0  0
    7.8794  -15.0411   24.7631 N   0  0  0  0  0  0  0  0  0  0  0  0
    8.8328  -15.0514   26.9846 C   0  0  0  0  0  0  0  0  0  0  0  0
    8.5565  -16.2626   27.1511 O   0  0  0  0  0  0  0  0  0  0  0  0
    9.7269  -14.5446   27.9632 O   0  0  0  0  0  0  0  0  0  0  0  0
  2  3  1  0
  2  1  1  6
  4  8  1  0
  4  3  1  0
  5  4  2  0
  6  5  1  0
  6  7  1  0
  7  8  2  0
  9  2  1  0
 10  9  2  0
 11 12  1  0
 13 12  1  1
 13 14  1  0
 14  9  1  0
 15 13  1  0
 15 22  1  0
 16 15  2  0
 18 17  1  0
 19 18  1  0
 19 20  1  1
 21 22  1  6
 21 23  1  0
 21 19  1  0
 23 25  1  0
 24 23  2  0
M  END
$$$$
