HSI.pdb
     RDKit          3D

 25 25  0  0  1  0  0  0  0  0999 V2000
   10.6510  -16.4212   18.4939 N   0  0  0  0  0  0  0  0  0  0  0  0
   11.0523  -15.9987   19.8027 C   0  0  1  0  0  0  0  0  0  0  0  0
   11.5430  -14.5523   19.6729 C   0  0  0  0  0  0  0  0  0  0  0  0
   12.9438  -14.6183   19.1807 C   0  0  0  0  0  0  0  0  0  0  0  0
   14.0720  -15.1165   19.8454 C   0  0  0  0  0  0  0  0  0  0  0  0
   15.1378  -14.9896   19.0488 N   0  0  0  0  0  0  0  0  0  0  0  0
   14.7400  -14.4307   17.9007 C   0  0  0  0  0  0  0  0  0  0  0  0
   13.4109  -14.2094   17.9893 N   0  0  0  0  0  0  0  0  0  0  0  0
    9.9406  -16.0850   20.7875 C   0  0  0  0  0  0  0  0  0  0  0  0
    8.8152  -15.5944   20.5155 O   0  0  0  0  0  0  0  0  0  0  0  0
    9.7357  -18.8034   23.7788 O   0  0  0  0  0  0  0  0  0  0  0  0
    8.6047  -18.1683   23.2560 C   0  0  0  0  0  0  0  0  0  0  0  0
    8.9913  -16.7378   22.9730 C   0  0  2  0  0  0  0  0  0  0  0  0
   10.0900  -16.7100   22.0525 N   0  0  0  0  0  0  0  0  0  0  0  0
    9.2663  -15.9734   24.2132 C   0  0  0  0  0  0  0  0  0  0  0  0
   10.4737  -15.7275   24.4654 O   0  0  0  0  0  0  0  0  0  0  0  0
    5.6679  -12.2759   25.7745 C   0  0  0  0  0  0  0  0  0  0  0  0
    6.8839  -13.0829   25.4823 C   0  0  0  0  0  0  0  0  0  0  0  0
    7.5105  -13.7918   26.6294 C   0  0  2  0  0  0  0  0  0  0  0  0
    7.7311  -12.8799   27.8195 C   0  0  0  0  0  0  0  0  0  0  0  0
    8.5819  -14.7617   26.3435 C   0  0  2  0  0  0  0  0  0  0  0  0
    8.2935  -15.5169   25.1032 N   0  0  0  0  0  0  0  0  0  0  0  0
    9.0204  -15.6616   27.4043 C   0  0  0  0  0  0  0  0  0  0  0  0
    9.7637  -15.3399   28.3608 O   0  0  0  0  0  0  0  0  0  0  0  0
    8.6257  -17.0243   27.4396 O   0  0  0  0  0  0  0  0  0  0  0  0
  2  3  1  0
  2  1  1  6
  4  8  1  0
  4  3  1  0
  5  4  2  0
  6  5  1  0
  6  7  1  0
  7  8  2  0
  9  2  1  0
 10  9  2  0
 11 12  1  0
 13 12  1  1
 13 14  1  0
 14  9  1  0
 15 13  1  0
 15 22  1  0
 16 15  2  0
 18 17  1  0
 19 18  1  0
 19 20  1  1
 21 22  1  6
 21 23  1  0
 21 19  1  0
 23 25  1  0
 24 23  2  0
M  END
$$$$
