HSI.pdb
     RDKit          3D

 25 25  0  0  1  0  0  0  0  0999 V2000
    7.4359  -17.0554   19.7778 N   0  0  0  0  0  0  0  0  0  0  0  0
    8.1494  -16.1982   20.6770 C   0  0  1  0  0  0  0  0  0  0  0  0
    7.4600  -14.8300   20.6294 C   0  0  0  0  0  0  0  0  0  0  0  0
    7.8048  -14.2224   19.3177 C   0  0  0  0  0  0  0  0  0  0  0  0
    8.5617  -14.7791   18.2784 C   0  0  0  0  0  0  0  0  0  0  0  0
    8.6335  -13.9006   17.2735 N   0  0  0  0  0  0  0  0  0  0  0  0
    7.9541  -12.8036   17.6252 C   0  0  0  0  0  0  0  0  0  0  0  0
    7.4561  -13.0071   18.8637 N   0  0  0  0  0  0  0  0  0  0  0  0
    8.1624  -16.7268   22.0675 C   0  0  0  0  0  0  0  0  0  0  0  0
    7.0848  -17.0379   22.6359 O   0  0  0  0  0  0  0  0  0  0  0  0
   11.3307  -18.4482   23.8359 O   0  0  0  0  0  0  0  0  0  0  0  0
   10.0350  -18.6377   24.3270 C   0  0  0  0  0  0  0  0  0  0  0  0
    9.3071  -17.3253   24.1736 C   0  0  2  0  0  0  0  0  0  0  0  0
    9.3619  -16.9025   22.8047 N   0  0  0  0  0  0  0  0  0  0  0  0
    9.8076  -16.2913   25.1108 C   0  0  0  0  0  0  0  0  0  0  0  0
   10.7695  -15.5876   24.7092 O   0  0  0  0  0  0  0  0  0  0  0  0
    7.0542  -12.5275   26.8544 C   0  0  0  0  0  0  0  0  0  0  0  0
    8.2796  -13.3115   26.5399 C   0  0  0  0  0  0  0  0  0  0  0  0
    8.9334  -14.0185   27.6729 C   0  0  2  0  0  0  0  0  0  0  0  0
    9.3415  -13.0722   28.7841 C   0  0  0  0  0  0  0  0  0  0  0  0
    9.8793  -15.1036   27.3600 C   0  0  2  0  0  0  0  0  0  0  0  0
    9.2927  -16.0509   26.3850 N   0  0  0  0  0  0  0  0  0  0  0  0
   10.5162  -15.8227   28.4575 C   0  0  0  0  0  0  0  0  0  0  0  0
   11.4490  -15.3767   29.1660 O   0  0  0  0  0  0  0  0  0  0  0  0
   10.1158  -17.1337   28.8248 O   0  0  0  0  0  0  0  0  0  0  0  0
  2  3  1  0
  2  1  1  6
  4  8  1  0
  4  3  1  0
  5  4  2  0
  6  5  1  0
  6  7  1  0
  7  8  2  0
  9  2  1  0
 10  9  2  0
 11 12  1  0
 13 12  1  6
 13 14  1  0
 14  9  1  0
 15 13  1  0
 15 22  1  0
 16 15  2  0
 18 17  1  0
 19 18  1  0
 19 20  1  6
 21 22  1  1
 21 23  1  0
 21 19  1  0
 23 25  1  0
 24 23  2  0
M  END
$$$$
