HSI.pdb
     RDKit          3D

 25 25  0  0  1  0  0  0  0  0999 V2000
    9.2503  -18.9977   18.6343 N   0  0  0  0  0  0  0  0  0  0  0  0
    9.7947  -18.0628   19.5734 C   0  0  1  0  0  0  0  0  0  0  0  0
   10.3306  -16.8776   18.7624 C   0  0  0  0  0  0  0  0  0  0  0  0
   11.6199  -17.3149   18.1664 C   0  0  0  0  0  0  0  0  0  0  0  0
   12.8504  -17.5036   18.8092 C   0  0  0  0  0  0  0  0  0  0  0  0
   13.7550  -17.9013   17.9090 N   0  0  0  0  0  0  0  0  0  0  0  0
   13.1557  -17.9755   16.7157 C   0  0  0  0  0  0  0  0  0  0  0  0
   11.8639  -17.6190   16.8809 N   0  0  0  0  0  0  0  0  0  0  0  0
    8.7818  -17.6026   20.5611 C   0  0  0  0  0  0  0  0  0  0  0  0
    7.5655  -17.5582   20.2456 O   0  0  0  0  0  0  0  0  0  0  0  0
    8.1072  -18.9993   23.8293 O   0  0  0  0  0  0  0  0  0  0  0  0
    7.2848  -18.1229   23.1142 C   0  0  0  0  0  0  0  0  0  0  0  0
    8.1001  -16.8869   22.8253 C   0  0  2  0  0  0  0  0  0  0  0  0
    9.1284  -17.2004   21.8769 N   0  0  0  0  0  0  0  0  0  0  0  0
    8.6333  -16.2634   24.0602 C   0  0  0  0  0  0  0  0  0  0  0  0
    9.8332  -16.5134   24.3427 O   0  0  0  0  0  0  0  0  0  0  0  0
    6.0667  -11.6811   25.5352 C   0  0  0  0  0  0  0  0  0  0  0  0
    7.1456  -12.6556   25.2165 C   0  0  0  0  0  0  0  0  0  0  0  0
    7.6602  -13.4792   26.3425 C   0  0  2  0  0  0  0  0  0  0  0  0
    8.1104  -12.6331   27.5165 C   0  0  0  0  0  0  0  0  0  0  0  0
    8.4984  -14.6471   26.0209 C   0  0  2  0  0  0  0  0  0  0  0  0
    7.9069  -15.4331   24.9144 N   0  0  0  0  0  0  0  0  0  0  0  0
    8.9303  -15.5249   27.1026 C   0  0  0  0  0  0  0  0  0  0  0  0
    8.3360  -16.5668   27.4662 O   0  0  0  0  0  0  0  0  0  0  0  0
   10.1019  -15.2596   27.8584 O   0  0  0  0  0  0  0  0  0  0  0  0
  2  3  1  0
  2  1  1  6
  4  8  1  0
  4  3  1  0
  5  4  2  0
  6  5  1  0
  6  7  1  0
  7  8  2  0
  9  2  1  0
 10  9  2  0
 11 12  1  0
 13 12  1  1
 13 14  1  0
 14  9  1  0
 15 13  1  0
 15 22  1  0
 16 15  2  0
 18 17  1  0
 19 18  1  0
 19 20  1  1
 21 22  1  6
 21 23  1  0
 21 19  1  0
 23 25  1  0
 24 23  2  0
M  END
$$$$
