HSI.pdb
     RDKit          3D

 25 25  0  0  1  0  0  0  0  0999 V2000
   10.4284  -16.4887   18.4564 N   0  0  0  0  0  0  0  0  0  0  0  0
   10.8567  -16.0639   19.7559 C   0  0  1  0  0  0  0  0  0  0  0  0
   11.3497  -14.6196   19.6124 C   0  0  0  0  0  0  0  0  0  0  0  0
   12.7263  -14.6905   19.0568 C   0  0  0  0  0  0  0  0  0  0  0  0
   13.9426  -14.5519   19.7382 C   0  0  0  0  0  0  0  0  0  0  0  0
   14.9472  -14.6836   18.8663 N   0  0  0  0  0  0  0  0  0  0  0  0
   14.4256  -14.9010   17.6541 C   0  0  0  0  0  0  0  0  0  0  0  0
   13.0811  -14.9036   17.7787 N   0  0  0  0  0  0  0  0  0  0  0  0
    9.7643  -16.1438   20.7625 C   0  0  0  0  0  0  0  0  0  0  0  0
    8.6727  -15.5538   20.5594 O   0  0  0  0  0  0  0  0  0  0  0  0
    9.6391  -18.8491   23.8769 O   0  0  0  0  0  0  0  0  0  0  0  0
    8.4886  -18.2891   23.3124 C   0  0  0  0  0  0  0  0  0  0  0  0
    8.8286  -16.8697   22.9308 C   0  0  2  0  0  0  0  0  0  0  0  0
    9.8955  -16.8720   21.9732 N   0  0  0  0  0  0  0  0  0  0  0  0
    9.1240  -16.0247   24.1126 C   0  0  0  0  0  0  0  0  0  0  0  0
   10.3326  -15.7374   24.3096 O   0  0  0  0  0  0  0  0  0  0  0  0
    5.9928  -11.9260   25.5827 C   0  0  0  0  0  0  0  0  0  0  0  0
    7.1190  -12.8723   25.3561 C   0  0  0  0  0  0  0  0  0  0  0  0
    7.5120  -13.7346   26.5020 C   0  0  2  0  0  0  0  0  0  0  0  0
    7.6940  -12.9441   27.7821 C   0  0  0  0  0  0  0  0  0  0  0  0
    8.4860  -14.8122   26.2568 C   0  0  2  0  0  0  0  0  0  0  0  0
    8.1691  -15.5358   25.0046 N   0  0  0  0  0  0  0  0  0  0  0  0
    8.7855  -15.7507   27.3323 C   0  0  0  0  0  0  0  0  0  0  0  0
    8.2614  -16.8809   27.4693 O   0  0  0  0  0  0  0  0  0  0  0  0
    9.7296  -15.4479   28.3477 O   0  0  0  0  0  0  0  0  0  0  0  0
  2  3  1  0
  2  1  1  6
  4  8  1  0
  4  3  1  0
  5  4  2  0
  6  5  1  0
  6  7  1  0
  7  8  2  0
  9  2  1  0
 10  9  2  0
 11 12  1  0
 13 12  1  1
 13 14  1  0
 14  9  1  0
 15 13  1  0
 15 22  1  0
 16 15  2  0
 18 17  1  0
 19 18  1  0
 19 20  1  1
 21 22  1  6
 21 23  1  0
 21 19  1  0
 23 25  1  0
 24 23  2  0
M  END
$$$$
