HSI.pdb
     RDKit          3D

 25 25  0  0  1  0  0  0  0  0999 V2000
    8.0071  -18.0061   18.2991 N   0  0  0  0  0  0  0  0  0  0  0  0
    8.8706  -17.7543   19.4142 C   0  0  1  0  0  0  0  0  0  0  0  0
    9.9349  -16.7594   18.9376 C   0  0  0  0  0  0  0  0  0  0  0  0
   10.9130  -17.5335   18.1296 C   0  0  0  0  0  0  0  0  0  0  0  0
   11.8880  -18.4331   18.5802 C   0  0  0  0  0  0  0  0  0  0  0  0
   12.5578  -18.9122   17.5273 N   0  0  0  0  0  0  0  0  0  0  0  0
   12.0527  -18.3572   16.4202 C   0  0  0  0  0  0  0  0  0  0  0  0
   11.0579  -17.5243   16.7941 N   0  0  0  0  0  0  0  0  0  0  0  0
    8.1333  -17.2072   20.5848 C   0  0  0  0  0  0  0  0  0  0  0  0
    7.1797  -16.4057   20.4134 O   0  0  0  0  0  0  0  0  0  0  0  0
    8.0994  -19.1095   24.1602 O   0  0  0  0  0  0  0  0  0  0  0  0
    7.0263  -18.3539   23.6771 C   0  0  0  0  0  0  0  0  0  0  0  0
    7.6098  -17.1396   22.9983 C   0  0  2  0  0  0  0  0  0  0  0  0
    8.4606  -17.5535   21.9212 N   0  0  0  0  0  0  0  0  0  0  0  0
    8.2961  -16.2367   23.9532 C   0  0  0  0  0  0  0  0  0  0  0  0
    9.5479  -16.1628   23.8557 O   0  0  0  0  0  0  0  0  0  0  0  0
    5.5883  -11.9953   26.3056 C   0  0  0  0  0  0  0  0  0  0  0  0
    6.6698  -12.8022   25.6775 C   0  0  0  0  0  0  0  0  0  0  0  0
    7.4501  -13.6937   26.5759 C   0  0  2  0  0  0  0  0  0  0  0  0
    7.9741  -12.9653   27.7972 C   0  0  0  0  0  0  0  0  0  0  0  0
    8.3617  -14.6733   25.9598 C   0  0  2  0  0  0  0  0  0  0  0  0
    7.6583  -15.4772   24.9346 N   0  0  0  0  0  0  0  0  0  0  0  0
    9.1653  -15.5301   26.8241 C   0  0  0  0  0  0  0  0  0  0  0  0
   10.2958  -15.2372   27.2794 O   0  0  0  0  0  0  0  0  0  0  0  0
    8.7149  -16.8119   27.2343 O   0  0  0  0  0  0  0  0  0  0  0  0
  2  3  1  0
  2  1  1  6
  4  8  1  0
  4  3  1  0
  5  4  2  0
  6  5  1  0
  6  7  1  0
  7  8  2  0
  9  2  1  0
 10  9  2  0
 11 12  1  0
 13 12  1  1
 13 14  1  0
 14  9  1  0
 15 13  1  0
 15 22  1  0
 16 15  2  0
 18 17  1  0
 19 18  1  0
 19 20  1  1
 21 22  1  1
 21 23  1  0
 21 19  1  0
 23 25  1  0
 24 23  2  0
M  END
$$$$
