HSI.pdb
     RDKit          3D

 25 25  0  0  1  0  0  0  0  0999 V2000
    7.7860  -16.9106   19.0620 N   0  0  0  0  0  0  0  0  0  0  0  0
    8.0110  -15.8526   20.0015 C   0  0  1  0  0  0  0  0  0  0  0  0
    7.0223  -14.7331   19.6570 C   0  0  0  0  0  0  0  0  0  0  0  0
    7.4810  -14.1364   18.3755 C   0  0  0  0  0  0  0  0  0  0  0  0
    8.3114  -13.0238   18.1874 C   0  0  0  0  0  0  0  0  0  0  0  0
    8.4771  -12.8212   16.8765 N   0  0  0  0  0  0  0  0  0  0  0  0
    7.7874  -13.7577   16.2163 C   0  0  0  0  0  0  0  0  0  0  0  0
    7.1878  -14.5492   17.1312 N   0  0  0  0  0  0  0  0  0  0  0  0
    7.8226  -16.2993   21.4080 C   0  0  0  0  0  0  0  0  0  0  0  0
    6.6797  -16.6211   21.8217 O   0  0  0  0  0  0  0  0  0  0  0  0
   10.6152  -18.0117   23.6622 O   0  0  0  0  0  0  0  0  0  0  0  0
    9.2545  -18.1039   23.9718 C   0  0  0  0  0  0  0  0  0  0  0  0
    8.6446  -16.7526   23.6933 C   0  0  2  0  0  0  0  0  0  0  0  0
    8.8967  -16.3829   22.3313 N   0  0  0  0  0  0  0  0  0  0  0  0
    9.0971  -15.7215   24.6578 C   0  0  0  0  0  0  0  0  0  0  0  0
   10.1370  -15.0838   24.3515 O   0  0  0  0  0  0  0  0  0  0  0  0
    6.4097  -11.6742   26.1740 C   0  0  0  0  0  0  0  0  0  0  0  0
    7.5037  -12.6518   25.9237 C   0  0  0  0  0  0  0  0  0  0  0  0
    8.0469  -13.3690   27.1077 C   0  0  2  0  0  0  0  0  0  0  0  0
    8.3868  -12.4276   28.2457 C   0  0  0  0  0  0  0  0  0  0  0  0
    8.9885  -14.4777   26.8750 C   0  0  2  0  0  0  0  0  0  0  0  0
    8.4586  -15.4166   25.8603 N   0  0  0  0  0  0  0  0  0  0  0  0
    9.5194  -15.2050   28.0223 C   0  0  0  0  0  0  0  0  0  0  0  0
   10.1913  -14.6962   28.9500 O   0  0  0  0  0  0  0  0  0  0  0  0
    9.3098  -16.5990   28.1862 O   0  0  0  0  0  0  0  0  0  0  0  0
  2  3  1  0
  2  1  1  6
  4  8  1  0
  4  3  1  0
  5  4  2  0
  6  5  1  0
  6  7  1  0
  7  8  2  0
  9  2  1  0
 10  9  2  0
 11 12  1  0
 13 12  1  1
 13 14  1  0
 14  9  1  0
 15 13  1  0
 15 22  1  0
 16 15  2  0
 18 17  1  0
 19 18  1  0
 19 20  1  1
 21 22  1  6
 21 23  1  0
 21 19  1  0
 23 25  1  0
 24 23  2  0
M  END
$$$$
