HSI.pdb
     RDKit          3D

 25 25  0  0  1  0  0  0  0  0999 V2000
    7.5868  -16.9588   19.5144 N   0  0  0  0  0  0  0  0  0  0  0  0
    8.0583  -15.9681   20.4357 C   0  0  1  0  0  0  0  0  0  0  0  0
    7.1692  -14.7326   20.2549 C   0  0  0  0  0  0  0  0  0  0  0  0
    7.5859  -14.0881   18.9822 C   0  0  0  0  0  0  0  0  0  0  0  0
    8.5600  -13.0995   18.7913 C   0  0  0  0  0  0  0  0  0  0  0  0
    8.6229  -12.7958   17.4911 N   0  0  0  0  0  0  0  0  0  0  0  0
    7.7295  -13.5487   16.8402 C   0  0  0  0  0  0  0  0  0  0  0  0
    7.1066  -14.3277   17.7503 N   0  0  0  0  0  0  0  0  0  0  0  0
    8.0110  -16.4422   21.8450 C   0  0  0  0  0  0  0  0  0  0  0  0
    6.9153  -16.7767   22.3633 O   0  0  0  0  0  0  0  0  0  0  0  0
   11.1020  -18.0552   23.7988 O   0  0  0  0  0  0  0  0  0  0  0  0
    9.7859  -18.2484   24.2306 C   0  0  0  0  0  0  0  0  0  0  0  0
    9.0569  -16.9436   24.0264 C   0  0  2  0  0  0  0  0  0  0  0  0
    9.1713  -16.5385   22.6559 N   0  0  0  0  0  0  0  0  0  0  0  0
    9.5071  -15.8937   24.9714 C   0  0  0  0  0  0  0  0  0  0  0  0
   10.5295  -15.2405   24.6397 O   0  0  0  0  0  0  0  0  0  0  0  0
    6.5012  -12.1071   26.7403 C   0  0  0  0  0  0  0  0  0  0  0  0
    7.6152  -13.0235   26.3737 C   0  0  0  0  0  0  0  0  0  0  0  0
    8.4116  -13.5932   27.4927 C   0  0  2  0  0  0  0  0  0  0  0  0
    8.8300  -12.5386   28.4975 C   0  0  0  0  0  0  0  0  0  0  0  0
    9.4134  -14.6257   27.1755 C   0  0  2  0  0  0  0  0  0  0  0  0
    8.8844  -15.5872   26.1817 N   0  0  0  0  0  0  0  0  0  0  0  0
   10.0742  -15.3274   28.2700 C   0  0  0  0  0  0  0  0  0  0  0  0
    9.7972  -16.4881   28.6534 O   0  0  0  0  0  0  0  0  0  0  0  0
   11.1229  -14.7298   29.0165 O   0  0  0  0  0  0  0  0  0  0  0  0
  2  3  1  0
  2  1  1  6
  4  8  1  0
  4  3  1  0
  5  4  2  0
  6  5  1  0
  6  7  1  0
  7  8  2  0
  9  2  1  0
 10  9  2  0
 11 12  1  0
 13 12  1  6
 13 14  1  0
 14  9  1  0
 15 13  1  0
 15 22  1  0
 16 15  2  0
 18 17  1  0
 19 18  1  0
 19 20  1  6
 21 22  1  6
 21 23  1  0
 21 19  1  0
 23 25  1  0
 24 23  2  0
M  END
$$$$
