HSI.pdb
     RDKit          3D

 25 25  0  0  1  0  0  0  0  0999 V2000
    7.5228  -16.9761   18.7165 N   0  0  0  0  0  0  0  0  0  0  0  0
    7.7147  -15.9095   19.6536 C   0  0  1  0  0  0  0  0  0  0  0  0
    6.9107  -14.7116   19.1358 C   0  0  0  0  0  0  0  0  0  0  0  0
    7.6069  -14.2236   17.9168 C   0  0  0  0  0  0  0  0  0  0  0  0
    8.5700  -13.2110   17.8172 C   0  0  0  0  0  0  0  0  0  0  0  0
    8.9396  -13.0862   16.5387 N   0  0  0  0  0  0  0  0  0  0  0  0
    8.2535  -13.9768   15.8142 C   0  0  0  0  0  0  0  0  0  0  0  0
    7.4495  -14.6608   16.6563 N   0  0  0  0  0  0  0  0  0  0  0  0
    7.2734  -16.2792   21.0253 C   0  0  0  0  0  0  0  0  0  0  0  0
    6.0490  -16.3072   21.3098 O   0  0  0  0  0  0  0  0  0  0  0  0
    9.3066  -18.4786   23.6760 O   0  0  0  0  0  0  0  0  0  0  0  0
    7.9450  -18.2049   23.8404 C   0  0  0  0  0  0  0  0  0  0  0  0
    7.7241  -16.7782   23.4027 C   0  0  2  0  0  0  0  0  0  0  0  0
    8.1894  -16.6109   22.0570 N   0  0  0  0  0  0  0  0  0  0  0  0
    8.3280  -15.8020   24.3409 C   0  0  0  0  0  0  0  0  0  0  0  0
    9.5192  -15.4679   24.1142 O   0  0  0  0  0  0  0  0  0  0  0  0
    5.5055  -11.8904   27.5387 C   0  0  0  0  0  0  0  0  0  0  0  0
    6.1375  -13.1588   27.0837 C   0  0  0  0  0  0  0  0  0  0  0  0
    7.5015  -13.0575   26.5006 C   0  0  2  0  0  0  0  0  0  0  0  0
    7.5534  -12.1132   25.3164 C   0  0  0  0  0  0  0  0  0  0  0  0
    8.3005  -14.2900   26.3874 C   0  0  2  0  0  0  0  0  0  0  0  0
    7.6757  -15.2392   25.4384 N   0  0  0  0  0  0  0  0  0  0  0  0
    8.7142  -14.9770   27.6056 C   0  0  0  0  0  0  0  0  0  0  0  0
    8.3569  -16.1312   27.9389 O   0  0  0  0  0  0  0  0  0  0  0  0
    9.5870  -14.3708   28.5463 O   0  0  0  0  0  0  0  0  0  0  0  0
  2  3  1  0
  2  1  1  6
  4  8  1  0
  4  3  1  0
  5  4  2  0
  6  5  1  0
  6  7  1  0
  7  8  2  0
  9  2  1  0
 10  9  2  0
 11 12  1  0
 13 12  1  1
 13 14  1  0
 14  9  1  0
 15 13  1  0
 15 22  1  0
 16 15  2  0
 18 17  1  0
 19 18  1  0
 19 20  1  6
 21 22  1  6
 21 23  1  0
 21 19  1  0
 23 25  1  0
 24 23  2  0
M  END
$$$$
