HSI.pdb
     RDKit          3D

 25 25  0  0  1  0  0  0  0  0999 V2000
    8.4738  -17.2012   18.8367 N   0  0  0  0  0  0  0  0  0  0  0  0
    8.3833  -16.1094   19.7599 C   0  0  1  0  0  0  0  0  0  0  0  0
    7.2602  -15.1944   19.2590 C   0  0  0  0  0  0  0  0  0  0  0  0
    7.7347  -14.5919   17.9860 C   0  0  0  0  0  0  0  0  0  0  0  0
    8.4027  -13.3743   17.8012 C   0  0  0  0  0  0  0  0  0  0  0  0
    8.6500  -13.2071   16.4982 N   0  0  0  0  0  0  0  0  0  0  0  0
    8.1683  -14.2669   15.8398 C   0  0  0  0  0  0  0  0  0  0  0  0
    7.6162  -15.0998   16.7480 N   0  0  0  0  0  0  0  0  0  0  0  0
    8.1026  -16.5672   21.1472 C   0  0  0  0  0  0  0  0  0  0  0  0
    7.3554  -17.5585   21.3471 O   0  0  0  0  0  0  0  0  0  0  0  0
   10.3033  -17.8668   23.4418 O   0  0  0  0  0  0  0  0  0  0  0  0
    8.9180  -17.8998   23.6311 C   0  0  0  0  0  0  0  0  0  0  0  0
    8.4319  -16.4722   23.5939 C   0  0  2  0  0  0  0  0  0  0  0  0
    8.6502  -15.9241   22.2873 N   0  0  0  0  0  0  0  0  0  0  0  0
    9.0328  -15.6451   24.6676 C   0  0  0  0  0  0  0  0  0  0  0  0
   10.2055  -15.2350   24.4710 O   0  0  0  0  0  0  0  0  0  0  0  0
    5.8288  -12.0090   27.6542 C   0  0  0  0  0  0  0  0  0  0  0  0
    6.6322  -13.2461   27.4559 C   0  0  0  0  0  0  0  0  0  0  0  0
    7.9480  -13.0909   26.7808 C   0  0  2  0  0  0  0  0  0  0  0  0
    7.8411  -12.3199   25.4805 C   0  0  0  0  0  0  0  0  0  0  0  0
    8.8686  -14.2410   26.7834 C   0  0  2  0  0  0  0  0  0  0  0  0
    8.3966  -15.2974   25.8597 N   0  0  0  0  0  0  0  0  0  0  0  0
    9.2744  -14.8170   28.0603 C   0  0  0  0  0  0  0  0  0  0  0  0
    9.0677  -16.0013   28.4149 O   0  0  0  0  0  0  0  0  0  0  0  0
    9.9615  -14.0541   29.0402 O   0  0  0  0  0  0  0  0  0  0  0  0
  2  3  1  0
  2  1  1  6
  4  8  1  0
  4  3  1  0
  5  4  2  0
  6  5  1  0
  6  7  1  0
  7  8  2  0
  9  2  1  0
 10  9  2  0
 11 12  1  0
 13 12  1  6
 13 14  1  0
 14  9  1  0
 15 13  1  0
 15 22  1  0
 16 15  2  0
 18 17  1  0
 19 18  1  0
 19 20  1  6
 21 22  1  6
 21 23  1  0
 21 19  1  0
 23 25  1  0
 24 23  2  0
M  END
$$$$
