HSI.pdb
     RDKit          3D

 25 25  0  0  1  0  0  0  0  0999 V2000
    6.8301  -16.5185   18.5704 N   0  0  0  0  0  0  0  0  0  0  0  0
    7.8261  -15.8873   19.3842 C   0  0  1  0  0  0  0  0  0  0  0  0
    7.7159  -14.3792   19.1336 C   0  0  0  0  0  0  0  0  0  0  0  0
    8.2056  -14.1381   17.7512 C   0  0  0  0  0  0  0  0  0  0  0  0
    7.6900  -13.2568   16.7919 C   0  0  0  0  0  0  0  0  0  0  0  0
    8.4246  -13.3469   15.6788 N   0  0  0  0  0  0  0  0  0  0  0  0
    9.3900  -14.2493   15.8846 C   0  0  0  0  0  0  0  0  0  0  0  0
    9.2499  -14.7230   17.1412 N   0  0  0  0  0  0  0  0  0  0  0  0
    7.6463  -16.1897   20.8296 C   0  0  0  0  0  0  0  0  0  0  0  0
    6.4976  -16.1747   21.3408 O   0  0  0  0  0  0  0  0  0  0  0  0
    8.9952  -18.4332   24.7146 O   0  0  0  0  0  0  0  0  0  0  0  0
    9.2365  -18.1440   23.3677 C   0  0  0  0  0  0  0  0  0  0  0  0
    8.4936  -16.8705   23.0483 C   0  0  2  0  0  0  0  0  0  0  0  0
    8.7351  -16.5026   21.6839 N   0  0  0  0  0  0  0  0  0  0  0  0
    8.8135  -15.7789   23.9991 C   0  0  0  0  0  0  0  0  0  0  0  0
    9.8183  -15.0732   23.7266 O   0  0  0  0  0  0  0  0  0  0  0  0
    6.2945  -11.3560   27.2394 C   0  0  0  0  0  0  0  0  0  0  0  0
    7.4651  -12.2642   27.0976 C   0  0  0  0  0  0  0  0  0  0  0  0
    7.2756  -13.4774   26.2589 C   0  0  2  0  0  0  0  0  0  0  0  0
    5.9229  -14.1243   26.4787 C   0  0  0  0  0  0  0  0  0  0  0  0
    8.4180  -14.3933   26.0964 C   0  0  2  0  0  0  0  0  0  0  0  0
    8.0881  -15.4871   25.1547 N   0  0  0  0  0  0  0  0  0  0  0  0
    9.0753  -14.9195   27.2872 C   0  0  0  0  0  0  0  0  0  0  0  0
    9.0754  -16.1228   27.6380 O   0  0  0  0  0  0  0  0  0  0  0  0
    9.7944  -14.0799   28.1772 O   0  0  0  0  0  0  0  0  0  0  0  0
  2  3  1  0
  2  1  1  6
  4  8  1  0
  4  3  1  0
  5  4  2  0
  6  5  1  0
  6  7  1  0
  7  8  2  0
  9  2  1  0
 10  9  2  0
 11 12  1  0
 13 12  1  1
 13 14  1  0
 14  9  1  0
 15 13  1  0
 15 22  1  0
 16 15  2  0
 18 17  1  0
 19 18  1  0
 19 20  1  1
 21 22  1  1
 21 23  1  0
 21 19  1  0
 23 25  1  0
 24 23  2  0
M  END
$$$$
