HSI.pdb
     RDKit          3D

 25 25  0  0  1  0  0  0  0  0999 V2000
    8.9466  -15.9220   19.2756 N   0  0  0  0  0  0  0  0  0  0  0  0
    8.0194  -14.9545   19.7824 C   0  0  1  0  0  0  0  0  0  0  0  0
    6.8467  -14.9024   18.7968 C   0  0  0  0  0  0  0  0  0  0  0  0
    7.4050  -14.4674   17.4899 C   0  0  0  0  0  0  0  0  0  0  0  0
    8.7427  -14.2091   17.1634 C   0  0  0  0  0  0  0  0  0  0  0  0
    8.8142  -13.8414   15.8802 N   0  0  0  0  0  0  0  0  0  0  0  0
    7.5779  -13.8533   15.3704 C   0  0  0  0  0  0  0  0  0  0  0  0
    6.7315  -14.2333   16.3514 N   0  0  0  0  0  0  0  0  0  0  0  0
    7.5377  -15.2977   21.1474 C   0  0  0  0  0  0  0  0  0  0  0  0
    6.6842  -14.5718   21.7180 O   0  0  0  0  0  0  0  0  0  0  0  0
    8.9910  -18.4993   23.4718 O   0  0  0  0  0  0  0  0  0  0  0  0
    7.6303  -18.1759   23.4714 C   0  0  0  0  0  0  0  0  0  0  0  0
    7.5263  -16.6990   23.1822 C   0  0  2  0  0  0  0  0  0  0  0  0
    8.0055  -16.4338   21.8573 N   0  0  0  0  0  0  0  0  0  0  0  0
    8.2058  -15.8751   24.2105 C   0  0  0  0  0  0  0  0  0  0  0  0
    9.4087  -15.5811   23.9899 O   0  0  0  0  0  0  0  0  0  0  0  0
    5.8637  -11.6448   26.1908 C   0  0  0  0  0  0  0  0  0  0  0  0
    6.9135  -12.6123   25.7699 C   0  0  0  0  0  0  0  0  0  0  0  0
    7.5094  -13.4617   26.8350 C   0  0  2  0  0  0  0  0  0  0  0  0
    8.0543  -12.6426   27.9878 C   0  0  0  0  0  0  0  0  0  0  0  0
    8.3133  -14.6260   26.4248 C   0  0  2  0  0  0  0  0  0  0  0  0
    7.6116  -15.4124   25.3851 N   0  0  0  0  0  0  0  0  0  0  0  0
    8.8597  -15.5038   27.4535 C   0  0  0  0  0  0  0  0  0  0  0  0
    9.8683  -15.2525   28.1540 O   0  0  0  0  0  0  0  0  0  0  0  0
    8.2711  -16.7595   27.7549 O   0  0  0  0  0  0  0  0  0  0  0  0
  2  3  1  0
  2  1  1  6
  4  8  1  0
  4  3  1  0
  5  4  2  0
  6  5  1  0
  6  7  1  0
  7  8  2  0
  9  2  1  0
 10  9  2  0
 11 12  1  0
 13 12  1  1
 13 14  1  0
 14  9  1  0
 15 13  1  0
 15 22  1  0
 16 15  2  0
 18 17  1  0
 19 18  1  0
 19 20  1  6
 21 22  1  6
 21 23  1  0
 21 19  1  0
 23 25  1  0
 24 23  2  0
M  END
$$$$
