IDW.pdb
     RDKit          3D

 31 32  0  0  1  0  0  0  0  0999 V2000
   28.4903  -18.0471  -18.4638 C   0  0  0  0  0  0  0  0  0  0  0  0
   28.4598  -19.1627  -17.4610 C   0  0  0  0  0  0  0  0  0  0  0  0
   27.6067  -18.8068  -16.2380 C   0  0  2  0  0  0  0  0  0  0  0  0
   28.4896  -18.5924  -15.0553 C   0  0  0  0  0  0  0  0  0  0  0  0
   26.5973  -19.8888  -16.0827 C   0  0  2  0  0  0  0  0  0  0  0  0
   25.8717  -20.0328  -17.3172 N   0  0  0  0  0  0  0  0  0  0  0  0
   25.7029  -19.7198  -14.9199 C   0  0  0  0  0  0  0  0  0  0  0  0
   25.3702  -18.5183  -14.6476 O   0  0  0  0  0  0  0  0  0  0  0  0
   25.2098  -20.7576  -14.1196 N   0  0  0  0  0  0  0  0  0  0  0  0
   24.4370  -20.4174  -12.9379 C   0  0  1  0  0  0  0  0  0  0  0  0
   23.0548  -20.9977  -12.9789 C   0  0  0  0  0  0  0  0  0  0  0  0
   22.2888  -20.6427  -11.7757 C   0  0  0  0  0  0  0  0  0  0  0  0
   21.7648  -21.5238  -11.0507 O   0  0  0  0  0  0  0  0  0  0  0  0
   25.1273  -21.0233  -11.7440 C   0  0  0  0  0  0  0  0  0  0  0  0
   25.2103  -22.2749  -11.6321 O   0  0  0  0  0  0  0  0  0  0  0  0
   22.1264  -19.2969  -11.4099 O   0  0  0  0  0  0  0  0  0  0  0  0
   25.6953  -20.2360  -10.7271 N   0  0  0  0  0  0  0  0  0  0  0  0
   26.3278  -20.7420   -9.5356 C   0  0  1  0  0  0  0  0  0  0  0  0
   27.3837  -19.7051   -9.1293 C   0  0  0  0  0  0  0  0  0  0  0  0
   28.2254  -20.2433   -8.0070 C   0  0  0  0  0  0  0  0  0  0  0  0
   28.9343  -21.4260   -8.0113 C   0  0  0  0  0  0  0  0  0  0  0  0
   29.5588  -21.5595   -6.8328 N   0  0  0  0  0  0  0  0  0  0  0  0
   29.2927  -20.4948   -6.0233 C   0  0  0  0  0  0  0  0  0  0  0  0
   29.6861  -20.1683   -4.7463 C   0  0  0  0  0  0  0  0  0  0  0  0
   29.2505  -19.0027   -4.1720 C   0  0  0  0  0  0  0  0  0  0  0  0
   28.4130  -18.1795   -4.9139 C   0  0  0  0  0  0  0  0  0  0  0  0
   28.0187  -18.5015   -6.1871 C   0  0  0  0  0  0  0  0  0  0  0  0
   28.4587  -19.6815   -6.7707 C   0  0  0  0  0  0  0  0  0  0  0  0
   25.3664  -20.9575   -8.4370 C   0  0  0  0  0  0  0  0  0  0  0  0
   24.3823  -20.1915   -8.3198 O   0  0  0  0  0  0  0  0  0  0  0  0
   25.5309  -21.9899   -7.5331 O   0  0  0  0  0  0  0  0  0  0  0  0
  1  2  1  0
  2  3  1  0
  3  4  1  1
  5  3  1  0
  5  6  1  6
  7  5  1  0
  7  8  2  0
  9  7  1  0
 10  9  1  0
 10 11  1  6
 12 13  2  0
 12 11  1  0
 14 10  1  0
 15 14  2  0
 16 12  1  0
 17 14  1  0
 18 19  1  1
 18 17  1  0
 20 19  1  0
 21 20  2  0
 22 23  1  0
 22 21  1  0
 23 28  2  0
 24 25  2  0
 24 23  1  0
 25 26  1  0
 26 27  2  0
 28 27  1  0
 28 20  1  0
 29 18  1  0
 30 29  2  0
 31 29  1  0
M  END
$$$$
