IDW.pdb
     RDKit          3D

 31 32  0  0  1  0  0  0  0  0999 V2000
   30.5915  -19.2896  -14.9373 C   0  0  0  0  0  0  0  0  0  0  0  0
   29.1691  -19.6504  -15.2503 C   0  0  0  0  0  0  0  0  0  0  0  0
   28.2597  -19.4985  -14.0256 C   0  0  2  0  0  0  0  0  0  0  0  0
   28.7325  -20.3986  -12.9346 C   0  0  0  0  0  0  0  0  0  0  0  0
   26.8664  -19.7446  -14.4859 C   0  0  2  0  0  0  0  0  0  0  0  0
   26.5876  -18.8919  -15.6113 N   0  0  0  0  0  0  0  0  0  0  0  0
   25.8479  -19.6259  -13.4232 C   0  0  0  0  0  0  0  0  0  0  0  0
   25.4256  -18.4443  -13.1909 O   0  0  0  0  0  0  0  0  0  0  0  0
   25.3296  -20.6901  -12.6753 N   0  0  0  0  0  0  0  0  0  0  0  0
   24.2822  -20.4149  -11.7076 C   0  0  1  0  0  0  0  0  0  0  0  0
   22.9328  -20.8524  -12.1940 C   0  0  0  0  0  0  0  0  0  0  0  0
   21.8768  -20.4977  -11.2351 C   0  0  0  0  0  0  0  0  0  0  0  0
   21.3076  -21.3720  -10.5365 O   0  0  0  0  0  0  0  0  0  0  0  0
   24.5775  -21.2161  -10.4666 C   0  0  0  0  0  0  0  0  0  0  0  0
   24.9877  -22.4027  -10.5654 O   0  0  0  0  0  0  0  0  0  0  0  0
   21.4799  -19.1598  -11.0801 O   0  0  0  0  0  0  0  0  0  0  0  0
   24.4118  -20.6860   -9.1751 N   0  0  0  0  0  0  0  0  0  0  0  0
   24.5843  -21.4165   -7.9453 C   0  0  1  0  0  0  0  0  0  0  0  0
   24.8704  -20.3739   -6.8560 C   0  0  0  0  0  0  0  0  0  0  0  0
   26.2532  -19.8135   -7.0333 C   0  0  0  0  0  0  0  0  0  0  0  0
   26.7121  -19.0972   -8.1186 C   0  0  0  0  0  0  0  0  0  0  0  0
   27.9950  -18.7704   -7.9090 N   0  0  0  0  0  0  0  0  0  0  0  0
   28.4232  -19.2471   -6.7053 C   0  0  0  0  0  0  0  0  0  0  0  0
   29.6288  -19.1788   -6.0464 C   0  0  0  0  0  0  0  0  0  0  0  0
   29.7716  -19.7660   -4.8163 C   0  0  0  0  0  0  0  0  0  0  0  0
   28.6744  -20.4200   -4.2708 C   0  0  0  0  0  0  0  0  0  0  0  0
   27.4711  -20.4902   -4.9244 C   0  0  0  0  0  0  0  0  0  0  0  0
   27.3240  -19.8962   -6.1703 C   0  0  0  0  0  0  0  0  0  0  0  0
   23.3947  -22.2162   -7.5947 C   0  0  0  0  0  0  0  0  0  0  0  0
   22.3438  -22.0836   -8.2633 O   0  0  0  0  0  0  0  0  0  0  0  0
   23.4174  -23.1104   -6.5412 O   0  0  0  0  0  0  0  0  0  0  0  0
  1  2  1  0
  2  3  1  0
  3  4  1  1
  5  3  1  0
  5  6  1  6
  7  5  1  0
  7  8  2  0
  9  7  1  0
 10  9  1  0
 10 11  1  6
 12 13  2  0
 12 11  1  0
 14 10  1  0
 15 14  2  0
 16 12  1  0
 17 14  1  0
 18 19  1  1
 18 17  1  0
 20 19  1  0
 21 20  2  0
 22 23  1  0
 22 21  1  0
 23 28  2  0
 24 25  2  0
 24 23  1  0
 25 26  1  0
 26 27  2  0
 28 27  1  0
 28 20  1  0
 29 18  1  0
 30 29  2  0
 31 29  1  0
M  END
$$$$
