IDW.pdb
     RDKit          3D

 31 32  0  0  1  0  0  0  0  0999 V2000
   30.9513  -23.2581  -18.8711 C   0  0  0  0  0  0  0  0  0  0  0  0
   29.9822  -22.1490  -19.1573 C   0  0  0  0  0  0  0  0  0  0  0  0
   29.4445  -21.5151  -17.8692 C   0  0  2  0  0  0  0  0  0  0  0  0
   28.8725  -22.5747  -16.9893 C   0  0  0  0  0  0  0  0  0  0  0  0
   28.4885  -20.4498  -18.2755 C   0  0  2  0  0  0  0  0  0  0  0  0
   29.2111  -19.4063  -18.9540 N   0  0  0  0  0  0  0  0  0  0  0  0
   27.6545  -19.9321  -17.1723 C   0  0  0  0  0  0  0  0  0  0  0  0
   28.2499  -19.1714  -16.3384 O   0  0  0  0  0  0  0  0  0  0  0  0
   26.2952  -20.2107  -16.9847 N   0  0  0  0  0  0  0  0  0  0  0  0
   25.6336  -19.6829  -15.8045 C   0  0  1  0  0  0  0  0  0  0  0  0
   24.2902  -19.0973  -16.1229 C   0  0  0  0  0  0  0  0  0  0  0  0
   23.5901  -18.6686  -14.9037 C   0  0  0  0  0  0  0  0  0  0  0  0
   22.5382  -19.2367  -14.5199 O   0  0  0  0  0  0  0  0  0  0  0  0
   25.3942  -20.8294  -14.8572 C   0  0  0  0  0  0  0  0  0  0  0  0
   24.9929  -21.9385  -15.2988 O   0  0  0  0  0  0  0  0  0  0  0  0
   24.0893  -17.6040  -14.1363 O   0  0  0  0  0  0  0  0  0  0  0  0
   25.6035  -20.7133  -13.4719 N   0  0  0  0  0  0  0  0  0  0  0  0
   25.3558  -21.7489  -12.5013 C   0  0  1  0  0  0  0  0  0  0  0  0
   26.5971  -21.8076  -11.6008 C   0  0  0  0  0  0  0  0  0  0  0  0
   26.4034  -20.9221  -10.4025 C   0  0  0  0  0  0  0  0  0  0  0  0
   25.2514  -20.2436  -10.0650 C   0  0  0  0  0  0  0  0  0  0  0  0
   25.4680  -19.5623   -8.9312 N   0  0  0  0  0  0  0  0  0  0  0  0
   26.7418  -19.7598   -8.4863 C   0  0  0  0  0  0  0  0  0  0  0  0
   27.4350  -19.2926   -7.3938 C   0  0  0  0  0  0  0  0  0  0  0  0
   28.7380  -19.6689   -7.1969 C   0  0  0  0  0  0  0  0  0  0  0  0
   29.3209  -20.5232   -8.1241 C   0  0  0  0  0  0  0  0  0  0  0  0
   28.6332  -20.9910   -9.2142 C   0  0  0  0  0  0  0  0  0  0  0  0
   27.3134  -20.6113   -9.4157 C   0  0  0  0  0  0  0  0  0  0  0  0
   24.1464  -21.4880  -11.6969 C   0  0  0  0  0  0  0  0  0  0  0  0
   23.7075  -20.3184  -11.6052 O   0  0  0  0  0  0  0  0  0  0  0  0
   23.4873  -22.5107  -11.0416 O   0  0  0  0  0  0  0  0  0  0  0  0
  1  2  1  0
  2  3  1  0
  3  4  1  1
  5  3  1  0
  5  6  1  1
  7  5  1  0
  7  8  2  0
  9  7  1  0
 10  9  1  0
 10 11  1  6
 12 13  2  0
 12 11  1  0
 14 10  1  0
 15 14  2  0
 16 12  1  0
 17 14  1  0
 18 19  1  1
 18 17  1  0
 20 19  1  0
 21 20  2  0
 22 23  1  0
 22 21  1  0
 23 28  2  0
 24 25  2  0
 24 23  1  0
 25 26  1  0
 26 27  2  0
 28 27  1  0
 28 20  1  0
 29 18  1  0
 30 29  2  0
 31 29  1  0
M  END
$$$$
