IDW.pdb
     RDKit          3D

 31 32  0  0  1  0  0  0  0  0999 V2000
   13.9348  -14.5404  -14.8514 C   0  0  0  0  0  0  0  0  0  0  0  0
   14.9114  -13.8091  -15.7247 C   0  0  0  0  0  0  0  0  0  0  0  0
   15.4182  -12.5235  -15.0609 C   0  0  2  0  0  0  0  0  0  0  0  0
   14.2592  -11.6731  -14.6637 C   0  0  0  0  0  0  0  0  0  0  0  0
   16.3686  -11.8883  -16.0133 C   0  0  2  0  0  0  0  0  0  0  0  0
   17.4885  -12.7695  -16.2149 N   0  0  0  0  0  0  0  0  0  0  0  0
   16.7864  -10.5242  -15.6322 C   0  0  0  0  0  0  0  0  0  0  0  0
   17.7869  -10.4520  -14.8433 O   0  0  0  0  0  0  0  0  0  0  0  0
   16.1776   -9.3398  -16.0647 N   0  0  0  0  0  0  0  0  0  0  0  0
   16.6653   -8.0759  -15.5415 C   0  0  1  0  0  0  0  0  0  0  0  0
   16.3520   -6.9271  -16.4532 C   0  0  0  0  0  0  0  0  0  0  0  0
   16.9148   -5.6690  -15.9425 C   0  0  0  0  0  0  0  0  0  0  0  0
   17.5032   -5.6182  -14.8345 O   0  0  0  0  0  0  0  0  0  0  0  0
   15.9512   -7.8069  -14.2427 C   0  0  0  0  0  0  0  0  0  0  0  0
   14.8289   -8.3331  -14.0199 O   0  0  0  0  0  0  0  0  0  0  0  0
   16.8042   -4.4868  -16.6919 O   0  0  0  0  0  0  0  0  0  0  0  0
   16.4941   -6.9763  -13.2468 N   0  0  0  0  0  0  0  0  0  0  0  0
   15.8667   -6.6637  -11.9881 C   0  0  1  0  0  0  0  0  0  0  0  0
   16.1300   -7.8585  -11.0616 C   0  0  0  0  0  0  0  0  0  0  0  0
   15.5579   -7.5864   -9.6991 C   0  0  0  0  0  0  0  0  0  0  0  0
   16.2025   -6.9640   -8.6511 C   0  0  0  0  0  0  0  0  0  0  0  0
   15.3676   -6.9053   -7.6042 N   0  0  0  0  0  0  0  0  0  0  0  0
   14.1671   -7.4735   -7.9130 C   0  0  0  0  0  0  0  0  0  0  0  0
   13.0069   -7.6581   -7.1974 C   0  0  0  0  0  0  0  0  0  0  0  0
   11.9327   -8.2773   -7.7814 C   0  0  0  0  0  0  0  0  0  0  0  0
   12.0575   -8.7033   -9.0976 C   0  0  0  0  0  0  0  0  0  0  0  0
   13.2123   -8.5211   -9.8141 C   0  0  0  0  0  0  0  0  0  0  0  0
   14.3015   -7.8942   -9.2248 C   0  0  0  0  0  0  0  0  0  0  0  0
   16.3933   -5.4213  -11.3907 C   0  0  0  0  0  0  0  0  0  0  0  0
   17.5892   -5.1028  -11.5843 O   0  0  0  0  0  0  0  0  0  0  0  0
   15.5915   -4.6007  -10.6203 O   0  0  0  0  0  0  0  0  0  0  0  0
  1  2  1  0
  2  3  1  0
  3  4  1  6
  5  3  1  0
  5  6  1  1
  7  5  1  0
  7  8  2  0
  9  7  1  0
 10  9  1  0
 10 11  1  6
 12 13  2  0
 12 11  1  0
 14 10  1  0
 15 14  2  0
 16 12  1  0
 17 14  1  0
 18 19  1  1
 18 17  1  0
 20 19  1  0
 21 20  2  0
 22 23  1  0
 22 21  1  0
 23 28  2  0
 24 25  2  0
 24 23  1  0
 25 26  1  0
 26 27  2  0
 28 27  1  0
 28 20  1  0
 29 18  1  0
 30 29  2  0
 31 29  1  0
M  END
$$$$
