IDW.pdb
     RDKit          3D

 31 32  0  0  1  0  0  0  0  0999 V2000
   28.2362  -14.7375  -18.5549 C   0  0  0  0  0  0  0  0  0  0  0  0
   28.2732  -16.1495  -18.0489 C   0  0  0  0  0  0  0  0  0  0  0  0
   27.4913  -16.3066  -16.7396 C   0  0  2  0  0  0  0  0  0  0  0  0
   28.0398  -15.3746  -15.7126 C   0  0  0  0  0  0  0  0  0  0  0  0
   27.5419  -17.7479  -16.3737 C   0  0  2  0  0  0  0  0  0  0  0  0
   27.2099  -18.5367  -17.5308 N   0  0  0  0  0  0  0  0  0  0  0  0
   26.7241  -18.1025  -15.1964 C   0  0  0  0  0  0  0  0  0  0  0  0
   27.0759  -17.5625  -14.0951 O   0  0  0  0  0  0  0  0  0  0  0  0
   25.6215  -18.9655  -15.2062 N   0  0  0  0  0  0  0  0  0  0  0  0
   24.9046  -19.1921  -13.9636 C   0  0  1  0  0  0  0  0  0  0  0  0
   23.5342  -19.7553  -14.1952 C   0  0  0  0  0  0  0  0  0  0  0  0
   22.8105  -19.9413  -12.9295 C   0  0  0  0  0  0  0  0  0  0  0  0
   23.3148  -19.5994  -11.8317 O   0  0  0  0  0  0  0  0  0  0  0  0
   25.6683  -20.2201  -13.1703 C   0  0  0  0  0  0  0  0  0  0  0  0
   26.0128  -21.3043  -13.7103 O   0  0  0  0  0  0  0  0  0  0  0  0
   21.5273  -20.5113  -12.9234 O   0  0  0  0  0  0  0  0  0  0  0  0
   26.0210  -20.0179  -11.8245 N   0  0  0  0  0  0  0  0  0  0  0  0
   26.7171  -20.9666  -10.9932 C   0  0  1  0  0  0  0  0  0  0  0  0
   27.6477  -20.1502  -10.0861 C   0  0  0  0  0  0  0  0  0  0  0  0
   27.0974  -20.1123   -8.6884 C   0  0  0  0  0  0  0  0  0  0  0  0
   25.7765  -20.2694   -8.3253 C   0  0  0  0  0  0  0  0  0  0  0  0
   25.6808  -20.1726   -6.9919 N   0  0  0  0  0  0  0  0  0  0  0  0
   26.9063  -19.9529   -6.4356 C   0  0  0  0  0  0  0  0  0  0  0  0
   27.3287  -19.7854   -5.1372 C   0  0  0  0  0  0  0  0  0  0  0  0
   28.6564  -19.5750   -4.8704 C   0  0  0  0  0  0  0  0  0  0  0  0
   29.5421  -19.5380   -5.9397 C   0  0  0  0  0  0  0  0  0  0  0  0
   29.1249  -19.7046   -7.2352 C   0  0  0  0  0  0  0  0  0  0  0  0
   27.7807  -19.9178   -7.5079 C   0  0  0  0  0  0  0  0  0  0  0  0
   25.7957  -21.7866  -10.1832 C   0  0  0  0  0  0  0  0  0  0  0  0
   26.2270  -22.8123   -9.6078 O   0  0  0  0  0  0  0  0  0  0  0  0
   24.4637  -21.4446  -10.0466 O   0  0  0  0  0  0  0  0  0  0  0  0
  1  2  1  0
  2  3  1  0
  3  4  1  1
  5  3  1  0
  5  6  1  6
  7  5  1  0
  7  8  2  0
  9  7  1  0
 10  9  1  0
 10 11  1  6
 12 13  2  0
 12 11  1  0
 14 10  1  0
 15 14  2  0
 16 12  1  0
 17 14  1  0
 18 19  1  1
 18 17  1  0
 20 19  1  0
 21 20  2  0
 22 23  1  0
 22 21  1  0
 23 28  2  0
 24 25  2  0
 24 23  1  0
 25 26  1  0
 26 27  2  0
 28 27  1  0
 28 20  1  0
 29 18  1  0
 30 29  2  0
 31 29  1  0
M  END
$$$$
