IDW.pdb
     RDKit          3D

 31 32  0  0  1  0  0  0  0  0999 V2000
   29.1430  -18.8467  -17.4114 C   0  0  0  0  0  0  0  0  0  0  0  0
   28.9589  -19.8153  -16.2805 C   0  0  0  0  0  0  0  0  0  0  0  0
   27.8140  -19.3958  -15.3513 C   0  0  2  0  0  0  0  0  0  0  0  0
   28.0333  -17.9963  -14.8849 C   0  0  0  0  0  0  0  0  0  0  0  0
   27.7361  -20.4152  -14.2703 C   0  0  2  0  0  0  0  0  0  0  0  0
   27.6905  -21.7252  -14.8646 N   0  0  0  0  0  0  0  0  0  0  0  0
   26.6378  -20.1945  -13.3082 C   0  0  0  0  0  0  0  0  0  0  0  0
   26.7526  -19.1640  -12.5642 O   0  0  0  0  0  0  0  0  0  0  0  0
   25.5125  -21.0146  -13.1611 N   0  0  0  0  0  0  0  0  0  0  0  0
   24.4967  -20.6349  -12.1951 C   0  0  1  0  0  0  0  0  0  0  0  0
   23.1630  -21.2461  -12.5062 C   0  0  0  0  0  0  0  0  0  0  0  0
   22.1793  -20.2215  -12.8843 C   0  0  0  0  0  0  0  0  0  0  0  0
   21.3927  -20.3944  -13.8475 O   0  0  0  0  0  0  0  0  0  0  0  0
   24.9157  -21.1680  -10.8500 C   0  0  0  0  0  0  0  0  0  0  0  0
   25.4499  -22.3050  -10.7613 O   0  0  0  0  0  0  0  0  0  0  0  0
   22.0994  -19.0165  -12.1680 O   0  0  0  0  0  0  0  0  0  0  0  0
   24.7327  -20.4363   -9.6636 N   0  0  0  0  0  0  0  0  0  0  0  0
   24.9715  -20.9327   -8.3323 C   0  0  1  0  0  0  0  0  0  0  0  0
   25.5392  -19.7576   -7.5247 C   0  0  0  0  0  0  0  0  0  0  0  0
   27.0254  -19.9141   -7.3677 C   0  0  0  0  0  0  0  0  0  0  0  0
   27.9231  -20.2372   -8.3632 C   0  0  0  0  0  0  0  0  0  0  0  0
   29.1545  -20.2834   -7.8359 N   0  0  0  0  0  0  0  0  0  0  0  0
   29.1186  -19.9993   -6.5026 C   0  0  0  0  0  0  0  0  0  0  0  0
   30.0936  -19.9208   -5.5355 C   0  0  0  0  0  0  0  0  0  0  0  0
   29.7550  -19.6073   -4.2450 C   0  0  0  0  0  0  0  0  0  0  0  0
   28.4161  -19.3762   -3.9562 C   0  0  0  0  0  0  0  0  0  0  0  0
   27.4414  -19.4535   -4.9175 C   0  0  0  0  0  0  0  0  0  0  0  0
   27.7819  -19.7709   -6.2252 C   0  0  0  0  0  0  0  0  0  0  0  0
   23.7444  -21.4507   -7.6969 C   0  0  0  0  0  0  0  0  0  0  0  0
   22.6304  -21.1991   -8.2114 O   0  0  0  0  0  0  0  0  0  0  0  0
   23.8004  -22.2094   -6.5432 O   0  0  0  0  0  0  0  0  0  0  0  0
  1  2  1  0
  2  3  1  0
  3  4  1  1
  5  3  1  0
  5  6  1  6
  7  5  1  0
  7  8  2  0
  9  7  1  0
 10  9  1  0
 10 11  1  6
 12 13  2  0
 12 11  1  0
 14 10  1  0
 15 14  2  0
 16 12  1  0
 17 14  1  0
 18 19  1  1
 18 17  1  0
 20 19  1  0
 21 20  2  0
 22 23  1  0
 22 21  1  0
 23 28  2  0
 24 25  2  0
 24 23  1  0
 25 26  1  0
 26 27  2  0
 28 27  1  0
 28 20  1  0
 29 18  1  0
 30 29  2  0
 31 29  1  0
M  END
$$$$
