IDW.pdb
     RDKit          3D

 31 32  0  0  1  0  0  0  0  0999 V2000
   32.5295  -21.7590  -12.3752 C   0  0  0  0  0  0  0  0  0  0  0  0
   31.4639  -21.3769  -13.3599 C   0  0  0  0  0  0  0  0  0  0  0  0
   30.1929  -20.8810  -12.6607 C   0  0  2  0  0  0  0  0  0  0  0  0
   29.6441  -21.9616  -11.7916 C   0  0  0  0  0  0  0  0  0  0  0  0
   29.2714  -20.3994  -13.7250 C   0  0  2  0  0  0  0  0  0  0  0  0
   29.9174  -19.3453  -14.4619 N   0  0  0  0  0  0  0  0  0  0  0  0
   27.9343  -20.0075  -13.2361 C   0  0  0  0  0  0  0  0  0  0  0  0
   27.8495  -18.8370  -12.7346 O   0  0  0  0  0  0  0  0  0  0  0  0
   26.7872  -20.8090  -13.2838 N   0  0  0  0  0  0  0  0  0  0  0  0
   25.6019  -20.3702  -12.5682 C   0  0  1  0  0  0  0  0  0  0  0  0
   24.3469  -20.6030  -13.3554 C   0  0  0  0  0  0  0  0  0  0  0  0
   23.1519  -20.2541  -12.5738 C   0  0  0  0  0  0  0  0  0  0  0  0
   23.1420  -19.2644  -11.8013 O   0  0  0  0  0  0  0  0  0  0  0  0
   25.4873  -21.1961  -11.3137 C   0  0  0  0  0  0  0  0  0  0  0  0
   25.4003  -22.4501  -11.3904 O   0  0  0  0  0  0  0  0  0  0  0  0
   21.9858  -21.0293  -12.6770 O   0  0  0  0  0  0  0  0  0  0  0  0
   25.4728  -20.6160  -10.0332 N   0  0  0  0  0  0  0  0  0  0  0  0
   25.2363  -21.3226   -8.8000 C   0  0  1  0  0  0  0  0  0  0  0  0
   26.6112  -21.5476   -8.1564 C   0  0  0  0  0  0  0  0  0  0  0  0
   27.0379  -20.3128   -7.4141 C   0  0  0  0  0  0  0  0  0  0  0  0
   26.8142  -19.0083   -7.8007 C   0  0  0  0  0  0  0  0  0  0  0  0
   27.3430  -18.1887   -6.8813 N   0  0  0  0  0  0  0  0  0  0  0  0
   27.9231  -18.9036   -5.8753 C   0  0  0  0  0  0  0  0  0  0  0  0
   28.5847  -18.5363   -4.7266 C   0  0  0  0  0  0  0  0  0  0  0  0
   29.0733  -19.4971   -3.8802 C   0  0  0  0  0  0  0  0  0  0  0  0
   28.8789  -20.8300   -4.2196 C   0  0  0  0  0  0  0  0  0  0  0  0
   28.2200  -21.2000   -5.3637 C   0  0  0  0  0  0  0  0  0  0  0  0
   27.7243  -20.2287   -6.2224 C   0  0  0  0  0  0  0  0  0  0  0  0
   24.3536  -20.5748   -7.8839 C   0  0  0  0  0  0  0  0  0  0  0  0
   23.7814  -19.5369   -8.2895 O   0  0  0  0  0  0  0  0  0  0  0  0
   24.1455  -20.9978   -6.5849 O   0  0  0  0  0  0  0  0  0  0  0  0
  1  2  1  0
  2  3  1  0
  3  4  1  6
  5  3  1  0
  5  6  1  1
  7  5  1  0
  7  8  2  0
  9  7  1  0
 10  9  1  0
 10 11  1  6
 12 13  2  0
 12 11  1  0
 14 10  1  0
 15 14  2  0
 16 12  1  0
 17 14  1  0
 18 19  1  1
 18 17  1  0
 20 19  1  0
 21 20  2  0
 22 23  1  0
 22 21  1  0
 23 28  2  0
 24 25  2  0
 24 23  1  0
 25 26  1  0
 26 27  2  0
 28 27  1  0
 28 20  1  0
 29 18  1  0
 30 29  2  0
 31 29  1  0
M  END
$$$$
