IDW.pdb
     RDKit          3D

 31 32  0  0  1  0  0  0  0  0999 V2000
   29.5091  -17.7665  -16.9369 C   0  0  0  0  0  0  0  0  0  0  0  0
   28.0978  -18.2592  -16.8085 C   0  0  0  0  0  0  0  0  0  0  0  0
   27.6384  -18.2983  -15.3465 C   0  0  2  0  0  0  0  0  0  0  0  0
   28.6265  -19.0607  -14.5301 C   0  0  0  0  0  0  0  0  0  0  0  0
   26.2565  -18.8499  -15.3399 C   0  0  2  0  0  0  0  0  0  0  0  0
   25.4300  -18.0525  -16.2073 N   0  0  0  0  0  0  0  0  0  0  0  0
   25.6732  -19.0053  -13.9922 C   0  0  0  0  0  0  0  0  0  0  0  0
   25.2563  -17.9319  -13.4424 O   0  0  0  0  0  0  0  0  0  0  0  0
   25.5503  -20.2146  -13.2972 N   0  0  0  0  0  0  0  0  0  0  0  0
   24.8995  -20.2075  -11.9988 C   0  0  1  0  0  0  0  0  0  0  0  0
   23.5804  -20.9205  -12.0228 C   0  0  0  0  0  0  0  0  0  0  0  0
   22.5444  -20.1085  -12.6770 C   0  0  0  0  0  0  0  0  0  0  0  0
   22.1971  -18.9947  -12.2133 O   0  0  0  0  0  0  0  0  0  0  0  0
   25.7816  -20.9581  -11.0356 C   0  0  0  0  0  0  0  0  0  0  0  0
   26.8239  -21.5304  -11.4505 O   0  0  0  0  0  0  0  0  0  0  0  0
   21.9164  -20.5678  -13.8458 O   0  0  0  0  0  0  0  0  0  0  0  0
   25.4859  -21.0500   -9.6643 N   0  0  0  0  0  0  0  0  0  0  0  0
   26.2931  -21.7257   -8.6806 C   0  0  1  0  0  0  0  0  0  0  0  0
   27.6615  -21.0311   -8.6885 C   0  0  0  0  0  0  0  0  0  0  0  0
   27.7007  -19.9636   -7.6318 C   0  0  0  0  0  0  0  0  0  0  0  0
   27.0532  -18.7469   -7.6746 C   0  0  0  0  0  0  0  0  0  0  0  0
   27.3300  -18.0707   -6.5509 N   0  0  0  0  0  0  0  0  0  0  0  0
   28.1518  -18.7978   -5.7412 C   0  0  0  0  0  0  0  0  0  0  0  0
   28.7093  -18.5505   -4.5082 C   0  0  0  0  0  0  0  0  0  0  0  0
   29.5167  -19.4892   -3.9205 C   0  0  0  0  0  0  0  0  0  0  0  0
   29.7463  -20.6766   -4.6038 C   0  0  0  0  0  0  0  0  0  0  0  0
   29.1924  -20.9266   -5.8330 C   0  0  0  0  0  0  0  0  0  0  0  0
   28.3744  -19.9774   -6.4301 C   0  0  0  0  0  0  0  0  0  0  0  0
   25.6959  -21.6745   -7.3320 C   0  0  0  0  0  0  0  0  0  0  0  0
   26.2669  -22.2587   -6.3824 O   0  0  0  0  0  0  0  0  0  0  0  0
   24.5170  -20.9933   -7.0958 O   0  0  0  0  0  0  0  0  0  0  0  0
  1  2  1  0
  2  3  1  0
  3  4  1  1
  5  3  1  0
  5  6  1  6
  7  5  1  0
  7  8  2  0
  9  7  1  0
 10  9  1  0
 10 11  1  6
 12 13  2  0
 12 11  1  0
 14 10  1  0
 15 14  2  0
 16 12  1  0
 17 14  1  0
 18 19  1  1
 18 17  1  0
 20 19  1  0
 21 20  2  0
 22 23  1  0
 22 21  1  0
 23 28  2  0
 24 25  2  0
 24 23  1  0
 25 26  1  0
 26 27  2  0
 28 27  1  0
 28 20  1  0
 29 18  1  0
 30 29  2  0
 31 29  1  0
M  END
$$$$
