IDW.pdb
     RDKit          3D

 31 32  0  0  1  0  0  0  0  0999 V2000
   25.3277  -34.4947   -6.4333 C   0  0  0  0  0  0  0  0  0  0  0  0
   26.3054  -34.1974   -5.3347 C   0  0  0  0  0  0  0  0  0  0  0  0
   25.6227  -34.1432   -3.9631 C   0  0  2  0  0  0  0  0  0  0  0  0
   24.5240  -33.1350   -3.9889 C   0  0  0  0  0  0  0  0  0  0  0  0
   26.6887  -33.8878   -2.9571 C   0  0  2  0  0  0  0  0  0  0  0  0
   27.9081  -34.5120   -3.3982 N   0  0  0  0  0  0  0  0  0  0  0  0
   26.3250  -34.2733   -1.5787 C   0  0  0  0  0  0  0  0  0  0  0  0
   25.2167  -33.8095   -1.1485 O   0  0  0  0  0  0  0  0  0  0  0  0
   27.0909  -35.0888   -0.7368 N   0  0  0  0  0  0  0  0  0  0  0  0
   26.6561  -35.2733    0.6366 C   0  0  1  0  0  0  0  0  0  0  0  0
   27.1716  -36.5519    1.2267 C   0  0  0  0  0  0  0  0  0  0  0  0
   28.6294  -36.6623    1.0755 C   0  0  0  0  0  0  0  0  0  0  0  0
   29.2879  -35.8016    0.4414 O   0  0  0  0  0  0  0  0  0  0  0  0
   27.2340  -34.1513    1.4590 C   0  0  0  0  0  0  0  0  0  0  0  0
   28.2129  -33.4898    1.0229 O   0  0  0  0  0  0  0  0  0  0  0  0
   29.3214  -37.7440    1.6433 O   0  0  0  0  0  0  0  0  0  0  0  0
   26.7175  -33.8025    2.7191 N   0  0  0  0  0  0  0  0  0  0  0  0
   27.2214  -32.7508    3.5651 C   0  0  1  0  0  0  0  0  0  0  0  0
   27.1071  -31.4504    2.7582 C   0  0  0  0  0  0  0  0  0  0  0  0
   25.6606  -31.0937    2.5629 C   0  0  0  0  0  0  0  0  0  0  0  0
   24.7431  -30.8267    3.5570 C   0  0  0  0  0  0  0  0  0  0  0  0
   23.5605  -30.5498    2.9901 N   0  0  0  0  0  0  0  0  0  0  0  0
   23.6491  -30.6215    1.6312 C   0  0  0  0  0  0  0  0  0  0  0  0
   22.7348  -30.4284    0.6218 C   0  0  0  0  0  0  0  0  0  0  0  0
   23.1175  -30.5724   -0.6863 C   0  0  0  0  0  0  0  0  0  0  0  0
   24.4380  -30.9142   -0.9491 C   0  0  0  0  0  0  0  0  0  0  0  0
   25.3522  -31.1075    0.0543 C   0  0  0  0  0  0  0  0  0  0  0  0
   24.9669  -30.9622    1.3798 C   0  0  0  0  0  0  0  0  0  0  0  0
   26.4719  -32.6401    4.8315 C   0  0  0  0  0  0  0  0  0  0  0  0
   26.8678  -31.8449    5.7146 O   0  0  0  0  0  0  0  0  0  0  0  0
   25.3396  -33.3979    5.0626 O   0  0  0  0  0  0  0  0  0  0  0  0
  1  2  1  0
  2  3  1  0
  3  4  1  6
  5  3  1  0
  5  6  1  6
  7  5  1  0
  7  8  2  0
  9  7  1  0
 10  9  1  0
 10 11  1  1
 12 13  2  0
 12 11  1  0
 14 10  1  0
 15 14  2  0
 16 12  1  0
 17 14  1  0
 18 19  1  6
 18 17  1  0
 20 19  1  0
 21 20  2  0
 22 23  1  0
 22 21  1  0
 23 28  2  0
 24 25  2  0
 24 23  1  0
 25 26  1  0
 26 27  2  0
 28 27  1  0
 28 20  1  0
 29 18  1  0
 30 29  2  0
 31 29  1  0
M  END
$$$$
