IDW.pdb
     RDKit          3D

 31 32  0  0  1  0  0  0  0  0999 V2000
   27.9836  -16.7831  -18.0318 C   0  0  0  0  0  0  0  0  0  0  0  0
   27.9370  -18.0901  -17.2965 C   0  0  0  0  0  0  0  0  0  0  0  0
   27.3939  -17.9240  -15.8725 C   0  0  2  0  0  0  0  0  0  0  0  0
   28.1982  -16.9005  -15.1448 C   0  0  0  0  0  0  0  0  0  0  0  0
   27.3837  -19.2759  -15.2511 C   0  0  2  0  0  0  0  0  0  0  0  0
   26.8074  -20.2133  -16.1787 N   0  0  0  0  0  0  0  0  0  0  0  0
   26.7381  -19.3272  -13.9240 C   0  0  0  0  0  0  0  0  0  0  0  0
   27.1413  -18.4605  -13.0785 O   0  0  0  0  0  0  0  0  0  0  0  0
   25.7431  -20.2351  -13.5417 N   0  0  0  0  0  0  0  0  0  0  0  0
   25.0958  -20.0560  -12.2540 C   0  0  1  0  0  0  0  0  0  0  0  0
   23.6571  -20.4786  -12.2799 C   0  0  0  0  0  0  0  0  0  0  0  0
   22.9038  -19.7517  -13.3117 C   0  0  0  0  0  0  0  0  0  0  0  0
   22.7879  -18.5020  -13.2779 O   0  0  0  0  0  0  0  0  0  0  0  0
   25.7923  -20.9468  -11.2587 C   0  0  0  0  0  0  0  0  0  0  0  0
   26.3150  -22.0278  -11.6383 O   0  0  0  0  0  0  0  0  0  0  0  0
   22.2925  -20.4484  -14.3664 O   0  0  0  0  0  0  0  0  0  0  0  0
   25.8865  -20.6172   -9.8953 N   0  0  0  0  0  0  0  0  0  0  0  0
   26.2479  -21.5290   -8.8399 C   0  0  1  0  0  0  0  0  0  0  0  0
   27.7137  -21.2348   -8.4932 C   0  0  0  0  0  0  0  0  0  0  0  0
   27.7869  -20.1586   -7.4471 C   0  0  0  0  0  0  0  0  0  0  0  0
   27.1875  -18.9183   -7.5070 C   0  0  0  0  0  0  0  0  0  0  0  0
   27.4826  -18.2417   -6.3881 N   0  0  0  0  0  0  0  0  0  0  0  0
   28.2700  -18.9916   -5.5652 C   0  0  0  0  0  0  0  0  0  0  0  0
   28.8281  -18.7533   -4.3307 C   0  0  0  0  0  0  0  0  0  0  0  0
   29.5943  -19.7165   -3.7277 C   0  0  0  0  0  0  0  0  0  0  0  0
   29.7824  -20.9189   -4.3973 C   0  0  0  0  0  0  0  0  0  0  0  0
   29.2277  -21.1600   -5.6278 C   0  0  0  0  0  0  0  0  0  0  0  0
   28.4513  -20.1861   -6.2404 C   0  0  0  0  0  0  0  0  0  0  0  0
   25.3941  -21.3743   -7.6463 C   0  0  0  0  0  0  0  0  0  0  0  0
   24.5125  -20.4846   -7.6301 O   0  0  0  0  0  0  0  0  0  0  0  0
   25.5483  -22.1934   -6.5439 O   0  0  0  0  0  0  0  0  0  0  0  0
  1  2  1  0
  2  3  1  0
  3  4  1  1
  5  3  1  0
  5  6  1  6
  7  5  1  0
  7  8  2  0
  9  7  1  0
 10  9  1  0
 10 11  1  6
 12 13  2  0
 12 11  1  0
 14 10  1  0
 15 14  2  0
 16 12  1  0
 17 14  1  0
 18 19  1  1
 18 17  1  0
 20 19  1  0
 21 20  2  0
 22 23  1  0
 22 21  1  0
 23 28  2  0
 24 25  2  0
 24 23  1  0
 25 26  1  0
 26 27  2  0
 28 27  1  0
 28 20  1  0
 29 18  1  0
 30 29  2  0
 31 29  1  0
M  END
$$$$
