IDW.pdb
     RDKit          3D

 31 32  0  0  1  0  0  0  0  0999 V2000
   30.3864  -19.1686  -19.8782 C   0  0  0  0  0  0  0  0  0  0  0  0
   30.6119  -19.2203  -18.3958 C   0  0  0  0  0  0  0  0  0  0  0  0
   29.4430  -18.6027  -17.6195 C   0  0  2  0  0  0  0  0  0  0  0  0
   29.9068  -17.3797  -16.9031 C   0  0  0  0  0  0  0  0  0  0  0  0
   28.8882  -19.6720  -16.7463 C   0  0  2  0  0  0  0  0  0  0  0  0
   28.5711  -20.8195  -17.5551 N   0  0  0  0  0  0  0  0  0  0  0  0
   27.7503  -19.2407  -15.9097 C   0  0  0  0  0  0  0  0  0  0  0  0
   28.0118  -18.3451  -15.0390 O   0  0  0  0  0  0  0  0  0  0  0  0
   26.4429  -19.7329  -16.0041 N   0  0  0  0  0  0  0  0  0  0  0  0
   25.4304  -19.1925  -15.1140 C   0  0  1  0  0  0  0  0  0  0  0  0
   24.3344  -18.4934  -15.8616 C   0  0  0  0  0  0  0  0  0  0  0  0
   23.2572  -18.0661  -14.9574 C   0  0  0  0  0  0  0  0  0  0  0  0
   23.5056  -17.6120  -13.8135 O   0  0  0  0  0  0  0  0  0  0  0  0
   24.7921  -20.3462  -14.3856 C   0  0  0  0  0  0  0  0  0  0  0  0
   24.1298  -21.2060  -15.0245 O   0  0  0  0  0  0  0  0  0  0  0  0
   21.9152  -18.1586  -15.3597 O   0  0  0  0  0  0  0  0  0  0  0  0
   24.9056  -20.5089  -12.9938 N   0  0  0  0  0  0  0  0  0  0  0  0
   24.2563  -21.5350  -12.2183 C   0  0  1  0  0  0  0  0  0  0  0  0
   25.3421  -22.1677  -11.3374 C   0  0  0  0  0  0  0  0  0  0  0  0
   25.8443  -21.1616  -10.3408 C   0  0  0  0  0  0  0  0  0  0  0  0
   25.0718  -20.3202   -9.5684 C   0  0  0  0  0  0  0  0  0  0  0  0
   25.8799  -19.5718   -8.8045 N   0  0  0  0  0  0  0  0  0  0  0  0
   27.1871  -19.8827   -9.0375 C   0  0  0  0  0  0  0  0  0  0  0  0
   28.3693  -19.4078   -8.5187 C   0  0  0  0  0  0  0  0  0  0  0  0
   29.5635  -19.9212   -8.9531 C   0  0  0  0  0  0  0  0  0  0  0  0
   29.5355  -20.9197   -9.9183 C   0  0  0  0  0  0  0  0  0  0  0  0
   28.3592  -21.3956  -10.4378 C   0  0  0  0  0  0  0  0  0  0  0  0
   27.1485  -20.8772   -9.9994 C   0  0  0  0  0  0  0  0  0  0  0  0
   23.1613  -21.0018  -11.3850 C   0  0  0  0  0  0  0  0  0  0  0  0
   22.3995  -21.7957  -10.7864 O   0  0  0  0  0  0  0  0  0  0  0  0
   22.9595  -19.6412  -11.2519 O   0  0  0  0  0  0  0  0  0  0  0  0
  1  2  1  0
  2  3  1  0
  3  4  1  1
  5  3  1  0
  5  6  1  6
  7  5  1  0
  7  8  2  0
  9  7  1  0
 10  9  1  0
 10 11  1  6
 12 13  2  0
 12 11  1  0
 14 10  1  0
 15 14  2  0
 16 12  1  0
 17 14  1  0
 18 19  1  1
 18 17  1  0
 20 19  1  0
 21 20  2  0
 22 23  1  0
 22 21  1  0
 23 28  2  0
 24 25  2  0
 24 23  1  0
 25 26  1  0
 26 27  2  0
 28 27  1  0
 28 20  1  0
 29 18  1  0
 30 29  2  0
 31 29  1  0
M  END
$$$$
