IDW.pdb
     RDKit          3D

 31 32  0  0  1  0  0  0  0  0999 V2000
   13.5510  -24.3259   -4.7339 C   0  0  0  0  0  0  0  0  0  0  0  0
   14.1336  -24.6301   -3.3851 C   0  0  0  0  0  0  0  0  0  0  0  0
   13.9297  -23.4719   -2.4016 C   0  0  2  0  0  0  0  0  0  0  0  0
   14.5750  -22.2388   -2.9376 C   0  0  0  0  0  0  0  0  0  0  0  0
   14.4417  -23.9279   -1.0812 C   0  0  2  0  0  0  0  0  0  0  0  0
   13.8974  -25.2284   -0.7917 N   0  0  0  0  0  0  0  0  0  0  0  0
   14.2209  -22.9672    0.0183 C   0  0  0  0  0  0  0  0  0  0  0  0
   14.7773  -21.8274   -0.1226 O   0  0  0  0  0  0  0  0  0  0  0  0
   13.4650  -23.2145    1.1707 N   0  0  0  0  0  0  0  0  0  0  0  0
   13.4407  -22.2067    2.2161 C   0  0  1  0  0  0  0  0  0  0  0  0
   12.1125  -22.1420    2.9094 C   0  0  0  0  0  0  0  0  0  0  0  0
   12.1349  -21.1811    4.0214 C   0  0  0  0  0  0  0  0  0  0  0  0
   13.0947  -21.1391    4.8298 O   0  0  0  0  0  0  0  0  0  0  0  0
   14.4561  -22.5971    3.2581 C   0  0  0  0  0  0  0  0  0  0  0  0
   14.5789  -23.8037    3.5973 O   0  0  0  0  0  0  0  0  0  0  0  0
   11.0719  -20.2820    4.2033 O   0  0  0  0  0  0  0  0  0  0  0  0
   15.2906  -21.6533    3.8821 N   0  0  0  0  0  0  0  0  0  0  0  0
   16.2210  -21.9365    4.9450 C   0  0  1  0  0  0  0  0  0  0  0  0
   17.5302  -21.2242    4.5790 C   0  0  0  0  0  0  0  0  0  0  0  0
   17.2861  -19.7495    4.4264 C   0  0  0  0  0  0  0  0  0  0  0  0
   17.0498  -18.8503    5.4447 C   0  0  0  0  0  0  0  0  0  0  0  0
   16.8801  -17.6314    4.9137 N   0  0  0  0  0  0  0  0  0  0  0  0
   16.9951  -17.6772    3.5557 C   0  0  0  0  0  0  0  0  0  0  0  0
   16.9055  -16.7163    2.5755 C   0  0  0  0  0  0  0  0  0  0  0  0
   17.0691  -17.0624    1.2595 C   0  0  0  0  0  0  0  0  0  0  0  0
   17.3240  -18.3944    0.9589 C   0  0  0  0  0  0  0  0  0  0  0  0
   17.4141  -19.3550    1.9331 C   0  0  0  0  0  0  0  0  0  0  0  0
   17.2487  -19.0068    3.2665 C   0  0  0  0  0  0  0  0  0  0  0  0
   15.7318  -21.4745    6.2584 C   0  0  0  0  0  0  0  0  0  0  0  0
   16.3843  -21.7508    7.2913 O   0  0  0  0  0  0  0  0  0  0  0  0
   14.5656  -20.7417    6.3713 O   0  0  0  0  0  0  0  0  0  0  0  0
  1  2  1  0
  2  3  1  0
  3  4  1  6
  5  3  1  0
  5  6  1  1
  7  5  1  0
  7  8  2  0
  9  7  1  0
 10  9  1  0
 10 11  1  1
 12 13  2  0
 12 11  1  0
 14 10  1  0
 15 14  2  0
 16 12  1  0
 17 14  1  0
 18 19  1  6
 18 17  1  0
 20 19  1  0
 21 20  2  0
 22 23  1  0
 22 21  1  0
 23 28  2  0
 24 25  2  0
 24 23  1  0
 25 26  1  0
 26 27  2  0
 28 27  1  0
 28 20  1  0
 29 18  1  0
 30 29  2  0
 31 29  1  0
M  END
$$$$
