IDW.pdb
     RDKit          3D

 31 32  0  0  1  0  0  0  0  0999 V2000
   23.7554  -20.5110   -8.2398 C   0  0  0  0  0  0  0  0  0  0  0  0
   24.9171  -21.1586   -8.9343 C   0  0  0  0  0  0  0  0  0  0  0  0
   25.0617  -20.6695  -10.3800 C   0  0  2  0  0  0  0  0  0  0  0  0
   23.7653  -20.8358  -11.0982 C   0  0  0  0  0  0  0  0  0  0  0  0
   26.2103  -21.4051  -10.9746 C   0  0  2  0  0  0  0  0  0  0  0  0
   27.3842  -21.1631  -10.1780 N   0  0  0  0  0  0  0  0  0  0  0  0
   26.4334  -21.1233  -12.4069 C   0  0  0  0  0  0  0  0  0  0  0  0
   26.8845  -19.9609  -12.6785 O   0  0  0  0  0  0  0  0  0  0  0  0
   26.1907  -22.0183  -13.4561 N   0  0  0  0  0  0  0  0  0  0  0  0
   26.4637  -21.5865  -14.8156 C   0  0  1  0  0  0  0  0  0  0  0  0
   26.7670  -22.7394  -15.7255 C   0  0  0  0  0  0  0  0  0  0  0  0
   27.4713  -22.2949  -16.9367 C   0  0  0  0  0  0  0  0  0  0  0  0
   27.0293  -21.3551  -17.6422 O   0  0  0  0  0  0  0  0  0  0  0  0
   25.2191  -20.9273  -15.3499 C   0  0  0  0  0  0  0  0  0  0  0  0
   24.0913  -21.4472  -15.1409 O   0  0  0  0  0  0  0  0  0  0  0  0
   28.6649  -22.9196  -17.3325 O   0  0  0  0  0  0  0  0  0  0  0  0
   25.2621  -19.7313  -16.0875 N   0  0  0  0  0  0  0  0  0  0  0  0
   24.1281  -19.0892  -16.7022 C   0  0  1  0  0  0  0  0  0  0  0  0
   24.2966  -17.5831  -16.4606 C   0  0  0  0  0  0  0  0  0  0  0  0
   22.9941  -16.9880  -16.0056 C   0  0  0  0  0  0  0  0  0  0  0  0
   21.7782  -17.6351  -15.9403 C   0  0  0  0  0  0  0  0  0  0  0  0
   20.8553  -16.7754  -15.4868 N   0  0  0  0  0  0  0  0  0  0  0  0
   21.4130  -15.5555  -15.2407 C   0  0  0  0  0  0  0  0  0  0  0  0
   20.8984  -14.3674  -14.7761 C   0  0  0  0  0  0  0  0  0  0  0  0
   21.7170  -13.2787  -14.6249 C   0  0  0  0  0  0  0  0  0  0  0  0
   23.0598  -13.4176  -14.9523 C   0  0  0  0  0  0  0  0  0  0  0  0
   23.5763  -14.6002  -15.4157 C   0  0  0  0  0  0  0  0  0  0  0  0
   22.7492  -15.7042  -15.5696 C   0  0  0  0  0  0  0  0  0  0  0  0
   24.0364  -19.3732  -18.1474 C   0  0  0  0  0  0  0  0  0  0  0  0
   22.9139  -19.3860  -18.7031 O   0  0  0  0  0  0  0  0  0  0  0  0
   25.1668  -19.6258  -18.9012 O   0  0  0  0  0  0  0  0  0  0  0  0
  1  2  1  0
  2  3  1  0
  3  4  1  6
  5  3  1  0
  5  6  1  1
  7  5  1  0
  7  8  2  0
  9  7  1  0
 10  9  1  0
 10 11  1  6
 12 13  2  0
 12 11  1  0
 14 10  1  0
 15 14  2  0
 16 12  1  0
 17 14  1  0
 18 19  1  6
 18 17  1  0
 20 19  1  0
 21 20  2  0
 22 23  1  0
 22 21  1  0
 23 28  2  0
 24 25  2  0
 24 23  1  0
 25 26  1  0
 26 27  2  0
 28 27  1  0
 28 20  1  0
 29 18  1  0
 30 29  2  0
 31 29  1  0
M  END
$$$$
