LQG.pdb
     RDKit          3D

 22 21  0  0  1  0  0  0  0  0999 V2000
    8.5237  -13.6695   18.8713 C   0  0  0  0  0  0  0  0  0  0  0  0
    7.6541  -13.6609   20.1055 C   0  0  2  0  0  0  0  0  0  0  0  0
    6.9404  -12.3563   20.1832 C   0  0  0  0  0  0  0  0  0  0  0  0
    8.4895  -13.9735   21.3047 C   0  0  0  0  0  0  0  0  0  0  0  0
    9.1285  -15.3175   21.3068 C   0  0  2  0  0  0  0  0  0  0  0  0
    8.2336  -16.4255   21.1900 N   0  0  0  0  0  0  0  0  0  0  0  0
    9.8702  -15.4519   22.6025 C   0  0  0  0  0  0  0  0  0  0  0  0
    9.5680  -14.7067   23.5965 O   0  0  0  0  0  0  0  0  0  0  0  0
   11.1998  -20.2021   25.9812 N   0  0  0  0  0  0  0  0  0  0  0  0
   12.2524  -19.3550   26.4310 C   0  0  0  0  0  0  0  0  0  0  0  0
   13.1122  -19.8097   27.2258 O   0  0  0  0  0  0  0  0  0  0  0  0
   12.3328  -17.9493   25.9655 C   0  0  0  0  0  0  0  0  0  0  0  0
   11.5857  -17.8182   24.6890 C   0  0  0  0  0  0  0  0  0  0  0  0
   11.6499  -16.4468   24.0750 C   0  0  2  0  0  0  0  0  0  0  0  0
   10.9192  -16.3729   22.8239 N   0  0  0  0  0  0  0  0  0  0  0  0
   13.0269  -15.9490   23.9158 C   0  0  0  0  0  0  0  0  0  0  0  0
   13.7148  -15.6151   24.8965 O   0  0  0  0  0  0  0  0  0  0  0  0
   13.5722  -15.8510   22.6191 N   0  0  0  0  0  0  0  0  0  0  0  0
   14.8761  -15.2614   22.4004 C   0  0  0  0  0  0  0  0  0  0  0  0
   15.9630  -16.2553   22.5479 C   0  0  0  0  0  0  0  0  0  0  0  0
   15.6722  -17.4386   22.8373 O   0  0  0  0  0  0  0  0  0  0  0  0
   17.2933  -15.9260   22.3775 O   0  0  0  0  0  0  0  0  0  0  0  0
  2  1  1  6
  2  3  1  0
  4  2  1  0
  5  4  1  0
  5  7  1  0
  5  6  1  1
  7  8  2  0
  9 10  1  0
 10 11  2  0
 12 10  1  0
 12 13  1  0
 14 13  1  6
 15  7  1  0
 15 14  1  0
 16 14  1  0
 16 17  2  0
 18 16  1  0
 19 18  1  0
 19 20  1  0
 20 22  1  0
 21 20  2  0
M  END
$$$$
