LQG.pdb
     RDKit          3D

 22 21  0  0  1  0  0  0  0  0999 V2000
    6.9104  -11.7303   24.9715 C   0  0  0  0  0  0  0  0  0  0  0  0
    6.3991  -12.8187   25.8845 C   0  0  2  0  0  0  0  0  0  0  0  0
    5.7588  -12.1896   27.0727 C   0  0  0  0  0  0  0  0  0  0  0  0
    7.5156  -13.7555   26.2154 C   0  0  0  0  0  0  0  0  0  0  0  0
    7.9114  -14.6894   25.1265 C   0  0  2  0  0  0  0  0  0  0  0  0
    6.9616  -15.7106   24.8150 N   0  0  0  0  0  0  0  0  0  0  0  0
    9.1855  -15.3529   25.5552 C   0  0  0  0  0  0  0  0  0  0  0  0
   10.1463  -14.6547   26.0282 O   0  0  0  0  0  0  0  0  0  0  0  0
   10.2669  -20.6867   28.4151 N   0  0  0  0  0  0  0  0  0  0  0  0
    9.7677  -19.4544   28.9251 C   0  0  0  0  0  0  0  0  0  0  0  0
    9.2550  -19.4247   30.0714 O   0  0  0  0  0  0  0  0  0  0  0  0
    9.8522  -18.2179   28.1108 C   0  0  0  0  0  0  0  0  0  0  0  0
   10.4383  -18.5486   26.7872 C   0  0  0  0  0  0  0  0  0  0  0  0
   10.6657  -17.3570   25.8984 C   0  0  2  0  0  0  0  0  0  0  0  0
    9.4206  -16.7444   25.4755 N   0  0  0  0  0  0  0  0  0  0  0  0
   11.5302  -17.6543   24.7435 C   0  0  0  0  0  0  0  0  0  0  0  0
   12.6114  -18.2538   24.8781 O   0  0  0  0  0  0  0  0  0  0  0  0
   11.1168  -17.2473   23.4582 N   0  0  0  0  0  0  0  0  0  0  0  0
   11.9255  -17.5277   22.2907 C   0  0  0  0  0  0  0  0  0  0  0  0
   13.0205  -16.5449   22.1289 C   0  0  0  0  0  0  0  0  0  0  0  0
   13.6624  -16.5187   21.0538 O   0  0  0  0  0  0  0  0  0  0  0  0
   13.3634  -15.6506   23.1237 O   0  0  0  0  0  0  0  0  0  0  0  0
  2  1  1  6
  2  3  1  0
  4  2  1  0
  5  4  1  0
  5  7  1  0
  5  6  1  1
  7  8  2  0
  9 10  1  0
 10 11  2  0
 12 10  1  0
 12 13  1  0
 14 13  1  6
 15  7  1  0
 15 14  1  0
 16 14  1  0
 16 17  2  0
 18 16  1  0
 19 18  1  0
 19 20  1  0
 20 22  1  0
 21 20  2  0
M  END
$$$$
