LQG.pdb
     RDKit          3D

 22 21  0  0  1  0  0  0  0  0999 V2000
    6.4461  -12.3663   24.4220 C   0  0  0  0  0  0  0  0  0  0  0  0
    6.2548  -12.8876   25.8260 C   0  0  2  0  0  0  0  0  0  0  0  0
    6.5884  -11.8044   26.7918 C   0  0  0  0  0  0  0  0  0  0  0  0
    7.0559  -14.1363   26.0064 C   0  0  0  0  0  0  0  0  0  0  0  0
    6.7371  -15.2430   25.0640 C   0  0  2  0  0  0  0  0  0  0  0  0
    5.6775  -16.1119   25.4698 N   0  0  0  0  0  0  0  0  0  0  0  0
    7.9813  -16.0650   24.9109 C   0  0  0  0  0  0  0  0  0  0  0  0
    8.2707  -16.9604   25.7764 O   0  0  0  0  0  0  0  0  0  0  0  0
   11.4193  -19.8609   20.9224 N   0  0  0  0  0  0  0  0  0  0  0  0
   11.4647  -18.4410   20.8252 C   0  0  0  0  0  0  0  0  0  0  0  0
   11.2552  -17.8924   19.7149 O   0  0  0  0  0  0  0  0  0  0  0  0
   11.7567  -17.6175   22.0235 C   0  0  0  0  0  0  0  0  0  0  0  0
   10.6125  -16.7050   22.2748 C   0  0  0  0  0  0  0  0  0  0  0  0
   10.0273  -16.8157   23.6557 C   0  0  2  0  0  0  0  0  0  0  0  0
    8.8979  -15.9249   23.8442 N   0  0  0  0  0  0  0  0  0  0  0  0
   11.0270  -16.6386   24.7228 C   0  0  0  0  0  0  0  0  0  0  0  0
   11.6808  -15.5864   24.8329 O   0  0  0  0  0  0  0  0  0  0  0  0
   11.2433  -17.6898   25.6374 N   0  0  0  0  0  0  0  0  0  0  0  0
   12.2479  -17.5821   26.6741 C   0  0  0  0  0  0  0  0  0  0  0  0
   12.3243  -18.8093   27.4982 C   0  0  0  0  0  0  0  0  0  0  0  0
   11.5291  -19.7490   27.2678 O   0  0  0  0  0  0  0  0  0  0  0  0
   13.2442  -18.9587   28.5174 O   0  0  0  0  0  0  0  0  0  0  0  0
  2  1  1  6
  2  3  1  0
  4  2  1  0
  5  4  1  0
  5  7  1  0
  5  6  1  1
  7  8  2  0
  9 10  1  0
 10 11  2  0
 12 10  1  0
 12 13  1  0
 14 13  1  6
 15  7  1  0
 15 14  1  0
 16 14  1  0
 16 17  2  0
 18 16  1  0
 19 18  1  0
 19 20  1  0
 20 22  1  0
 21 20  2  0
M  END
$$$$
