LQG.pdb
     RDKit          3D

 22 21  0  0  1  0  0  0  0  0999 V2000
    8.2207  -14.3829   19.0323 C   0  0  0  0  0  0  0  0  0  0  0  0
    7.3285  -13.4981   19.8694 C   0  0  2  0  0  0  0  0  0  0  0  0
    7.5228  -12.0827   19.4496 C   0  0  0  0  0  0  0  0  0  0  0  0
    7.5972  -13.7490   21.3180 C   0  0  0  0  0  0  0  0  0  0  0  0
    7.3955  -15.1515   21.7728 C   0  0  2  0  0  0  0  0  0  0  0  0
    6.0362  -15.5864   21.8451 N   0  0  0  0  0  0  0  0  0  0  0  0
    7.9938  -15.2619   23.1429 C   0  0  0  0  0  0  0  0  0  0  0  0
    7.3811  -14.7734   24.1531 O   0  0  0  0  0  0  0  0  0  0  0  0
    7.0904  -18.9676   26.5727 N   0  0  0  0  0  0  0  0  0  0  0  0
    8.2057  -18.5514   27.3543 C   0  0  0  0  0  0  0  0  0  0  0  0
    8.3749  -19.0436   28.4974 O   0  0  0  0  0  0  0  0  0  0  0  0
    9.1584  -17.5463   26.8238 C   0  0  0  0  0  0  0  0  0  0  0  0
    8.7051  -17.1121   25.4781 C   0  0  0  0  0  0  0  0  0  0  0  0
    9.6683  -16.2022   24.7668 C   0  0  2  0  0  0  0  0  0  0  0  0
    9.2305  -15.8875   23.4200 N   0  0  0  0  0  0  0  0  0  0  0  0
   11.0515  -16.7084   24.7708 C   0  0  0  0  0  0  0  0  0  0  0  0
   11.6269  -17.0188   25.8286 O   0  0  0  0  0  0  0  0  0  0  0  0
   11.7335  -16.8418   23.5439 N   0  0  0  0  0  0  0  0  0  0  0  0
   13.1051  -17.3025   23.4989 C   0  0  0  0  0  0  0  0  0  0  0  0
   14.0644  -16.2065   23.7626 C   0  0  0  0  0  0  0  0  0  0  0  0
   14.1766  -15.7614   24.9278 O   0  0  0  0  0  0  0  0  0  0  0  0
   14.8450  -15.6525   22.7671 O   0  0  0  0  0  0  0  0  0  0  0  0
  2  1  1  6
  2  3  1  0
  4  2  1  0
  5  4  1  0
  5  7  1  0
  5  6  1  1
  7  8  2  0
  9 10  1  0
 10 11  2  0
 12 10  1  0
 12 13  1  0
 14 13  1  6
 15  7  1  0
 15 14  1  0
 16 14  1  0
 16 17  2  0
 18 16  1  0
 19 18  1  0
 19 20  1  0
 20 22  1  0
 21 20  2  0
M  END
$$$$
