LQG.pdb
     RDKit          3D

 22 21  0  0  1  0  0  0  0  0999 V2000
    5.6886  -12.1565   27.6513 C   0  0  0  0  0  0  0  0  0  0  0  0
    6.4901  -12.3336   26.3841 C   0  0  2  0  0  0  0  0  0  0  0  0
    6.2547  -11.1608   25.4972 C   0  0  0  0  0  0  0  0  0  0  0  0
    6.1516  -13.6493   25.7613 C   0  0  0  0  0  0  0  0  0  0  0  0
    7.2007  -14.6989   25.8729 C   0  0  2  0  0  0  0  0  0  0  0  0
    8.4113  -14.2943   26.5156 N   0  0  0  0  0  0  0  0  0  0  0  0
    7.5368  -15.1373   24.4793 C   0  0  0  0  0  0  0  0  0  0  0  0
    6.7870  -15.9750   23.8705 O   0  0  0  0  0  0  0  0  0  0  0  0
    9.2777  -12.7505   19.0491 N   0  0  0  0  0  0  0  0  0  0  0  0
    7.9776  -13.3041   19.2252 C   0  0  0  0  0  0  0  0  0  0  0  0
    7.1469  -13.2367   18.2855 O   0  0  0  0  0  0  0  0  0  0  0  0
    7.6078  -13.9539   20.5059 C   0  0  0  0  0  0  0  0  0  0  0  0
    8.7511  -13.8535   21.4479 C   0  0  0  0  0  0  0  0  0  0  0  0
    8.8982  -15.0346   22.3672 C   0  0  2  0  0  0  0  0  0  0  0  0
    8.6610  -14.6814   23.7541 N   0  0  0  0  0  0  0  0  0  0  0  0
   10.1858  -15.7323   22.2098 C   0  0  0  0  0  0  0  0  0  0  0  0
   10.5802  -16.1258   21.0980 O   0  0  0  0  0  0  0  0  0  0  0  0
   10.9852  -15.9561   23.3497 N   0  0  0  0  0  0  0  0  0  0  0  0
   12.2470  -16.6586   23.2500 C   0  0  0  0  0  0  0  0  0  0  0  0
   12.1166  -18.0838   23.6278 C   0  0  0  0  0  0  0  0  0  0  0  0
   10.9753  -18.5953   23.6936 O   0  0  0  0  0  0  0  0  0  0  0  0
   13.2116  -18.8759   23.9121 O   0  0  0  0  0  0  0  0  0  0  0  0
  2  1  1  1
  2  3  1  0
  4  2  1  0
  5  4  1  0
  5  7  1  0
  5  6  1  6
  7  8  2  0
  9 10  1  0
 10 11  2  0
 12 10  1  0
 12 13  1  0
 14 13  1  6
 15  7  1  0
 15 14  1  0
 16 14  1  0
 16 17  2  0
 18 16  1  0
 19 18  1  0
 19 20  1  0
 20 22  1  0
 21 20  2  0
M  END
$$$$
