LQG.pdb
     RDKit          3D

 22 21  0  0  1  0  0  0  0  0999 V2000
    7.1580  -11.5949   24.8735 C   0  0  0  0  0  0  0  0  0  0  0  0
    6.2743  -12.4253   25.7729 C   0  0  2  0  0  0  0  0  0  0  0  0
    5.7427  -11.5579   26.8603 C   0  0  0  0  0  0  0  0  0  0  0  0
    7.0367  -13.6160   26.2575 C   0  0  0  0  0  0  0  0  0  0  0  0
    7.6694  -14.4459   25.1967 C   0  0  2  0  0  0  0  0  0  0  0  0
    6.7643  -15.1313   24.3287 N   0  0  0  0  0  0  0  0  0  0  0  0
    8.5201  -15.4700   25.8858 C   0  0  0  0  0  0  0  0  0  0  0  0
    9.2694  -15.1302   26.8643 O   0  0  0  0  0  0  0  0  0  0  0  0
    7.6583  -21.4364   27.1939 N   0  0  0  0  0  0  0  0  0  0  0  0
    7.0936  -20.2716   27.7872 C   0  0  0  0  0  0  0  0  0  0  0  0
    6.1219  -20.3904   28.5742 O   0  0  0  0  0  0  0  0  0  0  0  0
    7.6473  -18.9308   27.4790 C   0  0  0  0  0  0  0  0  0  0  0  0
    8.7564  -19.0775   26.5027 C   0  0  0  0  0  0  0  0  0  0  0  0
    9.4534  -17.7889   26.1630 C   0  0  2  0  0  0  0  0  0  0  0  0
    8.5630  -16.8364   25.5270 N   0  0  0  0  0  0  0  0  0  0  0  0
   10.6764  -17.9862   25.3663 C   0  0  0  0  0  0  0  0  0  0  0  0
   11.5805  -18.7529   25.7424 O   0  0  0  0  0  0  0  0  0  0  0  0
   10.8196  -17.2870   24.1502 N   0  0  0  0  0  0  0  0  0  0  0  0
   11.9572  -17.5189   23.2856 C   0  0  0  0  0  0  0  0  0  0  0  0
   13.0419  -16.5409   23.5263 C   0  0  0  0  0  0  0  0  0  0  0  0
   12.7749  -15.3174   23.5082 O   0  0  0  0  0  0  0  0  0  0  0  0
   14.3447  -16.9280   23.7713 O   0  0  0  0  0  0  0  0  0  0  0  0
  2  1  1  6
  2  3  1  0
  4  2  1  0
  5  4  1  0
  5  7  1  0
  5  6  1  1
  7  8  2  0
  9 10  1  0
 10 11  2  0
 12 10  1  0
 12 13  1  0
 14 13  1  6
 15  7  1  0
 15 14  1  0
 16 14  1  0
 16 17  2  0
 18 16  1  0
 19 18  1  0
 19 20  1  0
 20 22  1  0
 21 20  2  0
M  END
$$$$
