LQG.pdb
     RDKit          3D

 22 21  0  0  1  0  0  0  0  0999 V2000
    7.5291  -12.5748   27.7778 C   0  0  0  0  0  0  0  0  0  0  0  0
    6.8068  -12.4435   26.4585 C   0  0  2  0  0  0  0  0  0  0  0  0
    5.7308  -11.4235   26.5977 C   0  0  0  0  0  0  0  0  0  0  0  0
    6.3225  -13.7878   26.0206 C   0  0  0  0  0  0  0  0  0  0  0  0
    7.3800  -14.8161   25.8235 C   0  0  2  0  0  0  0  0  0  0  0  0
    8.6915  -14.4407   26.2493 N   0  0  0  0  0  0  0  0  0  0  0  0
    7.4348  -15.1176   24.3561 C   0  0  0  0  0  0  0  0  0  0  0  0
    6.4388  -15.6707   23.7758 O   0  0  0  0  0  0  0  0  0  0  0  0
    8.0265  -12.1321   19.4597 N   0  0  0  0  0  0  0  0  0  0  0  0
    8.1817  -13.4260   18.8857 C   0  0  0  0  0  0  0  0  0  0  0  0
    8.0783  -13.5646   17.6416 O   0  0  0  0  0  0  0  0  0  0  0  0
    8.4627  -14.5990   19.7486 C   0  0  0  0  0  0  0  0  0  0  0  0
    8.4681  -14.1655   21.1687 C   0  0  0  0  0  0  0  0  0  0  0  0
    8.6401  -15.2875   22.1553 C   0  0  2  0  0  0  0  0  0  0  0  0
    8.5431  -14.8285   23.5280 N   0  0  0  0  0  0  0  0  0  0  0  0
    9.8745  -16.0618   21.9402 C   0  0  0  0  0  0  0  0  0  0  0  0
   10.9715  -15.6701   22.3756 O   0  0  0  0  0  0  0  0  0  0  0  0
    9.8041  -17.2741   21.2235 N   0  0  0  0  0  0  0  0  0  0  0  0
   10.9587  -18.1394   21.1058 C   0  0  0  0  0  0  0  0  0  0  0  0
   11.8079  -17.7724   19.9503 C   0  0  0  0  0  0  0  0  0  0  0  0
   11.4627  -16.8160   19.2192 O   0  0  0  0  0  0  0  0  0  0  0  0
   12.9732  -18.4482   19.6458 O   0  0  0  0  0  0  0  0  0  0  0  0
  2  1  1  1
  2  3  1  0
  4  2  1  0
  5  4  1  0
  5  7  1  0
  5  6  1  6
  7  8  2  0
  9 10  1  0
 10 11  2  0
 12 10  1  0
 12 13  1  0
 14 13  1  6
 15  7  1  0
 15 14  1  0
 16 14  1  0
 16 17  2  0
 18 16  1  0
 19 18  1  0
 19 20  1  0
 20 22  1  0
 21 20  2  0
M  END
$$$$
