LQG.pdb
     RDKit          3D

 22 21  0  0  1  0  0  0  0  0999 V2000
    5.5985  -12.0607   27.3367 C   0  0  0  0  0  0  0  0  0  0  0  0
    6.7288  -12.2452   26.3530 C   0  0  2  0  0  0  0  0  0  0  0  0
    7.2278  -10.9057   25.9356 C   0  0  0  0  0  0  0  0  0  0  0  0
    6.2680  -13.1062   25.2216 C   0  0  0  0  0  0  0  0  0  0  0  0
    6.6968  -14.5298   25.2849 C   0  0  2  0  0  0  0  0  0  0  0  0
    7.7576  -14.8137   26.1994 N   0  0  0  0  0  0  0  0  0  0  0  0
    7.1513  -14.9157   23.9095 C   0  0  0  0  0  0  0  0  0  0  0  0
    6.3476  -14.8289   22.9190 O   0  0  0  0  0  0  0  0  0  0  0  0
    8.9078  -12.3419   19.6281 N   0  0  0  0  0  0  0  0  0  0  0  0
    8.1573  -13.4758   19.2054 C   0  0  0  0  0  0  0  0  0  0  0  0
    7.6076  -13.4647   18.0761 O   0  0  0  0  0  0  0  0  0  0  0  0
    8.0258  -14.6588   20.0901 C   0  0  0  0  0  0  0  0  0  0  0  0
    8.6850  -14.3684   21.3885 C   0  0  0  0  0  0  0  0  0  0  0  0
    8.9173  -15.5811   22.2471 C   0  0  2  0  0  0  0  0  0  0  0  0
    8.4488  -15.3870   23.6062 N   0  0  0  0  0  0  0  0  0  0  0  0
   10.3158  -16.0429   22.2283 C   0  0  0  0  0  0  0  0  0  0  0  0
   10.8351  -16.5013   21.1956 O   0  0  0  0  0  0  0  0  0  0  0  0
   11.0781  -15.9607   23.4117 N   0  0  0  0  0  0  0  0  0  0  0  0
   11.7628  -17.1214   23.9404 C   0  0  0  0  0  0  0  0  0  0  0  0
   13.0943  -17.3064   23.3208 C   0  0  0  0  0  0  0  0  0  0  0  0
   13.4586  -16.5241   22.4133 O   0  0  0  0  0  0  0  0  0  0  0  0
   13.9554  -18.3146   23.7074 O   0  0  0  0  0  0  0  0  0  0  0  0
  2  1  1  1
  2  3  1  0
  4  2  1  0
  5  4  1  0
  5  7  1  0
  5  6  1  1
  7  8  2  0
  9 10  1  0
 10 11  2  0
 12 10  1  0
 12 13  1  0
 14 13  1  6
 15  7  1  0
 15 14  1  0
 16 14  1  0
 16 17  2  0
 18 16  1  0
 19 18  1  0
 19 20  1  0
 20 22  1  0
 21 20  2  0
M  END
$$$$
