LQG.pdb
     RDKit          3D

 22 21  0  0  1  0  0  0  0  0999 V2000
    8.0133  -12.2542   18.8348 C   0  0  0  0  0  0  0  0  0  0  0  0
    7.8309  -13.5034   19.6629 C   0  0  2  0  0  0  0  0  0  0  0  0
    7.2159  -13.1314   20.9671 C   0  0  0  0  0  0  0  0  0  0  0  0
    9.1394  -14.2151   19.7844 C   0  0  0  0  0  0  0  0  0  0  0  0
    9.7919  -14.5789   18.4974 C   0  0  2  0  0  0  0  0  0  0  0  0
    9.0488  -15.4659   17.6588 N   0  0  0  0  0  0  0  0  0  0  0  0
   11.0955  -15.2382   18.8339 C   0  0  0  0  0  0  0  0  0  0  0  0
   11.1801  -16.5133   18.8713 O   0  0  0  0  0  0  0  0  0  0  0  0
   15.7819  -16.5024   17.3802 N   0  0  0  0  0  0  0  0  0  0  0  0
   15.1887  -15.4465   16.6311 C   0  0  0  0  0  0  0  0  0  0  0  0
   15.1558  -15.5234   15.3778 O   0  0  0  0  0  0  0  0  0  0  0  0
   14.6153  -14.2674   17.3239 C   0  0  0  0  0  0  0  0  0  0  0  0
   14.7153  -14.4716   18.7913 C   0  0  0  0  0  0  0  0  0  0  0  0
   13.5473  -15.2032   19.3931 C   0  0  2  0  0  0  0  0  0  0  0  0
   12.2871  -14.5362   19.1253 N   0  0  0  0  0  0  0  0  0  0  0  0
   13.7117  -15.4694   20.8324 C   0  0  0  0  0  0  0  0  0  0  0  0
   13.7291  -14.5469   21.6661 O   0  0  0  0  0  0  0  0  0  0  0  0
   13.8522  -16.8029   21.2686 N   0  0  0  0  0  0  0  0  0  0  0  0
   13.8456  -17.1314   22.6785 C   0  0  0  0  0  0  0  0  0  0  0  0
   15.2027  -17.0689   23.2661 C   0  0  0  0  0  0  0  0  0  0  0  0
   16.1746  -16.7883   22.5279 O   0  0  0  0  0  0  0  0  0  0  0  0
   15.4397  -17.3097   24.6052 O   0  0  0  0  0  0  0  0  0  0  0  0
  2  1  1  6
  2  3  1  0
  4  2  1  0
  5  4  1  0
  5  7  1  0
  5  6  1  1
  7  8  2  0
  9 10  1  0
 10 11  2  0
 12 10  1  0
 12 13  1  0
 14 13  1  1
 15  7  1  0
 15 14  1  0
 16 14  1  0
 16 17  2  0
 18 16  1  0
 19 18  1  0
 19 20  1  0
 20 22  1  0
 21 20  2  0
M  END
$$$$
