LQG.pdb
     RDKit          3D

 22 21  0  0  1  0  0  0  0  0999 V2000
    8.7164  -13.8069   19.5595 C   0  0  0  0  0  0  0  0  0  0  0  0
    7.4831  -14.2908   20.2836 C   0  0  2  0  0  0  0  0  0  0  0  0
    6.3732  -13.3279   20.0416 C   0  0  0  0  0  0  0  0  0  0  0  0
    7.8051  -14.5027   21.7276 C   0  0  0  0  0  0  0  0  0  0  0  0
    8.9195  -15.4500   22.0024 C   0  0  2  0  0  0  0  0  0  0  0  0
    8.5471  -16.8257   22.1072 N   0  0  0  0  0  0  0  0  0  0  0  0
    9.5415  -15.0351   23.3017 C   0  0  0  0  0  0  0  0  0  0  0  0
    9.4829  -13.8160   23.6821 O   0  0  0  0  0  0  0  0  0  0  0  0
   11.4764  -16.7890   29.8876 N   0  0  0  0  0  0  0  0  0  0  0  0
   10.4813  -16.6035   28.8860 C   0  0  0  0  0  0  0  0  0  0  0  0
    9.5101  -17.3980   28.8279 O   0  0  0  0  0  0  0  0  0  0  0  0
   10.5903  -15.4830   27.9207 C   0  0  0  0  0  0  0  0  0  0  0  0
   10.0139  -15.9067   26.6196 C   0  0  0  0  0  0  0  0  0  0  0  0
   10.8184  -15.4834   25.4216 C   0  0  2  0  0  0  0  0  0  0  0  0
   10.2150  -15.9181   24.1760 N   0  0  0  0  0  0  0  0  0  0  0  0
   12.2306  -15.8946   25.4994 C   0  0  0  0  0  0  0  0  0  0  0  0
   13.0751  -15.2085   26.1014 O   0  0  0  0  0  0  0  0  0  0  0  0
   12.6278  -17.0949   24.8749 N   0  0  0  0  0  0  0  0  0  0  0  0
   12.9581  -17.1291   23.4659 C   0  0  0  0  0  0  0  0  0  0  0  0
   14.3406  -16.6651   23.2117 C   0  0  0  0  0  0  0  0  0  0  0  0
   14.7007  -15.5504   23.6545 O   0  0  0  0  0  0  0  0  0  0  0  0
   15.2538  -17.4187   22.5008 O   0  0  0  0  0  0  0  0  0  0  0  0
  2  1  1  6
  2  3  1  0
  4  2  1  0
  5  4  1  0
  5  7  1  0
  5  6  1  1
  7  8  2  0
  9 10  1  0
 10 11  2  0
 12 10  1  0
 12 13  1  0
 14 13  1  1
 15  7  1  0
 15 14  1  0
 16 14  1  0
 16 17  2  0
 18 16  1  0
 19 18  1  0
 19 20  1  0
 20 22  1  0
 21 20  2  0
M  END
$$$$
