LQG.pdb
     RDKit          3D

 22 21  0  0  1  0  0  0  0  0999 V2000
    8.8207  -14.1166   18.6733 C   0  0  0  0  0  0  0  0  0  0  0  0
    7.7345  -13.6299   19.6022 C   0  0  2  0  0  0  0  0  0  0  0  0
    7.2079  -12.3343   19.0910 C   0  0  0  0  0  0  0  0  0  0  0  0
    8.2652  -13.5667   20.9979 C   0  0  0  0  0  0  0  0  0  0  0  0
    8.7617  -14.8551   21.5528 C   0  0  2  0  0  0  0  0  0  0  0  0
    7.8709  -15.9652   21.4250 N   0  0  0  0  0  0  0  0  0  0  0  0
    9.0258  -14.6351   23.0119 C   0  0  0  0  0  0  0  0  0  0  0  0
    9.8213  -13.7078   23.3886 O   0  0  0  0  0  0  0  0  0  0  0  0
    7.1764  -12.7608   27.9175 N   0  0  0  0  0  0  0  0  0  0  0  0
    6.5591  -12.6547   26.6386 C   0  0  0  0  0  0  0  0  0  0  0  0
    5.9109  -11.6178   26.3516 O   0  0  0  0  0  0  0  0  0  0  0  0
    6.6804  -13.7578   25.6549 C   0  0  0  0  0  0  0  0  0  0  0  0
    7.5054  -14.8431   26.2433 C   0  0  0  0  0  0  0  0  0  0  0  0
    8.7384  -15.1793   25.4505 C   0  0  2  0  0  0  0  0  0  0  0  0
    8.4432  -15.4006   24.0475 N   0  0  0  0  0  0  0  0  0  0  0  0
    9.5000  -16.3056   26.0168 C   0  0  0  0  0  0  0  0  0  0  0  0
    9.4634  -16.5697   27.2315 O   0  0  0  0  0  0  0  0  0  0  0  0
   10.2870  -17.0990   25.1568 N   0  0  0  0  0  0  0  0  0  0  0  0
   10.9396  -18.2986   25.6372 C   0  0  0  0  0  0  0  0  0  0  0  0
   11.5987  -19.0446   24.5417 C   0  0  0  0  0  0  0  0  0  0  0  0
   10.9234  -19.3859   23.5438 O   0  0  0  0  0  0  0  0  0  0  0  0
   12.9377  -19.3809   24.5782 O   0  0  0  0  0  0  0  0  0  0  0  0
  2  1  1  6
  2  3  1  0
  4  2  1  0
  5  4  1  0
  5  7  1  0
  5  6  1  1
  7  8  2  0
  9 10  1  0
 10 11  2  0
 12 10  1  0
 12 13  1  0
 14 13  1  1
 15  7  1  0
 15 14  1  0
 16 14  1  0
 16 17  2  0
 18 16  1  0
 19 18  1  0
 19 20  1  0
 20 22  1  0
 21 20  2  0
M  END
$$$$
