YDV.pdb
     RDKit          3D

 28 28  0  0  1  0  0  0  0  0999 V2000
    9.1541  -11.8724   19.5530 O   0  0  0  0  0  0  0  0  0  0  0  0
    8.3421  -12.9124   20.0191 C   0  0  0  0  0  0  0  0  0  0  0  0
    7.8591  -12.8633   21.3053 C   0  0  0  0  0  0  0  0  0  0  0  0
    7.0496  -13.8805   21.7982 C   0  0  0  0  0  0  0  0  0  0  0  0
    6.7231  -14.9497   21.0030 C   0  0  0  0  0  0  0  0  0  0  0  0
    5.8727  -16.0304   21.5220 C   0  0  0  0  0  0  0  0  0  0  0  0
    6.6003  -17.3337   21.7702 C   0  0  2  0  0  0  0  0  0  0  0  0
    5.6029  -18.3814   21.9451 N   0  0  0  0  0  0  0  0  0  0  0  0
    7.4605  -17.1929   22.9537 C   0  0  0  0  0  0  0  0  0  0  0  0
    6.9502  -17.2089   24.0952 O   0  0  0  0  0  0  0  0  0  0  0  0
    7.2138  -14.9835   19.7201 C   0  0  0  0  0  0  0  0  0  0  0  0
    8.0192  -13.9853   19.2080 C   0  0  0  0  0  0  0  0  0  0  0  0
    8.8926  -17.0336   22.9096 N   0  0  0  0  0  0  0  0  0  0  0  0
    9.6761  -16.9699   24.1105 C   0  0  1  0  0  0  0  0  0  0  0  0
   11.0942  -17.4283   23.8626 C   0  0  0  0  0  0  0  0  0  0  0  0
   11.1883  -18.8058   23.4041 C   0  0  0  0  0  0  0  0  0  0  0  0
   10.7466  -19.7791   24.0723 O   0  0  0  0  0  0  0  0  0  0  0  0
    9.6571  -15.6007   24.7168 C   0  0  0  0  0  0  0  0  0  0  0  0
   10.2671  -14.6475   24.1810 O   0  0  0  0  0  0  0  0  0  0  0  0
   11.7816  -19.1060   22.1881 O   0  0  0  0  0  0  0  0  0  0  0  0
    6.7509  -13.9830   27.2099 C   0  0  0  0  0  0  0  0  0  0  0  0
    8.0290  -13.2594   26.8297 C   0  0  2  0  0  0  0  0  0  0  0  0
    7.7925  -12.5901   25.4983 C   0  0  0  0  0  0  0  0  0  0  0  0
    9.2028  -14.2183   26.8035 C   0  0  2  0  0  0  0  0  0  0  0  0
    8.9463  -15.3375   25.9194 N   0  0  0  0  0  0  0  0  0  0  0  0
    9.6066  -14.6523   28.1511 C   0  0  0  0  0  0  0  0  0  0  0  0
    9.5070  -15.8734   28.4375 O   0  0  0  0  0  0  0  0  0  0  0  0
   10.0897  -13.8101   29.1270 O   0  0  0  0  0  0  0  0  0  0  0  0
  2  1  1  0
  2 12  2  0
  3  2  1  0
  4  3  2  0
  4  5  1  0
  5 11  2  0
  6  5  1  0
  7  8  1  1
  7  6  1  0
  9  7  1  0
 10  9  2  0
 11 12  1  0
 13  9  1  0
 14 13  1  0
 14 15  1  6
 15 16  1  0
 16 20  1  0
 17 16  2  0
 18 14  1  0
 19 18  2  0
 22 21  1  6
 22 23  1  0
 22 24  1  0
 24 26  1  0
 24 25  1  6
 25 18  1  0
 26 28  1  0
 27 26  2  0
M  END
$$$$
