YDV.pdb
     RDKit          3D

 28 28  0  0  1  0  0  0  0  0999 V2000
    7.6807  -13.4803   14.3179 O   0  0  0  0  0  0  0  0  0  0  0  0
    7.5903  -13.7906   15.6794 C   0  0  0  0  0  0  0  0  0  0  0  0
    7.1896  -15.0504   16.0566 C   0  0  0  0  0  0  0  0  0  0  0  0
    7.0901  -15.3902   17.4010 C   0  0  0  0  0  0  0  0  0  0  0  0
    7.3912  -14.4675   18.3705 C   0  0  0  0  0  0  0  0  0  0  0  0
    7.2814  -14.8205   19.7932 C   0  0  0  0  0  0  0  0  0  0  0  0
    8.6030  -14.8704   20.5284 C   0  0  2  0  0  0  0  0  0  0  0  0
    9.5011  -15.7434   19.7839 N   0  0  0  0  0  0  0  0  0  0  0  0
    8.3795  -15.3541   21.8983 C   0  0  0  0  0  0  0  0  0  0  0  0
    7.3551  -14.9984   22.5209 O   0  0  0  0  0  0  0  0  0  0  0  0
    7.7903  -13.2130   17.9769 C   0  0  0  0  0  0  0  0  0  0  0  0
    7.8970  -12.8521   16.6481 C   0  0  0  0  0  0  0  0  0  0  0  0
    9.2709  -16.2356   22.6101 N   0  0  0  0  0  0  0  0  0  0  0  0
    9.0521  -16.5677   23.9892 C   0  0  1  0  0  0  0  0  0  0  0  0
    9.8655  -17.7739   24.3964 C   0  0  0  0  0  0  0  0  0  0  0  0
    9.6685  -18.9271   23.5315 C   0  0  0  0  0  0  0  0  0  0  0  0
    8.5423  -19.2436   23.0622 O   0  0  0  0  0  0  0  0  0  0  0  0
    9.3314  -15.4069   24.8932 C   0  0  0  0  0  0  0  0  0  0  0  0
   10.4286  -14.8051   24.8532 O   0  0  0  0  0  0  0  0  0  0  0  0
   10.7363  -19.7396   23.1844 O   0  0  0  0  0  0  0  0  0  0  0  0
    6.1077  -13.6206   27.1973 C   0  0  0  0  0  0  0  0  0  0  0  0
    7.3618  -12.9065   26.7293 C   0  0  2  0  0  0  0  0  0  0  0  0
    7.0788  -12.3444   25.3579 C   0  0  0  0  0  0  0  0  0  0  0  0
    8.5524  -13.8448   26.7439 C   0  0  2  0  0  0  0  0  0  0  0  0
    8.3609  -14.9497   25.8260 N   0  0  0  0  0  0  0  0  0  0  0  0
    8.8953  -14.2996   28.1014 C   0  0  0  0  0  0  0  0  0  0  0  0
    8.7830  -15.5248   28.3644 O   0  0  0  0  0  0  0  0  0  0  0  0
    9.3340  -13.4727   29.1108 O   0  0  0  0  0  0  0  0  0  0  0  0
  2  1  1  0
  2 12  2  0
  3  2  1  0
  4  3  2  0
  4  5  1  0
  5 11  2  0
  6  5  1  0
  7  8  1  6
  7  6  1  0
  9  7  1  0
 10  9  2  0
 11 12  1  0
 13  9  1  0
 14 13  1  0
 14 15  1  1
 15 16  1  0
 16 20  1  0
 17 16  2  0
 18 14  1  0
 19 18  2  0
 22 21  1  6
 22 23  1  0
 22 24  1  0
 24 26  1  0
 24 25  1  6
 25 18  1  0
 26 28  1  0
 27 26  2  0
M  END
$$$$
