YDV.pdb
     RDKit          3D

 28 28  0  0  1  0  0  0  0  0999 V2000
    7.2022  -12.2177   17.4188 O   0  0  0  0  0  0  0  0  0  0  0  0
    7.4303  -12.9182   18.6085 C   0  0  0  0  0  0  0  0  0  0  0  0
    6.3925  -13.0985   19.4921 C   0  0  0  0  0  0  0  0  0  0  0  0
    6.5864  -13.7902   20.6823 C   0  0  0  0  0  0  0  0  0  0  0  0
    7.8215  -14.3020   20.9901 C   0  0  0  0  0  0  0  0  0  0  0  0
    8.0326  -15.0287   22.2503 C   0  0  0  0  0  0  0  0  0  0  0  0
    8.5263  -16.4485   22.0778 C   0  0  2  0  0  0  0  0  0  0  0  0
    7.3661  -17.3112   21.8972 N   0  0  0  0  0  0  0  0  0  0  0  0
    9.3183  -16.8345   23.2544 C   0  0  0  0  0  0  0  0  0  0  0  0
    8.7414  -17.2862   24.2677 O   0  0  0  0  0  0  0  0  0  0  0  0
    8.8480  -14.1133   20.0965 C   0  0  0  0  0  0  0  0  0  0  0  0
    8.6798  -13.4303   18.9080 C   0  0  0  0  0  0  0  0  0  0  0  0
   10.7537  -16.7345   23.3428 N   0  0  0  0  0  0  0  0  0  0  0  0
   11.4625  -17.1548   24.5179 C   0  0  1  0  0  0  0  0  0  0  0  0
   12.8618  -17.6119   24.1777 C   0  0  0  0  0  0  0  0  0  0  0  0
   12.9023  -18.6572   23.1666 C   0  0  0  0  0  0  0  0  0  0  0  0
   12.1666  -19.6796   23.2123 O   0  0  0  0  0  0  0  0  0  0  0  0
   11.4916  -16.0840   25.5644 C   0  0  0  0  0  0  0  0  0  0  0  0
   12.3652  -15.1872   25.5484 O   0  0  0  0  0  0  0  0  0  0  0  0
   13.7722  -18.5659   22.0915 O   0  0  0  0  0  0  0  0  0  0  0  0
    8.1967  -14.7660   27.8516 C   0  0  0  0  0  0  0  0  0  0  0  0
    9.5899  -14.1653   27.8574 C   0  0  2  0  0  0  0  0  0  0  0  0
    9.6805  -13.2186   26.6860 C   0  0  0  0  0  0  0  0  0  0  0  0
   10.6449  -15.2530   27.8149 C   0  0  2  0  0  0  0  0  0  0  0  0
   10.5290  -16.0497   26.6100 N   0  0  0  0  0  0  0  0  0  0  0  0
   10.6514  -16.0802   29.0327 C   0  0  0  0  0  0  0  0  0  0  0  0
   10.9569  -15.5315   30.1229 O   0  0  0  0  0  0  0  0  0  0  0  0
   10.3437  -17.4216   29.0631 O   0  0  0  0  0  0  0  0  0  0  0  0
  2  1  1  0
  2 12  2  0
  3  2  1  0
  4  3  2  0
  4  5  1  0
  5 11  2  0
  6  5  1  0
  7  8  1  1
  7  6  1  0
  9  7  1  0
 10  9  2  0
 11 12  1  0
 13  9  1  0
 14 13  1  0
 14 15  1  6
 15 16  1  0
 16 20  1  0
 17 16  2  0
 18 14  1  0
 19 18  2  0
 22 21  1  6
 22 23  1  0
 22 24  1  0
 24 26  1  0
 24 25  1  6
 25 18  1  0
 26 28  1  0
 27 26  2  0
M  END
$$$$
