YDV.pdb
     RDKit          3D

 28 28  0  0  1  0  0  0  0  0999 V2000
    7.0548  -12.1800   16.9949 O   0  0  0  0  0  0  0  0  0  0  0  0
    7.2849  -12.9194   18.1604 C   0  0  0  0  0  0  0  0  0  0  0  0
    6.5873  -14.0864   18.3649 C   0  0  0  0  0  0  0  0  0  0  0  0
    6.7933  -14.8440   19.5122 C   0  0  0  0  0  0  0  0  0  0  0  0
    7.6985  -14.4332   20.4576 C   0  0  0  0  0  0  0  0  0  0  0  0
    7.9150  -15.2279   21.6751 C   0  0  0  0  0  0  0  0  0  0  0  0
    8.8498  -16.4041   21.4956 C   0  0  2  0  0  0  0  0  0  0  0  0
    8.3303  -17.2330   20.4158 N   0  0  0  0  0  0  0  0  0  0  0  0
    8.9447  -17.1474   22.7601 C   0  0  0  0  0  0  0  0  0  0  0  0
    8.6663  -18.3663   22.7839 O   0  0  0  0  0  0  0  0  0  0  0  0
    8.3876  -13.2649   20.2381 C   0  0  0  0  0  0  0  0  0  0  0  0
    8.2005  -12.4956   19.1065 C   0  0  0  0  0  0  0  0  0  0  0  0
    9.3466  -16.5716   24.0191 N   0  0  0  0  0  0  0  0  0  0  0  0
   10.4735  -17.0793   24.7488 C   0  0  1  0  0  0  0  0  0  0  0  0
   11.6105  -17.4355   23.8198 C   0  0  0  0  0  0  0  0  0  0  0  0
   12.1337  -18.7769   24.0288 C   0  0  0  0  0  0  0  0  0  0  0  0
   12.9168  -19.3382   23.2161 O   0  0  0  0  0  0  0  0  0  0  0  0
   10.9297  -16.1226   25.8067 C   0  0  0  0  0  0  0  0  0  0  0  0
   12.1229  -16.0977   26.1854 O   0  0  0  0  0  0  0  0  0  0  0  0
   11.7814  -19.5044   25.1546 O   0  0  0  0  0  0  0  0  0  0  0  0
    7.8828  -13.9774   28.3042 C   0  0  0  0  0  0  0  0  0  0  0  0
    9.2483  -13.4414   27.9169 C   0  0  2  0  0  0  0  0  0  0  0  0
    9.0674  -12.5851   26.6878 C   0  0  0  0  0  0  0  0  0  0  0  0
   10.2304  -14.5759   27.7016 C   0  0  2  0  0  0  0  0  0  0  0  0
   10.0244  -15.2112   26.4156 N   0  0  0  0  0  0  0  0  0  0  0  0
   10.2249  -15.5445   28.8102 C   0  0  0  0  0  0  0  0  0  0  0  0
   10.6417  -15.1640   29.9347 O   0  0  0  0  0  0  0  0  0  0  0  0
    9.7919  -16.8468   28.7026 O   0  0  0  0  0  0  0  0  0  0  0  0
  2  1  1  0
  2 12  2  0
  3  2  1  0
  4  3  2  0
  4  5  1  0
  5 11  2  0
  6  5  1  0
  7  8  1  6
  7  6  1  0
  9  7  1  0
 10  9  2  0
 11 12  1  0
 13  9  1  0
 14 13  1  0
 14 15  1  6
 15 16  1  0
 16 20  1  0
 17 16  2  0
 18 14  1  0
 19 18  2  0
 22 21  1  6
 22 23  1  0
 22 24  1  0
 24 26  1  0
 24 25  1  6
 25 18  1  0
 26 28  1  0
 27 26  2  0
M  END
$$$$
