YDV.pdb
     RDKit          3D

 28 28  0  0  1  0  0  0  0  0999 V2000
    8.9848  -11.9616   19.6314 O   0  0  0  0  0  0  0  0  0  0  0  0
    8.2272  -12.9450   20.2770 C   0  0  0  0  0  0  0  0  0  0  0  0
    7.7076  -13.9840   19.5416 C   0  0  0  0  0  0  0  0  0  0  0  0
    6.9511  -14.9771   20.1533 C   0  0  0  0  0  0  0  0  0  0  0  0
    6.7128  -14.9306   21.5035 C   0  0  0  0  0  0  0  0  0  0  0  0
    5.9083  -15.9751   22.1533 C   0  0  0  0  0  0  0  0  0  0  0  0
    6.5342  -17.3525   22.1279 C   0  0  2  0  0  0  0  0  0  0  0  0
    5.5190  -18.3173   22.5296 N   0  0  0  0  0  0  0  0  0  0  0  0
    7.6974  -17.3748   23.0263 C   0  0  0  0  0  0  0  0  0  0  0  0
    7.5262  -17.5145   24.2571 O   0  0  0  0  0  0  0  0  0  0  0  0
    7.2392  -13.8858   22.2241 C   0  0  0  0  0  0  0  0  0  0  0  0
    7.9939  -12.8880   21.6392 C   0  0  0  0  0  0  0  0  0  0  0  0
    9.0668  -17.2461   22.5946 N   0  0  0  0  0  0  0  0  0  0  0  0
   10.1563  -17.3313   23.5252 C   0  0  1  0  0  0  0  0  0  0  0  0
   11.4660  -17.5742   22.8124 C   0  0  0  0  0  0  0  0  0  0  0  0
   12.5790  -17.8329   23.7130 C   0  0  0  0  0  0  0  0  0  0  0  0
   13.2293  -16.9117   24.2762 O   0  0  0  0  0  0  0  0  0  0  0  0
   10.2414  -16.1164   24.3967 C   0  0  0  0  0  0  0  0  0  0  0  0
   10.7034  -15.0378   23.9596 O   0  0  0  0  0  0  0  0  0  0  0  0
   12.9750  -19.1317   23.9906 O   0  0  0  0  0  0  0  0  0  0  0  0
    9.1269  -13.0330   27.7900 C   0  0  0  0  0  0  0  0  0  0  0  0
    8.8754  -14.1219   26.7640 C   0  0  2  0  0  0  0  0  0  0  0  0
    7.5686  -14.7871   27.1195 C   0  0  0  0  0  0  0  0  0  0  0  0
   10.0357  -15.0964   26.7182 C   0  0  2  0  0  0  0  0  0  0  0  0
    9.8007  -16.1468   25.7479 N   0  0  0  0  0  0  0  0  0  0  0  0
   10.3767  -15.6301   28.0472 C   0  0  0  0  0  0  0  0  0  0  0  0
   10.2060  -16.8589   28.2565 O   0  0  0  0  0  0  0  0  0  0  0  0
   10.8735  -14.8738   29.0846 O   0  0  0  0  0  0  0  0  0  0  0  0
  2  1  1  0
  2 12  2  0
  3  2  1  0
  4  3  2  0
  4  5  1  0
  5 11  2  0
  6  5  1  0
  7  8  1  1
  7  6  1  0
  9  7  1  0
 10  9  2  0
 11 12  1  0
 13  9  1  0
 14 13  1  0
 14 15  1  6
 15 16  1  0
 16 20  1  0
 17 16  2  0
 18 14  1  0
 19 18  2  0
 22 21  1  1
 22 23  1  0
 22 24  1  0
 24 26  1  0
 24 25  1  6
 25 18  1  0
 26 28  1  0
 27 26  2  0
M  END
$$$$
