YDV.pdb
     RDKit          3D

 28 28  0  0  1  0  0  0  0  0999 V2000
    9.0024  -11.8115   19.8553 O   0  0  0  0  0  0  0  0  0  0  0  0
    8.2586  -12.8383   20.4474 C   0  0  0  0  0  0  0  0  0  0  0  0
    7.9680  -12.7701   21.7894 C   0  0  0  0  0  0  0  0  0  0  0  0
    7.2307  -13.7737   22.4073 C   0  0  0  0  0  0  0  0  0  0  0  0
    6.7837  -14.8486   21.6815 C   0  0  0  0  0  0  0  0  0  0  0  0
    6.0091  -15.9152   22.3321 C   0  0  0  0  0  0  0  0  0  0  0  0
    6.6962  -17.2632   22.3520 C   0  0  2  0  0  0  0  0  0  0  0  0
    5.7045  -18.2703   22.7057 N   0  0  0  0  0  0  0  0  0  0  0  0
    7.8083  -17.2281   23.3126 C   0  0  0  0  0  0  0  0  0  0  0  0
    7.5674  -17.2508   24.5394 O   0  0  0  0  0  0  0  0  0  0  0  0
    7.0825  -14.9017   20.3414 C   0  0  0  0  0  0  0  0  0  0  0  0
    7.8128  -13.9171   19.7054 C   0  0  0  0  0  0  0  0  0  0  0  0
    9.2019  -17.1690   22.9485 N   0  0  0  0  0  0  0  0  0  0  0  0
   10.2357  -17.1527   23.9441 C   0  0  1  0  0  0  0  0  0  0  0  0
   11.5715  -17.5353   23.3509 C   0  0  0  0  0  0  0  0  0  0  0  0
   11.5508  -18.8062   22.6430 C   0  0  0  0  0  0  0  0  0  0  0  0
   11.0654  -19.8572   23.1415 O   0  0  0  0  0  0  0  0  0  0  0  0
   10.3207  -15.8284   24.6381 C   0  0  0  0  0  0  0  0  0  0  0  0
   11.0050  -14.8927   24.1648 O   0  0  0  0  0  0  0  0  0  0  0  0
   12.0771  -18.9109   21.3651 O   0  0  0  0  0  0  0  0  0  0  0  0
    7.6492  -13.9965   27.3417 C   0  0  0  0  0  0  0  0  0  0  0  0
    9.0149  -13.4783   26.9316 C   0  0  2  0  0  0  0  0  0  0  0  0
    8.8492  -12.7520   25.6195 C   0  0  0  0  0  0  0  0  0  0  0  0
   10.0186  -14.6115   26.8517 C   0  0  2  0  0  0  0  0  0  0  0  0
    9.6277  -15.5893   25.8561 N   0  0  0  0  0  0  0  0  0  0  0  0
   10.2819  -15.2252   28.1637 C   0  0  0  0  0  0  0  0  0  0  0  0
   10.7820  -14.5063   29.0670 O   0  0  0  0  0  0  0  0  0  0  0  0
   10.0169  -16.5398   28.4744 O   0  0  0  0  0  0  0  0  0  0  0  0
  2  1  1  0
  2 12  2  0
  3  2  1  0
  4  3  2  0
  4  5  1  0
  5 11  2  0
  6  5  1  0
  7  8  1  1
  7  6  1  0
  9  7  1  0
 10  9  2  0
 11 12  1  0
 13  9  1  0
 14 13  1  0
 14 15  1  6
 15 16  1  0
 16 20  1  0
 17 16  2  0
 18 14  1  0
 19 18  2  0
 22 21  1  6
 22 23  1  0
 22 24  1  0
 24 26  1  0
 24 25  1  6
 25 18  1  0
 26 28  1  0
 27 26  2  0
M  END
$$$$
