YDV.pdb
     RDKit          3D

 28 28  0  0  1  0  0  0  0  0999 V2000
    7.5279  -12.2427   16.6271 O   0  0  0  0  0  0  0  0  0  0  0  0
    7.7841  -12.8825   17.8450 C   0  0  0  0  0  0  0  0  0  0  0  0
    6.8127  -12.8900   18.8178 C   0  0  0  0  0  0  0  0  0  0  0  0
    7.0360  -13.5174   20.0382 C   0  0  0  0  0  0  0  0  0  0  0  0
    8.2340  -14.1380   20.2865 C   0  0  0  0  0  0  0  0  0  0  0  0
    8.4767  -14.7972   21.5778 C   0  0  0  0  0  0  0  0  0  0  0  0
    8.5818  -16.3046   21.4998 C   0  0  2  0  0  0  0  0  0  0  0  0
    7.2829  -16.8275   21.0968 N   0  0  0  0  0  0  0  0  0  0  0  0
    9.0032  -16.8310   22.8059 C   0  0  0  0  0  0  0  0  0  0  0  0
    8.1602  -16.9680   23.7192 O   0  0  0  0  0  0  0  0  0  0  0  0
    9.1943  -14.1216   19.3039 C   0  0  0  0  0  0  0  0  0  0  0  0
    8.9958  -13.5055   18.0839 C   0  0  0  0  0  0  0  0  0  0  0  0
   10.3524  -17.2177   23.1352 N   0  0  0  0  0  0  0  0  0  0  0  0
   10.6846  -17.7503   24.4259 C   0  0  1  0  0  0  0  0  0  0  0  0
   11.7891  -18.7763   24.3258 C   0  0  0  0  0  0  0  0  0  0  0  0
   12.7287  -18.5158   23.2461 C   0  0  0  0  0  0  0  0  0  0  0  0
   12.4449  -18.7084   22.0332 O   0  0  0  0  0  0  0  0  0  0  0  0
   11.0472  -16.6705   25.3982 C   0  0  0  0  0  0  0  0  0  0  0  0
   11.9186  -15.8155   25.1202 O   0  0  0  0  0  0  0  0  0  0  0  0
   14.0003  -18.0360   23.5174 O   0  0  0  0  0  0  0  0  0  0  0  0
    9.9756  -13.6071   28.9500 C   0  0  0  0  0  0  0  0  0  0  0  0
    9.7928  -14.4510   27.7025 C   0  0  2  0  0  0  0  0  0  0  0  0
    8.3492  -14.8876   27.6578 C   0  0  0  0  0  0  0  0  0  0  0  0
   10.7589  -15.6192   27.6968 C   0  0  2  0  0  0  0  0  0  0  0  0
   10.4144  -16.5798   26.6680 N   0  0  0  0  0  0  0  0  0  0  0  0
   10.8946  -16.2452   29.0223 C   0  0  0  0  0  0  0  0  0  0  0  0
   10.4145  -17.3962   29.1886 O   0  0  0  0  0  0  0  0  0  0  0  0
   11.5151  -15.6558   30.1006 O   0  0  0  0  0  0  0  0  0  0  0  0
  2  1  1  0
  2 12  2  0
  3  2  1  0
  4  3  2  0
  4  5  1  0
  5 11  2  0
  6  5  1  0
  7  8  1  1
  7  6  1  0
  9  7  1  0
 10  9  2  0
 11 12  1  0
 13  9  1  0
 14 13  1  0
 14 15  1  6
 15 16  1  0
 16 20  1  0
 17 16  2  0
 18 14  1  0
 19 18  2  0
 22 21  1  1
 22 23  1  0
 22 24  1  0
 24 26  1  0
 24 25  1  6
 25 18  1  0
 26 28  1  0
 27 26  2  0
M  END
$$$$
