YDV.pdb
     RDKit          3D

 28 28  0  0  1  0  0  0  0  0999 V2000
    8.3509  -12.4264   17.2520 O   0  0  0  0  0  0  0  0  0  0  0  0
    7.9895  -13.0348   18.4592 C   0  0  0  0  0  0  0  0  0  0  0  0
    8.0498  -14.4041   18.5665 C   0  0  0  0  0  0  0  0  0  0  0  0
    7.6979  -15.0388   19.7522 C   0  0  0  0  0  0  0  0  0  0  0  0
    7.2839  -14.3023   20.8331 C   0  0  0  0  0  0  0  0  0  0  0  0
    6.9049  -14.9697   22.0868 C   0  0  0  0  0  0  0  0  0  0  0  0
    7.1398  -16.4644   22.0948 C   0  0  2  0  0  0  0  0  0  0  0  0
    5.8483  -17.1237   22.2377 N   0  0  0  0  0  0  0  0  0  0  0  0
    8.0545  -16.8072   23.1931 C   0  0  0  0  0  0  0  0  0  0  0  0
    7.5963  -17.0176   24.3374 O   0  0  0  0  0  0  0  0  0  0  0  0
    7.2293  -12.9350   20.7097 C   0  0  0  0  0  0  0  0  0  0  0  0
    7.5740  -12.2818   19.5426 C   0  0  0  0  0  0  0  0  0  0  0  0
    9.4849  -16.9270   23.0590 N   0  0  0  0  0  0  0  0  0  0  0  0
   10.3191  -17.2357   24.1854 C   0  0  1  0  0  0  0  0  0  0  0  0
   11.6144  -17.8776   23.7464 C   0  0  0  0  0  0  0  0  0  0  0  0
   11.4284  -19.1227   23.0171 C   0  0  0  0  0  0  0  0  0  0  0  0
   10.6199  -20.0160   23.3872 O   0  0  0  0  0  0  0  0  0  0  0  0
   10.5828  -16.0285   25.0315 C   0  0  0  0  0  0  0  0  0  0  0  0
   11.3121  -15.0973   24.6206 O   0  0  0  0  0  0  0  0  0  0  0  0
   12.1509  -19.3791   21.8625 O   0  0  0  0  0  0  0  0  0  0  0  0
    7.9764  -14.3062   27.7582 C   0  0  0  0  0  0  0  0  0  0  0  0
    9.3209  -13.7666   27.3076 C   0  0  2  0  0  0  0  0  0  0  0  0
    9.1220  -13.1232   25.9574 C   0  0  0  0  0  0  0  0  0  0  0  0
   10.3624  -14.8679   27.2845 C   0  0  2  0  0  0  0  0  0  0  0  0
   10.0142  -15.8992   26.3280 N   0  0  0  0  0  0  0  0  0  0  0  0
   10.6326  -15.4165   28.6236 C   0  0  0  0  0  0  0  0  0  0  0  0
   11.0987  -14.6437   29.5002 O   0  0  0  0  0  0  0  0  0  0  0  0
   10.4089  -16.7253   28.9873 O   0  0  0  0  0  0  0  0  0  0  0  0
  2  1  1  0
  2 12  2  0
  3  2  1  0
  4  3  2  0
  4  5  1  0
  5 11  2  0
  6  5  1  0
  7  8  1  1
  7  6  1  0
  9  7  1  0
 10  9  2  0
 11 12  1  0
 13  9  1  0
 14 13  1  0
 14 15  1  6
 15 16  1  0
 16 20  1  0
 17 16  2  0
 18 14  1  0
 19 18  2  0
 22 21  1  6
 22 23  1  0
 22 24  1  0
 24 26  1  0
 24 25  1  6
 25 18  1  0
 26 28  1  0
 27 26  2  0
M  END
$$$$
