YDV.pdb
     RDKit          3D

 28 28  0  0  1  0  0  0  0  0999 V2000
    8.6647  -11.6827   20.1378 O   0  0  0  0  0  0  0  0  0  0  0  0
    7.9930  -12.7566   20.7324 C   0  0  0  0  0  0  0  0  0  0  0  0
    7.8514  -12.7872   22.0996 C   0  0  0  0  0  0  0  0  0  0  0  0
    7.1890  -13.8398   22.7207 C   0  0  0  0  0  0  0  0  0  0  0  0
    6.6675  -14.8649   21.9727 C   0  0  0  0  0  0  0  0  0  0  0  0
    5.9718  -15.9830   22.6258 C   0  0  0  0  0  0  0  0  0  0  0  0
    6.6961  -17.3084   22.5346 C   0  0  2  0  0  0  0  0  0  0  0  0
    5.7743  -18.3563   22.9532 N   0  0  0  0  0  0  0  0  0  0  0  0
    7.8975  -17.2653   23.3804 C   0  0  0  0  0  0  0  0  0  0  0  0
    7.8336  -17.6557   24.5666 O   0  0  0  0  0  0  0  0  0  0  0  0
    6.8174  -14.8193   20.6077 C   0  0  0  0  0  0  0  0  0  0  0  0
    7.4709  -13.7844   19.9680 C   0  0  0  0  0  0  0  0  0  0  0  0
    9.1888  -16.7962   22.9436 N   0  0  0  0  0  0  0  0  0  0  0  0
   10.3736  -17.0370   23.7171 C   0  0  1  0  0  0  0  0  0  0  0  0
   11.5937  -17.1352   22.8314 C   0  0  0  0  0  0  0  0  0  0  0  0
   12.8240  -17.3953   23.5631 C   0  0  0  0  0  0  0  0  0  0  0  0
   13.6871  -16.5041   23.7854 O   0  0  0  0  0  0  0  0  0  0  0  0
   10.5677  -15.9981   24.7780 C   0  0  0  0  0  0  0  0  0  0  0  0
   11.6688  -15.8645   25.3589 O   0  0  0  0  0  0  0  0  0  0  0  0
   13.0992  -18.6622   24.0533 O   0  0  0  0  0  0  0  0  0  0  0  0
    7.0688  -13.7462   26.2261 C   0  0  0  0  0  0  0  0  0  0  0  0
    8.4843  -13.2014   26.2655 C   0  0  2  0  0  0  0  0  0  0  0  0
    8.6793  -12.3556   25.0313 C   0  0  0  0  0  0  0  0  0  0  0  0
    9.4922  -14.3291   26.3685 C   0  0  2  0  0  0  0  0  0  0  0  0
    9.5095  -15.1293   25.1604 N   0  0  0  0  0  0  0  0  0  0  0  0
    9.3014  -15.1472   27.5774 C   0  0  0  0  0  0  0  0  0  0  0  0
    9.4034  -14.5850   28.6984 O   0  0  0  0  0  0  0  0  0  0  0  0
    9.0165  -16.4939   27.5679 O   0  0  0  0  0  0  0  0  0  0  0  0
  2  1  1  0
  2 12  2  0
  3  2  1  0
  4  3  2  0
  4  5  1  0
  5 11  2  0
  6  5  1  0
  7  8  1  1
  7  6  1  0
  9  7  1  0
 10  9  2  0
 11 12  1  0
 13  9  1  0
 14 13  1  0
 14 15  1  6
 15 16  1  0
 16 20  1  0
 17 16  2  0
 18 14  1  0
 19 18  2  0
 22 21  1  6
 22 23  1  0
 22 24  1  0
 24 26  1  0
 24 25  1  6
 25 18  1  0
 26 28  1  0
 27 26  2  0
M  END
$$$$
