YDV.pdb
     RDKit          3D

 28 28  0  0  1  0  0  0  0  0999 V2000
    8.0526  -12.8631   16.6553 O   0  0  0  0  0  0  0  0  0  0  0  0
    7.9127  -13.3587   17.9564 C   0  0  0  0  0  0  0  0  0  0  0  0
    7.4860  -12.5154   18.9548 C   0  0  0  0  0  0  0  0  0  0  0  0
    7.3363  -12.9771   20.2575 C   0  0  0  0  0  0  0  0  0  0  0  0
    7.6149  -14.2853   20.5627 C   0  0  0  0  0  0  0  0  0  0  0  0
    7.4641  -14.7762   21.9399 C   0  0  0  0  0  0  0  0  0  0  0  0
    7.4707  -16.2837   22.0702 C   0  0  2  0  0  0  0  0  0  0  0  0
    6.0894  -16.7460   22.0347 N   0  0  0  0  0  0  0  0  0  0  0  0
    8.1427  -16.6609   23.3219 C   0  0  0  0  0  0  0  0  0  0  0  0
    7.5414  -16.5315   24.4106 O   0  0  0  0  0  0  0  0  0  0  0  0
    8.0402  -15.1152   19.5535 C   0  0  0  0  0  0  0  0  0  0  0  0
    8.1960  -14.6799   18.2521 C   0  0  0  0  0  0  0  0  0  0  0  0
    9.4824  -17.1868   23.4045 N   0  0  0  0  0  0  0  0  0  0  0  0
   10.0572  -17.5775   24.6603 C   0  0  1  0  0  0  0  0  0  0  0  0
   11.1938  -18.5527   24.4612 C   0  0  0  0  0  0  0  0  0  0  0  0
   10.7626  -19.8602   23.9909 C   0  0  0  0  0  0  0  0  0  0  0  0
    9.5482  -20.1817   23.8874 O   0  0  0  0  0  0  0  0  0  0  0  0
   10.5049  -16.3938   25.4610 C   0  0  0  0  0  0  0  0  0  0  0  0
   11.3818  -15.6130   25.0263 O   0  0  0  0  0  0  0  0  0  0  0  0
   11.6925  -20.8232   23.6321 O   0  0  0  0  0  0  0  0  0  0  0  0
    8.1221  -14.6581   28.4734 C   0  0  0  0  0  0  0  0  0  0  0  0
    9.3851  -14.0397   27.9039 C   0  0  2  0  0  0  0  0  0  0  0  0
    8.9990  -13.2912   26.6519 C   0  0  0  0  0  0  0  0  0  0  0  0
   10.4373  -15.1012   27.6511 C   0  0  2  0  0  0  0  0  0  0  0  0
    9.9495  -16.1170   26.7400 N   0  0  0  0  0  0  0  0  0  0  0  0
   10.9677  -15.6775   28.8977 C   0  0  0  0  0  0  0  0  0  0  0  0
   10.7761  -16.9017   29.1158 O   0  0  0  0  0  0  0  0  0  0  0  0
   11.6643  -14.9661   29.8483 O   0  0  0  0  0  0  0  0  0  0  0  0
  2  1  1  0
  2 12  2  0
  3  2  1  0
  4  3  2  0
  4  5  1  0
  5 11  2  0
  6  5  1  0
  7  8  1  1
  7  6  1  0
  9  7  1  0
 10  9  2  0
 11 12  1  0
 13  9  1  0
 14 13  1  0
 14 15  1  6
 15 16  1  0
 16 20  1  0
 17 16  2  0
 18 14  1  0
 19 18  2  0
 22 21  1  6
 22 23  1  0
 22 24  1  0
 24 26  1  0
 24 25  1  6
 25 18  1  0
 26 28  1  0
 27 26  2  0
M  END
$$$$
