YDV.pdb
     RDKit          3D

 28 28  0  0  1  0  0  0  0  0999 V2000
    7.5523  -12.1106   17.3578 O   0  0  0  0  0  0  0  0  0  0  0  0
    7.6642  -12.8061   18.5670 C   0  0  0  0  0  0  0  0  0  0  0  0
    8.9036  -13.2247   18.9896 C   0  0  0  0  0  0  0  0  0  0  0  0
    9.0484  -13.9173   20.1862 C   0  0  0  0  0  0  0  0  0  0  0  0
    7.9507  -14.1928   20.9617 C   0  0  0  0  0  0  0  0  0  0  0  0
    8.0983  -14.9303   22.2246 C   0  0  0  0  0  0  0  0  0  0  0  0
    8.3684  -16.4096   22.0564 C   0  0  2  0  0  0  0  0  0  0  0  0
    7.0992  -17.0726   21.7872 N   0  0  0  0  0  0  0  0  0  0  0  0
    9.0104  -16.9282   23.2728 C   0  0  0  0  0  0  0  0  0  0  0  0
    8.3207  -17.1411   24.2939 O   0  0  0  0  0  0  0  0  0  0  0  0
    6.7193  -13.7675   20.5253 C   0  0  0  0  0  0  0  0  0  0  0  0
    6.5503  -13.0777   19.3408 C   0  0  0  0  0  0  0  0  0  0  0  0
   10.4162  -17.2240   23.3931 N   0  0  0  0  0  0  0  0  0  0  0  0
   10.9707  -17.7415   24.6116 C   0  0  1  0  0  0  0  0  0  0  0  0
   12.2666  -18.4744   24.3543 C   0  0  0  0  0  0  0  0  0  0  0  0
   12.1317  -19.5848   23.4239 C   0  0  0  0  0  0  0  0  0  0  0  0
   12.9020  -19.7477   22.4397 O   0  0  0  0  0  0  0  0  0  0  0  0
   11.1609  -16.6675   25.6379 C   0  0  0  0  0  0  0  0  0  0  0  0
   12.0352  -15.7829   25.4942 O   0  0  0  0  0  0  0  0  0  0  0  0
   11.1274  -20.5256   23.5888 O   0  0  0  0  0  0  0  0  0  0  0  0
    8.9124  -14.1591   26.9901 C   0  0  0  0  0  0  0  0  0  0  0  0
    9.3787  -14.8864   28.2373 C   0  0  2  0  0  0  0  0  0  0  0  0
    9.6436  -13.8456   29.2971 C   0  0  0  0  0  0  0  0  0  0  0  0
   10.5944  -15.7415   27.9387 C   0  0  2  0  0  0  0  0  0  0  0  0
   10.3556  -16.6163   26.8083 N   0  0  0  0  0  0  0  0  0  0  0  0
   11.0717  -16.4758   29.1219 C   0  0  0  0  0  0  0  0  0  0  0  0
   11.5606  -15.8153   30.0747 O   0  0  0  0  0  0  0  0  0  0  0  0
   11.0199  -17.8444   29.2608 O   0  0  0  0  0  0  0  0  0  0  0  0
  2  1  1  0
  2 12  2  0
  3  2  1  0
  4  3  2  0
  4  5  1  0
  5 11  2  0
  6  5  1  0
  7  8  1  1
  7  6  1  0
  9  7  1  0
 10  9  2  0
 11 12  1  0
 13  9  1  0
 14 13  1  0
 14 15  1  6
 15 16  1  0
 16 20  1  0
 17 16  2  0
 18 14  1  0
 19 18  2  0
 22 21  1  6
 22 23  1  0
 22 24  1  0
 24 26  1  0
 24 25  1  6
 25 18  1  0
 26 28  1  0
 27 26  2  0
M  END
$$$$
