YDV.pdb
     RDKit          3D

 28 28  0  0  1  0  0  0  0  0999 V2000
    7.5851  -12.0127   17.3456 O   0  0  0  0  0  0  0  0  0  0  0  0
    7.6766  -12.7837   18.5098 C   0  0  0  0  0  0  0  0  0  0  0  0
    8.9002  -13.2796   18.8932 C   0  0  0  0  0  0  0  0  0  0  0  0
    9.0247  -14.0485   20.0447 C   0  0  0  0  0  0  0  0  0  0  0  0
    7.9226  -14.3228   20.8142 C   0  0  0  0  0  0  0  0  0  0  0  0
    8.0484  -15.1406   22.0292 C   0  0  0  0  0  0  0  0  0  0  0  0
    8.5939  -16.5319   21.7922 C   0  0  2  0  0  0  0  0  0  0  0  0
    7.4730  -17.4097   21.4826 N   0  0  0  0  0  0  0  0  0  0  0  0
    9.3254  -16.9776   22.9868 C   0  0  0  0  0  0  0  0  0  0  0  0
    8.6912  -17.3285   24.0057 O   0  0  0  0  0  0  0  0  0  0  0  0
    6.7071  -13.8198   20.4174 C   0  0  0  0  0  0  0  0  0  0  0  0
    6.5585  -13.0534   19.2781 C   0  0  0  0  0  0  0  0  0  0  0  0
   10.7617  -17.0485   23.0872 N   0  0  0  0  0  0  0  0  0  0  0  0
   11.4072  -17.4865   24.2921 C   0  0  1  0  0  0  0  0  0  0  0  0
   12.7962  -18.0089   24.0088 C   0  0  0  0  0  0  0  0  0  0  0  0
   12.8268  -19.0697   23.0136 C   0  0  0  0  0  0  0  0  0  0  0  0
   12.1170  -20.1076   23.1006 O   0  0  0  0  0  0  0  0  0  0  0  0
   11.4454  -16.4063   25.3285 C   0  0  0  0  0  0  0  0  0  0  0  0
   12.1961  -15.4125   25.1999 O   0  0  0  0  0  0  0  0  0  0  0  0
   13.6574  -18.9764   21.9080 O   0  0  0  0  0  0  0  0  0  0  0  0
    9.6726  -13.6354   28.8043 C   0  0  0  0  0  0  0  0  0  0  0  0
    9.6098  -14.5358   27.5847 C   0  0  2  0  0  0  0  0  0  0  0  0
    8.2371  -15.1612   27.5528 C   0  0  0  0  0  0  0  0  0  0  0  0
   10.7223  -15.5650   27.6180 C   0  0  2  0  0  0  0  0  0  0  0  0
   10.6311  -16.4726   26.4920 N   0  0  0  0  0  0  0  0  0  0  0  0
   10.7936  -16.2769   28.9046 C   0  0  0  0  0  0  0  0  0  0  0  0
   10.4100  -17.4745   28.9439 O   0  0  0  0  0  0  0  0  0  0  0  0
   11.2545  -15.7206   30.0764 O   0  0  0  0  0  0  0  0  0  0  0  0
  2  1  1  0
  2 12  2  0
  3  2  1  0
  4  3  2  0
  4  5  1  0
  5 11  2  0
  6  5  1  0
  7  8  1  1
  7  6  1  0
  9  7  1  0
 10  9  2  0
 11 12  1  0
 13  9  1  0
 14 13  1  0
 14 15  1  6
 15 16  1  0
 16 20  1  0
 17 16  2  0
 18 14  1  0
 19 18  2  0
 22 21  1  1
 22 23  1  0
 22 24  1  0
 24 26  1  0
 24 25  1  6
 25 18  1  0
 26 28  1  0
 27 26  2  0
M  END
$$$$
