YDV.pdb
     RDKit          3D

 28 28  0  0  1  0  0  0  0  0999 V2000
    9.6821  -11.4970   19.4893 O   0  0  0  0  0  0  0  0  0  0  0  0
    8.8133  -12.4995   19.9345 C   0  0  0  0  0  0  0  0  0  0  0  0
    9.3142  -13.7502   20.2086 C   0  0  0  0  0  0  0  0  0  0  0  0
    8.4774  -14.7676   20.6529 C   0  0  0  0  0  0  0  0  0  0  0  0
    7.1363  -14.5338   20.8227 C   0  0  0  0  0  0  0  0  0  0  0  0
    6.2468  -15.6083   21.2863 C   0  0  0  0  0  0  0  0  0  0  0  0
    6.9094  -16.9641   21.3966 C   0  0  2  0  0  0  0  0  0  0  0  0
    5.8909  -17.9834   21.1805 N   0  0  0  0  0  0  0  0  0  0  0  0
    7.5401  -17.0912   22.7182 C   0  0  0  0  0  0  0  0  0  0  0  0
    6.8258  -17.1274   23.7439 O   0  0  0  0  0  0  0  0  0  0  0  0
    6.6516  -13.2786   20.5445 C   0  0  0  0  0  0  0  0  0  0  0  0
    7.4628  -12.2520   20.1025 C   0  0  0  0  0  0  0  0  0  0  0  0
    8.9615  -17.1821   22.9408 N   0  0  0  0  0  0  0  0  0  0  0  0
    9.5082  -17.2631   24.2654 C   0  0  1  0  0  0  0  0  0  0  0  0
   10.6980  -18.1931   24.3096 C   0  0  0  0  0  0  0  0  0  0  0  0
   10.3834  -19.5587   23.9187 C   0  0  0  0  0  0  0  0  0  0  0  0
   10.6923  -20.0346   22.7932 O   0  0  0  0  0  0  0  0  0  0  0  0
    9.8673  -15.9126   24.8039 C   0  0  0  0  0  0  0  0  0  0  0  0
   10.8729  -15.2955   24.3847 O   0  0  0  0  0  0  0  0  0  0  0  0
    9.7162  -20.4061   24.7892 O   0  0  0  0  0  0  0  0  0  0  0  0
    7.1236  -13.4860   27.0306 C   0  0  0  0  0  0  0  0  0  0  0  0
    8.4685  -13.0213   26.5040 C   0  0  2  0  0  0  0  0  0  0  0  0
    8.2571  -12.5255   25.0947 C   0  0  0  0  0  0  0  0  0  0  0  0
    9.4926  -14.1360   26.5858 C   0  0  2  0  0  0  0  0  0  0  0  0
    9.0792  -15.2865   25.8078 N   0  0  0  0  0  0  0  0  0  0  0  0
    9.8286  -14.4923   27.9741 C   0  0  0  0  0  0  0  0  0  0  0  0
    9.5048  -15.6347   28.3901 O   0  0  0  0  0  0  0  0  0  0  0  0
   10.4775  -13.6576   28.8557 O   0  0  0  0  0  0  0  0  0  0  0  0
  2  1  1  0
  2 12  2  0
  3  2  1  0
  4  3  2  0
  4  5  1  0
  5 11  2  0
  6  5  1  0
  7  8  1  1
  7  6  1  0
  9  7  1  0
 10  9  2  0
 11 12  1  0
 13  9  1  0
 14 13  1  0
 14 15  1  6
 15 16  1  0
 16 20  1  0
 17 16  2  0
 18 14  1  0
 19 18  2  0
 22 21  1  6
 22 23  1  0
 22 24  1  0
 24 26  1  0
 24 25  1  1
 25 18  1  0
 26 28  1  0
 27 26  2  0
M  END
$$$$
