QYF.pdb
     RDKit          3D

 33 34  0  0  1  0  0  0  0  0999 V2000
   29.7532  -22.7610  -15.3662 N   0  0  0  0  0  0  0  0  0  0  0  0
   30.0504  -22.0029  -16.5156 C   0  0  0  0  0  0  0  0  0  0  0  0
   30.7235  -22.5604  -17.4223 O   0  0  0  0  0  0  0  0  0  0  0  0
   29.5657  -20.6066  -16.6045 C   0  0  0  0  0  0  0  0  0  0  0  0
   28.8125  -20.1950  -15.3573 C   0  0  0  0  0  0  0  0  0  0  0  0
   27.5265  -20.9510  -15.1992 C   0  0  2  0  0  0  0  0  0  0  0  0
   26.7750  -20.9967  -16.4402 N   0  0  0  0  0  0  0  0  0  0  0  0
   26.7317  -20.3660  -14.0943 C   0  0  0  0  0  0  0  0  0  0  0  0
   26.4206  -19.1649  -14.1509 O   0  0  0  0  0  0  0  0  0  0  0  0
   19.7379  -19.2375   -9.2510 O   0  0  0  0  0  0  0  0  0  0  0  0
   20.8408  -19.7684   -9.9200 C   0  0  0  0  0  0  0  0  0  0  0  0
   21.0843  -19.3514  -11.2085 C   0  0  0  0  0  0  0  0  0  0  0  0
   22.1729  -19.8535  -11.9155 C   0  0  0  0  0  0  0  0  0  0  0  0
   23.0327  -20.7695  -11.3634 C   0  0  0  0  0  0  0  0  0  0  0  0
   24.1706  -21.2805  -12.0914 C   0  0  0  0  0  0  0  0  0  0  0  0
   25.4996  -20.6161  -11.8926 C   0  0  2  0  0  0  0  0  0  0  0  0
   26.3284  -21.1349  -12.9976 N   0  0  0  0  0  0  0  0  0  0  0  0
   26.1193  -20.8891  -10.6064 C   0  0  0  0  0  0  0  0  0  0  0  0
   26.9565  -21.8685  -10.5849 O   0  0  0  0  0  0  0  0  0  0  0  0
   22.7569  -21.1731  -10.0517 C   0  0  0  0  0  0  0  0  0  0  0  0
   21.6838  -20.6877   -9.3350 C   0  0  0  0  0  0  0  0  0  0  0  0
   25.9286  -20.2158   -9.3767 N   0  0  0  0  0  0  0  0  0  0  0  0
   26.6162  -20.6584   -8.1608 C   0  0  1  0  0  0  0  0  0  0  0  0
   27.6873  -19.6171   -7.8809 C   0  0  0  0  0  0  0  0  0  0  0  0
   28.3384  -19.7477   -6.5780 C   0  0  0  0  0  0  0  0  0  0  0  0
   29.4171  -20.6280   -6.4294 C   0  0  0  0  0  0  0  0  0  0  0  0
   30.0304  -20.7346   -5.2077 C   0  0  0  0  0  0  0  0  0  0  0  0
   29.6007  -19.9928   -4.1379 C   0  0  0  0  0  0  0  0  0  0  0  0
   28.5330  -19.1220   -4.2865 C   0  0  0  0  0  0  0  0  0  0  0  0
   27.8996  -18.9982   -5.5086 C   0  0  0  0  0  0  0  0  0  0  0  0
   25.7290  -20.7416   -6.9903 C   0  0  0  0  0  0  0  0  0  0  0  0
   24.6390  -20.0890   -6.9286 O   0  0  0  0  0  0  0  0  0  0  0  0
   26.0030  -21.5215   -5.8841 O   0  0  0  0  0  0  0  0  0  0  0  0
  2  1  1  0
  3  2  2  0
  4  2  1  0
  5  4  1  0
  6  5  1  0
  6  7  1  6
  8  6  1  0
  8  9  2  0
 10 11  1  0
 11 12  2  0
 12 13  1  0
 14 13  2  0
 14 15  1  0
 16 15  1  1
 16 17  1  0
 17  8  1  0
 18 16  1  0
 19 18  2  0
 20 14  1  0
 21 20  2  0
 21 11  1  0
 22 18  1  0
 23 24  1  1
 23 22  1  0
 24 25  1  0
 25 26  2  0
 26 27  1  0
 28 27  2  0
 29 28  1  0
 30 25  1  0
 30 29  2  0
 31 33  1  0
 31 23  1  0
 32 31  2  0
M  END
$$$$
