QYF.pdb
     RDKit          3D

 33 34  0  0  1  0  0  0  0  0999 V2000
   21.6652  -26.5938  -17.5552 N   0  0  0  0  0  0  0  0  0  0  0  0
   22.5916  -26.9586  -18.5516 C   0  0  0  0  0  0  0  0  0  0  0  0
   22.4015  -28.0494  -19.1517 O   0  0  0  0  0  0  0  0  0  0  0  0
   23.7294  -26.0573  -18.8440 C   0  0  0  0  0  0  0  0  0  0  0  0
   23.6847  -24.8054  -17.9939 C   0  0  0  0  0  0  0  0  0  0  0  0
   22.6019  -23.8641  -18.4317 C   0  0  2  0  0  0  0  0  0  0  0  0
   22.9677  -23.1514  -19.6422 N   0  0  0  0  0  0  0  0  0  0  0  0
   22.2640  -22.9370  -17.3267 C   0  0  0  0  0  0  0  0  0  0  0  0
   23.1863  -22.3741  -16.7139 O   0  0  0  0  0  0  0  0  0  0  0  0
   22.5042  -16.4420  -19.0981 O   0  0  0  0  0  0  0  0  0  0  0  0
   21.8192  -17.5115  -18.5212 C   0  0  0  0  0  0  0  0  0  0  0  0
   21.6965  -17.5441  -17.1511 C   0  0  0  0  0  0  0  0  0  0  0  0
   21.0216  -18.5914  -16.5309 C   0  0  0  0  0  0  0  0  0  0  0  0
   20.4605  -19.6162  -17.2507 C   0  0  0  0  0  0  0  0  0  0  0  0
   19.7479  -20.6961  -16.6088 C   0  0  0  0  0  0  0  0  0  0  0  0
   20.5423  -21.7479  -15.8950 C   0  0  2  0  0  0  0  0  0  0  0  0
   20.9368  -22.6858  -16.9634 N   0  0  0  0  0  0  0  0  0  0  0  0
   19.8143  -22.4369  -14.8421 C   0  0  0  0  0  0  0  0  0  0  0  0
   18.8316  -23.1741  -15.2310 O   0  0  0  0  0  0  0  0  0  0  0  0
   20.6032  -19.5533  -18.6418 C   0  0  0  0  0  0  0  0  0  0  0  0
   21.2682  -18.5246  -19.2748 C   0  0  0  0  0  0  0  0  0  0  0  0
   20.0481  -22.4092  -13.4469 N   0  0  0  0  0  0  0  0  0  0  0  0
   19.1745  -23.1363  -12.5221 C   0  0  1  0  0  0  0  0  0  0  0  0
   19.7047  -22.8467  -11.1275 C   0  0  0  0  0  0  0  0  0  0  0  0
   19.8110  -21.4257  -10.7990 C   0  0  0  0  0  0  0  0  0  0  0  0
   18.7718  -20.7978  -10.1014 C   0  0  0  0  0  0  0  0  0  0  0  0
   18.8855  -19.4684   -9.7857 C   0  0  0  0  0  0  0  0  0  0  0  0
   19.9988  -18.7530  -10.1438 C   0  0  0  0  0  0  0  0  0  0  0  0
   21.0264  -19.3758  -10.8341 C   0  0  0  0  0  0  0  0  0  0  0  0
   20.9337  -20.7149  -11.1630 C   0  0  0  0  0  0  0  0  0  0  0  0
   17.7706  -22.7015  -12.5873 C   0  0  0  0  0  0  0  0  0  0  0  0
   17.4372  -21.5907  -13.1096 O   0  0  0  0  0  0  0  0  0  0  0  0
   16.7202  -23.4512  -12.0959 O   0  0  0  0  0  0  0  0  0  0  0  0
  2  1  1  0
  3  2  2  0
  4  2  1  0
  5  4  1  0
  6  5  1  0
  6  7  1  6
  8  6  1  0
  8  9  2  0
 10 11  1  0
 11 12  2  0
 12 13  1  0
 14 13  2  0
 14 15  1  0
 16 15  1  6
 16 17  1  0
 17  8  1  0
 18 16  1  0
 19 18  2  0
 20 14  1  0
 21 20  2  0
 21 11  1  0
 22 18  1  0
 23 24  1  1
 23 22  1  0
 24 25  1  0
 25 26  2  0
 26 27  1  0
 28 27  2  0
 29 28  1  0
 30 25  1  0
 30 29  2  0
 31 33  1  0
 31 23  1  0
 32 31  2  0
M  END
$$$$
