QYF.pdb
     RDKit          3D

 33 34  0  0  1  0  0  0  0  0999 V2000
   30.4167  -23.2423  -15.0175 N   0  0  0  0  0  0  0  0  0  0  0  0
   30.8791  -22.7211  -16.2417 C   0  0  0  0  0  0  0  0  0  0  0  0
   31.6505  -23.4430  -16.9272 O   0  0  0  0  0  0  0  0  0  0  0  0
   30.4443  -21.3692  -16.6607 C   0  0  0  0  0  0  0  0  0  0  0  0
   29.5481  -20.7234  -15.6255 C   0  0  0  0  0  0  0  0  0  0  0  0
   28.1880  -21.3548  -15.5833 C   0  0  2  0  0  0  0  0  0  0  0  0
   27.5473  -21.3361  -16.8857 N   0  0  0  0  0  0  0  0  0  0  0  0
   27.3576  -20.6926  -14.5506 C   0  0  0  0  0  0  0  0  0  0  0  0
   27.2074  -19.4607  -14.6021 O   0  0  0  0  0  0  0  0  0  0  0  0
   19.7944  -19.6736  -10.3447 O   0  0  0  0  0  0  0  0  0  0  0  0
   20.9472  -20.1233  -10.9887 C   0  0  0  0  0  0  0  0  0  0  0  0
   21.3422  -19.4827  -12.1406 C   0  0  0  0  0  0  0  0  0  0  0  0
   22.4859  -19.8962  -12.8176 C   0  0  0  0  0  0  0  0  0  0  0  0
   23.2523  -20.9424  -12.3692 C   0  0  0  0  0  0  0  0  0  0  0  0
   24.4469  -21.3632  -13.0634 C   0  0  0  0  0  0  0  0  0  0  0  0
   25.7693  -20.8483  -12.5805 C   0  0  2  0  0  0  0  0  0  0  0  0
   26.7446  -21.4227  -13.5270 N   0  0  0  0  0  0  0  0  0  0  0  0
   26.0932  -21.2187  -11.2127 C   0  0  0  0  0  0  0  0  0  0  0  0
   27.1420  -21.9526  -11.0647 O   0  0  0  0  0  0  0  0  0  0  0  0
   22.8231  -21.5726  -11.1952 C   0  0  0  0  0  0  0  0  0  0  0  0
   21.6932  -21.1781  -10.5105 C   0  0  0  0  0  0  0  0  0  0  0  0
   25.4112  -20.8731  -10.0221 N   0  0  0  0  0  0  0  0  0  0  0  0
   26.0189  -21.1100   -8.7100 C   0  0  1  0  0  0  0  0  0  0  0  0
   27.1734  -20.1279   -8.5979 C   0  0  0  0  0  0  0  0  0  0  0  0
   27.7803  -20.0501   -7.2697 C   0  0  0  0  0  0  0  0  0  0  0  0
   28.3871  -18.8580   -6.8558 C   0  0  0  0  0  0  0  0  0  0  0  0
   28.9421  -18.7893   -5.6039 C   0  0  0  0  0  0  0  0  0  0  0  0
   28.9088  -19.8687   -4.7594 C   0  0  0  0  0  0  0  0  0  0  0  0
   28.3078  -21.0478   -5.1705 C   0  0  0  0  0  0  0  0  0  0  0  0
   27.7419  -21.1401   -6.4280 C   0  0  0  0  0  0  0  0  0  0  0  0
   25.0939  -20.8725   -7.5910 C   0  0  0  0  0  0  0  0  0  0  0  0
   24.2402  -19.9299   -7.6164 O   0  0  0  0  0  0  0  0  0  0  0  0
   25.0777  -21.6405   -6.4434 O   0  0  0  0  0  0  0  0  0  0  0  0
  2  1  1  0
  3  2  2  0
  4  2  1  0
  5  4  1  0
  6  5  1  0
  6  7  1  6
  8  6  1  0
  8  9  2  0
 10 11  1  0
 11 12  2  0
 12 13  1  0
 14 13  2  0
 14 15  1  0
 16 15  1  6
 16 17  1  0
 17  8  1  0
 18 16  1  0
 19 18  2  0
 20 14  1  0
 21 20  2  0
 21 11  1  0
 22 18  1  0
 23 24  1  1
 23 22  1  0
 24 25  1  0
 25 26  2  0
 26 27  1  0
 28 27  2  0
 29 28  1  0
 30 25  1  0
 30 29  2  0
 31 33  1  0
 31 23  1  0
 32 31  2  0
M  END
$$$$
