QYF.pdb
     RDKit          3D

 33 34  0  0  1  0  0  0  0  0999 V2000
   24.8373  -22.2376  -19.1794 N   0  0  0  0  0  0  0  0  0  0  0  0
   25.4120  -21.0112  -19.5665 C   0  0  0  0  0  0  0  0  0  0  0  0
   25.3105  -20.6773  -20.7766 O   0  0  0  0  0  0  0  0  0  0  0  0
   26.0988  -20.1830  -18.5493 C   0  0  0  0  0  0  0  0  0  0  0  0
   26.0074  -20.8004  -17.1700 C   0  0  0  0  0  0  0  0  0  0  0  0
   27.3555  -21.1727  -16.6277 C   0  0  2  0  0  0  0  0  0  0  0  0
   28.0332  -22.1283  -17.4847 N   0  0  0  0  0  0  0  0  0  0  0  0
   27.2185  -21.6757  -15.2410 C   0  0  0  0  0  0  0  0  0  0  0  0
   26.8855  -22.8590  -15.0632 O   0  0  0  0  0  0  0  0  0  0  0  0
   27.6100  -20.4798   -6.2977 O   0  0  0  0  0  0  0  0  0  0  0  0
   27.7321  -20.4440   -7.6868 C   0  0  0  0  0  0  0  0  0  0  0  0
   26.7182  -19.8656   -8.4154 C   0  0  0  0  0  0  0  0  0  0  0  0
   26.7960  -19.8068   -9.8038 C   0  0  0  0  0  0  0  0  0  0  0  0
   27.8705  -20.3151  -10.4894 C   0  0  0  0  0  0  0  0  0  0  0  0
   27.9586  -20.2421  -11.9291 C   0  0  0  0  0  0  0  0  0  0  0  0
   27.2116  -21.2574  -12.7404 C   0  0  2  0  0  0  0  0  0  0  0  0
   27.4553  -20.8497  -14.1372 N   0  0  0  0  0  0  0  0  0  0  0  0
   25.7869  -21.3189  -12.4585 C   0  0  0  0  0  0  0  0  0  0  0  0
   25.4638  -21.8070  -11.3105 O   0  0  0  0  0  0  0  0  0  0  0  0
   28.8843  -20.8967   -9.7189 C   0  0  0  0  0  0  0  0  0  0  0  0
   28.8256  -20.9648   -8.3431 C   0  0  0  0  0  0  0  0  0  0  0  0
   24.7090  -20.9065  -13.2770 N   0  0  0  0  0  0  0  0  0  0  0  0
   23.3302  -20.9444  -12.7826 C   0  0  1  0  0  0  0  0  0  0  0  0
   22.8974  -19.4952  -12.6325 C   0  0  0  0  0  0  0  0  0  0  0  0
   23.0147  -18.6950  -13.8507 C   0  0  0  0  0  0  0  0  0  0  0  0
   24.2285  -18.0634  -14.1488 C   0  0  0  0  0  0  0  0  0  0  0  0
   24.3340  -17.3259  -15.2998 C   0  0  0  0  0  0  0  0  0  0  0  0
   23.2703  -17.2017  -16.1557 C   0  0  0  0  0  0  0  0  0  0  0  0
   22.0698  -17.8273  -15.8594 C   0  0  0  0  0  0  0  0  0  0  0  0
   21.9403  -18.5758  -14.7048 C   0  0  0  0  0  0  0  0  0  0  0  0
   22.4013  -21.6156  -13.7051 C   0  0  0  0  0  0  0  0  0  0  0  0
   21.1784  -21.7998  -13.4075 O   0  0  0  0  0  0  0  0  0  0  0  0
   22.7754  -22.0909  -14.9465 O   0  0  0  0  0  0  0  0  0  0  0  0
  2  1  1  0
  3  2  2  0
  4  2  1  0
  5  4  1  0
  6  5  1  0
  6  7  1  6
  8  6  1  0
  8  9  2  0
 10 11  1  0
 11 12  2  0
 12 13  1  0
 14 13  2  0
 14 15  1  0
 16 15  1  1
 16 17  1  0
 17  8  1  0
 18 16  1  0
 19 18  2  0
 20 14  1  0
 21 20  2  0
 21 11  1  0
 22 18  1  0
 23 24  1  6
 23 22  1  0
 24 25  1  0
 25 26  2  0
 26 27  1  0
 28 27  2  0
 29 28  1  0
 30 25  1  0
 30 29  2  0
 31 33  1  0
 31 23  1  0
 32 31  2  0
M  END
$$$$
