QYF.pdb
     RDKit          3D

 33 34  0  0  1  0  0  0  0  0999 V2000
   17.8118   -9.4883  -17.9693 N   0  0  0  0  0  0  0  0  0  0  0  0
   17.8584  -10.8415  -18.3578 C   0  0  0  0  0  0  0  0  0  0  0  0
   16.7728  -11.4797  -18.3747 O   0  0  0  0  0  0  0  0  0  0  0  0
   19.1610  -11.4431  -18.7231 C   0  0  0  0  0  0  0  0  0  0  0  0
   20.3013  -10.4645  -18.5378 C   0  0  0  0  0  0  0  0  0  0  0  0
   21.4398  -11.0638  -17.7667 C   0  0  2  0  0  0  0  0  0  0  0  0
   21.2156  -12.4700  -17.4849 N   0  0  0  0  0  0  0  0  0  0  0  0
   21.6750  -10.2841  -16.5292 C   0  0  0  0  0  0  0  0  0  0  0  0
   21.2805  -10.7463  -15.4459 O   0  0  0  0  0  0  0  0  0  0  0  0
   26.4574   -5.6814  -20.0255 O   0  0  0  0  0  0  0  0  0  0  0  0
   25.9116   -6.2897  -18.8951 C   0  0  0  0  0  0  0  0  0  0  0  0
   25.8505   -7.6639  -18.8597 C   0  0  0  0  0  0  0  0  0  0  0  0
   25.3142   -8.3151  -17.7527 C   0  0  0  0  0  0  0  0  0  0  0  0
   24.8335   -7.6226  -16.6700 C   0  0  0  0  0  0  0  0  0  0  0  0
   24.2897   -8.2979  -15.5149 C   0  0  0  0  0  0  0  0  0  0  0  0
   22.8002   -8.3412  -15.3514 C   0  0  2  0  0  0  0  0  0  0  0  0
   22.3277   -9.0473  -16.5577 N   0  0  0  0  0  0  0  0  0  0  0  0
   22.1722   -7.0354  -15.2347 C   0  0  0  0  0  0  0  0  0  0  0  0
   21.6325   -6.5755  -16.3107 O   0  0  0  0  0  0  0  0  0  0  0  0
   24.9100   -6.2265  -16.7375 C   0  0  0  0  0  0  0  0  0  0  0  0
   25.4373   -5.5630  -17.8251 C   0  0  0  0  0  0  0  0  0  0  0  0
   22.0701   -6.2066  -14.0926 N   0  0  0  0  0  0  0  0  0  0  0  0
   21.4261   -4.8927  -14.1703 C   0  0  1  0  0  0  0  0  0  0  0  0
   19.9333   -5.1481  -14.0431 C   0  0  0  0  0  0  0  0  0  0  0  0
   19.5131   -5.6714  -12.7439 C   0  0  0  0  0  0  0  0  0  0  0  0
   19.4372   -7.0558  -12.5480 C   0  0  0  0  0  0  0  0  0  0  0  0
   19.0552   -7.5383  -11.3228 C   0  0  0  0  0  0  0  0  0  0  0  0
   18.7491   -6.6844  -10.2948 C   0  0  0  0  0  0  0  0  0  0  0  0
   18.8247   -5.3146  -10.4902 C   0  0  0  0  0  0  0  0  0  0  0  0
   19.2074   -4.8056  -11.7168 C   0  0  0  0  0  0  0  0  0  0  0  0
   21.8370   -3.9805  -13.0917 C   0  0  0  0  0  0  0  0  0  0  0  0
   22.6275   -4.3508  -12.1665 O   0  0  0  0  0  0  0  0  0  0  0  0
   21.4059   -2.6720  -12.9988 O   0  0  0  0  0  0  0  0  0  0  0  0
  2  1  1  0
  3  2  2  0
  4  2  1  0
  5  4  1  0
  6  5  1  0
  6  7  1  1
  8  6  1  0
  8  9  2  0
 10 11  1  0
 11 12  2  0
 12 13  1  0
 14 13  2  0
 14 15  1  0
 16 15  1  6
 16 17  1  0
 17  8  1  0
 18 16  1  0
 19 18  2  0
 20 14  1  0
 21 20  2  0
 21 11  1  0
 22 18  1  0
 23 24  1  1
 23 22  1  0
 24 25  1  0
 25 26  2  0
 26 27  1  0
 28 27  2  0
 29 28  1  0
 30 25  1  0
 30 29  2  0
 31 33  1  0
 31 23  1  0
 32 31  2  0
M  END
$$$$
