QYF.pdb
     RDKit          3D

 33 34  0  0  1  0  0  0  0  0999 V2000
   20.8178  -12.1055  -23.1630 N   0  0  0  0  0  0  0  0  0  0  0  0
   22.0577  -12.2382  -22.5079 C   0  0  0  0  0  0  0  0  0  0  0  0
   22.0737  -12.8603  -21.4130 O   0  0  0  0  0  0  0  0  0  0  0  0
   23.2674  -11.6497  -23.1265 C   0  0  0  0  0  0  0  0  0  0  0  0
   23.8867  -10.5867  -22.2441 C   0  0  0  0  0  0  0  0  0  0  0  0
   23.4195   -9.2085  -22.6079 C   0  0  2  0  0  0  0  0  0  0  0  0
   24.0286   -8.7436  -23.8408 N   0  0  0  0  0  0  0  0  0  0  0  0
   23.6723   -8.2782  -21.4830 C   0  0  0  0  0  0  0  0  0  0  0  0
   24.5804   -7.4380  -21.5930 O   0  0  0  0  0  0  0  0  0  0  0  0
   21.8453   -1.6948  -16.3086 O   0  0  0  0  0  0  0  0  0  0  0  0
   22.0183   -2.7754  -17.1737 C   0  0  0  0  0  0  0  0  0  0  0  0
   23.2943   -3.0802  -17.5888 C   0  0  0  0  0  0  0  0  0  0  0  0
   23.5158   -4.1494  -18.4518 C   0  0  0  0  0  0  0  0  0  0  0  0
   22.4861   -4.9295  -18.9147 C   0  0  0  0  0  0  0  0  0  0  0  0
   22.7165   -6.0478  -19.7991 C   0  0  0  0  0  0  0  0  0  0  0  0
   23.0647   -7.3742  -19.1936 C   0  0  2  0  0  0  0  0  0  0  0  0
   22.9136   -8.3281  -20.3089 N   0  0  0  0  0  0  0  0  0  0  0  0
   22.2294   -7.7562  -18.0669 C   0  0  0  0  0  0  0  0  0  0  0  0
   20.9891   -7.9757  -18.3385 O   0  0  0  0  0  0  0  0  0  0  0  0
   21.2008   -4.5929  -18.4738 C   0  0  0  0  0  0  0  0  0  0  0  0
   20.9610   -3.5376  -17.6195 C   0  0  0  0  0  0  0  0  0  0  0  0
   22.6017   -7.9251  -16.7124 N   0  0  0  0  0  0  0  0  0  0  0  0
   21.6002   -8.2357  -15.6889 C   0  0  1  0  0  0  0  0  0  0  0  0
   21.8666   -9.6696  -15.2614 C   0  0  0  0  0  0  0  0  0  0  0  0
   23.2797   -9.9987  -15.0793 C   0  0  0  0  0  0  0  0  0  0  0  0
   24.0740  -10.2787  -16.1980 C   0  0  0  0  0  0  0  0  0  0  0  0
   25.4011  -10.5732  -16.0194 C   0  0  0  0  0  0  0  0  0  0  0  0
   25.9541  -10.5960  -14.7652 C   0  0  0  0  0  0  0  0  0  0  0  0
   25.1667  -10.3187  -13.6591 C   0  0  0  0  0  0  0  0  0  0  0  0
   23.8266  -10.0192  -13.8150 C   0  0  0  0  0  0  0  0  0  0  0  0
   21.6948   -7.3700  -14.5031 C   0  0  0  0  0  0  0  0  0  0  0  0
   22.6581   -6.5546  -14.3446 O   0  0  0  0  0  0  0  0  0  0  0  0
   20.7618   -7.3724  -13.4852 O   0  0  0  0  0  0  0  0  0  0  0  0
  2  1  1  0
  3  2  2  0
  4  2  1  0
  5  4  1  0
  6  5  1  0
  6  7  1  6
  8  6  1  0
  8  9  2  0
 10 11  1  0
 11 12  2  0
 12 13  1  0
 14 13  2  0
 14 15  1  0
 16 15  1  6
 16 17  1  0
 17  8  1  0
 18 16  1  0
 19 18  2  0
 20 14  1  0
 21 20  2  0
 21 11  1  0
 22 18  1  0
 23 24  1  1
 23 22  1  0
 24 25  1  0
 25 26  2  0
 26 27  1  0
 28 27  2  0
 29 28  1  0
 30 25  1  0
 30 29  2  0
 31 33  1  0
 31 23  1  0
 32 31  2  0
M  END
$$$$
