QYF.pdb
     RDKit          3D

 33 34  0  0  1  0  0  0  0  0999 V2000
   32.3157  -24.3400  -17.1835 N   0  0  0  0  0  0  0  0  0  0  0  0
   31.9170  -24.0161  -18.4951 C   0  0  0  0  0  0  0  0  0  0  0  0
   32.4378  -24.6671  -19.4391 O   0  0  0  0  0  0  0  0  0  0  0  0
   30.9193  -22.9417  -18.7016 C   0  0  0  0  0  0  0  0  0  0  0  0
   30.4702  -22.3349  -17.3893 C   0  0  0  0  0  0  0  0  0  0  0  0
   29.2548  -23.0193  -16.8375 C   0  0  2  0  0  0  0  0  0  0  0  0
   28.3893  -23.5101  -17.8945 N   0  0  0  0  0  0  0  0  0  0  0  0
   28.5379  -22.1066  -15.9169 C   0  0  0  0  0  0  0  0  0  0  0  0
   29.1841  -21.5146  -15.0367 O   0  0  0  0  0  0  0  0  0  0  0  0
   20.5122  -18.6435  -13.6851 O   0  0  0  0  0  0  0  0  0  0  0  0
   21.7102  -19.0573  -14.2679 C   0  0  0  0  0  0  0  0  0  0  0  0
   21.8577  -20.3895  -14.5787 C   0  0  0  0  0  0  0  0  0  0  0  0
   23.0353  -20.8488  -15.1613 C   0  0  0  0  0  0  0  0  0  0  0  0
   24.0787  -20.0036  -15.4445 C   0  0  0  0  0  0  0  0  0  0  0  0
   25.2955  -20.4769  -16.0619 C   0  0  0  0  0  0  0  0  0  0  0  0
   26.4050  -20.9546  -15.1742 C   0  0  2  0  0  0  0  0  0  0  0  0
   27.1581  -21.9007  -16.0195 N   0  0  0  0  0  0  0  0  0  0  0  0
   25.9577  -21.5959  -13.9487 C   0  0  0  0  0  0  0  0  0  0  0  0
   25.4430  -22.7692  -14.0864 O   0  0  0  0  0  0  0  0  0  0  0  0
   23.8968  -18.6551  -15.1159 C   0  0  0  0  0  0  0  0  0  0  0  0
   22.7381  -18.1809  -14.5381 C   0  0  0  0  0  0  0  0  0  0  0  0
   26.0199  -21.1031  -12.6239 N   0  0  0  0  0  0  0  0  0  0  0  0
   25.1648  -21.6596  -11.5721 C   0  0  1  0  0  0  0  0  0  0  0  0
   26.1054  -22.2350  -10.5262 C   0  0  0  0  0  0  0  0  0  0  0  0
   26.9320  -21.2438   -9.8387 C   0  0  0  0  0  0  0  0  0  0  0  0
   26.3282  -20.3134   -8.9840 C   0  0  0  0  0  0  0  0  0  0  0  0
   27.1120  -19.3959   -8.3329 C   0  0  0  0  0  0  0  0  0  0  0  0
   28.4715  -19.3807   -8.5094 C   0  0  0  0  0  0  0  0  0  0  0  0
   29.0675  -20.3022   -9.3556 C   0  0  0  0  0  0  0  0  0  0  0  0
   28.2974  -21.2363  -10.0223 C   0  0  0  0  0  0  0  0  0  0  0  0
   24.3092  -20.6520  -10.9264 C   0  0  0  0  0  0  0  0  0  0  0  0
   23.3304  -20.9815  -10.1839 O   0  0  0  0  0  0  0  0  0  0  0  0
   24.4967  -19.2916  -11.0713 O   0  0  0  0  0  0  0  0  0  0  0  0
  2  1  1  0
  3  2  2  0
  4  2  1  0
  5  4  1  0
  6  5  1  0
  6  7  1  6
  8  6  1  0
  8  9  2  0
 10 11  1  0
 11 12  2  0
 12 13  1  0
 14 13  2  0
 14 15  1  0
 16 15  1  6
 16 17  1  0
 17  8  1  0
 18 16  1  0
 19 18  2  0
 20 14  1  0
 21 20  2  0
 21 11  1  0
 22 18  1  0
 23 24  1  1
 23 22  1  0
 24 25  1  0
 25 26  2  0
 26 27  1  0
 28 27  2  0
 29 28  1  0
 30 25  1  0
 30 29  2  0
 31 33  1  0
 31 23  1  0
 32 31  2  0
M  END
$$$$
