QYF.pdb
     RDKit          3D

 33 34  0  0  1  0  0  0  0  0999 V2000
   24.6959  -10.7169  -20.3137 N   0  0  0  0  0  0  0  0  0  0  0  0
   24.5230  -10.8794  -21.7021 C   0  0  0  0  0  0  0  0  0  0  0  0
   24.5754  -12.0507  -22.1618 O   0  0  0  0  0  0  0  0  0  0  0  0
   24.2911   -9.6846  -22.5453 C   0  0  0  0  0  0  0  0  0  0  0  0
   24.3011   -8.4111  -21.7266 C   0  0  0  0  0  0  0  0  0  0  0  0
   22.9348   -8.0549  -21.2201 C   0  0  2  0  0  0  0  0  0  0  0  0
   22.0120   -7.7880  -22.3084 N   0  0  0  0  0  0  0  0  0  0  0  0
   23.0281   -6.9112  -20.2831 C   0  0  0  0  0  0  0  0  0  0  0  0
   23.7896   -5.9700  -20.5606 O   0  0  0  0  0  0  0  0  0  0  0  0
   20.7023    0.3043  -16.3733 O   0  0  0  0  0  0  0  0  0  0  0  0
   20.9076   -0.9181  -17.0131 C   0  0  0  0  0  0  0  0  0  0  0  0
   22.1479   -1.1712  -17.5526 C   0  0  0  0  0  0  0  0  0  0  0  0
   22.3994   -2.3771  -18.2004 C   0  0  0  0  0  0  0  0  0  0  0  0
   21.4354   -3.3458  -18.3238 C   0  0  0  0  0  0  0  0  0  0  0  0
   21.6997   -4.6031  -18.9835 C   0  0  0  0  0  0  0  0  0  0  0  0
   22.2743   -5.7254  -18.1727 C   0  0  2  0  0  0  0  0  0  0  0  0
   22.2806   -6.8718  -19.1015 N   0  0  0  0  0  0  0  0  0  0  0  0
   21.5251   -6.0381  -16.9670 C   0  0  0  0  0  0  0  0  0  0  0  0
   20.3603   -6.5578  -17.1506 O   0  0  0  0  0  0  0  0  0  0  0  0
   20.1850   -3.0571  -17.7644 C   0  0  0  0  0  0  0  0  0  0  0  0
   19.9162   -1.8687  -17.1192 C   0  0  0  0  0  0  0  0  0  0  0  0
   21.9103   -5.8527  -15.6182 N   0  0  0  0  0  0  0  0  0  0  0  0
   21.0044   -6.2029  -14.5210 C   0  0  1  0  0  0  0  0  0  0  0  0
   20.7136   -7.6869  -14.6732 C   0  0  0  0  0  0  0  0  0  0  0  0
   21.8726   -8.5577  -14.4812 C   0  0  0  0  0  0  0  0  0  0  0  0
   22.0535   -9.2071  -13.2539 C   0  0  0  0  0  0  0  0  0  0  0  0
   23.1357  -10.0323  -13.0868 C   0  0  0  0  0  0  0  0  0  0  0  0
   24.0359  -10.2264  -14.1024 C   0  0  0  0  0  0  0  0  0  0  0  0
   23.8554   -9.5830  -15.3164 C   0  0  0  0  0  0  0  0  0  0  0  0
   22.7719   -8.7466  -15.5076 C   0  0  0  0  0  0  0  0  0  0  0  0
   21.5897   -5.9761  -13.1906 C   0  0  0  0  0  0  0  0  0  0  0  0
   22.7778   -5.5452  -13.0464 O   0  0  0  0  0  0  0  0  0  0  0  0
   20.9086   -6.2079  -12.0120 O   0  0  0  0  0  0  0  0  0  0  0  0
  2  1  1  0
  3  2  2  0
  4  2  1  0
  5  4  1  0
  6  5  1  0
  6  7  1  6
  8  6  1  0
  8  9  2  0
 10 11  1  0
 11 12  2  0
 12 13  1  0
 14 13  2  0
 14 15  1  0
 16 15  1  6
 16 17  1  0
 17  8  1  0
 18 16  1  0
 19 18  2  0
 20 14  1  0
 21 20  2  0
 21 11  1  0
 22 18  1  0
 23 24  1  1
 23 22  1  0
 24 25  1  0
 25 26  2  0
 26 27  1  0
 28 27  2  0
 29 28  1  0
 30 25  1  0
 30 29  2  0
 31 33  1  0
 31 23  1  0
 32 31  2  0
M  END
$$$$
