QYF.pdb
     RDKit          3D

 33 34  0  0  1  0  0  0  0  0999 V2000
   20.4534  -14.4282  -17.5528 N   0  0  0  0  0  0  0  0  0  0  0  0
   21.0498  -15.3407  -18.4448 C   0  0  0  0  0  0  0  0  0  0  0  0
   20.6610  -16.5378  -18.3989 O   0  0  0  0  0  0  0  0  0  0  0  0
   22.0905  -14.8591  -19.3814 C   0  0  0  0  0  0  0  0  0  0  0  0
   22.3395  -13.3739  -19.2261 C   0  0  0  0  0  0  0  0  0  0  0  0
   21.2781  -12.5507  -19.8939 C   0  0  2  0  0  0  0  0  0  0  0  0
   21.2758  -12.7434  -21.3326 N   0  0  0  0  0  0  0  0  0  0  0  0
   21.4435  -11.1245  -19.5287 C   0  0  0  0  0  0  0  0  0  0  0  0
   22.4345  -10.5082  -19.9544 O   0  0  0  0  0  0  0  0  0  0  0  0
   20.3430   -6.3343  -24.1980 O   0  0  0  0  0  0  0  0  0  0  0  0
   20.1412   -6.8001  -22.8986 C   0  0  0  0  0  0  0  0  0  0  0  0
   19.6664   -8.0808  -22.7318 C   0  0  0  0  0  0  0  0  0  0  0  0
   19.4495   -8.5888  -21.4542 C   0  0  0  0  0  0  0  0  0  0  0  0
   19.6975   -7.8438  -20.3288 C   0  0  0  0  0  0  0  0  0  0  0  0
   19.4861   -8.3750  -19.0025 C   0  0  0  0  0  0  0  0  0  0  0  0
   20.6340   -9.0509  -18.3151 C   0  0  2  0  0  0  0  0  0  0  0  0
   20.5123  -10.4644  -18.7203 N   0  0  0  0  0  0  0  0  0  0  0  0
   20.6244   -8.9232  -16.8672 C   0  0  0  0  0  0  0  0  0  0  0  0
   19.7285   -9.6139  -16.2501 O   0  0  0  0  0  0  0  0  0  0  0  0
   20.1795   -6.5455  -20.5331 C   0  0  0  0  0  0  0  0  0  0  0  0
   20.4004   -6.0242  -21.7903 C   0  0  0  0  0  0  0  0  0  0  0  0
   21.4745   -8.1450  -16.0464 N   0  0  0  0  0  0  0  0  0  0  0  0
   21.3528   -8.1819  -14.5866 C   0  0  1  0  0  0  0  0  0  0  0  0
   22.6845   -7.6931  -14.0412 C   0  0  0  0  0  0  0  0  0  0  0  0
   23.1034   -6.3836  -14.5395 C   0  0  0  0  0  0  0  0  0  0  0  0
   23.8847   -6.3027  -15.6987 C   0  0  0  0  0  0  0  0  0  0  0  0
   24.2618   -5.0703  -16.1666 C   0  0  0  0  0  0  0  0  0  0  0  0
   23.8841   -3.9247  -15.5152 C   0  0  0  0  0  0  0  0  0  0  0  0
   23.1108   -4.0064  -14.3681 C   0  0  0  0  0  0  0  0  0  0  0  0
   22.7189   -5.2378  -13.8781 C   0  0  0  0  0  0  0  0  0  0  0  0
   20.2881   -7.3075  -14.0710 C   0  0  0  0  0  0  0  0  0  0  0  0
   19.7071   -6.4518  -14.8114 O   0  0  0  0  0  0  0  0  0  0  0  0
   19.8411   -7.3448  -12.7650 O   0  0  0  0  0  0  0  0  0  0  0  0
  2  1  1  0
  3  2  2  0
  4  2  1  0
  5  4  1  0
  6  5  1  0
  6  7  1  6
  8  6  1  0
  8  9  2  0
 10 11  1  0
 11 12  2  0
 12 13  1  0
 14 13  2  0
 14 15  1  0
 16 15  1  6
 16 17  1  0
 17  8  1  0
 18 16  1  0
 19 18  2  0
 20 14  1  0
 21 20  2  0
 21 11  1  0
 22 18  1  0
 23 24  1  1
 23 22  1  0
 24 25  1  0
 25 26  2  0
 26 27  1  0
 28 27  2  0
 29 28  1  0
 30 25  1  0
 30 29  2  0
 31 33  1  0
 31 23  1  0
 32 31  2  0
M  END
$$$$
