QYF.pdb
     RDKit          3D

 33 34  0  0  1  0  0  0  0  0999 V2000
   26.4137  -26.3172  -15.7824 N   0  0  0  0  0  0  0  0  0  0  0  0
   27.4162  -26.3281  -16.7718 C   0  0  0  0  0  0  0  0  0  0  0  0
   27.8427  -27.4492  -17.1557 O   0  0  0  0  0  0  0  0  0  0  0  0
   27.9156  -25.0412  -17.3074 C   0  0  0  0  0  0  0  0  0  0  0  0
   27.1952  -23.8610  -16.6911 C   0  0  0  0  0  0  0  0  0  0  0  0
   27.6845  -22.5526  -17.2378 C   0  0  2  0  0  0  0  0  0  0  0  0
   29.1346  -22.4927  -17.2682 N   0  0  0  0  0  0  0  0  0  0  0  0
   27.1025  -21.4335  -16.4610 C   0  0  0  0  0  0  0  0  0  0  0  0
   27.6143  -21.1314  -15.3703 O   0  0  0  0  0  0  0  0  0  0  0  0
   30.9963  -16.9963  -18.1647 O   0  0  0  0  0  0  0  0  0  0  0  0
   29.6719  -17.3170  -17.8662 C   0  0  0  0  0  0  0  0  0  0  0  0
   29.0018  -18.1712  -18.7115 C   0  0  0  0  0  0  0  0  0  0  0  0
   27.6791  -18.5198  -18.4543 C   0  0  0  0  0  0  0  0  0  0  0  0
   27.0026  -18.0330  -17.3642 C   0  0  0  0  0  0  0  0  0  0  0  0
   25.6346  -18.4052  -17.0888 C   0  0  0  0  0  0  0  0  0  0  0  0
   25.3833  -19.5880  -16.2028 C   0  0  2  0  0  0  0  0  0  0  0  0
   25.9964  -20.7165  -16.9291 N   0  0  0  0  0  0  0  0  0  0  0  0
   23.9786  -19.8463  -15.9326 C   0  0  0  0  0  0  0  0  0  0  0  0
   23.2264  -19.9911  -16.9689 O   0  0  0  0  0  0  0  0  0  0  0  0
   27.7125  -17.1665  -16.5246 C   0  0  0  0  0  0  0  0  0  0  0  0
   29.0227  -16.8091  -16.7624 C   0  0  0  0  0  0  0  0  0  0  0  0
   23.3305  -19.9665  -14.6806 N   0  0  0  0  0  0  0  0  0  0  0  0
   21.9035  -20.2889  -14.5987 C   0  0  1  0  0  0  0  0  0  0  0  0
   21.7336  -21.6262  -15.3006 C   0  0  0  0  0  0  0  0  0  0  0  0
   20.3566  -22.1151  -15.3551 C   0  0  0  0  0  0  0  0  0  0  0  0
   19.9602  -23.1604  -14.5118 C   0  0  0  0  0  0  0  0  0  0  0  0
   18.6637  -23.6039  -14.5599 C   0  0  0  0  0  0  0  0  0  0  0  0
   17.7580  -23.0378  -15.4194 C   0  0  0  0  0  0  0  0  0  0  0  0
   18.1517  -22.0034  -16.2533 C   0  0  0  0  0  0  0  0  0  0  0  0
   19.4534  -21.5401  -16.2221 C   0  0  0  0  0  0  0  0  0  0  0  0
   21.4172  -20.4220  -13.2167 C   0  0  0  0  0  0  0  0  0  0  0  0
   20.1766  -20.3900  -12.9375 O   0  0  0  0  0  0  0  0  0  0  0  0
   22.2533  -20.5901  -12.1307 O   0  0  0  0  0  0  0  0  0  0  0  0
  2  1  1  0
  3  2  2  0
  4  2  1  0
  5  4  1  0
  6  5  1  0
  6  7  1  1
  8  6  1  0
  8  9  2  0
 10 11  1  0
 11 12  2  0
 12 13  1  0
 14 13  2  0
 14 15  1  0
 16 15  1  6
 16 17  1  0
 17  8  1  0
 18 16  1  0
 19 18  2  0
 20 14  1  0
 21 20  2  0
 21 11  1  0
 22 18  1  0
 23 24  1  6
 23 22  1  0
 24 25  1  0
 25 26  2  0
 26 27  1  0
 28 27  2  0
 29 28  1  0
 30 25  1  0
 30 29  2  0
 31 33  1  0
 31 23  1  0
 32 31  2  0
M  END
$$$$
