QYF.pdb
     RDKit          3D

 33 34  0  0  1  0  0  0  0  0999 V2000
   19.0633   -6.8802  -21.1229 N   0  0  0  0  0  0  0  0  0  0  0  0
   18.7429   -5.5348  -21.3903 C   0  0  0  0  0  0  0  0  0  0  0  0
   17.6537   -5.3019  -21.9783 O   0  0  0  0  0  0  0  0  0  0  0  0
   19.6861   -4.4719  -20.9747 C   0  0  0  0  0  0  0  0  0  0  0  0
   20.9143   -5.0455  -20.3005 C   0  0  0  0  0  0  0  0  0  0  0  0
   21.0342   -4.6007  -18.8729 C   0  0  2  0  0  0  0  0  0  0  0  0
   21.1174   -3.1554  -18.7665 N   0  0  0  0  0  0  0  0  0  0  0  0
   22.1918   -5.2684  -18.2335 C   0  0  0  0  0  0  0  0  0  0  0  0
   23.0991   -4.5671  -17.7561 O   0  0  0  0  0  0  0  0  0  0  0  0
   18.9918   -8.9881  -12.9220 O   0  0  0  0  0  0  0  0  0  0  0  0
   20.0148   -8.4382  -13.6948 C   0  0  0  0  0  0  0  0  0  0  0  0
   21.1947   -9.1372  -13.8069 C   0  0  0  0  0  0  0  0  0  0  0  0
   22.2434   -8.6280  -14.5672 C   0  0  0  0  0  0  0  0  0  0  0  0
   22.1427   -7.4278  -15.2247 C   0  0  0  0  0  0  0  0  0  0  0  0
   23.2254   -6.9053  -16.0252 C   0  0  0  0  0  0  0  0  0  0  0  0
   23.3552   -7.3774  -17.4420 C   0  0  2  0  0  0  0  0  0  0  0  0
   22.2815   -6.6622  -18.1579 N   0  0  0  0  0  0  0  0  0  0  0  0
   23.2220   -8.8153  -17.6089 C   0  0  0  0  0  0  0  0  0  0  0  0
   22.0195   -9.2521  -17.7633 O   0  0  0  0  0  0  0  0  0  0  0  0
   20.9299   -6.7418  -15.0901 C   0  0  0  0  0  0  0  0  0  0  0  0
   19.8797   -7.2294  -14.3415 C   0  0  0  0  0  0  0  0  0  0  0  0
   24.2406   -9.7971  -17.6308 N   0  0  0  0  0  0  0  0  0  0  0  0
   24.1356  -10.9724  -18.4995 C   0  0  1  0  0  0  0  0  0  0  0  0
   22.6699  -11.0792  -18.8870 C   0  0  0  0  0  0  0  0  0  0  0  0
   22.0511  -12.3683  -18.5808 C   0  0  0  0  0  0  0  0  0  0  0  0
   20.7874  -12.6699  -19.1032 C   0  0  0  0  0  0  0  0  0  0  0  0
   20.2202  -13.8862  -18.8221 C   0  0  0  0  0  0  0  0  0  0  0  0
   20.8736  -14.8033  -18.0401 C   0  0  0  0  0  0  0  0  0  0  0  0
   22.1242  -14.5033  -17.5239 C   0  0  0  0  0  0  0  0  0  0  0  0
   22.7154  -13.2836  -17.7940 C   0  0  0  0  0  0  0  0  0  0  0  0
   24.9361  -10.8588  -19.7285 C   0  0  0  0  0  0  0  0  0  0  0  0
   25.0822   -9.7487  -20.3322 O   0  0  0  0  0  0  0  0  0  0  0  0
   25.5824  -11.9288  -20.3151 O   0  0  0  0  0  0  0  0  0  0  0  0
  2  1  1  0
  3  2  2  0
  4  2  1  0
  5  4  1  0
  6  5  1  0
  6  7  1  6
  8  6  1  0
  8  9  2  0
 10 11  1  0
 11 12  2  0
 12 13  1  0
 14 13  2  0
 14 15  1  0
 16 15  1  1
 16 17  1  0
 17  8  1  0
 18 16  1  0
 19 18  2  0
 20 14  1  0
 21 20  2  0
 21 11  1  0
 22 18  1  0
 23 24  1  6
 23 22  1  0
 24 25  1  0
 25 26  2  0
 26 27  1  0
 28 27  2  0
 29 28  1  0
 30 25  1  0
 30 29  2  0
 31 33  1  0
 31 23  1  0
 32 31  2  0
M  END
$$$$
