QYF.pdb
     RDKit          3D

 33 34  0  0  1  0  0  0  0  0999 V2000
   15.5094  -10.8424  -14.1107 N   0  0  0  0  0  0  0  0  0  0  0  0
   15.1108  -11.5596  -15.2557 C   0  0  0  0  0  0  0  0  0  0  0  0
   13.8794  -11.7763  -15.4070 O   0  0  0  0  0  0  0  0  0  0  0  0
   16.1412  -12.0190  -16.2145 C   0  0  0  0  0  0  0  0  0  0  0  0
   17.5388  -11.6890  -15.7352 C   0  0  0  0  0  0  0  0  0  0  0  0
   18.5895  -12.1346  -16.7087 C   0  0  2  0  0  0  0  0  0  0  0  0
   18.5271  -13.5651  -16.9478 N   0  0  0  0  0  0  0  0  0  0  0  0
   19.9275  -11.7128  -16.2330 C   0  0  0  0  0  0  0  0  0  0  0  0
   20.5217  -12.4253  -15.4071 O   0  0  0  0  0  0  0  0  0  0  0  0
   28.3048   -9.5224  -16.3816 O   0  0  0  0  0  0  0  0  0  0  0  0
   26.9432   -9.7644  -16.5640 C   0  0  0  0  0  0  0  0  0  0  0  0
   26.3145   -9.1755  -17.6369 C   0  0  0  0  0  0  0  0  0  0  0  0
   24.9570   -9.3881  -17.8592 C   0  0  0  0  0  0  0  0  0  0  0  0
   24.2048  -10.1814  -17.0300 C   0  0  0  0  0  0  0  0  0  0  0  0
   22.7993  -10.4138  -17.2678 C   0  0  0  0  0  0  0  0  0  0  0  0
   21.8231  -10.0295  -16.1971 C   0  0  2  0  0  0  0  0  0  0  0  0
   20.5293  -10.5368  -16.6929 N   0  0  0  0  0  0  0  0  0  0  0  0
   21.7543   -8.6015  -15.9338 C   0  0  0  0  0  0  0  0  0  0  0  0
   21.0452   -7.9132  -16.7608 O   0  0  0  0  0  0  0  0  0  0  0  0
   24.8742  -10.7653  -15.9480 C   0  0  0  0  0  0  0  0  0  0  0  0
   26.2178  -10.5667  -15.7108 C   0  0  0  0  0  0  0  0  0  0  0  0
   22.3583   -7.8698  -14.8842 N   0  0  0  0  0  0  0  0  0  0  0  0
   22.0823   -6.4420  -14.7052 C   0  0  1  0  0  0  0  0  0  0  0  0
   22.0712   -5.8377  -16.0997 C   0  0  0  0  0  0  0  0  0  0  0  0
   23.3804   -5.7785  -16.7485 C   0  0  0  0  0  0  0  0  0  0  0  0
   24.5127   -5.4524  -15.9919 C   0  0  0  0  0  0  0  0  0  0  0  0
   25.7383   -5.4121  -16.6053 C   0  0  0  0  0  0  0  0  0  0  0  0
   25.8651   -5.6860  -17.9426 C   0  0  0  0  0  0  0  0  0  0  0  0
   24.7435   -6.0085  -18.6899 C   0  0  0  0  0  0  0  0  0  0  0  0
   23.4979   -6.0553  -18.0929 C   0  0  0  0  0  0  0  0  0  0  0  0
   20.7811   -6.1776  -14.0717 C   0  0  0  0  0  0  0  0  0  0  0  0
   20.0243   -7.1210  -13.6776 O   0  0  0  0  0  0  0  0  0  0  0  0
   20.2854   -4.9068  -13.8573 O   0  0  0  0  0  0  0  0  0  0  0  0
  2  1  1  0
  3  2  2  0
  4  2  1  0
  5  4  1  0
  6  5  1  0
  6  7  1  1
  8  6  1  0
  8  9  2  0
 10 11  1  0
 11 12  2  0
 12 13  1  0
 14 13  2  0
 14 15  1  0
 16 15  1  6
 16 17  1  0
 17  8  1  0
 18 16  1  0
 19 18  2  0
 20 14  1  0
 21 20  2  0
 21 11  1  0
 22 18  1  0
 23 24  1  6
 23 22  1  0
 24 25  1  0
 25 26  2  0
 26 27  1  0
 28 27  2  0
 29 28  1  0
 30 25  1  0
 30 29  2  0
 31 33  1  0
 31 23  1  0
 32 31  2  0
M  END
$$$$
