FDR.pdb
     RDKit          3D

 31 31  0  0  1  0  0  0  0  0999 V2000
    7.3594  -17.6247   19.7714 N   0  0  0  0  0  0  0  0  0  0  0  0
    8.4094  -17.0894   20.6202 C   0  0  1  0  0  0  0  0  0  0  0  0
    7.9054  -15.9966   21.5220 C   0  0  0  0  0  0  0  0  0  0  0  0
    7.9003  -14.7497   20.6899 C   0  0  0  0  0  0  0  0  0  0  0  0
    6.6965  -14.3310   20.1458 C   0  0  0  0  0  0  0  0  0  0  0  0
    6.6633  -13.1843   19.3683 C   0  0  0  0  0  0  0  0  0  0  0  0
    7.7913  -12.4489   19.1207 C   0  0  0  0  0  0  0  0  0  0  0  0
    8.9856  -12.8775   19.6694 C   0  0  0  0  0  0  0  0  0  0  0  0
    9.0303  -14.0146   20.4431 C   0  0  0  0  0  0  0  0  0  0  0  0
    9.0241  -18.2263   21.3435 C   0  0  0  0  0  0  0  0  0  0  0  0
    8.3060  -19.1428   21.8647 O   0  0  0  0  0  0  0  0  0  0  0  0
   10.4308  -18.2857   21.4493 N   0  0  0  0  0  0  0  0  0  0  0  0
   11.0650  -19.1442   22.4175 C   0  0  1  0  0  0  0  0  0  0  0  0
   12.5469  -19.1789   22.0582 C   0  0  0  0  0  0  0  0  0  0  0  0
   13.2415  -20.1710   22.9581 C   0  0  0  0  0  0  0  0  0  0  0  0
   12.5644  -20.8449   23.7848 O   0  0  0  0  0  0  0  0  0  0  0  0
   10.9870  -18.4464   23.7493 C   0  0  0  0  0  0  0  0  0  0  0  0
   11.5586  -17.3322   23.9225 O   0  0  0  0  0  0  0  0  0  0  0  0
   14.6071  -20.3620   22.8992 O   0  0  0  0  0  0  0  0  0  0  0  0
    8.6712  -13.9295   25.8101 N   0  0  0  0  0  0  0  0  0  0  0  0
    7.4032  -14.0126   25.1827 C   0  0  0  0  0  0  0  0  0  0  0  0
    6.9748  -13.0412   24.4556 N   0  0  0  0  0  0  0  0  0  0  0  0
    6.5471  -15.1488   25.3169 N   0  0  0  0  0  0  0  0  0  0  0  0
    6.9644  -16.3724   25.9690 C   0  0  0  0  0  0  0  0  0  0  0  0
    8.3524  -16.7866   25.6269 C   0  0  0  0  0  0  0  0  0  0  0  0
    8.7240  -18.0530   26.3557 C   0  0  0  0  0  0  0  0  0  0  0  0
   10.1306  -18.5173   26.0611 C   0  0  2  0  0  0  0  0  0  0  0  0
   10.2501  -19.1118   24.7552 N   0  0  0  0  0  0  0  0  0  0  0  0
   10.4655  -19.5114   27.1328 C   0  0  0  0  0  0  0  0  0  0  0  0
   10.6001  -19.0878   28.4283 O   0  0  0  0  0  0  0  0  0  0  0  0
   10.6140  -20.7002   26.8204 O   0  0  0  0  0  0  0  0  0  0  0  0
  2  1  1  1
  2 10  1  0
  3  2  1  0
  3  4  1  0
  4  5  2  0
  4  9  1  0
  5  6  1  0
  6  7  2  0
  8  7  1  0
  9  8  2  0
 10 11  2  0
 12 10  1  0
 12 13  1  0
 13 14  1  6
 13 17  1  0
 15 14  1  0
 16 15  2  0
 17 18  2  0
 19 15  1  0
 20 21  1  0
 21 22  2  0
 21 23  1  0
 23 24  1  0
 24 25  1  0
 25 26  1  0
 27 26  1  1
 27 29  1  0
 28 27  1  0
 28 17  1  0
 29 31  2  0
 29 30  1  0
M  END
$$$$
