FDR.pdb
     RDKit          3D

 31 31  0  0  1  0  0  0  0  0999 V2000
    6.2444  -17.0158   23.9605 N   0  0  0  0  0  0  0  0  0  0  0  0
    7.3938  -16.2832   24.4623 C   0  0  1  0  0  0  0  0  0  0  0  0
    7.2339  -15.9017   25.9081 C   0  0  0  0  0  0  0  0  0  0  0  0
    7.0634  -14.4125   25.9215 C   0  0  0  0  0  0  0  0  0  0  0  0
    6.3745  -13.8422   26.9802 C   0  0  0  0  0  0  0  0  0  0  0  0
    6.1977  -12.4681   27.0159 C   0  0  0  0  0  0  0  0  0  0  0  0
    6.6864  -11.6531   26.0303 C   0  0  0  0  0  0  0  0  0  0  0  0
    7.3716  -12.2346   24.9798 C   0  0  0  0  0  0  0  0  0  0  0  0
    7.5533  -13.5979   24.9341 C   0  0  0  0  0  0  0  0  0  0  0  0
    8.5993  -17.0988   24.1883 C   0  0  0  0  0  0  0  0  0  0  0  0
    8.6778  -18.3116   24.5760 O   0  0  0  0  0  0  0  0  0  0  0  0
    9.6727  -16.5121   23.4833 N   0  0  0  0  0  0  0  0  0  0  0  0
   10.8916  -17.2437   23.2471 C   0  0  1  0  0  0  0  0  0  0  0  0
   11.6417  -16.4909   22.1532 C   0  0  0  0  0  0  0  0  0  0  0  0
   11.0602  -16.8731   20.8145 C   0  0  0  0  0  0  0  0  0  0  0  0
   11.0333  -16.0236   19.8798 O   0  0  0  0  0  0  0  0  0  0  0  0
   11.7379  -17.1095   24.4851 C   0  0  0  0  0  0  0  0  0  0  0  0
   11.8962  -15.9811   25.0328 O   0  0  0  0  0  0  0  0  0  0  0  0
   10.5544  -18.1365   20.5844 O   0  0  0  0  0  0  0  0  0  0  0  0
   12.2558  -22.5892   30.6729 N   0  0  0  0  0  0  0  0  0  0  0  0
   11.1905  -21.7842   30.1982 C   0  0  0  0  0  0  0  0  0  0  0  0
   10.0523  -21.7951   30.7983 N   0  0  0  0  0  0  0  0  0  0  0  0
   11.3127  -20.9354   29.0551 N   0  0  0  0  0  0  0  0  0  0  0  0
   11.3185  -19.4905   29.1482 C   0  0  0  0  0  0  0  0  0  0  0  0
   11.4857  -18.8094   27.8355 C   0  0  0  0  0  0  0  0  0  0  0  0
   12.8030  -19.1848   27.2058 C   0  0  0  0  0  0  0  0  0  0  0  0
   13.2183  -18.2505   26.0943 C   0  0  2  0  0  0  0  0  0  0  0  0
   12.3206  -18.3025   24.9697 N   0  0  0  0  0  0  0  0  0  0  0  0
   14.5990  -18.6785   25.6953 C   0  0  0  0  0  0  0  0  0  0  0  0
   15.6120  -18.6337   26.6159 O   0  0  0  0  0  0  0  0  0  0  0  0
   14.7935  -19.0647   24.5351 O   0  0  0  0  0  0  0  0  0  0  0  0
  2  1  1  1
  2 10  1  0
  3  2  1  0
  3  4  1  0
  4  5  2  0
  4  9  1  0
  5  6  1  0
  6  7  2  0
  8  7  1  0
  9  8  2  0
 10 11  2  0
 12 10  1  0
 12 13  1  0
 13 14  1  6
 13 17  1  0
 15 14  1  0
 16 15  2  0
 17 18  2  0
 19 15  1  0
 20 21  1  0
 21 22  2  0
 21 23  1  0
 23 24  1  0
 24 25  1  0
 25 26  1  0
 27 26  1  1
 27 29  1  0
 28 27  1  0
 28 17  1  0
 29 31  2  0
 29 30  1  0
M  END
$$$$
