FDR.pdb
     RDKit          3D

 31 31  0  0  1  0  0  0  0  0999 V2000
    5.8314  -17.3406   24.4002 N   0  0  0  0  0  0  0  0  0  0  0  0
    6.9060  -16.3635   24.3881 C   0  0  1  0  0  0  0  0  0  0  0  0
    7.1863  -15.8145   25.7598 C   0  0  0  0  0  0  0  0  0  0  0  0
    6.9329  -14.3398   25.6696 C   0  0  0  0  0  0  0  0  0  0  0  0
    6.2810  -13.7220   26.7251 C   0  0  0  0  0  0  0  0  0  0  0  0
    6.0292  -12.3605   26.6663 C   0  0  0  0  0  0  0  0  0  0  0  0
    6.4078  -11.6037   25.5900 C   0  0  0  0  0  0  0  0  0  0  0  0
    7.0571  -12.2322   24.5438 C   0  0  0  0  0  0  0  0  0  0  0  0
    7.3125  -13.5835   24.5915 C   0  0  0  0  0  0  0  0  0  0  0  0
    8.0805  -16.9969   23.7455 C   0  0  0  0  0  0  0  0  0  0  0  0
    8.4127  -18.1985   24.0160 O   0  0  0  0  0  0  0  0  0  0  0  0
    8.8360  -16.2473   22.8178 N   0  0  0  0  0  0  0  0  0  0  0  0
   10.0696  -16.7621   22.2795 C   0  0  1  0  0  0  0  0  0  0  0  0
   10.3679  -15.9451   21.0266 C   0  0  0  0  0  0  0  0  0  0  0  0
    9.6759  -16.5893   19.8507 C   0  0  0  0  0  0  0  0  0  0  0  0
    9.3218  -17.8000   19.9211 O   0  0  0  0  0  0  0  0  0  0  0  0
   11.1604  -16.4165   23.2580 C   0  0  0  0  0  0  0  0  0  0  0  0
   11.2577  -15.2438   23.7200 O   0  0  0  0  0  0  0  0  0  0  0  0
    9.4179  -15.8836   18.6931 O   0  0  0  0  0  0  0  0  0  0  0  0
    8.8873  -21.0777   25.9968 N   0  0  0  0  0  0  0  0  0  0  0  0
   10.1095  -21.6101   26.4773 C   0  0  0  0  0  0  0  0  0  0  0  0
   10.4092  -22.8427   26.2613 N   0  0  0  0  0  0  0  0  0  0  0  0
   11.0565  -20.8315   27.2115 N   0  0  0  0  0  0  0  0  0  0  0  0
   11.2296  -19.4088   27.0057 C   0  0  0  0  0  0  0  0  0  0  0  0
   12.4835  -19.0592   26.2842 C   0  0  0  0  0  0  0  0  0  0  0  0
   12.5405  -17.5789   26.0042 C   0  0  0  0  0  0  0  0  0  0  0  0
   13.0404  -17.2552   24.6164 C   0  0  2  0  0  0  0  0  0  0  0  0
   12.0359  -17.4697   23.6074 N   0  0  0  0  0  0  0  0  0  0  0  0
   14.2237  -18.1481   24.3898 C   0  0  0  0  0  0  0  0  0  0  0  0
   15.3666  -17.9521   25.1187 O   0  0  0  0  0  0  0  0  0  0  0  0
   14.1405  -19.0479   23.5434 O   0  0  0  0  0  0  0  0  0  0  0  0
  2  1  1  1
  2 10  1  0
  3  2  1  0
  3  4  1  0
  4  5  2  0
  4  9  1  0
  5  6  1  0
  6  7  2  0
  8  7  1  0
  9  8  2  0
 10 11  2  0
 12 10  1  0
 12 13  1  0
 13 14  1  6
 13 17  1  0
 15 14  1  0
 16 15  2  0
 17 18  2  0
 19 15  1  0
 20 21  1  0
 21 22  2  0
 21 23  1  0
 23 24  1  0
 24 25  1  0
 25 26  1  0
 27 26  1  1
 27 29  1  0
 28 27  1  0
 28 17  1  0
 29 31  2  0
 29 30  1  0
M  END
$$$$
