FDR.pdb
     RDKit          3D

 31 31  0  0  1  0  0  0  0  0999 V2000
    7.7255  -17.9215   19.3653 N   0  0  0  0  0  0  0  0  0  0  0  0
    7.9835  -16.7282   20.1520 C   0  0  1  0  0  0  0  0  0  0  0  0
    6.7148  -16.0134   20.5276 C   0  0  0  0  0  0  0  0  0  0  0  0
    7.1435  -14.7737   21.2532 C   0  0  0  0  0  0  0  0  0  0  0  0
    7.5344  -13.6772   20.5009 C   0  0  0  0  0  0  0  0  0  0  0  0
    7.9402  -12.5195   21.1455 C   0  0  0  0  0  0  0  0  0  0  0  0
    7.9664  -12.4267   22.5112 C   0  0  0  0  0  0  0  0  0  0  0  0
    7.5742  -13.5275   23.2498 C   0  0  0  0  0  0  0  0  0  0  0  0
    7.1692  -14.6823   22.6204 C   0  0  0  0  0  0  0  0  0  0  0  0
    8.8116  -17.1275   21.3132 C   0  0  0  0  0  0  0  0  0  0  0  0
    8.4464  -18.0700   22.0914 O   0  0  0  0  0  0  0  0  0  0  0  0
   10.0251  -16.4459   21.5508 N   0  0  0  0  0  0  0  0  0  0  0  0
   10.9116  -16.8593   22.6091 C   0  0  1  0  0  0  0  0  0  0  0  0
   12.1763  -16.0189   22.4654 C   0  0  0  0  0  0  0  0  0  0  0  0
   12.9850  -16.5526   21.3088 C   0  0  0  0  0  0  0  0  0  0  0  0
   12.9275  -17.7813   21.0209 O   0  0  0  0  0  0  0  0  0  0  0  0
   10.2843  -16.4289   23.9083 C   0  0  0  0  0  0  0  0  0  0  0  0
   10.0934  -15.2032   24.1517 O   0  0  0  0  0  0  0  0  0  0  0  0
   13.7906  -15.7257   20.5524 O   0  0  0  0  0  0  0  0  0  0  0  0
    5.9035  -21.0218   24.4490 N   0  0  0  0  0  0  0  0  0  0  0  0
    5.7489  -20.0685   23.4119 C   0  0  0  0  0  0  0  0  0  0  0  0
    5.3816  -20.4427   22.2368 N   0  0  0  0  0  0  0  0  0  0  0  0
    5.9862  -18.6724   23.6032 N   0  0  0  0  0  0  0  0  0  0  0  0
    7.2427  -18.1513   24.0992 C   0  0  0  0  0  0  0  0  0  0  0  0
    7.0921  -17.2520   25.2756 C   0  0  0  0  0  0  0  0  0  0  0  0
    8.0576  -17.6384   26.3671 C   0  0  0  0  0  0  0  0  0  0  0  0
    9.4622  -17.1406   26.1220 C   0  0  2  0  0  0  0  0  0  0  0  0
    9.9377  -17.4669   24.8027 N   0  0  0  0  0  0  0  0  0  0  0  0
   10.3144  -17.7886   27.1721 C   0  0  0  0  0  0  0  0  0  0  0  0
   11.3984  -18.5360   26.7950 O   0  0  0  0  0  0  0  0  0  0  0  0
   10.0168  -17.6328   28.3638 O   0  0  0  0  0  0  0  0  0  0  0  0
  2  1  1  1
  2 10  1  0
  3  2  1  0
  3  4  1  0
  4  5  2  0
  4  9  1  0
  5  6  1  0
  6  7  2  0
  8  7  1  0
  9  8  2  0
 10 11  2  0
 12 10  1  0
 12 13  1  0
 13 14  1  6
 13 17  1  0
 15 14  1  0
 16 15  2  0
 17 18  2  0
 19 15  1  0
 20 21  1  0
 21 22  2  0
 21 23  1  0
 23 24  1  0
 24 25  1  0
 25 26  1  0
 27 26  1  6
 27 29  1  0
 28 27  1  0
 28 17  1  0
 29 31  2  0
 29 30  1  0
M  END
$$$$
