FDR.pdb
     RDKit          3D

 31 31  0  0  1  0  0  0  0  0999 V2000
    8.5974  -14.7751   25.8525 N   0  0  0  0  0  0  0  0  0  0  0  0
    7.7530  -15.5550   24.9647 C   0  0  1  0  0  0  0  0  0  0  0  0
    6.8548  -14.6848   24.1295 C   0  0  0  0  0  0  0  0  0  0  0  0
    6.6980  -13.4056   24.8951 C   0  0  0  0  0  0  0  0  0  0  0  0
    7.4749  -12.3202   24.5221 C   0  0  0  0  0  0  0  0  0  0  0  0
    7.3541  -11.1264   25.2155 C   0  0  0  0  0  0  0  0  0  0  0  0
    6.4848  -10.9872   26.2640 C   0  0  0  0  0  0  0  0  0  0  0  0
    5.7157  -12.0775   26.6259 C   0  0  0  0  0  0  0  0  0  0  0  0
    5.8272  -13.2677   25.9445 C   0  0  0  0  0  0  0  0  0  0  0  0
    8.6354  -16.4406   24.1704 C   0  0  0  0  0  0  0  0  0  0  0  0
    8.1601  -17.4143   23.4972 O   0  0  0  0  0  0  0  0  0  0  0  0
   10.0250  -16.1907   24.1656 N   0  0  0  0  0  0  0  0  0  0  0  0
   10.9498  -17.1595   23.6338 C   0  0  1  0  0  0  0  0  0  0  0  0
   11.7918  -16.4269   22.5943 C   0  0  0  0  0  0  0  0  0  0  0  0
   12.3889  -17.4416   21.6506 C   0  0  0  0  0  0  0  0  0  0  0  0
   12.1676  -18.6717   21.8347 O   0  0  0  0  0  0  0  0  0  0  0  0
   11.9008  -17.5222   24.7433 C   0  0  0  0  0  0  0  0  0  0  0  0
   12.5245  -16.6201   25.3720 O   0  0  0  0  0  0  0  0  0  0  0  0
   13.1752  -17.0561   20.5839 O   0  0  0  0  0  0  0  0  0  0  0  0
   14.0662  -23.2485   30.9415 N   0  0  0  0  0  0  0  0  0  0  0  0
   13.3404  -22.1036   31.3544 C   0  0  0  0  0  0  0  0  0  0  0  0
   13.3953  -21.7074   32.5775 N   0  0  0  0  0  0  0  0  0  0  0  0
   12.5253  -21.3413   30.4619 N   0  0  0  0  0  0  0  0  0  0  0  0
   12.3714  -21.6756   29.0615 C   0  0  0  0  0  0  0  0  0  0  0  0
   13.1112  -20.7644   28.1464 C   0  0  0  0  0  0  0  0  0  0  0  0
   12.2131  -20.2829   27.0353 C   0  0  0  0  0  0  0  0  0  0  0  0
   12.9021  -19.3350   26.0826 C   0  0  2  0  0  0  0  0  0  0  0  0
   12.0360  -18.9022   25.0169 N   0  0  0  0  0  0  0  0  0  0  0  0
   14.0813  -20.0862   25.5404 C   0  0  0  0  0  0  0  0  0  0  0  0
   15.2646  -20.0741   26.2300 O   0  0  0  0  0  0  0  0  0  0  0  0
   13.9580  -20.7041   24.4745 O   0  0  0  0  0  0  0  0  0  0  0  0
  2  1  1  6
  2 10  1  0
  3  2  1  0
  3  4  1  0
  4  5  2  0
  4  9  1  0
  5  6  1  0
  6  7  2  0
  8  7  1  0
  9  8  2  0
 10 11  2  0
 12 10  1  0
 12 13  1  0
 13 14  1  6
 13 17  1  0
 15 14  1  0
 16 15  2  0
 17 18  2  0
 19 15  1  0
 20 21  1  0
 21 22  2  0
 21 23  1  0
 23 24  1  0
 24 25  1  0
 25 26  1  0
 27 26  1  1
 27 29  1  0
 28 27  1  0
 28 17  1  0
 29 31  2  0
 29 30  1  0
M  END
$$$$
