FDR.pdb
     RDKit          3D

 31 31  0  0  1  0  0  0  0  0999 V2000
    7.2677  -16.1510   24.8197 N   0  0  0  0  0  0  0  0  0  0  0  0
    8.4610  -15.7708   24.0841 C   0  0  1  0  0  0  0  0  0  0  0  0
    8.5588  -14.2820   23.8959 C   0  0  0  0  0  0  0  0  0  0  0  0
    7.7859  -13.9760   22.6484 C   0  0  0  0  0  0  0  0  0  0  0  0
    7.7661  -12.6663   22.1955 C   0  0  0  0  0  0  0  0  0  0  0  0
    7.0555  -12.3539   21.0475 C   0  0  0  0  0  0  0  0  0  0  0  0
    6.3687  -13.3065   20.3438 C   0  0  0  0  0  0  0  0  0  0  0  0
    6.3964  -14.6090   20.8063 C   0  0  0  0  0  0  0  0  0  0  0  0
    7.0988  -14.9307   21.9450 C   0  0  0  0  0  0  0  0  0  0  0  0
    9.6253  -16.3635   24.7818 C   0  0  0  0  0  0  0  0  0  0  0  0
    9.8792  -16.0808   25.9995 O   0  0  0  0  0  0  0  0  0  0  0  0
   10.4599  -17.2570   24.0756 N   0  0  0  0  0  0  0  0  0  0  0  0
   11.8259  -17.4718   24.4812 C   0  0  1  0  0  0  0  0  0  0  0  0
   11.9221  -18.9299   24.9181 C   0  0  0  0  0  0  0  0  0  0  0  0
   11.7451  -19.0010   26.4148 C   0  0  0  0  0  0  0  0  0  0  0  0
   11.5937  -17.9358   27.0770 O   0  0  0  0  0  0  0  0  0  0  0  0
   12.6793  -17.3616   23.2458 C   0  0  0  0  0  0  0  0  0  0  0  0
   12.4351  -18.0782   22.2334 O   0  0  0  0  0  0  0  0  0  0  0  0
   11.7438  -20.2089   27.0823 O   0  0  0  0  0  0  0  0  0  0  0  0
   10.0264  -12.2641   18.4691 N   0  0  0  0  0  0  0  0  0  0  0  0
    9.7263  -13.6481   18.5227 C   0  0  0  0  0  0  0  0  0  0  0  0
    8.7304  -14.1216   17.8596 N   0  0  0  0  0  0  0  0  0  0  0  0
   10.4902  -14.5755   19.2961 N   0  0  0  0  0  0  0  0  0  0  0  0
   11.6605  -14.1869   20.0550 C   0  0  0  0  0  0  0  0  0  0  0  0
   12.3984  -15.3378   20.6435 C   0  0  0  0  0  0  0  0  0  0  0  0
   13.5948  -14.8582   21.4255 C   0  0  0  0  0  0  0  0  0  0  0  0
   14.3610  -15.9792   22.0867 C   0  0  2  0  0  0  0  0  0  0  0  0
   13.7373  -16.4263   23.3049 N   0  0  0  0  0  0  0  0  0  0  0  0
   15.7312  -15.4332   22.3577 C   0  0  0  0  0  0  0  0  0  0  0  0
   16.5698  -15.1631   21.3091 O   0  0  0  0  0  0  0  0  0  0  0  0
   16.0758  -15.2379   23.5308 O   0  0  0  0  0  0  0  0  0  0  0  0
  2  1  1  1
  2 10  1  0
  3  2  1  0
  3  4  1  0
  4  5  2  0
  4  9  1  0
  5  6  1  0
  6  7  2  0
  8  7  1  0
  9  8  2  0
 10 11  2  0
 12 10  1  0
 12 13  1  0
 13 14  1  6
 13 17  1  0
 15 14  1  0
 16 15  2  0
 17 18  2  0
 19 15  1  0
 20 21  1  0
 21 22  2  0
 21 23  1  0
 23 24  1  0
 24 25  1  0
 25 26  1  0
 27 26  1  1
 27 29  1  0
 28 27  1  0
 28 17  1  0
 29 31  2  0
 29 30  1  0
M  END
$$$$
