FDR.pdb
     RDKit          3D

 31 31  0  0  1  0  0  0  0  0999 V2000
    8.1536  -16.2220   27.2550 N   0  0  0  0  0  0  0  0  0  0  0  0
    7.4500  -16.1397   25.9870 C   0  0  1  0  0  0  0  0  0  0  0  0
    7.8613  -14.9329   25.1896 C   0  0  0  0  0  0  0  0  0  0  0  0
    7.3837  -13.7452   25.9697 C   0  0  0  0  0  0  0  0  0  0  0  0
    8.3154  -13.0241   26.6996 C   0  0  0  0  0  0  0  0  0  0  0  0
    7.9011  -11.9243   27.4341 C   0  0  0  0  0  0  0  0  0  0  0  0
    6.5911  -11.5272   27.4597 C   0  0  0  0  0  0  0  0  0  0  0  0
    5.6719  -12.2552   26.7273 C   0  0  0  0  0  0  0  0  0  0  0  0
    6.0720  -13.3488   25.9943 C   0  0  0  0  0  0  0  0  0  0  0  0
    7.6536  -17.4236   25.2774 C   0  0  0  0  0  0  0  0  0  0  0  0
    8.6569  -18.1682   25.5348 O   0  0  0  0  0  0  0  0  0  0  0  0
    6.7122  -17.8197   24.3025 N   0  0  0  0  0  0  0  0  0  0  0  0
    6.9534  -18.9656   23.4627 C   0  0  1  0  0  0  0  0  0  0  0  0
    5.6584  -19.2205   22.6982 C   0  0  0  0  0  0  0  0  0  0  0  0
    5.8603  -20.4018   21.7815 C   0  0  0  0  0  0  0  0  0  0  0  0
    5.7360  -20.2520   20.5332 O   0  0  0  0  0  0  0  0  0  0  0  0
    7.9622  -18.5518   22.4245 C   0  0  0  0  0  0  0  0  0  0  0  0
    8.4296  -19.4003   21.6123 O   0  0  0  0  0  0  0  0  0  0  0  0
    6.1801  -21.6498   22.2765 O   0  0  0  0  0  0  0  0  0  0  0  0
    6.8668  -12.8654   17.9523 N   0  0  0  0  0  0  0  0  0  0  0  0
    7.9919  -13.3922   17.2705 C   0  0  0  0  0  0  0  0  0  0  0  0
    7.9255  -13.6481   16.0111 N   0  0  0  0  0  0  0  0  0  0  0  0
    9.2338  -13.6644   17.9229 N   0  0  0  0  0  0  0  0  0  0  0  0
    9.4151  -13.5266   19.3528 C   0  0  0  0  0  0  0  0  0  0  0  0
    9.9497  -14.7521   20.0066 C   0  0  0  0  0  0  0  0  0  0  0  0
    8.9685  -15.2853   21.0195 C   0  0  0  0  0  0  0  0  0  0  0  0
    9.2696  -16.7010   21.4507 C   0  0  2  0  0  0  0  0  0  0  0  0
    8.3322  -17.1877   22.4293 N   0  0  0  0  0  0  0  0  0  0  0  0
   10.6597  -16.6700   22.0123 C   0  0  0  0  0  0  0  0  0  0  0  0
   11.7249  -16.9332   21.1926 O   0  0  0  0  0  0  0  0  0  0  0  0
   10.8142  -16.4059   23.2121 O   0  0  0  0  0  0  0  0  0  0  0  0
  2  1  1  1
  2 10  1  0
  3  2  1  0
  3  4  1  0
  4  5  2  0
  4  9  1  0
  5  6  1  0
  6  7  2  0
  8  7  1  0
  9  8  2  0
 10 11  2  0
 12 10  1  0
 12 13  1  0
 13 14  1  6
 13 17  1  0
 15 14  1  0
 16 15  2  0
 17 18  2  0
 19 15  1  0
 20 21  1  0
 21 22  2  0
 21 23  1  0
 23 24  1  0
 24 25  1  0
 25 26  1  0
 27 26  1  1
 27 29  1  0
 28 27  1  0
 28 17  1  0
 29 31  2  0
 29 30  1  0
M  END
$$$$
