FDR.pdb
     RDKit          3D

 31 31  0  0  1  0  0  0  0  0999 V2000
    7.7610  -17.6571   23.2785 N   0  0  0  0  0  0  0  0  0  0  0  0
    8.8418  -16.7398   22.9620 C   0  0  1  0  0  0  0  0  0  0  0  0
    9.0215  -15.6901   24.0237 C   0  0  0  0  0  0  0  0  0  0  0  0
    8.4421  -14.4300   23.4549 C   0  0  0  0  0  0  0  0  0  0  0  0
    7.3945  -13.8271   24.1331 C   0  0  0  0  0  0  0  0  0  0  0  0
    6.8363  -12.6638   23.6274 C   0  0  0  0  0  0  0  0  0  0  0  0
    7.2921  -12.0896   22.4711 C   0  0  0  0  0  0  0  0  0  0  0  0
    8.3374  -12.7010   21.8044 C   0  0  0  0  0  0  0  0  0  0  0  0
    8.8994  -13.8563   22.2973 C   0  0  0  0  0  0  0  0  0  0  0  0
   10.0563  -17.5487   22.7087 C   0  0  0  0  0  0  0  0  0  0  0  0
   10.0935  -18.7912   22.9952 O   0  0  0  0  0  0  0  0  0  0  0  0
   11.1853  -16.9218   22.1379 N   0  0  0  0  0  0  0  0  0  0  0  0
   12.3997  -17.6596   21.8976 C   0  0  1  0  0  0  0  0  0  0  0  0
   12.9216  -17.2010   20.5398 C   0  0  0  0  0  0  0  0  0  0  0  0
   14.2261  -17.9051   20.2583 C   0  0  0  0  0  0  0  0  0  0  0  0
   14.2261  -19.1435   20.0087 O   0  0  0  0  0  0  0  0  0  0  0  0
   13.4146  -17.1852   22.9034 C   0  0  0  0  0  0  0  0  0  0  0  0
   14.6380  -17.1137   22.5930 O   0  0  0  0  0  0  0  0  0  0  0  0
   15.4268  -17.2247   20.2661 O   0  0  0  0  0  0  0  0  0  0  0  0
    9.8531  -21.5100   28.8301 N   0  0  0  0  0  0  0  0  0  0  0  0
   10.6042  -20.5311   29.5272 C   0  0  0  0  0  0  0  0  0  0  0  0
   11.2202  -20.8391   30.6141 N   0  0  0  0  0  0  0  0  0  0  0  0
   10.7189  -19.1795   29.0776 N   0  0  0  0  0  0  0  0  0  0  0  0
   10.8262  -18.8252   27.6778 C   0  0  0  0  0  0  0  0  0  0  0  0
   12.1845  -19.0444   27.1101 C   0  0  0  0  0  0  0  0  0  0  0  0
   12.2166  -18.6718   25.6496 C   0  0  0  0  0  0  0  0  0  0  0  0
   13.2634  -17.6331   25.3240 C   0  0  2  0  0  0  0  0  0  0  0  0
   12.9095  -16.8380   24.1769 N   0  0  0  0  0  0  0  0  0  0  0  0
   14.5310  -18.3946   25.0751 C   0  0  0  0  0  0  0  0  0  0  0  0
   14.6615  -19.1317   23.9282 O   0  0  0  0  0  0  0  0  0  0  0  0
   15.4368  -18.3398   25.9175 O   0  0  0  0  0  0  0  0  0  0  0  0
  2  1  1  1
  2 10  1  0
  3  2  1  0
  3  4  1  0
  4  5  2  0
  4  9  1  0
  5  6  1  0
  6  7  2  0
  8  7  1  0
  9  8  2  0
 10 11  2  0
 12 10  1  0
 12 13  1  0
 13 14  1  6
 13 17  1  0
 15 14  1  0
 16 15  2  0
 17 18  2  0
 19 15  1  0
 20 21  1  0
 21 22  2  0
 21 23  1  0
 23 24  1  0
 24 25  1  0
 25 26  1  0
 27 26  1  6
 27 29  1  0
 28 27  1  0
 28 17  1  0
 29 31  2  0
 29 30  1  0
M  END
$$$$
