FDR.pdb
     RDKit          3D

 31 31  0  0  1  0  0  0  0  0999 V2000
    6.3860  -15.2290   23.2669 N   0  0  0  0  0  0  0  0  0  0  0  0
    6.4392  -16.3504   22.3455 C   0  0  1  0  0  0  0  0  0  0  0  0
    6.3044  -15.9122   20.9133 C   0  0  0  0  0  0  0  0  0  0  0  0
    7.0011  -14.5879   20.8236 C   0  0  0  0  0  0  0  0  0  0  0  0
    6.8789  -13.7107   21.8897 C   0  0  0  0  0  0  0  0  0  0  0  0
    7.5083  -12.4774   21.8318 C   0  0  0  0  0  0  0  0  0  0  0  0
    8.2515  -12.0982   20.7463 C   0  0  0  0  0  0  0  0  0  0  0  0
    8.3653  -12.9824   19.6896 C   0  0  0  0  0  0  0  0  0  0  0  0
    7.7447  -14.2097   19.7363 C   0  0  0  0  0  0  0  0  0  0  0  0
    7.6838  -17.1026   22.6265 C   0  0  0  0  0  0  0  0  0  0  0  0
    7.9432  -18.1975   22.0257 O   0  0  0  0  0  0  0  0  0  0  0  0
    8.5914  -16.5866   23.5771 N   0  0  0  0  0  0  0  0  0  0  0  0
    9.7480  -17.3440   23.9838 C   0  0  1  0  0  0  0  0  0  0  0  0
   10.9305  -16.3817   23.9417 C   0  0  0  0  0  0  0  0  0  0  0  0
   11.7278  -16.6468   22.6884 C   0  0  0  0  0  0  0  0  0  0  0  0
   12.3652  -15.7025   22.1423 O   0  0  0  0  0  0  0  0  0  0  0  0
    9.5620  -17.6944   25.4362 C   0  0  0  0  0  0  0  0  0  0  0  0
    9.7207  -16.8164   26.3317 O   0  0  0  0  0  0  0  0  0  0  0  0
   11.7785  -17.9037   22.1208 O   0  0  0  0  0  0  0  0  0  0  0  0
    3.8797  -23.3915   26.4733 N   0  0  0  0  0  0  0  0  0  0  0  0
    4.4904  -23.0947   25.2294 C   0  0  0  0  0  0  0  0  0  0  0  0
    3.8934  -23.3876   24.1278 N   0  0  0  0  0  0  0  0  0  0  0  0
    5.7714  -22.4699   25.1265 N   0  0  0  0  0  0  0  0  0  0  0  0
    6.4989  -21.9784   26.2778 C   0  0  0  0  0  0  0  0  0  0  0  0
    7.7852  -21.3147   25.9312 C   0  0  0  0  0  0  0  0  0  0  0  0
    8.5062  -20.8690   27.1779 C   0  0  0  0  0  0  0  0  0  0  0  0
    9.0613  -19.4683   27.0750 C   0  0  2  0  0  0  0  0  0  0  0  0
    9.2081  -19.0351   25.7097 N   0  0  0  0  0  0  0  0  0  0  0  0
   10.3899  -19.5032   27.7696 C   0  0  0  0  0  0  0  0  0  0  0  0
   10.4368  -19.6653   29.1288 O   0  0  0  0  0  0  0  0  0  0  0  0
   11.4209  -19.3836   27.0946 O   0  0  0  0  0  0  0  0  0  0  0  0
  2  1  1  1
  2 10  1  0
  3  2  1  0
  3  4  1  0
  4  5  2  0
  4  9  1  0
  5  6  1  0
  6  7  2  0
  8  7  1  0
  9  8  2  0
 10 11  2  0
 12 10  1  0
 12 13  1  0
 13 14  1  1
 13 17  1  0
 15 14  1  0
 16 15  2  0
 17 18  2  0
 19 15  1  0
 20 21  1  0
 21 22  2  0
 21 23  1  0
 23 24  1  0
 24 25  1  0
 25 26  1  0
 27 26  1  6
 27 29  1  0
 28 27  1  0
 28 17  1  0
 29 31  2  0
 29 30  1  0
M  END
$$$$
