FDR.pdb
     RDKit          3D

 31 31  0  0  1  0  0  0  0  0999 V2000
    7.7430  -15.2224   20.5585 N   0  0  0  0  0  0  0  0  0  0  0  0
    7.9372  -14.7840   21.9295 C   0  0  1  0  0  0  0  0  0  0  0  0
    6.6408  -14.4058   22.5911 C   0  0  0  0  0  0  0  0  0  0  0  0
    7.0145  -13.8331   23.9251 C   0  0  0  0  0  0  0  0  0  0  0  0
    6.6701  -14.5457   25.0628 C   0  0  0  0  0  0  0  0  0  0  0  0
    6.9988  -14.0376   26.3096 C   0  0  0  0  0  0  0  0  0  0  0  0
    7.6575  -12.8458   26.4509 C   0  0  0  0  0  0  0  0  0  0  0  0
    7.9951  -12.1449   25.3081 C   0  0  0  0  0  0  0  0  0  0  0  0
    7.6739  -12.6398   24.0650 C   0  0  0  0  0  0  0  0  0  0  0  0
    8.6828  -15.8490   22.6391 C   0  0  0  0  0  0  0  0  0  0  0  0
    8.2652  -17.0543   22.6465 O   0  0  0  0  0  0  0  0  0  0  0  0
    9.8762  -15.5111   23.3138 N   0  0  0  0  0  0  0  0  0  0  0  0
   10.6916  -16.5270   23.9298 C   0  0  1  0  0  0  0  0  0  0  0  0
   12.1345  -16.0438   23.8262 C   0  0  0  0  0  0  0  0  0  0  0  0
   13.0503  -17.1431   24.3052 C   0  0  0  0  0  0  0  0  0  0  0  0
   13.7199  -16.9809   25.3642 O   0  0  0  0  0  0  0  0  0  0  0  0
   10.3683  -16.5258   25.4003 C   0  0  0  0  0  0  0  0  0  0  0  0
   10.3657  -15.4437   26.0540 O   0  0  0  0  0  0  0  0  0  0  0  0
   13.1747  -18.3292   23.6106 O   0  0  0  0  0  0  0  0  0  0  0  0
    6.5395  -22.7751   24.7444 N   0  0  0  0  0  0  0  0  0  0  0  0
    6.0519  -21.4477   24.6521 C   0  0  0  0  0  0  0  0  0  0  0  0
    5.7966  -20.9292   23.5025 N   0  0  0  0  0  0  0  0  0  0  0  0
    5.8213  -20.6272   25.7991 N   0  0  0  0  0  0  0  0  0  0  0  0
    6.8288  -20.3958   26.8130 C   0  0  0  0  0  0  0  0  0  0  0  0
    7.5830  -19.1265   26.6249 C   0  0  0  0  0  0  0  0  0  0  0  0
    8.7366  -19.0454   27.5921 C   0  0  0  0  0  0  0  0  0  0  0  0
    9.6403  -17.8616   27.3416 C   0  0  2  0  0  0  0  0  0  0  0  0
   10.0778  -17.7853   25.9719 N   0  0  0  0  0  0  0  0  0  0  0  0
   10.8081  -18.0362   28.2660 C   0  0  0  0  0  0  0  0  0  0  0  0
   10.6128  -17.9712   29.6200 O   0  0  0  0  0  0  0  0  0  0  0  0
   11.9297  -18.2361   27.7812 O   0  0  0  0  0  0  0  0  0  0  0  0
  2  1  1  6
  2 10  1  0
  3  2  1  0
  3  4  1  0
  4  5  2  0
  4  9  1  0
  5  6  1  0
  6  7  2  0
  8  7  1  0
  9  8  2  0
 10 11  2  0
 12 10  1  0
 12 13  1  0
 13 14  1  1
 13 17  1  0
 15 14  1  0
 16 15  2  0
 17 18  2  0
 19 15  1  0
 20 21  1  0
 21 22  2  0
 21 23  1  0
 23 24  1  0
 24 25  1  0
 25 26  1  0
 27 26  1  6
 27 29  1  0
 28 27  1  0
 28 17  1  0
 29 31  2  0
 29 30  1  0
M  END
$$$$
