FDR.pdb
     RDKit          3D

 31 31  0  0  1  0  0  0  0  0999 V2000
    8.4473  -17.1638   20.4061 N   0  0  0  0  0  0  0  0  0  0  0  0
    9.5921  -16.4838   20.9861 C   0  0  1  0  0  0  0  0  0  0  0  0
    9.1831  -15.4603   22.0092 C   0  0  0  0  0  0  0  0  0  0  0  0
    8.4680  -14.3847   21.2482 C   0  0  0  0  0  0  0  0  0  0  0  0
    7.0957  -14.2731   21.4064 C   0  0  0  0  0  0  0  0  0  0  0  0
    6.4082  -13.2909   20.7113 C   0  0  0  0  0  0  0  0  0  0  0  0
    7.0487  -12.4228   19.8683 C   0  0  0  0  0  0  0  0  0  0  0  0
    8.4177  -12.5449   19.7194 C   0  0  0  0  0  0  0  0  0  0  0  0
    9.1106  -13.5164   20.4047 C   0  0  0  0  0  0  0  0  0  0  0  0
   10.5105  -17.5205   21.5108 C   0  0  0  0  0  0  0  0  0  0  0  0
   10.0635  -18.5814   22.0602 O   0  0  0  0  0  0  0  0  0  0  0  0
   11.9031  -17.3194   21.3930 N   0  0  0  0  0  0  0  0  0  0  0  0
   12.8369  -18.2123   22.0312 C   0  0  1  0  0  0  0  0  0  0  0  0
   14.2188  -17.8404   21.5039 C   0  0  0  0  0  0  0  0  0  0  0  0
   14.4327  -18.5257   20.1768 C   0  0  0  0  0  0  0  0  0  0  0  0
   15.4154  -18.1957   19.4547 O   0  0  0  0  0  0  0  0  0  0  0  0
   12.8547  -17.8645   23.4959 C   0  0  0  0  0  0  0  0  0  0  0  0
   13.4451  -16.8218   23.8989 O   0  0  0  0  0  0  0  0  0  0  0  0
   13.5758  -19.5109   19.7299 O   0  0  0  0  0  0  0  0  0  0  0  0
   11.2696  -14.5075   28.8845 N   0  0  0  0  0  0  0  0  0  0  0  0
   10.0437  -14.2204   28.2341 C   0  0  0  0  0  0  0  0  0  0  0  0
    9.0508  -13.7472   28.9019 N   0  0  0  0  0  0  0  0  0  0  0  0
    9.8417  -14.4340   26.8357 N   0  0  0  0  0  0  0  0  0  0  0  0
    9.8117  -15.7535   26.2404 C   0  0  0  0  0  0  0  0  0  0  0  0
   10.6934  -16.7370   26.9263 C   0  0  0  0  0  0  0  0  0  0  0  0
   10.7108  -18.0466   26.1796 C   0  0  0  0  0  0  0  0  0  0  0  0
   12.0977  -18.4747   25.7626 C   0  0  2  0  0  0  0  0  0  0  0  0
   12.1827  -18.7638   24.3546 N   0  0  0  0  0  0  0  0  0  0  0  0
   12.4114  -19.6937   26.5777 C   0  0  0  0  0  0  0  0  0  0  0  0
   13.0369  -19.5538   27.7880 O   0  0  0  0  0  0  0  0  0  0  0  0
   12.0962  -20.8063   26.1352 O   0  0  0  0  0  0  0  0  0  0  0  0
  2  1  1  1
  2 10  1  0
  3  2  1  0
  3  4  1  0
  4  5  2  0
  4  9  1  0
  5  6  1  0
  6  7  2  0
  8  7  1  0
  9  8  2  0
 10 11  2  0
 12 10  1  0
 12 13  1  0
 13 14  1  6
 13 17  1  0
 15 14  1  0
 16 15  2  0
 17 18  2  0
 19 15  1  0
 20 21  1  0
 21 22  2  0
 21 23  1  0
 23 24  1  0
 24 25  1  0
 25 26  1  0
 27 26  1  6
 27 29  1  0
 28 27  1  0
 28 17  1  0
 29 31  2  0
 29 30  1  0
M  END
$$$$
