NIV.pdb
     RDKit          3D

 24 23  0  0  1  0  0  0  0  0999 V2000
   12.8773  -18.2374   17.8130 N   0  0  0  0  0  0  0  0  0  0  0  0
   13.3112  -17.6252   19.0141 C   0  0  0  0  0  0  0  0  0  0  0  0
   14.5024  -17.7763   19.3541 O   0  0  0  0  0  0  0  0  0  0  0  0
   12.3867  -16.8393   19.8290 C   0  0  0  0  0  0  0  0  0  0  0  0
   12.0063  -17.4219   21.1435 C   0  0  2  0  0  0  0  0  0  0  0  0
   11.2028  -18.5861   20.9619 N   0  0  0  0  0  0  0  0  0  0  0  0
   11.3878  -16.4533   22.0773 C   0  0  0  0  0  0  0  0  0  0  0  0
   11.9720  -15.3766   22.3395 O   0  0  0  0  0  0  0  0  0  0  0  0
    6.3669  -15.0955   21.3584 C   0  0  0  0  0  0  0  0  0  0  0  0
    7.7909  -15.1110   21.7898 C   0  0  0  0  0  0  0  0  0  0  0  0
    8.0831  -15.5577   23.1598 C   0  0  2  0  0  0  0  0  0  0  0  0
    7.1110  -15.0252   24.1969 C   0  0  0  0  0  0  0  0  0  0  0  0
    9.4856  -15.6712   23.5871 C   0  0  2  0  0  0  0  0  0  0  0  0
   10.1412  -16.6991   22.6965 N   0  0  0  0  0  0  0  0  0  0  0  0
    9.8348  -15.9717   24.9622 C   0  0  0  0  0  0  0  0  0  0  0  0
   10.2647  -17.1304   25.3178 O   0  0  0  0  0  0  0  0  0  0  0  0
   10.6697  -14.4666   29.6713 C   0  0  0  0  0  0  0  0  0  0  0  0
   10.0642  -14.2348   28.3219 C   0  0  1  0  0  0  0  0  0  0  0  0
   10.7753  -13.0763   27.6673 C   0  0  0  0  0  0  0  0  0  0  0  0
   10.2268  -15.4364   27.3897 C   0  0  2  0  0  0  0  0  0  0  0  0
    9.7594  -15.0582   26.0422 N   0  0  0  0  0  0  0  0  0  0  0  0
    9.3887  -16.5400   27.8662 C   0  0  0  0  0  0  0  0  0  0  0  0
    9.9668  -17.5415   28.6644 O   0  0  0  0  0  0  0  0  0  0  0  0
    8.1772  -16.6787   27.6237 O   0  0  0  0  0  0  0  0  0  0  0  0
  2  3  2  0
  2  1  1  0
  4  2  1  0
  5  6  1  6
  5  4  1  0
  7  5  1  0
  8  7  2  0
  9 10  1  0
 10 11  1  0
 11 12  1  1
 11 13  1  0
 13 14  1  6
 14  7  1  0
 15 13  1  0
 15 21  1  0
 16 15  2  0
 18 17  1  1
 19 18  1  0
 20 18  1  0
 20 21  1  6
 20 22  1  0
 22 23  1  0
 24 22  2  0
M  END
$$$$
