NIV.pdb
     RDKit          3D

 24 23  0  0  1  0  0  0  0  0999 V2000
   11.8367  -18.2536   17.1312 N   0  0  0  0  0  0  0  0  0  0  0  0
   12.2293  -18.2764   18.4917 C   0  0  0  0  0  0  0  0  0  0  0  0
   13.0434  -19.1500   18.8542 O   0  0  0  0  0  0  0  0  0  0  0  0
   11.6939  -17.3022   19.4407 C   0  0  0  0  0  0  0  0  0  0  0  0
   11.3680  -17.8137   20.7988 C   0  0  2  0  0  0  0  0  0  0  0  0
   10.3205  -18.7792   20.7325 N   0  0  0  0  0  0  0  0  0  0  0  0
   11.0906  -16.7524   21.7935 C   0  0  0  0  0  0  0  0  0  0  0  0
   11.9254  -15.8374   21.9813 O   0  0  0  0  0  0  0  0  0  0  0  0
    6.3182  -14.6409   21.7643 C   0  0  0  0  0  0  0  0  0  0  0  0
    7.7674  -14.9118   21.9651 C   0  0  0  0  0  0  0  0  0  0  0  0
    8.2235  -15.2005   23.3328 C   0  0  2  0  0  0  0  0  0  0  0  0
    7.6454  -14.2661   24.3801 C   0  0  0  0  0  0  0  0  0  0  0  0
    9.6156  -15.6251   23.5436 C   0  0  2  0  0  0  0  0  0  0  0  0
    9.8994  -16.7295   22.5541 N   0  0  0  0  0  0  0  0  0  0  0  0
   10.0866  -16.0505   24.8475 C   0  0  0  0  0  0  0  0  0  0  0  0
   11.0778  -16.8586   24.9830 O   0  0  0  0  0  0  0  0  0  0  0  0
   10.7599  -13.3248   27.4288 C   0  0  0  0  0  0  0  0  0  0  0  0
   10.1952  -14.5070   28.1532 C   0  0  1  0  0  0  0  0  0  0  0  0
    8.7263  -14.2654   28.3980 C   0  0  0  0  0  0  0  0  0  0  0  0
   10.3011  -15.7995   27.3424 C   0  0  2  0  0  0  0  0  0  0  0  0
    9.5418  -15.6361   26.0877 N   0  0  0  0  0  0  0  0  0  0  0  0
    9.6958  -16.8998   28.0976 C   0  0  0  0  0  0  0  0  0  0  0  0
   10.3869  -17.4345   29.1979 O   0  0  0  0  0  0  0  0  0  0  0  0
    8.5948  -17.4212   27.8495 O   0  0  0  0  0  0  0  0  0  0  0  0
  2  3  2  0
  2  1  1  0
  4  2  1  0
  5  6  1  6
  5  4  1  0
  7  5  1  0
  8  7  2  0
  9 10  1  0
 10 11  1  0
 11 12  1  1
 11 13  1  0
 13 14  1  6
 14  7  1  0
 15 13  1  0
 15 21  1  0
 16 15  2  0
 18 17  1  6
 19 18  1  0
 20 18  1  0
 20 21  1  6
 20 22  1  0
 22 23  1  0
 24 22  2  0
M  END
$$$$
