NIV.pdb
     RDKit          3D

 24 23  0  0  1  0  0  0  0  0999 V2000
    5.0009  -17.4806   20.3200 N   0  0  0  0  0  0  0  0  0  0  0  0
    6.3197  -17.0543   20.0288 C   0  0  0  0  0  0  0  0  0  0  0  0
    6.6712  -17.0057   18.8324 O   0  0  0  0  0  0  0  0  0  0  0  0
    7.2393  -16.6824   21.1022 C   0  0  0  0  0  0  0  0  0  0  0  0
    7.3472  -15.2304   21.4058 C   0  0  2  0  0  0  0  0  0  0  0  0
    7.8251  -14.5149   20.2685 N   0  0  0  0  0  0  0  0  0  0  0  0
    8.1250  -14.9250   22.6283 C   0  0  0  0  0  0  0  0  0  0  0  0
    9.3739  -14.8461   22.5717 O   0  0  0  0  0  0  0  0  0  0  0  0
    6.1577  -11.4917   26.2856 C   0  0  0  0  0  0  0  0  0  0  0  0
    7.0504  -12.3244   25.4349 C   0  0  0  0  0  0  0  0  0  0  0  0
    7.5425  -13.5902   25.9983 C   0  0  2  0  0  0  0  0  0  0  0  0
    8.0122  -13.4772   27.4373 C   0  0  0  0  0  0  0  0  0  0  0  0
    8.3120  -14.5006   25.1371 C   0  0  2  0  0  0  0  0  0  0  0  0
    7.5034  -14.7150   23.8803 N   0  0  0  0  0  0  0  0  0  0  0  0
    8.7611  -15.7939   25.6153 C   0  0  0  0  0  0  0  0  0  0  0  0
    7.9441  -16.7661   25.8181 O   0  0  0  0  0  0  0  0  0  0  0  0
   12.3425  -19.1971   25.9697 C   0  0  0  0  0  0  0  0  0  0  0  0
   11.8225  -17.8477   25.5825 C   0  0  1  0  0  0  0  0  0  0  0  0
   11.5959  -17.8285   24.0910 C   0  0  0  0  0  0  0  0  0  0  0  0
   10.4787  -17.5248   26.2376 C   0  0  2  0  0  0  0  0  0  0  0  0
   10.1060  -16.1382   25.8972 N   0  0  0  0  0  0  0  0  0  0  0  0
   10.6126  -17.6128   27.6941 C   0  0  0  0  0  0  0  0  0  0  0  0
   10.7639  -16.4310   28.4389 O   0  0  0  0  0  0  0  0  0  0  0  0
   10.6047  -18.6665   28.3540 O   0  0  0  0  0  0  0  0  0  0  0  0
  2  3  2  0
  2  1  1  0
  4  2  1  0
  5  6  1  6
  5  4  1  0
  7  5  1  0
  8  7  2  0
  9 10  1  0
 10 11  1  0
 11 12  1  1
 11 13  1  0
 13 14  1  6
 14  7  1  0
 15 13  1  0
 15 21  1  0
 16 15  2  0
 18 17  1  1
 19 18  1  0
 20 18  1  0
 20 21  1  1
 20 22  1  0
 22 23  1  0
 24 22  2  0
M  END
$$$$
