NIV.pdb
     RDKit          3D

 24 23  0  0  1  0  0  0  0  0999 V2000
   11.2070  -18.8135   19.3527 N   0  0  0  0  0  0  0  0  0  0  0  0
   10.1812  -17.9473   19.8033 C   0  0  0  0  0  0  0  0  0  0  0  0
    9.0742  -17.9984   19.2294 O   0  0  0  0  0  0  0  0  0  0  0  0
   10.4168  -17.0215   20.9095 C   0  0  0  0  0  0  0  0  0  0  0  0
    9.2277  -16.2905   21.4233 C   0  0  2  0  0  0  0  0  0  0  0  0
    8.6417  -15.4992   20.3916 N   0  0  0  0  0  0  0  0  0  0  0  0
    9.4851  -15.5073   22.6533 C   0  0  0  0  0  0  0  0  0  0  0  0
   10.4629  -14.7258   22.7043 O   0  0  0  0  0  0  0  0  0  0  0  0
    5.6341  -12.6810   24.6824 C   0  0  0  0  0  0  0  0  0  0  0  0
    6.9759  -13.2354   24.3561 C   0  0  0  0  0  0  0  0  0  0  0  0
    7.6112  -14.1122   25.3508 C   0  0  2  0  0  0  0  0  0  0  0  0
    7.4623  -13.6236   26.7803 C   0  0  0  0  0  0  0  0  0  0  0  0
    8.8911  -14.7553   25.0179 C   0  0  2  0  0  0  0  0  0  0  0  0
    8.6565  -15.6077   23.7941 N   0  0  0  0  0  0  0  0  0  0  0  0
    9.6145  -15.5484   25.9929 C   0  0  0  0  0  0  0  0  0  0  0  0
    9.8587  -16.7974   25.8083 O   0  0  0  0  0  0  0  0  0  0  0  0
   11.9276  -13.7824   29.0644 C   0  0  0  0  0  0  0  0  0  0  0  0
   11.3466  -15.1349   29.3371 C   0  0  1  0  0  0  0  0  0  0  0  0
   10.0516  -14.9599   30.0913 C   0  0  0  0  0  0  0  0  0  0  0  0
   11.0116  -15.9006   28.0562 C   0  0  2  0  0  0  0  0  0  0  0  0
   10.1324  -15.0623   27.2186 N   0  0  0  0  0  0  0  0  0  0  0  0
   10.2804  -17.1241   28.3965 C   0  0  0  0  0  0  0  0  0  0  0  0
   11.0021  -18.3012   28.6568 O   0  0  0  0  0  0  0  0  0  0  0  0
    9.0438  -17.2225   28.4793 O   0  0  0  0  0  0  0  0  0  0  0  0
  2  3  2  0
  2  1  1  0
  4  2  1  0
  5  6  1  6
  5  4  1  0
  7  5  1  0
  8  7  2  0
  9 10  1  0
 10 11  1  0
 11 12  1  1
 11 13  1  0
 13 14  1  6
 14  7  1  0
 15 13  1  0
 15 21  1  0
 16 15  2  0
 18 17  1  6
 19 18  1  0
 20 18  1  0
 20 21  1  6
 20 22  1  0
 22 23  1  0
 24 22  2  0
M  END
$$$$
