NIV.pdb
     RDKit          3D

 24 23  0  0  1  0  0  0  0  0999 V2000
    6.0846  -21.1152   17.3400 N   0  0  0  0  0  0  0  0  0  0  0  0
    6.6284  -19.8994   16.8588 C   0  0  0  0  0  0  0  0  0  0  0  0
    6.2147  -19.4621   15.7656 O   0  0  0  0  0  0  0  0  0  0  0  0
    7.6451  -19.1804   17.6242 C   0  0  0  0  0  0  0  0  0  0  0  0
    8.0758  -17.8658   17.0779 C   0  0  2  0  0  0  0  0  0  0  0  0
    8.8293  -18.0434   15.8803 N   0  0  0  0  0  0  0  0  0  0  0  0
    8.7752  -17.0042   18.0583 C   0  0  0  0  0  0  0  0  0  0  0  0
   10.0270  -16.9551   18.0670 O   0  0  0  0  0  0  0  0  0  0  0  0
    7.8784  -11.6122   20.7119 C   0  0  0  0  0  0  0  0  0  0  0  0
    8.6539  -12.8820   20.6916 C   0  0  0  0  0  0  0  0  0  0  0  0
    8.0844  -14.0165   19.9496 C   0  0  2  0  0  0  0  0  0  0  0  0
    6.5699  -14.0931   20.0179 C   0  0  0  0  0  0  0  0  0  0  0  0
    8.7974  -15.3025   19.9592 C   0  0  2  0  0  0  0  0  0  0  0  0
    8.0744  -16.2202   19.0028 N   0  0  0  0  0  0  0  0  0  0  0  0
    9.0336  -16.0265   21.1934 C   0  0  0  0  0  0  0  0  0  0  0  0
    8.0758  -16.5685   21.8588 O   0  0  0  0  0  0  0  0  0  0  0  0
   10.3583  -19.2301   21.8141 C   0  0  0  0  0  0  0  0  0  0  0  0
   11.1669  -18.3279   22.6936 C   0  0  1  0  0  0  0  0  0  0  0  0
   12.4301  -17.9473   21.9618 C   0  0  0  0  0  0  0  0  0  0  0  0
   10.4395  -17.0243   23.0267 C   0  0  2  0  0  0  0  0  0  0  0  0
   10.3017  -16.2290   21.7914 N   0  0  0  0  0  0  0  0  0  0  0  0
   11.2403  -16.2484   23.9775 C   0  0  0  0  0  0  0  0  0  0  0  0
   11.2636  -16.6368   25.3276 O   0  0  0  0  0  0  0  0  0  0  0  0
   11.9221  -15.2481   23.6942 O   0  0  0  0  0  0  0  0  0  0  0  0
  2  3  2  0
  2  1  1  0
  4  2  1  0
  5  6  1  6
  5  4  1  0
  7  5  1  0
  8  7  2  0
  9 10  1  0
 10 11  1  0
 11 12  1  1
 11 13  1  0
 13 14  1  6
 14  7  1  0
 15 13  1  0
 15 21  1  0
 16 15  2  0
 18 17  1  6
 19 18  1  0
 20 18  1  0
 20 21  1  6
 20 22  1  0
 22 23  1  0
 24 22  2  0
M  END
$$$$
