NIV.pdb
     RDKit          3D

 24 23  0  0  1  0  0  0  0  0999 V2000
    5.8705  -16.6118   18.9502 N   0  0  0  0  0  0  0  0  0  0  0  0
    6.2959  -17.4619   19.9999 C   0  0  0  0  0  0  0  0  0  0  0  0
    5.9192  -18.6515   19.9824 O   0  0  0  0  0  0  0  0  0  0  0  0
    7.1521  -16.9562   21.0712 C   0  0  0  0  0  0  0  0  0  0  0  0
    7.3850  -15.4874   21.0924 C   0  0  2  0  0  0  0  0  0  0  0  0
    7.9845  -15.0574   19.8720 N   0  0  0  0  0  0  0  0  0  0  0  0
    8.1285  -15.0109   22.2811 C   0  0  0  0  0  0  0  0  0  0  0  0
    9.3703  -14.8572   22.2221 O   0  0  0  0  0  0  0  0  0  0  0  0
    7.2606  -11.5915   27.2950 C   0  0  0  0  0  0  0  0  0  0  0  0
    8.0512  -12.6669   26.6373 C   0  0  0  0  0  0  0  0  0  0  0  0
    7.5055  -13.2585   25.4069 C   0  0  2  0  0  0  0  0  0  0  0  0
    5.9960  -13.4180   25.4226 C   0  0  0  0  0  0  0  0  0  0  0  0
    8.2610  -14.3266   24.7354 C   0  0  2  0  0  0  0  0  0  0  0  0
    7.4813  -14.7169   23.5028 N   0  0  0  0  0  0  0  0  0  0  0  0
    8.6415  -15.5382   25.4356 C   0  0  0  0  0  0  0  0  0  0  0  0
    7.8090  -16.4971   25.6389 O   0  0  0  0  0  0  0  0  0  0  0  0
   12.1165  -18.8847   26.3339 C   0  0  0  0  0  0  0  0  0  0  0  0
   11.6188  -17.5722   25.8136 C   0  0  1  0  0  0  0  0  0  0  0  0
   11.3840  -17.7003   24.3288 C   0  0  0  0  0  0  0  0  0  0  0  0
   10.2848  -17.1595   26.4377 C   0  0  2  0  0  0  0  0  0  0  0  0
    9.9315  -15.8111   25.9536 N   0  0  0  0  0  0  0  0  0  0  0  0
   10.4275  -17.0942   27.8946 C   0  0  0  0  0  0  0  0  0  0  0  0
   10.3182  -18.2769   28.6454 O   0  0  0  0  0  0  0  0  0  0  0  0
   10.6430  -16.0598   28.5498 O   0  0  0  0  0  0  0  0  0  0  0  0
  2  3  2  0
  2  1  1  0
  4  2  1  0
  5  6  1  6
  5  4  1  0
  7  5  1  0
  8  7  2  0
  9 10  1  0
 10 11  1  0
 11 12  1  1
 11 13  1  0
 13 14  1  6
 14  7  1  0
 15 13  1  0
 15 21  1  0
 16 15  2  0
 18 17  1  1
 19 18  1  0
 20 18  1  0
 20 21  1  6
 20 22  1  0
 22 23  1  0
 24 22  2  0
M  END
$$$$
