NIV.pdb
     RDKit          3D

 24 23  0  0  1  0  0  0  0  0999 V2000
    8.0551  -18.9043   20.0529 N   0  0  0  0  0  0  0  0  0  0  0  0
    8.4327  -17.6289   19.5665 C   0  0  0  0  0  0  0  0  0  0  0  0
    8.5454  -17.4800   18.3327 O   0  0  0  0  0  0  0  0  0  0  0  0
    8.6819  -16.5215   20.4872 C   0  0  0  0  0  0  0  0  0  0  0  0
    8.4720  -16.8041   21.9322 C   0  0  2  0  0  0  0  0  0  0  0  0
    7.1021  -17.1051   22.1901 N   0  0  0  0  0  0  0  0  0  0  0  0
    8.9953  -15.7538   22.8354 C   0  0  0  0  0  0  0  0  0  0  0  0
   10.1397  -15.2801   22.6471 O   0  0  0  0  0  0  0  0  0  0  0  0
    5.3943  -12.5170   25.5067 C   0  0  0  0  0  0  0  0  0  0  0  0
    6.5880  -13.0220   24.7758 C   0  0  0  0  0  0  0  0  0  0  0  0
    7.6769  -13.6075   25.5715 C   0  0  2  0  0  0  0  0  0  0  0  0
    8.0160  -12.8144   26.8206 C   0  0  0  0  0  0  0  0  0  0  0  0
    8.8116  -14.2310   24.8742 C   0  0  2  0  0  0  0  0  0  0  0  0
    8.2417  -15.2547   23.9220 N   0  0  0  0  0  0  0  0  0  0  0  0
    9.9018  -14.8472   25.6055 C   0  0  0  0  0  0  0  0  0  0  0  0
   11.0874  -14.3491   25.6079 O   0  0  0  0  0  0  0  0  0  0  0  0
   11.3028  -15.4182   29.8136 C   0  0  0  0  0  0  0  0  0  0  0  0
   10.4875  -15.1915   28.5787 C   0  0  1  0  0  0  0  0  0  0  0  0
   10.8999  -13.8771   27.9636 C   0  0  0  0  0  0  0  0  0  0  0  0
   10.7171  -16.2676   27.5163 C   0  0  2  0  0  0  0  0  0  0  0  0
    9.7983  -16.0237   26.3877 N   0  0  0  0  0  0  0  0  0  0  0  0
   10.4030  -17.5836   28.0793 C   0  0  0  0  0  0  0  0  0  0  0  0
   11.4334  -18.3415   28.6607 O   0  0  0  0  0  0  0  0  0  0  0  0
    9.2764  -18.1093   28.0919 O   0  0  0  0  0  0  0  0  0  0  0  0
  2  3  2  0
  2  1  1  0
  4  2  1  0
  5  6  1  6
  5  4  1  0
  7  5  1  0
  8  7  2  0
  9 10  1  0
 10 11  1  0
 11 12  1  6
 11 13  1  0
 13 14  1  6
 14  7  1  0
 15 13  1  0
 15 21  1  0
 16 15  2  0
 18 17  1  1
 19 18  1  0
 20 18  1  0
 20 21  1  6
 20 22  1  0
 22 23  1  0
 24 22  2  0
M  END
$$$$
