NIV.pdb
     RDKit          3D

 24 23  0  0  1  0  0  0  0  0999 V2000
   12.4367  -17.7352   18.8617 N   0  0  0  0  0  0  0  0  0  0  0  0
   11.1566  -17.1928   19.1316 C   0  0  0  0  0  0  0  0  0  0  0  0
   10.2164  -17.4975   18.3696 O   0  0  0  0  0  0  0  0  0  0  0  0
   10.9472  -16.3020   20.2713 C   0  0  0  0  0  0  0  0  0  0  0  0
   10.1686  -16.8585   21.4098 C   0  0  2  0  0  0  0  0  0  0  0  0
    8.8825  -17.2929   20.9726 N   0  0  0  0  0  0  0  0  0  0  0  0
   10.0880  -15.9591   22.5834 C   0  0  0  0  0  0  0  0  0  0  0  0
   11.0303  -15.1728   22.8349 O   0  0  0  0  0  0  0  0  0  0  0  0
    5.7492  -12.9554   25.6067 C   0  0  0  0  0  0  0  0  0  0  0  0
    7.1714  -13.3881   25.5427 C   0  0  0  0  0  0  0  0  0  0  0  0
    7.4862  -14.5777   24.7380 C   0  0  2  0  0  0  0  0  0  0  0  0
    6.4547  -15.6853   24.8549 C   0  0  0  0  0  0  0  0  0  0  0  0
    8.8875  -15.0092   24.6244 C   0  0  2  0  0  0  0  0  0  0  0  0
    8.9697  -15.9516   23.4478 N   0  0  0  0  0  0  0  0  0  0  0  0
    9.5845  -15.6155   25.7423 C   0  0  0  0  0  0  0  0  0  0  0  0
   10.2001  -16.7392   25.6323 O   0  0  0  0  0  0  0  0  0  0  0  0
   11.4280  -15.3146   30.3980 C   0  0  0  0  0  0  0  0  0  0  0  0
   10.5595  -14.7764   29.3038 C   0  0  1  0  0  0  0  0  0  0  0  0
   11.1103  -13.4427   28.8634 C   0  0  0  0  0  0  0  0  0  0  0  0
   10.5438  -15.6776   28.0681 C   0  0  2  0  0  0  0  0  0  0  0  0
    9.6802  -15.0613   27.0425 N   0  0  0  0  0  0  0  0  0  0  0  0
    9.9695  -16.9788   28.4208 C   0  0  0  0  0  0  0  0  0  0  0  0
   10.8268  -18.0185   28.8189 O   0  0  0  0  0  0  0  0  0  0  0  0
    8.7584  -17.2589   28.4007 O   0  0  0  0  0  0  0  0  0  0  0  0
  2  3  2  0
  2  1  1  0
  4  2  1  0
  5  6  1  6
  5  4  1  0
  7  5  1  0
  8  7  2  0
  9 10  1  0
 10 11  1  0
 11 12  1  1
 11 13  1  0
 13 14  1  6
 14  7  1  0
 15 13  1  0
 15 21  1  0
 16 15  2  0
 18 17  1  1
 19 18  1  0
 20 18  1  0
 20 21  1  6
 20 22  1  0
 22 23  1  0
 24 22  2  0
M  END
$$$$
