NIV.pdb
     RDKit          3D

 24 23  0  0  1  0  0  0  0  0999 V2000
   10.7186  -19.8887   15.6765 N   0  0  0  0  0  0  0  0  0  0  0  0
   10.5973  -18.5165   15.3482 C   0  0  0  0  0  0  0  0  0  0  0  0
   10.8733  -18.1640   14.1834 O   0  0  0  0  0  0  0  0  0  0  0  0
   10.1606  -17.5443   16.3484 C   0  0  0  0  0  0  0  0  0  0  0  0
    9.8816  -18.0766   17.7089 C   0  0  2  0  0  0  0  0  0  0  0  0
    8.6043  -18.7097   17.7470 N   0  0  0  0  0  0  0  0  0  0  0  0
   10.0470  -17.0812   18.7927 C   0  0  0  0  0  0  0  0  0  0  0  0
   11.1865  -16.6390   19.0673 O   0  0  0  0  0  0  0  0  0  0  0  0
    7.5038  -12.1235   20.7251 C   0  0  0  0  0  0  0  0  0  0  0  0
    8.4539  -13.2229   21.0457 C   0  0  0  0  0  0  0  0  0  0  0  0
    8.1489  -14.5619   20.5205 C   0  0  2  0  0  0  0  0  0  0  0  0
    6.6948  -14.9660   20.6837 C   0  0  0  0  0  0  0  0  0  0  0  0
    9.1404  -15.6348   20.6888 C   0  0  2  0  0  0  0  0  0  0  0  0
    8.9505  -16.6007   19.5441 N   0  0  0  0  0  0  0  0  0  0  0  0
    9.2264  -16.3982   21.9188 C   0  0  0  0  0  0  0  0  0  0  0  0
    8.3834  -17.3264   22.2043 O   0  0  0  0  0  0  0  0  0  0  0  0
   12.6055  -17.8573   23.5293 C   0  0  0  0  0  0  0  0  0  0  0  0
   11.7173  -17.2365   24.5622 C   0  0  1  0  0  0  0  0  0  0  0  0
   12.2036  -15.8349   24.8364 C   0  0  0  0  0  0  0  0  0  0  0  0
   10.2658  -17.1170   24.0951 C   0  0  2  0  0  0  0  0  0  0  0  0
   10.2184  -16.2309   22.9161 N   0  0  0  0  0  0  0  0  0  0  0  0
    9.4614  -16.5033   25.1550 C   0  0  0  0  0  0  0  0  0  0  0  0
    9.1358  -15.1395   25.0627 O   0  0  0  0  0  0  0  0  0  0  0  0
    9.0260  -17.0929   26.1593 O   0  0  0  0  0  0  0  0  0  0  0  0
  2  3  2  0
  2  1  1  0
  4  2  1  0
  5  6  1  6
  5  4  1  0
  7  5  1  0
  8  7  2  0
  9 10  1  0
 10 11  1  0
 11 12  1  1
 11 13  1  0
 13 14  1  6
 14  7  1  0
 15 13  1  0
 15 21  1  0
 16 15  2  0
 18 17  1  6
 19 18  1  0
 20 18  1  0
 20 21  1  6
 20 22  1  0
 22 23  1  0
 24 22  2  0
M  END
$$$$
