NIV.pdb
     RDKit          3D

 24 23  0  0  1  0  0  0  0  0999 V2000
   10.5606  -16.7994   18.2824 N   0  0  0  0  0  0  0  0  0  0  0  0
    9.4014  -16.4253   19.0049 C   0  0  0  0  0  0  0  0  0  0  0  0
    8.2893  -16.7523   18.5424 O   0  0  0  0  0  0  0  0  0  0  0  0
    9.5091  -15.6778   20.2562 C   0  0  0  0  0  0  0  0  0  0  0  0
    9.0976  -16.3960   21.4919 C   0  0  2  0  0  0  0  0  0  0  0  0
    7.7463  -16.8396   21.3871 N   0  0  0  0  0  0  0  0  0  0  0  0
    9.3446  -15.6397   22.7407 C   0  0  0  0  0  0  0  0  0  0  0  0
   10.4547  -15.0911   22.9307 O   0  0  0  0  0  0  0  0  0  0  0  0
    5.3356  -12.6866   24.8560 C   0  0  0  0  0  0  0  0  0  0  0  0
    6.6768  -13.2043   24.4723 C   0  0  0  0  0  0  0  0  0  0  0  0
    7.3526  -14.1096   25.4134 C   0  0  2  0  0  0  0  0  0  0  0  0
    7.2520  -13.6706   26.8630 C   0  0  0  0  0  0  0  0  0  0  0  0
    8.6235  -14.7319   25.0135 C   0  0  2  0  0  0  0  0  0  0  0  0
    8.3599  -15.5092   23.7463 N   0  0  0  0  0  0  0  0  0  0  0  0
    9.3675  -15.5824   25.9225 C   0  0  0  0  0  0  0  0  0  0  0  0
    9.3571  -16.8641   25.8179 O   0  0  0  0  0  0  0  0  0  0  0  0
   12.7350  -14.3795   28.2120 C   0  0  0  0  0  0  0  0  0  0  0  0
   11.7372  -15.2854   28.8639 C   0  0  1  0  0  0  0  0  0  0  0  0
   10.7679  -14.4437   29.6564 C   0  0  0  0  0  0  0  0  0  0  0  0
   10.9091  -16.0756   27.8495 C   0  0  2  0  0  0  0  0  0  0  0  0
   10.1766  -15.1246   26.9914 N   0  0  0  0  0  0  0  0  0  0  0  0
    9.9240  -16.8969   28.5583 C   0  0  0  0  0  0  0  0  0  0  0  0
   10.3112  -18.1542   29.0518 O   0  0  0  0  0  0  0  0  0  0  0  0
    8.7416  -16.5770   28.7711 O   0  0  0  0  0  0  0  0  0  0  0  0
  2  3  2  0
  2  1  1  0
  4  2  1  0
  5  6  1  6
  5  4  1  0
  7  5  1  0
  8  7  2  0
  9 10  1  0
 10 11  1  0
 11 12  1  1
 11 13  1  0
 13 14  1  6
 14  7  1  0
 15 13  1  0
 15 21  1  0
 16 15  2  0
 18 17  1  6
 19 18  1  0
 20 18  1  0
 20 21  1  6
 20 22  1  0
 22 23  1  0
 24 22  2  0
M  END
$$$$
