NIV.pdb
     RDKit          3D

 24 23  0  0  1  0  0  0  0  0999 V2000
   10.0647  -17.3261   14.0585 N   0  0  0  0  0  0  0  0  0  0  0  0
   10.7224  -17.8905   15.1786 C   0  0  0  0  0  0  0  0  0  0  0  0
   11.1400  -19.0628   15.0861 O   0  0  0  0  0  0  0  0  0  0  0  0
   10.9048  -17.1181   16.4059 C   0  0  0  0  0  0  0  0  0  0  0  0
   10.0255  -17.4788   17.5499 C   0  0  2  0  0  0  0  0  0  0  0  0
    8.6751  -17.6280   17.1164 N   0  0  0  0  0  0  0  0  0  0  0  0
   10.1442  -16.5702   18.7131 C   0  0  0  0  0  0  0  0  0  0  0  0
   11.2724  -16.1677   19.0799 O   0  0  0  0  0  0  0  0  0  0  0  0
    6.9792  -12.3849   19.3052 C   0  0  0  0  0  0  0  0  0  0  0  0
    8.1238  -13.3260   19.4405 C   0  0  0  0  0  0  0  0  0  0  0  0
    8.1316  -14.2270   20.6024 C   0  0  2  0  0  0  0  0  0  0  0  0
    7.7807  -13.5410   21.9103 C   0  0  0  0  0  0  0  0  0  0  0  0
    9.1556  -15.2796   20.6794 C   0  0  2  0  0  0  0  0  0  0  0  0
    9.0147  -16.1301   19.4400 N   0  0  0  0  0  0  0  0  0  0  0  0
    9.2488  -16.1607   21.8275 C   0  0  0  0  0  0  0  0  0  0  0  0
    8.3059  -16.9790   22.1360 O   0  0  0  0  0  0  0  0  0  0  0  0
   11.6893  -18.8602   22.3268 C   0  0  0  0  0  0  0  0  0  0  0  0
   11.6763  -18.0834   23.6065 C   0  0  1  0  0  0  0  0  0  0  0  0
   12.8303  -17.1117   23.5921 C   0  0  0  0  0  0  0  0  0  0  0  0
   10.4028  -17.2541   23.7784 C   0  0  2  0  0  0  0  0  0  0  0  0
   10.3526  -16.2352   22.7122 N   0  0  0  0  0  0  0  0  0  0  0  0
   10.4442  -16.5585   25.0675 C   0  0  0  0  0  0  0  0  0  0  0  0
   10.1741  -17.2804   26.2423 O   0  0  0  0  0  0  0  0  0  0  0  0
   10.7037  -15.3529   25.2253 O   0  0  0  0  0  0  0  0  0  0  0  0
  2  3  2  0
  2  1  1  0
  4  2  1  0
  5  6  1  6
  5  4  1  0
  7  5  1  0
  8  7  2  0
  9 10  1  0
 10 11  1  0
 11 12  1  1
 11 13  1  0
 13 14  1  6
 14  7  1  0
 15 13  1  0
 15 21  1  0
 16 15  2  0
 18 17  1  6
 19 18  1  0
 20 18  1  0
 20 21  1  6
 20 22  1  0
 22 23  1  0
 24 22  2  0
M  END
$$$$
