NIV.pdb
     RDKit          3D

 24 23  0  0  1  0  0  0  0  0999 V2000
   14.2621  -17.6122   18.1406 N   0  0  0  0  0  0  0  0  0  0  0  0
   14.0009  -17.7832   19.5220 C   0  0  0  0  0  0  0  0  0  0  0  0
   14.5438  -18.7414   20.1088 O   0  0  0  0  0  0  0  0  0  0  0  0
   13.1200  -16.8610   20.2360 C   0  0  0  0  0  0  0  0  0  0  0  0
   12.1010  -17.4776   21.1268 C   0  0  2  0  0  0  0  0  0  0  0  0
   11.1679  -18.2424   20.3665 N   0  0  0  0  0  0  0  0  0  0  0  0
   11.4321  -16.5179   22.0346 C   0  0  0  0  0  0  0  0  0  0  0  0
   11.9541  -15.4014   22.2592 O   0  0  0  0  0  0  0  0  0  0  0  0
    6.4471  -15.2490   21.2034 C   0  0  0  0  0  0  0  0  0  0  0  0
    7.8505  -15.2167   21.6970 C   0  0  0  0  0  0  0  0  0  0  0  0
    8.1071  -15.7195   23.0546 C   0  0  2  0  0  0  0  0  0  0  0  0
    7.0749  -15.2768   24.0758 C   0  0  0  0  0  0  0  0  0  0  0  0
    9.4954  -15.8004   23.5326 C   0  0  2  0  0  0  0  0  0  0  0  0
   10.2053  -16.8161   22.6702 N   0  0  0  0  0  0  0  0  0  0  0  0
    9.8012  -16.0890   24.9205 C   0  0  0  0  0  0  0  0  0  0  0  0
   10.2402  -17.2378   25.2963 O   0  0  0  0  0  0  0  0  0  0  0  0
   10.2366  -14.6174   29.6983 C   0  0  0  0  0  0  0  0  0  0  0  0
    9.7130  -14.4054   28.3119 C   0  0  1  0  0  0  0  0  0  0  0  0
   10.3162  -13.1385   27.7576 C   0  0  0  0  0  0  0  0  0  0  0  0
   10.1025  -15.5347   27.3567 C   0  0  2  0  0  0  0  0  0  0  0  0
    9.6702  -15.1729   25.9931 N   0  0  0  0  0  0  0  0  0  0  0  0
    9.4025  -16.7628   27.7425 C   0  0  0  0  0  0  0  0  0  0  0  0
   10.0734  -17.7125   28.5314 O   0  0  0  0  0  0  0  0  0  0  0  0
    8.2351  -17.0534   27.4285 O   0  0  0  0  0  0  0  0  0  0  0  0
  2  3  2  0
  2  1  1  0
  4  2  1  0
  5  6  1  6
  5  4  1  0
  7  5  1  0
  8  7  2  0
  9 10  1  0
 10 11  1  0
 11 12  1  1
 11 13  1  0
 13 14  1  6
 14  7  1  0
 15 13  1  0
 15 21  1  0
 16 15  2  0
 18 17  1  1
 19 18  1  0
 20 18  1  0
 20 21  1  6
 20 22  1  0
 22 23  1  0
 24 22  2  0
M  END
$$$$
