NIV.pdb
     RDKit          3D

 24 23  0  0  1  0  0  0  0  0999 V2000
    7.7452  -20.3283   16.2876 N   0  0  0  0  0  0  0  0  0  0  0  0
    8.5802  -20.4279   17.4271 C   0  0  0  0  0  0  0  0  0  0  0  0
    9.3487  -21.4078   17.5091 O   0  0  0  0  0  0  0  0  0  0  0  0
    8.5399  -19.4096   18.4748 C   0  0  0  0  0  0  0  0  0  0  0  0
    8.6738  -17.9972   18.0282 C   0  0  2  0  0  0  0  0  0  0  0  0
    9.4463  -17.9211   16.8319 N   0  0  0  0  0  0  0  0  0  0  0  0
    9.1706  -17.0768   19.0764 C   0  0  0  0  0  0  0  0  0  0  0  0
   10.4029  -16.9356   19.2522 O   0  0  0  0  0  0  0  0  0  0  0  0
    7.0120  -12.2247   19.8741 C   0  0  0  0  0  0  0  0  0  0  0  0
    7.9560  -13.3748   19.8635 C   0  0  0  0  0  0  0  0  0  0  0  0
    7.9749  -14.2517   21.0436 C   0  0  2  0  0  0  0  0  0  0  0  0
    7.9263  -13.5023   22.3628 C   0  0  0  0  0  0  0  0  0  0  0  0
    8.8113  -15.4609   21.0179 C   0  0  2  0  0  0  0  0  0  0  0  0
    8.2940  -16.3370   19.9024 N   0  0  0  0  0  0  0  0  0  0  0  0
    8.9862  -16.2841   22.1989 C   0  0  0  0  0  0  0  0  0  0  0  0
    8.0113  -16.9393   22.7226 O   0  0  0  0  0  0  0  0  0  0  0  0
   10.9608  -19.3516   22.6927 C   0  0  0  0  0  0  0  0  0  0  0  0
   11.3404  -18.4307   23.8102 C   0  0  1  0  0  0  0  0  0  0  0  0
   12.6117  -17.7120   23.4315 C   0  0  0  0  0  0  0  0  0  0  0  0
   10.2852  -17.3544   24.0698 C   0  0  2  0  0  0  0  0  0  0  0  0
   10.2083  -16.4710   22.8904 N   0  0  0  0  0  0  0  0  0  0  0  0
   10.6912  -16.5406   25.2189 C   0  0  0  0  0  0  0  0  0  0  0  0
   10.5942  -17.0857   26.5103 O   0  0  0  0  0  0  0  0  0  0  0  0
   11.1268  -15.3778   25.1578 O   0  0  0  0  0  0  0  0  0  0  0  0
  2  3  2  0
  2  1  1  0
  4  2  1  0
  5  6  1  6
  5  4  1  0
  7  5  1  0
  8  7  2  0
  9 10  1  0
 10 11  1  0
 11 12  1  1
 11 13  1  0
 13 14  1  6
 14  7  1  0
 15 13  1  0
 15 21  1  0
 16 15  2  0
 18 17  1  6
 19 18  1  0
 20 18  1  0
 20 21  1  6
 20 22  1  0
 22 23  1  0
 24 22  2  0
M  END
$$$$
