VRT.pdb
     RDKit          3D

 26 25  0  0  1  0  0  0  0  0999 V2000
    8.0799  -12.0316   25.9203 C   0  0  0  0  0  0  0  0  0  0  0  0
    6.9505  -12.5700   26.7764 C   0  0  1  0  0  0  0  0  0  0  0  0
    6.2920  -11.5031   27.5868 C   0  0  0  0  0  0  0  0  0  0  0  0
    6.0127  -13.2838   25.8403 C   0  0  2  0  0  0  0  0  0  0  0  0
    5.1419  -14.1133   26.6376 N   0  0  0  0  0  0  0  0  0  0  0  0
    6.6862  -14.0807   24.8140 C   0  0  0  0  0  0  0  0  0  0  0  0
    6.9689  -15.2949   25.0425 O   0  0  0  0  0  0  0  0  0  0  0  0
    9.1506  -15.8962   17.5699 N   0  0  0  0  0  0  0  0  0  0  0  0
    8.5919  -14.7375   16.9891 C   0  0  0  0  0  0  0  0  0  0  0  0
    8.9124  -14.4114   15.7931 N   0  0  0  0  0  0  0  0  0  0  0  0
    7.6643  -13.9240   17.7383 N   0  0  0  0  0  0  0  0  0  0  0  0
    8.1647  -13.2124   18.8735 C   0  0  0  0  0  0  0  0  0  0  0  0
    8.2790  -14.1652   20.0659 C   0  0  0  0  0  0  0  0  0  0  0  0
    7.6219  -13.5637   21.2536 C   0  0  0  0  0  0  0  0  0  0  0  0
    7.6327  -14.4310   22.4852 C   0  0  2  0  0  0  0  0  0  0  0  0
    7.0529  -13.5690   23.5466 N   0  0  0  0  0  0  0  0  0  0  0  0
    8.9704  -14.8836   22.8646 C   0  0  0  0  0  0  0  0  0  0  0  0
    9.8211  -13.9872   23.1965 O   0  0  0  0  0  0  0  0  0  0  0  0
    8.5167  -13.6205   15.2650 C   0  0  0  0  0  0  0  0  0  0  0  0
   10.2718  -17.4145   25.6141 C   0  0  2  0  0  0  0  0  0  0  0  0
   10.8041  -17.7396   24.2409 O   0  0  0  0  0  0  0  0  0  0  0  0
    9.9770  -18.7169   23.6897 C   0  0  2  0  0  0  0  0  0  0  0  0
   10.7663  -16.5413   23.3173 N   0  0  0  0  0  0  0  0  0  0  0  0
    9.4127  -16.2296   22.9032 C   0  0  0  0  0  0  0  0  0  0  0  0
   11.6439  -16.7444   22.1303 O   0  0  0  0  0  0  0  0  0  0  0  0
   11.1570  -16.7977   20.9727 O   0  0  0  0  0  0  0  0  0  0  0  0
  2  3  1  6
  2  1  1  0
  4  2  1  0
  4  5  1  1
  6  4  1  0
  6  7  2  0
  9  8  1  0
 10  9  2  0
 11  9  1  0
 12 11  1  0
 13 12  1  0
 13 14  1  0
 15 14  1  6
 16 15  1  0
 16  6  1  0
 17 15  1  0
 18 17  2  0
 20 19  1  1
 20 22  1  0
 21 20  1  0
 22 24  1  0
 22 23  1  6
 23 17  1  0
 24 26  1  0
 25 24  2  0
M  END
$$$$
