VRT.pdb
     RDKit          3D

 26 25  0  0  1  0  0  0  0  0999 V2000
   10.6152  -21.5364   14.5569 C   0  0  0  0  0  0  0  0  0  0  0  0
   10.5868  -20.1676   15.2082 C   0  0  1  0  0  0  0  0  0  0  0  0
    9.5238  -19.2880   14.6382 C   0  0  0  0  0  0  0  0  0  0  0  0
   10.4459  -20.4054   16.6876 C   0  0  2  0  0  0  0  0  0  0  0  0
    9.2431  -21.1743   16.8972 N   0  0  0  0  0  0  0  0  0  0  0  0
   10.4212  -19.1809   17.4889 C   0  0  0  0  0  0  0  0  0  0  0  0
   11.4022  -18.3795   17.4468 O   0  0  0  0  0  0  0  0  0  0  0  0
    9.2587  -13.0849   21.4736 N   0  0  0  0  0  0  0  0  0  0  0  0
    8.2636  -12.6017   20.5971 C   0  0  0  0  0  0  0  0  0  0  0  0
    8.0845  -11.3396   20.4770 N   0  0  0  0  0  0  0  0  0  0  0  0
    7.4518  -13.5243   19.8399 N   0  0  0  0  0  0  0  0  0  0  0  0
    8.0967  -14.6610   19.2589 C   0  0  0  0  0  0  0  0  0  0  0  0
    7.7261  -15.9192   20.0478 C   0  0  0  0  0  0  0  0  0  0  0  0
    7.9570  -17.1229   19.2099 C   0  0  0  0  0  0  0  0  0  0  0  0
    9.3810  -17.6140   19.1931 C   0  0  2  0  0  0  0  0  0  0  0  0
    9.3423  -18.8234   18.3319 N   0  0  0  0  0  0  0  0  0  0  0  0
    9.8964  -17.9451   20.5208 C   0  0  0  0  0  0  0  0  0  0  0  0
    9.2636  -18.8323   21.1916 O   0  0  0  0  0  0  0  0  0  0  0  0
    7.4070  -10.8917   19.8435 C   0  0  0  0  0  0  0  0  0  0  0  0
   13.4482  -19.0571   21.4757 C   0  0  2  0  0  0  0  0  0  0  0  0
   12.9782  -18.0352   22.4805 O   0  0  0  0  0  0  0  0  0  0  0  0
   13.5669  -16.8163   22.1477 C   0  0  2  0  0  0  0  0  0  0  0  0
   11.4780  -17.8406   22.4354 N   0  0  0  0  0  0  0  0  0  0  0  0
   11.0396  -17.3750   21.1346 C   0  0  0  0  0  0  0  0  0  0  0  0
   11.0199  -16.9114   23.5065 O   0  0  0  0  0  0  0  0  0  0  0  0
   10.5307  -15.7900   23.2184 O   0  0  0  0  0  0  0  0  0  0  0  0
  2  3  1  6
  2  1  1  0
  4  2  1  0
  4  5  1  6
  6  4  1  0
  6  7  2  0
  9  8  1  0
 10  9  2  0
 11  9  1  0
 12 11  1  0
 13 12  1  0
 13 14  1  0
 15 14  1  1
 16 15  1  0
 16  6  1  0
 17 15  1  0
 18 17  2  0
 20 19  1  1
 20 22  1  0
 21 20  1  0
 22 24  1  0
 22 23  1  1
 23 17  1  0
 24 26  1  0
 25 24  2  0
M  END
$$$$
