VRT.pdb
     RDKit          3D

 26 25  0  0  1  0  0  0  0  0999 V2000
    8.0214  -12.5672   18.2791 C   0  0  0  0  0  0  0  0  0  0  0  0
    7.4454  -13.2741   19.4902 C   0  0  1  0  0  0  0  0  0  0  0  0
    6.6001  -14.4465   19.1164 C   0  0  0  0  0  0  0  0  0  0  0  0
    8.6142  -13.6274   20.3701 C   0  0  2  0  0  0  0  0  0  0  0  0
    9.5043  -14.4656   19.6039 N   0  0  0  0  0  0  0  0  0  0  0  0
    8.2403  -14.2833   21.6240 C   0  0  0  0  0  0  0  0  0  0  0  0
    7.4656  -13.6954   22.4368 O   0  0  0  0  0  0  0  0  0  0  0  0
   12.3334  -18.6525   26.4047 N   0  0  0  0  0  0  0  0  0  0  0  0
   11.3314  -19.5554   26.8204 C   0  0  0  0  0  0  0  0  0  0  0  0
   11.3682  -20.0404   28.0048 N   0  0  0  0  0  0  0  0  0  0  0  0
   10.2707  -19.9307   25.9161 N   0  0  0  0  0  0  0  0  0  0  0  0
   10.2255  -19.2926   24.6370 C   0  0  0  0  0  0  0  0  0  0  0  0
    9.2980  -18.0768   24.7034 C   0  0  0  0  0  0  0  0  0  0  0  0
    9.2732  -17.3921   23.3862 C   0  0  0  0  0  0  0  0  0  0  0  0
    8.4391  -16.1384   23.3446 C   0  0  2  0  0  0  0  0  0  0  0  0
    8.7007  -15.5679   21.9985 N   0  0  0  0  0  0  0  0  0  0  0  0
    8.7874  -15.1747   24.3876 C   0  0  0  0  0  0  0  0  0  0  0  0
    9.9875  -14.7306   24.3993 O   0  0  0  0  0  0  0  0  0  0  0  0
   10.6908  -20.7109   28.3954 C   0  0  0  0  0  0  0  0  0  0  0  0
    6.9018  -11.8328   25.6800 C   0  0  2  0  0  0  0  0  0  0  0  0
    7.2997  -12.7693   26.7932 O   0  0  0  0  0  0  0  0  0  0  0  0
    6.1805  -13.5331   27.1207 C   0  0  2  0  0  0  0  0  0  0  0  0
    8.3923  -13.7266   26.3688 N   0  0  0  0  0  0  0  0  0  0  0  0
    7.9139  -14.6812   25.3887 C   0  0  0  0  0  0  0  0  0  0  0  0
    8.9815  -14.4309   27.5423 O   0  0  0  0  0  0  0  0  0  0  0  0
    8.9660  -15.6858   27.6129 O   0  0  0  0  0  0  0  0  0  0  0  0
  2  3  1  6
  2  1  1  0
  4  2  1  0
  4  5  1  6
  6  4  1  0
  6  7  2  0
  9  8  1  0
 10  9  2  0
 11  9  1  0
 12 11  1  0
 13 12  1  0
 13 14  1  0
 15 14  1  1
 16 15  1  0
 16  6  1  0
 17 15  1  0
 18 17  2  0
 20 19  1  1
 20 22  1  0
 21 20  1  0
 22 24  1  0
 22 23  1  1
 23 17  1  0
 24 26  1  0
 25 24  2  0
M  END
$$$$
