VRT.pdb
     RDKit          3D

 26 25  0  0  1  0  0  0  0  0999 V2000
    8.1615  -12.3301   20.8718 C   0  0  0  0  0  0  0  0  0  0  0  0
    7.4369  -13.0543   19.7542 C   0  0  1  0  0  0  0  0  0  0  0  0
    7.4346  -12.2770   18.4797 C   0  0  0  0  0  0  0  0  0  0  0  0
    8.0852  -14.4074   19.6361 C   0  0  2  0  0  0  0  0  0  0  0  0
    7.3761  -15.1480   18.6209 N   0  0  0  0  0  0  0  0  0  0  0  0
    8.1261  -15.1609   20.8901 C   0  0  0  0  0  0  0  0  0  0  0  0
    7.0571  -15.6418   21.3722 O   0  0  0  0  0  0  0  0  0  0  0  0
   12.9322  -19.8970   25.7265 N   0  0  0  0  0  0  0  0  0  0  0  0
   11.6031  -20.3166   25.9493 C   0  0  0  0  0  0  0  0  0  0  0  0
   11.3380  -21.0771   26.9446 N   0  0  0  0  0  0  0  0  0  0  0  0
   10.5481  -19.8913   25.0608 N   0  0  0  0  0  0  0  0  0  0  0  0
   10.9191  -19.2015   23.8641 C   0  0  0  0  0  0  0  0  0  0  0  0
   10.8872  -17.6915   24.1121 C   0  0  0  0  0  0  0  0  0  0  0  0
   10.5599  -16.9824   22.8494 C   0  0  0  0  0  0  0  0  0  0  0  0
    9.3184  -16.1314   22.9095 C   0  0  2  0  0  0  0  0  0  0  0  0
    9.3156  -15.3943   21.6201 N   0  0  0  0  0  0  0  0  0  0  0  0
    9.3085  -15.1980   24.0349 C   0  0  0  0  0  0  0  0  0  0  0  0
   10.2434  -14.3256   24.0821 O   0  0  0  0  0  0  0  0  0  0  0  0
   10.3996  -21.4139   27.2036 C   0  0  0  0  0  0  0  0  0  0  0  0
    6.7085  -12.6091   25.2109 C   0  0  2  0  0  0  0  0  0  0  0  0
    7.1155  -13.4877   26.3673 O   0  0  0  0  0  0  0  0  0  0  0  0
    6.1537  -14.4887   26.4938 C   0  0  2  0  0  0  0  0  0  0  0  0
    8.4462  -14.1667   26.1257 N   0  0  0  0  0  0  0  0  0  0  0  0
    8.3526  -15.1670   25.0809 C   0  0  0  0  0  0  0  0  0  0  0  0
    8.9837  -14.7668   27.3792 O   0  0  0  0  0  0  0  0  0  0  0  0
    9.1873  -16.0044   27.4634 O   0  0  0  0  0  0  0  0  0  0  0  0
  2  3  1  6
  2  1  1  0
  4  2  1  0
  4  5  1  6
  6  4  1  0
  6  7  2  0
  9  8  1  0
 10  9  2  0
 11  9  1  0
 12 11  1  0
 13 12  1  0
 13 14  1  0
 15 14  1  1
 16 15  1  0
 16  6  1  0
 17 15  1  0
 18 17  2  0
 20 19  1  1
 20 22  1  0
 21 20  1  0
 22 24  1  0
 22 23  1  1
 23 17  1  0
 24 26  1  0
 25 24  2  0
M  END
$$$$
