VRT.pdb
     RDKit          3D

 26 25  0  0  1  0  0  0  0  0999 V2000
    6.1097  -11.8059   27.4415 C   0  0  0  0  0  0  0  0  0  0  0  0
    6.9815  -12.5579   26.4552 C   0  0  1  0  0  0  0  0  0  0  0  0
    8.3167  -12.9055   27.0253 C   0  0  0  0  0  0  0  0  0  0  0  0
    6.1837  -13.7543   26.0111 C   0  0  2  0  0  0  0  0  0  0  0  0
    6.0681  -14.6489   27.1373 N   0  0  0  0  0  0  0  0  0  0  0  0
    6.7477  -14.4516   24.8545 C   0  0  0  0  0  0  0  0  0  0  0  0
    6.8607  -15.7140   24.8723 O   0  0  0  0  0  0  0  0  0  0  0  0
   10.4044  -14.1211   18.3200 N   0  0  0  0  0  0  0  0  0  0  0  0
    9.3507  -14.1802   17.3829 C   0  0  0  0  0  0  0  0  0  0  0  0
    9.5443  -14.7388   16.2472 N   0  0  0  0  0  0  0  0  0  0  0  0
    8.0617  -13.6145   17.7021 N   0  0  0  0  0  0  0  0  0  0  0  0
    7.8976  -13.0065   18.9862 C   0  0  0  0  0  0  0  0  0  0  0  0
    8.1612  -14.0429   20.0813 C   0  0  0  0  0  0  0  0  0  0  0  0
    7.6647  -13.5332   21.3843 C   0  0  0  0  0  0  0  0  0  0  0  0
    7.7245  -14.5288   22.5133 C   0  0  2  0  0  0  0  0  0  0  0  0
    7.1876  -13.7892   23.6840 N   0  0  0  0  0  0  0  0  0  0  0  0
    9.0762  -15.0141   22.7880 C   0  0  0  0  0  0  0  0  0  0  0  0
    9.9506  -14.1484   23.1391 O   0  0  0  0  0  0  0  0  0  0  0  0
    8.8494  -14.8052   15.4897 C   0  0  0  0  0  0  0  0  0  0  0  0
   10.4061  -17.5614   25.3976 C   0  0  2  0  0  0  0  0  0  0  0  0
   10.8852  -17.9120   24.0112 O   0  0  0  0  0  0  0  0  0  0  0  0
   10.0082  -18.8623   23.4908 C   0  0  2  0  0  0  0  0  0  0  0  0
   10.8620  -16.7179   23.0818 N   0  0  0  0  0  0  0  0  0  0  0  0
    9.5084  -16.3614   22.7053 C   0  0  0  0  0  0  0  0  0  0  0  0
   11.6970  -16.9573   21.8711 O   0  0  0  0  0  0  0  0  0  0  0  0
   11.1793  -16.9702   20.7257 O   0  0  0  0  0  0  0  0  0  0  0  0
  2  3  1  1
  2  1  1  0
  4  2  1  0
  4  5  1  1
  6  4  1  0
  6  7  2  0
  9  8  1  0
 10  9  2  0
 11  9  1  0
 12 11  1  0
 13 12  1  0
 13 14  1  0
 15 14  1  6
 16 15  1  0
 16  6  1  0
 17 15  1  0
 18 17  2  0
 20 19  1  1
 20 22  1  0
 21 20  1  0
 22 24  1  0
 22 23  1  6
 23 17  1  0
 24 26  1  0
 25 24  2  0
M  END
$$$$
