VRT.pdb
     RDKit          3D

 26 25  0  0  1  0  0  0  0  0999 V2000
    8.8130  -12.8412   20.6900 C   0  0  0  0  0  0  0  0  0  0  0  0
    7.7617  -13.1932   19.6559 C   0  0  1  0  0  0  0  0  0  0  0  0
    7.4287  -12.0405   18.7676 C   0  0  0  0  0  0  0  0  0  0  0  0
    8.2815  -14.3962   18.9159 C   0  0  2  0  0  0  0  0  0  0  0  0
    7.2832  -14.7832   17.9487 N   0  0  0  0  0  0  0  0  0  0  0  0
    8.6264  -15.5255   19.7808 C   0  0  0  0  0  0  0  0  0  0  0  0
    7.7187  -16.1160   20.4394 O   0  0  0  0  0  0  0  0  0  0  0  0
   16.1423  -19.8204   21.0584 N   0  0  0  0  0  0  0  0  0  0  0  0
   15.1777  -20.8196   21.3096 C   0  0  0  0  0  0  0  0  0  0  0  0
   15.5475  -21.9536   21.7749 N   0  0  0  0  0  0  0  0  0  0  0  0
   13.7819  -20.5655   21.0436 N   0  0  0  0  0  0  0  0  0  0  0  0
   13.4277  -19.2977   20.4843 C   0  0  0  0  0  0  0  0  0  0  0  0
   12.1457  -18.7860   21.1457 C   0  0  0  0  0  0  0  0  0  0  0  0
   11.5779  -17.6725   20.3445 C   0  0  0  0  0  0  0  0  0  0  0  0
   10.2709  -17.1292   20.8602 C   0  0  2  0  0  0  0  0  0  0  0  0
    9.9453  -16.0149   19.9338 N   0  0  0  0  0  0  0  0  0  0  0  0
   10.3464  -16.6463   22.2383 C   0  0  0  0  0  0  0  0  0  0  0  0
   11.1250  -15.6581   22.4720 O   0  0  0  0  0  0  0  0  0  0  0  0
   14.9152  -22.7103   22.0727 C   0  0  0  0  0  0  0  0  0  0  0  0
    7.3175  -16.4559   24.9934 C   0  0  2  0  0  0  0  0  0  0  0  0
    8.6276  -15.7099   25.0359 O   0  0  0  0  0  0  0  0  0  0  0  0
    8.8280  -15.2859   26.3486 C   0  0  1  0  0  0  0  0  0  0  0  0
    9.7982  -16.5933   24.6621 N   0  0  0  0  0  0  0  0  0  0  0  0
    9.6306  -17.1709   23.3433 C   0  0  0  0  0  0  0  0  0  0  0  0
   10.0173  -17.6610   25.6781 O   0  0  0  0  0  0  0  0  0  0  0  0
   10.2120  -17.3692   26.8851 O   0  0  0  0  0  0  0  0  0  0  0  0
  2  3  1  6
  2  1  1  0
  4  2  1  0
  4  5  1  6
  6  4  1  0
  6  7  2  0
  9  8  1  0
 10  9  2  0
 11  9  1  0
 12 11  1  0
 13 12  1  0
 13 14  1  0
 15 14  1  6
 16 15  1  0
 16  6  1  0
 17 15  1  0
 18 17  2  0
 20 19  1  6
 20 22  1  0
 21 20  1  0
 22 24  1  0
 22 23  1  6
 23 17  1  0
 24 26  1  0
 25 24  2  0
M  END
$$$$
