VRT.pdb
     RDKit          3D

 26 25  0  0  1  0  0  0  0  0999 V2000
    8.1721  -12.3103   20.8158 C   0  0  0  0  0  0  0  0  0  0  0  0
    7.4817  -13.1525   19.7610 C   0  0  1  0  0  0  0  0  0  0  0  0
    7.5154  -12.5147   18.4116 C   0  0  0  0  0  0  0  0  0  0  0  0
    8.1356  -14.5073   19.8060 C   0  0  2  0  0  0  0  0  0  0  0  0
    7.4709  -15.3489   18.8407 N   0  0  0  0  0  0  0  0  0  0  0  0
    8.1235  -15.1319   21.1295 C   0  0  0  0  0  0  0  0  0  0  0  0
    7.0199  -15.4361   21.6736 O   0  0  0  0  0  0  0  0  0  0  0  0
   11.5549  -21.5008   22.9192 N   0  0  0  0  0  0  0  0  0  0  0  0
   10.9975  -21.0108   24.1197 C   0  0  0  0  0  0  0  0  0  0  0  0
    9.8846  -21.4840   24.5402 N   0  0  0  0  0  0  0  0  0  0  0  0
   11.6775  -19.9821   24.8700 N   0  0  0  0  0  0  0  0  0  0  0  0
   11.8942  -18.7211   24.2310 C   0  0  0  0  0  0  0  0  0  0  0  0
   10.6414  -17.8532   24.3721 C   0  0  0  0  0  0  0  0  0  0  0  0
   10.4542  -17.0392   23.1446 C   0  0  0  0  0  0  0  0  0  0  0  0
    9.2557  -16.1269   23.1715 C   0  0  2  0  0  0  0  0  0  0  0  0
    9.2976  -15.4268   21.8623 N   0  0  0  0  0  0  0  0  0  0  0  0
    9.2846  -15.1630   24.2706 C   0  0  0  0  0  0  0  0  0  0  0  0
   10.2250  -14.2953   24.2657 O   0  0  0  0  0  0  0  0  0  0  0  0
    9.4209  -21.2220   25.4219 C   0  0  0  0  0  0  0  0  0  0  0  0
    6.8469  -12.4287   25.5642 C   0  0  2  0  0  0  0  0  0  0  0  0
    7.2225  -13.3813   26.6716 O   0  0  0  0  0  0  0  0  0  0  0  0
    6.2195  -14.3457   26.7551 C   0  0  2  0  0  0  0  0  0  0  0  0
    8.5216  -14.1031   26.3855 N   0  0  0  0  0  0  0  0  0  0  0  0
    8.3607  -15.0978   25.3435 C   0  0  0  0  0  0  0  0  0  0  0  0
    9.0802  -14.7230   27.6201 O   0  0  0  0  0  0  0  0  0  0  0  0
    9.3244  -15.9551   27.6665 O   0  0  0  0  0  0  0  0  0  0  0  0
  2  3  1  6
  2  1  1  0
  4  2  1  0
  4  5  1  6
  6  4  1  0
  6  7  2  0
  9  8  1  0
 10  9  2  0
 11  9  1  0
 12 11  1  0
 13 12  1  0
 13 14  1  0
 15 14  1  1
 16 15  1  0
 16  6  1  0
 17 15  1  0
 18 17  2  0
 20 19  1  1
 20 22  1  0
 21 20  1  0
 22 24  1  0
 22 23  1  1
 23 17  1  0
 24 26  1  0
 25 24  2  0
M  END
$$$$
