VRT.pdb
     RDKit          3D

 26 25  0  0  1  0  0  0  0  0999 V2000
    8.2728  -12.3859   26.0323 C   0  0  0  0  0  0  0  0  0  0  0  0
    6.9552  -12.7562   26.6845 C   0  0  1  0  0  0  0  0  0  0  0  0
    6.3224  -11.6002   27.3857 C   0  0  0  0  0  0  0  0  0  0  0  0
    6.0970  -13.3484   25.5991 C   0  0  2  0  0  0  0  0  0  0  0  0
    4.8784  -13.8210   26.2103 N   0  0  0  0  0  0  0  0  0  0  0  0
    6.7455  -14.4220   24.8449 C   0  0  0  0  0  0  0  0  0  0  0  0
    6.8552  -15.5759   25.3575 O   0  0  0  0  0  0  0  0  0  0  0  0
    7.2991  -13.3506   16.6500 N   0  0  0  0  0  0  0  0  0  0  0  0
    8.4295  -13.7852   17.3749 C   0  0  0  0  0  0  0  0  0  0  0  0
    9.5983  -13.6368   16.8735 N   0  0  0  0  0  0  0  0  0  0  0  0
    8.2699  -14.3936   18.6740 N   0  0  0  0  0  0  0  0  0  0  0  0
    7.0097  -14.2422   19.3331 C   0  0  0  0  0  0  0  0  0  0  0  0
    6.9752  -15.1261   20.5822 C   0  0  0  0  0  0  0  0  0  0  0  0
    8.1577  -14.8389   21.4329 C   0  0  0  0  0  0  0  0  0  0  0  0
    8.0409  -15.3200   22.8556 C   0  0  2  0  0  0  0  0  0  0  0  0
    7.2731  -14.2505   23.5430 N   0  0  0  0  0  0  0  0  0  0  0  0
    9.3339  -15.5240   23.5072 C   0  0  0  0  0  0  0  0  0  0  0  0
    9.9960  -14.4800   23.8373 O   0  0  0  0  0  0  0  0  0  0  0  0
   10.4798  -13.9243   17.3222 C   0  0  0  0  0  0  0  0  0  0  0  0
   10.6847  -17.5540   26.7143 C   0  0  2  0  0  0  0  0  0  0  0  0
   11.3656  -17.9305   25.4222 O   0  0  0  0  0  0  0  0  0  0  0  0
   10.7163  -19.0558   24.9170 C   0  0  2  0  0  0  0  0  0  0  0  0
   11.2543  -16.8382   24.3807 N   0  0  0  0  0  0  0  0  0  0  0  0
    9.9223  -16.7768   23.8124 C   0  0  0  0  0  0  0  0  0  0  0  0
   12.2747  -17.0067   23.3079 O   0  0  0  0  0  0  0  0  0  0  0  0
   11.9284  -17.1369   22.1065 O   0  0  0  0  0  0  0  0  0  0  0  0
  2  3  1  6
  2  1  1  0
  4  2  1  0
  4  5  1  1
  6  4  1  0
  6  7  2  0
  9  8  1  0
 10  9  2  0
 11  9  1  0
 12 11  1  0
 13 12  1  0
 13 14  1  0
 15 14  1  6
 16 15  1  0
 16  6  1  0
 17 15  1  0
 18 17  2  0
 20 19  1  1
 20 22  1  0
 21 20  1  0
 22 24  1  0
 22 23  1  6
 23 17  1  0
 24 26  1  0
 25 24  2  0
M  END
$$$$
