VRT.pdb
     RDKit          3D

 26 25  0  0  1  0  0  0  0  0999 V2000
    6.8044  -14.1409   18.9287 C   0  0  0  0  0  0  0  0  0  0  0  0
    8.1546  -13.5036   19.1920 C   0  0  1  0  0  0  0  0  0  0  0  0
    8.0373  -12.0795   19.6241 C   0  0  0  0  0  0  0  0  0  0  0  0
    8.8504  -14.3843   20.1945 C   0  0  2  0  0  0  0  0  0  0  0  0
    9.0764  -15.6663   19.5720 N   0  0  0  0  0  0  0  0  0  0  0  0
    8.1231  -14.5442   21.4545 C   0  0  0  0  0  0  0  0  0  0  0  0
    7.8655  -13.5284   22.1675 O   0  0  0  0  0  0  0  0  0  0  0  0
    6.6544  -22.1713   24.8754 N   0  0  0  0  0  0  0  0  0  0  0  0
    7.7870  -21.3293   24.8890 C   0  0  0  0  0  0  0  0  0  0  0  0
    8.9557  -21.8421   24.9913 N   0  0  0  0  0  0  0  0  0  0  0  0
    7.6298  -19.8980   24.7881 N   0  0  0  0  0  0  0  0  0  0  0  0
    6.3062  -19.3629   24.8739 C   0  0  0  0  0  0  0  0  0  0  0  0
    6.3643  -17.8358   24.7887 C   0  0  0  0  0  0  0  0  0  0  0  0
    6.9216  -17.4275   23.4745 C   0  0  0  0  0  0  0  0  0  0  0  0
    7.0344  -15.9388   23.2742 C   0  0  2  0  0  0  0  0  0  0  0  0
    7.6760  -15.7949   21.9424 N   0  0  0  0  0  0  0  0  0  0  0  0
    7.8321  -15.2735   24.3033 C   0  0  0  0  0  0  0  0  0  0  0  0
    9.1037  -15.3970   24.2314 O   0  0  0  0  0  0  0  0  0  0  0  0
    9.8397  -21.3135   24.9982 C   0  0  0  0  0  0  0  0  0  0  0  0
    7.3528  -11.5530   25.9526 C   0  0  2  0  0  0  0  0  0  0  0  0
    7.6148  -12.6475   26.9566 O   0  0  0  0  0  0  0  0  0  0  0  0
    6.3858  -13.0322   27.4899 C   0  0  2  0  0  0  0  0  0  0  0  0
    8.2332  -13.8714   26.3162 N   0  0  0  0  0  0  0  0  0  0  0  0
    7.3253  -14.4973   25.3755 C   0  0  0  0  0  0  0  0  0  0  0  0
    8.6815  -14.8527   27.3441 O   0  0  0  0  0  0  0  0  0  0  0  0
    8.2047  -16.0154   27.3736 O   0  0  0  0  0  0  0  0  0  0  0  0
  2  3  1  1
  2  1  1  0
  4  2  1  0
  4  5  1  6
  6  4  1  0
  6  7  2  0
  9  8  1  0
 10  9  2  0
 11  9  1  0
 12 11  1  0
 13 12  1  0
 13 14  1  0
 15 14  1  1
 16 15  1  0
 16  6  1  0
 17 15  1  0
 18 17  2  0
 20 19  1  1
 20 22  1  0
 21 20  1  0
 22 24  1  0
 22 23  1  1
 23 17  1  0
 24 26  1  0
 25 24  2  0
M  END
$$$$
