VRT.pdb
     RDKit          3D

 26 25  0  0  1  0  0  0  0  0999 V2000
    6.7820  -12.8085   20.1543 C   0  0  0  0  0  0  0  0  0  0  0  0
    8.1923  -12.9623   19.6197 C   0  0  1  0  0  0  0  0  0  0  0  0
    9.1892  -12.1815   20.4103 C   0  0  0  0  0  0  0  0  0  0  0  0
    8.4730  -14.4405   19.5841 C   0  0  2  0  0  0  0  0  0  0  0  0
    7.6051  -15.0295   18.5931 N   0  0  0  0  0  0  0  0  0  0  0  0
    8.3100  -15.1100   20.8753 C   0  0  0  0  0  0  0  0  0  0  0  0
    7.1657  -15.5213   21.2328 O   0  0  0  0  0  0  0  0  0  0  0  0
   11.4727  -18.5675   19.3368 N   0  0  0  0  0  0  0  0  0  0  0  0
   11.1294  -19.8763   19.7382 C   0  0  0  0  0  0  0  0  0  0  0  0
   10.8673  -20.7620   18.8516 N   0  0  0  0  0  0  0  0  0  0  0  0
   11.0738  -20.2154   21.1402 N   0  0  0  0  0  0  0  0  0  0  0  0
   11.2717  -19.1651   22.0906 C   0  0  0  0  0  0  0  0  0  0  0  0
   10.0772  -18.2087   22.0535 C   0  0  0  0  0  0  0  0  0  0  0  0
   10.2782  -17.1167   23.0391 C   0  0  0  0  0  0  0  0  0  0  0  0
    9.1920  -16.0729   23.0517 C   0  0  2  0  0  0  0  0  0  0  0  0
    9.3777  -15.3343   21.7765 N   0  0  0  0  0  0  0  0  0  0  0  0
    9.2772  -15.1604   24.1910 C   0  0  0  0  0  0  0  0  0  0  0  0
   10.3069  -14.4041   24.2615 O   0  0  0  0  0  0  0  0  0  0  0  0
   10.6062  -21.7395   19.0450 C   0  0  0  0  0  0  0  0  0  0  0  0
    7.0987  -12.2280   25.3738 C   0  0  2  0  0  0  0  0  0  0  0  0
    7.3002  -13.2057   26.5044 O   0  0  0  0  0  0  0  0  0  0  0  0
    6.1901  -14.0482   26.5348 C   0  0  2  0  0  0  0  0  0  0  0  0
    8.5218  -14.0742   26.2952 N   0  0  0  0  0  0  0  0  0  0  0  0
    8.3183  -15.0324   25.2268 C   0  0  0  0  0  0  0  0  0  0  0  0
    8.9151  -14.7681   27.5538 O   0  0  0  0  0  0  0  0  0  0  0  0
    8.9930  -16.0219   27.5990 O   0  0  0  0  0  0  0  0  0  0  0  0
  2  3  1  1
  2  1  1  0
  4  2  1  0
  4  5  1  6
  6  4  1  0
  6  7  2  0
  9  8  1  0
 10  9  2  0
 11  9  1  0
 12 11  1  0
 13 12  1  0
 13 14  1  0
 15 14  1  1
 16 15  1  0
 16  6  1  0
 17 15  1  0
 18 17  2  0
 20 19  1  1
 20 22  1  0
 21 20  1  0
 22 24  1  0
 22 23  1  1
 23 17  1  0
 24 26  1  0
 25 24  2  0
M  END
$$$$
