VRT.pdb
     RDKit          3D

 26 25  0  0  1  0  0  0  0  0999 V2000
    8.5478  -12.7968   20.6842 C   0  0  0  0  0  0  0  0  0  0  0  0
    7.6619  -13.2589   19.5440 C   0  0  1  0  0  0  0  0  0  0  0  0
    7.4011  -12.1755   18.5506 C   0  0  0  0  0  0  0  0  0  0  0  0
    8.3290  -14.4722   18.9542 C   0  0  2  0  0  0  0  0  0  0  0  0
    7.4722  -14.9821   17.9111 N   0  0  0  0  0  0  0  0  0  0  0  0
    8.6325  -15.5198   19.9301 C   0  0  0  0  0  0  0  0  0  0  0  0
    7.6937  -16.2149   20.4221 O   0  0  0  0  0  0  0  0  0  0  0  0
   13.5031  -21.9054   20.1252 N   0  0  0  0  0  0  0  0  0  0  0  0
   13.3242  -21.8307   21.5232 C   0  0  0  0  0  0  0  0  0  0  0  0
   13.9326  -22.6612   22.2844 N   0  0  0  0  0  0  0  0  0  0  0  0
   12.4605  -20.8241   22.0926 N   0  0  0  0  0  0  0  0  0  0  0  0
   11.9639  -19.8008   21.2255 C   0  0  0  0  0  0  0  0  0  0  0  0
   12.1398  -18.4343   21.8922 C   0  0  0  0  0  0  0  0  0  0  0  0
   11.6064  -17.3706   21.0044 C   0  0  0  0  0  0  0  0  0  0  0  0
   10.2202  -16.8958   21.3540 C   0  0  2  0  0  0  0  0  0  0  0  0
    9.9436  -15.8156   20.3729 N   0  0  0  0  0  0  0  0  0  0  0  0
   10.1078  -16.3892   22.7211 C   0  0  0  0  0  0  0  0  0  0  0  0
   10.8338  -15.3837   23.0359 O   0  0  0  0  0  0  0  0  0  0  0  0
   13.9816  -22.6023   23.3116 C   0  0  0  0  0  0  0  0  0  0  0  0
    7.4847  -14.5892   24.5291 C   0  0  2  0  0  0  0  0  0  0  0  0
    7.8674  -15.7653   25.3923 O   0  0  0  0  0  0  0  0  0  0  0  0
    6.9490  -16.7845   25.1458 C   0  0  2  0  0  0  0  0  0  0  0  0
    9.2406  -16.3007   25.0488 N   0  0  0  0  0  0  0  0  0  0  0  0
    9.2623  -16.9085   23.7331 C   0  0  0  0  0  0  0  0  0  0  0  0
    9.7196  -17.2645   26.0793 O   0  0  0  0  0  0  0  0  0  0  0  0
    9.9740  -18.4573   25.7748 O   0  0  0  0  0  0  0  0  0  0  0  0
  2  3  1  6
  2  1  1  0
  4  2  1  0
  4  5  1  6
  6  4  1  0
  6  7  2  0
  9  8  1  0
 10  9  2  0
 11  9  1  0
 12 11  1  0
 13 12  1  0
 13 14  1  0
 15 14  1  6
 16 15  1  0
 16  6  1  0
 17 15  1  0
 18 17  2  0
 20 19  1  1
 20 22  1  0
 21 20  1  0
 22 24  1  0
 22 23  1  1
 23 17  1  0
 24 26  1  0
 25 24  2  0
M  END
$$$$
