VRT.pdb
     RDKit          3D

 26 25  0  0  1  0  0  0  0  0999 V2000
    8.5111  -12.1825   18.4856 C   0  0  0  0  0  0  0  0  0  0  0  0
    8.2907  -12.8175   19.8445 C   0  0  1  0  0  0  0  0  0  0  0  0
    7.0145  -12.3742   20.4797 C   0  0  0  0  0  0  0  0  0  0  0  0
    8.3772  -14.3055   19.6358 C   0  0  2  0  0  0  0  0  0  0  0  0
    7.4103  -14.6653   18.6271 N   0  0  0  0  0  0  0  0  0  0  0  0
    8.1695  -15.0917   20.8527 C   0  0  0  0  0  0  0  0  0  0  0  0
    7.0023  -15.4748   21.1648 O   0  0  0  0  0  0  0  0  0  0  0  0
    9.2378  -21.4671   24.4987 N   0  0  0  0  0  0  0  0  0  0  0  0
   10.1542  -21.1273   25.5169 C   0  0  0  0  0  0  0  0  0  0  0  0
   10.2125  -21.8395   26.5793 N   0  0  0  0  0  0  0  0  0  0  0  0
   11.0211  -19.9836   25.3624 N   0  0  0  0  0  0  0  0  0  0  0  0
   10.9576  -19.2578   24.1317 C   0  0  0  0  0  0  0  0  0  0  0  0
    9.9483  -18.1146   24.2625 C   0  0  0  0  0  0  0  0  0  0  0  0
    9.9650  -17.2871   23.0299 C   0  0  0  0  0  0  0  0  0  0  0  0
    8.9613  -16.1640   23.0126 C   0  0  2  0  0  0  0  0  0  0  0  0
    9.2172  -15.4625   21.7287 N   0  0  0  0  0  0  0  0  0  0  0  0
    9.1023  -15.2421   24.1387 C   0  0  0  0  0  0  0  0  0  0  0  0
   10.1983  -14.5878   24.2278 O   0  0  0  0  0  0  0  0  0  0  0  0
   10.8661  -21.6903   27.3614 C   0  0  0  0  0  0  0  0  0  0  0  0
    6.8638  -12.1964   25.3404 C   0  0  2  0  0  0  0  0  0  0  0  0
    7.1446  -13.1788   26.4498 O   0  0  0  0  0  0  0  0  0  0  0  0
    6.0595  -14.0506   26.5242 C   0  0  2  0  0  0  0  0  0  0  0  0
    8.3769  -14.0127   26.1735 N   0  0  0  0  0  0  0  0  0  0  0  0
    8.1314  -15.0019   25.1429 C   0  0  0  0  0  0  0  0  0  0  0  0
    8.8801  -14.6638   27.4158 O   0  0  0  0  0  0  0  0  0  0  0  0
    8.9537  -15.9158   27.5006 O   0  0  0  0  0  0  0  0  0  0  0  0
  2  3  1  6
  2  1  1  0
  4  2  1  0
  4  5  1  6
  6  4  1  0
  6  7  2  0
  9  8  1  0
 10  9  2  0
 11  9  1  0
 12 11  1  0
 13 12  1  0
 13 14  1  0
 15 14  1  1
 16 15  1  0
 16  6  1  0
 17 15  1  0
 18 17  2  0
 20 19  1  1
 20 22  1  0
 21 20  1  0
 22 24  1  0
 22 23  1  1
 23 17  1  0
 24 26  1  0
 25 24  2  0
M  END
$$$$
