VRT.pdb
     RDKit          3D

 26 25  0  0  1  0  0  0  0  0999 V2000
    8.2457  -12.7891   21.0125 C   0  0  0  0  0  0  0  0  0  0  0  0
    7.6257  -13.5429   19.8524 C   0  0  1  0  0  0  0  0  0  0  0  0
    8.1987  -13.1332   18.5362 C   0  0  0  0  0  0  0  0  0  0  0  0
    7.7982  -15.0065   20.1576 C   0  0  2  0  0  0  0  0  0  0  0  0
    7.0700  -15.7528   19.1603 N   0  0  0  0  0  0  0  0  0  0  0  0
    7.3693  -15.3898   21.5034 C   0  0  0  0  0  0  0  0  0  0  0  0
    6.1426  -15.3282   21.8162 O   0  0  0  0  0  0  0  0  0  0  0  0
    7.8074  -20.4704   28.0774 N   0  0  0  0  0  0  0  0  0  0  0  0
    8.1986  -20.7961   26.7610 C   0  0  0  0  0  0  0  0  0  0  0  0
    9.1034  -21.6817   26.5703 N   0  0  0  0  0  0  0  0  0  0  0  0
    7.5827  -20.1351   25.6353 N   0  0  0  0  0  0  0  0  0  0  0  0
    7.1297  -18.7905   25.8152 C   0  0  0  0  0  0  0  0  0  0  0  0
    8.3105  -17.8279   25.6676 C   0  0  0  0  0  0  0  0  0  0  0  0
    8.4548  -17.4252   24.2459 C   0  0  0  0  0  0  0  0  0  0  0  0
    7.8128  -16.1078   23.8971 C   0  0  2  0  0  0  0  0  0  0  0  0
    8.2608  -15.8377   22.5070 N   0  0  0  0  0  0  0  0  0  0  0  0
    8.2084  -15.0160   24.7856 C   0  0  0  0  0  0  0  0  0  0  0  0
    9.4088  -14.5840   24.6862 O   0  0  0  0  0  0  0  0  0  0  0  0
    9.4258  -22.0157   25.6508 C   0  0  0  0  0  0  0  0  0  0  0  0
    6.3054  -11.5541   25.5094 C   0  0  2  0  0  0  0  0  0  0  0  0
    6.7680  -12.2439   26.7683 O   0  0  0  0  0  0  0  0  0  0  0  0
    5.6820  -12.9485   27.2853 C   0  0  2  0  0  0  0  0  0  0  0  0
    7.8695  -13.2455   26.4969 N   0  0  0  0  0  0  0  0  0  0  0  0
    7.3805  -14.3862   25.7482 C   0  0  0  0  0  0  0  0  0  0  0  0
    8.5220  -13.6890   27.7610 O   0  0  0  0  0  0  0  0  0  0  0  0
    9.0797  -12.8583   28.5220 O   0  0  0  0  0  0  0  0  0  0  0  0
  2  3  1  6
  2  1  1  0
  4  2  1  0
  4  5  1  6
  6  4  1  0
  6  7  2  0
  9  8  1  0
 10  9  2  0
 11  9  1  0
 12 11  1  0
 13 12  1  0
 13 14  1  0
 15 14  1  1
 16 15  1  0
 16  6  1  0
 17 15  1  0
 18 17  2  0
 20 19  1  1
 20 22  1  0
 21 20  1  0
 22 24  1  0
 22 23  1  1
 23 17  1  0
 24 26  1  0
 25 24  2  0
M  END
$$$$
