VRT.pdb
     RDKit          3D

 26 25  0  0  1  0  0  0  0  0999 V2000
    6.4773  -11.4008   27.1435 C   0  0  0  0  0  0  0  0  0  0  0  0
    7.2379  -12.4458   26.3509 C   0  0  1  0  0  0  0  0  0  0  0  0
    8.1255  -13.2800   27.2138 C   0  0  0  0  0  0  0  0  0  0  0  0
    6.2053  -13.2410   25.5983 C   0  0  2  0  0  0  0  0  0  0  0  0
    5.4453  -13.9994   26.5623 N   0  0  0  0  0  0  0  0  0  0  0  0
    6.7630  -14.1231   24.5722 C   0  0  0  0  0  0  0  0  0  0  0  0
    6.8977  -15.3609   24.8097 O   0  0  0  0  0  0  0  0  0  0  0  0
    7.5157  -13.1708   16.1817 N   0  0  0  0  0  0  0  0  0  0  0  0
    7.6235  -14.5150   16.5985 C   0  0  0  0  0  0  0  0  0  0  0  0
    7.2483  -15.4534   15.8124 N   0  0  0  0  0  0  0  0  0  0  0  0
    8.1536  -14.8309   17.9034 N   0  0  0  0  0  0  0  0  0  0  0  0
    8.6056  -13.7485   18.7216 C   0  0  0  0  0  0  0  0  0  0  0  0
    9.0099  -14.2810   20.0984 C   0  0  0  0  0  0  0  0  0  0  0  0
    8.1496  -13.6724   21.1442 C   0  0  0  0  0  0  0  0  0  0  0  0
    7.9072  -14.5468   22.3467 C   0  0  2  0  0  0  0  0  0  0  0  0
    7.1733  -13.6710   23.2956 N   0  0  0  0  0  0  0  0  0  0  0  0
    9.1377  -15.0482   22.9571 C   0  0  0  0  0  0  0  0  0  0  0  0
    9.9321  -14.1861   23.4699 O   0  0  0  0  0  0  0  0  0  0  0  0
    7.3465  -16.4617   15.9989 C   0  0  0  0  0  0  0  0  0  0  0  0
   10.1222  -18.0137   25.6211 C   0  0  2  0  0  0  0  0  0  0  0  0
   10.8015  -18.0975   24.2771 O   0  0  0  0  0  0  0  0  0  0  0  0
   10.0584  -18.9704   23.4840 C   0  0  2  0  0  0  0  0  0  0  0  0
   10.8328  -16.7596   23.5705 N   0  0  0  0  0  0  0  0  0  0  0  0
    9.5316  -16.4073   23.0376 C   0  0  0  0  0  0  0  0  0  0  0  0
   11.8630  -16.7393   22.4941 O   0  0  0  0  0  0  0  0  0  0  0  0
   11.5304  -16.6122   21.2886 O   0  0  0  0  0  0  0  0  0  0  0  0
  2  3  1  1
  2  1  1  0
  4  2  1  0
  4  5  1  1
  6  4  1  0
  6  7  2  0
  9  8  1  0
 10  9  2  0
 11  9  1  0
 12 11  1  0
 13 12  1  0
 13 14  1  0
 15 14  1  6
 16 15  1  0
 16  6  1  0
 17 15  1  0
 18 17  2  0
 20 19  1  1
 20 22  1  0
 21 20  1  0
 22 24  1  0
 22 23  1  6
 23 17  1  0
 24 26  1  0
 25 24  2  0
M  END
$$$$
