VRT.pdb
     RDKit          3D

 26 25  0  0  1  0  0  0  0  0999 V2000
    8.3049  -12.4352   18.4693 C   0  0  0  0  0  0  0  0  0  0  0  0
    8.1649  -13.0123   19.8642 C   0  0  1  0  0  0  0  0  0  0  0  0
    6.8929  -12.5978   20.5267 C   0  0  0  0  0  0  0  0  0  0  0  0
    8.3150  -14.5031   19.7227 C   0  0  2  0  0  0  0  0  0  0  0  0
    7.3537  -14.9514   18.7445 N   0  0  0  0  0  0  0  0  0  0  0  0
    8.1561  -15.2404   20.9770 C   0  0  0  0  0  0  0  0  0  0  0  0
    7.0153  -15.6815   21.3094 O   0  0  0  0  0  0  0  0  0  0  0  0
   12.0766  -21.2153   25.2739 N   0  0  0  0  0  0  0  0  0  0  0  0
   11.2352  -20.5031   26.1553 C   0  0  0  0  0  0  0  0  0  0  0  0
   11.6194  -20.2813   27.3564 N   0  0  0  0  0  0  0  0  0  0  0  0
    9.9486  -20.0271   25.7062 N   0  0  0  0  0  0  0  0  0  0  0  0
    9.8777  -19.4036   24.4210 C   0  0  0  0  0  0  0  0  0  0  0  0
   10.1721  -17.9080   24.5601 C   0  0  0  0  0  0  0  0  0  0  0  0
   10.0364  -17.2450   23.2386 C   0  0  0  0  0  0  0  0  0  0  0  0
    9.0101  -16.1434   23.1899 C   0  0  2  0  0  0  0  0  0  0  0  0
    9.2240  -15.5003   21.8684 N   0  0  0  0  0  0  0  0  0  0  0  0
    9.1570  -15.1654   24.2670 C   0  0  0  0  0  0  0  0  0  0  0  0
   10.2513  -14.5039   24.3139 O   0  0  0  0  0  0  0  0  0  0  0  0
   11.0965  -19.7384   28.0584 C   0  0  0  0  0  0  0  0  0  0  0  0
    6.9174  -12.0836   25.3172 C   0  0  2  0  0  0  0  0  0  0  0  0
    7.2166  -12.9899   26.4851 O   0  0  0  0  0  0  0  0  0  0  0  0
    6.1338  -13.8549   26.6344 C   0  0  2  0  0  0  0  0  0  0  0  0
    8.4455  -13.8402   26.2458 N   0  0  0  0  0  0  0  0  0  0  0  0
    8.1933  -14.8779   25.2658 C   0  0  0  0  0  0  0  0  0  0  0  0
    8.9512  -14.4312   27.5167 O   0  0  0  0  0  0  0  0  0  0  0  0
    9.0332  -15.6775   27.6580 O   0  0  0  0  0  0  0  0  0  0  0  0
  2  3  1  6
  2  1  1  0
  4  2  1  0
  4  5  1  6
  6  4  1  0
  6  7  2  0
  9  8  1  0
 10  9  2  0
 11  9  1  0
 12 11  1  0
 13 12  1  0
 13 14  1  0
 15 14  1  1
 16 15  1  0
 16  6  1  0
 17 15  1  0
 18 17  2  0
 20 19  1  1
 20 22  1  0
 21 20  1  0
 22 24  1  0
 22 23  1  1
 23 17  1  0
 24 26  1  0
 25 24  2  0
M  END
$$$$
