GAQ.pdb
     RDKit          3D

 19 18  0  0  1  0  0  0  0  0999 V2000
    4.1177  -18.4608   20.8944 N   0  0  0  0  0  0  0  0  0  0  0  0
    4.1371  -17.0533   21.1274 C   0  0  0  0  0  0  0  0  0  0  0  0
    5.5512  -16.5604   21.2656 C   0  0  0  0  0  0  0  0  0  0  0  0
    6.5015  -17.3295   21.5368 O   0  0  0  0  0  0  0  0  0  0  0  0
    7.3300  -13.2165   20.8779 C   0  0  0  0  0  0  0  0  0  0  0  0
    7.1937  -14.6499   21.2683 C   0  0  2  0  0  0  0  0  0  0  0  0
    5.8686  -15.1850   21.0915 N   0  0  0  0  0  0  0  0  0  0  0  0
    7.7158  -14.9191   22.6413 C   0  0  0  0  0  0  0  0  0  0  0  0
    7.1523  -14.4039   23.6534 O   0  0  0  0  0  0  0  0  0  0  0  0
    7.5198  -18.7031   27.4795 N   0  0  0  0  0  0  0  0  0  0  0  0
    7.5368  -18.4628   26.0809 C   0  0  0  0  0  0  0  0  0  0  0  0
    7.3052  -19.4239   25.3126 O   0  0  0  0  0  0  0  0  0  0  0  0
    7.8238  -17.1008   25.5641 C   0  0  0  0  0  0  0  0  0  0  0  0
    9.0738  -17.1692   24.7526 C   0  0  0  0  0  0  0  0  0  0  0  0
    9.5041  -15.8415   24.1709 C   0  0  2  0  0  0  0  0  0  0  0  0
    8.8469  -15.7513   22.8538 N   0  0  0  0  0  0  0  0  0  0  0  0
   10.9600  -15.6988   24.0370 C   0  0  0  0  0  0  0  0  0  0  0  0
   11.5707  -15.6345   22.8030 O   0  0  0  0  0  0  0  0  0  0  0  0
   11.6767  -15.6333   25.0638 O   0  0  0  0  0  0  0  0  0  0  0  0
  2  1  1  0
  3  7  1  0
  3  2  1  0
  4  3  2  0
  6  5  1  1
  6  8  1  0
  6  7  1  0
  8  9  2  0
 10 11  1  0
 11 13  1  0
 11 12  2  0
 13 14  1  0
 15 14  1  6
 16 15  1  0
 16  8  1  0
 17 15  1  0
 17 18  1  0
 19 17  2  0
M  END
$$$$
