GAQ.pdb
     RDKit          3D

 19 18  0  0  1  0  0  0  0  0999 V2000
   11.5523  -17.2079   18.0326 N   0  0  0  0  0  0  0  0  0  0  0  0
   11.3027  -17.8402   19.2871 C   0  0  0  0  0  0  0  0  0  0  0  0
   10.2050  -17.1278   20.0282 C   0  0  0  0  0  0  0  0  0  0  0  0
   10.1282  -15.8784   20.0659 O   0  0  0  0  0  0  0  0  0  0  0  0
    7.0043  -18.1362   21.8007 C   0  0  0  0  0  0  0  0  0  0  0  0
    8.1338  -17.2233   21.4597 C   0  0  2  0  0  0  0  0  0  0  0  0
    9.1989  -17.8537   20.7237 N   0  0  0  0  0  0  0  0  0  0  0  0
    8.6511  -16.4863   22.6510 C   0  0  0  0  0  0  0  0  0  0  0  0
    9.8385  -16.6734   23.0543 O   0  0  0  0  0  0  0  0  0  0  0  0
    6.6136  -10.8932   27.0273 N   0  0  0  0  0  0  0  0  0  0  0  0
    6.4075  -12.1330   26.3680 C   0  0  0  0  0  0  0  0  0  0  0  0
    5.2460  -12.4214   25.9999 O   0  0  0  0  0  0  0  0  0  0  0  0
    7.5523  -13.0483   26.1312 C   0  0  0  0  0  0  0  0  0  0  0  0
    7.2596  -13.8455   24.9046 C   0  0  0  0  0  0  0  0  0  0  0  0
    8.3470  -14.8288   24.5348 C   0  0  2  0  0  0  0  0  0  0  0  0
    7.8385  -15.5633   23.3615 N   0  0  0  0  0  0  0  0  0  0  0  0
    8.6980  -15.7570   25.6180 C   0  0  0  0  0  0  0  0  0  0  0  0
    9.7352  -15.4959   26.4874 O   0  0  0  0  0  0  0  0  0  0  0  0
    8.0455  -16.8175   25.7657 O   0  0  0  0  0  0  0  0  0  0  0  0
  2  1  1  0
  3  7  1  0
  3  2  1  0
  4  3  2  0
  6  5  1  1
  6  8  1  0
  6  7  1  0
  8  9  2  0
 10 11  1  0
 11 13  1  0
 11 12  2  0
 13 14  1  0
 15 14  1  1
 16 15  1  0
 16  8  1  0
 17 15  1  0
 17 18  1  0
 19 17  2  0
M  END
$$$$
