GAQ.pdb
     RDKit          3D

 19 18  0  0  1  0  0  0  0  0999 V2000
    7.5541  -14.3207   19.6427 N   0  0  0  0  0  0  0  0  0  0  0  0
    6.6776  -14.2788   20.7677 C   0  0  0  0  0  0  0  0  0  0  0  0
    7.4644  -14.2133   22.0478 C   0  0  0  0  0  0  0  0  0  0  0  0
    8.7030  -14.3955   22.0788 O   0  0  0  0  0  0  0  0  0  0  0  0
    6.7666  -13.2328   25.6450 C   0  0  0  0  0  0  0  0  0  0  0  0
    7.5225  -13.9034   24.5475 C   0  0  2  0  0  0  0  0  0  0  0  0
    6.8251  -13.9386   23.2882 N   0  0  0  0  0  0  0  0  0  0  0  0
    8.0162  -15.2572   24.9395 C   0  0  0  0  0  0  0  0  0  0  0  0
    7.2264  -16.2489   24.9503 O   0  0  0  0  0  0  0  0  0  0  0  0
   11.8882  -18.2710   21.7518 N   0  0  0  0  0  0  0  0  0  0  0  0
   12.1727  -17.7200   23.0284 C   0  0  0  0  0  0  0  0  0  0  0  0
   13.2116  -18.0967   23.6171 O   0  0  0  0  0  0  0  0  0  0  0  0
   11.2499  -16.7252   23.6312 C   0  0  0  0  0  0  0  0  0  0  0  0
   11.2241  -16.9537   25.1052 C   0  0  0  0  0  0  0  0  0  0  0  0
    9.8549  -16.8017   25.7284 C   0  0  2  0  0  0  0  0  0  0  0  0
    9.3705  -15.4737   25.3083 N   0  0  0  0  0  0  0  0  0  0  0  0
    9.8559  -16.9161   27.1929 C   0  0  0  0  0  0  0  0  0  0  0  0
   10.0130  -18.1314   27.8240 O   0  0  0  0  0  0  0  0  0  0  0  0
    9.7105  -15.8896   27.8982 O   0  0  0  0  0  0  0  0  0  0  0  0
  2  1  1  0
  3  7  1  0
  3  2  1  0
  4  3  2  0
  6  5  1  1
  6  8  1  0
  6  7  1  0
  8  9  2  0
 10 11  1  0
 11 13  1  0
 11 12  2  0
 13 14  1  0
 15 14  1  1
 16 15  1  0
 16  8  1  0
 17 15  1  0
 17 18  1  0
 19 17  2  0
M  END
$$$$
