GAQ.pdb
     RDKit          3D

 19 18  0  0  1  0  0  0  0  0999 V2000
    7.5615  -14.2946   20.8101 N   0  0  0  0  0  0  0  0  0  0  0  0
    6.6743  -14.1725   21.9209 C   0  0  0  0  0  0  0  0  0  0  0  0
    7.4439  -13.8987   23.1837 C   0  0  0  0  0  0  0  0  0  0  0  0
    8.6621  -14.1677   23.2932 O   0  0  0  0  0  0  0  0  0  0  0  0
    6.7368  -12.1946   26.5054 C   0  0  0  0  0  0  0  0  0  0  0  0
    7.4875  -13.0759   25.5646 C   0  0  2  0  0  0  0  0  0  0  0  0
    6.8109  -13.3167   24.3165 N   0  0  0  0  0  0  0  0  0  0  0  0
    7.9270  -14.3511   26.2056 C   0  0  0  0  0  0  0  0  0  0  0  0
    7.1137  -15.3144   26.3395 O   0  0  0  0  0  0  0  0  0  0  0  0
   12.9906  -17.0888   25.1272 N   0  0  0  0  0  0  0  0  0  0  0  0
   11.7983  -16.9007   24.3806 C   0  0  0  0  0  0  0  0  0  0  0  0
   11.8432  -17.0724   23.1412 O   0  0  0  0  0  0  0  0  0  0  0  0
   10.5428  -16.5110   25.0707 C   0  0  0  0  0  0  0  0  0  0  0  0
   10.8618  -16.2705   26.5081 C   0  0  0  0  0  0  0  0  0  0  0  0
    9.6897  -15.7754   27.3249 C   0  0  2  0  0  0  0  0  0  0  0  0
    9.2547  -14.5226   26.6799 N   0  0  0  0  0  0  0  0  0  0  0  0
   10.0096  -15.5483   28.7405 C   0  0  0  0  0  0  0  0  0  0  0  0
   10.2818  -16.5927   29.5978 O   0  0  0  0  0  0  0  0  0  0  0  0
   10.0384  -14.3792   29.1930 O   0  0  0  0  0  0  0  0  0  0  0  0
  2  1  1  0
  3  7  1  0
  3  2  1  0
  4  3  2  0
  6  5  1  1
  6  8  1  0
  6  7  1  0
  8  9  2  0
 10 11  1  0
 11 13  1  0
 11 12  2  0
 13 14  1  0
 15 14  1  6
 16 15  1  0
 16  8  1  0
 17 15  1  0
 17 18  1  0
 19 17  2  0
M  END
$$$$
