GAQ.pdb
     RDKit          3D

 19 18  0  0  1  0  0  0  0  0999 V2000
    8.2436  -12.3271   18.3180 N   0  0  0  0  0  0  0  0  0  0  0  0
    9.1189  -13.2897   18.9039 C   0  0  0  0  0  0  0  0  0  0  0  0
    8.4701  -13.9360   20.0969 C   0  0  0  0  0  0  0  0  0  0  0  0
    7.7672  -13.2881   20.9057 O   0  0  0  0  0  0  0  0  0  0  0  0
    8.0968  -17.4644   21.4488 C   0  0  0  0  0  0  0  0  0  0  0  0
    8.1179  -15.9751   21.5342 C   0  0  2  0  0  0  0  0  0  0  0  0
    8.6315  -15.3250   20.3564 N   0  0  0  0  0  0  0  0  0  0  0  0
    8.7950  -15.4843   22.7714 C   0  0  0  0  0  0  0  0  0  0  0  0
   10.0128  -15.1333   22.7390 O   0  0  0  0  0  0  0  0  0  0  0  0
    5.9980  -11.0520   26.6107 N   0  0  0  0  0  0  0  0  0  0  0  0
    6.1955  -12.4516   26.4833 C   0  0  0  0  0  0  0  0  0  0  0  0
    5.4807  -13.2150   27.1718 O   0  0  0  0  0  0  0  0  0  0  0  0
    7.2273  -12.9751   25.5529 C   0  0  0  0  0  0  0  0  0  0  0  0
    7.6969  -14.2904   26.0774 C   0  0  0  0  0  0  0  0  0  0  0  0
    8.7757  -14.9384   25.2392 C   0  0  2  0  0  0  0  0  0  0  0  0
    8.1038  -15.3964   24.0089 N   0  0  0  0  0  0  0  0  0  0  0  0
    9.4534  -16.0563   25.9092 C   0  0  0  0  0  0  0  0  0  0  0  0
    9.2707  -17.3611   25.5043 O   0  0  0  0  0  0  0  0  0  0  0  0
   10.2198  -15.8311   26.8758 O   0  0  0  0  0  0  0  0  0  0  0  0
  2  1  1  0
  3  7  1  0
  3  2  1  0
  4  3  2  0
  6  5  1  6
  6  8  1  0
  6  7  1  0
  8  9  2  0
 10 11  1  0
 11 13  1  0
 11 12  2  0
 13 14  1  0
 15 14  1  1
 16 15  1  0
 16  8  1  0
 17 15  1  0
 17 18  1  0
 19 17  2  0
M  END
$$$$
