GAQ.pdb
     RDKit          3D

 19 18  0  0  1  0  0  0  0  0999 V2000
    8.0349  -11.9831   19.9909 N   0  0  0  0  0  0  0  0  0  0  0  0
    8.7594  -13.1656   19.6554 C   0  0  0  0  0  0  0  0  0  0  0  0
    8.6963  -14.1608   20.7812 C   0  0  0  0  0  0  0  0  0  0  0  0
    8.2312  -13.8660   21.9060 O   0  0  0  0  0  0  0  0  0  0  0  0
    9.2970  -17.8800   21.1898 C   0  0  0  0  0  0  0  0  0  0  0  0
    9.1705  -16.4718   21.6657 C   0  0  2  0  0  0  0  0  0  0  0  0
    9.1679  -15.4917   20.6107 N   0  0  0  0  0  0  0  0  0  0  0  0
   10.1685  -16.1358   22.7246 C   0  0  0  0  0  0  0  0  0  0  0  0
   11.2761  -15.6021   22.4150 O   0  0  0  0  0  0  0  0  0  0  0  0
    8.8342  -13.4902   27.7914 N   0  0  0  0  0  0  0  0  0  0  0  0
    9.9902  -14.1346   28.3041 C   0  0  0  0  0  0  0  0  0  0  0  0
   10.2254  -14.0400   29.5302 O   0  0  0  0  0  0  0  0  0  0  0  0
   10.8829  -14.8950   27.3934 C   0  0  0  0  0  0  0  0  0  0  0  0
   10.0746  -15.3419   26.2219 C   0  0  0  0  0  0  0  0  0  0  0  0
   10.8790  -16.0394   25.1483 C   0  0  2  0  0  0  0  0  0  0  0  0
    9.9111  -16.4007   24.0960 N   0  0  0  0  0  0  0  0  0  0  0  0
   11.5965  -17.2288   25.6262 C   0  0  0  0  0  0  0  0  0  0  0  0
   11.0785  -18.4969   25.4733 O   0  0  0  0  0  0  0  0  0  0  0  0
   12.7093  -17.1006   26.1898 O   0  0  0  0  0  0  0  0  0  0  0  0
  2  1  1  0
  3  7  1  0
  3  2  1  0
  4  3  2  0
  6  5  1  6
  6  8  1  0
  6  7  1  0
  8  9  2  0
 10 11  1  0
 11 13  1  0
 11 12  2  0
 13 14  1  0
 15 14  1  1
 16 15  1  0
 16  8  1  0
 17 15  1  0
 17 18  1  0
 19 17  2  0
M  END
$$$$
