GAQ.pdb
     RDKit          3D

 19 18  0  0  1  0  0  0  0  0999 V2000
    6.9388  -18.5218   18.4602 N   0  0  0  0  0  0  0  0  0  0  0  0
    6.4087  -17.3529   19.0835 C   0  0  0  0  0  0  0  0  0  0  0  0
    7.4528  -16.2727   19.1543 C   0  0  0  0  0  0  0  0  0  0  0  0
    8.6608  -16.4966   18.9118 O   0  0  0  0  0  0  0  0  0  0  0  0
    7.5158  -12.5147   19.6139 C   0  0  0  0  0  0  0  0  0  0  0  0
    8.0760  -13.8944   19.7048 C   0  0  2  0  0  0  0  0  0  0  0  0
    7.1051  -14.9386   19.5035 N   0  0  0  0  0  0  0  0  0  0  0  0
    8.8621  -14.1095   20.9561 C   0  0  0  0  0  0  0  0  0  0  0  0
    9.9071  -13.4278   21.1813 O   0  0  0  0  0  0  0  0  0  0  0  0
    6.6428  -12.4682   24.9278 N   0  0  0  0  0  0  0  0  0  0  0  0
    7.2456  -13.7305   25.1678 C   0  0  0  0  0  0  0  0  0  0  0  0
    7.9796  -13.8537   26.1747 O   0  0  0  0  0  0  0  0  0  0  0  0
    6.9992  -14.8610   24.2374 C   0  0  0  0  0  0  0  0  0  0  0  0
    8.2273  -15.7072   24.2039 C   0  0  0  0  0  0  0  0  0  0  0  0
    9.2382  -15.2852   23.1617 C   0  0  2  0  0  0  0  0  0  0  0  0
    8.4682  -15.0733   21.9219 N   0  0  0  0  0  0  0  0  0  0  0  0
   10.3106  -16.2658   22.9472 C   0  0  0  0  0  0  0  0  0  0  0  0
   10.4566  -16.9283   21.7473 O   0  0  0  0  0  0  0  0  0  0  0  0
   11.1202  -16.5160   23.8715 O   0  0  0  0  0  0  0  0  0  0  0  0
  2  1  1  0
  3  7  1  0
  3  2  1  0
  4  3  2  0
  6  5  1  1
  6  8  1  0
  6  7  1  0
  8  9  2  0
 10 11  1  0
 11 13  1  0
 11 12  2  0
 13 14  1  0
 15 14  1  1
 16 15  1  0
 16  8  1  0
 17 15  1  0
 17 18  1  0
 19 17  2  0
M  END
$$$$
