GAQ.pdb
     RDKit          3D

 19 18  0  0  1  0  0  0  0  0999 V2000
    8.2350  -14.2017   14.0774 N   0  0  0  0  0  0  0  0  0  0  0  0
    7.4715  -14.5054   15.2439 C   0  0  0  0  0  0  0  0  0  0  0  0
    8.2555  -14.1837   16.4864 C   0  0  0  0  0  0  0  0  0  0  0  0
    9.5074  -14.1551   16.4958 O   0  0  0  0  0  0  0  0  0  0  0  0
    7.4013  -13.1515   20.0516 C   0  0  0  0  0  0  0  0  0  0  0  0
    8.2960  -13.5282   18.9188 C   0  0  2  0  0  0  0  0  0  0  0  0
    7.5979  -13.8961   17.7143 N   0  0  0  0  0  0  0  0  0  0  0  0
    9.3033  -14.5602   19.3064 C   0  0  0  0  0  0  0  0  0  0  0  0
    9.0954  -15.7851   19.0537 O   0  0  0  0  0  0  0  0  0  0  0  0
   15.3120  -14.3193   17.9691 N   0  0  0  0  0  0  0  0  0  0  0  0
   15.2331  -14.6117   19.3557 C   0  0  0  0  0  0  0  0  0  0  0  0
   16.1582  -14.2114   20.0983 O   0  0  0  0  0  0  0  0  0  0  0  0
   14.0759  -15.3731   19.8902 C   0  0  0  0  0  0  0  0  0  0  0  0
   12.8420  -14.5724   19.6411 C   0  0  0  0  0  0  0  0  0  0  0  0
   11.5815  -15.1933   20.1996 C   0  0  2  0  0  0  0  0  0  0  0  0
   10.5119  -14.2060   19.9629 N   0  0  0  0  0  0  0  0  0  0  0  0
   11.6711  -15.5317   21.6262 C   0  0  0  0  0  0  0  0  0  0  0  0
   12.3686  -16.6364   22.0657 O   0  0  0  0  0  0  0  0  0  0  0  0
   11.1026  -14.8056   22.4758 O   0  0  0  0  0  0  0  0  0  0  0  0
  2  1  1  0
  3  7  1  0
  3  2  1  0
  4  3  2  0
  6  5  1  1
  6  8  1  0
  6  7  1  0
  8  9  2  0
 10 11  1  0
 11 13  1  0
 11 12  2  0
 13 14  1  0
 15 14  1  1
 16 15  1  0
 16  8  1  0
 17 15  1  0
 17 18  1  0
 19 17  2  0
M  END
$$$$
