GAQ.pdb
     RDKit          3D

 19 18  0  0  1  0  0  0  0  0999 V2000
    8.1216  -11.9115   18.9718 N   0  0  0  0  0  0  0  0  0  0  0  0
    8.6302  -13.2411   19.0699 C   0  0  0  0  0  0  0  0  0  0  0  0
    8.1158  -13.9127   20.3133 C   0  0  0  0  0  0  0  0  0  0  0  0
    7.4865  -13.2871   21.1970 O   0  0  0  0  0  0  0  0  0  0  0  0
    7.8683  -17.4724   21.6015 C   0  0  0  0  0  0  0  0  0  0  0  0
    7.8922  -15.9861   21.7272 C   0  0  2  0  0  0  0  0  0  0  0  0
    8.3265  -15.3013   20.5372 N   0  0  0  0  0  0  0  0  0  0  0  0
    8.6478  -15.5276   22.9310 C   0  0  0  0  0  0  0  0  0  0  0  0
    9.8708  -15.2072   22.8361 O   0  0  0  0  0  0  0  0  0  0  0  0
    6.2916  -10.9918   26.9049 N   0  0  0  0  0  0  0  0  0  0  0  0
    6.2759  -12.3581   26.5209 C   0  0  0  0  0  0  0  0  0  0  0  0
    5.3240  -13.0715   26.9115 O   0  0  0  0  0  0  0  0  0  0  0  0
    7.3689  -12.9061   25.6785 C   0  0  0  0  0  0  0  0  0  0  0  0
    7.7647  -14.2302   26.2403 C   0  0  0  0  0  0  0  0  0  0  0  0
    8.7685  -14.9825   25.3961 C   0  0  2  0  0  0  0  0  0  0  0  0
    8.0271  -15.4372   24.2052 N   0  0  0  0  0  0  0  0  0  0  0  0
    9.3891  -16.1197   26.0885 C   0  0  0  0  0  0  0  0  0  0  0  0
    9.0810  -17.4226   25.7608 O   0  0  0  0  0  0  0  0  0  0  0  0
   10.2215  -15.9134   27.0034 O   0  0  0  0  0  0  0  0  0  0  0  0
  2  1  1  0
  3  7  1  0
  3  2  1  0
  4  3  2  0
  6  5  1  6
  6  8  1  0
  6  7  1  0
  8  9  2  0
 10 11  1  0
 11 13  1  0
 11 12  2  0
 13 14  1  0
 15 14  1  1
 16 15  1  0
 16  8  1  0
 17 15  1  0
 17 18  1  0
 19 17  2  0
M  END
$$$$
