GAQ.pdb
     RDKit          3D

 19 18  0  0  1  0  0  0  0  0999 V2000
    8.3161  -12.2807   18.3242 N   0  0  0  0  0  0  0  0  0  0  0  0
    8.8403  -13.6012   18.4555 C   0  0  0  0  0  0  0  0  0  0  0  0
    8.3403  -14.2445   19.7196 C   0  0  0  0  0  0  0  0  0  0  0  0
    7.6837  -13.6091   20.5761 O   0  0  0  0  0  0  0  0  0  0  0  0
    8.2161  -17.7748   21.1139 C   0  0  0  0  0  0  0  0  0  0  0  0
    8.1243  -16.2872   21.1786 C   0  0  2  0  0  0  0  0  0  0  0  0
    8.5964  -15.6160   19.9953 N   0  0  0  0  0  0  0  0  0  0  0  0
    8.7529  -15.7302   22.4133 C   0  0  0  0  0  0  0  0  0  0  0  0
    9.9663  -15.3626   22.4046 O   0  0  0  0  0  0  0  0  0  0  0  0
    5.2755  -12.6328   26.1579 N   0  0  0  0  0  0  0  0  0  0  0  0
    6.5085  -12.3688   26.8094 C   0  0  0  0  0  0  0  0  0  0  0  0
    6.5365  -11.4708   27.6814 O   0  0  0  0  0  0  0  0  0  0  0  0
    7.7203  -13.1484   26.4512 C   0  0  0  0  0  0  0  0  0  0  0  0
    7.3864  -14.0072   25.2780 C   0  0  0  0  0  0  0  0  0  0  0  0
    8.5474  -14.8295   24.7660 C   0  0  2  0  0  0  0  0  0  0  0  0
    8.0196  -15.5962   23.6222 N   0  0  0  0  0  0  0  0  0  0  0  0
    9.1246  -15.7290   25.7737 C   0  0  0  0  0  0  0  0  0  0  0  0
   10.0473  -15.2854   26.6966 O   0  0  0  0  0  0  0  0  0  0  0  0
    8.7777  -16.9336   25.8055 O   0  0  0  0  0  0  0  0  0  0  0  0
  2  1  1  0
  3  7  1  0
  3  2  1  0
  4  3  2  0
  6  5  1  6
  6  8  1  0
  6  7  1  0
  8  9  2  0
 10 11  1  0
 11 13  1  0
 11 12  2  0
 13 14  1  0
 15 14  1  1
 16 15  1  0
 16  8  1  0
 17 15  1  0
 17 18  1  0
 19 17  2  0
M  END
$$$$
