GAQ.pdb
     RDKit          3D

 19 18  0  0  1  0  0  0  0  0999 V2000
    8.6139  -14.8957   14.4444 N   0  0  0  0  0  0  0  0  0  0  0  0
    7.7795  -14.9117   15.6017 C   0  0  0  0  0  0  0  0  0  0  0  0
    8.5335  -14.4118   16.8031 C   0  0  0  0  0  0  0  0  0  0  0  0
    9.7786  -14.5088   16.8963 O   0  0  0  0  0  0  0  0  0  0  0  0
    7.6317  -12.6599   20.0622 C   0  0  0  0  0  0  0  0  0  0  0  0
    8.5114  -13.3973   19.1093 C   0  0  2  0  0  0  0  0  0  0  0  0
    7.8541  -13.8019   17.8936 N   0  0  0  0  0  0  0  0  0  0  0  0
    9.2209  -14.5410   19.7564 C   0  0  0  0  0  0  0  0  0  0  0  0
    8.7718  -15.7210   19.6419 O   0  0  0  0  0  0  0  0  0  0  0  0
   15.1443  -14.5257   18.2094 N   0  0  0  0  0  0  0  0  0  0  0  0
   14.4799  -14.6956   19.4520 C   0  0  0  0  0  0  0  0  0  0  0  0
   15.1279  -14.4863   20.5027 O   0  0  0  0  0  0  0  0  0  0  0  0
   13.0547  -15.1108   19.4823 C   0  0  0  0  0  0  0  0  0  0  0  0
   12.6144  -15.1451   20.9073 C   0  0  0  0  0  0  0  0  0  0  0  0
   11.1512  -15.4782   21.0922 C   0  0  2  0  0  0  0  0  0  0  0  0
   10.4075  -14.3447   20.5117 N   0  0  0  0  0  0  0  0  0  0  0  0
   10.7658  -15.6906   22.4937 C   0  0  0  0  0  0  0  0  0  0  0  0
    9.9097  -14.8306   23.1474 O   0  0  0  0  0  0  0  0  0  0  0  0
   11.2208  -16.6754   23.1227 O   0  0  0  0  0  0  0  0  0  0  0  0
  2  1  1  0
  3  7  1  0
  3  2  1  0
  4  3  2  0
  6  5  1  1
  6  8  1  0
  6  7  1  0
  8  9  2  0
 10 11  1  0
 11 13  1  0
 11 12  2  0
 13 14  1  0
 15 14  1  1
 16 15  1  0
 16  8  1  0
 17 15  1  0
 17 18  1  0
 19 17  2  0
M  END
$$$$
