GAQ.pdb
     RDKit          3D

 19 18  0  0  1  0  0  0  0  0999 V2000
    8.1251  -11.7992   19.4103 N   0  0  0  0  0  0  0  0  0  0  0  0
    8.3664  -13.2029   19.3261 C   0  0  0  0  0  0  0  0  0  0  0  0
    8.2699  -13.8378   20.6860 C   0  0  0  0  0  0  0  0  0  0  0  0
    8.5910  -13.2268   21.7310 O   0  0  0  0  0  0  0  0  0  0  0  0
    6.9077  -17.1114   22.0627 C   0  0  0  0  0  0  0  0  0  0  0  0
    7.6270  -15.8058   22.1218 C   0  0  2  0  0  0  0  0  0  0  0  0
    7.8047  -15.1728   20.8407 N   0  0  0  0  0  0  0  0  0  0  0  0
    8.9149  -15.8976   22.8720 C   0  0  0  0  0  0  0  0  0  0  0  0
   10.0187  -15.9254   22.2489 O   0  0  0  0  0  0  0  0  0  0  0  0
    9.4884  -13.2802   28.1275 N   0  0  0  0  0  0  0  0  0  0  0  0
    9.9308  -14.5650   28.5373 C   0  0  0  0  0  0  0  0  0  0  0  0
   10.1351  -14.7590   29.7572 O   0  0  0  0  0  0  0  0  0  0  0  0
   10.1394  -15.6356   27.5299 C   0  0  0  0  0  0  0  0  0  0  0  0
   10.0549  -15.0171   26.1750 C   0  0  0  0  0  0  0  0  0  0  0  0
   10.2141  -16.0007   25.0377 C   0  0  2  0  0  0  0  0  0  0  0  0
    8.9433  -15.9559   24.2908 N   0  0  0  0  0  0  0  0  0  0  0  0
   10.5112  -17.3703   25.4779 C   0  0  0  0  0  0  0  0  0  0  0  0
   11.7808  -17.7491   25.8583 O   0  0  0  0  0  0  0  0  0  0  0  0
    9.5955  -18.2262   25.5124 O   0  0  0  0  0  0  0  0  0  0  0  0
  2  1  1  0
  3  7  1  0
  3  2  1  0
  4  3  2  0
  6  5  1  6
  6  8  1  0
  6  7  1  0
  8  9  2  0
 10 11  1  0
 11 13  1  0
 11 12  2  0
 13 14  1  0
 15 14  1  1
 16 15  1  0
 16  8  1  0
 17 15  1  0
 17 18  1  0
 19 17  2  0
M  END
$$$$
