GAQ.pdb
     RDKit          3D

 19 18  0  0  1  0  0  0  0  0999 V2000
    5.6892  -21.9039   22.8515 N   0  0  0  0  0  0  0  0  0  0  0  0
    5.4873  -21.3520   24.1516 C   0  0  0  0  0  0  0  0  0  0  0  0
    6.6859  -20.5489   24.5763 C   0  0  0  0  0  0  0  0  0  0  0  0
    7.8219  -20.7361   24.0837 O   0  0  0  0  0  0  0  0  0  0  0  0
    7.3455  -17.4382   26.6015 C   0  0  0  0  0  0  0  0  0  0  0  0
    7.7001  -18.7815   26.0579 C   0  0  2  0  0  0  0  0  0  0  0  0
    6.5749  -19.5334   25.5657 N   0  0  0  0  0  0  0  0  0  0  0  0
    8.5215  -19.5842   27.0123 C   0  0  0  0  0  0  0  0  0  0  0  0
    7.9875  -20.5077   27.6976 O   0  0  0  0  0  0  0  0  0  0  0  0
   10.5824  -22.8888   24.0720 N   0  0  0  0  0  0  0  0  0  0  0  0
   11.6022  -23.2399   24.9945 C   0  0  0  0  0  0  0  0  0  0  0  0
   12.3427  -24.2106   24.7166 O   0  0  0  0  0  0  0  0  0  0  0  0
   11.7690  -22.4638   26.2492 C   0  0  0  0  0  0  0  0  0  0  0  0
   10.7877  -21.3403   26.2307 C   0  0  0  0  0  0  0  0  0  0  0  0
   10.8616  -20.4377   27.4415 C   0  0  2  0  0  0  0  0  0  0  0  0
    9.9107  -19.3412   27.1803 N   0  0  0  0  0  0  0  0  0  0  0  0
   12.2068  -19.9088   27.7033 C   0  0  0  0  0  0  0  0  0  0  0  0
   12.6798  -18.7838   27.0625 O   0  0  0  0  0  0  0  0  0  0  0  0
   12.9539  -20.4866   28.5280 O   0  0  0  0  0  0  0  0  0  0  0  0
  2  1  1  0
  3  7  1  0
  3  2  1  0
  4  3  2  0
  6  5  1  1
  6  8  1  0
  6  7  1  0
  8  9  2  0
 10 11  1  0
 11 13  1  0
 11 12  2  0
 13 14  1  0
 15 14  1  6
 16 15  1  0
 16  8  1  0
 17 15  1  0
 17 18  1  0
 19 17  2  0
M  END
$$$$
