GAQ.pdb
     RDKit          3D

 19 18  0  0  1  0  0  0  0  0999 V2000
    4.4872  -19.3650   20.1416 N   0  0  0  0  0  0  0  0  0  0  0  0
    4.9134  -20.2382   21.1865 C   0  0  0  0  0  0  0  0  0  0  0  0
    5.2414  -19.4553   22.4279 C   0  0  0  0  0  0  0  0  0  0  0  0
    4.6863  -18.3648   22.6942 O   0  0  0  0  0  0  0  0  0  0  0  0
    7.1945  -20.1075   25.6062 C   0  0  0  0  0  0  0  0  0  0  0  0
    6.5167  -19.2498   24.5911 C   0  0  2  0  0  0  0  0  0  0  0  0
    6.2064  -19.9283   23.3595 N   0  0  0  0  0  0  0  0  0  0  0  0
    7.2484  -17.9716   24.3444 C   0  0  0  0  0  0  0  0  0  0  0  0
    8.0420  -17.8672   23.3612 O   0  0  0  0  0  0  0  0  0  0  0  0
    5.3034  -12.6698   26.6518 N   0  0  0  0  0  0  0  0  0  0  0  0
    6.5671  -12.2027   26.2054 C   0  0  0  0  0  0  0  0  0  0  0  0
    6.8411  -10.9918   26.3675 O   0  0  0  0  0  0  0  0  0  0  0  0
    7.5232  -13.1416   25.5661 C   0  0  0  0  0  0  0  0  0  0  0  0
    6.9130  -14.5028   25.5810 C   0  0  0  0  0  0  0  0  0  0  0  0
    7.7655  -15.5673   24.9281 C   0  0  2  0  0  0  0  0  0  0  0  0
    7.0800  -16.8458   25.1937 N   0  0  0  0  0  0  0  0  0  0  0  0
    9.1475  -15.6048   25.4246 C   0  0  0  0  0  0  0  0  0  0  0  0
   10.1420  -14.8381   24.8561 O   0  0  0  0  0  0  0  0  0  0  0  0
    9.4432  -16.3494   26.3892 O   0  0  0  0  0  0  0  0  0  0  0  0
  2  1  1  0
  3  7  1  0
  3  2  1  0
  4  3  2  0
  6  5  1  1
  6  8  1  0
  6  7  1  0
  8  9  2  0
 10 11  1  0
 11 13  1  0
 11 12  2  0
 13 14  1  0
 15 14  1  1
 16 15  1  0
 16  8  1  0
 17 15  1  0
 17 18  1  0
 19 17  2  0
M  END
$$$$
