GAQ.pdb
     RDKit          3D

 19 18  0  0  1  0  0  0  0  0999 V2000
    8.4947  -14.0966   13.9525 N   0  0  0  0  0  0  0  0  0  0  0  0
    7.8433  -14.6652   15.0875 C   0  0  0  0  0  0  0  0  0  0  0  0
    8.5378  -14.2531   16.3563 C   0  0  0  0  0  0  0  0  0  0  0  0
    9.7673  -14.0187   16.3971 O   0  0  0  0  0  0  0  0  0  0  0  0
    7.4610  -13.4475   19.9168 C   0  0  0  0  0  0  0  0  0  0  0  0
    8.4307  -13.7202   18.8165 C   0  0  2  0  0  0  0  0  0  0  0  0
    7.8169  -14.1119   17.5741 N   0  0  0  0  0  0  0  0  0  0  0  0
    9.5023  -14.6768   19.2248 C   0  0  0  0  0  0  0  0  0  0  0  0
    9.3850  -15.9145   18.9763 O   0  0  0  0  0  0  0  0  0  0  0  0
   15.2262  -15.7072   19.5922 N   0  0  0  0  0  0  0  0  0  0  0  0
   14.6143  -14.8496   18.6411 C   0  0  0  0  0  0  0  0  0  0  0  0
   15.1369  -14.7553   17.5072 O   0  0  0  0  0  0  0  0  0  0  0  0
   13.3882  -14.0940   19.0019 C   0  0  0  0  0  0  0  0  0  0  0  0
   12.9891  -14.4943   20.3825 C   0  0  0  0  0  0  0  0  0  0  0  0
   11.6477  -15.1878   20.4595 C   0  0  2  0  0  0  0  0  0  0  0  0
   10.6731  -14.2350   19.8965 N   0  0  0  0  0  0  0  0  0  0  0  0
   11.2633  -15.5820   21.8214 C   0  0  0  0  0  0  0  0  0  0  0  0
   11.8974  -16.6114   22.4833 O   0  0  0  0  0  0  0  0  0  0  0  0
   10.3359  -14.9749   22.4075 O   0  0  0  0  0  0  0  0  0  0  0  0
  2  1  1  0
  3  7  1  0
  3  2  1  0
  4  3  2  0
  6  5  1  1
  6  8  1  0
  6  7  1  0
  8  9  2  0
 10 11  1  0
 11 13  1  0
 11 12  2  0
 13 14  1  0
 15 14  1  1
 16 15  1  0
 16  8  1  0
 17 15  1  0
 17 18  1  0
 19 17  2  0
M  END
$$$$
