YDW.pdb
     RDKit          3D

 35 37  0  0  1  0  0  0  0  0999 V2000
   25.8241  -18.6292  -21.4204 O   0  0  0  0  0  0  0  0  0  0  0  0
   25.4468  -18.5890  -20.0635 C   0  0  0  0  0  0  0  0  0  0  0  0
   24.6039  -17.6059  -19.5872 C   0  0  0  0  0  0  0  0  0  0  0  0
   24.2026  -17.5177  -18.2735 C   0  0  0  0  0  0  0  0  0  0  0  0
   24.6798  -18.4754  -17.3957 C   0  0  0  0  0  0  0  0  0  0  0  0
   24.2519  -18.3844  -15.9849 C   0  0  0  0  0  0  0  0  0  0  0  0
   23.2710  -19.4777  -15.6164 C   0  0  2  0  0  0  0  0  0  0  0  0
   22.0620  -19.3424  -16.3955 N   0  0  0  0  0  0  0  0  0  0  0  0
   23.0019  -19.3440  -14.1569 C   0  0  0  0  0  0  0  0  0  0  0  0
   22.7807  -18.2304  -13.6166 O   0  0  0  0  0  0  0  0  0  0  0  0
   25.5310  -19.4848  -17.8299 C   0  0  0  0  0  0  0  0  0  0  0  0
   25.9041  -19.5273  -19.1643 C   0  0  0  0  0  0  0  0  0  0  0  0
   22.9965  -20.5047  -13.3595 N   0  0  0  0  0  0  0  0  0  0  0  0
   22.7623  -20.4521  -11.9165 C   0  0  1  0  0  0  0  0  0  0  0  0
   21.5238  -21.2555  -11.6282 C   0  0  0  0  0  0  0  0  0  0  0  0
   20.3624  -20.3628  -11.3955 C   0  0  0  0  0  0  0  0  0  0  0  0
   20.5404  -19.2135  -10.8994 O   0  0  0  0  0  0  0  0  0  0  0  0
   23.9572  -21.0135  -11.2340 C   0  0  0  0  0  0  0  0  0  0  0  0
   24.3375  -22.1705  -11.4247 O   0  0  0  0  0  0  0  0  0  0  0  0
   19.0719  -20.7576  -11.7101 O   0  0  0  0  0  0  0  0  0  0  0  0
   24.6679  -20.1750  -10.3403 N   0  0  0  0  0  0  0  0  0  0  0  0
   25.7076  -20.7540   -9.5190 C   0  0  1  0  0  0  0  0  0  0  0  0
   26.5348  -19.5677   -9.0105 C   0  0  0  0  0  0  0  0  0  0  0  0
   27.6201  -20.1107   -8.1660 C   0  0  0  0  0  0  0  0  0  0  0  0
   28.5799  -21.0483   -8.5553 C   0  0  0  0  0  0  0  0  0  0  0  0
   29.3964  -21.3056   -7.5230 N   0  0  0  0  0  0  0  0  0  0  0  0
   29.0280  -20.5786   -6.4466 C   0  0  0  0  0  0  0  0  0  0  0  0
   29.5521  -20.4990   -5.1640 C   0  0  0  0  0  0  0  0  0  0  0  0
   28.9323  -19.6446   -4.2838 C   0  0  0  0  0  0  0  0  0  0  0  0
   27.8213  -18.8908   -4.6710 C   0  0  0  0  0  0  0  0  0  0  0  0
   27.3217  -18.9837   -5.9357 C   0  0  0  0  0  0  0  0  0  0  0  0
   27.9206  -19.8334   -6.8473 C   0  0  0  0  0  0  0  0  0  0  0  0
   25.0859  -21.4466   -8.3853 C   0  0  0  0  0  0  0  0  0  0  0  0
   25.6697  -22.4338   -7.8635 O   0  0  0  0  0  0  0  0  0  0  0  0
   23.8723  -21.0306   -7.8855 O   0  0  0  0  0  0  0  0  0  0  0  0
  2  1  1  0
  3  2  2  0
  4  3  1  0
  5 11  1  0
  5  4  2  0
  6  5  1  0
  7  6  1  0
  7  8  1  6
  9  7  1  0
  9 10  2  0
 11 12  2  0
 12  2  1  0
 13  9  1  0
 14 15  1  6
 14 13  1  0
 16 15  1  0
 17 16  2  0
 18 14  1  0
 19 18  2  0
 20 16  1  0
 21 18  1  0
 22 23  1  1
 22 21  1  0
 23 24  1  0
 24 32  1  0
 25 26  1  0
 25 24  2  0
 26 27  1  0
 27 32  2  0
 27 28  1  0
 28 29  2  0
 29 30  1  0
 31 30  2  0
 32 31  1  0
 33 22  1  0
 33 35  1  0
 34 33  2  0
M  END
$$$$
