YDW.pdb
     RDKit          3D

 35 37  0  0  1  0  0  0  0  0999 V2000
   25.4202  -13.3165  -20.9269 O   0  0  0  0  0  0  0  0  0  0  0  0
   24.7796  -14.3584  -20.2274 C   0  0  0  0  0  0  0  0  0  0  0  0
   25.0093  -15.6800  -20.5505 C   0  0  0  0  0  0  0  0  0  0  0  0
   24.4121  -16.7372  -19.9022 C   0  0  0  0  0  0  0  0  0  0  0  0
   23.5362  -16.4407  -18.8724 C   0  0  0  0  0  0  0  0  0  0  0  0
   22.8929  -17.5723  -18.1741 C   0  0  0  0  0  0  0  0  0  0  0  0
   23.7637  -18.1258  -17.0658 C   0  0  2  0  0  0  0  0  0  0  0  0
   24.9486  -18.7356  -17.6238 N   0  0  0  0  0  0  0  0  0  0  0  0
   22.9368  -19.1148  -16.3185 C   0  0  0  0  0  0  0  0  0  0  0  0
   23.0821  -20.3552  -16.4652 O   0  0  0  0  0  0  0  0  0  0  0  0
   23.2738  -15.1244  -18.5115 C   0  0  0  0  0  0  0  0  0  0  0  0
   23.9025  -14.0970  -19.1976 C   0  0  0  0  0  0  0  0  0  0  0  0
   21.9613  -18.6416  -15.4198 N   0  0  0  0  0  0  0  0  0  0  0  0
   21.0875  -19.5492  -14.6765 C   0  0  1  0  0  0  0  0  0  0  0  0
   21.6635  -19.7042  -13.2957 C   0  0  0  0  0  0  0  0  0  0  0  0
   20.8818  -20.6892  -12.5092 C   0  0  0  0  0  0  0  0  0  0  0  0
   19.9760  -21.3685  -13.0720 O   0  0  0  0  0  0  0  0  0  0  0  0
   19.7254  -18.9557  -14.6443 C   0  0  0  0  0  0  0  0  0  0  0  0
   19.4755  -17.9220  -14.0207 O   0  0  0  0  0  0  0  0  0  0  0  0
   21.1189  -20.8883  -11.1586 O   0  0  0  0  0  0  0  0  0  0  0  0
   18.6959  -19.6143  -15.3607 N   0  0  0  0  0  0  0  0  0  0  0  0
   17.3810  -19.0142  -15.4012 C   0  0  1  0  0  0  0  0  0  0  0  0
   17.0713  -18.8084  -16.8885 C   0  0  0  0  0  0  0  0  0  0  0  0
   17.2972  -20.0991  -17.5734 C   0  0  0  0  0  0  0  0  0  0  0  0
   16.7078  -21.3226  -17.2462 C   0  0  0  0  0  0  0  0  0  0  0  0
   17.1557  -22.2711  -18.0818 N   0  0  0  0  0  0  0  0  0  0  0  0
   18.0275  -21.7387  -18.9648 C   0  0  0  0  0  0  0  0  0  0  0  0
   18.7471  -22.3060  -20.0071 C   0  0  0  0  0  0  0  0  0  0  0  0
   19.5657  -21.4733  -20.7319 C   0  0  0  0  0  0  0  0  0  0  0  0
   19.6644  -20.1134  -20.4264 C   0  0  0  0  0  0  0  0  0  0  0  0
   18.9494  -19.5757  -19.3982 C   0  0  0  0  0  0  0  0  0  0  0  0
   18.1158  -20.3844  -18.6479 C   0  0  0  0  0  0  0  0  0  0  0  0
   16.4139  -19.9508  -14.8188 C   0  0  0  0  0  0  0  0  0  0  0  0
   16.7831  -21.1159  -14.5127 O   0  0  0  0  0  0  0  0  0  0  0  0
   15.1080  -19.5712  -14.6036 O   0  0  0  0  0  0  0  0  0  0  0  0
  2  1  1  0
  3  2  2  0
  4  3  1  0
  5 11  1  0
  5  4  2  0
  6  5  1  0
  7  6  1  0
  7  8  1  6
  9  7  1  0
  9 10  2  0
 11 12  2  0
 12  2  1  0
 13  9  1  0
 14 15  1  1
 14 13  1  0
 16 15  1  0
 17 16  2  0
 18 14  1  0
 19 18  2  0
 20 16  1  0
 21 18  1  0
 22 23  1  6
 22 21  1  0
 23 24  1  0
 24 32  1  0
 25 26  1  0
 25 24  2  0
 26 27  1  0
 27 32  2  0
 27 28  1  0
 28 29  2  0
 29 30  1  0
 31 30  2  0
 32 31  1  0
 33 22  1  0
 33 35  1  0
 34 33  2  0
M  END
$$$$
