YDW.pdb
     RDKit          3D

 35 37  0  0  1  0  0  0  0  0999 V2000
   23.1068  -25.8860  -14.7705 O   0  0  0  0  0  0  0  0  0  0  0  0
   23.5830  -24.5617  -14.7024 C   0  0  0  0  0  0  0  0  0  0  0  0
   22.7116  -23.4937  -14.6386 C   0  0  0  0  0  0  0  0  0  0  0  0
   23.1198  -22.1809  -14.5708 C   0  0  0  0  0  0  0  0  0  0  0  0
   24.4820  -21.9365  -14.5672 C   0  0  0  0  0  0  0  0  0  0  0  0
   24.9245  -20.5290  -14.4946 C   0  0  0  0  0  0  0  0  0  0  0  0
   25.2115  -19.9517  -15.8648 C   0  0  2  0  0  0  0  0  0  0  0  0
   26.2745  -20.6934  -16.5027 N   0  0  0  0  0  0  0  0  0  0  0  0
   25.5827  -18.5227  -15.6634 C   0  0  0  0  0  0  0  0  0  0  0  0
   26.7684  -18.1634  -15.4482 O   0  0  0  0  0  0  0  0  0  0  0  0
   25.3976  -22.9804  -14.6298 C   0  0  0  0  0  0  0  0  0  0  0  0
   24.9325  -24.2846  -14.6968 C   0  0  0  0  0  0  0  0  0  0  0  0
   24.5702  -17.5454  -15.7157 N   0  0  0  0  0  0  0  0  0  0  0  0
   24.8728  -16.1252  -15.8928 C   0  0  1  0  0  0  0  0  0  0  0  0
   25.6158  -15.9782  -17.1924 C   0  0  0  0  0  0  0  0  0  0  0  0
   25.9570  -14.5568  -17.4431 C   0  0  0  0  0  0  0  0  0  0  0  0
   26.7444  -13.9504  -16.6615 O   0  0  0  0  0  0  0  0  0  0  0  0
   23.5887  -15.3771  -15.9019 C   0  0  0  0  0  0  0  0  0  0  0  0
   22.9105  -15.2519  -16.9238 O   0  0  0  0  0  0  0  0  0  0  0  0
   25.4306  -13.8660  -18.5229 O   0  0  0  0  0  0  0  0  0  0  0  0
   23.1478  -14.7979  -14.6866 N   0  0  0  0  0  0  0  0  0  0  0  0
   22.9838  -13.3630  -14.6175 C   0  0  1  0  0  0  0  0  0  0  0  0
   24.3888  -12.8026  -14.3678 C   0  0  0  0  0  0  0  0  0  0  0  0
   24.3830  -11.3838  -14.7835 C   0  0  0  0  0  0  0  0  0  0  0  0
   23.3449  -10.4695  -14.5881 C   0  0  0  0  0  0  0  0  0  0  0  0
   23.6945   -9.2812  -15.1022 N   0  0  0  0  0  0  0  0  0  0  0  0
   24.9309   -9.3530  -15.6399 C   0  0  0  0  0  0  0  0  0  0  0  0
   25.7151   -8.4035  -16.2798 C   0  0  0  0  0  0  0  0  0  0  0  0
   26.9538   -8.8046  -16.7199 C   0  0  0  0  0  0  0  0  0  0  0  0
   27.3983  -10.1153  -16.5277 C   0  0  0  0  0  0  0  0  0  0  0  0
   26.6125  -11.0330  -15.8969 C   0  0  0  0  0  0  0  0  0  0  0  0
   25.3604  -10.6639  -15.4411 C   0  0  0  0  0  0  0  0  0  0  0  0
   22.4802  -12.8804  -15.9078 C   0  0  0  0  0  0  0  0  0  0  0  0
   23.1112  -13.1538  -16.9636 O   0  0  0  0  0  0  0  0  0  0  0  0
   21.3266  -12.1320  -15.9781 O   0  0  0  0  0  0  0  0  0  0  0  0
  2  1  1  0
  3  2  2  0
  4  3  1  0
  5 11  1  0
  5  4  2  0
  6  5  1  0
  7  6  1  0
  7  8  1  1
  9  7  1  0
  9 10  2  0
 11 12  2  0
 12  2  1  0
 13  9  1  0
 14 15  1  6
 14 13  1  0
 16 15  1  0
 17 16  2  0
 18 14  1  0
 19 18  2  0
 20 16  1  0
 21 18  1  0
 22 23  1  6
 22 21  1  0
 23 24  1  0
 24 32  1  0
 25 26  1  0
 25 24  2  0
 26 27  1  0
 27 32  2  0
 27 28  1  0
 28 29  2  0
 29 30  1  0
 31 30  2  0
 32 31  1  0
 33 22  1  0
 33 35  1  0
 34 33  2  0
M  END
$$$$
