YDW.pdb
     RDKit          3D

 35 37  0  0  1  0  0  0  0  0999 V2000
   27.1549  -12.1967  -17.4129 O   0  0  0  0  0  0  0  0  0  0  0  0
   26.6283  -13.4073  -16.9209 C   0  0  0  0  0  0  0  0  0  0  0  0
   25.5388  -14.0060  -17.5199 C   0  0  0  0  0  0  0  0  0  0  0  0
   24.9830  -15.1869  -17.0826 C   0  0  0  0  0  0  0  0  0  0  0  0
   25.5605  -15.7937  -15.9810 C   0  0  0  0  0  0  0  0  0  0  0  0
   24.9670  -17.0611  -15.5082 C   0  0  0  0  0  0  0  0  0  0  0  0
   25.5440  -18.2624  -16.2274 C   0  0  2  0  0  0  0  0  0  0  0  0
   25.3290  -18.1387  -17.6506 N   0  0  0  0  0  0  0  0  0  0  0  0
   24.8650  -19.4668  -15.6718 C   0  0  0  0  0  0  0  0  0  0  0  0
   23.9813  -20.0916  -16.3119 O   0  0  0  0  0  0  0  0  0  0  0  0
   26.6592  -15.2278  -15.3449 C   0  0  0  0  0  0  0  0  0  0  0  0
   27.1799  -14.0367  -15.8265 C   0  0  0  0  0  0  0  0  0  0  0  0
   25.2267  -19.9170  -14.3874 N   0  0  0  0  0  0  0  0  0  0  0  0
   25.3867  -21.3384  -14.0814 C   0  0  1  0  0  0  0  0  0  0  0  0
   26.4624  -21.8785  -14.9835 C   0  0  0  0  0  0  0  0  0  0  0  0
   26.1520  -23.2692  -15.3948 C   0  0  0  0  0  0  0  0  0  0  0  0
   24.9503  -23.6217  -15.5688 O   0  0  0  0  0  0  0  0  0  0  0  0
   25.7537  -21.4634  -12.6466 C   0  0  0  0  0  0  0  0  0  0  0  0
   26.9239  -21.5823  -12.2775 O   0  0  0  0  0  0  0  0  0  0  0  0
   27.1542  -24.2048  -15.5961 O   0  0  0  0  0  0  0  0  0  0  0  0
   24.7100  -21.4420  -11.6889 N   0  0  0  0  0  0  0  0  0  0  0  0
   25.0508  -21.3170  -10.2893 C   0  0  1  0  0  0  0  0  0  0  0  0
   25.7274  -19.9480  -10.1541 C   0  0  0  0  0  0  0  0  0  0  0  0
   27.1189  -20.1805   -9.7116 C   0  0  0  0  0  0  0  0  0  0  0  0
   28.1469  -20.7381  -10.4757 C   0  0  0  0  0  0  0  0  0  0  0  0
   29.2669  -20.7982   -9.7404 N   0  0  0  0  0  0  0  0  0  0  0  0
   29.0391  -20.3025   -8.5053 C   0  0  0  0  0  0  0  0  0  0  0  0
   29.8698  -20.1535   -7.4035 C   0  0  0  0  0  0  0  0  0  0  0  0
   29.3190  -19.6026   -6.2713 C   0  0  0  0  0  0  0  0  0  0  0  0
   27.9781  -19.2113   -6.2381 C   0  0  0  0  0  0  0  0  0  0  0  0
   27.1788  -19.3664   -7.3311 C   0  0  0  0  0  0  0  0  0  0  0  0
   27.6999  -19.9172   -8.4872 C   0  0  0  0  0  0  0  0  0  0  0  0
   23.8167  -21.3399   -9.4968 C   0  0  0  0  0  0  0  0  0  0  0  0
   22.7158  -21.0810  -10.0522 O   0  0  0  0  0  0  0  0  0  0  0  0
   23.8480  -21.6407   -8.1536 O   0  0  0  0  0  0  0  0  0  0  0  0
  2  1  1  0
  3  2  2  0
  4  3  1  0
  5 11  1  0
  5  4  2  0
  6  5  1  0
  7  6  1  0
  7  8  1  6
  9  7  1  0
  9 10  2  0
 11 12  2  0
 12  2  1  0
 13  9  1  0
 14 15  1  6
 14 13  1  0
 16 15  1  0
 17 16  2  0
 18 14  1  0
 19 18  2  0
 20 16  1  0
 21 18  1  0
 22 23  1  6
 22 21  1  0
 23 24  1  0
 24 32  1  0
 25 26  1  0
 25 24  2  0
 26 27  1  0
 27 32  2  0
 27 28  1  0
 28 29  2  0
 29 30  1  0
 31 30  2  0
 32 31  1  0
 33 22  1  0
 33 35  1  0
 34 33  2  0
M  END
$$$$
