YDW.pdb
     RDKit          3D

 35 37  0  0  1  0  0  0  0  0999 V2000
   29.1000  -28.8849  -18.2062 O   0  0  0  0  0  0  0  0  0  0  0  0
   29.1070  -27.5992  -17.6302 C   0  0  0  0  0  0  0  0  0  0  0  0
   27.9756  -27.0782  -17.0365 C   0  0  0  0  0  0  0  0  0  0  0  0
   27.9249  -25.8297  -16.4590 C   0  0  0  0  0  0  0  0  0  0  0  0
   29.0805  -25.0687  -16.4838 C   0  0  0  0  0  0  0  0  0  0  0  0
   29.0304  -23.7281  -15.8653 C   0  0  0  0  0  0  0  0  0  0  0  0
   28.2424  -22.7439  -16.7039 C   0  0  2  0  0  0  0  0  0  0  0  0
   29.0539  -22.2639  -17.7985 N   0  0  0  0  0  0  0  0  0  0  0  0
   27.8308  -21.6351  -15.7976 C   0  0  0  0  0  0  0  0  0  0  0  0
   28.5470  -20.6174  -15.6175 O   0  0  0  0  0  0  0  0  0  0  0  0
   30.2443  -25.5516  -17.0705 C   0  0  0  0  0  0  0  0  0  0  0  0
   30.2408  -26.8164  -17.6381 C   0  0  0  0  0  0  0  0  0  0  0  0
   26.5993  -21.7336  -15.1217 N   0  0  0  0  0  0  0  0  0  0  0  0
   26.1723  -20.7363  -14.1405 C   0  0  1  0  0  0  0  0  0  0  0  0
   24.8741  -20.1504  -14.6244 C   0  0  0  0  0  0  0  0  0  0  0  0
   25.0653  -19.4488  -15.9171 C   0  0  0  0  0  0  0  0  0  0  0  0
   25.7546  -18.3898  -15.9633 O   0  0  0  0  0  0  0  0  0  0  0  0
   26.0171  -21.4165  -12.8283 C   0  0  0  0  0  0  0  0  0  0  0  0
   26.3977  -22.5740  -12.6411 O   0  0  0  0  0  0  0  0  0  0  0  0
   24.5029  -19.9267  -17.0898 O   0  0  0  0  0  0  0  0  0  0  0  0
   25.4105  -20.6933  -11.7719 N   0  0  0  0  0  0  0  0  0  0  0  0
   25.2375  -21.3428  -10.4918 C   0  0  1  0  0  0  0  0  0  0  0  0
   26.6539  -21.5425   -9.9400 C   0  0  0  0  0  0  0  0  0  0  0  0
   26.8962  -20.4810   -8.9399 C   0  0  0  0  0  0  0  0  0  0  0  0
   26.3673  -19.1882   -8.9621 C   0  0  0  0  0  0  0  0  0  0  0  0
   26.8121  -18.5060   -7.8966 N   0  0  0  0  0  0  0  0  0  0  0  0
   27.6234  -19.2861   -7.1508 C   0  0  0  0  0  0  0  0  0  0  0  0
   28.3160  -19.0374   -5.9741 C   0  0  0  0  0  0  0  0  0  0  0  0
   29.0703  -20.0647   -5.4598 C   0  0  0  0  0  0  0  0  0  0  0  0
   29.1325  -21.3050   -6.1003 C   0  0  0  0  0  0  0  0  0  0  0  0
   28.4448  -21.5289   -7.2555 C   0  0  0  0  0  0  0  0  0  0  0  0
   27.6759  -20.5176   -7.8011 C   0  0  0  0  0  0  0  0  0  0  0  0
   24.4819  -20.4510   -9.6056 C   0  0  0  0  0  0  0  0  0  0  0  0
   24.4130  -19.2215   -9.8720 O   0  0  0  0  0  0  0  0  0  0  0  0
   23.8480  -20.9422   -8.4864 O   0  0  0  0  0  0  0  0  0  0  0  0
  2  1  1  0
  3  2  2  0
  4  3  1  0
  5 11  1  0
  5  4  2  0
  6  5  1  0
  7  6  1  0
  7  8  1  6
  9  7  1  0
  9 10  2  0
 11 12  2  0
 12  2  1  0
 13  9  1  0
 14 15  1  6
 14 13  1  0
 16 15  1  0
 17 16  2  0
 18 14  1  0
 19 18  2  0
 20 16  1  0
 21 18  1  0
 22 23  1  1
 22 21  1  0
 23 24  1  0
 24 32  1  0
 25 26  1  0
 25 24  2  0
 26 27  1  0
 27 32  2  0
 27 28  1  0
 28 29  2  0
 29 30  1  0
 31 30  2  0
 32 31  1  0
 33 22  1  0
 33 35  1  0
 34 33  2  0
M  END
$$$$
