YDW.pdb
     RDKit          3D

 35 37  0  0  1  0  0  0  0  0999 V2000
   30.1946  -16.8048  -19.2896 O   0  0  0  0  0  0  0  0  0  0  0  0
   29.2499  -17.4459  -18.4641 C   0  0  0  0  0  0  0  0  0  0  0  0
   29.2327  -17.2314  -17.1011 C   0  0  0  0  0  0  0  0  0  0  0  0
   28.3341  -17.8300  -16.2474 C   0  0  0  0  0  0  0  0  0  0  0  0
   27.4037  -18.6910  -16.8028 C   0  0  0  0  0  0  0  0  0  0  0  0
   26.4375  -19.3357  -15.8902 C   0  0  0  0  0  0  0  0  0  0  0  0
   26.9931  -20.6040  -15.2773 C   0  0  2  0  0  0  0  0  0  0  0  0
   27.2495  -21.5823  -16.3090 N   0  0  0  0  0  0  0  0  0  0  0  0
   25.9812  -21.0908  -14.2978 C   0  0  0  0  0  0  0  0  0  0  0  0
   25.1007  -21.9330  -14.6083 O   0  0  0  0  0  0  0  0  0  0  0  0
   27.3825  -18.9378  -18.1705 C   0  0  0  0  0  0  0  0  0  0  0  0
   28.3106  -18.3085  -18.9856 C   0  0  0  0  0  0  0  0  0  0  0  0
   26.0146  -20.5889  -12.9825 N   0  0  0  0  0  0  0  0  0  0  0  0
   25.0333  -20.9907  -11.9749 C   0  0  1  0  0  0  0  0  0  0  0  0
   25.5387  -20.5232  -10.6375 C   0  0  0  0  0  0  0  0  0  0  0  0
   24.5881  -20.8913   -9.5601 C   0  0  0  0  0  0  0  0  0  0  0  0
   23.5800  -20.1627   -9.3332 O   0  0  0  0  0  0  0  0  0  0  0  0
   23.7310  -20.3653  -12.3235 C   0  0  0  0  0  0  0  0  0  0  0  0
   23.5128  -19.1647  -12.1484 O   0  0  0  0  0  0  0  0  0  0  0  0
   24.7760  -22.0249   -8.7857 O   0  0  0  0  0  0  0  0  0  0  0  0
   22.7219  -21.1932  -12.8741 N   0  0  0  0  0  0  0  0  0  0  0  0
   21.3985  -20.6439  -13.0681 C   0  0  1  0  0  0  0  0  0  0  0  0
   21.5711  -19.5124  -14.0881 C   0  0  0  0  0  0  0  0  0  0  0  0
   21.0591  -20.0008  -15.3863 C   0  0  0  0  0  0  0  0  0  0  0  0
   19.8461  -20.6596  -15.6014 C   0  0  0  0  0  0  0  0  0  0  0  0
   19.7244  -20.9561  -16.9036 N   0  0  0  0  0  0  0  0  0  0  0  0
   20.8088  -20.5239  -17.5820 C   0  0  0  0  0  0  0  0  0  0  0  0
   21.1444  -20.5950  -18.9268 C   0  0  0  0  0  0  0  0  0  0  0  0
   22.3475  -20.0481  -19.3040 C   0  0  0  0  0  0  0  0  0  0  0  0
   23.1924  -19.4473  -18.3672 C   0  0  0  0  0  0  0  0  0  0  0  0
   22.8444  -19.3879  -17.0508 C   0  0  0  0  0  0  0  0  0  0  0  0
   21.6411  -19.9281  -16.6361 C   0  0  0  0  0  0  0  0  0  0  0  0
   20.5296  -21.6856  -13.6263 C   0  0  0  0  0  0  0  0  0  0  0  0
   21.0439  -22.7023  -14.1641 O   0  0  0  0  0  0  0  0  0  0  0  0
   19.1593  -21.5646  -13.5694 O   0  0  0  0  0  0  0  0  0  0  0  0
  2  1  1  0
  3  2  2  0
  4  3  1  0
  5 11  1  0
  5  4  2  0
  6  5  1  0
  7  6  1  0
  7  8  1  6
  9  7  1  0
  9 10  2  0
 11 12  2  0
 12  2  1  0
 13  9  1  0
 14 15  1  1
 14 13  1  0
 16 15  1  0
 17 16  2  0
 18 14  1  0
 19 18  2  0
 20 16  1  0
 21 18  1  0
 22 23  1  6
 22 21  1  0
 23 24  1  0
 24 32  1  0
 25 26  1  0
 25 24  2  0
 26 27  1  0
 27 32  2  0
 27 28  1  0
 28 29  2  0
 29 30  1  0
 31 30  2  0
 32 31  1  0
 33 22  1  0
 33 35  1  0
 34 33  2  0
M  END
$$$$
