YDW.pdb
     RDKit          3D

 35 37  0  0  1  0  0  0  0  0999 V2000
   32.7507  -26.1575  -17.6253 O   0  0  0  0  0  0  0  0  0  0  0  0
   31.9606  -25.2194  -16.9320 C   0  0  0  0  0  0  0  0  0  0  0  0
   30.6789  -24.9217  -17.3476 C   0  0  0  0  0  0  0  0  0  0  0  0
   29.8630  -24.0149  -16.7098 C   0  0  0  0  0  0  0  0  0  0  0  0
   30.3715  -23.3758  -15.5925 C   0  0  0  0  0  0  0  0  0  0  0  0
   29.4993  -22.4017  -14.9052 C   0  0  0  0  0  0  0  0  0  0  0  0
   28.4925  -21.7759  -15.8474 C   0  0  2  0  0  0  0  0  0  0  0  0
   29.1723  -20.9742  -16.8384 N   0  0  0  0  0  0  0  0  0  0  0  0
   27.5717  -20.9536  -15.0130 C   0  0  0  0  0  0  0  0  0  0  0  0
   27.4314  -19.7169  -15.1918 O   0  0  0  0  0  0  0  0  0  0  0  0
   31.6570  -23.6434  -15.1368 C   0  0  0  0  0  0  0  0  0  0  0  0
   32.4370  -24.5661  -15.8165 C   0  0  0  0  0  0  0  0  0  0  0  0
   26.8365  -21.5851  -13.9913 N   0  0  0  0  0  0  0  0  0  0  0  0
   25.9907  -20.8310  -13.0662 C   0  0  1  0  0  0  0  0  0  0  0  0
   24.6152  -20.7528  -13.6700 C   0  0  0  0  0  0  0  0  0  0  0  0
   23.6270  -20.2919  -12.6646 C   0  0  0  0  0  0  0  0  0  0  0  0
   23.7146  -19.1260  -12.1834 O   0  0  0  0  0  0  0  0  0  0  0  0
   25.9827  -21.5440  -11.7622 C   0  0  0  0  0  0  0  0  0  0  0  0
   25.7573  -22.7531  -11.6778 O   0  0  0  0  0  0  0  0  0  0  0  0
   22.5979  -21.1131  -12.2324 O   0  0  0  0  0  0  0  0  0  0  0  0
   26.2457  -20.7915  -10.5911 N   0  0  0  0  0  0  0  0  0  0  0  0
   26.2178  -21.4624   -9.3106 C   0  0  1  0  0  0  0  0  0  0  0  0
   27.6451  -21.3546   -8.7615 C   0  0  0  0  0  0  0  0  0  0  0  0
   27.6806  -20.2023   -7.8358 C   0  0  0  0  0  0  0  0  0  0  0  0
   27.1032  -18.9490   -8.0538 C   0  0  0  0  0  0  0  0  0  0  0  0
   27.3456  -18.1568   -6.9991 N   0  0  0  0  0  0  0  0  0  0  0  0
   28.0659  -18.8241   -6.0724 C   0  0  0  0  0  0  0  0  0  0  0  0
   28.5554  -18.4396   -4.8320 C   0  0  0  0  0  0  0  0  0  0  0  0
   29.2667  -19.3752   -4.1195 C   0  0  0  0  0  0  0  0  0  0  0  0
   29.4841  -20.6580   -4.6291 C   0  0  0  0  0  0  0  0  0  0  0  0
   28.9950  -21.0158   -5.8499 C   0  0  0  0  0  0  0  0  0  0  0  0
   28.2748  -20.0996   -6.5939 C   0  0  0  0  0  0  0  0  0  0  0  0
   25.2907  -20.7521   -8.4231 C   0  0  0  0  0  0  0  0  0  0  0  0
   24.7696  -19.6704   -8.8050 O   0  0  0  0  0  0  0  0  0  0  0  0
   24.9843  -21.2537   -7.1780 O   0  0  0  0  0  0  0  0  0  0  0  0
  2  1  1  0
  3  2  2  0
  4  3  1  0
  5 11  1  0
  5  4  2  0
  6  5  1  0
  7  6  1  0
  7  8  1  6
  9  7  1  0
  9 10  2  0
 11 12  2  0
 12  2  1  0
 13  9  1  0
 14 15  1  6
 14 13  1  0
 16 15  1  0
 17 16  2  0
 18 14  1  0
 19 18  2  0
 20 16  1  0
 21 18  1  0
 22 23  1  1
 22 21  1  0
 23 24  1  0
 24 32  1  0
 25 26  1  0
 25 24  2  0
 26 27  1  0
 27 32  2  0
 27 28  1  0
 28 29  2  0
 29 30  1  0
 31 30  2  0
 32 31  1  0
 33 22  1  0
 33 35  1  0
 34 33  2  0
M  END
$$$$
