YDW.pdb
     RDKit          3D

 35 37  0  0  1  0  0  0  0  0999 V2000
   27.4485  -25.0234  -23.1087 O   0  0  0  0  0  0  0  0  0  0  0  0
   27.5126  -24.6436  -21.7534 C   0  0  0  0  0  0  0  0  0  0  0  0
   26.8643  -23.5136  -21.2987 C   0  0  0  0  0  0  0  0  0  0  0  0
   26.8925  -23.0953  -19.9876 C   0  0  0  0  0  0  0  0  0  0  0  0
   27.6149  -23.8615  -19.0896 C   0  0  0  0  0  0  0  0  0  0  0  0
   27.6479  -23.4161  -17.6815 C   0  0  0  0  0  0  0  0  0  0  0  0
   28.5973  -22.2547  -17.4745 C   0  0  2  0  0  0  0  0  0  0  0  0
   29.9650  -22.7059  -17.5876 N   0  0  0  0  0  0  0  0  0  0  0  0
   28.3123  -21.6984  -16.1219 C   0  0  0  0  0  0  0  0  0  0  0  0
   28.9671  -22.0429  -15.1052 O   0  0  0  0  0  0  0  0  0  0  0  0
   28.2841  -25.0079  -19.5015 C   0  0  0  0  0  0  0  0  0  0  0  0
   28.2230  -25.3844  -20.8343 C   0  0  0  0  0  0  0  0  0  0  0  0
   27.2747  -20.7567  -15.9809 N   0  0  0  0  0  0  0  0  0  0  0  0
   27.0216  -20.0665  -14.7163 C   0  0  1  0  0  0  0  0  0  0  0  0
   26.3333  -18.7682  -15.0377 C   0  0  0  0  0  0  0  0  0  0  0  0
   27.3053  -17.7729  -15.5517 C   0  0  0  0  0  0  0  0  0  0  0  0
   28.5437  -17.9467  -15.3647 O   0  0  0  0  0  0  0  0  0  0  0  0
   26.1742  -20.9474  -13.8709 C   0  0  0  0  0  0  0  0  0  0  0  0
   25.2575  -21.6236  -14.3424 O   0  0  0  0  0  0  0  0  0  0  0  0
   26.8896  -16.6439  -16.2393 O   0  0  0  0  0  0  0  0  0  0  0  0
   26.4459  -20.9975  -12.4815 N   0  0  0  0  0  0  0  0  0  0  0  0
   25.6433  -21.8616  -11.6450 C   0  0  1  0  0  0  0  0  0  0  0  0
   26.5381  -22.2237  -10.4540 C   0  0  0  0  0  0  0  0  0  0  0  0
   26.3913  -21.1534   -9.4447 C   0  0  0  0  0  0  0  0  0  0  0  0
   25.3431  -20.2336   -9.3619 C   0  0  0  0  0  0  0  0  0  0  0  0
   25.5523  -19.4113   -8.3233 N   0  0  0  0  0  0  0  0  0  0  0  0
   26.7032  -19.7372   -7.6970 C   0  0  0  0  0  0  0  0  0  0  0  0
   27.3380  -19.1905   -6.5906 C   0  0  0  0  0  0  0  0  0  0  0  0
   28.5227  -19.7659   -6.1977 C   0  0  0  0  0  0  0  0  0  0  0  0
   29.0596  -20.8555   -6.8884 C   0  0  0  0  0  0  0  0  0  0  0  0
   28.4205  -21.3776   -7.9731 C   0  0  0  0  0  0  0  0  0  0  0  0
   27.2264  -20.8234   -8.3960 C   0  0  0  0  0  0  0  0  0  0  0  0
   24.4724  -21.1132  -11.1753 C   0  0  0  0  0  0  0  0  0  0  0  0
   24.4605  -19.8565  -11.2648 O   0  0  0  0  0  0  0  0  0  0  0  0
   23.3873  -21.7683  -10.6378 O   0  0  0  0  0  0  0  0  0  0  0  0
  2  1  1  0
  3  2  2  0
  4  3  1  0
  5 11  1  0
  5  4  2  0
  6  5  1  0
  7  6  1  0
  7  8  1  1
  9  7  1  0
  9 10  2  0
 11 12  2  0
 12  2  1  0
 13  9  1  0
 14 15  1  6
 14 13  1  0
 16 15  1  0
 17 16  2  0
 18 14  1  0
 19 18  2  0
 20 16  1  0
 21 18  1  0
 22 23  1  1
 22 21  1  0
 23 24  1  0
 24 32  1  0
 25 26  1  0
 25 24  2  0
 26 27  1  0
 27 32  2  0
 27 28  1  0
 28 29  2  0
 29 30  1  0
 31 30  2  0
 32 31  1  0
 33 22  1  0
 33 35  1  0
 34 33  2  0
M  END
$$$$
