YDW.pdb
     RDKit          3D

 35 37  0  0  1  0  0  0  0  0999 V2000
   31.5517  -16.6423  -19.9913 O   0  0  0  0  0  0  0  0  0  0  0  0
   30.5458  -16.5408  -19.0101 C   0  0  0  0  0  0  0  0  0  0  0  0
   30.1325  -15.3118  -18.5379 C   0  0  0  0  0  0  0  0  0  0  0  0
   29.1556  -15.1530  -17.5813 C   0  0  0  0  0  0  0  0  0  0  0  0
   28.5659  -16.2986  -17.0762 C   0  0  0  0  0  0  0  0  0  0  0  0
   27.5171  -16.1326  -16.0493 C   0  0  0  0  0  0  0  0  0  0  0  0
   26.1264  -16.2996  -16.6246 C   0  0  2  0  0  0  0  0  0  0  0  0
   25.6294  -15.0283  -17.0975 N   0  0  0  0  0  0  0  0  0  0  0  0
   25.2716  -16.8535  -15.5369 C   0  0  0  0  0  0  0  0  0  0  0  0
   24.8601  -16.1451  -14.5830 O   0  0  0  0  0  0  0  0  0  0  0  0
   28.9495  -17.5581  -17.5216 C   0  0  0  0  0  0  0  0  0  0  0  0
   29.9389  -17.6616  -18.4870 C   0  0  0  0  0  0  0  0  0  0  0  0
   24.9155  -18.2152  -15.5814 N   0  0  0  0  0  0  0  0  0  0  0  0
   24.2533  -18.8798  -14.4591 C   0  0  1  0  0  0  0  0  0  0  0  0
   22.8351  -19.1636  -14.8725 C   0  0  0  0  0  0  0  0  0  0  0  0
   22.1047  -19.8673  -13.7904 C   0  0  0  0  0  0  0  0  0  0  0  0
   22.3740  -19.6154  -12.5810 O   0  0  0  0  0  0  0  0  0  0  0  0
   25.0011  -20.1276  -14.1549 C   0  0  0  0  0  0  0  0  0  0  0  0
   25.2806  -20.9531  -15.0267 O   0  0  0  0  0  0  0  0  0  0  0  0
   21.1235  -20.8048  -14.0708 O   0  0  0  0  0  0  0  0  0  0  0  0
   25.3965  -20.3558  -12.8138 N   0  0  0  0  0  0  0  0  0  0  0  0
   26.1763  -21.5343  -12.5080 C   0  0  1  0  0  0  0  0  0  0  0  0
   27.2658  -21.0631  -11.5378 C   0  0  0  0  0  0  0  0  0  0  0  0
   26.6050  -20.7099  -10.2632 C   0  0  0  0  0  0  0  0  0  0  0  0
   25.2312  -20.5603  -10.0582 C   0  0  0  0  0  0  0  0  0  0  0  0
   25.0046  -20.2309   -8.7780 N   0  0  0  0  0  0  0  0  0  0  0  0
   26.1724  -20.1509   -8.1050 C   0  0  0  0  0  0  0  0  0  0  0  0
   26.4549  -19.8469   -6.7807 C   0  0  0  0  0  0  0  0  0  0  0  0
   27.7764  -19.8502   -6.4032 C   0  0  0  0  0  0  0  0  0  0  0  0
   28.7879  -20.1479   -7.3200 C   0  0  0  0  0  0  0  0  0  0  0  0
   28.4894  -20.4437   -8.6166 C   0  0  0  0  0  0  0  0  0  0  0  0
   27.1703  -20.4496   -9.0308 C   0  0  0  0  0  0  0  0  0  0  0  0
   25.3120  -22.5157  -11.8435 C   0  0  0  0  0  0  0  0  0  0  0  0
   25.7904  -23.6253  -11.4867 O   0  0  0  0  0  0  0  0  0  0  0  0
   23.9845  -22.2380  -11.6058 O   0  0  0  0  0  0  0  0  0  0  0  0
  2  1  1  0
  3  2  2  0
  4  3  1  0
  5 11  1  0
  5  4  2  0
  6  5  1  0
  7  6  1  0
  7  8  1  1
  9  7  1  0
  9 10  2  0
 11 12  2  0
 12  2  1  0
 13  9  1  0
 14 15  1  6
 14 13  1  0
 16 15  1  0
 17 16  2  0
 18 14  1  0
 19 18  2  0
 20 16  1  0
 21 18  1  0
 22 23  1  1
 22 21  1  0
 23 24  1  0
 24 32  1  0
 25 26  1  0
 25 24  2  0
 26 27  1  0
 27 32  2  0
 27 28  1  0
 28 29  2  0
 29 30  1  0
 31 30  2  0
 32 31  1  0
 33 22  1  0
 33 35  1  0
 34 33  2  0
M  END
$$$$
