YDW.pdb
     RDKit          3D

 35 37  0  0  1  0  0  0  0  0999 V2000
   25.6909  -22.9992  -22.7837 O   0  0  0  0  0  0  0  0  0  0  0  0
   26.4007  -22.6103  -21.6304 C   0  0  0  0  0  0  0  0  0  0  0  0
   27.7790  -22.5464  -21.6298 C   0  0  0  0  0  0  0  0  0  0  0  0
   28.5235  -22.1737  -20.5337 C   0  0  0  0  0  0  0  0  0  0  0  0
   27.8363  -21.8486  -19.3772 C   0  0  0  0  0  0  0  0  0  0  0  0
   28.6314  -21.4482  -18.1984 C   0  0  0  0  0  0  0  0  0  0  0  0
   28.8610  -19.9523  -18.1487 C   0  0  2  0  0  0  0  0  0  0  0  0
   30.1339  -19.6257  -18.7488 N   0  0  0  0  0  0  0  0  0  0  0  0
   28.8120  -19.5543  -16.7136 C   0  0  0  0  0  0  0  0  0  0  0  0
   29.6925  -18.8243  -16.1912 O   0  0  0  0  0  0  0  0  0  0  0  0
   26.4481  -21.8982  -19.3305 C   0  0  0  0  0  0  0  0  0  0  0  0
   25.7467  -22.2804  -20.4635 C   0  0  0  0  0  0  0  0  0  0  0  0
   27.7436  -20.0128  -15.9190 N   0  0  0  0  0  0  0  0  0  0  0  0
   27.5020  -19.4953  -14.5723 C   0  0  1  0  0  0  0  0  0  0  0  0
   27.2894  -18.0108  -14.6880 C   0  0  0  0  0  0  0  0  0  0  0  0
   25.9744  -17.7164  -15.3078 C   0  0  0  0  0  0  0  0  0  0  0  0
   25.0106  -17.3292  -14.5869 O   0  0  0  0  0  0  0  0  0  0  0  0
   26.3062  -20.1841  -14.0205 C   0  0  0  0  0  0  0  0  0  0  0  0
   25.2682  -20.3179  -14.6720 O   0  0  0  0  0  0  0  0  0  0  0  0
   25.7699  -17.8557  -16.6712 O   0  0  0  0  0  0  0  0  0  0  0  0
   26.3832  -20.6966  -12.7021 N   0  0  0  0  0  0  0  0  0  0  0  0
   25.3499  -21.5979  -12.2431 C   0  0  1  0  0  0  0  0  0  0  0  0
   25.9532  -22.3328  -11.0405 C   0  0  0  0  0  0  0  0  0  0  0  0
   26.2940  -21.3164  -10.0223 C   0  0  0  0  0  0  0  0  0  0  0  0
   25.4103  -20.4103   -9.4309 C   0  0  0  0  0  0  0  0  0  0  0  0
   26.0780  -19.6403   -8.5593 N   0  0  0  0  0  0  0  0  0  0  0  0
   27.3823  -19.9886   -8.5357 C   0  0  0  0  0  0  0  0  0  0  0  0
   28.4562  -19.4940   -7.8090 C   0  0  0  0  0  0  0  0  0  0  0  0
   29.6815  -20.0793   -8.0210 C   0  0  0  0  0  0  0  0  0  0  0  0
   29.8322  -21.1281   -8.9319 C   0  0  0  0  0  0  0  0  0  0  0  0
   28.7646  -21.5993   -9.6362 C   0  0  0  0  0  0  0  0  0  0  0  0
   27.5171  -21.0337   -9.4478 C   0  0  0  0  0  0  0  0  0  0  0  0
   24.1905  -20.8098  -11.8114 C   0  0  0  0  0  0  0  0  0  0  0  0
   23.1189  -21.3970  -11.5042 O   0  0  0  0  0  0  0  0  0  0  0  0
   24.2601  -19.4367  -11.7386 O   0  0  0  0  0  0  0  0  0  0  0  0
  2  1  1  0
  3  2  2  0
  4  3  1  0
  5 11  1  0
  5  4  2  0
  6  5  1  0
  7  6  1  0
  7  8  1  1
  9  7  1  0
  9 10  2  0
 11 12  2  0
 12  2  1  0
 13  9  1  0
 14 15  1  6
 14 13  1  0
 16 15  1  0
 17 16  2  0
 18 14  1  0
 19 18  2  0
 20 16  1  0
 21 18  1  0
 22 23  1  1
 22 21  1  0
 23 24  1  0
 24 32  1  0
 25 26  1  0
 25 24  2  0
 26 27  1  0
 27 32  2  0
 27 28  1  0
 28 29  2  0
 29 30  1  0
 31 30  2  0
 32 31  1  0
 33 22  1  0
 33 35  1  0
 34 33  2  0
M  END
$$$$
