YDW.pdb
     RDKit          3D

 35 37  0  0  1  0  0  0  0  0999 V2000
   16.1791  -24.5785  -18.0029 O   0  0  0  0  0  0  0  0  0  0  0  0
   17.3955  -23.8907  -18.1831 C   0  0  0  0  0  0  0  0  0  0  0  0
   18.0471  -23.9024  -19.3994 C   0  0  0  0  0  0  0  0  0  0  0  0
   19.2362  -23.2494  -19.6324 C   0  0  0  0  0  0  0  0  0  0  0  0
   19.7951  -22.5477  -18.5786 C   0  0  0  0  0  0  0  0  0  0  0  0
   21.0713  -21.8456  -18.8243 C   0  0  0  0  0  0  0  0  0  0  0  0
   20.8694  -20.3629  -19.0559 C   0  0  2  0  0  0  0  0  0  0  0  0
   20.0950  -20.1494  -20.2567 N   0  0  0  0  0  0  0  0  0  0  0  0
   22.2247  -19.7525  -19.1604 C   0  0  0  0  0  0  0  0  0  0  0  0
   22.5458  -18.9950  -20.1113 O   0  0  0  0  0  0  0  0  0  0  0  0
   19.1750  -22.5074  -17.3354 C   0  0  0  0  0  0  0  0  0  0  0  0
   17.9780  -23.1829  -17.1546 C   0  0  0  0  0  0  0  0  0  0  0  0
   23.1748  -20.0357  -18.1603 N   0  0  0  0  0  0  0  0  0  0  0  0
   24.1729  -19.0527  -17.7394 C   0  0  1  0  0  0  0  0  0  0  0  0
   23.4343  -17.8580  -17.2011 C   0  0  0  0  0  0  0  0  0  0  0  0
   24.3841  -16.7925  -16.7982 C   0  0  0  0  0  0  0  0  0  0  0  0
   25.3779  -16.5236  -17.5322 O   0  0  0  0  0  0  0  0  0  0  0  0
   25.0340  -19.6829  -16.7049 C   0  0  0  0  0  0  0  0  0  0  0  0
   26.2327  -19.4153  -16.5982 O   0  0  0  0  0  0  0  0  0  0  0  0
   24.2111  -16.0747  -15.6256 O   0  0  0  0  0  0  0  0  0  0  0  0
   24.4381  -20.6176  -15.8228 N   0  0  0  0  0  0  0  0  0  0  0  0
   25.1299  -20.9619  -14.6007 C   0  0  1  0  0  0  0  0  0  0  0  0
   25.1167  -19.6863  -13.7504 C   0  0  0  0  0  0  0  0  0  0  0  0
   25.2566  -20.0925  -12.3357 C   0  0  0  0  0  0  0  0  0  0  0  0
   26.4422  -20.4601  -11.6946 C   0  0  0  0  0  0  0  0  0  0  0  0
   26.1804  -20.7703  -10.4164 N   0  0  0  0  0  0  0  0  0  0  0  0
   24.8617  -20.6275  -10.1642 C   0  0  0  0  0  0  0  0  0  0  0  0
   24.1164  -20.8262   -9.0105 C   0  0  0  0  0  0  0  0  0  0  0  0
   22.7650  -20.5878   -9.0865 C   0  0  0  0  0  0  0  0  0  0  0  0
   22.1731  -20.1634  -10.2789 C   0  0  0  0  0  0  0  0  0  0  0  0
   22.9229  -19.9744  -11.4013 C   0  0  0  0  0  0  0  0  0  0  0  0
   24.2856  -20.2048  -11.3607 C   0  0  0  0  0  0  0  0  0  0  0  0
   24.3829  -22.0219  -13.9152 C   0  0  0  0  0  0  0  0  0  0  0  0
   23.1276  -22.0622  -14.0144 O   0  0  0  0  0  0  0  0  0  0  0  0
   25.0380  -22.9724  -13.1648 O   0  0  0  0  0  0  0  0  0  0  0  0
  2  1  1  0
  3  2  2  0
  4  3  1  0
  5 11  1  0
  5  4  2  0
  6  5  1  0
  7  6  1  0
  7  8  1  6
  9  7  1  0
  9 10  2  0
 11 12  2  0
 12  2  1  0
 13  9  1  0
 14 15  1  1
 14 13  1  0
 16 15  1  0
 17 16  2  0
 18 14  1  0
 19 18  2  0
 20 16  1  0
 21 18  1  0
 22 23  1  1
 22 21  1  0
 23 24  1  0
 24 32  1  0
 25 26  1  0
 25 24  2  0
 26 27  1  0
 27 32  2  0
 27 28  1  0
 28 29  2  0
 29 30  1  0
 31 30  2  0
 32 31  1  0
 33 22  1  0
 33 35  1  0
 34 33  2  0
M  END
$$$$
