YDW.pdb
     RDKit          3D

 35 37  0  0  1  0  0  0  0  0999 V2000
   27.6111  -19.6617  -21.3668 O   0  0  0  0  0  0  0  0  0  0  0  0
   27.0804  -19.4530  -20.0785 C   0  0  0  0  0  0  0  0  0  0  0  0
   26.9770  -20.4898  -19.1739 C   0  0  0  0  0  0  0  0  0  0  0  0
   26.4673  -20.3441  -17.9036 C   0  0  0  0  0  0  0  0  0  0  0  0
   26.0397  -19.0821  -17.5294 C   0  0  0  0  0  0  0  0  0  0  0  0
   25.4918  -18.9213  -16.1671 C   0  0  0  0  0  0  0  0  0  0  0  0
   24.1621  -19.6267  -16.0019 C   0  0  2  0  0  0  0  0  0  0  0  0
   23.1742  -19.0330  -16.8729 N   0  0  0  0  0  0  0  0  0  0  0  0
   23.7787  -19.4976  -14.5678 C   0  0  0  0  0  0  0  0  0  0  0  0
   23.6829  -18.3804  -13.9988 O   0  0  0  0  0  0  0  0  0  0  0  0
   26.1243  -18.0074  -18.4066 C   0  0  0  0  0  0  0  0  0  0  0  0
   26.6460  -18.2093  -19.6750 C   0  0  0  0  0  0  0  0  0  0  0  0
   23.5165  -20.6670  -13.8281 N   0  0  0  0  0  0  0  0  0  0  0  0
   23.1835  -20.6246  -12.4044 C   0  0  1  0  0  0  0  0  0  0  0  0
   21.9727  -21.4924  -12.1957 C   0  0  0  0  0  0  0  0  0  0  0  0
   20.7540  -20.8254  -12.7152 C   0  0  0  0  0  0  0  0  0  0  0  0
   20.1939  -21.2624  -13.7611 O   0  0  0  0  0  0  0  0  0  0  0  0
   24.3579  -21.1207  -11.6406 C   0  0  0  0  0  0  0  0  0  0  0  0
   24.8790  -22.2128  -11.8760 O   0  0  0  0  0  0  0  0  0  0  0  0
   20.2055  -19.7234  -12.0791 O   0  0  0  0  0  0  0  0  0  0  0  0
   24.8800  -20.2960  -10.6138 N   0  0  0  0  0  0  0  0  0  0  0  0
   25.9138  -20.8253   -9.7527 C   0  0  1  0  0  0  0  0  0  0  0  0
   26.8927  -19.6667   -9.5295 C   0  0  0  0  0  0  0  0  0  0  0  0
   27.9743  -20.1602   -8.6506 C   0  0  0  0  0  0  0  0  0  0  0  0
   28.9679  -21.0785   -8.9987 C   0  0  0  0  0  0  0  0  0  0  0  0
   29.7689  -21.2901   -7.9441 N   0  0  0  0  0  0  0  0  0  0  0  0
   29.3575  -20.5504   -6.8922 C   0  0  0  0  0  0  0  0  0  0  0  0
   29.8515  -20.4280   -5.6010 C   0  0  0  0  0  0  0  0  0  0  0  0
   29.1894  -19.5725   -4.7533 C   0  0  0  0  0  0  0  0  0  0  0  0
   28.0664  -18.8591   -5.1805 C   0  0  0  0  0  0  0  0  0  0  0  0
   27.5969  -18.9937   -6.4529 C   0  0  0  0  0  0  0  0  0  0  0  0
   28.2386  -19.8458   -7.3325 C   0  0  0  0  0  0  0  0  0  0  0  0
   25.3113  -21.2179   -8.4742 C   0  0  0  0  0  0  0  0  0  0  0  0
   24.3021  -20.5973   -8.0455 O   0  0  0  0  0  0  0  0  0  0  0  0
   25.8363  -22.2561   -7.7378 O   0  0  0  0  0  0  0  0  0  0  0  0
  2  1  1  0
  3  2  2  0
  4  3  1  0
  5 11  1  0
  5  4  2  0
  6  5  1  0
  7  6  1  0
  7  8  1  6
  9  7  1  0
  9 10  2  0
 11 12  2  0
 12  2  1  0
 13  9  1  0
 14 15  1  6
 14 13  1  0
 16 15  1  0
 17 16  2  0
 18 14  1  0
 19 18  2  0
 20 16  1  0
 21 18  1  0
 22 23  1  1
 22 21  1  0
 23 24  1  0
 24 32  1  0
 25 26  1  0
 25 24  2  0
 26 27  1  0
 27 32  2  0
 27 28  1  0
 28 29  2  0
 29 30  1  0
 31 30  2  0
 32 31  1  0
 33 22  1  0
 33 35  1  0
 34 33  2  0
M  END
$$$$
