YDW.pdb
     RDKit          3D

 35 37  0  0  1  0  0  0  0  0999 V2000
   22.9541  -10.2548    7.3495 O   0  0  0  0  0  0  0  0  0  0  0  0
   21.7339  -10.9434    7.2021 C   0  0  0  0  0  0  0  0  0  0  0  0
   21.1545  -11.6024    8.2670 C   0  0  0  0  0  0  0  0  0  0  0  0
   19.9654  -12.2905    8.1808 C   0  0  0  0  0  0  0  0  0  0  0  0
   19.3294  -12.3124    6.9519 C   0  0  0  0  0  0  0  0  0  0  0  0
   18.0531  -13.0498    6.8550 C   0  0  0  0  0  0  0  0  0  0  0  0
   18.1366  -14.4181    7.4982 C   0  0  2  0  0  0  0  0  0  0  0  0
   19.5087  -14.8692    7.5281 N   0  0  0  0  0  0  0  0  0  0  0  0
   17.2763  -15.3289    6.6915 C   0  0  0  0  0  0  0  0  0  0  0  0
   16.0411  -15.1366    6.5559 O   0  0  0  0  0  0  0  0  0  0  0  0
   19.8750  -11.6630    5.8508 C   0  0  0  0  0  0  0  0  0  0  0  0
   21.0755  -10.9844    5.9925 C   0  0  0  0  0  0  0  0  0  0  0  0
   17.8690  -16.4407    6.0624 N   0  0  0  0  0  0  0  0  0  0  0  0
   17.1073  -17.3341    5.1897 C   0  0  1  0  0  0  0  0  0  0  0  0
   17.5648  -17.0880    3.7781 C   0  0  0  0  0  0  0  0  0  0  0  0
   16.9430  -15.8569    3.2327 C   0  0  0  0  0  0  0  0  0  0  0  0
   16.1239  -15.1996    3.9367 O   0  0  0  0  0  0  0  0  0  0  0  0
   17.3680  -18.7325    5.6199 C   0  0  0  0  0  0  0  0  0  0  0  0
   18.2738  -19.0185    6.4056 O   0  0  0  0  0  0  0  0  0  0  0  0
   17.2379  -15.4012    1.9577 O   0  0  0  0  0  0  0  0  0  0  0  0
   16.5366  -19.7545    5.0990 N   0  0  0  0  0  0  0  0  0  0  0  0
   16.7554  -21.1177    5.5284 C   0  0  1  0  0  0  0  0  0  0  0  0
   18.2755  -21.2653    5.6617 C   0  0  0  0  0  0  0  0  0  0  0  0
   18.5601  -22.6828    5.9708 C   0  0  0  0  0  0  0  0  0  0  0  0
   17.9919  -23.7953    5.3454 C   0  0  0  0  0  0  0  0  0  0  0  0
   18.4853  -24.9154    5.8935 N   0  0  0  0  0  0  0  0  0  0  0  0
   19.3674  -24.6066    6.8679 C   0  0  0  0  0  0  0  0  0  0  0  0
   20.1275  -25.4049    7.7110 C   0  0  0  0  0  0  0  0  0  0  0  0
   20.9448  -24.7667    8.6130 C   0  0  0  0  0  0  0  0  0  0  0  0
   21.0026  -23.3719    8.6731 C   0  0  0  0  0  0  0  0  0  0  0  0
   20.2477  -22.6056    7.8361 C   0  0  0  0  0  0  0  0  0  0  0  0
   19.4143  -23.2145    6.9161 C   0  0  0  0  0  0  0  0  0  0  0  0
   16.1224  -21.3099    6.8377 C   0  0  0  0  0  0  0  0  0  0  0  0
   15.8534  -20.3073    7.5518 O   0  0  0  0  0  0  0  0  0  0  0  0
   15.8196  -22.5729    7.2947 O   0  0  0  0  0  0  0  0  0  0  0  0
  2  1  1  0
  3  2  2  0
  4  3  1  0
  5 11  1  0
  5  4  2  0
  6  5  1  0
  7  6  1  0
  7  8  1  6
  9  7  1  0
  9 10  2  0
 11 12  2  0
 12  2  1  0
 13  9  1  0
 14 15  1  6
 14 13  1  0
 16 15  1  0
 17 16  2  0
 18 14  1  0
 19 18  2  0
 20 16  1  0
 21 18  1  0
 22 23  1  1
 22 21  1  0
 23 24  1  0
 24 32  1  0
 25 26  1  0
 25 24  2  0
 26 27  1  0
 27 32  2  0
 27 28  1  0
 28 29  2  0
 29 30  1  0
 31 30  2  0
 32 31  1  0
 33 22  1  0
 33 35  1  0
 34 33  2  0
M  END
$$$$
