YDW.pdb
     RDKit          3D

 35 37  0  0  1  0  0  0  0  0999 V2000
   18.3789  -11.8801  -25.5790 O   0  0  0  0  0  0  0  0  0  0  0  0
   17.7808  -12.0046  -24.3094 C   0  0  0  0  0  0  0  0  0  0  0  0
   16.7763  -12.9229  -24.0820 C   0  0  0  0  0  0  0  0  0  0  0  0
   16.1568  -13.0877  -22.8639 C   0  0  0  0  0  0  0  0  0  0  0  0
   16.5764  -12.2803  -21.8211 C   0  0  0  0  0  0  0  0  0  0  0  0
   15.9141  -12.4537  -20.5122 C   0  0  0  0  0  0  0  0  0  0  0  0
   14.9114  -11.3542  -20.2320 C   0  0  2  0  0  0  0  0  0  0  0  0
   14.0394  -11.1764  -21.3699 N   0  0  0  0  0  0  0  0  0  0  0  0
   15.6931  -10.1194  -19.9407 C   0  0  0  0  0  0  0  0  0  0  0  0
   15.7114   -9.1382  -20.7267 O   0  0  0  0  0  0  0  0  0  0  0  0
   17.5848  -11.3412  -22.0028 C   0  0  0  0  0  0  0  0  0  0  0  0
   18.1755  -11.2162  -23.2507 C   0  0  0  0  0  0  0  0  0  0  0  0
   16.4348  -10.0528  -18.7454 N   0  0  0  0  0  0  0  0  0  0  0  0
   17.0904   -8.8204  -18.3083 C   0  0  1  0  0  0  0  0  0  0  0  0
   16.0395   -7.7462  -18.2420 C   0  0  0  0  0  0  0  0  0  0  0  0
   16.6219   -6.4726  -17.7538 C   0  0  0  0  0  0  0  0  0  0  0  0
   17.7481   -6.0896  -18.1823 O   0  0  0  0  0  0  0  0  0  0  0  0
   17.7086   -9.0721  -16.9805 C   0  0  0  0  0  0  0  0  0  0  0  0
   17.1510   -9.7516  -16.1162 O   0  0  0  0  0  0  0  0  0  0  0  0
   15.9586   -5.6809  -16.8300 O   0  0  0  0  0  0  0  0  0  0  0  0
   18.9803   -8.5045  -16.7206 N   0  0  0  0  0  0  0  0  0  0  0  0
   19.6164   -8.7717  -15.4500 C   0  0  1  0  0  0  0  0  0  0  0  0
   21.1232   -8.7148  -15.7272 C   0  0  0  0  0  0  0  0  0  0  0  0
   21.8198   -9.1270  -14.4900 C   0  0  0  0  0  0  0  0  0  0  0  0
   22.4412  -10.3573  -14.2621 C   0  0  0  0  0  0  0  0  0  0  0  0
   22.9604  -10.3724  -13.0257 N   0  0  0  0  0  0  0  0  0  0  0  0
   22.7154   -9.1990  -12.4043 C   0  0  0  0  0  0  0  0  0  0  0  0
   23.0440   -8.7404  -11.1363 C   0  0  0  0  0  0  0  0  0  0  0  0
   22.6382   -7.4704  -10.8026 C   0  0  0  0  0  0  0  0  0  0  0  0
   21.9248   -6.6798  -11.7073 C   0  0  0  0  0  0  0  0  0  0  0  0
   21.6118   -7.1490  -12.9481 C   0  0  0  0  0  0  0  0  0  0  0  0
   22.0043   -8.4223  -13.3172 C   0  0  0  0  0  0  0  0  0  0  0  0
   19.2468   -7.7145  -14.5027 C   0  0  0  0  0  0  0  0  0  0  0  0
   19.2299   -6.5143  -14.8857 O   0  0  0  0  0  0  0  0  0  0  0  0
   18.9188   -8.0189  -13.2006 O   0  0  0  0  0  0  0  0  0  0  0  0
  2  1  1  0
  3  2  2  0
  4  3  1  0
  5 11  1  0
  5  4  2  0
  6  5  1  0
  7  6  1  0
  7  8  1  6
  9  7  1  0
  9 10  2  0
 11 12  2  0
 12  2  1  0
 13  9  1  0
 14 15  1  1
 14 13  1  0
 16 15  1  0
 17 16  2  0
 18 14  1  0
 19 18  2  0
 20 16  1  0
 21 18  1  0
 22 23  1  6
 22 21  1  0
 23 24  1  0
 24 32  1  0
 25 26  1  0
 25 24  2  0
 26 27  1  0
 27 32  2  0
 27 28  1  0
 28 29  2  0
 29 30  1  0
 31 30  2  0
 32 31  1  0
 33 22  1  0
 33 35  1  0
 34 33  2  0
M  END
$$$$
