PQG.pdb
     RDKit          3D

 21 21  0  0  1  0  0  0  0  0999 V2000
    7.9952  -15.2379   20.2135 N   0  0  0  0  0  0  0  0  0  0  0  0
    7.1959  -14.7611   19.0929 C   0  0  0  0  0  0  0  0  0  0  0  0
    6.7442  -13.3778   19.4509 C   0  0  0  0  0  0  0  0  0  0  0  0
    7.5297  -12.9477   20.6476 C   0  0  0  0  0  0  0  0  0  0  0  0
    8.4965  -14.0827   20.8890 C   0  0  1  0  0  0  0  0  0  0  0  0
    8.6364  -14.2781   22.3530 C   0  0  0  0  0  0  0  0  0  0  0  0
    8.9526  -13.2844   23.0568 O   0  0  0  0  0  0  0  0  0  0  0  0
    6.5888  -19.2011   24.4008 N   0  0  0  0  0  0  0  0  0  0  0  0
    5.9395  -18.2443   23.6222 C   0  0  0  0  0  0  0  0  0  0  0  0
    5.0584  -18.5404   22.8086 O   0  0  0  0  0  0  0  0  0  0  0  0
    6.3256  -16.8012   23.7784 C   0  0  0  0  0  0  0  0  0  0  0  0
    7.3505  -16.6356   24.8638 C   0  0  0  0  0  0  0  0  0  0  0  0
    8.4055  -15.6819   24.4585 C   0  0  2  0  0  0  0  0  0  0  0  0
    8.4358  -15.5106   22.9999 N   0  0  0  0  0  0  0  0  0  0  0  0
    9.7198  -16.0580   24.9682 C   0  0  0  0  0  0  0  0  0  0  0  0
    9.9524  -16.2852   26.1729 O   0  0  0  0  0  0  0  0  0  0  0  0
   10.8211  -16.1770   24.0369 N   0  0  0  0  0  0  0  0  0  0  0  0
   12.1248  -16.5267   24.5676 C   0  0  0  0  0  0  0  0  0  0  0  0
   13.1545  -16.5857   23.5228 C   0  0  0  0  0  0  0  0  0  0  0  0
   14.4680  -16.9862   23.7713 O   0  0  0  0  0  0  0  0  0  0  0  0
   12.8416  -16.2627   22.3573 O   0  0  0  0  0  0  0  0  0  0  0  0
  2  1  1  0
  3  4  1  0
  3  2  1  0
  4  5  1  0
  5  1  1  0
  5  6  1  1
  7  6  2  0
  8  9  1  0
  9 11  1  0
 10  9  2  0
 11 12  1  0
 13 12  1  6
 13 14  1  0
 13 15  1  0
 14  6  1  0
 15 17  1  0
 16 15  2  0
 17 18  1  0
 18 19  1  0
 19 21  2  0
 19 20  1  0
M  END
$$$$
