PQG.pdb
     RDKit          3D

 21 21  0  0  1  0  0  0  0  0999 V2000
    8.5107  -13.1615   19.2676 N   0  0  0  0  0  0  0  0  0  0  0  0
    8.1720  -13.7345   17.9718 C   0  0  0  0  0  0  0  0  0  0  0  0
    7.6506  -15.1137   18.2398 C   0  0  0  0  0  0  0  0  0  0  0  0
    7.4123  -15.2223   19.7114 C   0  0  0  0  0  0  0  0  0  0  0  0
    7.7201  -13.8428   20.2438 C   0  0  1  0  0  0  0  0  0  0  0  0
    8.4046  -13.9855   21.5522 C   0  0  0  0  0  0  0  0  0  0  0  0
    9.6234  -13.6812   21.6206 O   0  0  0  0  0  0  0  0  0  0  0  0
    5.7173  -11.2303   26.8251 N   0  0  0  0  0  0  0  0  0  0  0  0
    5.9811  -12.5179   26.3607 C   0  0  0  0  0  0  0  0  0  0  0  0
    5.3550  -13.5058   26.7582 O   0  0  0  0  0  0  0  0  0  0  0  0
    7.0661  -12.7107   25.3401 C   0  0  0  0  0  0  0  0  0  0  0  0
    7.3186  -14.1711   25.0964 C   0  0  0  0  0  0  0  0  0  0  0  0
    8.3596  -14.3661   24.0642 C   0  0  2  0  0  0  0  0  0  0  0  0
    7.7694  -14.4415   22.7212 N   0  0  0  0  0  0  0  0  0  0  0  0
    9.1974  -15.5299   24.3332 C   0  0  0  0  0  0  0  0  0  0  0  0
    9.7861  -15.7193   25.4171 O   0  0  0  0  0  0  0  0  0  0  0  0
    9.3627  -16.5251   23.2957 N   0  0  0  0  0  0  0  0  0  0  0  0
   10.1189  -17.7208   23.6154 C   0  0  0  0  0  0  0  0  0  0  0  0
   10.1894  -18.6547   22.4849 C   0  0  0  0  0  0  0  0  0  0  0  0
    9.4181  -18.5113   21.3308 O   0  0  0  0  0  0  0  0  0  0  0  0
   10.9759  -19.6226   22.5582 O   0  0  0  0  0  0  0  0  0  0  0  0
  2  1  1  0
  3  4  1  0
  3  2  1  0
  4  5  1  0
  5  1  1  0
  5  6  1  1
  7  6  2  0
  8  9  1  0
  9 11  1  0
 10  9  2  0
 11 12  1  0
 13 12  1  1
 13 14  1  0
 13 15  1  0
 14  6  1  0
 15 17  1  0
 16 15  2  0
 17 18  1  0
 18 19  1  0
 19 21  2  0
 19 20  1  0
M  END
$$$$
