PQG.pdb
     RDKit          3D

 21 21  0  0  1  0  0  0  0  0999 V2000
    8.2735  -15.0910   19.7296 N   0  0  0  0  0  0  0  0  0  0  0  0
    7.5035  -14.6466   18.5757 C   0  0  0  0  0  0  0  0  0  0  0  0
    6.7622  -13.4176   19.0068 C   0  0  0  0  0  0  0  0  0  0  0  0
    7.3366  -12.9871   20.3178 C   0  0  0  0  0  0  0  0  0  0  0  0
    8.4781  -13.9461   20.5599 C   0  0  1  0  0  0  0  0  0  0  0  0
    8.5181  -14.2742   22.0062 C   0  0  0  0  0  0  0  0  0  0  0  0
    8.4976  -13.3244   22.8309 O   0  0  0  0  0  0  0  0  0  0  0  0
    6.0443  -19.5012   24.2975 N   0  0  0  0  0  0  0  0  0  0  0  0
    5.7687  -18.4066   23.4793 C   0  0  0  0  0  0  0  0  0  0  0  0
    5.0563  -18.4949   22.4740 O   0  0  0  0  0  0  0  0  0  0  0  0
    6.3594  -17.0719   23.8334 C   0  0  0  0  0  0  0  0  0  0  0  0
    7.8193  -17.2025   24.1614 C   0  0  0  0  0  0  0  0  0  0  0  0
    8.5314  -15.9259   23.9372 C   0  0  2  0  0  0  0  0  0  0  0  0
    8.5776  -15.5863   22.5088 N   0  0  0  0  0  0  0  0  0  0  0  0
    9.8698  -15.9270   24.5179 C   0  0  0  0  0  0  0  0  0  0  0  0
   10.0921  -16.0786   25.7364 O   0  0  0  0  0  0  0  0  0  0  0  0
   11.0091  -15.7432   23.6446 N   0  0  0  0  0  0  0  0  0  0  0  0
   12.3301  -15.7378   24.2434 C   0  0  0  0  0  0  0  0  0  0  0  0
   12.9954  -17.0423   24.1378 C   0  0  0  0  0  0  0  0  0  0  0  0
   14.3008  -17.2679   24.5764 O   0  0  0  0  0  0  0  0  0  0  0  0
   12.3648  -17.9948   23.6322 O   0  0  0  0  0  0  0  0  0  0  0  0
  2  1  1  0
  3  4  1  0
  3  2  1  0
  4  5  1  0
  5  1  1  0
  5  6  1  1
  7  6  2  0
  8  9  1  0
  9 11  1  0
 10  9  2  0
 11 12  1  0
 13 12  1  6
 13 14  1  0
 13 15  1  0
 14  6  1  0
 15 17  1  0
 16 15  2  0
 17 18  1  0
 18 19  1  0
 19 21  2  0
 19 20  1  0
M  END
$$$$
