PQG.pdb
     RDKit          3D

 21 21  0  0  1  0  0  0  0  0999 V2000
    8.6861  -14.7427   19.7684 N   0  0  0  0  0  0  0  0  0  0  0  0
    8.4325  -14.1337   18.4696 C   0  0  0  0  0  0  0  0  0  0  0  0
    7.3765  -13.0929   18.6867 C   0  0  0  0  0  0  0  0  0  0  0  0
    7.2369  -12.9002   20.1623 C   0  0  0  0  0  0  0  0  0  0  0  0
    8.3057  -13.7853   20.7587 C   0  0  1  0  0  0  0  0  0  0  0  0
    7.7669  -14.4064   21.9936 C   0  0  0  0  0  0  0  0  0  0  0  0
    7.2472  -13.6544   22.8580 O   0  0  0  0  0  0  0  0  0  0  0  0
    4.8667  -19.6267   22.6225 N   0  0  0  0  0  0  0  0  0  0  0  0
    4.6478  -18.4495   21.9085 C   0  0  0  0  0  0  0  0  0  0  0  0
    3.8218  -18.3748   20.9932 O   0  0  0  0  0  0  0  0  0  0  0  0
    5.4457  -17.2280   22.2655 C   0  0  0  0  0  0  0  0  0  0  0  0
    6.4916  -17.5532   23.2933 C   0  0  0  0  0  0  0  0  0  0  0  0
    7.3884  -16.4000   23.5231 C   0  0  2  0  0  0  0  0  0  0  0  0
    7.8037  -15.7879   22.2540 N   0  0  0  0  0  0  0  0  0  0  0  0
    8.5466  -16.7508   24.3381 C   0  0  0  0  0  0  0  0  0  0  0  0
    8.4609  -17.2600   25.4741 O   0  0  0  0  0  0  0  0  0  0  0  0
    9.8712  -16.4995   23.8123 N   0  0  0  0  0  0  0  0  0  0  0  0
   11.0088  -16.8489   24.6415 C   0  0  0  0  0  0  0  0  0  0  0  0
   12.2836  -16.4368   24.0411 C   0  0  0  0  0  0  0  0  0  0  0  0
   13.5171  -16.6405   24.6611 O   0  0  0  0  0  0  0  0  0  0  0  0
   12.2645  -15.8781   22.9240 O   0  0  0  0  0  0  0  0  0  0  0  0
  2  1  1  0
  3  4  1  0
  3  2  1  0
  4  5  1  0
  5  1  1  0
  5  6  1  1
  7  6  2  0
  8  9  1  0
  9 11  1  0
 10  9  2  0
 11 12  1  0
 13 12  1  6
 13 14  1  0
 13 15  1  0
 14  6  1  0
 15 17  1  0
 16 15  2  0
 17 18  1  0
 18 19  1  0
 19 21  2  0
 19 20  1  0
M  END
$$$$
