PQG.pdb
     RDKit          3D

 21 21  0  0  1  0  0  0  0  0999 V2000
    7.2297  -15.1853   20.0855 N   0  0  0  0  0  0  0  0  0  0  0  0
    6.2575  -14.3699   19.3700 C   0  0  0  0  0  0  0  0  0  0  0  0
    6.8279  -12.9856   19.3067 C   0  0  0  0  0  0  0  0  0  0  0  0
    8.2599  -13.0735   19.7257 C   0  0  0  0  0  0  0  0  0  0  0  0
    8.5006  -14.5506   19.9301 C   0  0  1  0  0  0  0  0  0  0  0  0
    9.3870  -14.7243   21.1070 C   0  0  0  0  0  0  0  0  0  0  0  0
   10.5513  -14.2513   21.0480 O   0  0  0  0  0  0  0  0  0  0  0  0
    6.0122  -15.8694   26.0060 N   0  0  0  0  0  0  0  0  0  0  0  0
    7.0562  -14.9458   26.0263 C   0  0  0  0  0  0  0  0  0  0  0  0
    7.3450  -14.2957   27.0362 O   0  0  0  0  0  0  0  0  0  0  0  0
    7.8589  -14.7338   24.7746 C   0  0  0  0  0  0  0  0  0  0  0  0
    8.9973  -15.7104   24.6966 C   0  0  0  0  0  0  0  0  0  0  0  0
    9.8272  -15.4656   23.4973 C   0  0  2  0  0  0  0  0  0  0  0  0
    9.0007  -15.3876   22.2854 N   0  0  0  0  0  0  0  0  0  0  0  0
   10.8877  -16.4560   23.3441 C   0  0  0  0  0  0  0  0  0  0  0  0
   10.6900  -17.6202   22.9410 O   0  0  0  0  0  0  0  0  0  0  0  0
   12.2457  -16.0804   23.6742 N   0  0  0  0  0  0  0  0  0  0  0  0
   13.2812  -17.0865   23.5369 C   0  0  0  0  0  0  0  0  0  0  0  0
   14.5977  -16.5928   23.9595 C   0  0  0  0  0  0  0  0  0  0  0  0
   15.7271  -17.4088   24.0365 O   0  0  0  0  0  0  0  0  0  0  0  0
   14.7133  -15.3868   24.2644 O   0  0  0  0  0  0  0  0  0  0  0  0
  2  1  1  0
  3  4  1  0
  3  2  1  0
  4  5  1  0
  5  1  1  0
  5  6  1  1
  7  6  2  0
  8  9  1  0
  9 11  1  0
 10  9  2  0
 11 12  1  0
 13 12  1  1
 13 14  1  0
 13 15  1  0
 14  6  1  0
 15 17  1  0
 16 15  2  0
 17 18  1  0
 18 19  1  0
 19 21  2  0
 19 20  1  0
M  END
$$$$
