PQG.pdb
     RDKit          3D

 21 21  0  0  1  0  0  0  0  0999 V2000
    8.0557  -14.3782   19.0324 N   0  0  0  0  0  0  0  0  0  0  0  0
    7.4692  -13.0866   18.7012 C   0  0  0  0  0  0  0  0  0  0  0  0
    7.2528  -12.3720   20.0005 C   0  0  0  0  0  0  0  0  0  0  0  0
    7.9884  -13.1328   21.0559 C   0  0  0  0  0  0  0  0  0  0  0  0
    8.6985  -14.2309   20.3002 C   0  0  1  0  0  0  0  0  0  0  0  0
    8.6606  -15.4667   21.1203 C   0  0  0  0  0  0  0  0  0  0  0  0
    7.8184  -16.3520   20.8208 O   0  0  0  0  0  0  0  0  0  0  0  0
   11.4976  -20.4475   21.1248 N   0  0  0  0  0  0  0  0  0  0  0  0
   11.8446  -19.9847   22.3932 C   0  0  0  0  0  0  0  0  0  0  0  0
   12.9128  -20.2830   22.9369 O   0  0  0  0  0  0  0  0  0  0  0  0
   10.8843  -19.0911   23.1248 C   0  0  0  0  0  0  0  0  0  0  0  0
   10.8334  -17.7291   22.4935 C   0  0  0  0  0  0  0  0  0  0  0  0
    9.6193  -16.9947   22.9101 C   0  0  2  0  0  0  0  0  0  0  0  0
    9.5122  -15.7057   22.2137 N   0  0  0  0  0  0  0  0  0  0  0  0
    9.5474  -16.8151   24.3562 C   0  0  0  0  0  0  0  0  0  0  0  0
    9.3247  -17.7468   25.1559 O   0  0  0  0  0  0  0  0  0  0  0  0
    9.7430  -15.4905   24.9051 N   0  0  0  0  0  0  0  0  0  0  0  0
    9.4844  -15.2960   26.3190 C   0  0  0  0  0  0  0  0  0  0  0  0
   10.6589  -15.5965   27.1470 C   0  0  0  0  0  0  0  0  0  0  0  0
   10.7003  -15.3611   28.5219 O   0  0  0  0  0  0  0  0  0  0  0  0
   11.6681  -16.0855   26.5966 O   0  0  0  0  0  0  0  0  0  0  0  0
  2  1  1  0
  3  4  1  0
  3  2  1  0
  4  5  1  0
  5  1  1  0
  5  6  1  1
  7  6  2  0
  8  9  1  0
  9 11  1  0
 10  9  2  0
 11 12  1  0
 13 12  1  1
 13 14  1  0
 13 15  1  0
 14  6  1  0
 15 17  1  0
 16 15  2  0
 17 18  1  0
 18 19  1  0
 19 21  2  0
 19 20  1  0
M  END
$$$$
