PQG.pdb
     RDKit          3D

 21 21  0  0  1  0  0  0  0  0999 V2000
    7.3768  -15.2854   20.3796 N   0  0  0  0  0  0  0  0  0  0  0  0
    6.6591  -14.8144   19.2027 C   0  0  0  0  0  0  0  0  0  0  0  0
    7.1244  -13.4118   18.9539 C   0  0  0  0  0  0  0  0  0  0  0  0
    8.3271  -13.1821   19.8110 C   0  0  0  0  0  0  0  0  0  0  0  0
    8.5790  -14.5181   20.4691 C   0  0  1  0  0  0  0  0  0  0  0  0
    9.0154  -14.2790   21.8668 C   0  0  0  0  0  0  0  0  0  0  0  0
   10.1203  -13.7071   22.0538 O   0  0  0  0  0  0  0  0  0  0  0  0
    5.1420  -12.7229   26.3370 N   0  0  0  0  0  0  0  0  0  0  0  0
    6.3533  -12.5951   27.0151 C   0  0  0  0  0  0  0  0  0  0  0  0
    6.4364  -12.0619   28.1263 O   0  0  0  0  0  0  0  0  0  0  0  0
    7.6024  -13.1251   26.3710 C   0  0  0  0  0  0  0  0  0  0  0  0
    7.3046  -13.6938   25.0131 C   0  0  0  0  0  0  0  0  0  0  0  0
    8.5369  -14.1865   24.3607 C   0  0  2  0  0  0  0  0  0  0  0  0
    8.2650  -14.6550   22.9952 N   0  0  0  0  0  0  0  0  0  0  0  0
    9.2054  -15.2197   25.1445 C   0  0  0  0  0  0  0  0  0  0  0  0
    9.4403  -15.1144   26.3655 O   0  0  0  0  0  0  0  0  0  0  0  0
    9.6236  -16.4365   24.4821 N   0  0  0  0  0  0  0  0  0  0  0  0
   10.2803  -17.4536   25.2808 C   0  0  0  0  0  0  0  0  0  0  0  0
   10.6719  -18.6222   24.4831 C   0  0  0  0  0  0  0  0  0  0  0  0
   11.9931  -18.8870   24.1201 O   0  0  0  0  0  0  0  0  0  0  0  0
    9.7824  -19.4166   24.1115 O   0  0  0  0  0  0  0  0  0  0  0  0
  2  1  1  0
  3  4  1  0
  3  2  1  0
  4  5  1  0
  5  1  1  0
  5  6  1  1
  7  6  2  0
  8  9  1  0
  9 11  1  0
 10  9  2  0
 11 12  1  0
 13 12  1  1
 13 14  1  0
 13 15  1  0
 14  6  1  0
 15 17  1  0
 16 15  2  0
 17 18  1  0
 18 19  1  0
 19 21  2  0
 19 20  1  0
M  END
$$$$
