PQG.pdb
     RDKit          3D

 21 21  0  0  1  0  0  0  0  0999 V2000
    7.8125  -15.4189   20.1793 N   0  0  0  0  0  0  0  0  0  0  0  0
    6.9026  -15.0386   19.1072 C   0  0  0  0  0  0  0  0  0  0  0  0
    7.0912  -13.5678   18.8909 C   0  0  0  0  0  0  0  0  0  0  0  0
    8.3218  -13.1616   19.6356 C   0  0  0  0  0  0  0  0  0  0  0  0
    8.8680  -14.4557   20.1910 C   0  0  1  0  0  0  0  0  0  0  0  0
    9.4046  -14.1951   21.5494 C   0  0  0  0  0  0  0  0  0  0  0  0
   10.4223  -13.4630   21.6551 O   0  0  0  0  0  0  0  0  0  0  0  0
    6.0962  -13.3472   26.5130 N   0  0  0  0  0  0  0  0  0  0  0  0
    6.1718  -14.6867   26.1342 C   0  0  0  0  0  0  0  0  0  0  0  0
    5.3881  -15.5404   26.5619 O   0  0  0  0  0  0  0  0  0  0  0  0
    7.2452  -15.1067   25.1712 C   0  0  0  0  0  0  0  0  0  0  0  0
    8.2495  -14.0071   24.9759 C   0  0  0  0  0  0  0  0  0  0  0  0
    9.3426  -14.4381   24.0781 C   0  0  2  0  0  0  0  0  0  0  0  0
    8.8411  -14.7195   22.7264 N   0  0  0  0  0  0  0  0  0  0  0  0
   10.0810  -15.5787   24.6098 C   0  0  0  0  0  0  0  0  0  0  0  0
   10.3512  -15.7211   25.8197 O   0  0  0  0  0  0  0  0  0  0  0  0
   10.5298  -16.6066   23.6953 N   0  0  0  0  0  0  0  0  0  0  0  0
   11.1122  -17.8097   24.2583 C   0  0  0  0  0  0  0  0  0  0  0  0
   11.5042  -18.7757   23.2246 C   0  0  0  0  0  0  0  0  0  0  0  0
   12.8337  -19.0249   22.8817 O   0  0  0  0  0  0  0  0  0  0  0  0
   10.6071  -19.4041   22.6238 O   0  0  0  0  0  0  0  0  0  0  0  0
  2  1  1  0
  3  4  1  0
  3  2  1  0
  4  5  1  0
  5  1  1  0
  5  6  1  1
  7  6  2  0
  8  9  1  0
  9 11  1  0
 10  9  2  0
 11 12  1  0
 13 12  1  1
 13 14  1  0
 13 15  1  0
 14  6  1  0
 15 17  1  0
 16 15  2  0
 17 18  1  0
 18 19  1  0
 19 21  2  0
 19 20  1  0
M  END
$$$$
