PQG.pdb
     RDKit          3D

 21 21  0  0  1  0  0  0  0  0999 V2000
    8.8820  -13.2175   19.6598 N   0  0  0  0  0  0  0  0  0  0  0  0
    8.4429  -13.7394   18.3727 C   0  0  0  0  0  0  0  0  0  0  0  0
    7.5285  -14.8890   18.6694 C   0  0  0  0  0  0  0  0  0  0  0  0
    7.2089  -14.8396   20.1287 C   0  0  0  0  0  0  0  0  0  0  0  0
    7.8869  -13.5818   20.6185 C   0  0  1  0  0  0  0  0  0  0  0  0
    8.4452  -13.8434   21.9679 C   0  0  0  0  0  0  0  0  0  0  0  0
    9.6947  -13.8075   22.1103 O   0  0  0  0  0  0  0  0  0  0  0  0
    5.1628  -13.1589   27.1804 N   0  0  0  0  0  0  0  0  0  0  0  0
    6.0145  -12.1316   26.7772 C   0  0  0  0  0  0  0  0  0  0  0  0
    5.9005  -10.9750   27.1959 O   0  0  0  0  0  0  0  0  0  0  0  0
    7.1102  -12.4427   25.7981 C   0  0  0  0  0  0  0  0  0  0  0  0
    7.1276  -13.9063   25.4613 C   0  0  0  0  0  0  0  0  0  0  0  0
    8.1801  -14.2113   24.4682 C   0  0  2  0  0  0  0  0  0  0  0  0
    7.6579  -14.1294   23.0976 N   0  0  0  0  0  0  0  0  0  0  0  0
    8.8143  -15.5029   24.7098 C   0  0  0  0  0  0  0  0  0  0  0  0
    9.3610  -15.8110   25.7884 O   0  0  0  0  0  0  0  0  0  0  0  0
    8.8164  -16.4880   23.6497 N   0  0  0  0  0  0  0  0  0  0  0  0
    9.5158  -17.7368   23.8842 C   0  0  0  0  0  0  0  0  0  0  0  0
   10.9669  -17.5490   24.0042 C   0  0  0  0  0  0  0  0  0  0  0  0
   11.6677  -17.7770   25.1892 O   0  0  0  0  0  0  0  0  0  0  0  0
   11.6046  -17.1675   23.0000 O   0  0  0  0  0  0  0  0  0  0  0  0
  2  1  1  0
  3  4  1  0
  3  2  1  0
  4  5  1  0
  5  1  1  0
  5  6  1  1
  7  6  2  0
  8  9  1  0
  9 11  1  0
 10  9  2  0
 11 12  1  0
 13 12  1  1
 13 14  1  0
 13 15  1  0
 14  6  1  0
 15 17  1  0
 16 15  2  0
 17 18  1  0
 18 19  1  0
 19 21  2  0
 19 20  1  0
M  END
$$$$
