PQG.pdb
     RDKit          3D

 21 21  0  0  1  0  0  0  0  0999 V2000
    7.8475  -14.9409   18.6550 N   0  0  0  0  0  0  0  0  0  0  0  0
    7.0847  -14.2207   17.6443 C   0  0  0  0  0  0  0  0  0  0  0  0
    7.3574  -12.7637   17.8637 C   0  0  0  0  0  0  0  0  0  0  0  0
    8.5088  -12.6631   18.8114 C   0  0  0  0  0  0  0  0  0  0  0  0
    8.9332  -14.0947   19.0388 C   0  0  1  0  0  0  0  0  0  0  0  0
    9.3186  -14.2504   20.4631 C   0  0  0  0  0  0  0  0  0  0  0  0
   10.4320  -13.7938   20.8299 O   0  0  0  0  0  0  0  0  0  0  0  0
    6.5735  -16.5947   26.6031 N   0  0  0  0  0  0  0  0  0  0  0  0
    6.7691  -15.3586   25.9889 C   0  0  0  0  0  0  0  0  0  0  0  0
    5.9701  -14.4246   26.1123 O   0  0  0  0  0  0  0  0  0  0  0  0
    7.9960  -15.1555   25.1466 C   0  0  0  0  0  0  0  0  0  0  0  0
    7.6470  -15.1455   23.6858 C   0  0  0  0  0  0  0  0  0  0  0  0
    8.8572  -14.9879   22.8506 C   0  0  2  0  0  0  0  0  0  0  0  0
    8.5107  -14.8794   21.4272 N   0  0  0  0  0  0  0  0  0  0  0  0
    9.8280  -16.0541   23.0726 C   0  0  0  0  0  0  0  0  0  0  0  0
    9.7287  -17.1919   22.5700 O   0  0  0  0  0  0  0  0  0  0  0  0
   10.9718  -15.7907   23.9192 N   0  0  0  0  0  0  0  0  0  0  0  0
   12.0269  -16.7849   23.9643 C   0  0  0  0  0  0  0  0  0  0  0  0
   12.0994  -17.4621   25.2649 C   0  0  0  0  0  0  0  0  0  0  0  0
   13.3054  -17.8072   25.8763 O   0  0  0  0  0  0  0  0  0  0  0  0
   11.0331  -17.7429   25.8521 O   0  0  0  0  0  0  0  0  0  0  0  0
  2  1  1  0
  3  4  1  0
  3  2  1  0
  4  5  1  0
  5  1  1  0
  5  6  1  1
  7  6  2  0
  8  9  1  0
  9 11  1  0
 10  9  2  0
 11 12  1  0
 13 12  1  1
 13 14  1  0
 13 15  1  0
 14  6  1  0
 15 17  1  0
 16 15  2  0
 17 18  1  0
 18 19  1  0
 19 21  2  0
 19 20  1  0
M  END
$$$$
