PQG.pdb
     RDKit          3D

 21 21  0  0  1  0  0  0  0  0999 V2000
    7.7867  -15.1332   20.5477 N   0  0  0  0  0  0  0  0  0  0  0  0
    7.0443  -14.6713   19.3826 C   0  0  0  0  0  0  0  0  0  0  0  0
    7.1663  -13.1778   19.3652 C   0  0  0  0  0  0  0  0  0  0  0  0
    8.2254  -12.8053   20.3519 C   0  0  0  0  0  0  0  0  0  0  0  0
    8.7578  -14.1288   20.8479 C   0  0  1  0  0  0  0  0  0  0  0  0
    9.0419  -14.0075   22.2990 C   0  0  0  0  0  0  0  0  0  0  0  0
    9.9043  -13.1685   22.6667 O   0  0  0  0  0  0  0  0  0  0  0  0
    6.6898  -11.2497   26.8135 N   0  0  0  0  0  0  0  0  0  0  0  0
    6.2600  -12.5256   26.4520 C   0  0  0  0  0  0  0  0  0  0  0  0
    5.4396  -13.1617   27.1214 O   0  0  0  0  0  0  0  0  0  0  0  0
    6.8149  -13.1491   25.2033 C   0  0  0  0  0  0  0  0  0  0  0  0
    7.4406  -14.4814   25.5025 C   0  0  0  0  0  0  0  0  0  0  0  0
    8.6844  -14.6716   24.7255 C   0  0  2  0  0  0  0  0  0  0  0  0
    8.4025  -14.7766   23.2877 N   0  0  0  0  0  0  0  0  0  0  0  0
    9.4605  -15.8160   25.1910 C   0  0  0  0  0  0  0  0  0  0  0  0
    9.7110  -16.0353   26.3937 O   0  0  0  0  0  0  0  0  0  0  0  0
    9.9732  -16.7542   24.2158 N   0  0  0  0  0  0  0  0  0  0  0  0
   10.7079  -17.9062   24.7022 C   0  0  0  0  0  0  0  0  0  0  0  0
   11.2967  -18.6931   23.6115 C   0  0  0  0  0  0  0  0  0  0  0  0
   12.0490  -19.8484   23.8275 O   0  0  0  0  0  0  0  0  0  0  0  0
   11.1164  -18.3119   22.4356 O   0  0  0  0  0  0  0  0  0  0  0  0
  2  1  1  0
  3  4  1  0
  3  2  1  0
  4  5  1  0
  5  1  1  0
  5  6  1  1
  7  6  2  0
  8  9  1  0
  9 11  1  0
 10  9  2  0
 11 12  1  0
 13 12  1  1
 13 14  1  0
 13 15  1  0
 14  6  1  0
 15 17  1  0
 16 15  2  0
 17 18  1  0
 18 19  1  0
 19 21  2  0
 19 20  1  0
M  END
$$$$
