SRH.pdb
     RDKit          3D

 28 28  0  0  1  0  0  0  0  0999 V2000
   26.3391  -20.2909  -18.3063 O   0  0  0  0  0  0  0  0  0  0  0  0
   27.3312  -19.8471  -17.4319 C   0  0  0  0  0  0  0  0  0  0  0  0
   27.8400  -21.0554  -16.6748 C   0  0  2  0  0  0  0  0  0  0  0  0
   28.3151  -22.0431  -17.6050 N   0  0  0  0  0  0  0  0  0  0  0  0
   26.8266  -21.6274  -15.7834 C   0  0  0  0  0  0  0  0  0  0  0  0
   26.8897  -22.8285  -15.3892 O   0  0  0  0  0  0  0  0  0  0  0  0
   23.8493  -20.7016   -9.5785 N   0  0  0  0  0  0  0  0  0  0  0  0
   25.0710  -20.8770   -8.8867 C   0  0  0  0  0  0  0  0  0  0  0  0
   25.0848  -20.9763   -7.6030 N   0  0  0  0  0  0  0  0  0  0  0  0
   26.3345  -20.9515   -9.5721 N   0  0  0  0  0  0  0  0  0  0  0  0
   26.4410  -20.5799  -10.9875 C   0  0  0  0  0  0  0  0  0  0  0  0
   25.2029  -21.1188  -11.7425 C   0  0  0  0  0  0  0  0  0  0  0  0
   25.7123  -21.5812  -13.0515 C   0  0  0  0  0  0  0  0  0  0  0  0
   24.8515  -21.2904  -14.2550 C   0  0  2  0  0  0  0  0  0  0  0  0
   25.7469  -20.8290  -15.3449 N   0  0  0  0  0  0  0  0  0  0  0  0
   23.7573  -20.3563  -14.0479 C   0  0  0  0  0  0  0  0  0  0  0  0
   23.9825  -19.1187  -14.2910 O   0  0  0  0  0  0  0  0  0  0  0  0
   25.9743  -20.9907   -7.0819 N   0  0  0  0  0  0  0  0  0  0  0  0
   22.4585  -20.6542  -13.6088 C   0  0  2  0  0  0  0  0  0  0  0  0
   21.2576  -20.4913  -14.4067 C   0  0  0  0  0  0  0  0  0  0  0  0
   21.2117  -21.4780  -15.5517 C   0  0  0  0  0  0  0  0  0  0  0  0
   21.8352  -20.9573  -16.7858 C   0  0  0  0  0  0  0  0  0  0  0  0
   22.3678  -19.7038  -16.9612 N   0  0  0  0  0  0  0  0  0  0  0  0
   22.8473  -19.5877  -18.2144 C   0  0  0  0  0  0  0  0  0  0  0  0
   22.6235  -20.7562  -18.8347 N   0  0  0  0  0  0  0  0  0  0  0  0
   22.0063  -21.5864  -17.9583 C   0  0  0  0  0  0  0  0  0  0  0  0
   20.0264  -20.6678  -13.6292 O   0  0  0  0  0  0  0  0  0  0  0  0
   18.8230  -20.2659  -14.1478 O   0  0  0  0  0  0  0  0  0  0  0  0
  2  1  1  0
  3  2  1  0
  3  4  1  6
  5  3  1  0
  5  6  2  0
  7  8  1  0
  8  9  2  0
 10  8  1  0
 10 11  1  0
 11 12  1  0
 12 13  1  0
 14 13  1  1
 14 15  1  0
 15  5  1  0
 16 14  1  0
 17 16  2  0
 18 16  1  0
 19 18  1  0
 19 20  1  6
 20 21  1  0
 21 22  2  0
 22 23  1  0
 24 23  1  0
 25 21  1  0
 25 24  2  0
 26 27  1  0
 26 19  1  0
 28 26  2  0
M  END
$$$$
