SRH.pdb
     RDKit          3D

 28 28  0  0  1  0  0  0  0  0999 V2000
   25.9129  -19.8355  -17.2966 O   0  0  0  0  0  0  0  0  0  0  0  0
   27.1328  -19.6185  -16.6560 C   0  0  0  0  0  0  0  0  0  0  0  0
   27.5052  -20.9026  -15.9457 C   0  0  2  0  0  0  0  0  0  0  0  0
   27.7803  -21.9282  -16.9148 N   0  0  0  0  0  0  0  0  0  0  0  0
   26.4723  -21.3430  -15.0033 C   0  0  0  0  0  0  0  0  0  0  0  0
   25.7667  -22.3708  -15.2228 O   0  0  0  0  0  0  0  0  0  0  0  0
   27.0369  -19.9511   -6.8822 N   0  0  0  0  0  0  0  0  0  0  0  0
   25.8875  -20.5013   -7.4972 C   0  0  0  0  0  0  0  0  0  0  0  0
   24.7859  -20.6112   -6.8398 N   0  0  0  0  0  0  0  0  0  0  0  0
   25.8942  -20.9563   -8.8627 N   0  0  0  0  0  0  0  0  0  0  0  0
   27.1370  -20.9655   -9.6424 C   0  0  0  0  0  0  0  0  0  0  0  0
   26.8282  -21.4659  -11.0734 C   0  0  0  0  0  0  0  0  0  0  0  0
   25.6122  -20.7352  -11.4905 C   0  0  0  0  0  0  0  0  0  0  0  0
   25.1337  -20.9653  -12.9019 C   0  0  2  0  0  0  0  0  0  0  0  0
   26.2483  -20.6118  -13.8157 N   0  0  0  0  0  0  0  0  0  0  0  0
   23.9098  -20.2797  -13.2819 C   0  0  0  0  0  0  0  0  0  0  0  0
   24.0249  -19.1546  -13.8839 O   0  0  0  0  0  0  0  0  0  0  0  0
   23.9510  -21.0351   -7.2713 N   0  0  0  0  0  0  0  0  0  0  0  0
   22.5925  -20.7125  -13.0675 C   0  0  2  0  0  0  0  0  0  0  0  0
   21.4603  -20.3643  -13.9054 C   0  0  0  0  0  0  0  0  0  0  0  0
   21.6501  -20.8461  -15.3263 C   0  0  0  0  0  0  0  0  0  0  0  0
   20.5995  -20.3597  -16.2443 C   0  0  0  0  0  0  0  0  0  0  0  0
   19.9639  -19.1441  -16.1814 N   0  0  0  0  0  0  0  0  0  0  0  0
   19.0678  -19.0504  -17.1825 C   0  0  0  0  0  0  0  0  0  0  0  0
   19.1297  -20.1954  -17.8790 N   0  0  0  0  0  0  0  0  0  0  0  0
   20.0652  -20.9890  -17.3017 C   0  0  0  0  0  0  0  0  0  0  0  0
   20.1954  -20.9260  -13.4197 O   0  0  0  0  0  0  0  0  0  0  0  0
   19.0423  -20.1892  -13.4963 O   0  0  0  0  0  0  0  0  0  0  0  0
  2  1  1  0
  3  2  1  0
  3  4  1  6
  5  3  1  0
  5  6  2  0
  7  8  1  0
  8  9  2  0
 10  8  1  0
 10 11  1  0
 11 12  1  0
 12 13  1  0
 14 13  1  1
 14 15  1  0
 15  5  1  0
 16 14  1  0
 17 16  2  0
 18 16  1  0
 19 18  1  0
 19 20  1  6
 20 21  1  0
 21 22  2  0
 22 23  1  0
 24 23  1  0
 25 21  1  0
 25 24  2  0
 26 27  1  0
 26 19  1  0
 28 26  2  0
M  END
$$$$
