SRH.pdb
     RDKit          3D

 28 28  0  0  1  0  0  0  0  0999 V2000
   16.1821  -21.8156    4.2536 O   0  0  0  0  0  0  0  0  0  0  0  0
   16.8972  -20.6499    4.5283 C   0  0  0  0  0  0  0  0  0  0  0  0
   16.3060  -19.5458    3.6777 C   0  0  2  0  0  0  0  0  0  0  0  0
   16.4388  -19.8842    2.2868 N   0  0  0  0  0  0  0  0  0  0  0  0
   16.9105  -18.2392    3.9537 C   0  0  0  0  0  0  0  0  0  0  0  0
   17.8451  -17.7745    3.2376 O   0  0  0  0  0  0  0  0  0  0  0  0
   12.3843  -11.5088    4.2123 N   0  0  0  0  0  0  0  0  0  0  0  0
   13.6658  -11.2998    3.6501 C   0  0  0  0  0  0  0  0  0  0  0  0
   13.8342  -10.4283    2.7173 N   0  0  0  0  0  0  0  0  0  0  0  0
   14.8221  -12.0379    4.0859 N   0  0  0  0  0  0  0  0  0  0  0  0
   14.7261  -12.9916    5.1967 C   0  0  0  0  0  0  0  0  0  0  0  0
   16.0863  -13.7105    5.3600 C   0  0  0  0  0  0  0  0  0  0  0  0
   15.8015  -15.1442    5.1361 C   0  0  0  0  0  0  0  0  0  0  0  0
   16.9623  -16.0962    5.2784 C   0  0  2  0  0  0  0  0  0  0  0  0
   16.4477  -17.4681    5.0429 N   0  0  0  0  0  0  0  0  0  0  0  0
   17.6998  -16.0229    6.5288 C   0  0  0  0  0  0  0  0  0  0  0  0
   17.2304  -16.6690    7.5307 O   0  0  0  0  0  0  0  0  0  0  0  0
   14.7551  -10.2994    2.2722 N   0  0  0  0  0  0  0  0  0  0  0  0
   18.8885  -15.3189    6.7733 C   0  0  2  0  0  0  0  0  0  0  0  0
   19.5155  -15.1805    8.0744 C   0  0  0  0  0  0  0  0  0  0  0  0
   21.0047  -15.4346    8.0048 C   0  0  0  0  0  0  0  0  0  0  0  0
   21.3527  -16.8627    8.1544 C   0  0  0  0  0  0  0  0  0  0  0  0
   20.4756  -17.8930    8.3885 N   0  0  0  0  0  0  0  0  0  0  0  0
   21.1530  -19.0547    8.4647 C   0  0  0  0  0  0  0  0  0  0  0  0
   22.4512  -18.7698    8.2809 N   0  0  0  0  0  0  0  0  0  0  0  0
   22.5658  -17.4320    8.0924 C   0  0  0  0  0  0  0  0  0  0  0  0
   19.3272  -13.8495    8.6613 O   0  0  0  0  0  0  0  0  0  0  0  0
   19.7198  -13.6058    9.9515 O   0  0  0  0  0  0  0  0  0  0  0  0
  2  1  1  0
  3  2  1  0
  3  4  1  6
  5  3  1  0
  5  6  2  0
  7  8  1  0
  8  9  2  0
 10  8  1  0
 10 11  1  0
 11 12  1  0
 12 13  1  0
 14 13  1  1
 14 15  1  0
 15  5  1  0
 16 14  1  0
 17 16  2  0
 18 16  1  0
 19 18  1  0
 19 20  1  6
 20 21  1  0
 21 22  2  0
 22 23  1  0
 24 23  1  0
 25 21  1  0
 25 24  2  0
 26 27  1  0
 26 19  1  0
 28 26  2  0
M  END
$$$$
