SRH.pdb
     RDKit          3D

 28 28  0  0  1  0  0  0  0  0999 V2000
   28.1367  -27.4395  -17.6444 O   0  0  0  0  0  0  0  0  0  0  0  0
   27.7069  -26.1594  -17.2945 C   0  0  0  0  0  0  0  0  0  0  0  0
   28.9319  -25.2718  -17.2351 C   0  0  2  0  0  0  0  0  0  0  0  0
   29.9446  -25.8995  -16.4308 N   0  0  0  0  0  0  0  0  0  0  0  0
   28.6285  -23.9287  -16.7321 C   0  0  0  0  0  0  0  0  0  0  0  0
   28.9849  -23.5556  -15.5762 O   0  0  0  0  0  0  0  0  0  0  0  0
   29.3913  -15.9452  -18.5055 N   0  0  0  0  0  0  0  0  0  0  0  0
   30.1779  -17.1031  -18.7116 C   0  0  0  0  0  0  0  0  0  0  0  0
   31.4611  -17.0432  -18.6253 N   0  0  0  0  0  0  0  0  0  0  0  0
   29.5920  -18.3807  -19.0220 N   0  0  0  0  0  0  0  0  0  0  0  0
   28.1409  -18.5177  -19.1894 C   0  0  0  0  0  0  0  0  0  0  0  0
   27.5647  -19.2784  -17.9717 C   0  0  0  0  0  0  0  0  0  0  0  0
   28.0131  -20.6779  -18.1355 C   0  0  0  0  0  0  0  0  0  0  0  0
   27.5988  -21.6525  -17.0620 C   0  0  2  0  0  0  0  0  0  0  0  0
   27.9217  -23.0172  -17.5474 N   0  0  0  0  0  0  0  0  0  0  0  0
   26.2162  -21.5688  -16.6213 C   0  0  0  0  0  0  0  0  0  0  0  0
   25.3204  -22.0724  -17.3864 O   0  0  0  0  0  0  0  0  0  0  0  0
   32.0411  -17.8860  -18.7535 N   0  0  0  0  0  0  0  0  0  0  0  0
   25.7368  -20.9949  -15.4342 C   0  0  2  0  0  0  0  0  0  0  0  0
   24.3357  -20.8942  -15.0708 C   0  0  0  0  0  0  0  0  0  0  0  0
   23.8498  -19.4629  -15.1173 C   0  0  0  0  0  0  0  0  0  0  0  0
   22.4362  -19.3213  -14.7118 C   0  0  0  0  0  0  0  0  0  0  0  0
   21.6185  -20.3233  -14.2502 N   0  0  0  0  0  0  0  0  0  0  0  0
   20.3985  -19.8217  -13.9781 C   0  0  0  0  0  0  0  0  0  0  0  0
   20.4356  -18.5112  -14.2630 N   0  0  0  0  0  0  0  0  0  0  0  0
   21.6805  -18.2128  -14.7098 C   0  0  0  0  0  0  0  0  0  0  0  0
   23.4600  -21.6807  -15.9460 O   0  0  0  0  0  0  0  0  0  0  0  0
   22.7583  -22.7437  -15.4399 O   0  0  0  0  0  0  0  0  0  0  0  0
  2  1  1  0
  3  2  1  0
  3  4  1  1
  5  3  1  0
  5  6  2  0
  7  8  1  0
  8  9  2  0
 10  8  1  0
 10 11  1  0
 11 12  1  0
 12 13  1  0
 14 13  1  6
 14 15  1  0
 15  5  1  0
 16 14  1  0
 17 16  2  0
 18 16  1  0
 19 18  1  0
 19 20  1  1
 20 21  1  0
 21 22  2  0
 22 23  1  0
 24 23  1  0
 25 21  1  0
 25 24  2  0
 26 27  1  0
 26 19  1  0
 28 26  2  0
M  END
$$$$
