SRH.pdb
     RDKit          3D

 28 28  0  0  1  0  0  0  0  0999 V2000
   24.6275  -20.8444   -8.3776 O   0  0  0  0  0  0  0  0  0  0  0  0
   24.2324  -20.4307   -9.6498 C   0  0  0  0  0  0  0  0  0  0  0  0
   25.1845  -21.0588  -10.6453 C   0  0  2  0  0  0  0  0  0  0  0  0
   26.5180  -20.5771  -10.4082 N   0  0  0  0  0  0  0  0  0  0  0  0
   24.7848  -20.8163  -12.0347 C   0  0  0  0  0  0  0  0  0  0  0  0
   24.9491  -19.6891  -12.5866 O   0  0  0  0  0  0  0  0  0  0  0  0
   27.4857  -21.9671  -17.2478 N   0  0  0  0  0  0  0  0  0  0  0  0
   28.0483  -23.2095  -16.8708 C   0  0  0  0  0  0  0  0  0  0  0  0
   29.3223  -23.3893  -16.9181 N   0  0  0  0  0  0  0  0  0  0  0  0
   27.2380  -24.3122  -16.4243 N   0  0  0  0  0  0  0  0  0  0  0  0
   25.8087  -24.1275  -16.1496 C   0  0  0  0  0  0  0  0  0  0  0  0
   25.6207  -22.8406  -15.3118 C   0  0  0  0  0  0  0  0  0  0  0  0
   24.1720  -22.7678  -15.0245 C   0  0  0  0  0  0  0  0  0  0  0  0
   23.7078  -21.6170  -14.1676 C   0  0  2  0  0  0  0  0  0  0  0  0
   24.2009  -21.8582  -12.7888 N   0  0  0  0  0  0  0  0  0  0  0  0
   22.2786  -21.3524  -14.1720 C   0  0  0  0  0  0  0  0  0  0  0  0
   21.5990  -21.7593  -13.1650 O   0  0  0  0  0  0  0  0  0  0  0  0
   29.7388  -24.2996  -16.6714 N   0  0  0  0  0  0  0  0  0  0  0  0
   21.5412  -20.6888  -15.1641 C   0  0  2  0  0  0  0  0  0  0  0  0
   20.1062  -20.4775  -15.1263 C   0  0  0  0  0  0  0  0  0  0  0  0
   19.7187  -19.4759  -14.0616 C   0  0  0  0  0  0  0  0  0  0  0  0
   20.1438  -18.0983  -14.3850 C   0  0  0  0  0  0  0  0  0  0  0  0
   20.8781  -17.7096  -15.4783 N   0  0  0  0  0  0  0  0  0  0  0  0
   21.0730  -16.3774  -15.4414 C   0  0  0  0  0  0  0  0  0  0  0  0
   20.4690  -15.9185  -14.3348 N   0  0  0  0  0  0  0  0  0  0  0  0
   19.9046  -16.9727  -13.6955 C   0  0  0  0  0  0  0  0  0  0  0  0
   19.5662  -19.9907  -16.4002 O   0  0  0  0  0  0  0  0  0  0  0  0
   20.4146  -19.6625  -17.4253 O   0  0  0  0  0  0  0  0  0  0  0  0
  2  1  1  0
  3  2  1  0
  3  4  1  6
  5  3  1  0
  5  6  2  0
  7  8  1  0
  8  9  2  0
 10  8  1  0
 10 11  1  0
 11 12  1  0
 12 13  1  0
 14 13  1  6
 14 15  1  0
 15  5  1  0
 16 14  1  0
 17 16  2  0
 18 16  1  0
 19 18  1  0
 19 20  1  1
 20 21  1  0
 21 22  2  0
 22 23  1  0
 24 23  1  0
 25 21  1  0
 25 24  2  0
 26 27  1  0
 26 19  1  0
 28 26  2  0
M  END
$$$$
