SRH.pdb
     RDKit          3D

 28 28  0  0  1  0  0  0  0  0999 V2000
   27.1534  -27.2632  -17.9808 O   0  0  0  0  0  0  0  0  0  0  0  0
   25.9505  -26.6722  -17.5939 C   0  0  0  0  0  0  0  0  0  0  0  0
   26.2348  -25.2125  -17.3100 C   0  0  2  0  0  0  0  0  0  0  0  0
   27.6098  -25.0551  -16.9211 N   0  0  0  0  0  0  0  0  0  0  0  0
   25.3406  -24.6538  -16.2916 C   0  0  0  0  0  0  0  0  0  0  0  0
   24.2984  -25.2653  -15.9144 O   0  0  0  0  0  0  0  0  0  0  0  0
   24.3403  -20.5361   -9.7913 N   0  0  0  0  0  0  0  0  0  0  0  0
   25.6997  -20.9277   -9.7644 C   0  0  0  0  0  0  0  0  0  0  0  0
   26.2284  -21.3729   -8.6781 N   0  0  0  0  0  0  0  0  0  0  0  0
   26.5419  -20.8485  -10.9289 N   0  0  0  0  0  0  0  0  0  0  0  0
   26.0611  -20.2073  -12.1579 C   0  0  0  0  0  0  0  0  0  0  0  0
   24.9604  -21.0928  -12.7886 C   0  0  0  0  0  0  0  0  0  0  0  0
   25.6496  -21.9035  -13.8154 C   0  0  0  0  0  0  0  0  0  0  0  0
   24.7939  -22.8506  -14.6184 C   0  0  2  0  0  0  0  0  0  0  0  0
   25.6376  -23.4026  -15.7073 N   0  0  0  0  0  0  0  0  0  0  0  0
   23.5548  -22.3027  -15.1448 C   0  0  0  0  0  0  0  0  0  0  0  0
   23.6427  -21.3152  -15.9563 O   0  0  0  0  0  0  0  0  0  0  0  0
   27.2354  -21.5886   -8.6281 N   0  0  0  0  0  0  0  0  0  0  0  0
   22.2495  -22.7366  -14.8681 C   0  0  2  0  0  0  0  0  0  0  0  0
   21.0427  -22.0720  -15.3231 C   0  0  0  0  0  0  0  0  0  0  0  0
   19.7997  -22.7478  -14.7892 C   0  0  0  0  0  0  0  0  0  0  0  0
   18.5574  -22.2385  -15.4059 C   0  0  0  0  0  0  0  0  0  0  0  0
   18.2843  -22.1735  -16.7501 N   0  0  0  0  0  0  0  0  0  0  0  0
   17.0555  -21.6549  -16.9371 C   0  0  0  0  0  0  0  0  0  0  0  0
   16.5475  -21.3905  -15.7238 N   0  0  0  0  0  0  0  0  0  0  0  0
   17.4681  -21.7486  -14.7950 C   0  0  0  0  0  0  0  0  0  0  0  0
   20.9798  -20.6627  -14.9211 O   0  0  0  0  0  0  0  0  0  0  0  0
   20.5853  -19.7084  -15.8222 O   0  0  0  0  0  0  0  0  0  0  0  0
  2  1  1  0
  3  2  1  0
  3  4  1  1
  5  3  1  0
  5  6  2  0
  7  8  1  0
  8  9  2  0
 10  8  1  0
 10 11  1  0
 11 12  1  0
 12 13  1  0
 14 13  1  6
 14 15  1  0
 15  5  1  0
 16 14  1  0
 17 16  2  0
 18 16  1  0
 19 18  1  0
 19 20  1  1
 20 21  1  0
 21 22  2  0
 22 23  1  0
 24 23  1  0
 25 21  1  0
 25 24  2  0
 26 27  1  0
 26 19  1  0
 28 26  2  0
M  END
$$$$
