SRH.pdb
     RDKit          3D

 28 28  0  0  1  0  0  0  0  0999 V2000
   12.0231   -9.8155  -13.4856 O   0  0  0  0  0  0  0  0  0  0  0  0
   12.6268   -9.9516  -14.7358 C   0  0  0  0  0  0  0  0  0  0  0  0
   13.6939  -11.0180  -14.6087 C   0  0  2  0  0  0  0  0  0  0  0  0
   13.0973  -12.2473  -14.1623 N   0  0  0  0  0  0  0  0  0  0  0  0
   14.7853  -10.6169  -13.7160 C   0  0  0  0  0  0  0  0  0  0  0  0
   14.8767  -11.0640  -12.5353 O   0  0  0  0  0  0  0  0  0  0  0  0
   21.7796   -9.0776  -17.5272 N   0  0  0  0  0  0  0  0  0  0  0  0
   20.3840   -8.8633  -17.6204 C   0  0  0  0  0  0  0  0  0  0  0  0
   19.8823   -8.2745  -18.6497 N   0  0  0  0  0  0  0  0  0  0  0  0
   19.4745   -9.2857  -16.5879 N   0  0  0  0  0  0  0  0  0  0  0  0
   19.9431  -10.1128  -15.4704 C   0  0  0  0  0  0  0  0  0  0  0  0
   18.7309  -10.5024  -14.5914 C   0  0  0  0  0  0  0  0  0  0  0  0
   18.1311   -9.2214  -14.1605 C   0  0  0  0  0  0  0  0  0  0  0  0
   16.8970   -9.3068  -13.2981 C   0  0  2  0  0  0  0  0  0  0  0  0
   15.7672   -9.7096  -14.1720 N   0  0  0  0  0  0  0  0  0  0  0  0
   16.5670   -8.1151  -12.5342 C   0  0  0  0  0  0  0  0  0  0  0  0
   15.7189   -7.3017  -13.0448 O   0  0  0  0  0  0  0  0  0  0  0  0
   18.8644   -8.1361  -18.7375 N   0  0  0  0  0  0  0  0  0  0  0  0
   17.0728   -7.7440  -11.2793 C   0  0  1  0  0  0  0  0  0  0  0  0
   16.5942   -6.6224  -10.4929 C   0  0  0  0  0  0  0  0  0  0  0  0
   15.1337   -6.7780  -10.1326 C   0  0  0  0  0  0  0  0  0  0  0  0
   14.6559   -5.7341   -9.2026 C   0  0  0  0  0  0  0  0  0  0  0  0
   15.4159   -4.7414   -8.6346 N   0  0  0  0  0  0  0  0  0  0  0  0
   14.6406   -3.9753   -7.8433 C   0  0  0  0  0  0  0  0  0  0  0  0
   13.3964   -4.4736   -7.9047 N   0  0  0  0  0  0  0  0  0  0  0  0
   13.4127   -5.5454   -8.7348 C   0  0  0  0  0  0  0  0  0  0  0  0
   17.3360   -6.4446   -9.2401 O   0  0  0  0  0  0  0  0  0  0  0  0
   18.2936   -7.3541   -8.8738 O   0  0  0  0  0  0  0  0  0  0  0  0
  2  1  1  0
  3  2  1  0
  3  4  1  1
  5  3  1  0
  5  6  2  0
  7  8  1  0
  8  9  2  0
 10  8  1  0
 10 11  1  0
 11 12  1  0
 12 13  1  0
 14 13  1  6
 14 15  1  0
 15  5  1  0
 16 14  1  0
 17 16  2  0
 18 16  1  0
 19 18  1  0
 19 20  1  1
 20 21  1  0
 21 22  2  0
 22 23  1  0
 24 23  1  0
 25 21  1  0
 25 24  2  0
 26 27  1  0
 26 19  1  0
 28 26  2  0
M  END
$$$$
