SRH.pdb
     RDKit          3D

 28 28  0  0  1  0  0  0  0  0999 V2000
   16.2186  -28.5935   -2.5668 O   0  0  0  0  0  0  0  0  0  0  0  0
   17.1507  -29.1161   -3.4634 C   0  0  0  0  0  0  0  0  0  0  0  0
   18.4541  -28.3784   -3.2418 C   0  0  2  0  0  0  0  0  0  0  0  0
   18.9164  -28.6074   -1.9000 N   0  0  0  0  0  0  0  0  0  0  0  0
   18.3399  -26.9424   -3.5131 C   0  0  0  0  0  0  0  0  0  0  0  0
   18.4112  -26.0830   -2.5865 O   0  0  0  0  0  0  0  0  0  0  0  0
   19.8012  -26.9905  -10.6133 N   0  0  0  0  0  0  0  0  0  0  0  0
   18.4899  -26.5430  -10.9002 C   0  0  0  0  0  0  0  0  0  0  0  0
   17.8514  -27.0053  -11.9182 N   0  0  0  0  0  0  0  0  0  0  0  0
   17.8186  -25.5669  -10.0826 N   0  0  0  0  0  0  0  0  0  0  0  0
   18.4835  -24.9887   -8.9095 C   0  0  0  0  0  0  0  0  0  0  0  0
   17.6879  -25.3752   -7.6402 C   0  0  0  0  0  0  0  0  0  0  0  0
   18.4344  -24.7776   -6.5123 C   0  0  0  0  0  0  0  0  0  0  0  0
   17.9074  -25.0561   -5.1271 C   0  0  2  0  0  0  0  0  0  0  0  0
   18.1457  -26.4920   -4.8377 N   0  0  0  0  0  0  0  0  0  0  0  0
   16.5190  -24.6988   -4.8875 C   0  0  0  0  0  0  0  0  0  0  0  0
   15.6186  -25.4947   -5.3317 O   0  0  0  0  0  0  0  0  0  0  0  0
   16.9078  -26.6625  -12.1527 N   0  0  0  0  0  0  0  0  0  0  0  0
   16.0381  -23.5670   -4.2119 C   0  0  2  0  0  0  0  0  0  0  0  0
   14.6348  -23.2473   -4.0281 C   0  0  0  0  0  0  0  0  0  0  0  0
   14.4476  -22.0946   -3.0672 C   0  0  0  0  0  0  0  0  0  0  0  0
   13.0263  -21.7996   -2.7920 C   0  0  0  0  0  0  0  0  0  0  0  0
   11.9425  -22.4610   -3.3152 N   0  0  0  0  0  0  0  0  0  0  0  0
   10.8070  -21.9163   -2.8378 C   0  0  0  0  0  0  0  0  0  0  0  0
   11.1613  -20.9158   -2.0170 N   0  0  0  0  0  0  0  0  0  0  0  0
   12.5153  -20.8502   -1.9937 C   0  0  0  0  0  0  0  0  0  0  0  0
   13.9622  -22.8850   -5.2802 O   0  0  0  0  0  0  0  0  0  0  0  0
   14.6985  -22.4836   -6.3642 O   0  0  0  0  0  0  0  0  0  0  0  0
  2  1  1  0
  3  2  1  0
  3  4  1  1
  5  3  1  0
  5  6  2  0
  7  8  1  0
  8  9  2  0
 10  8  1  0
 10 11  1  0
 11 12  1  0
 12 13  1  0
 14 13  1  6
 14 15  1  0
 15  5  1  0
 16 14  1  0
 17 16  2  0
 18 16  1  0
 19 18  1  0
 19 20  1  6
 20 21  1  0
 21 22  2  0
 22 23  1  0
 24 23  1  0
 25 21  1  0
 25 24  2  0
 26 27  1  0
 26 19  1  0
 28 26  2  0
M  END
$$$$
