SRH.pdb
     RDKit          3D

 28 28  0  0  1  0  0  0  0  0999 V2000
   28.3760  -36.7685    1.5684 O   0  0  0  0  0  0  0  0  0  0  0  0
   28.2633  -35.3850    1.4316 C   0  0  0  0  0  0  0  0  0  0  0  0
   28.0703  -35.0905   -0.0409 C   0  0  2  0  0  0  0  0  0  0  0  0
   29.3482  -34.8666   -0.6600 N   0  0  0  0  0  0  0  0  0  0  0  0
   27.1748  -33.9536   -0.2736 C   0  0  0  0  0  0  0  0  0  0  0  0
   27.5295  -32.7651   -0.0204 O   0  0  0  0  0  0  0  0  0  0  0  0
   23.8623  -33.1514   -7.6629 N   0  0  0  0  0  0  0  0  0  0  0  0
   25.1710  -32.7433   -7.3124 C   0  0  0  0  0  0  0  0  0  0  0  0
   26.0006  -32.3634   -8.2209 N   0  0  0  0  0  0  0  0  0  0  0  0
   25.6298  -32.7335   -5.9482 N   0  0  0  0  0  0  0  0  0  0  0  0
   24.6936  -32.9643   -4.8423 C   0  0  0  0  0  0  0  0  0  0  0  0
   25.4373  -32.7515   -3.5024 C   0  0  0  0  0  0  0  0  0  0  0  0
   24.4691  -33.1324   -2.4516 C   0  0  0  0  0  0  0  0  0  0  0  0
   24.9479  -33.0438   -1.0244 C   0  0  2  0  0  0  0  0  0  0  0  0
   25.8804  -34.1751   -0.7940 N   0  0  0  0  0  0  0  0  0  0  0  0
   23.9133  -33.0041   -0.0043 C   0  0  0  0  0  0  0  0  0  0  0  0
   23.2474  -34.0786    0.2045 O   0  0  0  0  0  0  0  0  0  0  0  0
   26.9762  -32.1291   -7.9835 N   0  0  0  0  0  0  0  0  0  0  0  0
   23.5525  -31.9102    0.7968 C   0  0  2  0  0  0  0  0  0  0  0  0
   22.5078  -31.9308    1.8036 C   0  0  0  0  0  0  0  0  0  0  0  0
   22.7686  -30.9196    2.8973 C   0  0  0  0  0  0  0  0  0  0  0  0
   23.9788  -31.2256    3.6877 C   0  0  0  0  0  0  0  0  0  0  0  0
   24.7304  -32.3724    3.6127 N   0  0  0  0  0  0  0  0  0  0  0  0
   25.7580  -32.2969    4.4801 C   0  0  0  0  0  0  0  0  0  0  0  0
   25.6644  -31.1128    5.1040 N   0  0  0  0  0  0  0  0  0  0  0  0
   24.5777  -30.4649    4.6164 C   0  0  0  0  0  0  0  0  0  0  0  0
   21.1782  -31.6454    1.2538 O   0  0  0  0  0  0  0  0  0  0  0  0
   21.0397  -31.3028   -0.0660 O   0  0  0  0  0  0  0  0  0  0  0  0
  2  1  1  0
  3  2  1  0
  3  4  1  1
  5  3  1  0
  5  6  2  0
  7  8  1  0
  8  9  2  0
 10  8  1  0
 10 11  1  0
 11 12  1  0
 12 13  1  0
 14 13  1  6
 14 15  1  0
 15  5  1  0
 16 14  1  0
 17 16  2  0
 18 16  1  0
 19 18  1  0
 19 20  1  1
 20 21  1  0
 21 22  2  0
 22 23  1  0
 24 23  1  0
 25 21  1  0
 25 24  2  0
 26 27  1  0
 26 19  1  0
 28 26  2  0
M  END
$$$$
