SRH.pdb
     RDKit          3D

 28 28  0  0  1  0  0  0  0  0999 V2000
   24.7776  -19.5736  -20.0982 O   0  0  0  0  0  0  0  0  0  0  0  0
   25.9802  -19.1242  -19.5528 C   0  0  0  0  0  0  0  0  0  0  0  0
   26.5557  -20.2582  -18.7311 C   0  0  2  0  0  0  0  0  0  0  0  0
   26.7837  -21.3990  -19.5756 N   0  0  0  0  0  0  0  0  0  0  0  0
   25.7030  -20.6168  -17.5940 C   0  0  0  0  0  0  0  0  0  0  0  0
   24.9131  -21.6048  -17.6408 O   0  0  0  0  0  0  0  0  0  0  0  0
   26.4196  -20.8914  -10.0488 N   0  0  0  0  0  0  0  0  0  0  0  0
   27.6705  -20.8365  -10.7079 C   0  0  0  0  0  0  0  0  0  0  0  0
   28.5234  -21.7908  -10.5681 N   0  0  0  0  0  0  0  0  0  0  0  0
   28.0430  -19.7311  -11.5512 N   0  0  0  0  0  0  0  0  0  0  0  0
   27.0465  -19.0685  -12.4000 C   0  0  0  0  0  0  0  0  0  0  0  0
   26.2753  -20.1437  -13.2017 C   0  0  0  0  0  0  0  0  0  0  0  0
   25.3476  -19.3921  -14.0742 C   0  0  0  0  0  0  0  0  0  0  0  0
   24.8207  -20.1168  -15.2870 C   0  0  2  0  0  0  0  0  0  0  0  0
   25.7544  -19.8495  -16.4091 N   0  0  0  0  0  0  0  0  0  0  0  0
   23.4499  -19.8166  -15.6658 C   0  0  0  0  0  0  0  0  0  0  0  0
   23.2444  -18.7496  -16.3447 O   0  0  0  0  0  0  0  0  0  0  0  0
   29.4664  -21.7236  -10.9793 N   0  0  0  0  0  0  0  0  0  0  0  0
   22.3038  -20.5717  -15.3747 C   0  0  2  0  0  0  0  0  0  0  0  0
   20.9507  -20.1964  -15.7401 C   0  0  0  0  0  0  0  0  0  0  0  0
   20.6247  -20.6019  -17.1600 C   0  0  0  0  0  0  0  0  0  0  0  0
   19.2816  -20.1616  -17.5905 C   0  0  0  0  0  0  0  0  0  0  0  0
   18.9217  -18.8875  -17.9552 N   0  0  0  0  0  0  0  0  0  0  0  0
   17.6168  -18.8642  -18.2878 C   0  0  0  0  0  0  0  0  0  0  0  0
   17.1466  -20.1117  -18.1372 N   0  0  0  0  0  0  0  0  0  0  0  0
   18.1664  -20.8974  -17.7119 C   0  0  0  0  0  0  0  0  0  0  0  0
   19.9354  -20.7996  -14.8702 O   0  0  0  0  0  0  0  0  0  0  0  0
   18.6574  -20.3046  -14.8605 O   0  0  0  0  0  0  0  0  0  0  0  0
  2  1  1  0
  3  2  1  0
  3  4  1  6
  5  3  1  0
  5  6  2  0
  7  8  1  0
  8  9  2  0
 10  8  1  0
 10 11  1  0
 11 12  1  0
 12 13  1  0
 14 13  1  1
 14 15  1  0
 15  5  1  0
 16 14  1  0
 17 16  2  0
 18 16  1  0
 19 18  1  0
 19 20  1  6
 20 21  1  0
 21 22  2  0
 22 23  1  0
 24 23  1  0
 25 21  1  0
 25 24  2  0
 26 27  1  0
 26 19  1  0
 28 26  2  0
M  END
$$$$
