SRH.pdb
     RDKit          3D

 28 28  0  0  1  0  0  0  0  0999 V2000
   24.7741  -13.2399  -17.4032 O   0  0  0  0  0  0  0  0  0  0  0  0
   23.9888  -12.1131  -17.1598 C   0  0  0  0  0  0  0  0  0  0  0  0
   22.9327  -12.0555  -18.2431 C   0  0  2  0  0  0  0  0  0  0  0  0
   23.5660  -11.9768  -19.5312 N   0  0  0  0  0  0  0  0  0  0  0  0
   21.9967  -10.9429  -18.0564 C   0  0  0  0  0  0  0  0  0  0  0  0
   21.9809   -9.9489  -18.8400 O   0  0  0  0  0  0  0  0  0  0  0  0
   15.2930  -13.3786  -13.5752 N   0  0  0  0  0  0  0  0  0  0  0  0
   15.6305  -13.9438  -14.8277 C   0  0  0  0  0  0  0  0  0  0  0  0
   15.0191  -14.9931  -15.2553 N   0  0  0  0  0  0  0  0  0  0  0  0
   16.6550  -13.3830  -15.6690 N   0  0  0  0  0  0  0  0  0  0  0  0
   17.3309  -12.1358  -15.2948 C   0  0  0  0  0  0  0  0  0  0  0  0
   18.2997  -11.7295  -16.4305 C   0  0  0  0  0  0  0  0  0  0  0  0
   18.9460  -10.4827  -15.9676 C   0  0  0  0  0  0  0  0  0  0  0  0
   20.0399   -9.9215  -16.8408 C   0  0  2  0  0  0  0  0  0  0  0  0
   21.0832  -10.9678  -16.9794 N   0  0  0  0  0  0  0  0  0  0  0  0
   20.6194   -8.6605  -16.4086 C   0  0  0  0  0  0  0  0  0  0  0  0
   21.5527   -8.7085  -15.5322 O   0  0  0  0  0  0  0  0  0  0  0  0
   15.2765  -15.4273  -16.1543 N   0  0  0  0  0  0  0  0  0  0  0  0
   20.2748   -7.3732  -16.8475 C   0  0  2  0  0  0  0  0  0  0  0  0
   20.9016   -6.1475  -16.3892 C   0  0  0  0  0  0  0  0  0  0  0  0
   21.9665   -5.6727  -17.3523 C   0  0  0  0  0  0  0  0  0  0  0  0
   22.5028   -4.3402  -17.0065 C   0  0  0  0  0  0  0  0  0  0  0  0
   23.5688   -4.0822  -16.1801 N   0  0  0  0  0  0  0  0  0  0  0  0
   23.7684   -2.7525  -16.1017 C   0  0  0  0  0  0  0  0  0  0  0  0
   22.8387   -2.1657  -16.8708 N   0  0  0  0  0  0  0  0  0  0  0  0
   22.0706   -3.1391  -17.4192 C   0  0  0  0  0  0  0  0  0  0  0  0
   19.9471   -5.0470  -16.2172 O   0  0  0  0  0  0  0  0  0  0  0  0
   20.3246   -3.9076  -15.5557 O   0  0  0  0  0  0  0  0  0  0  0  0
  2  1  1  0
  3  2  1  0
  3  4  1  6
  5  3  1  0
  5  6  2  0
  7  8  1  0
  8  9  2  0
 10  8  1  0
 10 11  1  0
 11 12  1  0
 12 13  1  0
 14 13  1  1
 14 15  1  0
 15  5  1  0
 16 14  1  0
 17 16  2  0
 18 16  1  0
 19 18  1  0
 19 20  1  6
 20 21  1  0
 21 22  2  0
 22 23  1  0
 24 23  1  0
 25 21  1  0
 25 24  2  0
 26 27  1  0
 26 19  1  0
 28 26  2  0
M  END
$$$$
