SRH.pdb
     RDKit          3D

 28 28  0  0  1  0  0  0  0  0999 V2000
   13.9316   -6.2771   -7.9863 O   0  0  0  0  0  0  0  0  0  0  0  0
   15.1205   -6.8548   -8.4320 C   0  0  0  0  0  0  0  0  0  0  0  0
   14.7506   -7.9798   -9.3753 C   0  0  2  0  0  0  0  0  0  0  0  0
   14.0737   -9.0178   -8.6468 N   0  0  0  0  0  0  0  0  0  0  0  0
   15.9120   -8.5194  -10.0886 C   0  0  0  0  0  0  0  0  0  0  0  0
   16.7670   -9.2511   -9.5091 O   0  0  0  0  0  0  0  0  0  0  0  0
   14.4366  -13.0277  -16.2450 N   0  0  0  0  0  0  0  0  0  0  0  0
   14.0637  -12.6315  -14.9388 C   0  0  0  0  0  0  0  0  0  0  0  0
   13.2800  -13.3696  -14.2326 N   0  0  0  0  0  0  0  0  0  0  0  0
   14.5340  -11.4065  -14.3474 N   0  0  0  0  0  0  0  0  0  0  0  0
   15.3260  -10.4526  -15.1318 C   0  0  0  0  0  0  0  0  0  0  0  0
   15.7057   -9.2542  -14.2301 C   0  0  0  0  0  0  0  0  0  0  0  0
   16.6138   -9.8084  -13.2030 C   0  0  0  0  0  0  0  0  0  0  0  0
   17.2112   -8.8275  -12.2258 C   0  0  2  0  0  0  0  0  0  0  0  0
   16.0939   -8.2239  -11.4578 N   0  0  0  0  0  0  0  0  0  0  0  0
   18.0686   -7.8006  -12.7940 C   0  0  0  0  0  0  0  0  0  0  0  0
   17.5185   -6.6972  -13.1424 O   0  0  0  0  0  0  0  0  0  0  0  0
   12.9803  -13.0754  -13.2910 N   0  0  0  0  0  0  0  0  0  0  0  0
   19.4534   -7.8734  -13.0073 C   0  0  2  0  0  0  0  0  0  0  0  0
   20.2469   -6.8427  -13.6505 C   0  0  0  0  0  0  0  0  0  0  0  0
   21.6534   -7.3195  -13.9355 C   0  0  0  0  0  0  0  0  0  0  0  0
   22.5247   -6.2540  -14.4728 C   0  0  0  0  0  0  0  0  0  0  0  0
   22.7599   -5.0292  -13.8982 N   0  0  0  0  0  0  0  0  0  0  0  0
   23.6071   -4.3227  -14.6709 C   0  0  0  0  0  0  0  0  0  0  0  0
   23.9109   -5.0886  -15.7298 N   0  0  0  0  0  0  0  0  0  0  0  0
   23.2477   -6.2643  -15.6027 C   0  0  0  0  0  0  0  0  0  0  0  0
   19.6735   -6.3902  -14.9225 O   0  0  0  0  0  0  0  0  0  0  0  0
   19.5024   -5.0515  -15.1611 O   0  0  0  0  0  0  0  0  0  0  0  0
  2  1  1  0
  3  2  1  0
  3  4  1  1
  5  3  1  0
  5  6  2  0
  7  8  1  0
  8  9  2  0
 10  8  1  0
 10 11  1  0
 11 12  1  0
 12 13  1  0
 14 13  1  6
 14 15  1  0
 15  5  1  0
 16 14  1  0
 17 16  2  0
 18 16  1  0
 19 18  1  0
 19 20  1  1
 20 21  1  0
 21 22  2  0
 22 23  1  0
 24 23  1  0
 25 21  1  0
 25 24  2  0
 26 27  1  0
 26 19  1  0
 28 26  2  0
M  END
$$$$
