SRH.pdb
     RDKit          3D

 28 28  0  0  1  0  0  0  0  0999 V2000
   32.7297   -4.9203  -16.5920 O   0  0  0  0  0  0  0  0  0  0  0  0
   32.7061   -5.6631  -15.4116 C   0  0  0  0  0  0  0  0  0  0  0  0
   33.3834   -6.9868  -15.6969 C   0  0  2  0  0  0  0  0  0  0  0  0
   34.7822   -6.7694  -15.9469 N   0  0  0  0  0  0  0  0  0  0  0  0
   32.7627   -7.7062  -16.8131 C   0  0  0  0  0  0  0  0  0  0  0  0
   33.3645   -7.8716  -17.9143 O   0  0  0  0  0  0  0  0  0  0  0  0
   26.3904  -13.7017  -15.8094 N   0  0  0  0  0  0  0  0  0  0  0  0
   26.5434  -13.6309  -17.2142 C   0  0  0  0  0  0  0  0  0  0  0  0
   25.8527  -14.3972  -17.9846 N   0  0  0  0  0  0  0  0  0  0  0  0
   27.4621  -12.7155  -17.8385 N   0  0  0  0  0  0  0  0  0  0  0  0
   28.2084  -11.7402  -17.0357 C   0  0  0  0  0  0  0  0  0  0  0  0
   29.1244  -10.9159  -17.9711 C   0  0  0  0  0  0  0  0  0  0  0  0
   29.9163  -10.0446  -17.0765 C   0  0  0  0  0  0  0  0  0  0  0  0
   30.8538   -9.0665  -17.7385 C   0  0  2  0  0  0  0  0  0  0  0  0
   31.4605   -8.2344  -16.6698 N   0  0  0  0  0  0  0  0  0  0  0  0
   30.2782   -8.2360  -18.7832 C   0  0  0  0  0  0  0  0  0  0  0  0
   29.5409   -7.2537  -18.4185 O   0  0  0  0  0  0  0  0  0  0  0  0
   25.9574  -14.3522  -19.0093 N   0  0  0  0  0  0  0  0  0  0  0  0
   30.4394   -8.3820  -20.1693 C   0  0  2  0  0  0  0  0  0  0  0  0
   29.8592   -7.5028  -21.1670 C   0  0  0  0  0  0  0  0  0  0  0  0
   30.6364   -7.5423  -22.4637 C   0  0  0  0  0  0  0  0  0  0  0  0
   31.8766   -6.7408  -22.4162 C   0  0  0  0  0  0  0  0  0  0  0  0
   32.2754   -5.9199  -21.3902 N   0  0  0  0  0  0  0  0  0  0  0  0
   33.4583   -5.3540  -21.6978 C   0  0  0  0  0  0  0  0  0  0  0  0
   33.8126   -5.8088  -22.9094 N   0  0  0  0  0  0  0  0  0  0  0  0
   32.8441   -6.6536  -23.3415 C   0  0  0  0  0  0  0  0  0  0  0  0
   28.4664   -7.8369  -21.4830 O   0  0  0  0  0  0  0  0  0  0  0  0
   27.5862   -6.8480  -21.8374 O   0  0  0  0  0  0  0  0  0  0  0  0
  2  1  1  0
  3  2  1  0
  3  4  1  6
  5  3  1  0
  5  6  2  0
  7  8  1  0
  8  9  2  0
 10  8  1  0
 10 11  1  0
 11 12  1  0
 12 13  1  0
 14 13  1  1
 14 15  1  0
 15  5  1  0
 16 14  1  0
 17 16  2  0
 18 16  1  0
 19 18  1  0
 19 20  1  1
 20 21  1  0
 21 22  2  0
 22 23  1  0
 24 23  1  0
 25 21  1  0
 25 24  2  0
 26 27  1  0
 26 19  1  0
 28 26  2  0
M  END
$$$$
