SRH.pdb
     RDKit          3D

 28 28  0  0  1  0  0  0  0  0999 V2000
   15.9366  -13.5164  -10.2979 O   0  0  0  0  0  0  0  0  0  0  0  0
   16.0986  -12.1890  -10.6946 C   0  0  0  0  0  0  0  0  0  0  0  0
   14.8662  -11.4306  -10.2496 C   0  0  2  0  0  0  0  0  0  0  0  0
   13.7094  -11.9484  -10.9280 N   0  0  0  0  0  0  0  0  0  0  0  0
   14.9887   -9.9854  -10.4623 C   0  0  0  0  0  0  0  0  0  0  0  0
   14.8020   -9.4628  -11.6000 O   0  0  0  0  0  0  0  0  0  0  0  0
   12.5948   -3.6061   -5.0936 N   0  0  0  0  0  0  0  0  0  0  0  0
   13.4442   -2.9225   -5.9954 C   0  0  0  0  0  0  0  0  0  0  0  0
   13.5804   -1.6444   -5.9209 N   0  0  0  0  0  0  0  0  0  0  0  0
   14.1837   -3.6106   -7.0208 N   0  0  0  0  0  0  0  0  0  0  0  0
   14.0716   -5.0652   -7.1760 C   0  0  0  0  0  0  0  0  0  0  0  0
   14.9842   -5.5176   -8.3405 C   0  0  0  0  0  0  0  0  0  0  0  0
   14.8251   -6.9858   -8.4158 C   0  0  0  0  0  0  0  0  0  0  0  0
   15.4933   -7.6815   -9.5749 C   0  0  2  0  0  0  0  0  0  0  0  0
   15.3223   -9.1426   -9.3791 N   0  0  0  0  0  0  0  0  0  0  0  0
   16.8888   -7.3454   -9.8040 C   0  0  0  0  0  0  0  0  0  0  0  0
   17.7643   -7.9219   -9.0675 O   0  0  0  0  0  0  0  0  0  0  0  0
   14.2063   -1.1394   -6.5662 N   0  0  0  0  0  0  0  0  0  0  0  0
   17.4014   -6.4509  -10.7557 C   0  0  2  0  0  0  0  0  0  0  0  0
   18.6916   -6.5843  -11.4060 C   0  0  0  0  0  0  0  0  0  0  0  0
   18.8396   -7.9306  -12.0787 C   0  0  0  0  0  0  0  0  0  0  0  0
   20.0995   -8.0585  -12.8398 C   0  0  0  0  0  0  0  0  0  0  0  0
   21.0766   -7.1014  -12.9614 N   0  0  0  0  0  0  0  0  0  0  0  0
   22.0782   -7.5729  -13.7286 C   0  0  0  0  0  0  0  0  0  0  0  0
   21.7445   -8.8200  -14.0942 N   0  0  0  0  0  0  0  0  0  0  0  0
   20.5374   -9.1096  -13.5491 C   0  0  0  0  0  0  0  0  0  0  0  0
   18.9257   -5.5581  -12.4276 O   0  0  0  0  0  0  0  0  0  0  0  0
   20.2026   -5.2762  -12.8379 O   0  0  0  0  0  0  0  0  0  0  0  0
  2  1  1  0
  3  2  1  0
  3  4  1  6
  5  3  1  0
  5  6  2  0
  7  8  1  0
  8  9  2  0
 10  8  1  0
 10 11  1  0
 11 12  1  0
 12 13  1  0
 14 13  1  1
 14 15  1  0
 15  5  1  0
 16 14  1  0
 17 16  2  0
 18 16  1  0
 19 18  1  0
 19 20  1  6
 20 21  1  0
 21 22  2  0
 22 23  1  0
 24 23  1  0
 25 21  1  0
 25 24  2  0
 26 27  1  0
 26 19  1  0
 28 26  2  0
M  END
$$$$
