SRH.pdb
     RDKit          3D

 28 28  0  0  1  0  0  0  0  0999 V2000
   23.9361  -25.9829  -17.5413 O   0  0  0  0  0  0  0  0  0  0  0  0
   24.2955  -25.0178  -16.6004 C   0  0  0  0  0  0  0  0  0  0  0  0
   25.7406  -24.6490  -16.8607 C   0  0  2  0  0  0  0  0  0  0  0  0
   26.5664  -25.8198  -16.7432 N   0  0  0  0  0  0  0  0  0  0  0  0
   26.2180  -23.5862  -15.9710 C   0  0  0  0  0  0  0  0  0  0  0  0
   26.9662  -23.8343  -14.9806 O   0  0  0  0  0  0  0  0  0  0  0  0
   27.1658  -15.7302  -18.5699 N   0  0  0  0  0  0  0  0  0  0  0  0
   25.9748  -16.3514  -18.1253 C   0  0  0  0  0  0  0  0  0  0  0  0
   24.8475  -16.0729  -18.6815 N   0  0  0  0  0  0  0  0  0  0  0  0
   25.9661  -17.3073  -17.0492 N   0  0  0  0  0  0  0  0  0  0  0  0
   27.2048  -17.6469  -16.3400 C   0  0  0  0  0  0  0  0  0  0  0  0
   26.8952  -18.7296  -15.2792 C   0  0  0  0  0  0  0  0  0  0  0  0
   26.5120  -19.9334  -16.0476 C   0  0  0  0  0  0  0  0  0  0  0  0
   26.1872  -21.1716  -15.2505 C   0  0  2  0  0  0  0  0  0  0  0  0
   25.8419  -22.2464  -16.2137 N   0  0  0  0  0  0  0  0  0  0  0  0
   25.1551  -21.0273  -14.2373 C   0  0  0  0  0  0  0  0  0  0  0  0
   24.0482  -20.4895  -14.5935 O   0  0  0  0  0  0  0  0  0  0  0  0
   23.9784  -16.5389  -18.3807 N   0  0  0  0  0  0  0  0  0  0  0  0
   25.2263  -21.4173  -12.8914 C   0  0  2  0  0  0  0  0  0  0  0  0
   24.5648  -20.7336  -11.7958 C   0  0  0  0  0  0  0  0  0  0  0  0
   25.4483  -19.6653  -11.1916 C   0  0  0  0  0  0  0  0  0  0  0  0
   26.8142  -20.1459  -10.8981 C   0  0  0  0  0  0  0  0  0  0  0  0
   27.2841  -21.4229  -11.0829 N   0  0  0  0  0  0  0  0  0  0  0  0
   28.5757  -21.4881  -10.7068 C   0  0  0  0  0  0  0  0  0  0  0  0
   28.9285  -20.2642  -10.2853 N   0  0  0  0  0  0  0  0  0  0  0  0
   27.8502  -19.4510  -10.4045 C   0  0  0  0  0  0  0  0  0  0  0  0
   23.3116  -20.0868  -12.1988 O   0  0  0  0  0  0  0  0  0  0  0  0
   22.1556  -20.3377  -11.5066 O   0  0  0  0  0  0  0  0  0  0  0  0
  2  1  1  0
  3  2  1  0
  3  4  1  1
  5  3  1  0
  5  6  2  0
  7  8  1  0
  8  9  2  0
 10  8  1  0
 10 11  1  0
 11 12  1  0
 12 13  1  0
 14 13  1  6
 14 15  1  0
 15  5  1  0
 16 14  1  0
 17 16  2  0
 18 16  1  0
 19 18  1  0
 19 20  1  6
 20 21  1  0
 21 22  2  0
 22 23  1  0
 24 23  1  0
 25 21  1  0
 25 24  2  0
 26 27  1  0
 26 19  1  0
 28 26  2  0
M  END
$$$$
