SRH.pdb
     RDKit          3D

 28 28  0  0  1  0  0  0  0  0999 V2000
   26.8607  -19.4712  -18.0650 O   0  0  0  0  0  0  0  0  0  0  0  0
   28.0383  -19.5546  -17.3220 C   0  0  0  0  0  0  0  0  0  0  0  0
   28.1612  -20.9806  -16.8283 C   0  0  2  0  0  0  0  0  0  0  0  0
   28.2947  -21.8700  -17.9498 N   0  0  0  0  0  0  0  0  0  0  0  0
   27.0343  -21.3805  -15.9804 C   0  0  0  0  0  0  0  0  0  0  0  0
   26.0687  -22.0609  -16.4353 O   0  0  0  0  0  0  0  0  0  0  0  0
   23.1553  -19.9056   -9.7551 N   0  0  0  0  0  0  0  0  0  0  0  0
   23.6324  -20.8352   -8.8010 C   0  0  0  0  0  0  0  0  0  0  0  0
   22.8813  -21.2114   -7.8253 N   0  0  0  0  0  0  0  0  0  0  0  0
   24.9564  -21.3951   -8.8740 N   0  0  0  0  0  0  0  0  0  0  0  0
   25.8689  -21.0195   -9.9598 C   0  0  0  0  0  0  0  0  0  0  0  0
   25.1935  -21.3362  -11.3152 C   0  0  0  0  0  0  0  0  0  0  0  0
   26.2102  -21.0235  -12.3425 C   0  0  0  0  0  0  0  0  0  0  0  0
   25.8136  -21.2499  -13.7797 C   0  0  2  0  0  0  0  0  0  0  0  0
   27.0126  -21.0045  -14.6190 N   0  0  0  0  0  0  0  0  0  0  0  0
   24.6758  -20.4820  -14.2576 C   0  0  0  0  0  0  0  0  0  0  0  0
   24.8434  -19.2239  -14.4327 O   0  0  0  0  0  0  0  0  0  0  0  0
   23.2071  -21.9158   -7.1465 N   0  0  0  0  0  0  0  0  0  0  0  0
   23.3930  -20.9635  -14.5593 C   0  0  2  0  0  0  0  0  0  0  0  0
   22.2852  -20.1414  -15.0092 C   0  0  0  0  0  0  0  0  0  0  0  0
   21.7897  -20.5719  -16.3715 C   0  0  0  0  0  0  0  0  0  0  0  0
   20.7437  -19.6794  -16.9122 C   0  0  0  0  0  0  0  0  0  0  0  0
   20.9226  -18.6906  -17.8481 N   0  0  0  0  0  0  0  0  0  0  0  0
   19.7452  -18.0863  -18.0980 C   0  0  0  0  0  0  0  0  0  0  0  0
   18.8218  -18.6831  -17.3289 N   0  0  0  0  0  0  0  0  0  0  0  0
   19.4372  -19.6531  -16.6087 C   0  0  0  0  0  0  0  0  0  0  0  0
   21.1380  -20.1785  -14.0960 O   0  0  0  0  0  0  0  0  0  0  0  0
   20.2187  -19.1620  -14.1064 O   0  0  0  0  0  0  0  0  0  0  0  0
  2  1  1  0
  3  2  1  0
  3  4  1  6
  5  3  1  0
  5  6  2  0
  7  8  1  0
  8  9  2  0
 10  8  1  0
 10 11  1  0
 11 12  1  0
 12 13  1  0
 14 13  1  1
 14 15  1  0
 15  5  1  0
 16 14  1  0
 17 16  2  0
 18 16  1  0
 19 18  1  0
 19 20  1  6
 20 21  1  0
 21 22  2  0
 22 23  1  0
 24 23  1  0
 25 21  1  0
 25 24  2  0
 26 27  1  0
 26 19  1  0
 28 26  2  0
M  END
$$$$
