SRH.pdb
     RDKit          3D

 28 28  0  0  1  0  0  0  0  0999 V2000
   24.2512  -12.0530  -16.0990 O   0  0  0  0  0  0  0  0  0  0  0  0
   23.3499  -12.5618  -15.1639 C   0  0  0  0  0  0  0  0  0  0  0  0
   21.9813  -12.5664  -15.8112 C   0  0  2  0  0  0  0  0  0  0  0  0
   22.0243  -13.3337  -17.0261 N   0  0  0  0  0  0  0  0  0  0  0  0
   21.4775  -11.2142  -16.0694 C   0  0  0  0  0  0  0  0  0  0  0  0
   21.4816  -10.7140  -17.2322 O   0  0  0  0  0  0  0  0  0  0  0  0
   13.7887   -9.5185  -13.8556 N   0  0  0  0  0  0  0  0  0  0  0  0
   14.1200  -10.0471  -15.1256 C   0  0  0  0  0  0  0  0  0  0  0  0
   13.1957  -10.4618  -15.9203 N   0  0  0  0  0  0  0  0  0  0  0  0
   15.4815  -10.1450  -15.5820 N   0  0  0  0  0  0  0  0  0  0  0  0
   16.5831   -9.6180  -14.7688 C   0  0  0  0  0  0  0  0  0  0  0  0
   17.8968   -9.7141  -15.5803 C   0  0  0  0  0  0  0  0  0  0  0  0
   18.9455   -9.1623  -14.6959 C   0  0  0  0  0  0  0  0  0  0  0  0
   20.3462   -9.1159  -15.2523 C   0  0  2  0  0  0  0  0  0  0  0  0
   20.9711  -10.4387  -15.0029 N   0  0  0  0  0  0  0  0  0  0  0  0
   21.1923   -8.0389  -14.7655 C   0  0  0  0  0  0  0  0  0  0  0  0
   21.7420   -8.1915  -13.6184 O   0  0  0  0  0  0  0  0  0  0  0  0
   13.4273  -10.8417  -16.8503 N   0  0  0  0  0  0  0  0  0  0  0  0
   21.4874   -6.8311  -15.4156 C   0  0  2  0  0  0  0  0  0  0  0  0
   22.3630   -5.8007  -14.8896 C   0  0  0  0  0  0  0  0  0  0  0  0
   23.1154   -5.0923  -15.9937 C   0  0  0  0  0  0  0  0  0  0  0  0
   23.9417   -6.0082  -16.8068 C   0  0  0  0  0  0  0  0  0  0  0  0
   24.4305   -7.2292  -16.4120 N   0  0  0  0  0  0  0  0  0  0  0  0
   25.1390   -7.7789  -17.4170 C   0  0  0  0  0  0  0  0  0  0  0  0
   25.1035   -6.9173  -18.4450 N   0  0  0  0  0  0  0  0  0  0  0  0
   24.3722   -5.8402  -18.0662 C   0  0  0  0  0  0  0  0  0  0  0  0
   21.6448   -4.7761  -14.1242 O   0  0  0  0  0  0  0  0  0  0  0  0
   22.3427   -3.8319  -13.4171 O   0  0  0  0  0  0  0  0  0  0  0  0
  2  1  1  0
  3  2  1  0
  3  4  1  6
  5  3  1  0
  5  6  2  0
  7  8  1  0
  8  9  2  0
 10  8  1  0
 10 11  1  0
 11 12  1  0
 12 13  1  0
 14 13  1  1
 14 15  1  0
 15  5  1  0
 16 14  1  0
 17 16  2  0
 18 16  1  0
 19 18  1  0
 19 20  1  1
 20 21  1  0
 21 22  2  0
 22 23  1  0
 24 23  1  0
 25 21  1  0
 25 24  2  0
 26 27  1  0
 26 19  1  0
 28 26  2  0
M  END
$$$$
