MCY.pdb
     RDKit          3D

 27 27  0  0  1  0  0  0  0  0999 V2000
   24.4831  -31.0203   -7.1976 C   0  0  0  0  0  0  0  0  0  0  0  0
   23.8922  -32.7340   -7.0294 S   0  0  0  0  0  0  0  0  0  0  0  0
   25.2415  -33.8099   -6.4927 C   0  0  0  0  0  0  0  0  0  0  0  0
   26.1680  -33.0852   -5.5275 C   0  0  0  0  0  0  0  0  0  0  0  0
   27.2462  -34.0219   -5.0118 C   0  0  2  0  0  0  0  0  0  0  0  0
   27.5991  -34.9997   -6.0113 N   0  0  0  0  0  0  0  0  0  0  0  0
   26.7301  -34.6732   -3.7708 C   0  0  0  0  0  0  0  0  0  0  0  0
   25.9168  -35.6319   -3.9092 O   0  0  0  0  0  0  0  0  0  0  0  0
   27.1686  -34.1937   -2.5304 N   0  0  0  0  0  0  0  0  0  0  0  0
   26.7302  -34.8110   -1.3116 C   0  0  1  0  0  0  0  0  0  0  0  0
   27.8572  -35.6338   -0.6720 C   0  0  0  0  0  0  0  0  0  0  0  0
   27.3245  -36.3932    0.8617 S   0  0  0  0  0  0  0  0  0  0  0  0
   26.3719  -33.7803   -0.2782 C   0  0  0  0  0  0  0  0  0  0  0  0
   27.1620  -32.8271   -0.0722 O   0  0  0  0  0  0  0  0  0  0  0  0
   21.8546  -28.6636    5.1677 O   0  0  0  0  0  0  0  0  0  0  0  0
   22.2189  -29.5885    4.2171 C   0  0  0  0  0  0  0  0  0  0  0  0
   23.1088  -29.1795    3.2419 C   0  0  0  0  0  0  0  0  0  0  0  0
   23.4989  -30.0773    2.2708 C   0  0  0  0  0  0  0  0  0  0  0  0
   23.0197  -31.3850    2.2470 C   0  0  0  0  0  0  0  0  0  0  0  0
   23.4495  -32.2925    1.1830 C   0  0  0  0  0  0  0  0  0  0  0  0
   24.8034  -32.8858    1.4868 C   0  0  2  0  0  0  0  0  0  0  0  0
   25.1754  -33.8560    0.4633 N   0  0  0  0  0  0  0  0  0  0  0  0
   24.8650  -33.5359    2.8043 C   0  0  0  0  0  0  0  0  0  0  0  0
   25.0278  -32.8372    3.9839 O   0  0  0  0  0  0  0  0  0  0  0  0
   22.1339  -31.8005    3.2135 C   0  0  0  0  0  0  0  0  0  0  0  0
   21.7581  -30.8831    4.1754 C   0  0  0  0  0  0  0  0  0  0  0  0
   24.7686  -34.7843    2.8796 O   0  0  0  0  0  0  0  0  0  0  0  0
  2  1  1  0
  3  2  1  0
  4  5  1  0
  4  3  1  0
  5  6  1  6
  7  8  2  0
  7  5  1  0
  9  7  1  0
 10  9  1  0
 10 11  1  1
 12 11  1  0
 13 14  2  0
 13 10  1  0
 16 15  1  0
 17 16  2  0
 18 17  1  0
 19 25  1  0
 19 18  2  0
 20 19  1  0
 21 22  1  0
 21 20  1  6
 22 13  1  0
 23 21  1  0
 24 23  1  0
 25 26  2  0
 26 16  1  0
 27 23  2  0
M  END
$$$$
