MCY.pdb
     RDKit          3D

 27 27  0  0  1  0  0  0  0  0999 V2000
   31.1180  -35.4853  -13.8999 C   0  0  0  0  0  0  0  0  0  0  0  0
   31.3189  -36.0449  -15.6206 S   0  0  0  0  0  0  0  0  0  0  0  0
   30.2119  -35.1218  -16.7108 C   0  0  0  0  0  0  0  0  0  0  0  0
   29.5408  -33.9768  -15.9665 C   0  0  0  0  0  0  0  0  0  0  0  0
   28.6028  -33.2148  -16.8858 C   0  0  2  0  0  0  0  0  0  0  0  0
   29.3121  -32.1873  -17.6075 N   0  0  0  0  0  0  0  0  0  0  0  0
   27.5110  -32.6362  -16.0467 C   0  0  0  0  0  0  0  0  0  0  0  0
   27.4560  -31.3765  -15.9472 O   0  0  0  0  0  0  0  0  0  0  0  0
   26.6137  -33.5093  -15.4196 N   0  0  0  0  0  0  0  0  0  0  0  0
   25.5223  -32.9999  -14.6399 C   0  0  1  0  0  0  0  0  0  0  0  0
   24.1729  -33.4465  -15.2192 C   0  0  0  0  0  0  0  0  0  0  0  0
   22.8073  -32.9030  -14.1934 S   0  0  0  0  0  0  0  0  0  0  0  0
   25.5449  -33.5563  -13.2440 C   0  0  0  0  0  0  0  0  0  0  0  0
   25.4822  -34.7998  -13.0851 O   0  0  0  0  0  0  0  0  0  0  0  0
   26.0705  -34.0995   -4.4992 O   0  0  0  0  0  0  0  0  0  0  0  0
   26.1538  -33.6794   -5.8062 C   0  0  0  0  0  0  0  0  0  0  0  0
   25.3632  -32.6095   -6.1806 C   0  0  0  0  0  0  0  0  0  0  0  0
   25.4178  -32.1582   -7.4824 C   0  0  0  0  0  0  0  0  0  0  0  0
   26.2487  -32.7523   -8.4294 C   0  0  0  0  0  0  0  0  0  0  0  0
   26.2547  -32.2481   -9.8028 C   0  0  0  0  0  0  0  0  0  0  0  0
   25.5802  -33.2177  -10.7420 C   0  0  2  0  0  0  0  0  0  0  0  0
   25.6347  -32.7208  -12.1122 N   0  0  0  0  0  0  0  0  0  0  0  0
   24.1782  -33.4830  -10.3869 C   0  0  0  0  0  0  0  0  0  0  0  0
   23.7614  -34.6506   -9.7793 O   0  0  0  0  0  0  0  0  0  0  0  0
   27.0388  -33.8176   -8.0656 C   0  0  0  0  0  0  0  0  0  0  0  0
   26.9665  -34.2514   -6.7561 C   0  0  0  0  0  0  0  0  0  0  0  0
   23.3047  -32.6197  -10.6422 O   0  0  0  0  0  0  0  0  0  0  0  0
  2  1  1  0
  3  2  1  0
  4  5  1  0
  4  3  1  0
  5  6  1  1
  7  8  2  0
  7  5  1  0
  9  7  1  0
 10  9  1  0
 10 11  1  6
 12 11  1  0
 13 14  2  0
 13 10  1  0
 16 15  1  0
 17 16  2  0
 18 17  1  0
 19 25  1  0
 19 18  2  0
 20 19  1  0
 21 22  1  0
 21 20  1  1
 22 13  1  0
 23 21  1  0
 24 23  1  0
 25 26  2  0
 26 16  1  0
 27 23  2  0
M  END
$$$$
