MCY.pdb
     RDKit          3D

 27 27  0  0  1  0  0  0  0  0999 V2000
   15.8634  -11.9928  -17.1744 C   0  0  0  0  0  0  0  0  0  0  0  0
   16.1361  -13.7914  -17.1051 S   0  0  0  0  0  0  0  0  0  0  0  0
   17.7309  -14.2101  -17.8449 C   0  0  0  0  0  0  0  0  0  0  0  0
   18.7402  -13.0901  -17.6392 C   0  0  0  0  0  0  0  0  0  0  0  0
   20.0898  -13.4689  -18.2231 C   0  0  2  0  0  0  0  0  0  0  0  0
   20.6318  -14.6272  -17.5567 N   0  0  0  0  0  0  0  0  0  0  0  0
   20.9944  -12.2884  -18.0858 C   0  0  0  0  0  0  0  0  0  0  0  0
   21.7375  -12.2378  -17.0635 O   0  0  0  0  0  0  0  0  0  0  0  0
   20.9735  -11.3082  -19.0855 N   0  0  0  0  0  0  0  0  0  0  0  0
   21.8339  -10.1630  -19.0045 C   0  0  1  0  0  0  0  0  0  0  0  0
   22.2121   -9.6553  -20.4028 C   0  0  0  0  0  0  0  0  0  0  0  0
   23.4107   -8.3256  -20.3151 S   0  0  0  0  0  0  0  0  0  0  0  0
   21.1364   -9.0038  -18.3498 C   0  0  0  0  0  0  0  0  0  0  0  0
   19.9252   -8.7999  -18.6082 O   0  0  0  0  0  0  0  0  0  0  0  0
   18.4760   -9.2374  -11.5546 O   0  0  0  0  0  0  0  0  0  0  0  0
   19.3136   -8.6725  -12.4880 C   0  0  0  0  0  0  0  0  0  0  0  0
   18.8469   -7.5662  -13.1724 C   0  0  0  0  0  0  0  0  0  0  0  0
   19.6567   -6.9708  -14.1165 C   0  0  0  0  0  0  0  0  0  0  0  0
   20.9320   -7.4550  -14.3981 C   0  0  0  0  0  0  0  0  0  0  0  0
   21.7436   -6.7989  -15.4234 C   0  0  0  0  0  0  0  0  0  0  0  0
   21.1600   -7.0116  -16.7987 C   0  0  2  0  0  0  0  0  0  0  0  0
   21.8047   -8.1427  -17.4561 N   0  0  0  0  0  0  0  0  0  0  0  0
   21.2769   -5.8281  -17.6635 C   0  0  0  0  0  0  0  0  0  0  0  0
   22.0648   -5.7962  -18.7968 O   0  0  0  0  0  0  0  0  0  0  0  0
   21.4043   -8.5554  -13.7219 C   0  0  0  0  0  0  0  0  0  0  0  0
   20.5748   -9.1344  -12.7811 C   0  0  0  0  0  0  0  0  0  0  0  0
   20.6391   -4.7879  -17.3725 O   0  0  0  0  0  0  0  0  0  0  0  0
  2  1  1  0
  3  2  1  0
  4  5  1  0
  4  3  1  0
  5  6  1  1
  7  8  2  0
  7  5  1  0
  9  7  1  0
 10  9  1  0
 10 11  1  6
 12 11  1  0
 13 14  2  0
 13 10  1  0
 16 15  1  0
 17 16  2  0
 18 17  1  0
 19 25  1  0
 19 18  2  0
 20 19  1  0
 21 22  1  0
 21 20  1  1
 22 13  1  0
 23 21  1  0
 24 23  1  0
 25 26  2  0
 26 16  1  0
 27 23  2  0
M  END
$$$$
