MCY.pdb
     RDKit          3D

 27 27  0  0  1  0  0  0  0  0999 V2000
   26.8908  -20.3029  -19.6862 C   0  0  0  0  0  0  0  0  0  0  0  0
   28.2349  -19.7865  -18.5723 S   0  0  0  0  0  0  0  0  0  0  0  0
   28.8417  -21.2027  -17.6276 C   0  0  0  0  0  0  0  0  0  0  0  0
   27.7927  -21.6910  -16.6394 C   0  0  0  0  0  0  0  0  0  0  0  0
   27.4750  -20.6142  -15.6170 C   0  0  2  0  0  0  0  0  0  0  0  0
   28.6816  -20.1095  -15.0096 N   0  0  0  0  0  0  0  0  0  0  0  0
   26.5592  -21.2083  -14.5975 C   0  0  0  0  0  0  0  0  0  0  0  0
   25.6061  -21.9266  -15.0166 O   0  0  0  0  0  0  0  0  0  0  0  0
   26.8004  -20.9423  -13.2441 N   0  0  0  0  0  0  0  0  0  0  0  0
   25.8389  -21.3092  -12.2444 C   0  0  1  0  0  0  0  0  0  0  0  0
   26.2539  -20.7898  -10.8609 C   0  0  0  0  0  0  0  0  0  0  0  0
   24.9538  -21.0356   -9.6518 S   0  0  0  0  0  0  0  0  0  0  0  0
   24.5054  -20.6695  -12.5116 C   0  0  0  0  0  0  0  0  0  0  0  0
   24.4454  -19.4225  -12.6406 O   0  0  0  0  0  0  0  0  0  0  0  0
   16.7163  -19.1291  -15.9125 O   0  0  0  0  0  0  0  0  0  0  0  0
   18.0029  -19.4595  -15.5556 C   0  0  0  0  0  0  0  0  0  0  0  0
   18.3438  -20.7985  -15.5784 C   0  0  0  0  0  0  0  0  0  0  0  0
   19.6243  -21.1707  -15.2273 C   0  0  0  0  0  0  0  0  0  0  0  0
   20.5825  -20.2326  -14.8505 C   0  0  0  0  0  0  0  0  0  0  0  0
   21.9214  -20.6815  -14.4677 C   0  0  0  0  0  0  0  0  0  0  0  0
   22.0301  -20.8582  -12.9730 C   0  0  2  0  0  0  0  0  0  0  0  0
   23.3243  -21.4312  -12.6208 N   0  0  0  0  0  0  0  0  0  0  0  0
   20.9661  -21.7052  -12.4140 C   0  0  0  0  0  0  0  0  0  0  0  0
   19.8016  -21.1965  -11.8741 O   0  0  0  0  0  0  0  0  0  0  0  0
   20.2519  -18.8980  -14.8249 C   0  0  0  0  0  0  0  0  0  0  0  0
   18.9633  -18.5500  -15.1807 C   0  0  0  0  0  0  0  0  0  0  0  0
   21.1061  -22.9518  -12.4176 O   0  0  0  0  0  0  0  0  0  0  0  0
  2  1  1  0
  3  2  1  0
  4  5  1  0
  4  3  1  0
  5  6  1  1
  7  8  2  0
  7  5  1  0
  9  7  1  0
 10  9  1  0
 10 11  1  1
 12 11  1  0
 13 14  2  0
 13 10  1  0
 16 15  1  0
 17 16  2  0
 18 17  1  0
 19 25  1  0
 19 18  2  0
 20 19  1  0
 21 22  1  0
 21 20  1  6
 22 13  1  0
 23 21  1  0
 24 23  1  0
 25 26  2  0
 26 16  1  0
 27 23  2  0
M  END
$$$$
