MCY.pdb
     RDKit          3D

 27 27  0  0  1  0  0  0  0  0999 V2000
   22.4465  -17.2538  -19.5413 C   0  0  0  0  0  0  0  0  0  0  0  0
   20.7874  -16.5214  -19.6997 S   0  0  0  0  0  0  0  0  0  0  0  0
   20.1521  -16.0567  -18.0728 C   0  0  0  0  0  0  0  0  0  0  0  0
   20.9144  -16.7678  -16.9644 C   0  0  0  0  0  0  0  0  0  0  0  0
   20.1761  -18.0185  -16.5212 C   0  0  2  0  0  0  0  0  0  0  0  0
   18.9568  -17.6785  -15.8305 N   0  0  0  0  0  0  0  0  0  0  0  0
   21.0960  -18.8062  -15.6470 C   0  0  0  0  0  0  0  0  0  0  0  0
   21.2030  -18.4477  -14.4388 O   0  0  0  0  0  0  0  0  0  0  0  0
   21.7857  -19.8899  -16.2043 N   0  0  0  0  0  0  0  0  0  0  0  0
   22.5771  -20.7555  -15.3781 C   0  0  1  0  0  0  0  0  0  0  0  0
   22.3159  -22.2306  -15.7128 C   0  0  0  0  0  0  0  0  0  0  0  0
   20.6111  -22.6828  -15.3939 S   0  0  0  0  0  0  0  0  0  0  0  0
   24.0451  -20.5574  -15.6322 C   0  0  0  0  0  0  0  0  0  0  0  0
   24.4434  -20.4211  -16.8146 O   0  0  0  0  0  0  0  0  0  0  0  0
   25.0871  -21.2117   -8.6539 O   0  0  0  0  0  0  0  0  0  0  0  0
   25.5000  -20.7521   -9.8827 C   0  0  0  0  0  0  0  0  0  0  0  0
   26.7096  -21.2190  -10.3613 C   0  0  0  0  0  0  0  0  0  0  0  0
   27.1587  -20.7819  -11.5896 C   0  0  0  0  0  0  0  0  0  0  0  0
   26.4254  -19.8827  -12.3601 C   0  0  0  0  0  0  0  0  0  0  0  0
   26.9560  -19.4347  -13.6479 C   0  0  0  0  0  0  0  0  0  0  0  0
   26.4045  -20.2632  -14.7822 C   0  0  2  0  0  0  0  0  0  0  0  0
   24.9831  -20.5206  -14.5806 N   0  0  0  0  0  0  0  0  0  0  0  0
   27.1019  -21.5466  -14.9504 C   0  0  0  0  0  0  0  0  0  0  0  0
   28.3743  -21.6511  -15.4762 O   0  0  0  0  0  0  0  0  0  0  0  0
   25.2207  -19.4129  -11.8916 C   0  0  0  0  0  0  0  0  0  0  0  0
   24.7921  -19.8652  -10.6588 C   0  0  0  0  0  0  0  0  0  0  0  0
   26.5286  -22.6082  -14.6070 O   0  0  0  0  0  0  0  0  0  0  0  0
  2  1  1  0
  3  2  1  0
  4  5  1  0
  4  3  1  0
  5  6  1  1
  7  8  2  0
  7  5  1  0
  9  7  1  0
 10  9  1  0
 10 11  1  6
 12 11  1  0
 13 14  2  0
 13 10  1  0
 16 15  1  0
 17 16  2  0
 18 17  1  0
 19 25  1  0
 19 18  2  0
 20 19  1  0
 21 22  1  0
 21 20  1  1
 22 13  1  0
 23 21  1  0
 24 23  1  0
 25 26  2  0
 26 16  1  0
 27 23  2  0
M  END
$$$$
