MCY.pdb
     RDKit          3D

 27 27  0  0  1  0  0  0  0  0999 V2000
   30.5552  -17.8539  -18.3177 C   0  0  0  0  0  0  0  0  0  0  0  0
   29.2108  -16.7447  -17.7921 S   0  0  0  0  0  0  0  0  0  0  0  0
   27.6063  -17.5078  -18.1229 C   0  0  0  0  0  0  0  0  0  0  0  0
   27.2250  -18.4810  -17.0171 C   0  0  0  0  0  0  0  0  0  0  0  0
   28.1378  -19.6944  -17.0308 C   0  0  2  0  0  0  0  0  0  0  0  0
   27.9286  -20.4821  -18.2204 N   0  0  0  0  0  0  0  0  0  0  0  0
   27.8610  -20.4881  -15.7962 C   0  0  0  0  0  0  0  0  0  0  0  0
   26.9460  -21.3594  -15.8549 O   0  0  0  0  0  0  0  0  0  0  0  0
   28.6208  -20.2294  -14.6488 N   0  0  0  0  0  0  0  0  0  0  0  0
   28.4013  -20.9754  -13.4431 C   0  0  1  0  0  0  0  0  0  0  0  0
   29.6165  -20.8877  -12.5094 C   0  0  0  0  0  0  0  0  0  0  0  0
   29.1378  -20.3868  -10.8564 S   0  0  0  0  0  0  0  0  0  0  0  0
   27.2626  -20.4011  -12.6479 C   0  0  0  0  0  0  0  0  0  0  0  0
   27.2170  -19.1607  -12.4620 O   0  0  0  0  0  0  0  0  0  0  0  0
   19.2584  -18.9904   -9.5773 O   0  0  0  0  0  0  0  0  0  0  0  0
   20.3866  -19.5865  -10.0905 C   0  0  0  0  0  0  0  0  0  0  0  0
   20.7399  -19.2655  -11.3875 C   0  0  0  0  0  0  0  0  0  0  0  0
   21.8647  -19.8422  -11.9385 C   0  0  0  0  0  0  0  0  0  0  0  0
   22.6537  -20.7393  -11.2224 C   0  0  0  0  0  0  0  0  0  0  0  0
   23.8261  -21.3388  -11.8601 C   0  0  0  0  0  0  0  0  0  0  0  0
   25.1003  -20.6908  -11.3767 C   0  0  2  0  0  0  0  0  0  0  0  0
   26.2479  -21.2166  -12.1072 N   0  0  0  0  0  0  0  0  0  0  0  0
   25.3286  -20.8732   -9.9356 C   0  0  0  0  0  0  0  0  0  0  0  0
   24.9866  -19.9258   -8.9913 O   0  0  0  0  0  0  0  0  0  0  0  0
   22.3095  -21.0645   -9.9312 C   0  0  0  0  0  0  0  0  0  0  0  0
   21.1787  -20.4740   -9.4013 C   0  0  0  0  0  0  0  0  0  0  0  0
   25.8601  -21.9330   -9.5260 O   0  0  0  0  0  0  0  0  0  0  0  0
  2  1  1  0
  3  2  1  0
  4  5  1  0
  4  3  1  0
  5  6  1  6
  7  8  2  0
  7  5  1  0
  9  7  1  0
 10  9  1  0
 10 11  1  1
 12 11  1  0
 13 14  2  0
 13 10  1  0
 16 15  1  0
 17 16  2  0
 18 17  1  0
 19 25  1  0
 19 18  2  0
 20 19  1  0
 21 22  1  0
 21 20  1  6
 22 13  1  0
 23 21  1  0
 24 23  1  0
 25 26  2  0
 26 16  1  0
 27 23  2  0
M  END
$$$$
