MCY.pdb
     RDKit          3D

 27 27  0  0  1  0  0  0  0  0999 V2000
   26.4114   -9.0120  -21.2422 C   0  0  0  0  0  0  0  0  0  0  0  0
   25.3576  -10.4136  -21.7312 S   0  0  0  0  0  0  0  0  0  0  0  0
   23.6997   -9.8310  -22.1531 C   0  0  0  0  0  0  0  0  0  0  0  0
   22.9061   -9.4862  -20.9014 C   0  0  0  0  0  0  0  0  0  0  0  0
   22.6917  -10.7209  -20.0439 C   0  0  2  0  0  0  0  0  0  0  0  0
   21.5914  -11.5086  -20.5424 N   0  0  0  0  0  0  0  0  0  0  0  0
   22.4454  -10.2666  -18.6425 C   0  0  0  0  0  0  0  0  0  0  0  0
   21.2601   -9.9559  -18.3290 O   0  0  0  0  0  0  0  0  0  0  0  0
   23.5285  -10.2085  -17.7569 N   0  0  0  0  0  0  0  0  0  0  0  0
   23.3316   -9.8383  -16.3848 C   0  0  1  0  0  0  0  0  0  0  0  0
   24.4497  -10.3986  -15.4948 C   0  0  0  0  0  0  0  0  0  0  0  0
   24.2635  -12.1632  -15.2420 S   0  0  0  0  0  0  0  0  0  0  0  0
   23.4089   -8.3479  -16.2071 C   0  0  0  0  0  0  0  0  0  0  0  0
   24.1193   -7.6786  -16.9962 O   0  0  0  0  0  0  0  0  0  0  0  0
   21.1858   -0.2007  -16.4131 O   0  0  0  0  0  0  0  0  0  0  0  0
   21.3032   -1.5709  -16.4338 C   0  0  0  0  0  0  0  0  0  0  0  0
   22.5164   -2.1099  -16.0496 C   0  0  0  0  0  0  0  0  0  0  0  0
   22.6742   -3.4797  -16.0568 C   0  0  0  0  0  0  0  0  0  0  0  0
   21.6432   -4.3339  -16.4408 C   0  0  0  0  0  0  0  0  0  0  0  0
   21.8685   -5.7795  -16.4500 C   0  0  0  0  0  0  0  0  0  0  0  0
   22.4946   -6.2415  -15.1570 C   0  0  2  0  0  0  0  0  0  0  0  0
   22.7063   -7.6843  -15.1808 N   0  0  0  0  0  0  0  0  0  0  0  0
   21.6930   -5.8971  -13.9734 C   0  0  0  0  0  0  0  0  0  0  0  0
   21.9640   -4.8083  -13.1689 O   0  0  0  0  0  0  0  0  0  0  0  0
   20.4326   -3.8062  -16.8246 C   0  0  0  0  0  0  0  0  0  0  0  0
   20.2989   -2.4314  -16.8092 C   0  0  0  0  0  0  0  0  0  0  0  0
   20.7133   -6.6164  -13.6630 O   0  0  0  0  0  0  0  0  0  0  0  0
  2  1  1  0
  3  2  1  0
  4  5  1  0
  4  3  1  0
  5  6  1  6
  7  8  2  0
  7  5  1  0
  9  7  1  0
 10  9  1  0
 10 11  1  1
 12 11  1  0
 13 14  2  0
 13 10  1  0
 16 15  1  0
 17 16  2  0
 18 17  1  0
 19 25  1  0
 19 18  2  0
 20 19  1  0
 21 22  1  0
 21 20  1  6
 22 13  1  0
 23 21  1  0
 24 23  1  0
 25 26  2  0
 26 16  1  0
 27 23  2  0
M  END
$$$$
