MCY.pdb
     RDKit          3D

 27 27  0  0  1  0  0  0  0  0999 V2000
   23.4652  -17.8979  -18.0871 C   0  0  0  0  0  0  0  0  0  0  0  0
   21.6706  -18.1366  -18.2783 S   0  0  0  0  0  0  0  0  0  0  0  0
   20.8217  -16.5415  -18.2477 C   0  0  0  0  0  0  0  0  0  0  0  0
   21.7319  -15.4478  -17.7086 C   0  0  0  0  0  0  0  0  0  0  0  0
   21.0130  -14.6191  -16.6588 C   0  0  2  0  0  0  0  0  0  0  0  0
   19.5894  -14.8429  -16.7130 N   0  0  0  0  0  0  0  0  0  0  0  0
   21.3484  -13.1840  -16.9011 C   0  0  0  0  0  0  0  0  0  0  0  0
   22.5392  -12.8177  -16.6828 O   0  0  0  0  0  0  0  0  0  0  0  0
   20.3377  -12.3266  -17.3528 N   0  0  0  0  0  0  0  0  0  0  0  0
   20.6267  -10.9561  -17.6639 C   0  0  1  0  0  0  0  0  0  0  0  0
   19.4728  -10.3109  -18.4438 C   0  0  0  0  0  0  0  0  0  0  0  0
   19.1441  -11.1875  -19.9722 S   0  0  0  0  0  0  0  0  0  0  0  0
   20.7561  -10.1305  -16.4148 C   0  0  0  0  0  0  0  0  0  0  0  0
   19.8979  -10.2623  -15.5085 O   0  0  0  0  0  0  0  0  0  0  0  0
   27.6411  -10.3048  -17.1607 O   0  0  0  0  0  0  0  0  0  0  0  0
   26.5219  -10.0631  -16.3987 C   0  0  0  0  0  0  0  0  0  0  0  0
   25.8249   -8.8958  -16.6471 C   0  0  0  0  0  0  0  0  0  0  0  0
   24.6971   -8.6170  -15.9044 C   0  0  0  0  0  0  0  0  0  0  0  0
   24.2422   -9.4808  -14.9109 C   0  0  0  0  0  0  0  0  0  0  0  0
   23.0512   -9.1287  -14.1375 C   0  0  0  0  0  0  0  0  0  0  0  0
   22.0166   -8.4563  -15.0062 C   0  0  2  0  0  0  0  0  0  0  0  0
   21.8128   -9.2150  -16.2351 N   0  0  0  0  0  0  0  0  0  0  0  0
   22.3682   -7.0716  -15.3540 C   0  0  0  0  0  0  0  0  0  0  0  0
   22.6746   -6.6706  -16.6390 O   0  0  0  0  0  0  0  0  0  0  0  0
   24.9296  -10.6446  -14.6570 C   0  0  0  0  0  0  0  0  0  0  0  0
   26.0561  -10.9017  -15.4140 C   0  0  0  0  0  0  0  0  0  0  0  0
   22.3980   -6.1994  -14.4528 O   0  0  0  0  0  0  0  0  0  0  0  0
  2  1  1  0
  3  2  1  0
  4  5  1  0
  4  3  1  0
  5  6  1  6
  7  8  2  0
  7  5  1  0
  9  7  1  0
 10  9  1  0
 10 11  1  6
 12 11  1  0
 13 14  2  0
 13 10  1  0
 16 15  1  0
 17 16  2  0
 18 17  1  0
 19 25  1  0
 19 18  2  0
 20 19  1  0
 21 22  1  0
 21 20  1  6
 22 13  1  0
 23 21  1  0
 24 23  1  0
 25 26  2  0
 26 16  1  0
 27 23  2  0
M  END
$$$$
