MCY.pdb
     RDKit          3D

 27 27  0  0  1  0  0  0  0  0999 V2000
   29.1552  -17.9949  -17.9381 C   0  0  0  0  0  0  0  0  0  0  0  0
   28.4499  -18.8190  -16.4761 S   0  0  0  0  0  0  0  0  0  0  0  0
   28.1629  -20.5692  -16.8236 C   0  0  0  0  0  0  0  0  0  0  0  0
   27.5316  -21.2678  -15.6284 C   0  0  0  0  0  0  0  0  0  0  0  0
   27.0072  -20.2529  -14.6280 C   0  0  2  0  0  0  0  0  0  0  0  0
   28.0845  -19.6951  -13.8483 N   0  0  0  0  0  0  0  0  0  0  0  0
   26.0066  -20.9424  -13.7596 C   0  0  0  0  0  0  0  0  0  0  0  0
   25.2244  -21.7685  -14.3124 O   0  0  0  0  0  0  0  0  0  0  0  0
   25.9860  -20.6420  -12.3922 N   0  0  0  0  0  0  0  0  0  0  0  0
   24.9795  -21.2010  -11.5360 C   0  0  1  0  0  0  0  0  0  0  0  0
   25.3347  -20.9948  -10.0570 C   0  0  0  0  0  0  0  0  0  0  0  0
   27.0835  -21.2530   -9.7610 S   0  0  0  0  0  0  0  0  0  0  0  0
   23.6619  -20.5010  -11.7165 C   0  0  0  0  0  0  0  0  0  0  0  0
   23.5864  -19.2742  -11.4624 O   0  0  0  0  0  0  0  0  0  0  0  0
   20.6770  -16.2506  -17.6112 O   0  0  0  0  0  0  0  0  0  0  0  0
   20.9814  -17.3689  -16.8706 C   0  0  0  0  0  0  0  0  0  0  0  0
   22.0878  -17.3017  -16.0451 C   0  0  0  0  0  0  0  0  0  0  0  0
   22.4263  -18.4021  -15.2862 C   0  0  0  0  0  0  0  0  0  0  0  0
   21.6826  -19.5790  -15.3299 C   0  0  0  0  0  0  0  0  0  0  0  0
   22.0958  -20.7251  -14.5198 C   0  0  0  0  0  0  0  0  0  0  0  0
   21.5612  -20.6186  -13.1126 C   0  0  2  0  0  0  0  0  0  0  0  0
   22.5123  -21.1842  -12.1625 N   0  0  0  0  0  0  0  0  0  0  0  0
   20.2613  -21.2833  -12.9384 C   0  0  0  0  0  0  0  0  0  0  0  0
   19.0855  -20.5950  -12.7150 O   0  0  0  0  0  0  0  0  0  0  0  0
   20.5801  -19.6547  -16.1486 C   0  0  0  0  0  0  0  0  0  0  0  0
   20.2612  -18.5396  -16.8990 C   0  0  0  0  0  0  0  0  0  0  0  0
   20.1983  -22.5350  -12.9901 O   0  0  0  0  0  0  0  0  0  0  0  0
  2  1  1  0
  3  2  1  0
  4  5  1  0
  4  3  1  0
  5  6  1  1
  7  8  2  0
  7  5  1  0
  9  7  1  0
 10  9  1  0
 10 11  1  1
 12 11  1  0
 13 14  2  0
 13 10  1  0
 16 15  1  0
 17 16  2  0
 18 17  1  0
 19 25  1  0
 19 18  2  0
 20 19  1  0
 21 22  1  0
 21 20  1  6
 22 13  1  0
 23 21  1  0
 24 23  1  0
 25 26  2  0
 26 16  1  0
 27 23  2  0
M  END
$$$$
