DQN.pdb
     RDKit          3D

 26 25  0  0  1  0  0  0  0  0999 V2000
   24.0040  -22.1913  -12.5414 N   0  0  0  0  0  0  0  0  0  0  0  0
   23.6805  -20.9258  -13.1458 C   0  0  1  0  0  0  0  0  0  0  0  0
   22.5712  -20.3043  -12.3248 C   0  0  0  0  0  0  0  0  0  0  0  0
   21.3849  -21.1961  -12.3640 C   0  0  0  0  0  0  0  0  0  0  0  0
   21.2512  -22.0409  -13.2822 O   0  0  0  0  0  0  0  0  0  0  0  0
   24.8915  -20.0677  -13.1652 C   0  0  0  0  0  0  0  0  0  0  0  0
   24.7743  -18.8760  -13.5218 O   0  0  0  0  0  0  0  0  0  0  0  0
   20.3926  -21.1300  -11.3995 O   0  0  0  0  0  0  0  0  0  0  0  0
   30.2890  -21.0405  -10.0016 N   0  0  0  0  0  0  0  0  0  0  0  0
   30.1764  -21.8078  -11.1902 C   0  0  0  0  0  0  0  0  0  0  0  0
   30.9330  -22.7855  -11.3527 O   0  0  0  0  0  0  0  0  0  0  0  0
   29.1826  -21.4323  -12.1865 C   0  0  0  0  0  0  0  0  0  0  0  0
   28.3309  -20.2552  -11.8702 C   0  0  0  0  0  0  0  0  0  0  0  0
   27.3585  -19.8497  -12.9411 C   0  0  2  0  0  0  0  0  0  0  0  0
   26.1443  -20.6121  -12.7826 N   0  0  0  0  0  0  0  0  0  0  0  0
   27.8418  -19.9400  -14.3091 C   0  0  0  0  0  0  0  0  0  0  0  0
   28.3527  -20.9816  -14.8195 O   0  0  0  0  0  0  0  0  0  0  0  0
   25.1798  -21.1373  -18.6757 N   0  0  0  0  0  0  0  0  0  0  0  0
   26.2892  -20.3421  -18.2103 C   0  0  0  0  0  0  0  0  0  0  0  0
   27.2444  -20.1348  -19.0166 O   0  0  0  0  0  0  0  0  0  0  0  0
   26.2947  -19.8034  -16.8557 C   0  0  0  0  0  0  0  0  0  0  0  0
   27.5017  -18.9699  -16.6064 C   0  0  2  0  0  0  0  0  0  0  0  0
   27.7582  -18.8149  -15.1662 N   0  0  0  0  0  0  0  0  0  0  0  0
   27.3790  -17.6439  -17.2503 C   0  0  0  0  0  0  0  0  0  0  0  0
   26.1935  -16.9091  -17.0560 O   0  0  0  0  0  0  0  0  0  0  0  0
   28.2776  -17.1413  -17.9605 O   0  0  0  0  0  0  0  0  0  0  0  0
  2  1  1  1
  2  3  1  0
  4  3  1  0
  4  8  1  0
  5  4  2  0
  6  7  2  0
  6  2  1  0
  9 10  1  0
 10 12  1  0
 11 10  2  0
 12 13  1  0
 14 13  1  1
 14 15  1  0
 15  6  1  0
 16 14  1  0
 17 16  2  0
 19 20  2  0
 19 18  1  0
 21 19  1  0
 22 21  1  1
 22 23  1  0
 23 16  1  0
 24 22  1  0
 25 24  1  0
 26 24  2  0
M  END
$$$$
