DQN.pdb
     RDKit          3D

 26 25  0  0  1  0  0  0  0  0999 V2000
   16.3720  -10.3938  -16.0063 N   0  0  0  0  0  0  0  0  0  0  0  0
   17.0814  -10.6918  -14.7901 C   0  0  1  0  0  0  0  0  0  0  0  0
   17.3468  -12.1819  -14.7763 C   0  0  0  0  0  0  0  0  0  0  0  0
   16.0685  -12.8968  -14.5329 C   0  0  0  0  0  0  0  0  0  0  0  0
   15.0378  -12.2652  -14.1961 O   0  0  0  0  0  0  0  0  0  0  0  0
   18.3442   -9.9124  -14.7553 C   0  0  0  0  0  0  0  0  0  0  0  0
   19.1529  -10.1252  -13.8271 O   0  0  0  0  0  0  0  0  0  0  0  0
   15.9668  -14.2719  -14.6669 O   0  0  0  0  0  0  0  0  0  0  0  0
   20.7492   -6.5887  -19.6332 N   0  0  0  0  0  0  0  0  0  0  0  0
   21.5626   -6.1994  -18.5372 C   0  0  0  0  0  0  0  0  0  0  0  0
   22.5014   -5.4027  -18.7338 O   0  0  0  0  0  0  0  0  0  0  0  0
   21.2796   -6.7411  -17.2152 C   0  0  0  0  0  0  0  0  0  0  0  0
   20.1104   -7.6528  -17.1028 C   0  0  0  0  0  0  0  0  0  0  0  0
   19.7901   -8.1314  -15.7152 C   0  0  2  0  0  0  0  0  0  0  0  0
   18.6047   -8.9517  -15.7661 N   0  0  0  0  0  0  0  0  0  0  0  0
   19.6526   -7.0998  -14.7004 C   0  0  0  0  0  0  0  0  0  0  0  0
   18.6912   -6.2759  -14.6443 O   0  0  0  0  0  0  0  0  0  0  0  0
   18.1410   -5.9673  -11.6635 N   0  0  0  0  0  0  0  0  0  0  0  0
   19.2650   -6.2965  -10.8220 C   0  0  0  0  0  0  0  0  0  0  0  0
   19.0259   -6.6244   -9.6216 O   0  0  0  0  0  0  0  0  0  0  0  0
   20.6226   -6.2483  -11.3510 C   0  0  0  0  0  0  0  0  0  0  0  0
   20.6371   -5.8137  -12.7739 C   0  0  2  0  0  0  0  0  0  0  0  0
   20.6338   -6.9672  -13.6869 N   0  0  0  0  0  0  0  0  0  0  0  0
   21.7977   -4.9411  -13.0554 C   0  0  0  0  0  0  0  0  0  0  0  0
   21.9222   -3.7356  -12.3383 O   0  0  0  0  0  0  0  0  0  0  0  0
   22.6763   -5.2209  -13.9006 O   0  0  0  0  0  0  0  0  0  0  0  0
  2  1  1  6
  2  3  1  0
  4  3  1  0
  4  8  1  0
  5  4  2  0
  6  7  2  0
  6  2  1  0
  9 10  1  0
 10 12  1  0
 11 10  2  0
 12 13  1  0
 14 13  1  6
 14 15  1  0
 15  6  1  0
 16 14  1  0
 17 16  2  0
 19 20  2  0
 19 18  1  0
 21 19  1  0
 22 21  1  1
 22 23  1  0
 23 16  1  0
 24 22  1  0
 25 24  1  0
 26 24  2  0
M  END
$$$$
