DQN.pdb
     RDKit          3D

 26 25  0  0  1  0  0  0  0  0999 V2000
   14.8907  -12.1340  -14.0922 N   0  0  0  0  0  0  0  0  0  0  0  0
   14.9355  -10.7821  -14.5837 C   0  0  1  0  0  0  0  0  0  0  0  0
   14.2230   -9.9105  -13.5721 C   0  0  0  0  0  0  0  0  0  0  0  0
   12.7703  -10.2142  -13.6125 C   0  0  0  0  0  0  0  0  0  0  0  0
   12.3165  -11.0571  -14.4239 O   0  0  0  0  0  0  0  0  0  0  0  0
   16.3509  -10.3703  -14.7581 C   0  0  0  0  0  0  0  0  0  0  0  0
   17.2253  -10.9238  -14.0581 O   0  0  0  0  0  0  0  0  0  0  0  0
   11.8716   -9.5859  -12.7659 O   0  0  0  0  0  0  0  0  0  0  0  0
   20.2868   -7.9237  -20.2164 N   0  0  0  0  0  0  0  0  0  0  0  0
   19.7810   -9.0295  -19.4846 C   0  0  0  0  0  0  0  0  0  0  0  0
   19.5156  -10.0859  -20.0916 O   0  0  0  0  0  0  0  0  0  0  0  0
   19.5850   -8.9002  -18.0472 C   0  0  0  0  0  0  0  0  0  0  0  0
   18.2124   -9.1530  -17.5344 C   0  0  0  0  0  0  0  0  0  0  0  0
   18.0544   -9.0919  -16.0417 C   0  0  2  0  0  0  0  0  0  0  0  0
   16.6789   -9.3671  -15.7059 N   0  0  0  0  0  0  0  0  0  0  0  0
   18.4990   -7.8642  -15.4028 C   0  0  0  0  0  0  0  0  0  0  0  0
   17.7847   -6.8250  -15.2763 O   0  0  0  0  0  0  0  0  0  0  0  0
   21.3524   -4.2798  -13.1103 N   0  0  0  0  0  0  0  0  0  0  0  0
   21.9839   -5.5411  -12.8103 C   0  0  0  0  0  0  0  0  0  0  0  0
   22.9474   -5.5364  -11.9874 O   0  0  0  0  0  0  0  0  0  0  0  0
   21.5167   -6.7693  -13.4414 C   0  0  0  0  0  0  0  0  0  0  0  0
   20.3093   -6.5269  -14.2765 C   0  0  2  0  0  0  0  0  0  0  0  0
   19.8098   -7.7757  -14.8722 N   0  0  0  0  0  0  0  0  0  0  0  0
   20.5810   -5.5282  -15.3332 C   0  0  0  0  0  0  0  0  0  0  0  0
   20.1565   -4.2011  -15.1293 O   0  0  0  0  0  0  0  0  0  0  0  0
   21.1703   -5.8040  -16.4015 O   0  0  0  0  0  0  0  0  0  0  0  0
  2  1  1  1
  2  3  1  0
  4  3  1  0
  4  8  1  0
  5  4  2  0
  6  7  2  0
  6  2  1  0
  9 10  1  0
 10 12  1  0
 11 10  2  0
 12 13  1  0
 14 13  1  6
 14 15  1  0
 15  6  1  0
 16 14  1  0
 17 16  2  0
 19 20  2  0
 19 18  1  0
 21 19  1  0
 22 21  1  6
 22 23  1  0
 23 16  1  0
 24 22  1  0
 25 24  1  0
 26 24  2  0
M  END
$$$$
