DQN.pdb
     RDKit          3D

 26 25  0  0  1  0  0  0  0  0999 V2000
   14.5863  -11.8180  -12.2321 N   0  0  0  0  0  0  0  0  0  0  0  0
   15.8649  -11.2108  -12.4924 C   0  0  1  0  0  0  0  0  0  0  0  0
   16.1450  -11.3655  -13.9718 C   0  0  0  0  0  0  0  0  0  0  0  0
   16.3217  -12.8068  -14.2807 C   0  0  0  0  0  0  0  0  0  0  0  0
   16.7232  -13.6043  -13.3989 O   0  0  0  0  0  0  0  0  0  0  0  0
   15.8201   -9.7822  -12.0920 C   0  0  0  0  0  0  0  0  0  0  0  0
   14.7087   -9.2160  -12.0200 O   0  0  0  0  0  0  0  0  0  0  0  0
   16.0532  -13.3196  -15.5394 O   0  0  0  0  0  0  0  0  0  0  0  0
   14.1674   -7.3033   -8.0964 N   0  0  0  0  0  0  0  0  0  0  0  0
   14.9651   -6.1825   -8.4451 C   0  0  0  0  0  0  0  0  0  0  0  0
   14.8020   -5.1097   -7.8309 O   0  0  0  0  0  0  0  0  0  0  0  0
   15.9501   -6.3154   -9.5097 C   0  0  0  0  0  0  0  0  0  0  0  0
   16.0813   -7.6582  -10.1349 C   0  0  0  0  0  0  0  0  0  0  0  0
   17.0044   -7.7374  -11.3175 C   0  0  2  0  0  0  0  0  0  0  0  0
   17.0272   -9.0958  -11.8020 N   0  0  0  0  0  0  0  0  0  0  0  0
   18.3571   -7.2496  -11.1047 C   0  0  0  0  0  0  0  0  0  0  0  0
   19.2602   -7.8920  -10.4899 O   0  0  0  0  0  0  0  0  0  0  0  0
   22.4285   -5.5999  -13.5804 N   0  0  0  0  0  0  0  0  0  0  0  0
   21.4950   -6.5961  -14.0452 C   0  0  0  0  0  0  0  0  0  0  0  0
   21.8291   -7.2935  -15.0489 O   0  0  0  0  0  0  0  0  0  0  0  0
   20.2155   -6.7805  -13.3713 C   0  0  0  0  0  0  0  0  0  0  0  0
   20.0215   -5.7788  -12.2883 C   0  0  2  0  0  0  0  0  0  0  0  0
   18.7377   -5.9771  -11.5982 N   0  0  0  0  0  0  0  0  0  0  0  0
   20.1133   -4.3988  -12.8127 C   0  0  0  0  0  0  0  0  0  0  0  0
   21.2428   -3.6266  -12.4797 O   0  0  0  0  0  0  0  0  0  0  0  0
   19.2357   -3.8820  -13.5389 O   0  0  0  0  0  0  0  0  0  0  0  0
  2  1  1  6
  2  3  1  0
  4  3  1  0
  4  8  1  0
  5  4  2  0
  6  7  2  0
  6  2  1  0
  9 10  1  0
 10 12  1  0
 11 10  2  0
 12 13  1  0
 14 13  1  1
 14 15  1  0
 15  6  1  0
 16 14  1  0
 17 16  2  0
 19 20  2  0
 19 18  1  0
 21 19  1  0
 22 21  1  6
 22 23  1  0
 23 16  1  0
 24 22  1  0
 25 24  1  0
 26 24  2  0
M  END
$$$$
