DQN.pdb
     RDKit          3D

 26 25  0  0  1  0  0  0  0  0999 V2000
   16.9964  -11.2933  -14.4405 N   0  0  0  0  0  0  0  0  0  0  0  0
   16.6818   -9.8897  -14.3936 C   0  0  1  0  0  0  0  0  0  0  0  0
   15.1785   -9.7601  -14.5139 C   0  0  0  0  0  0  0  0  0  0  0  0
   14.7747  -10.1038  -15.9007 C   0  0  0  0  0  0  0  0  0  0  0  0
   13.5801  -10.3799  -16.1680 O   0  0  0  0  0  0  0  0  0  0  0  0
   17.1782   -9.3181  -13.1169 C   0  0  0  0  0  0  0  0  0  0  0  0
   16.9774   -9.9526  -12.0595 O   0  0  0  0  0  0  0  0  0  0  0  0
   15.6908  -10.1321  -16.9395 O   0  0  0  0  0  0  0  0  0  0  0  0
   21.8639   -5.3051  -12.8278 N   0  0  0  0  0  0  0  0  0  0  0  0
   21.8924   -6.7240  -12.8417 C   0  0  0  0  0  0  0  0  0  0  0  0
   22.9547   -7.3045  -13.1405 O   0  0  0  0  0  0  0  0  0  0  0  0
   20.6820   -7.4621  -12.5079 C   0  0  0  0  0  0  0  0  0  0  0  0
   19.5004   -6.6577  -12.0982 C   0  0  0  0  0  0  0  0  0  0  0  0
   18.2297   -7.4304  -11.8861 C   0  0  2  0  0  0  0  0  0  0  0  0
   17.8636   -8.0760  -13.1229 N   0  0  0  0  0  0  0  0  0  0  0  0
   17.1066   -6.6772  -11.3526 C   0  0  0  0  0  0  0  0  0  0  0  0
   16.2942   -6.0086  -12.0592 O   0  0  0  0  0  0  0  0  0  0  0  0
   12.8283   -6.2774   -7.5996 N   0  0  0  0  0  0  0  0  0  0  0  0
   14.1816   -5.7882   -7.5043 C   0  0  0  0  0  0  0  0  0  0  0  0
   14.3711   -4.6955   -6.8916 O   0  0  0  0  0  0  0  0  0  0  0  0
   15.2814   -6.5383   -8.0986 C   0  0  0  0  0  0  0  0  0  0  0  0
   15.7115   -5.9408   -9.3916 C   0  0  2  0  0  0  0  0  0  0  0  0
   16.8644   -6.6587   -9.9568 N   0  0  0  0  0  0  0  0  0  0  0  0
   16.0278   -4.5040   -9.2386 C   0  0  0  0  0  0  0  0  0  0  0  0
   15.0299   -3.5594   -9.5464 O   0  0  0  0  0  0  0  0  0  0  0  0
   17.1399   -4.0850   -8.8485 O   0  0  0  0  0  0  0  0  0  0  0  0
  2  1  1  1
  2  3  1  0
  4  3  1  0
  4  8  1  0
  5  4  2  0
  6  7  2  0
  6  2  1  0
  9 10  1  0
 10 12  1  0
 11 10  2  0
 12 13  1  0
 14 13  1  6
 14 15  1  0
 15  6  1  0
 16 14  1  0
 17 16  2  0
 19 20  2  0
 19 18  1  0
 21 19  1  0
 22 21  1  1
 22 23  1  0
 23 16  1  0
 24 22  1  0
 25 24  1  0
 26 24  2  0
M  END
$$$$
