DQN.pdb
     RDKit          3D

 26 25  0  0  1  0  0  0  0  0999 V2000
   14.0543  -11.5784  -12.5532 N   0  0  0  0  0  0  0  0  0  0  0  0
   15.3642  -11.2949  -12.0287 C   0  0  1  0  0  0  0  0  0  0  0  0
   16.3696  -11.9686  -12.9376 C   0  0  0  0  0  0  0  0  0  0  0  0
   16.2508  -13.4402  -12.7809 C   0  0  0  0  0  0  0  0  0  0  0  0
   15.7457  -13.9331  -11.7433 O   0  0  0  0  0  0  0  0  0  0  0  0
   15.5674   -9.8252  -11.9846 C   0  0  0  0  0  0  0  0  0  0  0  0
   15.0992   -9.1288  -12.9102 O   0  0  0  0  0  0  0  0  0  0  0  0
   16.6880  -14.3142  -13.7627 O   0  0  0  0  0  0  0  0  0  0  0  0
   14.8980   -6.2481   -7.1458 N   0  0  0  0  0  0  0  0  0  0  0  0
   13.9944   -6.8118   -8.0838 C   0  0  0  0  0  0  0  0  0  0  0  0
   12.7779   -6.8373   -7.8114 O   0  0  0  0  0  0  0  0  0  0  0  0
   14.5118   -7.3449   -9.3366 C   0  0  0  0  0  0  0  0  0  0  0  0
   15.9876   -7.3158   -9.5163 C   0  0  0  0  0  0  0  0  0  0  0  0
   16.4917   -7.8215  -10.8381 C   0  0  2  0  0  0  0  0  0  0  0  0
   16.2814   -9.2470  -10.9038 N   0  0  0  0  0  0  0  0  0  0  0  0
   17.8704   -7.4944  -11.1624 C   0  0  0  0  0  0  0  0  0  0  0  0
   18.8733   -8.1720  -10.7865 O   0  0  0  0  0  0  0  0  0  0  0  0
   22.6101   -7.1647  -12.9060 N   0  0  0  0  0  0  0  0  0  0  0  0
   21.4368   -6.8424  -13.6800 C   0  0  0  0  0  0  0  0  0  0  0  0
   21.6073   -6.2702  -14.7976 O   0  0  0  0  0  0  0  0  0  0  0  0
   20.1080   -7.1709  -13.1783 C   0  0  0  0  0  0  0  0  0  0  0  0
   19.5359   -6.0530  -12.3802 C   0  0  2  0  0  0  0  0  0  0  0  0
   18.1620   -6.3515  -11.9474 N   0  0  0  0  0  0  0  0  0  0  0  0
   19.5698   -4.7827  -13.1371 C   0  0  0  0  0  0  0  0  0  0  0  0
   20.7631   -4.0350  -13.1428 O   0  0  0  0  0  0  0  0  0  0  0  0
   18.5893   -4.3382  -13.7740 O   0  0  0  0  0  0  0  0  0  0  0  0
  2  1  1  6
  2  3  1  0
  4  3  1  0
  4  8  1  0
  5  4  2  0
  6  7  2  0
  6  2  1  0
  9 10  1  0
 10 12  1  0
 11 10  2  0
 12 13  1  0
 14 13  1  1
 14 15  1  0
 15  6  1  0
 16 14  1  0
 17 16  2  0
 19 20  2  0
 19 18  1  0
 21 19  1  0
 22 21  1  6
 22 23  1  0
 23 16  1  0
 24 22  1  0
 25 24  1  0
 26 24  2  0
M  END
$$$$
