DQN.pdb
     RDKit          3D

 26 25  0  0  1  0  0  0  0  0999 V2000
   23.5768  -13.2337  -16.0188 N   0  0  0  0  0  0  0  0  0  0  0  0
   24.1144  -12.4354  -17.0888 C   0  0  1  0  0  0  0  0  0  0  0  0
   24.1918  -13.3185  -18.3155 C   0  0  0  0  0  0  0  0  0  0  0  0
   25.2501  -14.3390  -18.1088 C   0  0  0  0  0  0  0  0  0  0  0  0
   26.1326  -14.1751  -17.2318 O   0  0  0  0  0  0  0  0  0  0  0  0
   23.2339  -11.2622  -17.3156 C   0  0  0  0  0  0  0  0  0  0  0  0
   23.5266  -10.4627  -18.2300 O   0  0  0  0  0  0  0  0  0  0  0  0
   25.3024  -15.4971  -18.8673 O   0  0  0  0  0  0  0  0  0  0  0  0
   17.1036  -11.1463  -16.6635 N   0  0  0  0  0  0  0  0  0  0  0  0
   17.8834  -11.3997  -15.5051 C   0  0  0  0  0  0  0  0  0  0  0  0
   17.3460  -11.9477  -14.5224 O   0  0  0  0  0  0  0  0  0  0  0  0
   19.2874  -11.0125  -15.4954 C   0  0  0  0  0  0  0  0  0  0  0  0
   19.8116  -10.3687  -16.7290 C   0  0  0  0  0  0  0  0  0  0  0  0
   21.2436   -9.9186  -16.6694 C   0  0  2  0  0  0  0  0  0  0  0  0
   22.0897  -11.0743  -16.4983 N   0  0  0  0  0  0  0  0  0  0  0  0
   21.5537   -8.9081  -15.6715 C   0  0  0  0  0  0  0  0  0  0  0  0
   22.0462   -9.1574  -14.5306 O   0  0  0  0  0  0  0  0  0  0  0  0
   22.1084   -4.4292  -13.2339 N   0  0  0  0  0  0  0  0  0  0  0  0
   22.5781   -4.2986  -14.5911 C   0  0  0  0  0  0  0  0  0  0  0  0
   23.1791   -3.2285  -14.9060 O   0  0  0  0  0  0  0  0  0  0  0  0
   22.3599   -5.3709  -15.5543 C   0  0  0  0  0  0  0  0  0  0  0  0
   21.5964   -6.4967  -14.9517 C   0  0  2  0  0  0  0  0  0  0  0  0
   21.3053   -7.5405  -15.9466 N   0  0  0  0  0  0  0  0  0  0  0  0
   20.3428   -6.0202  -14.3277 C   0  0  0  0  0  0  0  0  0  0  0  0
   19.1746   -5.9781  -15.1129 O   0  0  0  0  0  0  0  0  0  0  0  0
   20.2682   -5.6518  -13.1347 O   0  0  0  0  0  0  0  0  0  0  0  0
  2  1  1  1
  2  3  1  0
  4  3  1  0
  4  8  1  0
  5  4  2  0
  6  7  2  0
  6  2  1  0
  9 10  1  0
 10 12  1  0
 11 10  2  0
 12 13  1  0
 14 13  1  1
 14 15  1  0
 15  6  1  0
 16 14  1  0
 17 16  2  0
 19 20  2  0
 19 18  1  0
 21 19  1  0
 22 21  1  6
 22 23  1  0
 23 16  1  0
 24 22  1  0
 25 24  1  0
 26 24  2  0
M  END
$$$$
