DQN.pdb
     RDKit          3D

 26 25  0  0  1  0  0  0  0  0999 V2000
   21.6123  -20.7929  -12.4530 N   0  0  0  0  0  0  0  0  0  0  0  0
   21.6758  -21.0744  -13.8630 C   0  0  1  0  0  0  0  0  0  0  0  0
   20.2582  -21.0471  -14.3927 C   0  0  0  0  0  0  0  0  0  0  0  0
   19.5354  -22.2455  -13.8972 C   0  0  0  0  0  0  0  0  0  0  0  0
   18.3094  -22.1890  -13.6355 O   0  0  0  0  0  0  0  0  0  0  0  0
   22.5267  -20.0564  -14.5286 C   0  0  0  0  0  0  0  0  0  0  0  0
   22.3830  -18.8566  -14.2109 O   0  0  0  0  0  0  0  0  0  0  0  0
   20.1798  -23.4571  -13.7073 O   0  0  0  0  0  0  0  0  0  0  0  0
   28.0867  -21.3646  -17.1280 N   0  0  0  0  0  0  0  0  0  0  0  0
   27.4625  -21.7027  -15.8991 C   0  0  0  0  0  0  0  0  0  0  0  0
   28.0181  -22.5258  -15.1451 O   0  0  0  0  0  0  0  0  0  0  0  0
   26.1917  -21.0808  -15.5533 C   0  0  0  0  0  0  0  0  0  0  0  0
   25.6041  -20.1571  -16.5594 C   0  0  0  0  0  0  0  0  0  0  0  0
   24.3177  -19.4924  -16.1588 C   0  0  2  0  0  0  0  0  0  0  0  0
   23.4759  -20.4620  -15.5017 N   0  0  0  0  0  0  0  0  0  0  0  0
   23.5881  -18.8217  -17.2223 C   0  0  0  0  0  0  0  0  0  0  0  0
   22.9635  -19.4204  -18.1484 O   0  0  0  0  0  0  0  0  0  0  0  0
   20.6553  -15.3866  -19.5617 N   0  0  0  0  0  0  0  0  0  0  0  0
   20.2096  -16.3525  -18.5880 C   0  0  0  0  0  0  0  0  0  0  0  0
   18.9617  -16.5377  -18.4706 O   0  0  0  0  0  0  0  0  0  0  0  0
   21.1758  -17.0815  -17.7754 C   0  0  0  0  0  0  0  0  0  0  0  0
   22.5726  -16.6999  -18.1175 C   0  0  2  0  0  0  0  0  0  0  0  0
   23.5446  -17.4063  -17.2688 N   0  0  0  0  0  0  0  0  0  0  0  0
   22.7690  -15.2376  -18.0131 C   0  0  0  0  0  0  0  0  0  0  0  0
   23.1532  -14.6978  -16.7705 O   0  0  0  0  0  0  0  0  0  0  0  0
   22.6106  -14.4546  -18.9755 O   0  0  0  0  0  0  0  0  0  0  0  0
  2  1  1  1
  2  3  1  0
  4  3  1  0
  4  8  1  0
  5  4  2  0
  6  7  2  0
  6  2  1  0
  9 10  1  0
 10 12  1  0
 11 10  2  0
 12 13  1  0
 14 13  1  6
 14 15  1  0
 15  6  1  0
 16 14  1  0
 17 16  2  0
 19 20  2  0
 19 18  1  0
 21 19  1  0
 22 21  1  1
 22 23  1  0
 23 16  1  0
 24 22  1  0
 25 24  1  0
 26 24  2  0
M  END
$$$$
