DQN.pdb
     RDKit          3D

 26 25  0  0  1  0  0  0  0  0999 V2000
   19.2698  -10.8622  -15.7468 N   0  0  0  0  0  0  0  0  0  0  0  0
   19.6322   -9.6210  -16.3787 C   0  0  1  0  0  0  0  0  0  0  0  0
   18.3621   -8.8170  -16.5552 C   0  0  0  0  0  0  0  0  0  0  0  0
   17.4511   -9.5496  -17.4703 C   0  0  0  0  0  0  0  0  0  0  0  0
   16.2628   -9.7796  -17.1392 O   0  0  0  0  0  0  0  0  0  0  0  0
   20.6165   -8.9066  -15.5278 C   0  0  0  0  0  0  0  0  0  0  0  0
   20.3167   -8.6671  -14.3388 O   0  0  0  0  0  0  0  0  0  0  0  0
   17.8738  -10.0017  -18.7098 O   0  0  0  0  0  0  0  0  0  0  0  0
   26.5470   -9.9842  -16.0304 N   0  0  0  0  0  0  0  0  0  0  0  0
   25.5044  -10.6744  -15.3589 C   0  0  0  0  0  0  0  0  0  0  0  0
   25.6796  -11.8651  -15.0329 O   0  0  0  0  0  0  0  0  0  0  0  0
   24.2602   -9.9746  -15.0704 C   0  0  0  0  0  0  0  0  0  0  0  0
   24.1855   -8.5474  -15.4810 C   0  0  0  0  0  0  0  0  0  0  0  0
   22.8620   -7.8738  -15.2538 C   0  0  2  0  0  0  0  0  0  0  0  0
   21.8648   -8.5141  -16.0760 N   0  0  0  0  0  0  0  0  0  0  0  0
   22.8369   -6.4338  -15.4510 C   0  0  0  0  0  0  0  0  0  0  0  0
   23.0139   -5.8622  -16.5682 O   0  0  0  0  0  0  0  0  0  0  0  0
   22.2500   -1.4291  -14.9795 N   0  0  0  0  0  0  0  0  0  0  0  0
   22.6619   -2.2602  -16.0838 C   0  0  0  0  0  0  0  0  0  0  0  0
   22.8898   -1.6939  -17.1941 O   0  0  0  0  0  0  0  0  0  0  0  0
   22.8058   -3.7005  -15.9104 C   0  0  0  0  0  0  0  0  0  0  0  0
   22.4039   -4.1269  -14.5428 C   0  0  2  0  0  0  0  0  0  0  0  0
   22.6037   -5.5716  -14.3512 N   0  0  0  0  0  0  0  0  0  0  0  0
   20.9987   -3.7622  -14.2596 C   0  0  0  0  0  0  0  0  0  0  0  0
   20.7443   -2.7471  -13.3174 O   0  0  0  0  0  0  0  0  0  0  0  0
   20.0227   -4.3116  -14.8165 O   0  0  0  0  0  0  0  0  0  0  0  0
  2  1  1  1
  2  3  1  0
  4  3  1  0
  4  8  1  0
  5  4  2  0
  6  7  2  0
  6  2  1  0
  9 10  1  0
 10 12  1  0
 11 10  2  0
 12 13  1  0
 14 13  1  6
 14 15  1  0
 15  6  1  0
 16 14  1  0
 17 16  2  0
 19 20  2  0
 19 18  1  0
 21 19  1  0
 22 21  1  6
 22 23  1  0
 23 16  1  0
 24 22  1  0
 25 24  1  0
 26 24  2  0
M  END
$$$$
