DQN.pdb
     RDKit          3D

 26 25  0  0  1  0  0  0  0  0999 V2000
   20.7991  -12.3676  -17.1081 N   0  0  0  0  0  0  0  0  0  0  0  0
   20.0460  -11.8327  -16.0045 C   0  0  1  0  0  0  0  0  0  0  0  0
   19.7076  -12.9880  -15.0871 C   0  0  0  0  0  0  0  0  0  0  0  0
   18.7014  -13.8532  -15.7529 C   0  0  0  0  0  0  0  0  0  0  0  0
   18.2363  -13.5434  -16.8765 O   0  0  0  0  0  0  0  0  0  0  0  0
   20.8589  -10.8037  -15.3089 C   0  0  0  0  0  0  0  0  0  0  0  0
   20.4689  -10.3832  -14.1989 O   0  0  0  0  0  0  0  0  0  0  0  0
   18.2436  -15.0215  -15.1657 O   0  0  0  0  0  0  0  0  0  0  0  0
   26.9548  -10.2307  -16.3297 N   0  0  0  0  0  0  0  0  0  0  0  0
   26.1950  -11.2392  -15.6817 C   0  0  0  0  0  0  0  0  0  0  0  0
   26.7184  -12.3520  -15.4756 O   0  0  0  0  0  0  0  0  0  0  0  0
   24.8267  -10.9475  -15.2767 C   0  0  0  0  0  0  0  0  0  0  0  0
   24.3094   -9.5911  -15.5983 C   0  0  0  0  0  0  0  0  0  0  0  0
   22.8705   -9.3432  -15.2443 C   0  0  2  0  0  0  0  0  0  0  0  0
   22.0497  -10.3235  -15.9121 N   0  0  0  0  0  0  0  0  0  0  0  0
   22.3725   -8.0018  -15.5007 C   0  0  0  0  0  0  0  0  0  0  0  0
   21.9708   -7.5923  -16.6309 O   0  0  0  0  0  0  0  0  0  0  0  0
   18.9845   -3.9586  -16.0462 N   0  0  0  0  0  0  0  0  0  0  0  0
   19.8667   -4.2736  -14.9497 C   0  0  0  0  0  0  0  0  0  0  0  0
   20.2011   -3.3300  -14.1730 O   0  0  0  0  0  0  0  0  0  0  0  0
   20.3475   -5.6363  -14.7568 C   0  0  0  0  0  0  0  0  0  0  0  0
   21.8327   -5.6839  -14.6820 C   0  0  2  0  0  0  0  0  0  0  0  0
   22.3142   -7.0542  -14.4490 N   0  0  0  0  0  0  0  0  0  0  0  0
   22.3454   -4.7756  -13.6332 C   0  0  0  0  0  0  0  0  0  0  0  0
   22.7902   -3.4943  -14.0119 O   0  0  0  0  0  0  0  0  0  0  0  0
   22.4038   -5.0894  -12.4238 O   0  0  0  0  0  0  0  0  0  0  0  0
  2  1  1  6
  2  3  1  0
  4  3  1  0
  4  8  1  0
  5  4  2  0
  6  7  2  0
  6  2  1  0
  9 10  1  0
 10 12  1  0
 11 10  2  0
 12 13  1  0
 14 13  1  6
 14 15  1  0
 15  6  1  0
 16 14  1  0
 17 16  2  0
 19 20  2  0
 19 18  1  0
 21 19  1  0
 22 21  1  1
 22 23  1  0
 23 16  1  0
 24 22  1  0
 25 24  1  0
 26 24  2  0
M  END
$$$$
