DQN.pdb
     RDKit          3D

 26 25  0  0  1  0  0  0  0  0999 V2000
   21.8721   -4.1153  -19.4051 N   0  0  0  0  0  0  0  0  0  0  0  0
   22.0971   -4.3921  -18.0108 C   0  0  1  0  0  0  0  0  0  0  0  0
   21.1249   -3.5435  -17.2198 C   0  0  0  0  0  0  0  0  0  0  0  0
   21.4551   -2.1112  -17.4284 C   0  0  0  0  0  0  0  0  0  0  0  0
   22.6029   -1.6760  -17.1676 O   0  0  0  0  0  0  0  0  0  0  0  0
   21.8885   -5.8398  -17.7583 C   0  0  0  0  0  0  0  0  0  0  0  0
   21.0358   -6.4488  -18.4388 O   0  0  0  0  0  0  0  0  0  0  0  0
   20.5195   -1.2117  -17.9130 O   0  0  0  0  0  0  0  0  0  0  0  0
   26.1253   -9.7014  -15.0807 N   0  0  0  0  0  0  0  0  0  0  0  0
   24.9622  -10.5111  -15.1579 C   0  0  0  0  0  0  0  0  0  0  0  0
   25.0432  -11.7167  -14.8502 O   0  0  0  0  0  0  0  0  0  0  0  0
   23.7082   -9.9128  -15.5947 C   0  0  0  0  0  0  0  0  0  0  0  0
   23.7436   -8.4686  -15.9465 C   0  0  0  0  0  0  0  0  0  0  0  0
   22.4636   -7.9003  -16.4904 C   0  0  2  0  0  0  0  0  0  0  0  0
   22.6534   -6.4960  -16.7599 N   0  0  0  0  0  0  0  0  0  0  0  0
   21.2772   -8.1071  -15.6763 C   0  0  0  0  0  0  0  0  0  0  0  0
   20.7940   -7.2432  -14.8847 O   0  0  0  0  0  0  0  0  0  0  0  0
   16.4151   -7.8716  -14.1159 N   0  0  0  0  0  0  0  0  0  0  0  0
   16.9428   -8.7209  -15.1551 C   0  0  0  0  0  0  0  0  0  0  0  0
   16.2003   -9.6513  -15.5892 O   0  0  0  0  0  0  0  0  0  0  0  0
   18.2866   -8.5019  -15.6763 C   0  0  0  0  0  0  0  0  0  0  0  0
   19.2503   -9.4960  -15.1314 C   0  0  2  0  0  0  0  0  0  0  0  0
   20.5817   -9.3399  -15.7373 N   0  0  0  0  0  0  0  0  0  0  0  0
   18.7594  -10.8781  -15.3227 C   0  0  0  0  0  0  0  0  0  0  0  0
   19.3527  -11.6698  -16.3248 O   0  0  0  0  0  0  0  0  0  0  0  0
   17.8415  -11.3802  -14.6372 O   0  0  0  0  0  0  0  0  0  0  0  0
  2  1  1  6
  2  3  1  0
  4  3  1  0
  4  8  1  0
  5  4  2  0
  6  7  2  0
  6  2  1  0
  9 10  1  0
 10 12  1  0
 11 10  2  0
 12 13  1  0
 14 13  1  1
 14 15  1  0
 15  6  1  0
 16 14  1  0
 17 16  2  0
 19 20  2  0
 19 18  1  0
 21 19  1  0
 22 21  1  6
 22 23  1  0
 23 16  1  0
 24 22  1  0
 25 24  1  0
 26 24  2  0
M  END
$$$$
