GKW.pdb
     RDKit          3D

 28 29  0  0  1  0  0  0  0  0999 V2000
    5.5596  -14.8187   20.0142 N   0  0  0  0  0  0  0  0  0  0  0  0
    6.8144  -14.3466   20.5809 C   0  0  0  0  0  0  0  0  0  0  0  0
    7.4143  -15.4418   21.4345 C   0  0  0  0  0  0  0  0  0  0  0  0
    6.7310  -16.0102   22.3203 O   0  0  0  0  0  0  0  0  0  0  0  0
    8.7517  -15.8508   21.2577 N   0  0  0  0  0  0  0  0  0  0  0  0
    9.2416  -16.9763   22.0720 C   0  0  1  0  0  0  0  0  0  0  0  0
   10.4087  -17.5249   21.2978 C   0  0  0  0  0  0  0  0  0  0  0  0
   10.9635  -18.7809   21.8511 C   0  0  0  0  0  0  0  0  0  0  0  0
   12.1937  -19.2198   21.0637 C   0  0  0  0  0  0  0  0  0  0  0  0
   12.6794  -20.5162   21.6991 C   0  0  0  0  0  0  0  0  0  0  0  0
   13.2757  -21.3427   20.6950 N   0  0  0  0  0  0  0  0  0  0  0  0
    9.7070  -16.4663   23.3922 C   0  0  0  0  0  0  0  0  0  0  0  0
   10.4688  -15.4788   23.3833 O   0  0  0  0  0  0  0  0  0  0  0  0
    9.3091  -17.0677   24.6141 N   0  0  0  0  0  0  0  0  0  0  0  0
    9.7404  -16.5205   25.8631 C   0  0  1  0  0  0  0  0  0  0  0  0
    8.6593  -16.2490   26.8466 C   0  0  0  0  0  0  0  0  0  0  0  0
    7.6205  -15.3439   26.3253 C   0  0  0  0  0  0  0  0  0  0  0  0
    6.4689  -15.6520   25.6892 C   0  0  0  0  0  0  0  0  0  0  0  0
    5.8144  -14.4920   25.3808 N   0  0  0  0  0  0  0  0  0  0  0  0
    6.5283  -13.4532   25.8088 C   0  0  0  0  0  0  0  0  0  0  0  0
    6.3309  -12.0876   25.7547 C   0  0  0  0  0  0  0  0  0  0  0  0
    7.2886  -11.2483   26.3051 C   0  0  0  0  0  0  0  0  0  0  0  0
    8.4192  -11.7670   26.8968 C   0  0  0  0  0  0  0  0  0  0  0  0
    8.6274  -13.1320   26.9570 C   0  0  0  0  0  0  0  0  0  0  0  0
    7.6592  -13.9498   26.4016 C   0  0  0  0  0  0  0  0  0  0  0  0
   10.6400  -17.5580   26.5010 C   0  0  0  0  0  0  0  0  0  0  0  0
   10.8817  -18.7729   25.8570 O   0  0  0  0  0  0  0  0  0  0  0  0
   11.1941  -17.3776   27.6076 O   0  0  0  0  0  0  0  0  0  0  0  0
  1  2  1  0
  2  3  1  0
  3  4  2  0
  5  6  1  0
  5  3  1  0
  6  7  1  6
  8  7  1  0
  9  8  1  0
 10  9  1  0
 11 10  1  0
 12  6  1  0
 12 13  2  0
 14 12  1  0
 15 14  1  0
 15 26  1  0
 15 16  1  1
 17 16  1  0
 18 17  2  0
 19 20  1  0
 19 18  1  0
 20 25  2  0
 21 20  1  0
 21 22  2  0
 22 23  1  0
 23 24  2  0
 25 17  1  0
 25 24  1  0
 26 28  2  0
 26 27  1  0
M  END
$$$$
