GKW.pdb
     RDKit          3D

 28 29  0  0  1  0  0  0  0  0999 V2000
    6.1597  -19.8943   21.7918 N   0  0  0  0  0  0  0  0  0  0  0  0
    5.8940  -18.6028   22.4085 C   0  0  0  0  0  0  0  0  0  0  0  0
    6.9127  -17.6000   21.9139 C   0  0  0  0  0  0  0  0  0  0  0  0
    8.0987  -17.9467   21.6951 O   0  0  0  0  0  0  0  0  0  0  0  0
    6.5574  -16.2548   21.6868 N   0  0  0  0  0  0  0  0  0  0  0  0
    7.6356  -15.3000   21.3774 C   0  0  1  0  0  0  0  0  0  0  0  0
    6.9253  -14.0840   20.8489 C   0  0  0  0  0  0  0  0  0  0  0  0
    7.7705  -13.2111   20.0032 C   0  0  0  0  0  0  0  0  0  0  0  0
    7.9142  -13.7941   18.6013 C   0  0  0  0  0  0  0  0  0  0  0  0
    8.8122  -12.8419   17.8222 C   0  0  0  0  0  0  0  0  0  0  0  0
    9.0949  -13.4013   16.5360 N   0  0  0  0  0  0  0  0  0  0  0  0
    8.3645  -14.9538   22.6298 C   0  0  0  0  0  0  0  0  0  0  0  0
    8.2650  -13.7799   23.0390 O   0  0  0  0  0  0  0  0  0  0  0  0
    9.1416  -15.9075   23.3365 N   0  0  0  0  0  0  0  0  0  0  0  0
    9.8973  -15.5155   24.4856 C   0  0  1  0  0  0  0  0  0  0  0  0
    9.2877  -15.8607   25.7968 C   0  0  0  0  0  0  0  0  0  0  0  0
    7.9475  -15.2773   25.9801 C   0  0  0  0  0  0  0  0  0  0  0  0
    6.7395  -15.8601   25.8162 C   0  0  0  0  0  0  0  0  0  0  0  0
    5.7674  -14.9390   26.0914 N   0  0  0  0  0  0  0  0  0  0  0  0
    6.3349  -13.7826   26.4271 C   0  0  0  0  0  0  0  0  0  0  0  0
    5.8238  -12.5520   26.7890 C   0  0  0  0  0  0  0  0  0  0  0  0
    6.7029  -11.5203   27.0847 C   0  0  0  0  0  0  0  0  0  0  0  0
    8.0645  -11.7184   27.0189 C   0  0  0  0  0  0  0  0  0  0  0  0
    8.5875  -12.9457   26.6580 C   0  0  0  0  0  0  0  0  0  0  0  0
    7.6922  -13.9599   26.3674 C   0  0  0  0  0  0  0  0  0  0  0  0
   11.2081  -16.2706   24.4182 C   0  0  0  0  0  0  0  0  0  0  0  0
   11.4114  -17.2434   23.4376 O   0  0  0  0  0  0  0  0  0  0  0  0
   12.1456  -16.0618   25.2190 O   0  0  0  0  0  0  0  0  0  0  0  0
  1  2  1  0
  2  3  1  0
  3  4  2  0
  5  6  1  0
  5  3  1  0
  6  7  1  1
  8  7  1  0
  9  8  1  0
 10  9  1  0
 11 10  1  0
 12  6  1  0
 12 13  2  0
 14 12  1  0
 15 14  1  0
 15 26  1  0
 15 16  1  1
 17 16  1  0
 18 17  2  0
 19 20  1  0
 19 18  1  0
 20 25  2  0
 21 20  1  0
 21 22  2  0
 22 23  1  0
 23 24  2  0
 25 17  1  0
 25 24  1  0
 26 28  2  0
 26 27  1  0
M  END
$$$$
