GKW.pdb
     RDKit          3D

 28 29  0  0  1  0  0  0  0  0999 V2000
    6.4825  -19.8920   21.1893 N   0  0  0  0  0  0  0  0  0  0  0  0
    6.4882  -18.7146   22.0451 C   0  0  0  0  0  0  0  0  0  0  0  0
    7.7357  -17.9062   21.7653 C   0  0  0  0  0  0  0  0  0  0  0  0
    8.7847  -18.4657   21.3638 O   0  0  0  0  0  0  0  0  0  0  0  0
    7.7521  -16.5084   21.9476 N   0  0  0  0  0  0  0  0  0  0  0  0
    9.0060  -15.7906   21.6610 C   0  0  1  0  0  0  0  0  0  0  0  0
    8.5654  -14.4447   21.1543 C   0  0  0  0  0  0  0  0  0  0  0  0
    8.0508  -14.4609   19.7663 C   0  0  0  0  0  0  0  0  0  0  0  0
    8.4156  -13.1699   19.0409 C   0  0  0  0  0  0  0  0  0  0  0  0
    7.8764  -13.2987   17.6222 C   0  0  0  0  0  0  0  0  0  0  0  0
    8.1694  -12.1033   16.8926 N   0  0  0  0  0  0  0  0  0  0  0  0
    9.7813  -15.6257   22.9224 C   0  0  0  0  0  0  0  0  0  0  0  0
   10.8341  -14.9599   22.8593 O   0  0  0  0  0  0  0  0  0  0  0  0
    9.3529  -16.1953   24.1492 N   0  0  0  0  0  0  0  0  0  0  0  0
   10.1224  -16.0096   25.3402 C   0  0  1  0  0  0  0  0  0  0  0  0
    9.3332  -15.7838   26.5796 C   0  0  0  0  0  0  0  0  0  0  0  0
    7.9898  -15.2400   26.3158 C   0  0  0  0  0  0  0  0  0  0  0  0
    6.8514  -15.9022   26.0135 C   0  0  0  0  0  0  0  0  0  0  0  0
    5.8457  -14.9915   25.8458 N   0  0  0  0  0  0  0  0  0  0  0  0
    6.3236  -13.7636   26.0357 C   0  0  0  0  0  0  0  0  0  0  0  0
    5.7471  -12.5099   25.9868 C   0  0  0  0  0  0  0  0  0  0  0  0
    6.5367  -11.3972   26.2381 C   0  0  0  0  0  0  0  0  0  0  0  0
    7.8750  -11.5389   26.5322 C   0  0  0  0  0  0  0  0  0  0  0  0
    8.4628  -12.7886   26.5842 C   0  0  0  0  0  0  0  0  0  0  0  0
    7.6563  -13.8838   26.3300 C   0  0  0  0  0  0  0  0  0  0  0  0
   10.8943  -17.2936   25.5598 C   0  0  0  0  0  0  0  0  0  0  0  0
   10.6761  -18.3972   24.7330 O   0  0  0  0  0  0  0  0  0  0  0  0
   11.7422  -17.4204   26.4703 O   0  0  0  0  0  0  0  0  0  0  0  0
  1  2  1  0
  2  3  1  0
  3  4  2  0
  5  6  1  0
  5  3  1  0
  6  7  1  1
  8  7  1  0
  9  8  1  0
 10  9  1  0
 11 10  1  0
 12  6  1  0
 12 13  2  0
 14 12  1  0
 15 14  1  0
 15 26  1  0
 15 16  1  1
 17 16  1  0
 18 17  2  0
 19 20  1  0
 19 18  1  0
 20 25  2  0
 21 20  1  0
 21 22  2  0
 22 23  1  0
 23 24  2  0
 25 17  1  0
 25 24  1  0
 26 28  2  0
 26 27  1  0
M  END
$$$$
