GKW.pdb
     RDKit          3D

 28 29  0  0  1  0  0  0  0  0999 V2000
    5.6465  -20.1912   22.5861 N   0  0  0  0  0  0  0  0  0  0  0  0
    5.2827  -18.8126   22.8793 C   0  0  0  0  0  0  0  0  0  0  0  0
    6.3620  -17.8937   22.3513 C   0  0  0  0  0  0  0  0  0  0  0  0
    7.5497  -18.2880   22.2583 O   0  0  0  0  0  0  0  0  0  0  0  0
    6.0627  -16.5754   21.9517 N   0  0  0  0  0  0  0  0  0  0  0  0
    7.1862  -15.6896   21.6012 C   0  0  1  0  0  0  0  0  0  0  0  0
    6.5378  -14.4797   20.9861 C   0  0  0  0  0  0  0  0  0  0  0  0
    7.4926  -13.5295   20.3720 C   0  0  0  0  0  0  0  0  0  0  0  0
    7.5696  -13.7418   18.8638 C   0  0  0  0  0  0  0  0  0  0  0  0
    8.6467  -12.7982   18.3443 C   0  0  0  0  0  0  0  0  0  0  0  0
    8.9289  -13.1071   16.9761 N   0  0  0  0  0  0  0  0  0  0  0  0
    7.9123  -15.2969   22.8414 C   0  0  0  0  0  0  0  0  0  0  0  0
    7.4171  -14.3769   23.5225 O   0  0  0  0  0  0  0  0  0  0  0  0
    9.1154  -15.9330   23.2426 N   0  0  0  0  0  0  0  0  0  0  0  0
    9.8884  -15.4023   24.3225 C   0  0  1  0  0  0  0  0  0  0  0  0
    9.4025  -15.7489   25.6840 C   0  0  0  0  0  0  0  0  0  0  0  0
    8.0671  -15.1996   25.9760 C   0  0  0  0  0  0  0  0  0  0  0  0
    6.8679  -15.8210   25.9379 C   0  0  0  0  0  0  0  0  0  0  0  0
    5.8969  -14.9213   26.2795 N   0  0  0  0  0  0  0  0  0  0  0  0
    6.4564  -13.7405   26.5337 C   0  0  0  0  0  0  0  0  0  0  0  0
    5.9426  -12.5159   26.9118 C   0  0  0  0  0  0  0  0  0  0  0  0
    6.8126  -11.4518   27.1005 C   0  0  0  0  0  0  0  0  0  0  0  0
    8.1679  -11.6124   26.9143 C   0  0  0  0  0  0  0  0  0  0  0  0
    8.6936  -12.8334   26.5362 C   0  0  0  0  0  0  0  0  0  0  0  0
    7.8074  -13.8802   26.3536 C   0  0  0  0  0  0  0  0  0  0  0  0
   11.2711  -16.0074   24.2015 C   0  0  0  0  0  0  0  0  0  0  0  0
   12.2873  -15.6242   25.0788 O   0  0  0  0  0  0  0  0  0  0  0  0
   11.5585  -16.8577   23.3307 O   0  0  0  0  0  0  0  0  0  0  0  0
  1  2  1  0
  2  3  1  0
  3  4  2  0
  5  6  1  0
  5  3  1  0
  6  7  1  1
  8  7  1  0
  9  8  1  0
 10  9  1  0
 11 10  1  0
 12  6  1  0
 12 13  2  0
 14 12  1  0
 15 14  1  0
 15 26  1  0
 15 16  1  1
 17 16  1  0
 18 17  2  0
 19 20  1  0
 19 18  1  0
 20 25  2  0
 21 20  1  0
 21 22  2  0
 22 23  1  0
 23 24  2  0
 25 17  1  0
 25 24  1  0
 26 28  2  0
 26 27  1  0
M  END
$$$$
