GKW.pdb
     RDKit          3D

 28 29  0  0  1  0  0  0  0  0999 V2000
    7.1554  -20.1662   22.9773 N   0  0  0  0  0  0  0  0  0  0  0  0
    6.3771  -19.3376   22.0683 C   0  0  0  0  0  0  0  0  0  0  0  0
    7.2264  -18.1720   21.6122 C   0  0  0  0  0  0  0  0  0  0  0  0
    8.2811  -18.3646   20.9600 O   0  0  0  0  0  0  0  0  0  0  0  0
    6.8566  -16.8440   21.9068 N   0  0  0  0  0  0  0  0  0  0  0  0
    7.7283  -15.7614   21.4191 C   0  0  1  0  0  0  0  0  0  0  0  0
    6.8102  -14.5818   21.2507 C   0  0  0  0  0  0  0  0  0  0  0  0
    7.4460  -13.4085   20.6098 C   0  0  0  0  0  0  0  0  0  0  0  0
    7.4895  -13.5793   19.0949 C   0  0  0  0  0  0  0  0  0  0  0  0
    8.0491  -12.2823   18.5250 C   0  0  0  0  0  0  0  0  0  0  0  0
    8.1025  -12.3747   17.0982 N   0  0  0  0  0  0  0  0  0  0  0  0
    8.7599  -15.4546   22.4492 C   0  0  0  0  0  0  0  0  0  0  0  0
    9.6341  -14.6182   22.1463 O   0  0  0  0  0  0  0  0  0  0  0  0
    8.7603  -16.0788   23.7234 N   0  0  0  0  0  0  0  0  0  0  0  0
    9.7525  -15.7377   24.6951 C   0  0  1  0  0  0  0  0  0  0  0  0
    9.2574  -15.6017   26.0902 C   0  0  0  0  0  0  0  0  0  0  0  0
    7.9149  -15.0002   26.1687 C   0  0  0  0  0  0  0  0  0  0  0  0
    6.7099  -15.5948   26.0272 C   0  0  0  0  0  0  0  0  0  0  0  0
    5.7341  -14.6485   26.1739 N   0  0  0  0  0  0  0  0  0  0  0  0
    6.2964  -13.4644   26.4058 C   0  0  0  0  0  0  0  0  0  0  0  0
    5.7802  -12.2020   26.6214 C   0  0  0  0  0  0  0  0  0  0  0  0
    6.6546  -11.1466   26.8366 C   0  0  0  0  0  0  0  0  0  0  0  0
    8.0165  -11.3528   26.8357 C   0  0  0  0  0  0  0  0  0  0  0  0
    8.5446  -12.6118   26.6212 C   0  0  0  0  0  0  0  0  0  0  0  0
    7.6540  -13.6492   26.4087 C   0  0  0  0  0  0  0  0  0  0  0  0
   10.7503  -16.8765   24.7110 C   0  0  0  0  0  0  0  0  0  0  0  0
   10.5383  -18.0102   23.9243 O   0  0  0  0  0  0  0  0  0  0  0  0
   11.7851  -16.8534   25.4130 O   0  0  0  0  0  0  0  0  0  0  0  0
  1  2  1  0
  2  3  1  0
  3  4  2  0
  5  6  1  0
  5  3  1  0
  6  7  1  1
  8  7  1  0
  9  8  1  0
 10  9  1  0
 11 10  1  0
 12  6  1  0
 12 13  2  0
 14 12  1  0
 15 14  1  0
 15 26  1  0
 15 16  1  1
 17 16  1  0
 18 17  2  0
 19 20  1  0
 19 18  1  0
 20 25  2  0
 21 20  1  0
 21 22  2  0
 22 23  1  0
 23 24  2  0
 25 17  1  0
 25 24  1  0
 26 28  2  0
 26 27  1  0
M  END
$$$$
