GKW.pdb
     RDKit          3D

 28 29  0  0  1  0  0  0  0  0999 V2000
    6.8275  -20.4962   21.9327 N   0  0  0  0  0  0  0  0  0  0  0  0
    6.4906  -19.2157   22.5374 C   0  0  0  0  0  0  0  0  0  0  0  0
    7.2904  -18.1242   21.8615 C   0  0  0  0  0  0  0  0  0  0  0  0
    8.2822  -18.4064   21.1463 O   0  0  0  0  0  0  0  0  0  0  0  0
    6.9438  -16.7667   22.0169 N   0  0  0  0  0  0  0  0  0  0  0  0
    7.8707  -15.7533   21.4843 C   0  0  1  0  0  0  0  0  0  0  0  0
    7.0408  -14.5042   21.3676 C   0  0  0  0  0  0  0  0  0  0  0  0
    7.7107  -13.3997   20.6445 C   0  0  0  0  0  0  0  0  0  0  0  0
    7.8063  -13.7104   19.1545 C   0  0  0  0  0  0  0  0  0  0  0  0
    8.6035  -12.5770   18.5222 C   0  0  0  0  0  0  0  0  0  0  0  0
    8.6629  -12.7708   17.1058 N   0  0  0  0  0  0  0  0  0  0  0  0
    8.9772  -15.5346   22.4576 C   0  0  0  0  0  0  0  0  0  0  0  0
    9.8930  -14.7614   22.1123 O   0  0  0  0  0  0  0  0  0  0  0  0
    9.0014  -16.1711   23.7254 N   0  0  0  0  0  0  0  0  0  0  0  0
   10.0008  -15.8262   24.6885 C   0  0  1  0  0  0  0  0  0  0  0  0
    9.4898  -15.4859   26.0424 C   0  0  0  0  0  0  0  0  0  0  0  0
    8.0667  -15.1054   26.0419 C   0  0  0  0  0  0  0  0  0  0  0  0
    6.9783  -15.8939   25.9022 C   0  0  0  0  0  0  0  0  0  0  0  0
    5.8592  -15.1106   25.9590 N   0  0  0  0  0  0  0  0  0  0  0  0
    6.2160  -13.8399   26.1321 C   0  0  0  0  0  0  0  0  0  0  0  0
    5.4972  -12.6670   26.2514 C   0  0  0  0  0  0  0  0  0  0  0  0
    6.1830  -11.4737   26.4254 C   0  0  0  0  0  0  0  0  0  0  0  0
    7.5593  -11.4570   26.4787 C   0  0  0  0  0  0  0  0  0  0  0  0
    8.2893  -12.6246   26.3606 C   0  0  0  0  0  0  0  0  0  0  0  0
    7.5845  -13.8027   26.1877 C   0  0  0  0  0  0  0  0  0  0  0  0
   10.8732  -17.0514   24.8627 C   0  0  0  0  0  0  0  0  0  0  0  0
   12.0536  -16.9764   25.6044 O   0  0  0  0  0  0  0  0  0  0  0  0
   10.5826  -18.1598   24.3618 O   0  0  0  0  0  0  0  0  0  0  0  0
  1  2  1  0
  2  3  1  0
  3  4  2  0
  5  6  1  0
  5  3  1  0
  6  7  1  1
  8  7  1  0
  9  8  1  0
 10  9  1  0
 11 10  1  0
 12  6  1  0
 12 13  2  0
 14 12  1  0
 15 14  1  0
 15 26  1  0
 15 16  1  1
 17 16  1  0
 18 17  2  0
 19 20  1  0
 19 18  1  0
 20 25  2  0
 21 20  1  0
 21 22  2  0
 22 23  1  0
 23 24  2  0
 25 17  1  0
 25 24  1  0
 26 28  2  0
 26 27  1  0
M  END
$$$$
