GKW.pdb
     RDKit          3D

 28 29  0  0  1  0  0  0  0  0999 V2000
    6.5779  -20.6925   22.7789 N   0  0  0  0  0  0  0  0  0  0  0  0
    6.1678  -19.3126   22.9945 C   0  0  0  0  0  0  0  0  0  0  0  0
    7.1801  -18.3901   22.3524 C   0  0  0  0  0  0  0  0  0  0  0  0
    8.2694  -18.8372   21.9186 O   0  0  0  0  0  0  0  0  0  0  0  0
    6.9270  -17.0091   22.2253 N   0  0  0  0  0  0  0  0  0  0  0  0
    7.9926  -16.1621   21.6625 C   0  0  1  0  0  0  0  0  0  0  0  0
    7.2796  -14.9327   21.1699 C   0  0  0  0  0  0  0  0  0  0  0  0
    8.1621  -13.9501   20.5010 C   0  0  0  0  0  0  0  0  0  0  0  0
    7.5755  -13.5245   19.1592 C   0  0  0  0  0  0  0  0  0  0  0  0
    8.6244  -12.6529   18.4807 C   0  0  0  0  0  0  0  0  0  0  0  0
    8.1555  -12.2674   17.1851 N   0  0  0  0  0  0  0  0  0  0  0  0
    8.9513  -15.7911   22.7408 C   0  0  0  0  0  0  0  0  0  0  0  0
    9.8779  -15.0143   22.4347 O   0  0  0  0  0  0  0  0  0  0  0  0
    8.8281  -16.2917   24.0627 N   0  0  0  0  0  0  0  0  0  0  0  0
    9.8451  -16.0285   25.0331 C   0  0  1  0  0  0  0  0  0  0  0  0
    9.3659  -15.4543   26.3179 C   0  0  0  0  0  0  0  0  0  0  0  0
    8.0394  -14.8233   26.2075 C   0  0  0  0  0  0  0  0  0  0  0  0
    6.8407  -15.4038   25.9795 C   0  0  0  0  0  0  0  0  0  0  0  0
    5.8806  -14.4309   25.9517 N   0  0  0  0  0  0  0  0  0  0  0  0
    6.4466  -13.2437   26.1575 C   0  0  0  0  0  0  0  0  0  0  0  0
    5.9445  -11.9592   26.2251 C   0  0  0  0  0  0  0  0  0  0  0  0
    6.8190  -10.9076   26.4573 C   0  0  0  0  0  0  0  0  0  0  0  0
    8.1673  -11.1391   26.6184 C   0  0  0  0  0  0  0  0  0  0  0  0
    8.6812  -12.4203   26.5530 C   0  0  0  0  0  0  0  0  0  0  0  0
    7.7907  -13.4535   26.3204 C   0  0  0  0  0  0  0  0  0  0  0  0
   10.4709  -17.3641   25.3754 C   0  0  0  0  0  0  0  0  0  0  0  0
   11.6039  -17.4236   26.1889 O   0  0  0  0  0  0  0  0  0  0  0  0
   10.0118  -18.4487   24.9547 O   0  0  0  0  0  0  0  0  0  0  0  0
  1  2  1  0
  2  3  1  0
  3  4  2  0
  5  6  1  0
  5  3  1  0
  6  7  1  1
  8  7  1  0
  9  8  1  0
 10  9  1  0
 11 10  1  0
 12  6  1  0
 12 13  2  0
 14 12  1  0
 15 14  1  0
 15 26  1  0
 15 16  1  1
 17 16  1  0
 18 17  2  0
 19 20  1  0
 19 18  1  0
 20 25  2  0
 21 20  1  0
 21 22  2  0
 22 23  1  0
 23 24  2  0
 25 17  1  0
 25 24  1  0
 26 28  2  0
 26 27  1  0
M  END
$$$$
