GKW.pdb
     RDKit          3D

 28 29  0  0  1  0  0  0  0  0999 V2000
   15.1522  -18.3523   20.1614 N   0  0  0  0  0  0  0  0  0  0  0  0
   13.8733  -18.9239   20.5568 C   0  0  0  0  0  0  0  0  0  0  0  0
   13.0174  -17.8405   21.1745 C   0  0  0  0  0  0  0  0  0  0  0  0
   13.5215  -16.9870   21.9441 O   0  0  0  0  0  0  0  0  0  0  0  0
   11.6364  -17.7617   20.9028 N   0  0  0  0  0  0  0  0  0  0  0  0
   10.8692  -16.6780   21.5405 C   0  0  1  0  0  0  0  0  0  0  0  0
    9.6911  -16.4611   20.6308 C   0  0  0  0  0  0  0  0  0  0  0  0
    8.8642  -15.2849   20.9837 C   0  0  0  0  0  0  0  0  0  0  0  0
    7.6613  -15.1728   20.0530 C   0  0  0  0  0  0  0  0  0  0  0  0
    6.9001  -13.9217   20.4719 C   0  0  0  0  0  0  0  0  0  0  0  0
    5.7124  -13.8022   19.6831 N   0  0  0  0  0  0  0  0  0  0  0  0
   10.3962  -17.1282   22.8796 C   0  0  0  0  0  0  0  0  0  0  0  0
   10.3127  -18.3582   23.0687 O   0  0  0  0  0  0  0  0  0  0  0  0
   10.0525  -16.2094   23.9046 N   0  0  0  0  0  0  0  0  0  0  0  0
    9.7794  -16.6733   25.2295 C   0  0  1  0  0  0  0  0  0  0  0  0
    9.4400  -15.6155   26.2173 C   0  0  0  0  0  0  0  0  0  0  0  0
    8.0726  -15.0924   26.0540 C   0  0  0  0  0  0  0  0  0  0  0  0
    6.9444  -15.7578   25.7220 C   0  0  0  0  0  0  0  0  0  0  0  0
    5.9068  -14.8685   25.6811 N   0  0  0  0  0  0  0  0  0  0  0  0
    6.3545  -13.6511   25.9807 C   0  0  0  0  0  0  0  0  0  0  0  0
    5.7396  -12.4187   26.0794 C   0  0  0  0  0  0  0  0  0  0  0  0
    6.5043  -11.3119   26.4183 C   0  0  0  0  0  0  0  0  0  0  0  0
    7.8557  -11.4383   26.6532 C   0  0  0  0  0  0  0  0  0  0  0  0
    8.4819  -12.6667   26.5576 C   0  0  0  0  0  0  0  0  0  0  0  0
    7.6997  -13.7565   26.2182 C   0  0  0  0  0  0  0  0  0  0  0  0
    8.5600  -17.5655   25.1315 C   0  0  0  0  0  0  0  0  0  0  0  0
    8.2857  -18.4969   26.1348 O   0  0  0  0  0  0  0  0  0  0  0  0
    7.7623  -17.5098   24.1699 O   0  0  0  0  0  0  0  0  0  0  0  0
  1  2  1  0
  2  3  1  0
  3  4  2  0
  5  6  1  0
  5  3  1  0
  6  7  1  6
  8  7  1  0
  9  8  1  0
 10  9  1  0
 11 10  1  0
 12  6  1  0
 12 13  2  0
 14 12  1  0
 15 14  1  0
 15 26  1  0
 15 16  1  1
 17 16  1  0
 18 17  2  0
 19 20  1  0
 19 18  1  0
 20 25  2  0
 21 20  1  0
 21 22  2  0
 22 23  1  0
 23 24  2  0
 25 17  1  0
 25 24  1  0
 26 28  2  0
 26 27  1  0
M  END
$$$$
