GKW.pdb
     RDKit          3D

 28 29  0  0  1  0  0  0  0  0999 V2000
    7.0168  -14.1165   19.0667 N   0  0  0  0  0  0  0  0  0  0  0  0
    7.4580  -13.6252   20.3639 C   0  0  0  0  0  0  0  0  0  0  0  0
    7.8340  -14.8023   21.2364 C   0  0  0  0  0  0  0  0  0  0  0  0
    6.9910  -15.3246   22.0053 O   0  0  0  0  0  0  0  0  0  0  0  0
    9.1363  -15.3410   21.2084 N   0  0  0  0  0  0  0  0  0  0  0  0
    9.4133  -16.5187   22.0487 C   0  0  1  0  0  0  0  0  0  0  0  0
   10.5239  -17.2405   21.3360 C   0  0  0  0  0  0  0  0  0  0  0  0
   10.1044  -17.9059   20.0819 C   0  0  0  0  0  0  0  0  0  0  0  0
   11.2860  -18.6112   19.4244 C   0  0  0  0  0  0  0  0  0  0  0  0
   10.7757  -19.1842   18.1086 C   0  0  0  0  0  0  0  0  0  0  0  0
   11.8727  -19.7343   17.3731 N   0  0  0  0  0  0  0  0  0  0  0  0
    9.8821  -16.0704   23.3899 C   0  0  0  0  0  0  0  0  0  0  0  0
   10.7337  -15.1597   23.4189 O   0  0  0  0  0  0  0  0  0  0  0  0
    9.3900  -16.6452   24.5901 N   0  0  0  0  0  0  0  0  0  0  0  0
    9.9236  -16.2449   25.8551 C   0  0  1  0  0  0  0  0  0  0  0  0
    8.9157  -15.9594   26.9098 C   0  0  0  0  0  0  0  0  0  0  0  0
    7.7674  -15.1815   26.4135 C   0  0  0  0  0  0  0  0  0  0  0  0
    6.6497  -15.6209   25.7942 C   0  0  0  0  0  0  0  0  0  0  0  0
    5.8562  -14.5455   25.5065 N   0  0  0  0  0  0  0  0  0  0  0  0
    6.4485  -13.4315   25.9312 C   0  0  0  0  0  0  0  0  0  0  0  0
    6.0887  -12.0990   25.8918 C   0  0  0  0  0  0  0  0  0  0  0  0
    6.9490  -11.1548   26.4332 C   0  0  0  0  0  0  0  0  0  0  0  0
    8.1436  -11.5385   27.0015 C   0  0  0  0  0  0  0  0  0  0  0  0
    8.5141  -12.8692   27.0468 C   0  0  0  0  0  0  0  0  0  0  0  0
    7.6408  -13.7933   26.5009 C   0  0  0  0  0  0  0  0  0  0  0  0
   10.7479  -17.4088   26.3636 C   0  0  0  0  0  0  0  0  0  0  0  0
   10.7754  -18.6139   25.6591 O   0  0  0  0  0  0  0  0  0  0  0  0
   11.4253  -17.3447   27.4128 O   0  0  0  0  0  0  0  0  0  0  0  0
  1  2  1  0
  2  3  1  0
  3  4  2  0
  5  6  1  0
  5  3  1  0
  6  7  1  6
  8  7  1  0
  9  8  1  0
 10  9  1  0
 11 10  1  0
 12  6  1  0
 12 13  2  0
 14 12  1  0
 15 14  1  0
 15 26  1  0
 15 16  1  1
 17 16  1  0
 18 17  2  0
 19 20  1  0
 19 18  1  0
 20 25  2  0
 21 20  1  0
 21 22  2  0
 22 23  1  0
 23 24  2  0
 25 17  1  0
 25 24  1  0
 26 28  2  0
 26 27  1  0
M  END
$$$$
