GKW.pdb
     RDKit          3D

 28 29  0  0  1  0  0  0  0  0999 V2000
    5.0003  -19.9919   22.7953 N   0  0  0  0  0  0  0  0  0  0  0  0
    4.8856  -18.5691   23.0804 C   0  0  0  0  0  0  0  0  0  0  0  0
    6.1120  -17.8586   22.5522 C   0  0  0  0  0  0  0  0  0  0  0  0
    7.2481  -18.3822   22.6520 O   0  0  0  0  0  0  0  0  0  0  0  0
    6.0110  -16.5946   21.9364 N   0  0  0  0  0  0  0  0  0  0  0  0
    7.2600  -15.8975   21.5845 C   0  0  1  0  0  0  0  0  0  0  0  0
    6.8169  -14.7135   20.7694 C   0  0  0  0  0  0  0  0  0  0  0  0
    7.9241  -13.9898   20.1046 C   0  0  0  0  0  0  0  0  0  0  0  0
    7.7722  -14.0474   18.5883 C   0  0  0  0  0  0  0  0  0  0  0  0
    8.9847  -13.3370   18.0005 C   0  0  0  0  0  0  0  0  0  0  0  0
    8.9327  -13.4116   16.5726 N   0  0  0  0  0  0  0  0  0  0  0  0
    7.9331  -15.4299   22.8286 C   0  0  0  0  0  0  0  0  0  0  0  0
    7.3570  -14.5406   23.4864 O   0  0  0  0  0  0  0  0  0  0  0  0
    9.1753  -15.9639   23.2585 N   0  0  0  0  0  0  0  0  0  0  0  0
    9.8930  -15.3502   24.3326 C   0  0  1  0  0  0  0  0  0  0  0  0
    9.4227  -15.7050   25.6974 C   0  0  0  0  0  0  0  0  0  0  0  0
    8.0568  -15.2297   25.9775 C   0  0  0  0  0  0  0  0  0  0  0  0
    6.8904  -15.9071   25.8976 C   0  0  0  0  0  0  0  0  0  0  0  0
    5.8701  -15.0658   26.2444 N   0  0  0  0  0  0  0  0  0  0  0  0
    6.3662  -13.8671   26.5431 C   0  0  0  0  0  0  0  0  0  0  0  0
    5.7859  -12.6804   26.9448 C   0  0  0  0  0  0  0  0  0  0  0  0
    6.5989  -11.5813   27.1811 C   0  0  0  0  0  0  0  0  0  0  0  0
    7.9638  -11.6706   27.0181 C   0  0  0  0  0  0  0  0  0  0  0  0
    8.5558  -12.8532   26.6166 C   0  0  0  0  0  0  0  0  0  0  0  0
    7.7256  -13.9360   26.3867 C   0  0  0  0  0  0  0  0  0  0  0  0
   11.3205  -15.8458   24.2363 C   0  0  0  0  0  0  0  0  0  0  0  0
   12.3031  -15.3336   25.0857 O   0  0  0  0  0  0  0  0  0  0  0  0
   11.6755  -16.7158   23.4111 O   0  0  0  0  0  0  0  0  0  0  0  0
  1  2  1  0
  2  3  1  0
  3  4  2  0
  5  6  1  0
  5  3  1  0
  6  7  1  6
  8  7  1  0
  9  8  1  0
 10  9  1  0
 11 10  1  0
 12  6  1  0
 12 13  2  0
 14 12  1  0
 15 14  1  0
 15 26  1  0
 15 16  1  1
 17 16  1  0
 18 17  2  0
 19 20  1  0
 19 18  1  0
 20 25  2  0
 21 20  1  0
 21 22  2  0
 22 23  1  0
 23 24  2  0
 25 17  1  0
 25 24  1  0
 26 28  2  0
 26 27  1  0
M  END
$$$$
