GKW.pdb
     RDKit          3D

 28 29  0  0  1  0  0  0  0  0999 V2000
    8.1831  -20.0121   20.2558 N   0  0  0  0  0  0  0  0  0  0  0  0
    7.5064  -19.0187   21.0767 C   0  0  0  0  0  0  0  0  0  0  0  0
    8.3189  -17.7429   21.0789 C   0  0  0  0  0  0  0  0  0  0  0  0
    9.4685  -17.7149   20.5766 O   0  0  0  0  0  0  0  0  0  0  0  0
    7.8077  -16.5565   21.6433 N   0  0  0  0  0  0  0  0  0  0  0  0
    8.6691  -15.3617   21.6337 C   0  0  1  0  0  0  0  0  0  0  0  0
    7.7185  -14.2101   21.4537 C   0  0  0  0  0  0  0  0  0  0  0  0
    7.1453  -14.1074   20.0926 C   0  0  0  0  0  0  0  0  0  0  0  0
    8.1366  -13.4497   19.1383 C   0  0  0  0  0  0  0  0  0  0  0  0
    7.4446  -13.3582   17.7844 C   0  0  0  0  0  0  0  0  0  0  0  0
    8.3643  -12.8473   16.8148 N   0  0  0  0  0  0  0  0  0  0  0  0
    9.3638  -15.2419   22.9462 C   0  0  0  0  0  0  0  0  0  0  0  0
   10.1722  -14.3012   23.0774 O   0  0  0  0  0  0  0  0  0  0  0  0
    9.1260  -16.1508   24.0095 N   0  0  0  0  0  0  0  0  0  0  0  0
    9.8725  -16.0521   25.2253 C   0  0  1  0  0  0  0  0  0  0  0  0
    9.0605  -16.0187   26.4701 C   0  0  0  0  0  0  0  0  0  0  0  0
    7.7787  -15.3122   26.3027 C   0  0  0  0  0  0  0  0  0  0  0  0
    6.5664  -15.8187   25.9870 C   0  0  0  0  0  0  0  0  0  0  0  0
    5.6633  -14.7938   25.9341 N   0  0  0  0  0  0  0  0  0  0  0  0
    6.2787  -13.6461   26.2102 C   0  0  0  0  0  0  0  0  0  0  0  0
    5.8430  -12.3382   26.2892 C   0  0  0  0  0  0  0  0  0  0  0  0
    6.7571  -11.3437   26.6053 C   0  0  0  0  0  0  0  0  0  0  0  0
    8.0789  -11.6540   26.8372 C   0  0  0  0  0  0  0  0  0  0  0  0
    8.5265  -12.9593   26.7612 C   0  0  0  0  0  0  0  0  0  0  0  0
    7.5974  -13.9346   26.4444 C   0  0  0  0  0  0  0  0  0  0  0  0
   10.7245  -17.3009   25.3111 C   0  0  0  0  0  0  0  0  0  0  0  0
   11.7073  -17.4172   26.2958 O   0  0  0  0  0  0  0  0  0  0  0  0
   10.5894  -18.2618   24.5222 O   0  0  0  0  0  0  0  0  0  0  0  0
  1  2  1  0
  2  3  1  0
  3  4  2  0
  5  6  1  0
  5  3  1  0
  6  7  1  1
  8  7  1  0
  9  8  1  0
 10  9  1  0
 11 10  1  0
 12  6  1  0
 12 13  2  0
 14 12  1  0
 15 14  1  0
 15 26  1  0
 15 16  1  1
 17 16  1  0
 18 17  2  0
 19 20  1  0
 19 18  1  0
 20 25  2  0
 21 20  1  0
 21 22  2  0
 22 23  1  0
 23 24  2  0
 25 17  1  0
 25 24  1  0
 26 28  2  0
 26 27  1  0
M  END
$$$$
