GKW.pdb
     RDKit          3D

 28 29  0  0  1  0  0  0  0  0999 V2000
    6.3322  -13.5207   19.7146 N   0  0  0  0  0  0  0  0  0  0  0  0
    7.7642  -13.6195   19.9559 C   0  0  0  0  0  0  0  0  0  0  0  0
    8.0215  -14.7219   20.9592 C   0  0  0  0  0  0  0  0  0  0  0  0
    7.0786  -15.2160   21.6236 O   0  0  0  0  0  0  0  0  0  0  0  0
    9.3225  -15.2209   21.1731 N   0  0  0  0  0  0  0  0  0  0  0  0
    9.4685  -16.4356   21.9934 C   0  0  1  0  0  0  0  0  0  0  0  0
   10.3898  -17.3209   21.1996 C   0  0  0  0  0  0  0  0  0  0  0  0
    9.9210  -17.6009   19.8236 C   0  0  0  0  0  0  0  0  0  0  0  0
   10.9294  -18.4673   19.0764 C   0  0  0  0  0  0  0  0  0  0  0  0
   10.4072  -18.6165   17.6533 C   0  0  0  0  0  0  0  0  0  0  0  0
   11.2904  -19.4616   16.9097 N   0  0  0  0  0  0  0  0  0  0  0  0
   10.1049  -16.0815   23.2930 C   0  0  0  0  0  0  0  0  0  0  0  0
   11.1487  -15.4003   23.2476 O   0  0  0  0  0  0  0  0  0  0  0  0
    9.5587  -16.4942   24.5358 N   0  0  0  0  0  0  0  0  0  0  0  0
   10.2982  -16.3128   25.7463 C   0  0  1  0  0  0  0  0  0  0  0  0
    9.6869  -15.3836   26.7327 C   0  0  0  0  0  0  0  0  0  0  0  0
    8.2912  -15.0391   26.4112 C   0  0  0  0  0  0  0  0  0  0  0  0
    7.2894  -15.8503   26.0061 C   0  0  0  0  0  0  0  0  0  0  0  0
    6.1638  -15.0973   25.8194 N   0  0  0  0  0  0  0  0  0  0  0  0
    6.4315  -13.8234   26.0981 C   0  0  0  0  0  0  0  0  0  0  0  0
    5.6685  -12.6728   26.0734 C   0  0  0  0  0  0  0  0  0  0  0  0
    6.2584  -11.4681   26.4275 C   0  0  0  0  0  0  0  0  0  0  0  0
    7.5841  -11.4185   26.7982 C   0  0  0  0  0  0  0  0  0  0  0  0
    8.3574  -12.5636   26.8269 C   0  0  0  0  0  0  0  0  0  0  0  0
    7.7483  -13.7535   26.4698 C   0  0  0  0  0  0  0  0  0  0  0  0
   10.3576  -17.6662   26.4226 C   0  0  0  0  0  0  0  0  0  0  0  0
    9.6576  -18.7510   25.8911 O   0  0  0  0  0  0  0  0  0  0  0  0
   11.0209  -17.8687   27.4633 O   0  0  0  0  0  0  0  0  0  0  0  0
  1  2  1  0
  2  3  1  0
  3  4  2  0
  5  6  1  0
  5  3  1  0
  6  7  1  6
  8  7  1  0
  9  8  1  0
 10  9  1  0
 11 10  1  0
 12  6  1  0
 12 13  2  0
 14 12  1  0
 15 14  1  0
 15 26  1  0
 15 16  1  1
 17 16  1  0
 18 17  2  0
 19 20  1  0
 19 18  1  0
 20 25  2  0
 21 20  1  0
 21 22  2  0
 22 23  1  0
 23 24  2  0
 25 17  1  0
 25 24  1  0
 26 28  2  0
 26 27  1  0
M  END
$$$$
