GKW.pdb
     RDKit          3D

 28 29  0  0  1  0  0  0  0  0999 V2000
    5.5291  -15.5261   20.3882 N   0  0  0  0  0  0  0  0  0  0  0  0
    6.4943  -14.7208   21.1220 C   0  0  0  0  0  0  0  0  0  0  0  0
    7.4556  -15.6381   21.8448 C   0  0  0  0  0  0  0  0  0  0  0  0
    7.0301  -16.5919   22.5404 O   0  0  0  0  0  0  0  0  0  0  0  0
    8.8493  -15.4460   21.7560 N   0  0  0  0  0  0  0  0  0  0  0  0
    9.7216  -16.3763   22.4932 C   0  0  1  0  0  0  0  0  0  0  0  0
   11.0256  -16.3480   21.7440 C   0  0  0  0  0  0  0  0  0  0  0  0
   11.5252  -17.6850   21.3510 C   0  0  0  0  0  0  0  0  0  0  0  0
   11.6794  -17.7791   19.8366 C   0  0  0  0  0  0  0  0  0  0  0  0
   12.2320  -19.1671   19.5393 C   0  0  0  0  0  0  0  0  0  0  0  0
   12.2850  -19.3636   18.1231 N   0  0  0  0  0  0  0  0  0  0  0  0
    9.9253  -15.8702   23.8796 C   0  0  0  0  0  0  0  0  0  0  0  0
   10.3272  -14.6960   24.0024 O   0  0  0  0  0  0  0  0  0  0  0  0
    9.6770  -16.6775   25.0196 N   0  0  0  0  0  0  0  0  0  0  0  0
   10.2238  -16.3197   26.2917 C   0  0  1  0  0  0  0  0  0  0  0  0
    9.2605  -15.7227   27.2538 C   0  0  0  0  0  0  0  0  0  0  0  0
    8.0413  -15.2103   26.6048 C   0  0  0  0  0  0  0  0  0  0  0  0
    7.0657  -15.8973   25.9708 C   0  0  0  0  0  0  0  0  0  0  0  0
    6.1288  -15.0108   25.5176 N   0  0  0  0  0  0  0  0  0  0  0  0
    6.4908  -13.7740   25.8515 C   0  0  0  0  0  0  0  0  0  0  0  0
    5.9175  -12.5354   25.6425 C   0  0  0  0  0  0  0  0  0  0  0  0
    6.5621  -11.4066   26.1274 C   0  0  0  0  0  0  0  0  0  0  0  0
    7.7551  -11.5176   26.8068 C   0  0  0  0  0  0  0  0  0  0  0  0
    8.3382  -12.7520   27.0221 C   0  0  0  0  0  0  0  0  0  0  0  0
    7.6779  -13.8638   26.5297 C   0  0  0  0  0  0  0  0  0  0  0  0
   10.7137  -17.6036   26.9274 C   0  0  0  0  0  0  0  0  0  0  0  0
   11.3513  -17.5767   28.1691 O   0  0  0  0  0  0  0  0  0  0  0  0
   10.5726  -18.7200   26.3816 O   0  0  0  0  0  0  0  0  0  0  0  0
  1  2  1  0
  2  3  1  0
  3  4  2  0
  5  6  1  0
  5  3  1  0
  6  7  1  6
  8  7  1  0
  9  8  1  0
 10  9  1  0
 11 10  1  0
 12  6  1  0
 12 13  2  0
 14 12  1  0
 15 14  1  0
 15 26  1  0
 15 16  1  1
 17 16  1  0
 18 17  2  0
 19 20  1  0
 19 18  1  0
 20 25  2  0
 21 20  1  0
 21 22  2  0
 22 23  1  0
 23 24  2  0
 25 17  1  0
 25 24  1  0
 26 28  2  0
 26 27  1  0
M  END
$$$$
