GKW.pdb
     RDKit          3D

 28 29  0  0  1  0  0  0  0  0999 V2000
    3.8051  -19.8603   20.7228 N   0  0  0  0  0  0  0  0  0  0  0  0
    3.8999  -18.6986   21.5946 C   0  0  0  0  0  0  0  0  0  0  0  0
    5.3007  -18.1334   21.5143 C   0  0  0  0  0  0  0  0  0  0  0  0
    6.2984  -18.8601   21.7404 O   0  0  0  0  0  0  0  0  0  0  0  0
    5.5208  -16.7806   21.1846 N   0  0  0  0  0  0  0  0  0  0  0  0
    6.9134  -16.3057   21.1158 C   0  0  1  0  0  0  0  0  0  0  0  0
    6.8621  -15.1107   20.2038 C   0  0  0  0  0  0  0  0  0  0  0  0
    7.8032  -15.1808   19.0631 C   0  0  0  0  0  0  0  0  0  0  0  0
    7.6746  -13.9432   18.1813 C   0  0  0  0  0  0  0  0  0  0  0  0
    8.7105  -14.0866   17.0737 C   0  0  0  0  0  0  0  0  0  0  0  0
    8.5591  -13.0129   16.1402 N   0  0  0  0  0  0  0  0  0  0  0  0
    7.3606  -15.8854   22.4733 C   0  0  0  0  0  0  0  0  0  0  0  0
    6.5088  -15.3529   23.2125 O   0  0  0  0  0  0  0  0  0  0  0  0
    8.6939  -16.0763   22.9193 N   0  0  0  0  0  0  0  0  0  0  0  0
    9.1131  -15.5616   24.1860 C   0  0  1  0  0  0  0  0  0  0  0  0
    8.3118  -16.0135   25.3537 C   0  0  0  0  0  0  0  0  0  0  0  0
    8.6865  -15.3351   26.6065 C   0  0  0  0  0  0  0  0  0  0  0  0
    9.4429  -15.7960   27.6269 C   0  0  0  0  0  0  0  0  0  0  0  0
    9.5228  -14.8256   28.5866 N   0  0  0  0  0  0  0  0  0  0  0  0
    8.8317  -13.7573   28.1952 C   0  0  0  0  0  0  0  0  0  0  0  0
    8.5889  -12.5278   28.7748 C   0  0  0  0  0  0  0  0  0  0  0  0
    7.8062  -11.6070   28.0934 C   0  0  0  0  0  0  0  0  0  0  0  0
    7.2788  -11.9125   26.8582 C   0  0  0  0  0  0  0  0  0  0  0  0
    7.5153  -13.1398   26.2682 C   0  0  0  0  0  0  0  0  0  0  0  0
    8.2984  -14.0424   26.9658 C   0  0  0  0  0  0  0  0  0  0  0  0
   10.5193  -16.0739   24.4159 C   0  0  0  0  0  0  0  0  0  0  0  0
   11.5134  -15.2156   24.8895 O   0  0  0  0  0  0  0  0  0  0  0  0
   10.8460  -17.2611   24.1970 O   0  0  0  0  0  0  0  0  0  0  0  0
  1  2  1  0
  2  3  1  0
  3  4  2  0
  5  6  1  0
  5  3  1  0
  6  7  1  6
  8  7  1  0
  9  8  1  0
 10  9  1  0
 11 10  1  0
 12  6  1  0
 12 13  2  0
 14 12  1  0
 15 14  1  0
 15 26  1  0
 15 16  1  1
 17 16  1  0
 18 17  2  0
 19 20  1  0
 19 18  1  0
 20 25  2  0
 21 20  1  0
 21 22  2  0
 22 23  1  0
 23 24  2  0
 25 17  1  0
 25 24  1  0
 26 28  2  0
 26 27  1  0
M  END
$$$$
