GKW.pdb
     RDKit          3D

 28 29  0  0  1  0  0  0  0  0999 V2000
    7.9740  -12.1368   18.7155 N   0  0  0  0  0  0  0  0  0  0  0  0
    8.6818  -13.4048   18.6168 C   0  0  0  0  0  0  0  0  0  0  0  0
    8.4069  -14.2224   19.8593 C   0  0  0  0  0  0  0  0  0  0  0  0
    7.9801  -13.6750   20.9048 O   0  0  0  0  0  0  0  0  0  0  0  0
    8.6222  -15.6155   19.8752 N   0  0  0  0  0  0  0  0  0  0  0  0
    8.1840  -16.3672   21.0637 C   0  0  1  0  0  0  0  0  0  0  0  0
    8.0723  -17.7911   20.5921 C   0  0  0  0  0  0  0  0  0  0  0  0
    7.7523  -18.7593   21.6653 C   0  0  0  0  0  0  0  0  0  0  0  0
    7.5911  -20.1640   21.0937 C   0  0  0  0  0  0  0  0  0  0  0  0
    7.2857  -21.0819   22.2703 C   0  0  0  0  0  0  0  0  0  0  0  0
    7.1646  -22.4287   21.8028 N   0  0  0  0  0  0  0  0  0  0  0  0
    9.2255  -16.2673   22.1242 C   0  0  0  0  0  0  0  0  0  0  0  0
   10.4153  -16.3656   21.7631 O   0  0  0  0  0  0  0  0  0  0  0  0
    8.8933  -16.0691   23.4893 N   0  0  0  0  0  0  0  0  0  0  0  0
    9.9223  -15.8681   24.4618 C   0  0  1  0  0  0  0  0  0  0  0  0
    9.6049  -14.8851   25.5309 C   0  0  0  0  0  0  0  0  0  0  0  0
    8.1588  -14.7479   25.7761 C   0  0  0  0  0  0  0  0  0  0  0  0
    7.1983  -15.6974   25.7363 C   0  0  0  0  0  0  0  0  0  0  0  0
    5.9951  -15.1164   26.0257 N   0  0  0  0  0  0  0  0  0  0  0  0
    6.1731  -13.8161   26.2485 C   0  0  0  0  0  0  0  0  0  0  0  0
    5.3094  -12.7884   26.5718 C   0  0  0  0  0  0  0  0  0  0  0  0
    5.8203  -11.5095   26.7396 C   0  0  0  0  0  0  0  0  0  0  0  0
    7.1675  -11.2667   26.5866 C   0  0  0  0  0  0  0  0  0  0  0  0
    8.0414  -12.2874   26.2633 C   0  0  0  0  0  0  0  0  0  0  0  0
    7.5098  -13.5545   26.1007 C   0  0  0  0  0  0  0  0  0  0  0  0
   10.1239  -17.1976   25.1578 C   0  0  0  0  0  0  0  0  0  0  0  0
   11.2116  -17.3882   26.0121 O   0  0  0  0  0  0  0  0  0  0  0  0
    9.3435  -18.1624   25.0024 O   0  0  0  0  0  0  0  0  0  0  0  0
  1  2  1  0
  2  3  1  0
  3  4  2  0
  5  6  1  0
  5  3  1  0
  6  7  1  6
  8  7  1  0
  9  8  1  0
 10  9  1  0
 11 10  1  0
 12  6  1  0
 12 13  2  0
 14 12  1  0
 15 14  1  0
 15 26  1  0
 15 16  1  1
 17 16  1  0
 18 17  2  0
 19 20  1  0
 19 18  1  0
 20 25  2  0
 21 20  1  0
 21 22  2  0
 22 23  1  0
 23 24  2  0
 25 17  1  0
 25 24  1  0
 26 28  2  0
 26 27  1  0
M  END
$$$$
