YSH.pdb
     RDKit          3D

 29 30  0  0  1  0  0  0  0  0999 V2000
    7.8380  -13.1020   16.1907 O   0  0  0  0  0  0  0  0  0  0  0  0
    7.6725  -13.5545   17.5059 C   0  0  0  0  0  0  0  0  0  0  0  0
    8.2633  -14.7206   17.9462 C   0  0  0  0  0  0  0  0  0  0  0  0
    8.0861  -15.1489   19.2506 C   0  0  0  0  0  0  0  0  0  0  0  0
    7.3220  -14.4406   20.1578 C   0  0  0  0  0  0  0  0  0  0  0  0
    7.1326  -14.9047   21.5639 C   0  0  0  0  0  0  0  0  0  0  0  0
    6.5675  -16.2884   21.5147 C   0  0  2  0  0  0  0  0  0  0  0  0
    5.2041  -16.2298   21.0654 N   0  0  0  0  0  0  0  0  0  0  0  0
    6.7202  -17.0259   22.7881 C   0  0  0  0  0  0  0  0  0  0  0  0
    5.8590  -16.8595   23.6770 O   0  0  0  0  0  0  0  0  0  0  0  0
    6.7346  -13.2741   19.7067 C   0  0  0  0  0  0  0  0  0  0  0  0
    6.9086  -12.8437   18.4078 C   0  0  0  0  0  0  0  0  0  0  0  0
    7.4148  -20.5710   23.2518 O   0  0  0  0  0  0  0  0  0  0  0  0
    7.1741  -19.8098   24.4108 C   0  0  0  0  0  0  0  0  0  0  0  0
    8.0149  -18.5524   24.3314 C   0  0  2  0  0  0  0  0  0  0  0  0
    7.7953  -17.9134   23.0519 N   0  0  0  0  0  0  0  0  0  0  0  0
    9.4290  -18.9540   24.5191 C   0  0  0  0  0  0  0  0  0  0  0  0
   10.0114  -19.8287   23.8511 O   0  0  0  0  0  0  0  0  0  0  0  0
   10.1646  -18.2882   25.5357 N   0  0  0  0  0  0  0  0  0  0  0  0
   11.5212  -18.6458   25.8798 C   0  0  1  0  0  0  0  0  0  0  0  0
   12.3588  -17.3820   25.6602 C   0  0  0  0  0  0  0  0  0  0  0  0
   12.2163  -16.8649   24.2753 C   0  0  0  0  0  0  0  0  0  0  0  0
   11.3851  -17.3433   23.2893 C   0  0  0  0  0  0  0  0  0  0  0  0
   11.5430  -16.6107   22.1743 N   0  0  0  0  0  0  0  0  0  0  0  0
   12.4791  -15.6540   22.4365 C   0  0  0  0  0  0  0  0  0  0  0  0
   12.8782  -15.8211   23.7153 N   0  0  0  0  0  0  0  0  0  0  0  0
   11.6486  -19.1456   27.2537 C   0  0  0  0  0  0  0  0  0  0  0  0
   10.6636  -19.0776   28.0237 O   0  0  0  0  0  0  0  0  0  0  0  0
   12.8233  -19.6914   27.7301 O   0  0  0  0  0  0  0  0  0  0  0  0
  2  1  1  0
  3  2  2  0
  4  3  1  0
  5  4  2  0
  5 11  1  0
  6  7  1  0
  6  5  1  0
  7  8  1  1
  7  9  1  0
  9 10  2  0
 11 12  2  0
 12  2  1  0
 13 14  1  0
 15 14  1  6
 16  9  1  0
 16 15  1  0
 17 15  1  0
 17 18  2  0
 19 17  1  0
 20 19  1  0
 20 27  1  0
 20 21  1  1
 22 21  1  0
 22 26  1  0
 23 24  1  0
 23 22  2  0
 24 25  1  0
 25 26  2  0
 27 28  2  0
 27 29  1  0
M  END
$$$$
