YSH.pdb
     RDKit          3D

 29 30  0  0  1  0  0  0  0  0999 V2000
    9.1964  -21.1152   33.4779 O   0  0  0  0  0  0  0  0  0  0  0  0
    9.3919  -20.4966   32.2365 C   0  0  0  0  0  0  0  0  0  0  0  0
   10.4835  -19.6875   31.9988 C   0  0  0  0  0  0  0  0  0  0  0  0
   10.6566  -19.0862   30.7640 C   0  0  0  0  0  0  0  0  0  0  0  0
    9.7594  -19.2650   29.7288 C   0  0  0  0  0  0  0  0  0  0  0  0
    9.9486  -18.6153   28.3982 C   0  0  0  0  0  0  0  0  0  0  0  0
    9.9239  -19.6903   27.3588 C   0  0  2  0  0  0  0  0  0  0  0  0
   10.8745  -20.7099   27.7063 N   0  0  0  0  0  0  0  0  0  0  0  0
   10.1114  -19.1764   25.9842 C   0  0  0  0  0  0  0  0  0  0  0  0
   11.0727  -19.6094   25.3149 O   0  0  0  0  0  0  0  0  0  0  0  0
    8.6695  -20.0772   29.9772 C   0  0  0  0  0  0  0  0  0  0  0  0
    8.4931  -20.6783   31.2062 C   0  0  0  0  0  0  0  0  0  0  0  0
    7.4519  -16.4664   24.3804 O   0  0  0  0  0  0  0  0  0  0  0  0
    8.1991  -17.2207   23.4567 C   0  0  0  0  0  0  0  0  0  0  0  0
    9.5156  -17.5918   24.1074 C   0  0  2  0  0  0  0  0  0  0  0  0
    9.2548  -18.2162   25.3864 N   0  0  0  0  0  0  0  0  0  0  0  0
   10.3066  -16.3463   24.2456 C   0  0  0  0  0  0  0  0  0  0  0  0
    9.8322  -15.2362   24.5507 O   0  0  0  0  0  0  0  0  0  0  0  0
   11.7050  -16.4346   24.0115 N   0  0  0  0  0  0  0  0  0  0  0  0
   12.6745  -15.6906   24.7815 C   0  0  1  0  0  0  0  0  0  0  0  0
   12.4508  -16.0930   26.2427 C   0  0  0  0  0  0  0  0  0  0  0  0
   11.4191  -15.2446   26.8920 C   0  0  0  0  0  0  0  0  0  0  0  0
   10.6665  -14.2536   26.3059 C   0  0  0  0  0  0  0  0  0  0  0  0
    9.8426  -13.7152   27.2204 N   0  0  0  0  0  0  0  0  0  0  0  0
   10.0605  -14.3580   28.4035 C   0  0  0  0  0  0  0  0  0  0  0  0
   11.0198  -15.2832   28.1883 N   0  0  0  0  0  0  0  0  0  0  0  0
   14.0563  -15.9444   24.3574 C   0  0  0  0  0  0  0  0  0  0  0  0
   14.9862  -15.2835   24.8732 O   0  0  0  0  0  0  0  0  0  0  0  0
   14.3689  -16.8921   23.4040 O   0  0  0  0  0  0  0  0  0  0  0  0
  2  1  1  0
  3  2  2  0
  4  3  1  0
  5  4  2  0
  5 11  1  0
  6  7  1  0
  6  5  1  0
  7  8  1  1
  7  9  1  0
  9 10  2  0
 11 12  2  0
 12  2  1  0
 13 14  1  0
 15 14  1  1
 16  9  1  0
 16 15  1  0
 17 15  1  0
 17 18  2  0
 19 17  1  0
 20 19  1  0
 20 27  1  0
 20 21  1  1
 22 21  1  0
 22 26  1  0
 23 24  1  0
 23 22  2  0
 24 25  1  0
 25 26  2  0
 27 28  2  0
 27 29  1  0
M  END
$$$$
