YSH.pdb
     RDKit          3D

 29 30  0  0  1  0  0  0  0  0999 V2000
    7.4813  -12.9777   14.4056 O   0  0  0  0  0  0  0  0  0  0  0  0
    7.9816  -13.5827   15.5655 C   0  0  0  0  0  0  0  0  0  0  0  0
    8.5259  -14.8499   15.5397 C   0  0  0  0  0  0  0  0  0  0  0  0
    9.0145  -15.4284   16.6985 C   0  0  0  0  0  0  0  0  0  0  0  0
    8.9808  -14.7749   17.9152 C   0  0  0  0  0  0  0  0  0  0  0  0
    9.5086  -15.4011   19.1633 C   0  0  0  0  0  0  0  0  0  0  0  0
   10.5343  -14.4770   19.7381 C   0  0  2  0  0  0  0  0  0  0  0  0
   11.7188  -14.5169   18.9260 N   0  0  0  0  0  0  0  0  0  0  0  0
   10.8113  -14.7312   21.1689 C   0  0  0  0  0  0  0  0  0  0  0  0
   11.9312  -15.1846   21.4849 O   0  0  0  0  0  0  0  0  0  0  0  0
    8.4337  -13.5062   17.9302 C   0  0  0  0  0  0  0  0  0  0  0  0
    7.9457  -12.9260   16.7779 C   0  0  0  0  0  0  0  0  0  0  0  0
    7.7585  -15.0032   23.7888 O   0  0  0  0  0  0  0  0  0  0  0  0
    8.8820  -14.4198   24.4037 C   0  0  0  0  0  0  0  0  0  0  0  0
   10.1077  -14.7927   23.5957 C   0  0  2  0  0  0  0  0  0  0  0  0
    9.8698  -14.4863   22.2017 N   0  0  0  0  0  0  0  0  0  0  0  0
   10.3586  -16.2367   23.8146 C   0  0  0  0  0  0  0  0  0  0  0  0
   10.4522  -17.0848   22.9076 O   0  0  0  0  0  0  0  0  0  0  0  0
   10.5010  -16.6758   25.1581 N   0  0  0  0  0  0  0  0  0  0  0  0
   10.8348  -18.0380   25.5036 C   0  0  1  0  0  0  0  0  0  0  0  0
   12.2622  -18.2641   24.9951 C   0  0  0  0  0  0  0  0  0  0  0  0
   12.2741  -18.7113   23.5788 C   0  0  0  0  0  0  0  0  0  0  0  0
   11.1978  -18.8117   22.7283 C   0  0  0  0  0  0  0  0  0  0  0  0
   11.6127  -19.2531   21.5292 N   0  0  0  0  0  0  0  0  0  0  0  0
   12.9619  -19.4398   21.6009 C   0  0  0  0  0  0  0  0  0  0  0  0
   13.3486  -19.1069   22.8507 N   0  0  0  0  0  0  0  0  0  0  0  0
   10.7261  -18.3048   26.9425 C   0  0  0  0  0  0  0  0  0  0  0  0
   10.4197  -17.3699   27.7170 O   0  0  0  0  0  0  0  0  0  0  0  0
   10.9509  -19.5578   27.4756 O   0  0  0  0  0  0  0  0  0  0  0  0
  2  1  1  0
  3  2  2  0
  4  3  1  0
  5  4  2  0
  5 11  1  0
  6  7  1  0
  6  5  1  0
  7  8  1  6
  7  9  1  0
  9 10  2  0
 11 12  2  0
 12  2  1  0
 13 14  1  0
 15 14  1  1
 16  9  1  0
 16 15  1  0
 17 15  1  0
 17 18  2  0
 19 17  1  0
 20 19  1  0
 20 27  1  0
 20 21  1  1
 22 21  1  0
 22 26  1  0
 23 24  1  0
 23 22  2  0
 24 25  1  0
 25 26  2  0
 27 28  2  0
 27 29  1  0
M  END
$$$$
