YSH.pdb
     RDKit          3D

 29 30  0  0  1  0  0  0  0  0999 V2000
   15.5916  -13.6807   17.8146 O   0  0  0  0  0  0  0  0  0  0  0  0
   14.6688  -14.0983   18.7820 C   0  0  0  0  0  0  0  0  0  0  0  0
   15.0104  -15.0140   19.7555 C   0  0  0  0  0  0  0  0  0  0  0  0
   14.0820  -15.4125   20.7019 C   0  0  0  0  0  0  0  0  0  0  0  0
   12.7913  -14.9203   20.7159 C   0  0  0  0  0  0  0  0  0  0  0  0
   11.7921  -15.3517   21.7377 C   0  0  0  0  0  0  0  0  0  0  0  0
   11.2758  -16.6950   21.3312 C   0  0  2  0  0  0  0  0  0  0  0  0
   10.2854  -16.5328   20.3031 N   0  0  0  0  0  0  0  0  0  0  0  0
   10.7909  -17.5027   22.4719 C   0  0  0  0  0  0  0  0  0  0  0  0
    9.5763  -17.4555   22.7584 O   0  0  0  0  0  0  0  0  0  0  0  0
   12.4593  -14.0037   19.7366 C   0  0  0  0  0  0  0  0  0  0  0  0
   13.3813  -13.6039   18.7917 C   0  0  0  0  0  0  0  0  0  0  0  0
   13.0882  -20.4152   24.0292 O   0  0  0  0  0  0  0  0  0  0  0  0
   11.7197  -20.4801   24.3510 C   0  0  0  0  0  0  0  0  0  0  0  0
   11.1845  -19.0647   24.4196 C   0  0  2  0  0  0  0  0  0  0  0  0
   11.6350  -18.3290   23.2578 N   0  0  0  0  0  0  0  0  0  0  0  0
   11.6763  -18.4673   25.6834 C   0  0  0  0  0  0  0  0  0  0  0  0
   12.6442  -17.6887   25.7692 O   0  0  0  0  0  0  0  0  0  0  0  0
   10.9883  -18.8132   26.8772 N   0  0  0  0  0  0  0  0  0  0  0  0
   11.4056  -18.3522   28.1809 C   0  0  1  0  0  0  0  0  0  0  0  0
   10.2779  -17.4482   28.6891 C   0  0  0  0  0  0  0  0  0  0  0  0
   10.1478  -16.2197   27.8647 C   0  0  0  0  0  0  0  0  0  0  0  0
   10.9172  -15.8570   26.7838 C   0  0  0  0  0  0  0  0  0  0  0  0
   10.4903  -14.6768   26.3045 N   0  0  0  0  0  0  0  0  0  0  0  0
    9.4409  -14.2718   27.0759 C   0  0  0  0  0  0  0  0  0  0  0  0
    9.2450  -15.2184   28.0183 N   0  0  0  0  0  0  0  0  0  0  0  0
   11.6784  -19.4511   29.1144 C   0  0  0  0  0  0  0  0  0  0  0  0
   11.3566  -20.6186   28.7965 O   0  0  0  0  0  0  0  0  0  0  0  0
   12.2810  -19.2418   30.3383 O   0  0  0  0  0  0  0  0  0  0  0  0
  2  1  1  0
  3  2  2  0
  4  3  1  0
  5  4  2  0
  5 11  1  0
  6  7  1  0
  6  5  1  0
  7  8  1  6
  7  9  1  0
  9 10  2  0
 11 12  2  0
 12  2  1  0
 13 14  1  0
 15 14  1  6
 16  9  1  0
 16 15  1  0
 17 15  1  0
 17 18  2  0
 19 17  1  0
 20 19  1  0
 20 27  1  0
 20 21  1  1
 22 21  1  0
 22 26  1  0
 23 24  1  0
 23 22  2  0
 24 25  1  0
 25 26  2  0
 27 28  2  0
 27 29  1  0
M  END
$$$$
