YSH.pdb
     RDKit          3D

 29 30  0  0  1  0  0  0  0  0999 V2000
   14.2943  -17.8119    7.3129 O   0  0  0  0  0  0  0  0  0  0  0  0
   14.0031  -17.7406    8.6811 C   0  0  0  0  0  0  0  0  0  0  0  0
   13.8619  -18.8786    9.4479 C   0  0  0  0  0  0  0  0  0  0  0  0
   13.5741  -18.7845   10.7986 C   0  0  0  0  0  0  0  0  0  0  0  0
   13.4171  -17.5667   11.4319 C   0  0  0  0  0  0  0  0  0  0  0  0
   13.1067  -17.4680   12.8888 C   0  0  0  0  0  0  0  0  0  0  0  0
   11.6215  -17.5477   13.0446 C   0  0  2  0  0  0  0  0  0  0  0  0
   11.0132  -16.4259   12.3846 N   0  0  0  0  0  0  0  0  0  0  0  0
   11.1899  -17.6874   14.4527 C   0  0  0  0  0  0  0  0  0  0  0  0
   10.3902  -16.8466   14.9143 O   0  0  0  0  0  0  0  0  0  0  0  0
   13.5605  -16.4331   10.6551 C   0  0  0  0  0  0  0  0  0  0  0  0
   13.8473  -16.5224    9.3088 C   0  0  0  0  0  0  0  0  0  0  0  0
    9.4982  -20.3557   15.9318 O   0  0  0  0  0  0  0  0  0  0  0  0
    9.7156  -19.1916   16.6921 C   0  0  0  0  0  0  0  0  0  0  0  0
   11.1997  -18.8890   16.6763 C   0  0  2  0  0  0  0  0  0  0  0  0
   11.6378  -18.7283   15.3066 N   0  0  0  0  0  0  0  0  0  0  0  0
   11.8870  -20.0137   17.3535 C   0  0  0  0  0  0  0  0  0  0  0  0
   12.2906  -21.0441   16.7825 O   0  0  0  0  0  0  0  0  0  0  0  0
   12.0961  -19.8997   18.7540 N   0  0  0  0  0  0  0  0  0  0  0  0
   13.4004  -19.6781   19.3336 C   0  0  1  0  0  0  0  0  0  0  0  0
   13.9030  -18.3550   18.7473 C   0  0  0  0  0  0  0  0  0  0  0  0
   14.9387  -18.5763   17.7060 C   0  0  0  0  0  0  0  0  0  0  0  0
   15.4479  -19.7813   17.2809 C   0  0  0  0  0  0  0  0  0  0  0  0
   16.3668  -19.5681   16.3243 N   0  0  0  0  0  0  0  0  0  0  0  0
   16.4548  -18.2213   16.1275 C   0  0  0  0  0  0  0  0  0  0  0  0
   15.5822  -17.6330   16.9730 N   0  0  0  0  0  0  0  0  0  0  0  0
   13.3745  -19.6430   20.8005 C   0  0  0  0  0  0  0  0  0  0  0  0
   14.4548  -19.6724   21.4328 O   0  0  0  0  0  0  0  0  0  0  0  0
   12.1938  -19.5782   21.5122 O   0  0  0  0  0  0  0  0  0  0  0  0
  2  1  1  0
  3  2  2  0
  4  3  1  0
  5  4  2  0
  5 11  1  0
  6  7  1  0
  6  5  1  0
  7  8  1  1
  7  9  1  0
  9 10  2  0
 11 12  2  0
 12  2  1  0
 13 14  1  0
 15 14  1  6
 16  9  1  0
 16 15  1  0
 17 15  1  0
 17 18  2  0
 19 17  1  0
 20 19  1  0
 20 27  1  0
 20 21  1  6
 22 21  1  0
 22 26  1  0
 23 24  1  0
 23 22  2  0
 24 25  1  0
 25 26  2  0
 27 28  2  0
 27 29  1  0
M  END
$$$$
