YSH.pdb
     RDKit          3D

 29 30  0  0  1  0  0  0  0  0999 V2000
    5.5537  -10.3481   26.2273 O   0  0  0  0  0  0  0  0  0  0  0  0
    5.9533  -11.6752   26.0253 C   0  0  0  0  0  0  0  0  0  0  0  0
    6.8815  -12.0093   25.0611 C   0  0  0  0  0  0  0  0  0  0  0  0
    7.2618  -13.3278   24.8789 C   0  0  0  0  0  0  0  0  0  0  0  0
    6.7385  -14.3542   25.6413 C   0  0  0  0  0  0  0  0  0  0  0  0
    7.1504  -15.7752   25.4427 C   0  0  0  0  0  0  0  0  0  0  0  0
    7.2092  -16.0310   23.9704 C   0  0  2  0  0  0  0  0  0  0  0  0
    5.9354  -16.5210   23.5215 N   0  0  0  0  0  0  0  0  0  0  0  0
    8.3326  -16.9091   23.5758 C   0  0  0  0  0  0  0  0  0  0  0  0
    8.1240  -17.7881   22.7136 O   0  0  0  0  0  0  0  0  0  0  0  0
    5.8096  -14.0090   26.6042 C   0  0  0  0  0  0  0  0  0  0  0  0
    5.4278  -12.6964   26.7891 C   0  0  0  0  0  0  0  0  0  0  0  0
   11.1780  -15.8846   22.0765 O   0  0  0  0  0  0  0  0  0  0  0  0
   11.0269  -17.2773   22.2108 C   0  0  0  0  0  0  0  0  0  0  0  0
   10.7665  -17.5840   23.6711 C   0  0  2  0  0  0  0  0  0  0  0  0
    9.6359  -16.8041   24.1267 N   0  0  0  0  0  0  0  0  0  0  0  0
   12.0047  -17.2603   24.4181 C   0  0  0  0  0  0  0  0  0  0  0  0
   12.6357  -16.1918   24.3141 O   0  0  0  0  0  0  0  0  0  0  0  0
   12.4999  -18.2449   25.3143 N   0  0  0  0  0  0  0  0  0  0  0  0
   12.5083  -18.0635   26.7474 C   0  0  1  0  0  0  0  0  0  0  0  0
   11.0475  -17.8428   27.1529 C   0  0  0  0  0  0  0  0  0  0  0  0
   10.7679  -16.4116   27.4341 C   0  0  0  0  0  0  0  0  0  0  0  0
   11.6534  -15.3612   27.3659 C   0  0  0  0  0  0  0  0  0  0  0  0
   11.0230  -14.2206   27.6925 N   0  0  0  0  0  0  0  0  0  0  0  0
    9.7249  -14.5308   27.9737 C   0  0  0  0  0  0  0  0  0  0  0  0
    9.5855  -15.8638   27.8125 N   0  0  0  0  0  0  0  0  0  0  0  0
   13.1013  -19.1992   27.4629 C   0  0  0  0  0  0  0  0  0  0  0  0
   13.6198  -19.0114   28.5870 O   0  0  0  0  0  0  0  0  0  0  0  0
   13.1076  -20.4753   26.9371 O   0  0  0  0  0  0  0  0  0  0  0  0
  2  1  1  0
  3  2  2  0
  4  3  1  0
  5  4  2  0
  5 11  1  0
  6  7  1  0
  6  5  1  0
  7  8  1  1
  7  9  1  0
  9 10  2  0
 11 12  2  0
 12  2  1  0
 13 14  1  0
 15 14  1  6
 16  9  1  0
 16 15  1  0
 17 15  1  0
 17 18  2  0
 19 17  1  0
 20 19  1  0
 20 27  1  0
 20 21  1  1
 22 21  1  0
 22 26  1  0
 23 24  1  0
 23 22  2  0
 24 25  1  0
 25 26  2  0
 27 28  2  0
 27 29  1  0
M  END
$$$$
