YSH.pdb
     RDKit          3D

 29 30  0  0  1  0  0  0  0  0999 V2000
   11.1181  -25.0657   10.6256 O   0  0  0  0  0  0  0  0  0  0  0  0
   11.5629  -24.5060   11.8301 C   0  0  0  0  0  0  0  0  0  0  0  0
   12.9041  -24.2956   12.0748 C   0  0  0  0  0  0  0  0  0  0  0  0
   13.3212  -23.7410   13.2726 C   0  0  0  0  0  0  0  0  0  0  0  0
   12.4289  -23.3781   14.2629 C   0  0  0  0  0  0  0  0  0  0  0  0
   12.8814  -22.7801   15.5537 C   0  0  0  0  0  0  0  0  0  0  0  0
   12.3799  -21.3721   15.6041 C   0  0  2  0  0  0  0  0  0  0  0  0
   12.9122  -20.6374   14.4901 N   0  0  0  0  0  0  0  0  0  0  0  0
   12.6339  -20.7090   16.9020 C   0  0  0  0  0  0  0  0  0  0  0  0
   13.6971  -20.0692   17.0433 O   0  0  0  0  0  0  0  0  0  0  0  0
   11.0880  -23.5930   14.0080 C   0  0  0  0  0  0  0  0  0  0  0  0
   10.6681  -24.1454   12.8158 C   0  0  0  0  0  0  0  0  0  0  0  0
    9.7809  -20.7618   19.8283 O   0  0  0  0  0  0  0  0  0  0  0  0
   10.7488  -19.7480   19.9537 C   0  0  0  0  0  0  0  0  0  0  0  0
   12.0298  -20.2377   19.3105 C   0  0  2  0  0  0  0  0  0  0  0  0
   11.7313  -20.7623   17.9954 N   0  0  0  0  0  0  0  0  0  0  0  0
   12.6069  -21.2689   20.2047 C   0  0  0  0  0  0  0  0  0  0  0  0
   12.3873  -22.4910   20.1108 O   0  0  0  0  0  0  0  0  0  0  0  0
   13.4710  -20.8222   21.2400 N   0  0  0  0  0  0  0  0  0  0  0  0
   14.1061  -21.7253   22.1715 C   0  0  1  0  0  0  0  0  0  0  0  0
   15.6128  -21.5892   21.9297 C   0  0  0  0  0  0  0  0  0  0  0  0
   15.9765  -21.9380   20.5327 C   0  0  0  0  0  0  0  0  0  0  0  0
   15.4347  -22.9351   19.7554 C   0  0  0  0  0  0  0  0  0  0  0  0
   16.0266  -22.9361   18.5494 N   0  0  0  0  0  0  0  0  0  0  0  0
   16.9552  -21.9371   18.5431 C   0  0  0  0  0  0  0  0  0  0  0  0
   16.9130  -21.3405   19.7534 N   0  0  0  0  0  0  0  0  0  0  0  0
   13.7561  -21.4431   23.5684 C   0  0  0  0  0  0  0  0  0  0  0  0
   14.1594  -22.2145   24.4684 O   0  0  0  0  0  0  0  0  0  0  0  0
   12.9933  -20.3504   23.9275 O   0  0  0  0  0  0  0  0  0  0  0  0
  2  1  1  0
  3  2  2  0
  4  3  1  0
  5  4  2  0
  5 11  1  0
  6  7  1  0
  6  5  1  0
  7  8  1  6
  7  9  1  0
  9 10  2  0
 11 12  2  0
 12  2  1  0
 13 14  1  0
 15 14  1  1
 16  9  1  0
 16 15  1  0
 17 15  1  0
 17 18  2  0
 19 17  1  0
 20 19  1  0
 20 27  1  0
 20 21  1  1
 22 21  1  0
 22 26  1  0
 23 24  1  0
 23 22  2  0
 24 25  1  0
 25 26  2  0
 27 28  2  0
 27 29  1  0
M  END
$$$$
