YSH.pdb
     RDKit          3D

 29 30  0  0  1  0  0  0  0  0999 V2000
    6.0719  -13.3472   18.4926 O   0  0  0  0  0  0  0  0  0  0  0  0
    7.4614  -13.4048   18.6588 C   0  0  0  0  0  0  0  0  0  0  0  0
    8.0622  -13.0216   19.8399 C   0  0  0  0  0  0  0  0  0  0  0  0
    9.4376  -13.0869   19.9820 C   0  0  0  0  0  0  0  0  0  0  0  0
   10.2598  -13.5314   18.9647 C   0  0  0  0  0  0  0  0  0  0  0  0
   11.7429  -13.6009   19.1207 C   0  0  0  0  0  0  0  0  0  0  0  0
   12.0921  -14.9932   19.5400 C   0  0  2  0  0  0  0  0  0  0  0  0
   11.6607  -15.9172   18.5280 N   0  0  0  0  0  0  0  0  0  0  0  0
   11.5866  -15.3405   20.8863 C   0  0  0  0  0  0  0  0  0  0  0  0
   12.0788  -14.7557   21.8739 O   0  0  0  0  0  0  0  0  0  0  0  0
    9.6482  -13.9128   17.7858 C   0  0  0  0  0  0  0  0  0  0  0  0
    8.2780  -13.8493   17.6400 C   0  0  0  0  0  0  0  0  0  0  0  0
    8.6892  -18.2693   21.3615 O   0  0  0  0  0  0  0  0  0  0  0  0
    8.8015  -17.3265   22.4003 C   0  0  0  0  0  0  0  0  0  0  0  0
   10.2282  -16.8181   22.4225 C   0  0  2  0  0  0  0  0  0  0  0  0
   10.5706  -16.3044   21.1138 N   0  0  0  0  0  0  0  0  0  0  0  0
   11.0951  -17.9520   22.8210 C   0  0  0  0  0  0  0  0  0  0  0  0
   11.8203  -18.5973   22.0411 O   0  0  0  0  0  0  0  0  0  0  0  0
   11.0921  -18.3223   24.1925 N   0  0  0  0  0  0  0  0  0  0  0  0
   12.0663  -19.2252   24.7600 C   0  0  1  0  0  0  0  0  0  0  0  0
   13.4375  -18.6231   24.4369 C   0  0  0  0  0  0  0  0  0  0  0  0
   14.5430  -19.4850   24.9277 C   0  0  0  0  0  0  0  0  0  0  0  0
   14.5096  -20.8443   25.1355 C   0  0  0  0  0  0  0  0  0  0  0  0
   15.7062  -21.2596   25.5834 N   0  0  0  0  0  0  0  0  0  0  0  0
   16.5189  -20.1674   25.6668 C   0  0  0  0  0  0  0  0  0  0  0  0
   15.7989  -19.0982   25.2656 N   0  0  0  0  0  0  0  0  0  0  0  0
   11.8897  -19.4213   26.2035 C   0  0  0  0  0  0  0  0  0  0  0  0
   12.6756  -20.1767   26.8195 O   0  0  0  0  0  0  0  0  0  0  0  0
   10.8814  -18.7984   26.9108 O   0  0  0  0  0  0  0  0  0  0  0  0
  2  1  1  0
  3  2  2  0
  4  3  1  0
  5  4  2  0
  5 11  1  0
  6  7  1  0
  6  5  1  0
  7  8  1  6
  7  9  1  0
  9 10  2  0
 11 12  2  0
 12  2  1  0
 13 14  1  0
 15 14  1  6
 16  9  1  0
 16 15  1  0
 17 15  1  0
 17 18  2  0
 19 17  1  0
 20 19  1  0
 20 27  1  0
 20 21  1  1
 22 21  1  0
 22 26  1  0
 23 24  1  0
 23 22  2  0
 24 25  1  0
 25 26  2  0
 27 28  2  0
 27 29  1  0
M  END
$$$$
