YSH.pdb
     RDKit          3D

 29 30  0  0  1  0  0  0  0  0999 V2000
    7.8460  -13.2199   15.8334 O   0  0  0  0  0  0  0  0  0  0  0  0
    7.7663  -13.6000   17.1791 C   0  0  0  0  0  0  0  0  0  0  0  0
    8.2790  -14.8024   17.6197 C   0  0  0  0  0  0  0  0  0  0  0  0
    8.1891  -15.1576   18.9546 C   0  0  0  0  0  0  0  0  0  0  0  0
    7.5915  -14.3384   19.8930 C   0  0  0  0  0  0  0  0  0  0  0  0
    7.4959  -14.7239   21.3320 C   0  0  0  0  0  0  0  0  0  0  0  0
    6.8372  -16.0646   21.4017 C   0  0  2  0  0  0  0  0  0  0  0  0
    5.4639  -15.9414   20.9978 N   0  0  0  0  0  0  0  0  0  0  0  0
    6.9908  -16.7218   22.7182 C   0  0  0  0  0  0  0  0  0  0  0  0
    6.4399  -16.1994   23.7098 O   0  0  0  0  0  0  0  0  0  0  0  0
    7.0811  -13.1364   19.4414 C   0  0  0  0  0  0  0  0  0  0  0  0
    7.1686  -12.7785   18.1121 C   0  0  0  0  0  0  0  0  0  0  0  0
    7.4892  -20.5275   23.4080 O   0  0  0  0  0  0  0  0  0  0  0  0
    7.4006  -19.6796   24.5277 C   0  0  0  0  0  0  0  0  0  0  0  0
    8.1486  -18.4011   24.2107 C   0  0  2  0  0  0  0  0  0  0  0  0
    7.7321  -17.9158   22.9127 N   0  0  0  0  0  0  0  0  0  0  0  0
    9.5963  -18.7148   24.2508 C   0  0  0  0  0  0  0  0  0  0  0  0
   10.2272  -19.2666   23.3299 O   0  0  0  0  0  0  0  0  0  0  0  0
   10.3070  -18.3569   25.4276 N   0  0  0  0  0  0  0  0  0  0  0  0
   11.6882  -18.7187   25.6466 C   0  0  1  0  0  0  0  0  0  0  0  0
   12.5014  -17.4429   25.4057 C   0  0  0  0  0  0  0  0  0  0  0  0
   12.3025  -16.9189   24.0304 C   0  0  0  0  0  0  0  0  0  0  0  0
   11.4803  -17.4322   23.0545 C   0  0  0  0  0  0  0  0  0  0  0  0
   11.5745  -16.6790   21.9460 N   0  0  0  0  0  0  0  0  0  0  0  0
   12.4601  -15.6739   22.2024 C   0  0  0  0  0  0  0  0  0  0  0  0
   12.8933  -15.8328   23.4711 N   0  0  0  0  0  0  0  0  0  0  0  0
   11.9288  -19.2671   26.9864 C   0  0  0  0  0  0  0  0  0  0  0  0
   11.0035  -19.2509   27.8298 O   0  0  0  0  0  0  0  0  0  0  0  0
   13.1468  -19.8035   27.3518 O   0  0  0  0  0  0  0  0  0  0  0  0
  2  1  1  0
  3  2  2  0
  4  3  1  0
  5  4  2  0
  5 11  1  0
  6  7  1  0
  6  5  1  0
  7  8  1  1
  7  9  1  0
  9 10  2  0
 11 12  2  0
 12  2  1  0
 13 14  1  0
 15 14  1  6
 16  9  1  0
 16 15  1  0
 17 15  1  0
 17 18  2  0
 19 17  1  0
 20 19  1  0
 20 27  1  0
 20 21  1  1
 22 21  1  0
 22 26  1  0
 23 24  1  0
 23 22  2  0
 24 25  1  0
 25 26  2  0
 27 28  2  0
 27 29  1  0
M  END
$$$$
