YSH.pdb
     RDKit          3D

 29 30  0  0  1  0  0  0  0  0999 V2000
    5.1059  -10.2289   27.0563 O   0  0  0  0  0  0  0  0  0  0  0  0
    5.7711  -11.3974   26.6640 C   0  0  0  0  0  0  0  0  0  0  0  0
    6.6689  -11.3982   25.6166 C   0  0  0  0  0  0  0  0  0  0  0  0
    7.3150  -12.5650   25.2460 C   0  0  0  0  0  0  0  0  0  0  0  0
    7.0949  -13.7637   25.8966 C   0  0  0  0  0  0  0  0  0  0  0  0
    7.7932  -15.0205   25.4949 C   0  0  0  0  0  0  0  0  0  0  0  0
    7.0639  -15.5915   24.3207 C   0  0  2  0  0  0  0  0  0  0  0  0
    5.8142  -16.1469   24.7611 N   0  0  0  0  0  0  0  0  0  0  0  0
    7.8754  -16.5523   23.5416 C   0  0  0  0  0  0  0  0  0  0  0  0
    7.8214  -17.7613   23.8497 O   0  0  0  0  0  0  0  0  0  0  0  0
    6.1939  -13.7522   26.9441 C   0  0  0  0  0  0  0  0  0  0  0  0
    5.5479  -12.5918   27.3167 C   0  0  0  0  0  0  0  0  0  0  0  0
   10.5801  -14.9922   20.9799 O   0  0  0  0  0  0  0  0  0  0  0  0
   10.3464  -16.3500   20.6928 C   0  0  0  0  0  0  0  0  0  0  0  0
    9.7734  -17.0020   21.9341 C   0  0  2  0  0  0  0  0  0  0  0  0
    8.7125  -16.1710   22.4613 N   0  0  0  0  0  0  0  0  0  0  0  0
   10.8852  -17.1666   22.8999 C   0  0  0  0  0  0  0  0  0  0  0  0
   11.4276  -16.2337   23.5214 O   0  0  0  0  0  0  0  0  0  0  0  0
   11.3597  -18.4863   23.1267 N   0  0  0  0  0  0  0  0  0  0  0  0
   12.5532  -18.7669   23.8903 C   0  0  1  0  0  0  0  0  0  0  0  0
   12.1328  -19.7581   24.9802 C   0  0  0  0  0  0  0  0  0  0  0  0
   11.3596  -19.0905   26.0583 C   0  0  0  0  0  0  0  0  0  0  0  0
   11.6185  -17.8685   26.6343 C   0  0  0  0  0  0  0  0  0  0  0  0
   10.6935  -17.6099   27.5737 N   0  0  0  0  0  0  0  0  0  0  0  0
    9.8317  -18.6666   27.6081 C   0  0  0  0  0  0  0  0  0  0  0  0
   10.2489  -19.5568   26.6830 N   0  0  0  0  0  0  0  0  0  0  0  0
   13.6448  -19.3007   23.0675 C   0  0  0  0  0  0  0  0  0  0  0  0
   14.7431  -19.5679   23.6060 O   0  0  0  0  0  0  0  0  0  0  0  0
   13.5026  -19.5199   21.7123 O   0  0  0  0  0  0  0  0  0  0  0  0
  2  1  1  0
  3  2  2  0
  4  3  1  0
  5  4  2  0
  5 11  1  0
  6  7  1  0
  6  5  1  0
  7  8  1  1
  7  9  1  0
  9 10  2  0
 11 12  2  0
 12  2  1  0
 13 14  1  0
 15 14  1  6
 16  9  1  0
 16 15  1  0
 17 15  1  0
 17 18  2  0
 19 17  1  0
 20 19  1  0
 20 27  1  0
 20 21  1  1
 22 21  1  0
 22 26  1  0
 23 24  1  0
 23 22  2  0
 24 25  1  0
 25 26  2  0
 27 28  2  0
 27 29  1  0
M  END
$$$$
