YSH.pdb
     RDKit          3D

 29 30  0  0  1  0  0  0  0  0999 V2000
   10.6184  -12.3441   18.6903 O   0  0  0  0  0  0  0  0  0  0  0  0
    9.6419  -13.1816   19.2441 C   0  0  0  0  0  0  0  0  0  0  0  0
    9.9737  -14.3852   19.8309 C   0  0  0  0  0  0  0  0  0  0  0  0
    8.9919  -15.1972   20.3721 C   0  0  0  0  0  0  0  0  0  0  0  0
    7.6558  -14.8466   20.3506 C   0  0  0  0  0  0  0  0  0  0  0  0
    6.5991  -15.7241   20.9351 C   0  0  0  0  0  0  0  0  0  0  0  0
    6.3024  -15.2241   22.3129 C   0  0  2  0  0  0  0  0  0  0  0  0
    5.7813  -13.8877   22.2321 N   0  0  0  0  0  0  0  0  0  0  0  0
    7.4548  -15.3353   23.2340 C   0  0  0  0  0  0  0  0  0  0  0  0
    8.0189  -14.2857   23.6078 O   0  0  0  0  0  0  0  0  0  0  0  0
    7.3341  -13.6392   19.7606 C   0  0  0  0  0  0  0  0  0  0  0  0
    8.3093  -12.8270   19.2201 C   0  0  0  0  0  0  0  0  0  0  0  0
    7.9499  -18.3357   25.8000 O   0  0  0  0  0  0  0  0  0  0  0  0
    8.6943  -17.1496   25.9394 C   0  0  0  0  0  0  0  0  0  0  0  0
    9.1220  -16.6970   24.5586 C   0  0  2  0  0  0  0  0  0  0  0  0
    7.9528  -16.5738   23.7150 N   0  0  0  0  0  0  0  0  0  0  0  0
   10.0798  -17.7025   24.0411 C   0  0  0  0  0  0  0  0  0  0  0  0
    9.7561  -18.7599   23.4686 O   0  0  0  0  0  0  0  0  0  0  0  0
   11.4635  -17.4326   24.2151 N   0  0  0  0  0  0  0  0  0  0  0  0
   12.3882  -17.3483   23.1086 C   0  0  1  0  0  0  0  0  0  0  0  0
   11.7535  -16.3841   22.1014 C   0  0  0  0  0  0  0  0  0  0  0  0
   12.5864  -16.2422   20.8800 C   0  0  0  0  0  0  0  0  0  0  0  0
   13.0692  -17.2512   20.0795 C   0  0  0  0  0  0  0  0  0  0  0  0
   13.7810  -16.7222   19.0703 N   0  0  0  0  0  0  0  0  0  0  0  0
   13.7606  -15.3662   19.2156 C   0  0  0  0  0  0  0  0  0  0  0  0
   13.0319  -15.0902   20.3180 N   0  0  0  0  0  0  0  0  0  0  0  0
   13.7253  -16.9007   23.5152 C   0  0  0  0  0  0  0  0  0  0  0  0
   14.6506  -16.8913   22.6716 O   0  0  0  0  0  0  0  0  0  0  0  0
   14.0007  -16.4871   24.8028 O   0  0  0  0  0  0  0  0  0  0  0  0
  2  1  1  0
  3  2  2  0
  4  3  1  0
  5  4  2  0
  5 11  1  0
  6  7  1  0
  6  5  1  0
  7  8  1  6
  7  9  1  0
  9 10  2  0
 11 12  2  0
 12  2  1  0
 13 14  1  0
 15 14  1  1
 16  9  1  0
 16 15  1  0
 17 15  1  0
 17 18  2  0
 19 17  1  0
 20 19  1  0
 20 27  1  0
 20 21  1  6
 22 21  1  0
 22 26  1  0
 23 24  1  0
 23 22  2  0
 24 25  1  0
 25 26  2  0
 27 28  2  0
 27 29  1  0
M  END
$$$$
