WLY.pdb
     RDKit          3D

 35 37  0  0  1  0  0  0  0  0999 V2000
   24.9099  -20.6189  -17.0459 N   0  0  0  0  0  0  0  0  0  0  0  0
   25.2120  -19.9909  -15.7543 C   0  0  1  0  0  0  0  0  0  0  0  0
   24.9534  -18.5062  -15.9745 C   0  0  0  0  0  0  0  0  0  0  0  0
   25.9671  -17.8934  -16.8468 C   0  0  0  0  0  0  0  0  0  0  0  0
   25.8044  -17.0230  -17.9053 C   0  0  0  0  0  0  0  0  0  0  0  0
   27.0023  -16.7084  -18.4320 N   0  0  0  0  0  0  0  0  0  0  0  0
   27.9767  -17.3527  -17.7464 C   0  0  0  0  0  0  0  0  0  0  0  0
   29.3586  -17.3663  -17.8871 C   0  0  0  0  0  0  0  0  0  0  0  0
   30.1322  -18.1282  -17.0320 C   0  0  0  0  0  0  0  0  0  0  0  0
   29.5065  -18.8704  -16.0416 C   0  0  0  0  0  0  0  0  0  0  0  0
   28.1282  -18.8415  -15.9202 C   0  0  0  0  0  0  0  0  0  0  0  0
   27.3499  -18.0906  -16.7613 C   0  0  0  0  0  0  0  0  0  0  0  0
   24.2747  -20.4754  -14.7204 C   0  0  0  0  0  0  0  0  0  0  0  0
   23.2150  -21.0438  -15.0780 O   0  0  0  0  0  0  0  0  0  0  0  0
   26.3986  -21.5054  -11.4595 C   0  0  0  0  0  0  0  0  0  0  0  0
   25.1727  -21.6230  -10.4859 C   0  0  1  0  0  0  0  0  0  0  0  0
   25.8018  -21.2512   -9.1466 C   0  0  0  0  0  0  0  0  0  0  0  0
   24.1974  -20.6593  -11.0091 C   0  0  0  0  0  0  0  0  0  0  0  0
   23.5709  -20.8290  -12.3397 C   0  0  2  0  0  0  0  0  0  0  0  0
   24.5547  -20.3078  -13.3517 N   0  0  0  0  0  0  0  0  0  0  0  0
   22.2699  -20.2661  -12.6257 C   0  0  0  0  0  0  0  0  0  0  0  0
   22.1831  -18.9811  -12.7018 O   0  0  0  0  0  0  0  0  0  0  0  0
   18.9575  -25.0978  -16.9791 O   0  0  0  0  0  0  0  0  0  0  0  0
   19.0783  -23.8667  -16.3723 C   0  0  0  0  0  0  0  0  0  0  0  0
   20.2644  -23.1756  -16.4590 C   0  0  0  0  0  0  0  0  0  0  0  0
   20.4104  -21.9412  -15.8602 C   0  0  0  0  0  0  0  0  0  0  0  0
   19.3610  -21.3589  -15.1503 C   0  0  0  0  0  0  0  0  0  0  0  0
   19.5667  -20.0417  -14.5314 C   0  0  0  0  0  0  0  0  0  0  0  0
   19.8278  -20.1995  -13.0161 C   0  0  2  0  0  0  0  0  0  0  0  0
   21.0433  -20.9295  -12.8531 N   0  0  0  0  0  0  0  0  0  0  0  0
   18.6880  -20.8991  -12.4178 C   0  0  0  0  0  0  0  0  0  0  0  0
   17.3940  -20.4601  -12.3133 O   0  0  0  0  0  0  0  0  0  0  0  0
   18.1899  -22.0769  -15.0836 C   0  0  0  0  0  0  0  0  0  0  0  0
   18.0244  -23.3155  -15.6772 C   0  0  0  0  0  0  0  0  0  0  0  0
   18.9085  -22.0692  -11.9247 O   0  0  0  0  0  0  0  0  0  0  0  0
  2  1  1  6
  3  2  1  0
  4  5  2  0
  4  3  1  0
  6  5  1  0
  7 12  2  0
  7  6  1  0
  8  7  1  0
  9 10  1  0
  9  8  2  0
 10 11  2  0
 11 12  1  0
 12  4  1  0
 13  2  1  0
 14 13  2  0
 16 15  1  6
 16 18  1  0
 17 16  1  0
 19 18  1  1
 19 21  1  0
 19 20  1  0
 20 13  1  0
 21 30  1  0
 22 21  2  0
 23 24  1  0
 24 25  2  0
 24 34  1  0
 25 26  1  0
 26 27  2  0
 27 28  1  0
 29 28  1  6
 29 31  1  0
 30 29  1  0
 31 35  2  0
 31 32  1  0
 33 27  1  0
 34 33  2  0
M  END
$$$$
