WLY.pdb
     RDKit          3D

 35 37  0  0  1  0  0  0  0  0999 V2000
   27.0170  -18.8298   -8.9017 N   0  0  0  0  0  0  0  0  0  0  0  0
   26.9325  -20.2188   -9.3678 C   0  0  1  0  0  0  0  0  0  0  0  0
   26.0790  -20.9274   -8.3241 C   0  0  0  0  0  0  0  0  0  0  0  0
   26.5478  -20.6613   -6.9554 C   0  0  0  0  0  0  0  0  0  0  0  0
   25.8187  -20.4224   -5.8083 C   0  0  0  0  0  0  0  0  0  0  0  0
   26.6485  -20.2250   -4.7671 N   0  0  0  0  0  0  0  0  0  0  0  0
   27.9311  -20.3262   -5.1906 C   0  0  0  0  0  0  0  0  0  0  0  0
   29.1428  -20.2086   -4.5215 C   0  0  0  0  0  0  0  0  0  0  0  0
   30.3303  -20.3627   -5.2115 C   0  0  0  0  0  0  0  0  0  0  0  0
   30.2871  -20.6340   -6.5708 C   0  0  0  0  0  0  0  0  0  0  0  0
   29.0682  -20.7467   -7.2166 C   0  0  0  0  0  0  0  0  0  0  0  0
   27.8839  -20.5963   -6.5444 C   0  0  0  0  0  0  0  0  0  0  0  0
   26.2247  -20.2796  -10.6630 C   0  0  0  0  0  0  0  0  0  0  0  0
   25.1697  -19.6171  -10.8116 O   0  0  0  0  0  0  0  0  0  0  0  0
   29.4326  -21.0243  -15.1780 C   0  0  0  0  0  0  0  0  0  0  0  0
   28.4718  -20.2388  -14.2166 C   0  0  1  0  0  0  0  0  0  0  0  0
   28.1933  -18.9725  -15.0209 C   0  0  0  0  0  0  0  0  0  0  0  0
   27.3222  -21.1335  -14.0386 C   0  0  0  0  0  0  0  0  0  0  0  0
   26.2131  -20.8028  -13.1153 C   0  0  2  0  0  0  0  0  0  0  0  0
   26.7161  -21.0652  -11.7219 N   0  0  0  0  0  0  0  0  0  0  0  0
   24.9140  -21.4208  -13.2631 C   0  0  0  0  0  0  0  0  0  0  0  0
   24.8130  -22.6700  -12.9571 O   0  0  0  0  0  0  0  0  0  0  0  0
   16.6199  -23.7336  -12.5309 O   0  0  0  0  0  0  0  0  0  0  0  0
   17.7996  -23.0246  -12.5932 C   0  0  0  0  0  0  0  0  0  0  0  0
   18.8677  -23.4053  -11.8146 C   0  0  0  0  0  0  0  0  0  0  0  0
   20.0596  -22.7117  -11.8590 C   0  0  0  0  0  0  0  0  0  0  0  0
   20.2161  -21.6058  -12.6936 C   0  0  0  0  0  0  0  0  0  0  0  0
   21.5061  -20.9014  -12.7050 C   0  0  0  0  0  0  0  0  0  0  0  0
   22.4822  -21.5922  -13.6842 C   0  0  2  0  0  0  0  0  0  0  0  0
   23.6979  -20.8447  -13.6937 N   0  0  0  0  0  0  0  0  0  0  0  0
   21.8590  -21.6354  -15.0095 C   0  0  0  0  0  0  0  0  0  0  0  0
   21.0320  -22.6028  -15.5175 O   0  0  0  0  0  0  0  0  0  0  0  0
   19.1286  -21.2528  -13.4581 C   0  0  0  0  0  0  0  0  0  0  0  0
   17.9259  -21.9355  -13.4273 C   0  0  0  0  0  0  0  0  0  0  0  0
   22.1065  -20.6548  -15.8085 O   0  0  0  0  0  0  0  0  0  0  0  0
  2  1  1  1
  3  2  1  0
  4  5  2  0
  4  3  1  0
  6  5  1  0
  7 12  2  0
  7  6  1  0
  8  7  1  0
  9 10  1  0
  9  8  2  0
 10 11  2  0
 11 12  1  0
 12  4  1  0
 13  2  1  0
 14 13  2  0
 16 15  1  6
 16 18  1  0
 17 16  1  0
 19 18  1  6
 19 21  1  0
 19 20  1  0
 20 13  1  0
 21 30  1  0
 22 21  2  0
 23 24  1  0
 24 25  2  0
 24 34  1  0
 25 26  1  0
 26 27  2  0
 27 28  1  0
 29 28  1  1
 29 31  1  0
 30 29  1  0
 31 35  2  0
 31 32  1  0
 33 27  1  0
 34 33  2  0
M  END
$$$$
