WLY.pdb
     RDKit          3D

 35 37  0  0  1  0  0  0  0  0999 V2000
   26.2365  -20.5633  -16.4047 N   0  0  0  0  0  0  0  0  0  0  0  0
   26.1513  -19.7735  -15.1707 C   0  0  1  0  0  0  0  0  0  0  0  0
   25.4154  -18.5022  -15.5734 C   0  0  0  0  0  0  0  0  0  0  0  0
   26.1655  -17.7234  -16.5708 C   0  0  0  0  0  0  0  0  0  0  0  0
   25.7020  -16.8424  -17.5266 C   0  0  0  0  0  0  0  0  0  0  0  0
   26.7330  -16.3473  -18.2362 N   0  0  0  0  0  0  0  0  0  0  0  0
   27.8904  -16.8794  -17.7760 C   0  0  0  0  0  0  0  0  0  0  0  0
   29.2133  -16.6993  -18.1598 C   0  0  0  0  0  0  0  0  0  0  0  0
   30.2211  -17.3817  -17.5050 C   0  0  0  0  0  0  0  0  0  0  0  0
   29.8874  -18.2405  -16.4685 C   0  0  0  0  0  0  0  0  0  0  0  0
   28.5626  -18.4042  -16.1034 C   0  0  0  0  0  0  0  0  0  0  0  0
   27.5541  -17.7338  -16.7442 C   0  0  0  0  0  0  0  0  0  0  0  0
   25.3328  -20.4835  -14.1667 C   0  0  0  0  0  0  0  0  0  0  0  0
   24.5832  -21.4167  -14.5424 O   0  0  0  0  0  0  0  0  0  0  0  0
   26.9443  -20.6199   -8.8444 C   0  0  0  0  0  0  0  0  0  0  0  0
   26.6733  -20.9072  -10.3638 C   0  0  1  0  0  0  0  0  0  0  0  0
   27.2181  -22.3244  -10.5148 C   0  0  0  0  0  0  0  0  0  0  0  0
   25.2186  -20.7768  -10.5062 C   0  0  0  0  0  0  0  0  0  0  0  0
   24.5500  -20.9009  -11.8213 C   0  0  2  0  0  0  0  0  0  0  0  0
   25.3841  -20.1278  -12.8062 N   0  0  0  0  0  0  0  0  0  0  0  0
   23.1646  -20.5220  -11.9892 C   0  0  0  0  0  0  0  0  0  0  0  0
   22.8769  -19.2679  -11.8947 O   0  0  0  0  0  0  0  0  0  0  0  0
   15.9937  -17.9341  -15.6598 O   0  0  0  0  0  0  0  0  0  0  0  0
   17.2008  -18.4660  -15.2619 C   0  0  0  0  0  0  0  0  0  0  0  0
   17.9753  -17.7933  -14.3457 C   0  0  0  0  0  0  0  0  0  0  0  0
   19.1878  -18.3051  -13.9313 C   0  0  0  0  0  0  0  0  0  0  0  0
   19.6629  -19.5179  -14.4288 C   0  0  0  0  0  0  0  0  0  0  0  0
   20.9603  -20.0206  -13.9551 C   0  0  0  0  0  0  0  0  0  0  0  0
   20.7843  -20.7716  -12.6157 C   0  0  2  0  0  0  0  0  0  0  0  0
   22.0447  -21.3394  -12.2610 N   0  0  0  0  0  0  0  0  0  0  0  0
   19.7540  -21.7986  -12.7898 C   0  0  0  0  0  0  0  0  0  0  0  0
   18.4115  -21.6929  -12.5355 O   0  0  0  0  0  0  0  0  0  0  0  0
   18.8635  -20.1638  -15.3428 C   0  0  0  0  0  0  0  0  0  0  0  0
   17.6453  -19.6668  -15.7703 C   0  0  0  0  0  0  0  0  0  0  0  0
   20.1362  -22.9464  -13.2343 O   0  0  0  0  0  0  0  0  0  0  0  0
  2  1  1  6
  3  2  1  0
  4  5  2  0
  4  3  1  0
  6  5  1  0
  7 12  2  0
  7  6  1  0
  8  7  1  0
  9 10  1  0
  9  8  2  0
 10 11  2  0
 11 12  1  0
 12  4  1  0
 13  2  1  0
 14 13  2  0
 16 15  1  1
 16 18  1  0
 17 16  1  0
 19 18  1  1
 19 21  1  0
 19 20  1  0
 20 13  1  0
 21 30  1  0
 22 21  2  0
 23 24  1  0
 24 25  2  0
 24 34  1  0
 25 26  1  0
 26 27  2  0
 27 28  1  0
 29 28  1  6
 29 31  1  0
 30 29  1  0
 31 35  2  0
 31 32  1  0
 33 27  1  0
 34 33  2  0
M  END
$$$$
