WLY.pdb
     RDKit          3D

 35 37  0  0  1  0  0  0  0  0999 V2000
   25.6666  -18.4976   -8.8870 N   0  0  0  0  0  0  0  0  0  0  0  0
   26.5067  -19.6602   -9.1974 C   0  0  1  0  0  0  0  0  0  0  0  0
   26.6277  -20.4147   -7.8798 C   0  0  0  0  0  0  0  0  0  0  0  0
   27.2814  -19.6059   -6.8393 C   0  0  0  0  0  0  0  0  0  0  0  0
   27.1698  -18.2556   -6.5773 C   0  0  0  0  0  0  0  0  0  0  0  0
   27.9465  -17.9234   -5.5295 N   0  0  0  0  0  0  0  0  0  0  0  0
   28.5842  -19.0289   -5.0758 C   0  0  0  0  0  0  0  0  0  0  0  0
   29.4822  -19.2219   -4.0336 C   0  0  0  0  0  0  0  0  0  0  0  0
   29.9895  -20.4830   -3.7841 C   0  0  0  0  0  0  0  0  0  0  0  0
   29.5876  -21.5398   -4.5873 C   0  0  0  0  0  0  0  0  0  0  0  0
   28.6920  -21.3238   -5.6200 C   0  0  0  0  0  0  0  0  0  0  0  0
   28.1816  -20.0789   -5.8779 C   0  0  0  0  0  0  0  0  0  0  0  0
   25.8244  -20.5367  -10.1713 C   0  0  0  0  0  0  0  0  0  0  0  0
   24.5994  -20.7670  -10.0288 O   0  0  0  0  0  0  0  0  0  0  0  0
   28.1632  -19.3519  -14.0584 C   0  0  0  0  0  0  0  0  0  0  0  0
   27.4135  -20.5675  -14.7101 C   0  0  1  0  0  0  0  0  0  0  0  0
   28.4965  -21.1550  -15.6101 C   0  0  0  0  0  0  0  0  0  0  0  0
   27.0212  -21.4070  -13.5722 C   0  0  0  0  0  0  0  0  0  0  0  0
   25.9528  -20.9967  -12.6329 C   0  0  2  0  0  0  0  0  0  0  0  0
   26.5268  -21.1107  -11.2470 N   0  0  0  0  0  0  0  0  0  0  0  0
   24.6582  -21.6408  -12.6529 C   0  0  0  0  0  0  0  0  0  0  0  0
   24.6014  -22.8706  -12.2669 O   0  0  0  0  0  0  0  0  0  0  0  0
   16.5643  -24.1311  -11.0657 O   0  0  0  0  0  0  0  0  0  0  0  0
   17.6928  -23.3787  -11.3077 C   0  0  0  0  0  0  0  0  0  0  0  0
   18.8102  -23.5512  -10.5244 C   0  0  0  0  0  0  0  0  0  0  0  0
   19.9525  -22.8099  -10.7467 C   0  0  0  0  0  0  0  0  0  0  0  0
   20.0075  -21.8653  -11.7708 C   0  0  0  0  0  0  0  0  0  0  0  0
   21.2480  -21.1019  -11.9671 C   0  0  0  0  0  0  0  0  0  0  0  0
   22.2078  -21.8747  -12.9001 C   0  0  2  0  0  0  0  0  0  0  0  0
   23.4051  -21.1091  -13.0312 N   0  0  0  0  0  0  0  0  0  0  0  0
   21.5435  -22.0721  -14.1910 C   0  0  0  0  0  0  0  0  0  0  0  0
   21.4585  -21.1889  -15.2354 O   0  0  0  0  0  0  0  0  0  0  0  0
   18.8730  -21.7185  -12.5344 C   0  0  0  0  0  0  0  0  0  0  0  0
   17.7187  -22.4522  -12.3269 C   0  0  0  0  0  0  0  0  0  0  0  0
   20.9631  -23.2061  -14.3870 O   0  0  0  0  0  0  0  0  0  0  0  0
  2  1  1  1
  3  2  1  0
  4  5  2  0
  4  3  1  0
  6  5  1  0
  7 12  2  0
  7  6  1  0
  8  7  1  0
  9 10  1  0
  9  8  2  0
 10 11  2  0
 11 12  1  0
 12  4  1  0
 13  2  1  0
 14 13  2  0
 16 15  1  1
 16 18  1  0
 17 16  1  0
 19 18  1  6
 19 21  1  0
 19 20  1  0
 20 13  1  0
 21 30  1  0
 22 21  2  0
 23 24  1  0
 24 25  2  0
 24 34  1  0
 25 26  1  0
 26 27  2  0
 27 28  1  0
 29 28  1  1
 29 31  1  0
 30 29  1  0
 31 35  2  0
 31 32  1  0
 33 27  1  0
 34 33  2  0
M  END
$$$$
