WLY.pdb
     RDKit          3D

 35 37  0  0  1  0  0  0  0  0999 V2000
   22.4369  -18.6679  -18.4635 N   0  0  0  0  0  0  0  0  0  0  0  0
   22.8485  -17.8302  -17.3309 C   0  0  1  0  0  0  0  0  0  0  0  0
   21.6451  -17.8210  -16.3973 C   0  0  0  0  0  0  0  0  0  0  0  0
   20.5686  -16.9502  -16.8939 C   0  0  0  0  0  0  0  0  0  0  0  0
   19.5459  -17.2340  -17.7760 C   0  0  0  0  0  0  0  0  0  0  0  0
   18.7784  -16.1435  -17.9587 N   0  0  0  0  0  0  0  0  0  0  0  0
   19.2652  -15.1227  -17.2134 C   0  0  0  0  0  0  0  0  0  0  0  0
   18.8449  -13.8089  -17.0493 C   0  0  0  0  0  0  0  0  0  0  0  0
   19.5405  -12.9614  -16.2079 C   0  0  0  0  0  0  0  0  0  0  0  0
   20.6546  -13.4450  -15.5384 C   0  0  0  0  0  0  0  0  0  0  0  0
   21.0549  -14.7577  -15.7173 C   0  0  0  0  0  0  0  0  0  0  0  0
   20.3743  -15.6081  -16.5483 C   0  0  0  0  0  0  0  0  0  0  0  0
   23.9814  -18.4563  -16.6192 C   0  0  0  0  0  0  0  0  0  0  0  0
   24.0334  -19.7072  -16.5393 O   0  0  0  0  0  0  0  0  0  0  0  0
   29.1048  -16.6716  -17.2307 C   0  0  0  0  0  0  0  0  0  0  0  0
   27.8837  -17.6582  -17.2205 C   0  0  1  0  0  0  0  0  0  0  0  0
   28.5436  -18.9748  -17.6193 C   0  0  0  0  0  0  0  0  0  0  0  0
   27.3803  -17.6017  -15.8431 C   0  0  0  0  0  0  0  0  0  0  0  0
   26.1815  -18.3604  -15.4199 C   0  0  2  0  0  0  0  0  0  0  0  0
   24.9935  -17.6723  -16.0352 N   0  0  0  0  0  0  0  0  0  0  0  0
   25.9070  -18.5954  -14.0196 C   0  0  0  0  0  0  0  0  0  0  0  0
   25.0461  -17.8244  -13.4462 O   0  0  0  0  0  0  0  0  0  0  0  0
   21.4432  -21.9856   -7.8143 O   0  0  0  0  0  0  0  0  0  0  0  0
   22.1305  -21.6265   -8.9531 C   0  0  0  0  0  0  0  0  0  0  0  0
   23.0494  -20.6042   -8.9030 C   0  0  0  0  0  0  0  0  0  0  0  0
   23.7504  -20.2259  -10.0296 C   0  0  0  0  0  0  0  0  0  0  0  0
   23.5480  -20.8682  -11.2506 C   0  0  0  0  0  0  0  0  0  0  0  0
   24.3203  -20.4283  -12.4212 C   0  0  0  0  0  0  0  0  0  0  0  0
   25.7434  -20.0041  -11.9924 C   0  0  2  0  0  0  0  0  0  0  0  0
   26.4458  -19.5785  -13.1596 N   0  0  0  0  0  0  0  0  0  0  0  0
   26.3964  -21.1478  -11.3506 C   0  0  0  0  0  0  0  0  0  0  0  0
   26.5759  -21.3688  -10.0101 O   0  0  0  0  0  0  0  0  0  0  0  0
   22.6225  -21.8854  -11.2650 C   0  0  0  0  0  0  0  0  0  0  0  0
   21.9101  -22.2789  -10.1463 C   0  0  0  0  0  0  0  0  0  0  0  0
   26.8653  -22.0673  -12.1225 O   0  0  0  0  0  0  0  0  0  0  0  0
  2  1  1  6
  3  2  1  0
  4  5  2  0
  4  3  1  0
  6  5  1  0
  7 12  2  0
  7  6  1  0
  8  7  1  0
  9 10  1  0
  9  8  2  0
 10 11  2  0
 11 12  1  0
 12  4  1  0
 13  2  1  0
 14 13  2  0
 16 15  1  1
 16 18  1  0
 17 16  1  0
 19 18  1  1
 19 21  1  0
 19 20  1  0
 20 13  1  0
 21 30  1  0
 22 21  2  0
 23 24  1  0
 24 25  2  0
 24 34  1  0
 25 26  1  0
 26 27  2  0
 27 28  1  0
 29 28  1  6
 29 31  1  0
 30 29  1  0
 31 35  2  0
 31 32  1  0
 33 27  1  0
 34 33  2  0
M  END
$$$$
