WLY.pdb
     RDKit          3D

 35 37  0  0  1  0  0  0  0  0999 V2000
   25.1351  -19.3142  -17.1387 N   0  0  0  0  0  0  0  0  0  0  0  0
   24.3981  -18.8810  -15.9458 C   0  0  1  0  0  0  0  0  0  0  0  0
   23.1667  -18.1673  -16.4881 C   0  0  0  0  0  0  0  0  0  0  0  0
   23.5136  -16.9131  -17.1741 C   0  0  0  0  0  0  0  0  0  0  0  0
   23.8723  -16.7020  -18.4899 C   0  0  0  0  0  0  0  0  0  0  0  0
   24.1094  -15.3936  -18.6991 N   0  0  0  0  0  0  0  0  0  0  0  0
   23.9168  -14.7129  -17.5441 C   0  0  0  0  0  0  0  0  0  0  0  0
   24.0283  -13.3642  -17.2305 C   0  0  0  0  0  0  0  0  0  0  0  0
   23.7675  -12.9304  -15.9445 C   0  0  0  0  0  0  0  0  0  0  0  0
   23.3962  -13.8598  -14.9844 C   0  0  0  0  0  0  0  0  0  0  0  0
   23.2916  -15.1985  -15.3197 C   0  0  0  0  0  0  0  0  0  0  0  0
   23.5474  -15.6415  -16.5906 C   0  0  0  0  0  0  0  0  0  0  0  0
   23.9483  -20.0550  -15.1703 C   0  0  0  0  0  0  0  0  0  0  0  0
   23.5179  -21.0611  -15.7839 O   0  0  0  0  0  0  0  0  0  0  0  0
   24.0686  -20.0369  -10.1873 C   0  0  0  0  0  0  0  0  0  0  0  0
   25.1717  -20.4914  -11.2076 C   0  0  1  0  0  0  0  0  0  0  0  0
   26.2932  -20.9388  -10.2750 C   0  0  0  0  0  0  0  0  0  0  0  0
   24.5344  -21.5637  -11.9807 C   0  0  0  0  0  0  0  0  0  0  0  0
   23.5224  -21.2775  -13.0227 C   0  0  2  0  0  0  0  0  0  0  0  0
   23.9967  -20.0573  -13.7640 N   0  0  0  0  0  0  0  0  0  0  0  0
   22.1299  -21.0974  -12.6766 C   0  0  0  0  0  0  0  0  0  0  0  0
   21.8551  -20.2477  -11.7456 O   0  0  0  0  0  0  0  0  0  0  0  0
   19.8192  -15.4693  -14.2775 O   0  0  0  0  0  0  0  0  0  0  0  0
   19.5740  -16.8186  -14.1448 C   0  0  0  0  0  0  0  0  0  0  0  0
   18.7072  -17.2635  -13.1739 C   0  0  0  0  0  0  0  0  0  0  0  0
   18.4451  -18.6095  -13.0210 C   0  0  0  0  0  0  0  0  0  0  0  0
   19.0508  -19.5570  -13.8453 C   0  0  0  0  0  0  0  0  0  0  0  0
   18.7379  -20.9787  -13.6424 C   0  0  0  0  0  0  0  0  0  0  0  0
   19.7076  -21.5960  -12.6092 C   0  0  2  0  0  0  0  0  0  0  0  0
   20.9879  -21.7207  -13.2275 N   0  0  0  0  0  0  0  0  0  0  0  0
   19.1762  -22.8955  -12.1905 C   0  0  0  0  0  0  0  0  0  0  0  0
   19.7297  -24.1331  -12.3903 O   0  0  0  0  0  0  0  0  0  0  0  0
   19.9115  -19.0778  -14.8050 C   0  0  0  0  0  0  0  0  0  0  0  0
   20.1868  -17.7326  -14.9737 C   0  0  0  0  0  0  0  0  0  0  0  0
   18.0538  -22.8959  -11.5568 O   0  0  0  0  0  0  0  0  0  0  0  0
  2  1  1  6
  3  2  1  0
  4  5  2  0
  4  3  1  0
  6  5  1  0
  7 12  2  0
  7  6  1  0
  8  7  1  0
  9 10  1  0
  9  8  2  0
 10 11  2  0
 11 12  1  0
 12  4  1  0
 13  2  1  0
 14 13  2  0
 16 15  1  1
 16 18  1  0
 17 16  1  0
 19 18  1  1
 19 21  1  0
 19 20  1  0
 20 13  1  0
 21 30  1  0
 22 21  2  0
 23 24  1  0
 24 25  2  0
 24 34  1  0
 25 26  1  0
 26 27  2  0
 27 28  1  0
 29 28  1  6
 29 31  1  0
 30 29  1  0
 31 35  2  0
 31 32  1  0
 33 27  1  0
 34 33  2  0
M  END
$$$$
