WLY.pdb
     RDKit          3D

 35 37  0  0  1  0  0  0  0  0999 V2000
   26.8899  -21.3025  -15.0416 N   0  0  0  0  0  0  0  0  0  0  0  0
   27.0897  -20.2863  -14.0017 C   0  0  1  0  0  0  0  0  0  0  0  0
   26.2409  -19.1028  -14.4472 C   0  0  0  0  0  0  0  0  0  0  0  0
   26.6796  -18.5670  -15.7450 C   0  0  0  0  0  0  0  0  0  0  0  0
   25.9363  -18.2710  -16.8695 C   0  0  0  0  0  0  0  0  0  0  0  0
   26.7389  -17.8003  -17.8421 N   0  0  0  0  0  0  0  0  0  0  0  0
   28.0169  -17.7724  -17.3945 C   0  0  0  0  0  0  0  0  0  0  0  0
   29.2044  -17.3775  -17.9974 C   0  0  0  0  0  0  0  0  0  0  0  0
   30.3932  -17.4536  -17.2967 C   0  0  0  0  0  0  0  0  0  0  0  0
   30.3755  -17.9272  -15.9933 C   0  0  0  0  0  0  0  0  0  0  0  0
   29.1805  -18.3150  -15.4130 C   0  0  0  0  0  0  0  0  0  0  0  0
   27.9953  -18.2446  -16.0966 C   0  0  0  0  0  0  0  0  0  0  0  0
   26.5657  -20.7708  -12.7083 C   0  0  0  0  0  0  0  0  0  0  0  0
   25.6993  -21.6781  -12.7042 O   0  0  0  0  0  0  0  0  0  0  0  0
   27.2525  -21.6515   -7.5528 C   0  0  0  0  0  0  0  0  0  0  0  0
   26.6768  -20.2017   -7.7297 C   0  0  1  0  0  0  0  0  0  0  0  0
   27.4714  -19.4218   -6.6865 C   0  0  0  0  0  0  0  0  0  0  0  0
   26.9716  -19.8598   -9.1261 C   0  0  0  0  0  0  0  0  0  0  0  0
   26.2012  -20.4396  -10.2496 C   0  0  2  0  0  0  0  0  0  0  0  0
   27.0231  -20.2306  -11.4923 N   0  0  0  0  0  0  0  0  0  0  0  0
   24.8437  -20.0180  -10.5155 C   0  0  0  0  0  0  0  0  0  0  0  0
   24.6393  -19.3082  -11.5732 O   0  0  0  0  0  0  0  0  0  0  0  0
   20.9389  -19.3681  -16.4925 O   0  0  0  0  0  0  0  0  0  0  0  0
   21.4060  -19.8793  -15.3014 C   0  0  0  0  0  0  0  0  0  0  0  0
   20.7989  -20.9814  -14.7458 C   0  0  0  0  0  0  0  0  0  0  0  0
   21.2479  -21.5121  -13.5540 C   0  0  0  0  0  0  0  0  0  0  0  0
   22.3291  -20.9473  -12.8786 C   0  0  0  0  0  0  0  0  0  0  0  0
   22.7696  -21.5505  -11.6128 C   0  0  0  0  0  0  0  0  0  0  0  0
   22.4428  -20.6090  -10.4313 C   0  0  2  0  0  0  0  0  0  0  0  0
   23.6686  -20.2827   -9.7771 N   0  0  0  0  0  0  0  0  0  0  0  0
   21.5119  -21.2959   -9.5325 C   0  0  0  0  0  0  0  0  0  0  0  0
   20.1426  -21.2415   -9.5402 O   0  0  0  0  0  0  0  0  0  0  0  0
   22.9125  -19.8468  -13.4620 C   0  0  0  0  0  0  0  0  0  0  0  0
   22.4766  -19.3005  -14.6559 C   0  0  0  0  0  0  0  0  0  0  0  0
   22.0227  -22.0462   -8.6174 O   0  0  0  0  0  0  0  0  0  0  0  0
  2  1  1  6
  3  2  1  0
  4  5  2  0
  4  3  1  0
  6  5  1  0
  7 12  2  0
  7  6  1  0
  8  7  1  0
  9 10  1  0
  9  8  2  0
 10 11  2  0
 11 12  1  0
 12  4  1  0
 13  2  1  0
 14 13  2  0
 16 15  1  6
 16 18  1  0
 17 16  1  0
 19 18  1  1
 19 21  1  0
 19 20  1  0
 20 13  1  0
 21 30  1  0
 22 21  2  0
 23 24  1  0
 24 25  2  0
 24 34  1  0
 25 26  1  0
 26 27  2  0
 27 28  1  0
 29 28  1  6
 29 31  1  0
 30 29  1  0
 31 35  2  0
 31 32  1  0
 33 27  1  0
 34 33  2  0
M  END
$$$$
