WLY.pdb
     RDKit          3D

 35 37  0  0  1  0  0  0  0  0999 V2000
   25.6080  -18.8406  -10.5203 N   0  0  0  0  0  0  0  0  0  0  0  0
   26.5251  -19.9156  -10.9166 C   0  0  1  0  0  0  0  0  0  0  0  0
   26.1912  -21.0739   -9.9857 C   0  0  0  0  0  0  0  0  0  0  0  0
   26.4042  -20.7246   -8.5726 C   0  0  0  0  0  0  0  0  0  0  0  0
   25.4789  -20.4372   -7.5899 C   0  0  0  0  0  0  0  0  0  0  0  0
   26.1064  -20.1676   -6.4301 N   0  0  0  0  0  0  0  0  0  0  0  0
   27.4450  -20.2677   -6.6109 C   0  0  0  0  0  0  0  0  0  0  0  0
   28.5158  -20.0910   -5.7437 C   0  0  0  0  0  0  0  0  0  0  0  0
   29.8092  -20.2601   -6.2003 C   0  0  0  0  0  0  0  0  0  0  0  0
   30.0132  -20.6060   -7.5277 C   0  0  0  0  0  0  0  0  0  0  0  0
   28.9312  -20.7768   -8.3735 C   0  0  0  0  0  0  0  0  0  0  0  0
   27.6442  -20.6122   -7.9337 C   0  0  0  0  0  0  0  0  0  0  0  0
   26.2435  -20.3405  -12.3031 C   0  0  0  0  0  0  0  0  0  0  0  0
   25.0526  -20.3893  -12.6946 O   0  0  0  0  0  0  0  0  0  0  0  0
   29.5086  -18.4773  -16.3632 C   0  0  0  0  0  0  0  0  0  0  0  0
   28.3156  -18.7102  -15.3697 C   0  0  1  0  0  0  0  0  0  0  0  0
   27.1985  -17.9088  -16.0312 C   0  0  0  0  0  0  0  0  0  0  0  0
   28.1241  -20.1651  -15.3640 C   0  0  0  0  0  0  0  0  0  0  0  0
   26.9912  -20.7992  -14.6522 C   0  0  2  0  0  0  0  0  0  0  0  0
   27.2866  -20.6880  -13.1812 N   0  0  0  0  0  0  0  0  0  0  0  0
   26.5981  -22.1598  -14.9444 C   0  0  0  0  0  0  0  0  0  0  0  0
   27.5196  -23.0624  -14.9177 O   0  0  0  0  0  0  0  0  0  0  0  0
   19.5600  -21.9624  -13.1172 O   0  0  0  0  0  0  0  0  0  0  0  0
   20.7613  -22.5868  -13.3728 C   0  0  0  0  0  0  0  0  0  0  0  0
   20.7912  -23.9422  -13.6052 C   0  0  0  0  0  0  0  0  0  0  0  0
   21.9814  -24.5906  -13.8634 C   0  0  0  0  0  0  0  0  0  0  0  0
   23.1874  -23.8916  -13.8963 C   0  0  0  0  0  0  0  0  0  0  0  0
   24.4280  -24.6283  -14.1766 C   0  0  0  0  0  0  0  0  0  0  0  0
   25.1055  -24.0676  -15.4476 C   0  0  2  0  0  0  0  0  0  0  0  0
   25.3171  -22.6697  -15.2529 N   0  0  0  0  0  0  0  0  0  0  0  0
   24.2336  -24.3318  -16.5950 C   0  0  0  0  0  0  0  0  0  0  0  0
   23.5544  -23.4208  -17.3610 O   0  0  0  0  0  0  0  0  0  0  0  0
   23.1212  -22.5383  -13.6597 C   0  0  0  0  0  0  0  0  0  0  0  0
   21.9379  -21.8707  -13.3991 C   0  0  0  0  0  0  0  0  0  0  0  0
   24.0729  -25.5629  -16.9409 O   0  0  0  0  0  0  0  0  0  0  0  0
  2  1  1  1
  3  2  1  0
  4  5  2  0
  4  3  1  0
  6  5  1  0
  7 12  2  0
  7  6  1  0
  8  7  1  0
  9 10  1  0
  9  8  2  0
 10 11  2  0
 11 12  1  0
 12  4  1  0
 13  2  1  0
 14 13  2  0
 16 15  1  6
 16 18  1  0
 17 16  1  0
 19 18  1  6
 19 21  1  0
 19 20  1  0
 20 13  1  0
 21 30  1  0
 22 21  2  0
 23 24  1  0
 24 25  2  0
 24 34  1  0
 25 26  1  0
 26 27  2  0
 27 28  1  0
 29 28  1  1
 29 31  1  0
 30 29  1  0
 31 35  2  0
 31 32  1  0
 33 27  1  0
 34 33  2  0
M  END
$$$$
