WLY.pdb
     RDKit          3D

 35 37  0  0  1  0  0  0  0  0999 V2000
   27.9640  -21.8147  -10.4132 N   0  0  0  0  0  0  0  0  0  0  0  0
   26.5883  -21.5350   -9.9853 C   0  0  1  0  0  0  0  0  0  0  0  0
   26.7355  -20.6024   -8.7901 C   0  0  0  0  0  0  0  0  0  0  0  0
   28.0642  -20.7090   -8.1679 C   0  0  0  0  0  0  0  0  0  0  0  0
   29.2409  -21.2066   -8.6897 C   0  0  0  0  0  0  0  0  0  0  0  0
   30.2249  -21.1172   -7.7758 N   0  0  0  0  0  0  0  0  0  0  0  0
   29.7335  -20.5658   -6.6404 C   0  0  0  0  0  0  0  0  0  0  0  0
   30.3277  -20.2616   -5.4222 C   0  0  0  0  0  0  0  0  0  0  0  0
   29.5778  -19.6899   -4.4118 C   0  0  0  0  0  0  0  0  0  0  0  0
   28.2345  -19.4294   -4.6374 C   0  0  0  0  0  0  0  0  0  0  0  0
   27.6638  -19.7409   -5.8591 C   0  0  0  0  0  0  0  0  0  0  0  0
   28.3959  -20.3078   -6.8689 C   0  0  0  0  0  0  0  0  0  0  0  0
   25.8606  -20.8127  -11.0488 C   0  0  0  0  0  0  0  0  0  0  0  0
   26.0435  -19.5786  -11.1810 O   0  0  0  0  0  0  0  0  0  0  0  0
   25.2888  -23.2853  -14.4223 C   0  0  0  0  0  0  0  0  0  0  0  0
   26.1599  -21.9838  -14.3133 C   0  0  1  0  0  0  0  0  0  0  0  0
   26.9564  -22.0323  -15.6137 C   0  0  0  0  0  0  0  0  0  0  0  0
   25.1798  -20.8956  -14.2191 C   0  0  0  0  0  0  0  0  0  0  0  0
   24.3209  -20.7215  -13.0258 C   0  0  2  0  0  0  0  0  0  0  0  0
   24.9728  -21.4874  -11.9070 N   0  0  0  0  0  0  0  0  0  0  0  0
   22.9164  -21.0638  -13.0650 C   0  0  0  0  0  0  0  0  0  0  0  0
   22.4545  -21.7853  -12.1004 O   0  0  0  0  0  0  0  0  0  0  0  0
   15.6880  -17.2551  -11.0604 O   0  0  0  0  0  0  0  0  0  0  0  0
   16.9290  -17.6678  -11.4937 C   0  0  0  0  0  0  0  0  0  0  0  0
   17.5842  -18.6777  -10.8283 C   0  0  0  0  0  0  0  0  0  0  0  0
   18.8277  -19.1088  -11.2426 C   0  0  0  0  0  0  0  0  0  0  0  0
   19.4558  -18.5339  -12.3468 C   0  0  0  0  0  0  0  0  0  0  0  0
   20.7800  -19.0293  -12.7484 C   0  0  0  0  0  0  0  0  0  0  0  0
   20.6330  -20.2938  -13.6249 C   0  0  2  0  0  0  0  0  0  0  0  0
   21.9398  -20.7080  -14.0219 N   0  0  0  0  0  0  0  0  0  0  0  0
   19.7919  -19.9652  -14.7786 C   0  0  0  0  0  0  0  0  0  0  0  0
   20.1182  -19.1938  -15.8633 O   0  0  0  0  0  0  0  0  0  0  0  0
   18.7728  -17.5272  -12.9885 C   0  0  0  0  0  0  0  0  0  0  0  0
   17.5259  -17.0815  -12.5881 C   0  0  0  0  0  0  0  0  0  0  0  0
   18.5978  -20.4501  -14.7937 O   0  0  0  0  0  0  0  0  0  0  0  0
  2  1  1  6
  3  2  1  0
  4  5  2  0
  4  3  1  0
  6  5  1  0
  7 12  2  0
  7  6  1  0
  8  7  1  0
  9 10  1  0
  9  8  2  0
 10 11  2  0
 11 12  1  0
 12  4  1  0
 13  2  1  0
 14 13  2  0
 16 15  1  6
 16 18  1  0
 17 16  1  0
 19 18  1  6
 19 21  1  0
 19 20  1  0
 20 13  1  0
 21 30  1  0
 22 21  2  0
 23 24  1  0
 24 25  2  0
 24 34  1  0
 25 26  1  0
 26 27  2  0
 27 28  1  0
 29 28  1  1
 29 31  1  0
 30 29  1  0
 31 35  2  0
 31 32  1  0
 33 27  1  0
 34 33  2  0
M  END
$$$$
