WLY.pdb
     RDKit          3D

 35 37  0  0  1  0  0  0  0  0999 V2000
   27.7889  -21.5461  -16.9230 N   0  0  0  0  0  0  0  0  0  0  0  0
   26.9190  -20.6123  -16.1984 C   0  0  1  0  0  0  0  0  0  0  0  0
   25.6050  -20.6287  -16.9683 C   0  0  0  0  0  0  0  0  0  0  0  0
   25.7010  -19.8930  -18.2386 C   0  0  0  0  0  0  0  0  0  0  0  0
   25.9043  -20.3712  -19.5171 C   0  0  0  0  0  0  0  0  0  0  0  0
   25.9272  -19.3497  -20.3933 N   0  0  0  0  0  0  0  0  0  0  0  0
   25.7424  -18.1844  -19.7282 C   0  0  0  0  0  0  0  0  0  0  0  0
   25.6830  -16.8660  -20.1620 C   0  0  0  0  0  0  0  0  0  0  0  0
   25.4789  -15.8477  -19.2502 C   0  0  0  0  0  0  0  0  0  0  0  0
   25.3362  -16.1663  -17.9081 C   0  0  0  0  0  0  0  0  0  0  0  0
   25.3989  -17.4869  -17.4988 C   0  0  0  0  0  0  0  0  0  0  0  0
   25.6007  -18.5057  -18.3923 C   0  0  0  0  0  0  0  0  0  0  0  0
   26.6610  -21.1118  -14.8323 C   0  0  0  0  0  0  0  0  0  0  0  0
   26.4177  -22.3313  -14.6661 O   0  0  0  0  0  0  0  0  0  0  0  0
   29.6016  -19.7912  -10.4939 C   0  0  0  0  0  0  0  0  0  0  0  0
   28.8626  -20.6432  -11.5860 C   0  0  1  0  0  0  0  0  0  0  0  0
   29.1924  -22.0665  -11.1465 C   0  0  0  0  0  0  0  0  0  0  0  0
   27.4524  -20.2584  -11.4566 C   0  0  0  0  0  0  0  0  0  0  0  0
   26.4104  -20.8026  -12.3565 C   0  0  2  0  0  0  0  0  0  0  0  0
   26.6848  -20.2429  -13.7258 N   0  0  0  0  0  0  0  0  0  0  0  0
   25.0061  -20.6292  -12.0578 C   0  0  0  0  0  0  0  0  0  0  0  0
   24.4024  -19.6286  -12.6046 O   0  0  0  0  0  0  0  0  0  0  0  0
   16.4406  -21.1837  -11.5115 O   0  0  0  0  0  0  0  0  0  0  0  0
   17.7933  -21.4195  -11.6258 C   0  0  0  0  0  0  0  0  0  0  0  0
   18.5520  -20.6484  -12.4754 C   0  0  0  0  0  0  0  0  0  0  0  0
   19.9082  -20.8648  -12.6075 C   0  0  0  0  0  0  0  0  0  0  0  0
   20.5487  -21.8703  -11.8843 C   0  0  0  0  0  0  0  0  0  0  0  0
   21.9956  -22.0599  -12.0599 C   0  0  0  0  0  0  0  0  0  0  0  0
   22.7754  -21.1235  -11.1091 C   0  0  2  0  0  0  0  0  0  0  0  0
   24.1652  -21.4194  -11.2426 N   0  0  0  0  0  0  0  0  0  0  0  0
   22.2997  -21.3477   -9.7416 C   0  0  0  0  0  0  0  0  0  0  0  0
   21.2376  -20.7516   -9.1136 O   0  0  0  0  0  0  0  0  0  0  0  0
   19.7605  -22.6220  -11.0446 C   0  0  0  0  0  0  0  0  0  0  0  0
   18.3996  -22.4203  -10.8988 C   0  0  0  0  0  0  0  0  0  0  0  0
   22.9448  -22.2048   -9.0272 O   0  0  0  0  0  0  0  0  0  0  0  0
  2  1  1  6
  3  2  1  0
  4  5  2  0
  4  3  1  0
  6  5  1  0
  7 12  2  0
  7  6  1  0
  8  7  1  0
  9 10  1  0
  9  8  2  0
 10 11  2  0
 11 12  1  0
 12  4  1  0
 13  2  1  0
 14 13  2  0
 16 15  1  1
 16 18  1  0
 17 16  1  0
 19 18  1  1
 19 21  1  0
 19 20  1  0
 20 13  1  0
 21 30  1  0
 22 21  2  0
 23 24  1  0
 24 25  2  0
 24 34  1  0
 25 26  1  0
 26 27  2  0
 27 28  1  0
 29 28  1  6
 29 31  1  0
 30 29  1  0
 31 35  2  0
 31 32  1  0
 33 27  1  0
 34 33  2  0
M  END
$$$$
