WLY.pdb
     RDKit          3D

 35 37  0  0  1  0  0  0  0  0999 V2000
   26.3007  -20.1388  -16.8198 N   0  0  0  0  0  0  0  0  0  0  0  0
   25.7948  -19.4795  -15.6102 C   0  0  1  0  0  0  0  0  0  0  0  0
   24.6803  -18.5659  -16.1032 C   0  0  0  0  0  0  0  0  0  0  0  0
   25.2015  -17.4272  -16.8749 C   0  0  0  0  0  0  0  0  0  0  0  0
   25.1219  -17.1740  -18.2292 C   0  0  0  0  0  0  0  0  0  0  0  0
   25.7377  -16.0127  -18.5183 N   0  0  0  0  0  0  0  0  0  0  0  0
   26.2346  -15.4731  -17.3797 C   0  0  0  0  0  0  0  0  0  0  0  0
   26.9428  -14.3028  -17.1378 C   0  0  0  0  0  0  0  0  0  0  0  0
   27.3357  -13.9870  -15.8509 C   0  0  0  0  0  0  0  0  0  0  0  0
   27.0115  -14.8535  -14.8179 C   0  0  0  0  0  0  0  0  0  0  0  0
   26.3052  -16.0139  -15.0825 C   0  0  0  0  0  0  0  0  0  0  0  0
   25.9099  -16.3387  -16.3534 C   0  0  0  0  0  0  0  0  0  0  0  0
   25.2042  -20.4773  -14.6950 C   0  0  0  0  0  0  0  0  0  0  0  0
   24.6976  -21.5194  -15.1759 O   0  0  0  0  0  0  0  0  0  0  0  0
   27.2038  -20.8662   -9.6126 C   0  0  0  0  0  0  0  0  0  0  0  0
   26.8327  -20.9148  -11.1372 C   0  0  1  0  0  0  0  0  0  0  0  0
   27.8137  -21.9582  -11.6634 C   0  0  0  0  0  0  0  0  0  0  0  0
   25.4212  -21.3159  -11.1567 C   0  0  0  0  0  0  0  0  0  0  0  0
   24.6368  -21.3454  -12.4120 C   0  0  2  0  0  0  0  0  0  0  0  0
   25.2036  -20.2737  -13.3027 N   0  0  0  0  0  0  0  0  0  0  0  0
   23.1965  -21.2171  -12.3913 C   0  0  0  0  0  0  0  0  0  0  0  0
   22.5371  -22.0497  -11.6589 O   0  0  0  0  0  0  0  0  0  0  0  0
   14.7233  -19.2176  -12.5659 O   0  0  0  0  0  0  0  0  0  0  0  0
   16.1002  -19.2034  -12.5202 C   0  0  0  0  0  0  0  0  0  0  0  0
   16.8087  -18.5146  -13.4770 C   0  0  0  0  0  0  0  0  0  0  0  0
   18.1880  -18.4852  -13.4529 C   0  0  0  0  0  0  0  0  0  0  0  0
   18.9031  -19.1522  -12.4591 C   0  0  0  0  0  0  0  0  0  0  0  0
   20.3715  -19.0896  -12.4771 C   0  0  0  0  0  0  0  0  0  0  0  0
   20.9542  -20.4029  -13.0469 C   0  0  2  0  0  0  0  0  0  0  0  0
   22.3763  -20.2827  -13.0624 N   0  0  0  0  0  0  0  0  0  0  0  0
   20.4104  -20.6085  -14.3917 C   0  0  0  0  0  0  0  0  0  0  0  0
   19.2881  -21.3109  -14.7454 O   0  0  0  0  0  0  0  0  0  0  0  0
   18.1636  -19.8306  -11.5187 C   0  0  0  0  0  0  0  0  0  0  0  0
   16.7808  -19.8716  -11.5261 C   0  0  0  0  0  0  0  0  0  0  0  0
   21.0503  -20.0724  -15.3737 O   0  0  0  0  0  0  0  0  0  0  0  0
  2  1  1  6
  3  2  1  0
  4  5  2  0
  4  3  1  0
  6  5  1  0
  7 12  2  0
  7  6  1  0
  8  7  1  0
  9 10  1  0
  9  8  2  0
 10 11  2  0
 11 12  1  0
 12  4  1  0
 13  2  1  0
 14 13  2  0
 16 15  1  1
 16 18  1  0
 17 16  1  0
 19 18  1  1
 19 21  1  0
 19 20  1  0
 20 13  1  0
 21 30  1  0
 22 21  2  0
 23 24  1  0
 24 25  2  0
 24 34  1  0
 25 26  1  0
 26 27  2  0
 27 28  1  0
 29 28  1  6
 29 31  1  0
 30 29  1  0
 31 35  2  0
 31 32  1  0
 33 27  1  0
 34 33  2  0
M  END
$$$$
