WLY.pdb
     RDKit          3D

 35 37  0  0  1  0  0  0  0  0999 V2000
   21.8734  -18.8966  -17.3080 N   0  0  0  0  0  0  0  0  0  0  0  0
   22.9624  -18.2226  -16.5914 C   0  0  1  0  0  0  0  0  0  0  0  0
   22.2825  -17.5200  -15.4237 C   0  0  0  0  0  0  0  0  0  0  0  0
   21.6143  -16.2776  -15.8411 C   0  0  0  0  0  0  0  0  0  0  0  0
   20.2679  -16.0080  -15.9782 C   0  0  0  0  0  0  0  0  0  0  0  0
   20.0911  -14.7379  -16.3872 N   0  0  0  0  0  0  0  0  0  0  0  0
   21.2985  -14.1408  -16.5298 C   0  0  0  0  0  0  0  0  0  0  0  0
   21.6604  -12.8580  -16.9214 C   0  0  0  0  0  0  0  0  0  0  0  0
   22.9953  -12.5052  -16.9810 C   0  0  0  0  0  0  0  0  0  0  0  0
   23.9551  -13.4484  -16.6455 C   0  0  0  0  0  0  0  0  0  0  0  0
   23.5711  -14.7204  -16.2582 C   0  0  0  0  0  0  0  0  0  0  0  0
   22.2514  -15.0829  -16.1948 C   0  0  0  0  0  0  0  0  0  0  0  0
   23.9066  -19.2190  -16.0454 C   0  0  0  0  0  0  0  0  0  0  0  0
   23.4585  -20.3063  -15.6085 O   0  0  0  0  0  0  0  0  0  0  0  0
   28.1181  -22.2623  -16.0659 C   0  0  0  0  0  0  0  0  0  0  0  0
   28.6159  -20.7929  -15.8256 C   0  0  1  0  0  0  0  0  0  0  0  0
   29.8031  -20.7062  -16.7801 C   0  0  0  0  0  0  0  0  0  0  0  0
   27.4645  -19.9549  -16.1801 C   0  0  0  0  0  0  0  0  0  0  0  0
   26.2034  -19.9953  -15.4055 C   0  0  2  0  0  0  0  0  0  0  0  0
   25.2900  -18.9642  -16.0103 N   0  0  0  0  0  0  0  0  0  0  0  0
   26.2078  -19.8253  -13.9694 C   0  0  0  0  0  0  0  0  0  0  0  0
   26.3391  -18.6252  -13.5144 O   0  0  0  0  0  0  0  0  0  0  0  0
   20.1483  -21.9685  -11.6015 O   0  0  0  0  0  0  0  0  0  0  0  0
   21.3846  -21.3782  -11.4552 C   0  0  0  0  0  0  0  0  0  0  0  0
   21.9698  -20.7433  -12.5259 C   0  0  0  0  0  0  0  0  0  0  0  0
   23.2070  -20.1447  -12.4049 C   0  0  0  0  0  0  0  0  0  0  0  0
   23.8996  -20.1658  -11.1949 C   0  0  0  0  0  0  0  0  0  0  0  0
   25.2141  -19.5129  -11.1174 C   0  0  0  0  0  0  0  0  0  0  0  0
   26.3206  -20.4843  -11.5875 C   0  0  2  0  0  0  0  0  0  0  0  0
   26.0743  -20.8017  -12.9570 N   0  0  0  0  0  0  0  0  0  0  0  0
   26.2850  -21.6769  -10.7371 C   0  0  0  0  0  0  0  0  0  0  0  0
   26.1031  -22.9789  -11.1239 O   0  0  0  0  0  0  0  0  0  0  0  0
   23.2857  -20.8088  -10.1454 C   0  0  0  0  0  0  0  0  0  0  0  0
   22.0462  -21.4146  -10.2474 C   0  0  0  0  0  0  0  0  0  0  0  0
   26.4414  -21.5011   -9.4700 O   0  0  0  0  0  0  0  0  0  0  0  0
  2  1  1  6
  3  2  1  0
  4  5  2  0
  4  3  1  0
  6  5  1  0
  7 12  2  0
  7  6  1  0
  8  7  1  0
  9 10  1  0
  9  8  2  0
 10 11  2  0
 11 12  1  0
 12  4  1  0
 13  2  1  0
 14 13  2  0
 16 15  1  6
 16 18  1  0
 17 16  1  0
 19 18  1  6
 19 21  1  0
 19 20  1  0
 20 13  1  0
 21 30  1  0
 22 21  2  0
 23 24  1  0
 24 25  2  0
 24 34  1  0
 25 26  1  0
 26 27  2  0
 27 28  1  0
 29 28  1  1
 29 31  1  0
 30 29  1  0
 31 35  2  0
 31 32  1  0
 33 27  1  0
 34 33  2  0
M  END
$$$$
