WLY.pdb
     RDKit          3D

 35 37  0  0  1  0  0  0  0  0999 V2000
   15.4586  -16.3390    5.1060 N   0  0  0  0  0  0  0  0  0  0  0  0
   16.7769  -15.9421    5.6141 C   0  0  1  0  0  0  0  0  0  0  0  0
   16.4814  -14.9200    6.7039 C   0  0  0  0  0  0  0  0  0  0  0  0
   17.2425  -13.6756    6.5138 C   0  0  0  0  0  0  0  0  0  0  0  0
   16.8442  -12.4798    5.9516 C   0  0  0  0  0  0  0  0  0  0  0  0
   17.8607  -11.5978    5.9752 N   0  0  0  0  0  0  0  0  0  0  0  0
   18.9440  -12.1774    6.5454 C   0  0  0  0  0  0  0  0  0  0  0  0
   20.2238  -11.7031    6.8038 C   0  0  0  0  0  0  0  0  0  0  0  0
   21.1551  -12.5244    7.4107 C   0  0  0  0  0  0  0  0  0  0  0  0
   20.7889  -13.8176    7.7522 C   0  0  0  0  0  0  0  0  0  0  0  0
   19.5081  -14.2687    7.4850 C   0  0  0  0  0  0  0  0  0  0  0  0
   18.5756  -13.4649    6.8840 C   0  0  0  0  0  0  0  0  0  0  0  0
   17.4529  -17.0991    6.2361 C   0  0  0  0  0  0  0  0  0  0  0  0
   17.0940  -18.2578    5.9159 O   0  0  0  0  0  0  0  0  0  0  0  0
   22.8820  -17.6034    8.1435 C   0  0  0  0  0  0  0  0  0  0  0  0
   21.6242  -18.0251    7.3041 C   0  0  1  0  0  0  0  0  0  0  0  0
   21.9074  -19.5007    7.0387 C   0  0  0  0  0  0  0  0  0  0  0  0
   20.4864  -17.7551    8.1907 C   0  0  0  0  0  0  0  0  0  0  0  0
   19.1029  -18.1286    7.8188 C   0  0  2  0  0  0  0  0  0  0  0  0
   18.4851  -16.9174    7.1749 N   0  0  0  0  0  0  0  0  0  0  0  0
   18.1829  -18.6488    8.8059 C   0  0  0  0  0  0  0  0  0  0  0  0
   17.7293  -17.8232    9.6874 O   0  0  0  0  0  0  0  0  0  0  0  0
   15.6437  -24.8384    5.7343 O   0  0  0  0  0  0  0  0  0  0  0  0
   15.5861  -23.8231    6.6639 C   0  0  0  0  0  0  0  0  0  0  0  0
   15.6478  -22.5129    6.2497 C   0  0  0  0  0  0  0  0  0  0  0  0
   15.5920  -21.4785    7.1611 C   0  0  0  0  0  0  0  0  0  0  0  0
   15.4717  -21.7308    8.5271 C   0  0  0  0  0  0  0  0  0  0  0  0
   15.4157  -20.5940    9.4571 C   0  0  0  0  0  0  0  0  0  0  0  0
   16.8205  -20.3082   10.0350 C   0  0  2  0  0  0  0  0  0  0  0  0
   17.6801  -19.9613    8.9499 N   0  0  0  0  0  0  0  0  0  0  0  0
   17.2871  -21.5059   10.7381 C   0  0  0  0  0  0  0  0  0  0  0  0
   16.7378  -22.0969   11.8458 O   0  0  0  0  0  0  0  0  0  0  0  0
   15.4128  -23.0515    8.9063 C   0  0  0  0  0  0  0  0  0  0  0  0
   15.4671  -24.1020    8.0077 C   0  0  0  0  0  0  0  0  0  0  0  0
   18.3394  -22.0880   10.2746 O   0  0  0  0  0  0  0  0  0  0  0  0
  2  1  1  1
  3  2  1  0
  4  5  2  0
  4  3  1  0
  6  5  1  0
  7 12  2  0
  7  6  1  0
  8  7  1  0
  9 10  1  0
  9  8  2  0
 10 11  2  0
 11 12  1  0
 12  4  1  0
 13  2  1  0
 14 13  2  0
 16 15  1  1
 16 18  1  0
 17 16  1  0
 19 18  1  1
 19 21  1  0
 19 20  1  0
 20 13  1  0
 21 30  1  0
 22 21  2  0
 23 24  1  0
 24 25  2  0
 24 34  1  0
 25 26  1  0
 26 27  2  0
 27 28  1  0
 29 28  1  6
 29 31  1  0
 30 29  1  0
 31 35  2  0
 31 32  1  0
 33 27  1  0
 34 33  2  0
M  END
$$$$
