WLY.pdb
     RDKit          3D

 35 37  0  0  1  0  0  0  0  0999 V2000
   27.1652  -21.1987  -15.9020 N   0  0  0  0  0  0  0  0  0  0  0  0
   27.3232  -20.3054  -14.7484 C   0  0  1  0  0  0  0  0  0  0  0  0
   26.4946  -19.0750  -15.0938 C   0  0  0  0  0  0  0  0  0  0  0  0
   27.0390  -18.3513  -16.2530 C   0  0  0  0  0  0  0  0  0  0  0  0
   26.4091  -17.9532  -17.4147 C   0  0  0  0  0  0  0  0  0  0  0  0
   27.2817  -17.3161  -18.2174 N   0  0  0  0  0  0  0  0  0  0  0  0
   28.4954  -17.2756  -17.6176 C   0  0  0  0  0  0  0  0  0  0  0  0
   29.7129  -16.7403  -18.0187 C   0  0  0  0  0  0  0  0  0  0  0  0
   30.8168  -16.8407  -17.1932 C   0  0  0  0  0  0  0  0  0  0  0  0
   30.6847  -17.4801  -15.9697 C   0  0  0  0  0  0  0  0  0  0  0  0
   29.4619  -18.0060  -15.5910 C   0  0  0  0  0  0  0  0  0  0  0  0
   28.3600  -17.9132  -16.3998 C   0  0  0  0  0  0  0  0  0  0  0  0
   26.7458  -20.9275  -13.5393 C   0  0  0  0  0  0  0  0  0  0  0  0
   25.8495  -21.7955  -13.6705 O   0  0  0  0  0  0  0  0  0  0  0  0
   27.9193  -20.6158   -7.5738 C   0  0  0  0  0  0  0  0  0  0  0  0
   26.7692  -21.1159   -8.5182 C   0  0  1  0  0  0  0  0  0  0  0  0
   25.5725  -20.3262   -7.9965 C   0  0  0  0  0  0  0  0  0  0  0  0
   27.2201  -20.7523   -9.8666 C   0  0  0  0  0  0  0  0  0  0  0  0
   26.3756  -20.9856  -11.0600 C   0  0  2  0  0  0  0  0  0  0  0  0
   27.1858  -20.5605  -12.2542 N   0  0  0  0  0  0  0  0  0  0  0  0
   25.0568  -20.4011  -11.1627 C   0  0  0  0  0  0  0  0  0  0  0  0
   24.9549  -19.1294  -10.9706 O   0  0  0  0  0  0  0  0  0  0  0  0
   21.6769  -24.2512  -16.3645 O   0  0  0  0  0  0  0  0  0  0  0  0
   21.8144  -23.1721  -15.5189 C   0  0  0  0  0  0  0  0  0  0  0  0
   23.0278  -22.5320  -15.4195 C   0  0  0  0  0  0  0  0  0  0  0  0
   23.1908  -21.4492  -14.5800 C   0  0  0  0  0  0  0  0  0  0  0  0
   22.1315  -20.9728  -13.8087 C   0  0  0  0  0  0  0  0  0  0  0  0
   22.3563  -19.8158  -12.9306 C   0  0  0  0  0  0  0  0  0  0  0  0
   22.6059  -20.2877  -11.4801 C   0  0  2  0  0  0  0  0  0  0  0  0
   23.8263  -21.0274  -11.4622 N   0  0  0  0  0  0  0  0  0  0  0  0
   21.4672  -21.1053  -11.0542 C   0  0  0  0  0  0  0  0  0  0  0  0
   21.4711  -22.4269  -10.6919 O   0  0  0  0  0  0  0  0  0  0  0  0
   20.9329  -21.6359  -13.9324 C   0  0  0  0  0  0  0  0  0  0  0  0
   20.7501  -22.7229  -14.7684 C   0  0  0  0  0  0  0  0  0  0  0  0
   20.3144  -20.5306  -11.0085 O   0  0  0  0  0  0  0  0  0  0  0  0
  2  1  1  6
  3  2  1  0
  4  5  2  0
  4  3  1  0
  6  5  1  0
  7 12  2  0
  7  6  1  0
  8  7  1  0
  9 10  1  0
  9  8  2  0
 10 11  2  0
 11 12  1  0
 12  4  1  0
 13  2  1  0
 14 13  2  0
 16 15  1  1
 16 18  1  0
 17 16  1  0
 19 18  1  1
 19 21  1  0
 19 20  1  0
 20 13  1  0
 21 30  1  0
 22 21  2  0
 23 24  1  0
 24 25  2  0
 24 34  1  0
 25 26  1  0
 26 27  2  0
 27 28  1  0
 29 28  1  6
 29 31  1  0
 30 29  1  0
 31 35  2  0
 31 32  1  0
 33 27  1  0
 34 33  2  0
M  END
$$$$
