GCP.pdb
     RDKit          3D

 18 18  0  0  1  0  0  0  0  0999 V2000
    7.9675  -12.7170   18.8207 N   0  0  0  0  0  0  0  0  0  0  0  0
    8.6529  -13.6285   19.7153 C   0  0  0  0  0  0  0  0  0  0  0  0
    7.8870  -13.8300   20.9782 C   0  0  0  0  0  0  0  0  0  0  0  0
    6.9994  -13.0071   21.3188 O   0  0  0  0  0  0  0  0  0  0  0  0
    8.1106  -14.9331   21.8445 N   0  0  0  0  0  0  0  0  0  0  0  0
    7.4054  -15.0560   23.1353 C   0  0  1  0  0  0  0  0  0  0  0  0
    6.9117  -16.4968   23.2873 C   0  0  0  0  0  0  0  0  0  0  0  0
    6.4157  -16.7910   25.0194 S   0  0  0  0  0  0  0  0  0  0  0  0
    8.2473  -14.6292   24.2465 C   0  0  0  0  0  0  0  0  0  0  0  0
    9.4997  -14.7477   24.1282 O   0  0  0  0  0  0  0  0  0  0  0  0
    7.7427  -14.0903   25.4438 N   0  0  0  0  0  0  0  0  0  0  0  0
    6.3642  -13.8751   25.8656 C   0  0  0  0  0  0  0  0  0  0  0  0
    6.3840  -12.6927   26.7835 C   0  0  0  0  0  0  0  0  0  0  0  0
    7.8338  -12.2854   26.8266 C   0  0  0  0  0  0  0  0  0  0  0  0
    8.5456  -13.5930   26.5720 C   0  0  1  0  0  0  0  0  0  0  0  0
    8.3933  -14.4346   27.7744 C   0  0  0  0  0  0  0  0  0  0  0  0
    7.5461  -15.3606   27.7237 O   0  0  0  0  0  0  0  0  0  0  0  0
    9.1094  -14.2828   28.9499 O   0  0  0  0  0  0  0  0  0  0  0  0
  1  2  1  0
  3  4  2  0
  3  2  1  0
  5  3  1  0
  6  5  1  0
  6  7  1  1
  8  7  1  0
  9 11  1  0
  9  6  1  0
 10  9  2  0
 11 12  1  0
 13 12  1  0
 14 15  1  0
 14 13  1  0
 15 11  1  0
 15 16  1  1
 16 18  1  0
 17 16  2  0
M  END
$$$$
