GCP.pdb
     RDKit          3D

 18 18  0  0  1  0  0  0  0  0999 V2000
    5.8210  -20.2766   24.5249 N   0  0  0  0  0  0  0  0  0  0  0  0
    6.5352  -19.2504   25.2583 C   0  0  0  0  0  0  0  0  0  0  0  0
    6.0622  -17.8867   24.8860 C   0  0  0  0  0  0  0  0  0  0  0  0
    5.4699  -17.6982   23.7929 O   0  0  0  0  0  0  0  0  0  0  0  0
    6.2489  -16.7540   25.7223 N   0  0  0  0  0  0  0  0  0  0  0  0
    6.7888  -15.4856   25.1946 C   0  0  1  0  0  0  0  0  0  0  0  0
    7.0203  -14.5280   26.3660 C   0  0  0  0  0  0  0  0  0  0  0  0
    8.0221  -13.1092   25.8037 S   0  0  0  0  0  0  0  0  0  0  0  0
    7.9922  -15.7064   24.4017 C   0  0  0  0  0  0  0  0  0  0  0  0
    8.7668  -16.6461   24.7387 O   0  0  0  0  0  0  0  0  0  0  0  0
    8.3387  -14.9320   23.2798 N   0  0  0  0  0  0  0  0  0  0  0  0
    8.0097  -13.5486   22.9596 C   0  0  0  0  0  0  0  0  0  0  0  0
    7.9610  -13.4619   21.4659 C   0  0  0  0  0  0  0  0  0  0  0  0
    8.2734  -14.8621   21.0062 C   0  0  0  0  0  0  0  0  0  0  0  0
    9.1354  -15.3874   22.1297 C   0  0  1  0  0  0  0  0  0  0  0  0
   10.4422  -14.7063   22.0561 C   0  0  0  0  0  0  0  0  0  0  0  0
   10.6922  -13.8465   22.9371 O   0  0  0  0  0  0  0  0  0  0  0  0
   11.4105  -14.9407   21.0943 O   0  0  0  0  0  0  0  0  0  0  0  0
  1  2  1  0
  3  4  2  0
  3  2  1  0
  5  3  1  0
  6  5  1  0
  6  7  1  1
  8  7  1  0
  9 11  1  0
  9  6  1  0
 10  9  2  0
 11 12  1  0
 13 12  1  0
 14 15  1  0
 14 13  1  0
 15 11  1  0
 15 16  1  1
 16 18  1  0
 17 16  2  0
M  END
$$$$
