GCP.pdb
     RDKit          3D

 18 18  0  0  1  0  0  0  0  0999 V2000
    4.9758  -18.9740   19.4964 N   0  0  0  0  0  0  0  0  0  0  0  0
    4.9720  -17.9063   20.4767 C   0  0  0  0  0  0  0  0  0  0  0  0
    6.3502  -17.4014   20.7366 C   0  0  0  0  0  0  0  0  0  0  0  0
    7.3491  -18.1038   20.4367 O   0  0  0  0  0  0  0  0  0  0  0  0
    6.6059  -16.1328   21.3218 N   0  0  0  0  0  0  0  0  0  0  0  0
    7.9810  -15.6753   21.6023 C   0  0  1  0  0  0  0  0  0  0  0  0
    7.9868  -14.1455   21.6511 C   0  0  0  0  0  0  0  0  0  0  0  0
    7.5800  -13.4821   19.9996 S   0  0  0  0  0  0  0  0  0  0  0  0
    8.5066  -16.2794   22.8208 C   0  0  0  0  0  0  0  0  0  0  0  0
    7.6903  -16.5968   23.7315 O   0  0  0  0  0  0  0  0  0  0  0  0
    9.8733  -16.5308   23.0386 N   0  0  0  0  0  0  0  0  0  0  0  0
   11.0370  -16.1066   22.2703 C   0  0  0  0  0  0  0  0  0  0  0  0
   12.0750  -17.1692   22.4564 C   0  0  0  0  0  0  0  0  0  0  0  0
   11.4092  -18.1799   23.3535 C   0  0  0  0  0  0  0  0  0  0  0  0
   10.4394  -17.3282   24.1378 C   0  0  1  0  0  0  0  0  0  0  0  0
   11.2193  -16.5009   25.0784 C   0  0  0  0  0  0  0  0  0  0  0  0
   11.6355  -17.0582   26.1244 O   0  0  0  0  0  0  0  0  0  0  0  0
   11.5265  -15.1628   24.8977 O   0  0  0  0  0  0  0  0  0  0  0  0
  1  2  1  0
  3  4  2  0
  3  2  1  0
  5  3  1  0
  6  5  1  0
  6  7  1  1
  8  7  1  0
  9 11  1  0
  9  6  1  0
 10  9  2  0
 11 12  1  0
 13 12  1  0
 14 15  1  0
 14 13  1  0
 15 11  1  0
 15 16  1  1
 16 18  1  0
 17 16  2  0
M  END
$$$$
