GCP.pdb
     RDKit          3D

 18 18  0  0  1  0  0  0  0  0999 V2000
    5.9023  -20.1649   25.0946 N   0  0  0  0  0  0  0  0  0  0  0  0
    6.9409  -19.1636   24.9543 C   0  0  0  0  0  0  0  0  0  0  0  0
    6.3649  -17.8181   24.6717 C   0  0  0  0  0  0  0  0  0  0  0  0
    5.5078  -17.6742   23.7629 O   0  0  0  0  0  0  0  0  0  0  0  0
    6.7414  -16.6543   25.3935 N   0  0  0  0  0  0  0  0  0  0  0  0
    7.0051  -15.3733   24.7091 C   0  0  1  0  0  0  0  0  0  0  0  0
    7.2333  -14.2915   25.7675 C   0  0  0  0  0  0  0  0  0  0  0  0
    5.6499  -13.4645   26.1440 S   0  0  0  0  0  0  0  0  0  0  0  0
    8.1164  -15.4875   23.7721 C   0  0  0  0  0  0  0  0  0  0  0  0
    8.9607  -16.4095   23.9547 O   0  0  0  0  0  0  0  0  0  0  0  0
    8.3002  -14.6285   22.6735 N   0  0  0  0  0  0  0  0  0  0  0  0
    7.9268  -13.2294   22.5066 C   0  0  0  0  0  0  0  0  0  0  0  0
    7.6686  -13.0338   21.0450 C   0  0  0  0  0  0  0  0  0  0  0  0
    7.9159  -14.3925   20.4432 C   0  0  0  0  0  0  0  0  0  0  0  0
    8.9282  -14.9882   21.3926 C   0  0  1  0  0  0  0  0  0  0  0  0
   10.2105  -14.2875   21.1876 C   0  0  0  0  0  0  0  0  0  0  0  0
   10.7144  -14.3365   20.0380 O   0  0  0  0  0  0  0  0  0  0  0  0
   10.8986  -13.5829   22.1610 O   0  0  0  0  0  0  0  0  0  0  0  0
  1  2  1  0
  3  4  2  0
  3  2  1  0
  5  3  1  0
  6  5  1  0
  6  7  1  1
  8  7  1  0
  9 11  1  0
  9  6  1  0
 10  9  2  0
 11 12  1  0
 13 12  1  0
 14 15  1  0
 14 13  1  0
 15 11  1  0
 15 16  1  1
 16 18  1  0
 17 16  2  0
M  END
$$$$
