GCP.pdb
     RDKit          3D

 18 18  0  0  1  0  0  0  0  0999 V2000
    3.8451  -19.8360   22.0584 N   0  0  0  0  0  0  0  0  0  0  0  0
    5.0469  -19.6327   22.8427 C   0  0  0  0  0  0  0  0  0  0  0  0
    5.3501  -18.1826   23.0078 C   0  0  0  0  0  0  0  0  0  0  0  0
    4.8275  -17.3349   22.2400 O   0  0  0  0  0  0  0  0  0  0  0  0
    6.2227  -17.6900   24.0143 N   0  0  0  0  0  0  0  0  0  0  0  0
    6.8650  -16.3661   23.8985 C   0  0  1  0  0  0  0  0  0  0  0  0
    7.4345  -15.9778   25.2652 C   0  0  0  0  0  0  0  0  0  0  0  0
    8.3557  -14.4086   25.1175 S   0  0  0  0  0  0  0  0  0  0  0  0
    7.8721  -16.3515   22.8443 C   0  0  0  0  0  0  0  0  0  0  0  0
    8.4571  -17.4350   22.5607 O   0  0  0  0  0  0  0  0  0  0  0  0
    8.2278  -15.1976   22.1229 N   0  0  0  0  0  0  0  0  0  0  0  0
    7.8590  -13.8049   22.3437 C   0  0  0  0  0  0  0  0  0  0  0  0
    7.8584  -13.1505   20.9973 C   0  0  0  0  0  0  0  0  0  0  0  0
    8.2380  -14.2588   20.0501 C   0  0  0  0  0  0  0  0  0  0  0  0
    9.0798  -15.1580   20.9240 C   0  0  1  0  0  0  0  0  0  0  0  0
   10.3623  -14.4738   21.1776 C   0  0  0  0  0  0  0  0  0  0  0  0
   10.5387  -13.9908   22.3237 O   0  0  0  0  0  0  0  0  0  0  0  0
   11.3823  -14.3235   20.2532 O   0  0  0  0  0  0  0  0  0  0  0  0
  1  2  1  0
  3  4  2  0
  3  2  1  0
  5  3  1  0
  6  5  1  0
  6  7  1  1
  8  7  1  0
  9 11  1  0
  9  6  1  0
 10  9  2  0
 11 12  1  0
 13 12  1  0
 14 15  1  0
 14 13  1  0
 15 11  1  0
 15 16  1  1
 16 18  1  0
 17 16  2  0
M  END
$$$$
