GCP.pdb
     RDKit          3D

 18 18  0  0  1  0  0  0  0  0999 V2000
    6.5159  -19.7178   16.2998 N   0  0  0  0  0  0  0  0  0  0  0  0
    6.9194  -19.8768   17.6828 C   0  0  0  0  0  0  0  0  0  0  0  0
    6.6629  -18.6374   18.4703 C   0  0  0  0  0  0  0  0  0  0  0  0
    6.9338  -17.5102   17.9834 O   0  0  0  0  0  0  0  0  0  0  0  0
    6.1130  -18.6592   19.7796 N   0  0  0  0  0  0  0  0  0  0  0  0
    5.9907  -17.4290   20.5860 C   0  0  1  0  0  0  0  0  0  0  0  0
    5.0421  -17.7033   21.7555 C   0  0  0  0  0  0  0  0  0  0  0  0
    3.4096  -18.2052   21.1106 S   0  0  0  0  0  0  0  0  0  0  0  0
    7.2949  -16.9437   21.0209 C   0  0  0  0  0  0  0  0  0  0  0  0
    8.2902  -17.7127   20.9003 O   0  0  0  0  0  0  0  0  0  0  0  0
    7.5079  -15.6646   21.5661 N   0  0  0  0  0  0  0  0  0  0  0  0
    6.5527  -14.6078   21.8747 C   0  0  0  0  0  0  0  0  0  0  0  0
    7.2902  -13.3145   21.7186 C   0  0  0  0  0  0  0  0  0  0  0  0
    8.6787  -13.7306   21.3081 C   0  0  0  0  0  0  0  0  0  0  0  0
    8.8101  -15.0939   21.9446 C   0  0  1  0  0  0  0  0  0  0  0  0
    8.9296  -14.9046   23.4031 C   0  0  0  0  0  0  0  0  0  0  0  0
   10.0179  -14.4504   23.8359 O   0  0  0  0  0  0  0  0  0  0  0  0
    7.9387  -15.1880   24.3278 O   0  0  0  0  0  0  0  0  0  0  0  0
  1  2  1  0
  3  4  2  0
  3  2  1  0
  5  3  1  0
  6  5  1  0
  6  7  1  1
  8  7  1  0
  9 11  1  0
  9  6  1  0
 10  9  2  0
 11 12  1  0
 13 12  1  0
 14 15  1  0
 14 13  1  0
 15 11  1  0
 15 16  1  1
 16 18  1  0
 17 16  2  0
M  END
$$$$
