GCP.pdb
     RDKit          3D

 18 18  0  0  1  0  0  0  0  0999 V2000
    5.1983  -12.1469   26.8889 N   0  0  0  0  0  0  0  0  0  0  0  0
    6.4620  -12.2048   26.1812 C   0  0  0  0  0  0  0  0  0  0  0  0
    6.7081  -13.5624   25.6172 C   0  0  0  0  0  0  0  0  0  0  0  0
    6.2756  -14.5829   26.2110 O   0  0  0  0  0  0  0  0  0  0  0  0
    7.4256  -13.7742   24.4099 N   0  0  0  0  0  0  0  0  0  0  0  0
    7.7750  -15.1318   23.9477 C   0  0  1  0  0  0  0  0  0  0  0  0
    7.9521  -15.1003   22.4277 C   0  0  0  0  0  0  0  0  0  0  0  0
    6.3132  -15.0579   21.6246 S   0  0  0  0  0  0  0  0  0  0  0  0
    8.9502  -15.6458   24.6409 C   0  0  0  0  0  0  0  0  0  0  0  0
    9.9402  -14.8754   24.7923 O   0  0  0  0  0  0  0  0  0  0  0  0
    9.0429  -16.9526   25.1529 N   0  0  0  0  0  0  0  0  0  0  0  0
    8.0859  -18.0505   25.0954 C   0  0  0  0  0  0  0  0  0  0  0  0
    8.3144  -18.8735   26.3248 C   0  0  0  0  0  0  0  0  0  0  0  0
    9.4318  -18.1612   27.0413 C   0  0  0  0  0  0  0  0  0  0  0  0
   10.1802  -17.5061   25.9046 C   0  0  1  0  0  0  0  0  0  0  0  0
   10.8800  -18.5647   25.1517 C   0  0  0  0  0  0  0  0  0  0  0  0
   11.8866  -19.0852   25.6937 O   0  0  0  0  0  0  0  0  0  0  0  0
   10.5142  -19.0268   23.8987 O   0  0  0  0  0  0  0  0  0  0  0  0
  1  2  1  0
  3  4  2  0
  3  2  1  0
  5  3  1  0
  6  5  1  0
  6  7  1  6
  8  7  1  0
  9 11  1  0
  9  6  1  0
 10  9  2  0
 11 12  1  0
 13 12  1  0
 14 15  1  0
 14 13  1  0
 15 11  1  0
 15 16  1  6
 16 18  1  0
 17 16  2  0
M  END
$$$$
