GCP.pdb
     RDKit          3D

 18 18  0  0  1  0  0  0  0  0999 V2000
    4.6301  -20.0658   22.1427 N   0  0  0  0  0  0  0  0  0  0  0  0
    5.4639  -19.6440   23.2508 C   0  0  0  0  0  0  0  0  0  0  0  0
    5.7239  -18.1769   23.2085 C   0  0  0  0  0  0  0  0  0  0  0  0
    5.1094  -17.4481   22.3885 O   0  0  0  0  0  0  0  0  0  0  0  0
    6.6553  -17.5366   24.0687 N   0  0  0  0  0  0  0  0  0  0  0  0
    7.1359  -16.1666   23.8029 C   0  0  1  0  0  0  0  0  0  0  0  0
    7.7122  -15.5907   25.0987 C   0  0  0  0  0  0  0  0  0  0  0  0
    8.4456  -13.9528   24.7639 S   0  0  0  0  0  0  0  0  0  0  0  0
    8.0908  -16.1400   22.7015 C   0  0  0  0  0  0  0  0  0  0  0  0
    8.7388  -17.1941   22.4458 O   0  0  0  0  0  0  0  0  0  0  0  0
    8.3298  -15.0054   21.9051 N   0  0  0  0  0  0  0  0  0  0  0  0
    7.9780  -13.6097   22.1348 C   0  0  0  0  0  0  0  0  0  0  0  0
    7.7841  -12.9961   20.7831 C   0  0  0  0  0  0  0  0  0  0  0  0
    8.0431  -14.1292   19.8247 C   0  0  0  0  0  0  0  0  0  0  0  0
    9.0081  -14.9950   20.5996 C   0  0  1  0  0  0  0  0  0  0  0  0
   10.3049  -14.2931   20.6541 C   0  0  0  0  0  0  0  0  0  0  0  0
   10.6201  -13.7527   21.7434 O   0  0  0  0  0  0  0  0  0  0  0  0
   11.1977  -14.1844   19.6012 O   0  0  0  0  0  0  0  0  0  0  0  0
  1  2  1  0
  3  4  2  0
  3  2  1  0
  5  3  1  0
  6  5  1  0
  6  7  1  1
  8  7  1  0
  9 11  1  0
  9  6  1  0
 10  9  2  0
 11 12  1  0
 13 12  1  0
 14 15  1  0
 14 13  1  0
 15 11  1  0
 15 16  1  1
 16 18  1  0
 17 16  2  0
M  END
$$$$
