GCP.pdb
     RDKit          3D

 18 18  0  0  1  0  0  0  0  0999 V2000
    4.8651  -19.9344   23.0108 N   0  0  0  0  0  0  0  0  0  0  0  0
    5.8682  -19.2693   23.8185 C   0  0  0  0  0  0  0  0  0  0  0  0
    5.9025  -17.8042   23.5459 C   0  0  0  0  0  0  0  0  0  0  0  0
    5.1585  -17.3067   22.6626 O   0  0  0  0  0  0  0  0  0  0  0  0
    6.7545  -16.9117   24.2493 N   0  0  0  0  0  0  0  0  0  0  0  0
    7.1265  -15.5975   23.6895 C   0  0  1  0  0  0  0  0  0  0  0  0
    7.7739  -14.7607   24.7955 C   0  0  0  0  0  0  0  0  0  0  0  0
    9.1158  -15.7196   25.5781 S   0  0  0  0  0  0  0  0  0  0  0  0
    7.9815  -15.7392   22.5171 C   0  0  0  0  0  0  0  0  0  0  0  0
    8.4547  -16.8813   22.2562 O   0  0  0  0  0  0  0  0  0  0  0  0
    8.3079  -14.6744   21.6579 N   0  0  0  0  0  0  0  0  0  0  0  0
    8.2073  -13.2359   21.8701 C   0  0  0  0  0  0  0  0  0  0  0  0
    7.9663  -12.6271   20.5239 C   0  0  0  0  0  0  0  0  0  0  0  0
    7.9378  -13.8066   19.5872 C   0  0  0  0  0  0  0  0  0  0  0  0
    8.8331  -14.8000   20.2893 C   0  0  1  0  0  0  0  0  0  0  0  0
   10.2223  -14.3144   20.1817 C   0  0  0  0  0  0  0  0  0  0  0  0
   10.7556  -14.3470   19.0449 O   0  0  0  0  0  0  0  0  0  0  0  0
   10.9805  -13.8278   21.2333 O   0  0  0  0  0  0  0  0  0  0  0  0
  1  2  1  0
  3  4  2  0
  3  2  1  0
  5  3  1  0
  6  5  1  0
  6  7  1  1
  8  7  1  0
  9 11  1  0
  9  6  1  0
 10  9  2  0
 11 12  1  0
 13 12  1  0
 14 15  1  0
 14 13  1  0
 15 11  1  0
 15 16  1  1
 16 18  1  0
 17 16  2  0
M  END
$$$$
