GCP.pdb
     RDKit          3D

 18 18  0  0  1  0  0  0  0  0999 V2000
    4.2707  -19.9597   23.1193 N   0  0  0  0  0  0  0  0  0  0  0  0
    5.5690  -19.4596   23.5258 C   0  0  0  0  0  0  0  0  0  0  0  0
    5.6484  -17.9774   23.3888 C   0  0  0  0  0  0  0  0  0  0  0  0
    4.8905  -17.3739   22.5872 O   0  0  0  0  0  0  0  0  0  0  0  0
    6.5599  -17.1846   24.1358 N   0  0  0  0  0  0  0  0  0  0  0  0
    6.9462  -15.8302   23.6944 C   0  0  1  0  0  0  0  0  0  0  0  0
    7.6429  -15.1175   24.8561 C   0  0  0  0  0  0  0  0  0  0  0  0
    9.3113  -15.8210   25.0892 S   0  0  0  0  0  0  0  0  0  0  0  0
    7.7651  -15.8748   22.4889 C   0  0  0  0  0  0  0  0  0  0  0  0
    8.1790  -16.9993   22.0880 O   0  0  0  0  0  0  0  0  0  0  0  0
    8.1190  -14.7346   21.7451 N   0  0  0  0  0  0  0  0  0  0  0  0
    8.0297  -13.3229   22.0966 C   0  0  0  0  0  0  0  0  0  0  0  0
    7.8207  -12.5813   20.8131 C   0  0  0  0  0  0  0  0  0  0  0  0
    7.7974  -13.6623   19.7640 C   0  0  0  0  0  0  0  0  0  0  0  0
    8.6686  -14.7311   20.3803 C   0  0  1  0  0  0  0  0  0  0  0  0
   10.0647  -14.2546   20.3461 C   0  0  0  0  0  0  0  0  0  0  0  0
   10.6201  -14.1842   19.2215 O   0  0  0  0  0  0  0  0  0  0  0  0
   10.8071  -13.8808   21.4536 O   0  0  0  0  0  0  0  0  0  0  0  0
  1  2  1  0
  3  4  2  0
  3  2  1  0
  5  3  1  0
  6  5  1  0
  6  7  1  1
  8  7  1  0
  9 11  1  0
  9  6  1  0
 10  9  2  0
 11 12  1  0
 13 12  1  0
 14 15  1  0
 14 13  1  0
 15 11  1  0
 15 16  1  1
 16 18  1  0
 17 16  2  0
M  END
$$$$
