GCP.pdb
     RDKit          3D

 18 18  0  0  1  0  0  0  0  0999 V2000
    4.3879  -20.7233   22.4553 N   0  0  0  0  0  0  0  0  0  0  0  0
    5.5763  -20.2651   23.1472 C   0  0  0  0  0  0  0  0  0  0  0  0
    5.5848  -18.7813   23.2897 C   0  0  0  0  0  0  0  0  0  0  0  0
    4.9555  -18.0629   22.4719 O   0  0  0  0  0  0  0  0  0  0  0  0
    6.2854  -18.1135   24.3291 N   0  0  0  0  0  0  0  0  0  0  0  0
    6.8074  -16.7442   24.1521 C   0  0  1  0  0  0  0  0  0  0  0  0
    7.2386  -16.2051   25.5182 C   0  0  0  0  0  0  0  0  0  0  0  0
    8.0162  -14.5668   25.3083 S   0  0  0  0  0  0  0  0  0  0  0  0
    7.8815  -16.7055   23.1670 C   0  0  0  0  0  0  0  0  0  0  0  0
    8.5322  -17.7665   22.9491 O   0  0  0  0  0  0  0  0  0  0  0  0
    8.2332  -15.5519   22.4430 N   0  0  0  0  0  0  0  0  0  0  0  0
    7.8068  -14.1694   22.6204 C   0  0  0  0  0  0  0  0  0  0  0  0
    7.8506  -13.5377   21.2639 C   0  0  0  0  0  0  0  0  0  0  0  0
    8.3139  -14.6474   20.3566 C   0  0  0  0  0  0  0  0  0  0  0  0
    9.1416  -15.5025   21.2867 C   0  0  1  0  0  0  0  0  0  0  0  0
   10.3860  -14.7700   21.5902 C   0  0  0  0  0  0  0  0  0  0  0  0
   11.1783  -14.5643   20.6373 O   0  0  0  0  0  0  0  0  0  0  0  0
   10.7466  -14.2940   22.8395 O   0  0  0  0  0  0  0  0  0  0  0  0
  1  2  1  0
  3  4  2  0
  3  2  1  0
  5  3  1  0
  6  5  1  0
  6  7  1  1
  8  7  1  0
  9 11  1  0
  9  6  1  0
 10  9  2  0
 11 12  1  0
 13 12  1  0
 14 15  1  0
 14 13  1  0
 15 11  1  0
 15 16  1  1
 16 18  1  0
 17 16  2  0
M  END
$$$$
