GCP.pdb
     RDKit          3D

 18 18  0  0  1  0  0  0  0  0999 V2000
    7.9089  -15.4155   20.5714 N   0  0  0  0  0  0  0  0  0  0  0  0
    7.2252  -15.5408   21.8433 C   0  0  0  0  0  0  0  0  0  0  0  0
    7.8929  -14.7311   22.9019 C   0  0  0  0  0  0  0  0  0  0  0  0
    9.1107  -14.4352   22.7994 O   0  0  0  0  0  0  0  0  0  0  0  0
    7.2095  -14.2609   24.0548 N   0  0  0  0  0  0  0  0  0  0  0  0
    7.9380  -13.8667   25.2766 C   0  0  1  0  0  0  0  0  0  0  0  0
    6.9840  -13.0865   26.1842 C   0  0  0  0  0  0  0  0  0  0  0  0
    5.4009  -13.9853   26.3197 S   0  0  0  0  0  0  0  0  0  0  0  0
    8.5294  -15.0216   25.9416 C   0  0  0  0  0  0  0  0  0  0  0  0
    8.4243  -16.1512   25.3853 O   0  0  0  0  0  0  0  0  0  0  0  0
    9.2131  -14.9482   27.1687 N   0  0  0  0  0  0  0  0  0  0  0  0
    8.9486  -14.1212   28.3395 C   0  0  0  0  0  0  0  0  0  0  0  0
   10.2735  -13.8809   28.9936 C   0  0  0  0  0  0  0  0  0  0  0  0
   11.2549  -14.6125   28.1154 C   0  0  0  0  0  0  0  0  0  0  0  0
   10.4086  -15.7222   27.5380 C   0  0  1  0  0  0  0  0  0  0  0  0
   10.1311  -16.6900   28.6167 C   0  0  0  0  0  0  0  0  0  0  0  0
   11.1053  -17.3422   29.0677 O   0  0  0  0  0  0  0  0  0  0  0  0
    8.8844  -16.9340   29.1678 O   0  0  0  0  0  0  0  0  0  0  0  0
  1  2  1  0
  3  4  2  0
  3  2  1  0
  5  3  1  0
  6  5  1  0
  6  7  1  1
  8  7  1  0
  9 11  1  0
  9  6  1  0
 10  9  2  0
 11 12  1  0
 13 12  1  0
 14 15  1  0
 14 13  1  0
 15 11  1  0
 15 16  1  1
 16 18  1  0
 17 16  2  0
M  END
$$$$
