GCP.pdb
     RDKit          3D

 18 18  0  0  1  0  0  0  0  0999 V2000
    5.8576  -19.7785   24.5730 N   0  0  0  0  0  0  0  0  0  0  0  0
    6.5849  -18.7073   25.2247 C   0  0  0  0  0  0  0  0  0  0  0  0
    6.2286  -17.3791   24.6494 C   0  0  0  0  0  0  0  0  0  0  0  0
    5.5915  -17.3078   23.5676 O   0  0  0  0  0  0  0  0  0  0  0  0
    6.5791  -16.1525   25.2738 N   0  0  0  0  0  0  0  0  0  0  0  0
    7.0095  -14.9809   24.4860 C   0  0  1  0  0  0  0  0  0  0  0  0
    7.2339  -13.8056   25.4405 C   0  0  0  0  0  0  0  0  0  0  0  0
    5.6985  -13.4755   26.3713 S   0  0  0  0  0  0  0  0  0  0  0  0
    8.1856  -15.2830   23.6788 C   0  0  0  0  0  0  0  0  0  0  0  0
    8.9237  -16.2452   24.0335 O   0  0  0  0  0  0  0  0  0  0  0  0
    8.5438  -14.5634   22.5245 N   0  0  0  0  0  0  0  0  0  0  0  0
    8.2987  -13.1692   22.1770 C   0  0  0  0  0  0  0  0  0  0  0  0
    8.2029  -13.1176   20.6840 C   0  0  0  0  0  0  0  0  0  0  0  0
    8.4025  -14.5474   20.2535 C   0  0  0  0  0  0  0  0  0  0  0  0
    9.2661  -15.1021   21.3615 C   0  0  1  0  0  0  0  0  0  0  0  0
   10.6129  -14.5150   21.2246 C   0  0  0  0  0  0  0  0  0  0  0  0
   11.2522  -14.7823   20.1768 O   0  0  0  0  0  0  0  0  0  0  0  0
   11.2242  -13.6956   22.1586 O   0  0  0  0  0  0  0  0  0  0  0  0
  1  2  1  0
  3  4  2  0
  3  2  1  0
  5  3  1  0
  6  5  1  0
  6  7  1  1
  8  7  1  0
  9 11  1  0
  9  6  1  0
 10  9  2  0
 11 12  1  0
 13 12  1  0
 14 15  1  0
 14 13  1  0
 15 11  1  0
 15 16  1  6
 16 18  1  0
 17 16  2  0
M  END
$$$$
