SYH.pdb
     RDKit          3D

 29 30  0  0  1  0  0  0  0  0999 V2000
    9.8244  -19.0930   20.2611 O   0  0  0  0  0  0  0  0  0  0  0  0
    9.0470  -18.3098   19.3845 C   0  0  0  0  0  0  0  0  0  0  0  0
    9.6376  -16.9233   19.4131 C   0  0  2  0  0  0  0  0  0  0  0  0
   11.0050  -17.0254   18.9481 N   0  0  0  0  0  0  0  0  0  0  0  0
    9.6235  -16.3018   20.7311 C   0  0  0  0  0  0  0  0  0  0  0  0
   10.6542  -16.3500   21.4434 O   0  0  0  0  0  0  0  0  0  0  0  0
    7.0531  -11.8754   28.0064 O   0  0  0  0  0  0  0  0  0  0  0  0
    7.1339  -12.4257   26.7347 C   0  0  0  0  0  0  0  0  0  0  0  0
    6.4409  -13.5903   26.4764 C   0  0  0  0  0  0  0  0  0  0  0  0
    6.4933  -14.1789   25.2123 C   0  0  0  0  0  0  0  0  0  0  0  0
    7.2285  -13.6277   24.1880 C   0  0  0  0  0  0  0  0  0  0  0  0
    7.2930  -14.2297   22.8668 C   0  0  0  0  0  0  0  0  0  0  0  0
    8.5222  -15.0552   22.6305 C   0  0  2  0  0  0  0  0  0  0  0  0
    8.4974  -15.6247   21.2879 N   0  0  0  0  0  0  0  0  0  0  0  0
    8.7268  -16.0890   23.6562 C   0  0  0  0  0  0  0  0  0  0  0  0
    8.0778  -17.1673   23.5724 O   0  0  0  0  0  0  0  0  0  0  0  0
    7.9172  -12.4521   24.4792 C   0  0  0  0  0  0  0  0  0  0  0  0
    7.8672  -11.8726   25.7195 C   0  0  0  0  0  0  0  0  0  0  0  0
    9.6217  -15.9339   24.7406 N   0  0  0  0  0  0  0  0  0  0  0  0
    9.8587  -17.0480   25.6407 C   0  0  1  0  0  0  0  0  0  0  0  0
   11.0911  -17.7818   25.1777 C   0  0  0  0  0  0  0  0  0  0  0  0
   11.4628  -18.9234   26.0132 C   0  0  0  0  0  0  0  0  0  0  0  0
   10.7214  -19.3309   27.1098 C   0  0  0  0  0  0  0  0  0  0  0  0
   11.3044  -20.4005   27.6781 N   0  0  0  0  0  0  0  0  0  0  0  0
   12.3973  -20.6690   26.9563 C   0  0  0  0  0  0  0  0  0  0  0  0
   12.4954  -19.7848   25.9567 N   0  0  0  0  0  0  0  0  0  0  0  0
   10.0498  -16.4619   26.9905 C   0  0  0  0  0  0  0  0  0  0  0  0
   10.2788  -17.2424   27.9538 O   0  0  0  0  0  0  0  0  0  0  0  0
    9.9955  -15.1104   27.2739 O   0  0  0  0  0  0  0  0  0  0  0  0
  1  2  1  0
  2  3  1  0
  3  4  1  1
  5  3  1  0
  5  6  2  0
  7  8  1  0
  8  9  2  0
  9 10  1  0
 11 10  2  0
 11 12  1  0
 13 12  1  1
 13 14  1  0
 14  5  1  0
 15 13  1  0
 16 15  2  0
 17 11  1  0
 18  8  1  0
 18 17  2  0
 19 15  1  0
 20 21  1  6
 20 19  1  0
 21 22  1  0
 22 26  1  0
 23 22  2  0
 23 24  1  0
 24 25  1  0
 26 25  2  0
 27 29  1  0
 27 20  1  0
 28 27  2  0
M  END
$$$$
