SYH.pdb
     RDKit          3D

 29 30  0  0  1  0  0  0  0  0999 V2000
    7.3012  -18.5419   19.4956 O   0  0  0  0  0  0  0  0  0  0  0  0
    8.6145  -18.3064   19.0417 C   0  0  0  0  0  0  0  0  0  0  0  0
    8.7822  -16.8099   18.9775 C   0  0  2  0  0  0  0  0  0  0  0  0
    9.9479  -16.5392   18.1624 N   0  0  0  0  0  0  0  0  0  0  0  0
    8.9490  -16.1772   20.2796 C   0  0  0  0  0  0  0  0  0  0  0  0
   10.0544  -16.2606   20.8653 O   0  0  0  0  0  0  0  0  0  0  0  0
    7.0385  -12.3012   28.0640 O   0  0  0  0  0  0  0  0  0  0  0  0
    7.0010  -12.7535   26.7522 C   0  0  0  0  0  0  0  0  0  0  0  0
    7.6746  -12.0326   25.7880 C   0  0  0  0  0  0  0  0  0  0  0  0
    7.6641  -12.4501   24.4566 C   0  0  0  0  0  0  0  0  0  0  0  0
    6.9903  -13.5822   24.0592 C   0  0  0  0  0  0  0  0  0  0  0  0
    6.9700  -14.0288   22.6764 C   0  0  0  0  0  0  0  0  0  0  0  0
    8.1024  -14.9415   22.3120 C   0  0  2  0  0  0  0  0  0  0  0  0
    7.9241  -15.4511   20.9570 N   0  0  0  0  0  0  0  0  0  0  0  0
    8.2983  -16.0302   23.2811 C   0  0  0  0  0  0  0  0  0  0  0  0
    7.7058  -17.1276   23.0928 O   0  0  0  0  0  0  0  0  0  0  0  0
    6.3198  -14.2889   25.0552 C   0  0  0  0  0  0  0  0  0  0  0  0
    6.3287  -13.8808   26.3629 C   0  0  0  0  0  0  0  0  0  0  0  0
    9.1242  -15.9077   24.4230 N   0  0  0  0  0  0  0  0  0  0  0  0
    9.6360  -17.1021   25.0702 C   0  0  1  0  0  0  0  0  0  0  0  0
   10.5026  -17.8444   24.0855 C   0  0  0  0  0  0  0  0  0  0  0  0
   11.1140  -19.0617   24.6183 C   0  0  0  0  0  0  0  0  0  0  0  0
   10.8740  -19.5301   25.8995 C   0  0  0  0  0  0  0  0  0  0  0  0
   11.5699  -20.6615   26.1055 N   0  0  0  0  0  0  0  0  0  0  0  0
   12.2410  -20.9090   24.9759 C   0  0  0  0  0  0  0  0  0  0  0  0
   11.9698  -19.9512   24.0815 N   0  0  0  0  0  0  0  0  0  0  0  0
   10.4189  -16.6396   26.2429 C   0  0  0  0  0  0  0  0  0  0  0  0
   10.9112  -15.4793   26.2127 O   0  0  0  0  0  0  0  0  0  0  0  0
   10.6509  -17.3930   27.3780 O   0  0  0  0  0  0  0  0  0  0  0  0
  1  2  1  0
  2  3  1  0
  3  4  1  6
  5  3  1  0
  5  6  2  0
  7  8  1  0
  8  9  2  0
  9 10  1  0
 11 10  2  0
 11 12  1  0
 13 12  1  1
 13 14  1  0
 14  5  1  0
 15 13  1  0
 16 15  2  0
 17 11  1  0
 18  8  1  0
 18 17  2  0
 19 15  1  0
 20 21  1  6
 20 19  1  0
 21 22  1  0
 22 26  1  0
 23 22  2  0
 23 24  1  0
 24 25  1  0
 26 25  2  0
 27 29  1  0
 27 20  1  0
 28 27  2  0
M  END
$$$$
