SYH.pdb
     RDKit          3D

 29 30  0  0  1  0  0  0  0  0999 V2000
   21.0645  -19.6079   35.4886 O   0  0  0  0  0  0  0  0  0  0  0  0
   20.3938  -20.6980   36.0786 C   0  0  0  0  0  0  0  0  0  0  0  0
   18.9306  -20.5201   35.7635 C   0  0  2  0  0  0  0  0  0  0  0  0
   18.7767  -20.6552   34.3302 N   0  0  0  0  0  0  0  0  0  0  0  0
   18.3865  -19.2360   36.1862 C   0  0  0  0  0  0  0  0  0  0  0  0
   17.2478  -18.8918   35.7904 O   0  0  0  0  0  0  0  0  0  0  0  0
   14.4375  -12.5729   39.6601 O   0  0  0  0  0  0  0  0  0  0  0  0
   15.1090  -13.7401   39.3233 C   0  0  0  0  0  0  0  0  0  0  0  0
   15.3656  -13.9908   37.9912 C   0  0  0  0  0  0  0  0  0  0  0  0
   16.0378  -15.1516   37.6067 C   0  0  0  0  0  0  0  0  0  0  0  0
   16.4651  -16.0789   38.5293 C   0  0  0  0  0  0  0  0  0  0  0  0
   17.1655  -17.2925   38.1435 C   0  0  0  0  0  0  0  0  0  0  0  0
   18.4705  -17.0497   37.4461 C   0  0  2  0  0  0  0  0  0  0  0  0
   19.0681  -18.3162   37.0382 N   0  0  0  0  0  0  0  0  0  0  0  0
   19.4049  -16.2381   38.2405 C   0  0  0  0  0  0  0  0  0  0  0  0
   18.9971  -15.1549   38.7415 O   0  0  0  0  0  0  0  0  0  0  0  0
   16.1915  -15.7980   39.8661 C   0  0  0  0  0  0  0  0  0  0  0  0
   15.5318  -14.6592   40.2459 C   0  0  0  0  0  0  0  0  0  0  0  0
   20.7486  -16.6142   38.4729 N   0  0  0  0  0  0  0  0  0  0  0  0
   21.5839  -15.7974   39.3347 C   0  0  1  0  0  0  0  0  0  0  0  0
   22.6518  -16.6751   39.9354 C   0  0  0  0  0  0  0  0  0  0  0  0
   22.1546  -17.6547   40.9011 C   0  0  0  0  0  0  0  0  0  0  0  0
   20.8580  -17.6454   41.3882 C   0  0  0  0  0  0  0  0  0  0  0  0
   20.6928  -18.6597   42.2547 N   0  0  0  0  0  0  0  0  0  0  0  0
   21.8631  -19.3031   42.3181 C   0  0  0  0  0  0  0  0  0  0  0  0
   22.7423  -18.7028   41.5073 N   0  0  0  0  0  0  0  0  0  0  0  0
   22.1694  -14.7419   38.4716 C   0  0  0  0  0  0  0  0  0  0  0  0
   22.3151  -14.9870   37.2435 O   0  0  0  0  0  0  0  0  0  0  0  0
   22.5706  -13.4968   38.9174 O   0  0  0  0  0  0  0  0  0  0  0  0
  1  2  1  0
  2  3  1  0
  3  4  1  6
  5  3  1  0
  5  6  2  0
  7  8  1  0
  8  9  2  0
  9 10  1  0
 11 10  2  0
 11 12  1  0
 13 12  1  1
 13 14  1  0
 14  5  1  0
 15 13  1  0
 16 15  2  0
 17 11  1  0
 18  8  1  0
 18 17  2  0
 19 15  1  0
 20 21  1  6
 20 19  1  0
 21 22  1  0
 22 26  1  0
 23 22  2  0
 23 24  1  0
 24 25  1  0
 26 25  2  0
 27 29  1  0
 27 20  1  0
 28 27  2  0
M  END
$$$$
