SYH.pdb
     RDKit          3D

 29 30  0  0  1  0  0  0  0  0999 V2000
   11.0602  -20.3244   19.7777 O   0  0  0  0  0  0  0  0  0  0  0  0
    9.7047  -19.9539   19.6707 C   0  0  0  0  0  0  0  0  0  0  0  0
    9.6894  -18.4954   19.2906 C   0  0  2  0  0  0  0  0  0  0  0  0
   10.6591  -18.3139   18.2308 N   0  0  0  0  0  0  0  0  0  0  0  0
   10.0062  -17.5943   20.3911 C   0  0  0  0  0  0  0  0  0  0  0  0
   11.1344  -17.0488   20.4323 O   0  0  0  0  0  0  0  0  0  0  0  0
    7.4045  -12.0617   18.3889 O   0  0  0  0  0  0  0  0  0  0  0  0
    7.6973  -12.8603   19.4858 C   0  0  0  0  0  0  0  0  0  0  0  0
    6.7968  -13.8418   19.8444 C   0  0  0  0  0  0  0  0  0  0  0  0
    7.0500  -14.6679   20.9401 C   0  0  0  0  0  0  0  0  0  0  0  0
    8.1928  -14.5371   21.6954 C   0  0  0  0  0  0  0  0  0  0  0  0
    8.4696  -15.3895   22.8394 C   0  0  0  0  0  0  0  0  0  0  0  0
    9.5059  -16.4420   22.5812 C   0  0  2  0  0  0  0  0  0  0  0  0
    9.1075  -17.2766   21.4532 N   0  0  0  0  0  0  0  0  0  0  0  0
    9.8162  -17.2480   23.7714 C   0  0  0  0  0  0  0  0  0  0  0  0
    8.9323  -18.0215   24.2309 O   0  0  0  0  0  0  0  0  0  0  0  0
    9.0829  -13.5374   21.3088 C   0  0  0  0  0  0  0  0  0  0  0  0
    8.8363  -12.7254   20.2335 C   0  0  0  0  0  0  0  0  0  0  0  0
   11.0659  -17.1991   24.4323 N   0  0  0  0  0  0  0  0  0  0  0  0
   11.3603  -18.1567   25.4829 C   0  0  1  0  0  0  0  0  0  0  0  0
   12.8396  -18.4449   25.4652 C   0  0  0  0  0  0  0  0  0  0  0  0
   13.3125  -19.0962   24.2439 C   0  0  0  0  0  0  0  0  0  0  0  0
   12.4690  -19.7477   23.3592 C   0  0  0  0  0  0  0  0  0  0  0  0
   13.1840  -20.2454   22.3355 N   0  0  0  0  0  0  0  0  0  0  0  0
   14.4596  -19.9167   22.5642 C   0  0  0  0  0  0  0  0  0  0  0  0
   14.5403  -19.2272   23.7083 N   0  0  0  0  0  0  0  0  0  0  0  0
   10.9456  -17.5200   26.7575 C   0  0  0  0  0  0  0  0  0  0  0  0
   11.1287  -18.1563   27.8305 O   0  0  0  0  0  0  0  0  0  0  0  0
   10.3682  -16.2685   26.8579 O   0  0  0  0  0  0  0  0  0  0  0  0
  1  2  1  0
  2  3  1  0
  3  4  1  6
  5  3  1  0
  5  6  2  0
  7  8  1  0
  8  9  2  0
  9 10  1  0
 11 10  2  0
 11 12  1  0
 13 12  1  1
 13 14  1  0
 14  5  1  0
 15 13  1  0
 16 15  2  0
 17 11  1  0
 18  8  1  0
 18 17  2  0
 19 15  1  0
 20 21  1  1
 20 19  1  0
 21 22  1  0
 22 26  1  0
 23 22  2  0
 23 24  1  0
 24 25  1  0
 26 25  2  0
 27 29  1  0
 27 20  1  0
 28 27  2  0
M  END
$$$$
