SYH.pdb
     RDKit          3D

 29 30  0  0  1  0  0  0  0  0999 V2000
    9.0574  -19.3574   21.4797 O   0  0  0  0  0  0  0  0  0  0  0  0
    8.3923  -18.7193   20.4135 C   0  0  0  0  0  0  0  0  0  0  0  0
    9.0297  -17.3616   20.2641 C   0  0  2  0  0  0  0  0  0  0  0  0
   10.3937  -17.5693   19.8253 N   0  0  0  0  0  0  0  0  0  0  0  0
    9.0340  -16.5725   21.4893 C   0  0  0  0  0  0  0  0  0  0  0  0
   10.0654  -16.5512   22.2018 O   0  0  0  0  0  0  0  0  0  0  0  0
    6.5901  -11.2022   28.1440 O   0  0  0  0  0  0  0  0  0  0  0  0
    6.6783  -11.8849   26.9387 C   0  0  0  0  0  0  0  0  0  0  0  0
    5.8736  -12.9889   26.7473 C   0  0  0  0  0  0  0  0  0  0  0  0
    5.9288  -13.7056   25.5513 C   0  0  0  0  0  0  0  0  0  0  0  0
    6.7771  -13.3436   24.5300 C   0  0  0  0  0  0  0  0  0  0  0  0
    6.8460  -14.0807   23.2794 C   0  0  0  0  0  0  0  0  0  0  0  0
    7.9572  -15.0859   23.2227 C   0  0  2  0  0  0  0  0  0  0  0  0
    7.9256  -15.8020   21.9524 N   0  0  0  0  0  0  0  0  0  0  0  0
    7.9569  -16.0088   24.3677 C   0  0  0  0  0  0  0  0  0  0  0  0
    6.9864  -16.8013   24.5112 O   0  0  0  0  0  0  0  0  0  0  0  0
    7.5770  -12.2249   24.7528 C   0  0  0  0  0  0  0  0  0  0  0  0
    7.5244  -11.5198   25.9261 C   0  0  0  0  0  0  0  0  0  0  0  0
    8.9985  -16.0528   25.3237 N   0  0  0  0  0  0  0  0  0  0  0  0
    8.9499  -17.0326   26.3938 C   0  0  1  0  0  0  0  0  0  0  0  0
    8.8282  -18.4039   25.7801 C   0  0  0  0  0  0  0  0  0  0  0  0
    7.8578  -19.2763   26.4408 C   0  0  0  0  0  0  0  0  0  0  0  0
    7.1214  -18.8868   27.5473 C   0  0  0  0  0  0  0  0  0  0  0  0
    6.3169  -19.8925   27.9324 N   0  0  0  0  0  0  0  0  0  0  0  0
    6.5371  -20.9040   27.0862 C   0  0  0  0  0  0  0  0  0  0  0  0
    7.4610  -20.5378   26.1901 N   0  0  0  0  0  0  0  0  0  0  0  0
   10.2168  -16.8869   27.1524 C   0  0  0  0  0  0  0  0  0  0  0  0
   10.3789  -17.5910   28.1856 O   0  0  0  0  0  0  0  0  0  0  0  0
   11.2435  -16.0285   26.8076 O   0  0  0  0  0  0  0  0  0  0  0  0
  1  2  1  0
  2  3  1  0
  3  4  1  1
  5  3  1  0
  5  6  2  0
  7  8  1  0
  8  9  2  0
  9 10  1  0
 11 10  2  0
 11 12  1  0
 13 12  1  1
 13 14  1  0
 14  5  1  0
 15 13  1  0
 16 15  2  0
 17 11  1  0
 18  8  1  0
 18 17  2  0
 19 15  1  0
 20 21  1  6
 20 19  1  0
 21 22  1  0
 22 26  1  0
 23 22  2  0
 23 24  1  0
 24 25  1  0
 26 25  2  0
 27 29  1  0
 27 20  1  0
 28 27  2  0
M  END
$$$$
