SYH.pdb
     RDKit          3D

 29 30  0  0  1  0  0  0  0  0999 V2000
    7.9684  -16.6816   18.9268 O   0  0  0  0  0  0  0  0  0  0  0  0
    8.2904  -15.5933   18.0912 C   0  0  0  0  0  0  0  0  0  0  0  0
    7.6060  -14.3861   18.6796 C   0  0  2  0  0  0  0  0  0  0  0  0
    7.9668  -13.2442   17.8659 N   0  0  0  0  0  0  0  0  0  0  0  0
    7.9652  -14.1204   20.0667 C   0  0  0  0  0  0  0  0  0  0  0  0
    9.0723  -13.5906   20.3232 O   0  0  0  0  0  0  0  0  0  0  0  0
    7.6881  -12.8973   28.8429 O   0  0  0  0  0  0  0  0  0  0  0  0
    7.3640  -13.1271   27.5129 C   0  0  0  0  0  0  0  0  0  0  0  0
    7.6292  -12.1364   26.5902 C   0  0  0  0  0  0  0  0  0  0  0  0
    7.3201  -12.3239   25.2425 C   0  0  0  0  0  0  0  0  0  0  0  0
    6.7463  -13.4890   24.7877 C   0  0  0  0  0  0  0  0  0  0  0  0
    6.4183  -13.6982   23.3874 C   0  0  0  0  0  0  0  0  0  0  0  0
    7.5649  -14.1944   22.5584 C   0  0  2  0  0  0  0  0  0  0  0  0
    7.1321  -14.4247   21.1847 N   0  0  0  0  0  0  0  0  0  0  0  0
    8.2160  -15.3827   23.1300 C   0  0  0  0  0  0  0  0  0  0  0  0
    7.6370  -16.4992   23.0361 O   0  0  0  0  0  0  0  0  0  0  0  0
    6.4906  -14.4706   25.7427 C   0  0  0  0  0  0  0  0  0  0  0  0
    6.7932  -14.2886   27.0663 C   0  0  0  0  0  0  0  0  0  0  0  0
    9.4689  -15.3362   23.7851 N   0  0  0  0  0  0  0  0  0  0  0  0
   10.0438  -16.5562   24.3223 C   0  0  1  0  0  0  0  0  0  0  0  0
   11.5285  -16.5384   24.0636 C   0  0  0  0  0  0  0  0  0  0  0  0
   11.9147  -17.0109   22.7343 C   0  0  0  0  0  0  0  0  0  0  0  0
   10.9991  -17.4503   21.7925 C   0  0  0  0  0  0  0  0  0  0  0  0
   11.6439  -17.8202   20.6726 N   0  0  0  0  0  0  0  0  0  0  0  0
   12.9466  -17.6199   20.8973 C   0  0  0  0  0  0  0  0  0  0  0  0
   13.1126  -17.1344   22.1332 N   0  0  0  0  0  0  0  0  0  0  0  0
    9.7450  -16.5547   25.7758 C   0  0  0  0  0  0  0  0  0  0  0  0
    9.2704  -15.5046   26.2871 O   0  0  0  0  0  0  0  0  0  0  0  0
    9.9496  -17.6296   26.6200 O   0  0  0  0  0  0  0  0  0  0  0  0
  1  2  1  0
  2  3  1  0
  3  4  1  6
  5  3  1  0
  5  6  2  0
  7  8  1  0
  8  9  2  0
  9 10  1  0
 11 10  2  0
 11 12  1  0
 13 12  1  1
 13 14  1  0
 14  5  1  0
 15 13  1  0
 16 15  2  0
 17 11  1  0
 18  8  1  0
 18 17  2  0
 19 15  1  0
 20 21  1  1
 20 19  1  0
 21 22  1  0
 22 26  1  0
 23 22  2  0
 23 24  1  0
 24 25  1  0
 26 25  2  0
 27 29  1  0
 27 20  1  0
 28 27  2  0
M  END
$$$$
