SYH.pdb
     RDKit          3D

 29 30  0  0  1  0  0  0  0  0999 V2000
    7.4153  -19.3355   20.9295 O   0  0  0  0  0  0  0  0  0  0  0  0
    7.0476  -18.3806   19.9604 C   0  0  0  0  0  0  0  0  0  0  0  0
    8.1061  -17.3081   19.9947 C   0  0  2  0  0  0  0  0  0  0  0  0
    9.3507  -17.9142   19.5703 N   0  0  0  0  0  0  0  0  0  0  0  0
    8.2902  -16.7008   21.3065 C   0  0  0  0  0  0  0  0  0  0  0  0
    9.2187  -17.1058   22.0454 O   0  0  0  0  0  0  0  0  0  0  0  0
    7.1607  -11.5288   28.4669 O   0  0  0  0  0  0  0  0  0  0  0  0
    7.1592  -12.0645   27.1863 C   0  0  0  0  0  0  0  0  0  0  0  0
    6.0015  -12.6525   26.7203 C   0  0  0  0  0  0  0  0  0  0  0  0
    5.9544  -13.2038   25.4393 C   0  0  0  0  0  0  0  0  0  0  0  0
    7.0466  -13.1826   24.6024 C   0  0  0  0  0  0  0  0  0  0  0  0
    7.0125  -13.7534   23.2663 C   0  0  0  0  0  0  0  0  0  0  0  0
    7.6995  -15.0811   23.1511 C   0  0  2  0  0  0  0  0  0  0  0  0
    7.4736  -15.6532   21.8285 N   0  0  0  0  0  0  0  0  0  0  0  0
    7.3234  -16.0181   24.2204 C   0  0  0  0  0  0  0  0  0  0  0  0
    6.2305  -16.6406   24.1285 O   0  0  0  0  0  0  0  0  0  0  0  0
    8.2007  -12.5822   25.1010 C   0  0  0  0  0  0  0  0  0  0  0  0
    8.2492  -12.0403   26.3582 C   0  0  0  0  0  0  0  0  0  0  0  0
    8.1322  -16.2581   25.3559 N   0  0  0  0  0  0  0  0  0  0  0  0
    7.7982  -17.3450   26.2584 C   0  0  1  0  0  0  0  0  0  0  0  0
    7.6157  -18.6011   25.4456 C   0  0  0  0  0  0  0  0  0  0  0  0
    7.3933  -19.8077   26.2420 C   0  0  0  0  0  0  0  0  0  0  0  0
    7.3022  -19.7953   27.6240 C   0  0  0  0  0  0  0  0  0  0  0  0
    7.0969  -21.0448   28.0753 N   0  0  0  0  0  0  0  0  0  0  0  0
    7.0579  -21.8383   26.9999 C   0  0  0  0  0  0  0  0  0  0  0  0
    7.2354  -21.0994   25.8984 N   0  0  0  0  0  0  0  0  0  0  0  0
    8.9357  -17.4690   27.2031 C   0  0  0  0  0  0  0  0  0  0  0  0
   10.0710  -17.0700   26.8269 O   0  0  0  0  0  0  0  0  0  0  0  0
    8.8432  -17.9941   28.4781 O   0  0  0  0  0  0  0  0  0  0  0  0
  1  2  1  0
  2  3  1  0
  3  4  1  1
  5  3  1  0
  5  6  2  0
  7  8  1  0
  8  9  2  0
  9 10  1  0
 11 10  2  0
 11 12  1  0
 13 12  1  6
 13 14  1  0
 14  5  1  0
 15 13  1  0
 16 15  2  0
 17 11  1  0
 18  8  1  0
 18 17  2  0
 19 15  1  0
 20 21  1  6
 20 19  1  0
 21 22  1  0
 22 26  1  0
 23 22  2  0
 23 24  1  0
 24 25  1  0
 26 25  2  0
 27 29  1  0
 27 20  1  0
 28 27  2  0
M  END
$$$$
