SYH.pdb
     RDKit          3D

 29 30  0  0  1  0  0  0  0  0999 V2000
    8.3717  -20.5325   19.1475 O   0  0  0  0  0  0  0  0  0  0  0  0
    9.6071  -19.9859   18.7456 C   0  0  0  0  0  0  0  0  0  0  0  0
    9.3627  -18.5207   18.4898 C   0  0  2  0  0  0  0  0  0  0  0  0
    9.9501  -18.2015   17.2055 N   0  0  0  0  0  0  0  0  0  0  0  0
    9.9243  -17.6412   19.5070 C   0  0  0  0  0  0  0  0  0  0  0  0
   11.0669  -17.1548   19.3346 O   0  0  0  0  0  0  0  0  0  0  0  0
    7.1852  -11.8022   18.2724 O   0  0  0  0  0  0  0  0  0  0  0  0
    7.5850  -12.7068   19.2463 C   0  0  0  0  0  0  0  0  0  0  0  0
    8.8636  -12.6048   19.7542 C   0  0  0  0  0  0  0  0  0  0  0  0
    9.3081  -13.4927   20.7345 C   0  0  0  0  0  0  0  0  0  0  0  0
    8.4990  -14.4914   21.2261 C   0  0  0  0  0  0  0  0  0  0  0  0
    8.9485  -15.4237   22.2463 C   0  0  0  0  0  0  0  0  0  0  0  0
    9.8980  -16.4693   21.7431 C   0  0  2  0  0  0  0  0  0  0  0  0
    9.2562  -17.2817   20.7157 N   0  0  0  0  0  0  0  0  0  0  0  0
   10.4627  -17.2987   22.8184 C   0  0  0  0  0  0  0  0  0  0  0  0
    9.7085  -18.1091   23.4227 O   0  0  0  0  0  0  0  0  0  0  0  0
    7.2138  -14.5691   20.6939 C   0  0  0  0  0  0  0  0  0  0  0  0
    6.7753  -13.6985   19.7315 C   0  0  0  0  0  0  0  0  0  0  0  0
   11.8197  -17.2329   23.2121 N   0  0  0  0  0  0  0  0  0  0  0  0
   12.3032  -18.1014   24.2702 C   0  0  1  0  0  0  0  0  0  0  0  0
   13.6339  -18.6707   23.8497 C   0  0  0  0  0  0  0  0  0  0  0  0
   13.5466  -19.7263   22.8411 C   0  0  0  0  0  0  0  0  0  0  0  0
   12.3430  -20.2153   22.3605 C   0  0  0  0  0  0  0  0  0  0  0  0
   12.5762  -21.1742   21.4478 N   0  0  0  0  0  0  0  0  0  0  0  0
   13.9042  -21.2935   21.3490 C   0  0  0  0  0  0  0  0  0  0  0  0
   14.4895  -20.4264   22.1835 N   0  0  0  0  0  0  0  0  0  0  0  0
   12.4326  -17.2535   25.4810 C   0  0  0  0  0  0  0  0  0  0  0  0
   12.6687  -16.0245   25.3274 O   0  0  0  0  0  0  0  0  0  0  0  0
   12.3118  -17.7144   26.7783 O   0  0  0  0  0  0  0  0  0  0  0  0
  1  2  1  0
  2  3  1  0
  3  4  1  6
  5  3  1  0
  5  6  2  0
  7  8  1  0
  8  9  2  0
  9 10  1  0
 11 10  2  0
 11 12  1  0
 13 12  1  1
 13 14  1  0
 14  5  1  0
 15 13  1  0
 16 15  2  0
 17 11  1  0
 18  8  1  0
 18 17  2  0
 19 15  1  0
 20 21  1  6
 20 19  1  0
 21 22  1  0
 22 26  1  0
 23 22  2  0
 23 24  1  0
 24 25  1  0
 26 25  2  0
 27 29  1  0
 27 20  1  0
 28 27  2  0
M  END
$$$$
