SYH.pdb
     RDKit          3D

 29 30  0  0  1  0  0  0  0  0999 V2000
    9.1774  -20.5733   19.8580 O   0  0  0  0  0  0  0  0  0  0  0  0
    7.9577  -19.9103   19.6149 C   0  0  0  0  0  0  0  0  0  0  0  0
    8.3125  -18.5258   19.1362 C   0  0  2  0  0  0  0  0  0  0  0  0
    9.1064  -18.6732   17.9344 N   0  0  0  0  0  0  0  0  0  0  0  0
    9.0561  -17.7362   20.1094 C   0  0  0  0  0  0  0  0  0  0  0  0
   10.2885  -17.5690   19.9509 O   0  0  0  0  0  0  0  0  0  0  0  0
    7.5418  -11.6223   18.2700 O   0  0  0  0  0  0  0  0  0  0  0  0
    7.8272  -12.4657   19.3350 C   0  0  0  0  0  0  0  0  0  0  0  0
    6.8180  -13.2658   19.8294 C   0  0  0  0  0  0  0  0  0  0  0  0
    7.0596  -14.1289   20.8989 C   0  0  0  0  0  0  0  0  0  0  0  0
    8.2975  -14.2141   21.4939 C   0  0  0  0  0  0  0  0  0  0  0  0
    8.5635  -15.1077   22.6087 C   0  0  0  0  0  0  0  0  0  0  0  0
    9.2710  -16.3723   22.2232 C   0  0  2  0  0  0  0  0  0  0  0  0
    8.4742  -17.1226   21.2590 N   0  0  0  0  0  0  0  0  0  0  0  0
    9.6438  -17.1987   23.3811 C   0  0  0  0  0  0  0  0  0  0  0  0
    8.7528  -17.8845   23.9524 O   0  0  0  0  0  0  0  0  0  0  0  0
    9.2959  -13.3941   20.9727 C   0  0  0  0  0  0  0  0  0  0  0  0
    9.0610  -12.5461   19.9228 C   0  0  0  0  0  0  0  0  0  0  0  0
   10.9619  -17.2636   23.8906 N   0  0  0  0  0  0  0  0  0  0  0  0
   11.2464  -18.1022   25.0409 C   0  0  1  0  0  0  0  0  0  0  0  0
   12.3196  -19.0889   24.6585 C   0  0  0  0  0  0  0  0  0  0  0  0
   11.8662  -20.1588   23.7701 C   0  0  0  0  0  0  0  0  0  0  0  0
   10.5290  -20.4586   23.5686 C   0  0  0  0  0  0  0  0  0  0  0  0
   10.4200  -21.4830   22.7051 N   0  0  0  0  0  0  0  0  0  0  0  0
   11.6653  -21.8291   22.3630 C   0  0  0  0  0  0  0  0  0  0  0  0
   12.5354  -21.0368   23.0000 N   0  0  0  0  0  0  0  0  0  0  0  0
   11.7042  -17.1916   26.1194 C   0  0  0  0  0  0  0  0  0  0  0  0
   11.8554  -15.9701   25.8460 O   0  0  0  0  0  0  0  0  0  0  0  0
   11.9798  -17.5860   27.4149 O   0  0  0  0  0  0  0  0  0  0  0  0
  1  2  1  0
  2  3  1  0
  3  4  1  6
  5  3  1  0
  5  6  2  0
  7  8  1  0
  8  9  2  0
  9 10  1  0
 11 10  2  0
 11 12  1  0
 13 12  1  1
 13 14  1  0
 14  5  1  0
 15 13  1  0
 16 15  2  0
 17 11  1  0
 18  8  1  0
 18 17  2  0
 19 15  1  0
 20 21  1  6
 20 19  1  0
 21 22  1  0
 22 26  1  0
 23 22  2  0
 23 24  1  0
 24 25  1  0
 26 25  2  0
 27 29  1  0
 27 20  1  0
 28 27  2  0
M  END
$$$$
