SYH.pdb
     RDKit          3D

 29 30  0  0  1  0  0  0  0  0999 V2000
    9.8089  -19.1327   20.3859 O   0  0  0  0  0  0  0  0  0  0  0  0
    9.0039  -18.1961   19.7069 C   0  0  0  0  0  0  0  0  0  0  0  0
    9.7264  -16.8756   19.7857 C   0  0  2  0  0  0  0  0  0  0  0  0
   11.1093  -17.1167   19.4312 N   0  0  0  0  0  0  0  0  0  0  0  0
    9.6695  -16.2480   21.0996 C   0  0  0  0  0  0  0  0  0  0  0  0
   10.7049  -16.2074   21.8056 O   0  0  0  0  0  0  0  0  0  0  0  0
    7.0488  -11.4051   28.0668 O   0  0  0  0  0  0  0  0  0  0  0  0
    7.1198  -12.0700   26.8504 C   0  0  0  0  0  0  0  0  0  0  0  0
    6.4186  -13.2488   26.7029 C   0  0  0  0  0  0  0  0  0  0  0  0
    6.4610  -13.9509   25.4978 C   0  0  0  0  0  0  0  0  0  0  0  0
    7.1941  -13.5004   24.4239 C   0  0  0  0  0  0  0  0  0  0  0  0
    7.2482  -14.2212   23.1631 C   0  0  0  0  0  0  0  0  0  0  0  0
    8.4963  -15.0305   22.9746 C   0  0  2  0  0  0  0  0  0  0  0  0
    8.4954  -15.6607   21.6592 N   0  0  0  0  0  0  0  0  0  0  0  0
    8.7128  -16.0122   24.0480 C   0  0  0  0  0  0  0  0  0  0  0  0
    7.9607  -17.0228   24.1102 O   0  0  0  0  0  0  0  0  0  0  0  0
    7.8912  -12.3075   24.6032 C   0  0  0  0  0  0  0  0  0  0  0  0
    7.8511  -11.6167   25.7854 C   0  0  0  0  0  0  0  0  0  0  0  0
    9.7300  -15.8792   25.0219 N   0  0  0  0  0  0  0  0  0  0  0  0
    9.9460  -16.9442   25.9845 C   0  0  1  0  0  0  0  0  0  0  0  0
   11.3914  -17.3655   25.9138 C   0  0  0  0  0  0  0  0  0  0  0  0
   11.7000  -18.2797   24.8145 C   0  0  0  0  0  0  0  0  0  0  0  0
   10.7424  -18.7513   23.9318 C   0  0  0  0  0  0  0  0  0  0  0  0
   11.3184  -19.5688   23.0335 N   0  0  0  0  0  0  0  0  0  0  0  0
   12.6192  -19.6166   23.3388 C   0  0  0  0  0  0  0  0  0  0  0  0
   12.8516  -18.8445   24.4067 N   0  0  0  0  0  0  0  0  0  0  0  0
    9.6083  -16.3805   27.3149 C   0  0  0  0  0  0  0  0  0  0  0  0
    9.4682  -15.1316   27.4166 O   0  0  0  0  0  0  0  0  0  0  0  0
    9.4335  -17.1295   28.4630 O   0  0  0  0  0  0  0  0  0  0  0  0
  1  2  1  0
  2  3  1  0
  3  4  1  1
  5  3  1  0
  5  6  2  0
  7  8  1  0
  8  9  2  0
  9 10  1  0
 11 10  2  0
 11 12  1  0
 13 12  1  1
 13 14  1  0
 14  5  1  0
 15 13  1  0
 16 15  2  0
 17 11  1  0
 18  8  1  0
 18 17  2  0
 19 15  1  0
 20 21  1  1
 20 19  1  0
 21 22  1  0
 22 26  1  0
 23 22  2  0
 23 24  1  0
 24 25  1  0
 26 25  2  0
 27 29  1  0
 27 20  1  0
 28 27  2  0
M  END
$$$$
