SYH.pdb
     RDKit          3D

 29 30  0  0  1  0  0  0  0  0999 V2000
    8.3729  -18.6003   19.8297 O   0  0  0  0  0  0  0  0  0  0  0  0
    7.7621  -17.5279   19.1492 C   0  0  0  0  0  0  0  0  0  0  0  0
    8.6973  -16.3527   19.2775 C   0  0  2  0  0  0  0  0  0  0  0  0
    9.9894  -16.7707   18.7753 N   0  0  0  0  0  0  0  0  0  0  0  0
    8.8476  -15.8629   20.6417 C   0  0  0  0  0  0  0  0  0  0  0  0
    9.8803  -16.1569   21.2890 O   0  0  0  0  0  0  0  0  0  0  0  0
    7.4193  -11.7402   28.3919 O   0  0  0  0  0  0  0  0  0  0  0  0
    7.3404  -12.1933   27.0823 C   0  0  0  0  0  0  0  0  0  0  0  0
    6.3320  -13.0742   26.7503 C   0  0  0  0  0  0  0  0  0  0  0  0
    6.2144  -13.5556   25.4459 C   0  0  0  0  0  0  0  0  0  0  0  0
    7.0884  -13.1753   24.4533 C   0  0  0  0  0  0  0  0  0  0  0  0
    6.9787  -13.6690   23.0908 C   0  0  0  0  0  0  0  0  0  0  0  0
    8.0604  -14.6310   22.7002 C   0  0  2  0  0  0  0  0  0  0  0  0
    7.8845  -15.0532   21.3152 N   0  0  0  0  0  0  0  0  0  0  0  0
    8.1633  -15.7814   23.6107 C   0  0  0  0  0  0  0  0  0  0  0  0
    7.3342  -16.7248   23.4965 O   0  0  0  0  0  0  0  0  0  0  0  0
    8.0958  -12.2851   24.8190 C   0  0  0  0  0  0  0  0  0  0  0  0
    8.2130  -11.8113   26.0989 C   0  0  0  0  0  0  0  0  0  0  0  0
    9.1532  -15.8838   24.6159 N   0  0  0  0  0  0  0  0  0  0  0  0
    9.2237  -17.0805   25.4347 C   0  0  1  0  0  0  0  0  0  0  0  0
   10.3315  -17.9555   24.9068 C   0  0  0  0  0  0  0  0  0  0  0  0
   10.6949  -19.0654   25.7874 C   0  0  0  0  0  0  0  0  0  0  0  0
   10.5804  -19.0053   27.1664 C   0  0  0  0  0  0  0  0  0  0  0  0
   10.9864  -20.1678   27.7054 N   0  0  0  0  0  0  0  0  0  0  0  0
   11.3528  -20.9539   26.6879 C   0  0  0  0  0  0  0  0  0  0  0  0
   11.1793  -20.2957   25.5357 N   0  0  0  0  0  0  0  0  0  0  0  0
    9.5035  -16.6245   26.8188 C   0  0  0  0  0  0  0  0  0  0  0  0
    8.9568  -17.2411   27.7730 O   0  0  0  0  0  0  0  0  0  0  0  0
   10.3276  -15.5638   27.1440 O   0  0  0  0  0  0  0  0  0  0  0  0
  1  2  1  0
  2  3  1  0
  3  4  1  1
  5  3  1  0
  5  6  2  0
  7  8  1  0
  8  9  2  0
  9 10  1  0
 11 10  2  0
 11 12  1  0
 13 12  1  1
 13 14  1  0
 14  5  1  0
 15 13  1  0
 16 15  2  0
 17 11  1  0
 18  8  1  0
 18 17  2  0
 19 15  1  0
 20 21  1  6
 20 19  1  0
 21 22  1  0
 22 26  1  0
 23 22  2  0
 23 24  1  0
 24 25  1  0
 26 25  2  0
 27 29  1  0
 27 20  1  0
 28 27  2  0
M  END
$$$$
