SYH.pdb
     RDKit          3D

 29 30  0  0  1  0  0  0  0  0999 V2000
    8.5409  -18.5887   20.0369 O   0  0  0  0  0  0  0  0  0  0  0  0
    7.9877  -17.7009   19.0924 C   0  0  0  0  0  0  0  0  0  0  0  0
    8.7665  -16.4155   19.2075 C   0  0  2  0  0  0  0  0  0  0  0  0
   10.0868  -16.6590   18.6653 N   0  0  0  0  0  0  0  0  0  0  0  0
    8.8914  -15.9200   20.5722 C   0  0  0  0  0  0  0  0  0  0  0  0
    9.9411  -16.1544   21.2165 O   0  0  0  0  0  0  0  0  0  0  0  0
    7.1461  -12.0318   28.3829 O   0  0  0  0  0  0  0  0  0  0  0  0
    7.1412  -12.4132   27.0483 C   0  0  0  0  0  0  0  0  0  0  0  0
    6.3327  -13.4640   26.6671 C   0  0  0  0  0  0  0  0  0  0  0  0
    6.2960  -13.8816   25.3362 C   0  0  0  0  0  0  0  0  0  0  0  0
    7.0550  -13.2694   24.3652 C   0  0  0  0  0  0  0  0  0  0  0  0
    7.0276  -13.6938   22.9755 C   0  0  0  0  0  0  0  0  0  0  0  0
    8.0295  -14.7581   22.6415 C   0  0  2  0  0  0  0  0  0  0  0  0
    7.8844  -15.1689   21.2495 N   0  0  0  0  0  0  0  0  0  0  0  0
    7.9739  -15.9080   23.5566 C   0  0  0  0  0  0  0  0  0  0  0  0
    7.2780  -16.9095   23.2350 O   0  0  0  0  0  0  0  0  0  0  0  0
    7.8611  -12.2117   24.7805 C   0  0  0  0  0  0  0  0  0  0  0  0
    7.8986  -11.8001   26.0866 C   0  0  0  0  0  0  0  0  0  0  0  0
    8.6670  -15.9477   24.7891 N   0  0  0  0  0  0  0  0  0  0  0  0
    9.3360  -17.1696   25.1974 C   0  0  1  0  0  0  0  0  0  0  0  0
   10.3430  -17.5391   24.1385 C   0  0  0  0  0  0  0  0  0  0  0  0
   11.2011  -18.6701   24.4908 C   0  0  0  0  0  0  0  0  0  0  0  0
   11.1115  -19.3392   25.7002 C   0  0  0  0  0  0  0  0  0  0  0  0
   12.0217  -20.3276   25.7390 N   0  0  0  0  0  0  0  0  0  0  0  0
   12.6789  -20.2884   24.5753 C   0  0  0  0  0  0  0  0  0  0  0  0
   12.1892  -19.2952   23.8241 N   0  0  0  0  0  0  0  0  0  0  0  0
    9.9941  -16.8731   26.4939 C   0  0  0  0  0  0  0  0  0  0  0  0
   10.4158  -15.7022   26.6959 O   0  0  0  0  0  0  0  0  0  0  0  0
   10.1811  -17.7937   27.5076 O   0  0  0  0  0  0  0  0  0  0  0  0
  1  2  1  0
  2  3  1  0
  3  4  1  1
  5  3  1  0
  5  6  2  0
  7  8  1  0
  8  9  2  0
  9 10  1  0
 11 10  2  0
 11 12  1  0
 13 12  1  1
 13 14  1  0
 14  5  1  0
 15 13  1  0
 16 15  2  0
 17 11  1  0
 18  8  1  0
 18 17  2  0
 19 15  1  0
 20 21  1  6
 20 19  1  0
 21 22  1  0
 22 26  1  0
 23 22  2  0
 23 24  1  0
 24 25  1  0
 26 25  2  0
 27 29  1  0
 27 20  1  0
 28 27  2  0
M  END
$$$$
