SYH.pdb
     RDKit          3D

 29 30  0  0  1  0  0  0  0  0999 V2000
    6.5220  -16.1968   19.2897 O   0  0  0  0  0  0  0  0  0  0  0  0
    7.6564  -15.3780   19.1195 C   0  0  0  0  0  0  0  0  0  0  0  0
    7.4182  -14.1410   19.9472 C   0  0  2  0  0  0  0  0  0  0  0  0
    7.8126  -13.0013   19.1460 N   0  0  0  0  0  0  0  0  0  0  0  0
    8.1529  -14.1210   21.2055 C   0  0  0  0  0  0  0  0  0  0  0  0
    9.3656  -13.8028   21.2031 O   0  0  0  0  0  0  0  0  0  0  0  0
   10.2778  -14.6283   29.8192 O   0  0  0  0  0  0  0  0  0  0  0  0
    9.6254  -14.4667   28.6046 C   0  0  0  0  0  0  0  0  0  0  0  0
    8.9190  -15.5341   28.0899 C   0  0  0  0  0  0  0  0  0  0  0  0
    8.2480  -15.4168   26.8721 C   0  0  0  0  0  0  0  0  0  0  0  0
    8.2647  -14.2473   26.1471 C   0  0  0  0  0  0  0  0  0  0  0  0
    7.5712  -14.1108   24.8772 C   0  0  0  0  0  0  0  0  0  0  0  0
    8.3879  -14.5185   23.6877 C   0  0  2  0  0  0  0  0  0  0  0  0
    7.5832  -14.4443   22.4734 N   0  0  0  0  0  0  0  0  0  0  0  0
    9.0140  -15.8398   23.8455 C   0  0  0  0  0  0  0  0  0  0  0  0
    8.2813  -16.8663   23.8360 O   0  0  0  0  0  0  0  0  0  0  0  0
    8.9862  -13.1876   26.6924 C   0  0  0  0  0  0  0  0  0  0  0  0
    9.6457  -13.3005   27.8878 C   0  0  0  0  0  0  0  0  0  0  0  0
   10.4077  -16.0190   24.0085 N   0  0  0  0  0  0  0  0  0  0  0  0
   10.9557  -17.3615   24.0776 C   0  0  1  0  0  0  0  0  0  0  0  0
   12.1820  -17.4220   23.2034 C   0  0  0  0  0  0  0  0  0  0  0  0
   11.8981  -17.4834   21.7698 C   0  0  0  0  0  0  0  0  0  0  0  0
   10.6209  -17.6422   21.2580 C   0  0  0  0  0  0  0  0  0  0  0  0
   10.6709  -17.6628   19.9149 N   0  0  0  0  0  0  0  0  0  0  0  0
   11.9568  -17.5199   19.5777 C   0  0  0  0  0  0  0  0  0  0  0  0
   12.6958  -17.4119   20.6881 N   0  0  0  0  0  0  0  0  0  0  0  0
   11.2912  -17.6036   25.5026 C   0  0  0  0  0  0  0  0  0  0  0  0
   11.8620  -18.6860   25.8064 O   0  0  0  0  0  0  0  0  0  0  0  0
   11.0228  -16.7222   26.5326 O   0  0  0  0  0  0  0  0  0  0  0  0
  1  2  1  0
  2  3  1  0
  3  4  1  6
  5  3  1  0
  5  6  2  0
  7  8  1  0
  8  9  2  0
  9 10  1  0
 11 10  2  0
 11 12  1  0
 13 12  1  1
 13 14  1  0
 14  5  1  0
 15 13  1  0
 16 15  2  0
 17 11  1  0
 18  8  1  0
 18 17  2  0
 19 15  1  0
 20 21  1  6
 20 19  1  0
 21 22  1  0
 22 26  1  0
 23 22  2  0
 23 24  1  0
 24 25  1  0
 26 25  2  0
 27 29  1  0
 27 20  1  0
 28 27  2  0
M  END
$$$$
