SYH.pdb
     RDKit          3D

 29 30  0  0  1  0  0  0  0  0999 V2000
    9.6572  -19.2141   20.4478 O   0  0  0  0  0  0  0  0  0  0  0  0
    8.6057  -18.6470   19.7002 C   0  0  0  0  0  0  0  0  0  0  0  0
    8.9577  -17.1948   19.5021 C   0  0  2  0  0  0  0  0  0  0  0  0
   10.1971  -17.1475   18.7550 N   0  0  0  0  0  0  0  0  0  0  0  0
    9.1169  -16.4502   20.7446 C   0  0  0  0  0  0  0  0  0  0  0  0
   10.2702  -16.2273   21.1830 O   0  0  0  0  0  0  0  0  0  0  0  0
    7.3742  -11.6501   28.0342 O   0  0  0  0  0  0  0  0  0  0  0  0
    7.2680  -12.3480   26.8390 C   0  0  0  0  0  0  0  0  0  0  0  0
    7.9378  -11.8659   25.7336 C   0  0  0  0  0  0  0  0  0  0  0  0
    7.8594  -12.5351   24.5117 C   0  0  0  0  0  0  0  0  0  0  0  0
    7.1206  -13.6866   24.3640 C   0  0  0  0  0  0  0  0  0  0  0  0
    7.0292  -14.3938   23.0977 C   0  0  0  0  0  0  0  0  0  0  0  0
    8.2473  -15.1994   22.7580 C   0  0  2  0  0  0  0  0  0  0  0  0
    8.0327  -15.9419   21.5210 N   0  0  0  0  0  0  0  0  0  0  0  0
    8.6779  -16.0808   23.8538 C   0  0  0  0  0  0  0  0  0  0  0  0
    8.0112  -17.1241   24.0943 O   0  0  0  0  0  0  0  0  0  0  0  0
    6.4557  -14.1488   25.4978 C   0  0  0  0  0  0  0  0  0  0  0  0
    6.5313  -13.4934   26.6983 C   0  0  0  0  0  0  0  0  0  0  0  0
    9.8110  -15.8154   24.6578 N   0  0  0  0  0  0  0  0  0  0  0  0
   10.2068  -16.7695   25.6779 C   0  0  1  0  0  0  0  0  0  0  0  0
   11.7083  -16.8985   25.6538 C   0  0  0  0  0  0  0  0  0  0  0  0
   12.2237  -17.7456   24.5786 C   0  0  0  0  0  0  0  0  0  0  0  0
   11.5987  -17.8703   23.3488 C   0  0  0  0  0  0  0  0  0  0  0  0
   12.2989  -18.7118   22.5686 N   0  0  0  0  0  0  0  0  0  0  0  0
   13.3507  -19.1154   23.2887 C   0  0  0  0  0  0  0  0  0  0  0  0
   13.3086  -18.5377   24.4951 N   0  0  0  0  0  0  0  0  0  0  0  0
    9.7287  -16.2215   26.9713 C   0  0  0  0  0  0  0  0  0  0  0  0
    9.4090  -15.0030   27.0224 O   0  0  0  0  0  0  0  0  0  0  0  0
    9.6058  -16.9544   28.1365 O   0  0  0  0  0  0  0  0  0  0  0  0
  1  2  1  0
  2  3  1  0
  3  4  1  1
  5  3  1  0
  5  6  2  0
  7  8  1  0
  8  9  2  0
  9 10  1  0
 11 10  2  0
 11 12  1  0
 13 12  1  1
 13 14  1  0
 14  5  1  0
 15 13  1  0
 16 15  2  0
 17 11  1  0
 18  8  1  0
 18 17  2  0
 19 15  1  0
 20 21  1  1
 20 19  1  0
 21 22  1  0
 22 26  1  0
 23 22  2  0
 23 24  1  0
 24 25  1  0
 26 25  2  0
 27 29  1  0
 27 20  1  0
 28 27  2  0
M  END
$$$$
