SYH.pdb
     RDKit          3D

 29 30  0  0  1  0  0  0  0  0999 V2000
    7.7242  -18.4089   18.2275 O   0  0  0  0  0  0  0  0  0  0  0  0
    8.5682  -18.2190   19.3401 C   0  0  0  0  0  0  0  0  0  0  0  0
    9.0711  -16.8005   19.2573 C   0  0  2  0  0  0  0  0  0  0  0  0
   10.3719  -16.8385   18.6226 N   0  0  0  0  0  0  0  0  0  0  0  0
    9.1863  -16.1376   20.5499 C   0  0  0  0  0  0  0  0  0  0  0  0
   10.2396  -16.2718   21.2166 O   0  0  0  0  0  0  0  0  0  0  0  0
    7.0754  -11.8687   28.0697 O   0  0  0  0  0  0  0  0  0  0  0  0
    7.0568  -12.3989   26.7869 C   0  0  0  0  0  0  0  0  0  0  0  0
    7.8401  -11.8060   25.8184 C   0  0  0  0  0  0  0  0  0  0  0  0
    7.8526  -12.3053   24.5155 C   0  0  0  0  0  0  0  0  0  0  0  0
    7.0941  -13.3941   24.1511 C   0  0  0  0  0  0  0  0  0  0  0  0
    7.0965  -13.9246   22.7981 C   0  0  0  0  0  0  0  0  0  0  0  0
    8.2689  -14.8068   22.4895 C   0  0  2  0  0  0  0  0  0  0  0  0
    8.1658  -15.3264   21.1304 N   0  0  0  0  0  0  0  0  0  0  0  0
    8.4513  -15.8858   23.4719 C   0  0  0  0  0  0  0  0  0  0  0  0
    7.7027  -16.8990   23.4101 O   0  0  0  0  0  0  0  0  0  0  0  0
    6.3137  -13.9711   25.1507 C   0  0  0  0  0  0  0  0  0  0  0  0
    6.2999  -13.4826   26.4304 C   0  0  0  0  0  0  0  0  0  0  0  0
    9.4317  -15.8443   24.4908 N   0  0  0  0  0  0  0  0  0  0  0  0
    9.5743  -16.9702   25.3961 C   0  0  1  0  0  0  0  0  0  0  0  0
   10.6186  -17.9024   24.8374 C   0  0  0  0  0  0  0  0  0  0  0  0
   10.9042  -19.0629   25.6807 C   0  0  0  0  0  0  0  0  0  0  0  0
   10.2560  -19.3032   26.8809 C   0  0  0  0  0  0  0  0  0  0  0  0
   10.7250  -20.4373   27.4294 N   0  0  0  0  0  0  0  0  0  0  0  0
   11.6550  -20.9105   26.5934 C   0  0  0  0  0  0  0  0  0  0  0  0
   11.7651  -20.0884   25.5433 N   0  0  0  0  0  0  0  0  0  0  0  0
    9.9925  -16.4058   26.7031 C   0  0  0  0  0  0  0  0  0  0  0  0
   10.1590  -17.1975   27.6701 O   0  0  0  0  0  0  0  0  0  0  0  0
   10.2162  -15.0632   26.9425 O   0  0  0  0  0  0  0  0  0  0  0  0
  1  2  1  0
  2  3  1  0
  3  4  1  1
  5  3  1  0
  5  6  2  0
  7  8  1  0
  8  9  2  0
  9 10  1  0
 11 10  2  0
 11 12  1  0
 13 12  1  1
 13 14  1  0
 14  5  1  0
 15 13  1  0
 16 15  2  0
 17 11  1  0
 18  8  1  0
 18 17  2  0
 19 15  1  0
 20 21  1  6
 20 19  1  0
 21 22  1  0
 22 26  1  0
 23 22  2  0
 23 24  1  0
 24 25  1  0
 26 25  2  0
 27 29  1  0
 27 20  1  0
 28 27  2  0
M  END
$$$$
