ICG.pdb
     RDKit          3D

 19 18  0  0  1  0  0  0  0  0999 V2000
   28.5798  -19.7928  -13.8620 C   0  0  0  0  0  0  0  0  0  0  0  0
   27.7347  -20.6355  -12.9441 C   0  0  0  0  0  0  0  0  0  0  0  0
   26.2674  -20.4640  -13.2380 C   0  0  2  0  0  0  0  0  0  0  0  0
   25.8997  -19.0089  -13.0867 C   0  0  0  0  0  0  0  0  0  0  0  0
   25.4747  -21.3401  -12.2918 C   0  0  2  0  0  0  0  0  0  0  0  0
   25.9326  -22.7008  -12.4393 N   0  0  0  0  0  0  0  0  0  0  0  0
   24.0185  -21.2356  -12.5611 C   0  0  0  0  0  0  0  0  0  0  0  0
   23.5183  -21.9351  -13.4773 O   0  0  0  0  0  0  0  0  0  0  0  0
   23.1538  -20.3806  -11.8329 N   0  0  0  0  0  0  0  0  0  0  0  0
   21.7652  -20.3023  -12.1763 C   0  0  1  0  0  0  0  0  0  0  0  0
   20.9459  -20.1182  -10.9029 C   0  0  0  0  0  0  0  0  0  0  0  0
   21.2943  -21.5129   -9.7967 S   0  0  0  0  0  0  0  0  0  0  0  0
   21.4773  -19.2054  -13.1277 C   0  0  0  0  0  0  0  0  0  0  0  0
   21.4949  -18.0325  -12.7339 O   0  0  0  0  0  0  0  0  0  0  0  0
   21.1880  -19.5092  -14.4646 N   0  0  0  0  0  0  0  0  0  0  0  0
   20.7526  -18.5396  -15.4352 C   0  0  0  0  0  0  0  0  0  0  0  0
   21.8076  -18.3362  -16.4407 C   0  0  0  0  0  0  0  0  0  0  0  0
   22.0640  -17.0717  -16.9044 O   0  0  0  0  0  0  0  0  0  0  0  0
   22.5069  -19.2711  -16.9140 O   0  0  0  0  0  0  0  0  0  0  0  0
  1  2  1  0
  2  3  1  0
  3  4  1  1
  3  5  1  0
  5  6  1  6
  7  5  1  0
  8  7  2  0
  9  7  1  0
 10  9  1  0
 10 13  1  0
 10 11  1  1
 12 11  1  0
 13 14  2  0
 13 15  1  0
 15 16  1  0
 16 17  1  0
 17 18  1  0
 19 17  2  0
M  END
$$$$
