ICG.pdb
     RDKit          3D

 19 18  0  0  1  0  0  0  0  0999 V2000
   18.5610  -14.2774  -17.8632 C   0  0  0  0  0  0  0  0  0  0  0  0
   18.9223  -13.3624  -16.7233 C   0  0  0  0  0  0  0  0  0  0  0  0
   19.3730  -12.0150  -17.2233 C   0  0  2  0  0  0  0  0  0  0  0  0
   20.5720  -12.1963  -18.1204 C   0  0  0  0  0  0  0  0  0  0  0  0
   19.6951  -11.1360  -16.0338 C   0  0  2  0  0  0  0  0  0  0  0  0
   18.5431  -11.1051  -15.1650 N   0  0  0  0  0  0  0  0  0  0  0  0
   20.0721   -9.7673  -16.4681 C   0  0  0  0  0  0  0  0  0  0  0  0
   21.1123   -9.6130  -17.1558 O   0  0  0  0  0  0  0  0  0  0  0  0
   19.3139   -8.6140  -16.1453 N   0  0  0  0  0  0  0  0  0  0  0  0
   19.7437   -7.3234  -16.5944 C   0  0  1  0  0  0  0  0  0  0  0  0
   18.7655   -6.8098  -17.6461 C   0  0  0  0  0  0  0  0  0  0  0  0
   19.0712   -7.7071  -19.1926 S   0  0  0  0  0  0  0  0  0  0  0  0
   19.8577   -6.3469  -15.4878 C   0  0  0  0  0  0  0  0  0  0  0  0
   18.9587   -6.2732  -14.6408 O   0  0  0  0  0  0  0  0  0  0  0  0
   20.9839   -5.5166  -15.4128 N   0  0  0  0  0  0  0  0  0  0  0  0
   21.1875   -4.5254  -14.3894 C   0  0  0  0  0  0  0  0  0  0  0  0
   21.7661   -5.1587  -13.1937 C   0  0  0  0  0  0  0  0  0  0  0  0
   22.8755   -4.6069  -12.6069 O   0  0  0  0  0  0  0  0  0  0  0  0
   21.2966   -6.1998  -12.6619 O   0  0  0  0  0  0  0  0  0  0  0  0
  1  2  1  0
  2  3  1  0
  3  4  1  6
  3  5  1  0
  5  6  1  1
  7  5  1  0
  8  7  2  0
  9  7  1  0
 10  9  1  0
 10 13  1  0
 10 11  1  6
 12 11  1  0
 13 14  2  0
 13 15  1  0
 15 16  1  0
 16 17  1  0
 17 18  1  0
 19 17  2  0
M  END
$$$$
