ICG.pdb
     RDKit          3D

 19 18  0  0  1  0  0  0  0  0999 V2000
   20.2492  -11.2658  -21.4694 C   0  0  0  0  0  0  0  0  0  0  0  0
   21.4442  -11.7683  -20.7036 C   0  0  0  0  0  0  0  0  0  0  0  0
   21.7490  -10.8857  -19.5217 C   0  0  2  0  0  0  0  0  0  0  0  0
   22.1781   -9.5270  -20.0170 C   0  0  0  0  0  0  0  0  0  0  0  0
   22.8292  -11.5416  -18.6886 C   0  0  2  0  0  0  0  0  0  0  0  0
   22.3370  -12.8175  -18.2272 N   0  0  0  0  0  0  0  0  0  0  0  0
   23.2218  -10.6773  -17.5472 C   0  0  0  0  0  0  0  0  0  0  0  0
   22.4735  -10.6251  -16.5392 O   0  0  0  0  0  0  0  0  0  0  0  0
   24.4071   -9.9003  -17.5337 N   0  0  0  0  0  0  0  0  0  0  0  0
   24.7356   -9.1118  -16.3836 C   0  0  1  0  0  0  0  0  0  0  0  0
   26.2373   -9.1990  -16.1312 C   0  0  0  0  0  0  0  0  0  0  0  0
   26.6329  -10.8997  -15.6397 S   0  0  0  0  0  0  0  0  0  0  0  0
   24.3273   -7.6966  -16.5310 C   0  0  0  0  0  0  0  0  0  0  0  0
   24.6858   -7.0561  -17.5272 O   0  0  0  0  0  0  0  0  0  0  0  0
   23.5388   -7.0986  -15.5391 N   0  0  0  0  0  0  0  0  0  0  0  0
   23.0375   -5.7513  -15.6116 C   0  0  0  0  0  0  0  0  0  0  0  0
   22.2393   -5.4539  -14.4117 C   0  0  0  0  0  0  0  0  0  0  0  0
   21.7112   -4.1996  -14.2454 O   0  0  0  0  0  0  0  0  0  0  0  0
   22.0044   -6.2974  -13.5058 O   0  0  0  0  0  0  0  0  0  0  0  0
  1  2  1  0
  2  3  1  0
  3  4  1  6
  3  5  1  0
  5  6  1  1
  7  5  1  0
  8  7  2  0
  9  7  1  0
 10  9  1  0
 10 13  1  0
 10 11  1  6
 12 11  1  0
 13 14  2  0
 13 15  1  0
 15 16  1  0
 16 17  1  0
 17 18  1  0
 19 17  2  0
M  END
$$$$
