ICG.pdb
     RDKit          3D

 19 18  0  0  1  0  0  0  0  0999 V2000
   25.8759  -12.9989  -23.1093 C   0  0  0  0  0  0  0  0  0  0  0  0
   26.5069  -11.8942  -22.3040 C   0  0  0  0  0  0  0  0  0  0  0  0
   25.6589  -11.5300  -21.1136 C   0  0  2  0  0  0  0  0  0  0  0  0
   24.2737  -11.1653  -21.5864 C   0  0  0  0  0  0  0  0  0  0  0  0
   26.3170  -10.3818  -20.3788 C   0  0  2  0  0  0  0  0  0  0  0  0
   27.7084  -10.7077  -20.1772 N   0  0  0  0  0  0  0  0  0  0  0  0
   25.6386  -10.1172  -19.0851 C   0  0  0  0  0  0  0  0  0  0  0  0
   24.3882   -9.9947  -19.0686 O   0  0  0  0  0  0  0  0  0  0  0  0
   26.3328   -9.9942  -17.8555 N   0  0  0  0  0  0  0  0  0  0  0  0
   25.6085   -9.7549  -16.6429 C   0  0  1  0  0  0  0  0  0  0  0  0
   26.5179  -10.0444  -15.4531 C   0  0  0  0  0  0  0  0  0  0  0  0
   27.0623  -11.7713  -15.5611 S   0  0  0  0  0  0  0  0  0  0  0  0
   25.0864   -8.3723  -16.5578 C   0  0  0  0  0  0  0  0  0  0  0  0
   25.8493   -7.4167  -16.7467 O   0  0  0  0  0  0  0  0  0  0  0  0
   23.7326   -8.1624  -16.2638 N   0  0  0  0  0  0  0  0  0  0  0  0
   23.1227   -6.8629  -16.1597 C   0  0  0  0  0  0  0  0  0  0  0  0
   21.6868   -7.0104  -15.8738 C   0  0  0  0  0  0  0  0  0  0  0  0
   20.8388   -7.4232  -16.8688 O   0  0  0  0  0  0  0  0  0  0  0  0
   21.1743   -6.7762  -14.7470 O   0  0  0  0  0  0  0  0  0  0  0  0
  1  2  1  0
  2  3  1  0
  3  4  1  6
  3  5  1  0
  5  6  1  1
  7  5  1  0
  8  7  2  0
  9  7  1  0
 10  9  1  0
 10 13  1  0
 10 11  1  1
 12 11  1  0
 13 14  2  0
 13 15  1  0
 15 16  1  0
 16 17  1  0
 17 18  1  0
 19 17  2  0
M  END
$$$$
