ICG.pdb
     RDKit          3D

 19 18  0  0  1  0  0  0  0  0999 V2000
   23.3948  -11.7234  -20.0453 C   0  0  0  0  0  0  0  0  0  0  0  0
   22.4118  -11.9374  -18.9251 C   0  0  0  0  0  0  0  0  0  0  0  0
   21.9397  -10.6270  -18.3518 C   0  0  2  0  0  0  0  0  0  0  0  0
   23.1277   -9.8614  -17.8247 C   0  0  0  0  0  0  0  0  0  0  0  0
   20.9292  -10.9079  -17.2603 C   0  0  2  0  0  0  0  0  0  0  0  0
   19.8726  -11.7193  -17.8155 N   0  0  0  0  0  0  0  0  0  0  0  0
   20.3905   -9.6457  -16.6941 C   0  0  0  0  0  0  0  0  0  0  0  0
   19.8034   -8.8390  -17.4579 O   0  0  0  0  0  0  0  0  0  0  0  0
   20.5041   -9.2985  -15.3246 N   0  0  0  0  0  0  0  0  0  0  0  0
   19.9764   -8.0528  -14.8535 C   0  0  1  0  0  0  0  0  0  0  0  0
   18.9043   -8.3300  -13.8045 C   0  0  0  0  0  0  0  0  0  0  0  0
   17.6319   -9.3814  -14.5566 S   0  0  0  0  0  0  0  0  0  0  0  0
   21.0227   -7.1710  -14.2888 C   0  0  0  0  0  0  0  0  0  0  0  0
   21.9381   -7.6603  -13.6151 O   0  0  0  0  0  0  0  0  0  0  0  0
   20.9636   -5.7911  -14.5244 N   0  0  0  0  0  0  0  0  0  0  0  0
   21.8974   -4.8402  -13.9808 C   0  0  0  0  0  0  0  0  0  0  0  0
   21.5625   -3.4886  -14.4567 C   0  0  0  0  0  0  0  0  0  0  0  0
   20.5756   -3.3280  -15.3949 O   0  0  0  0  0  0  0  0  0  0  0  0
   22.1377   -2.4449  -14.0481 O   0  0  0  0  0  0  0  0  0  0  0  0
  1  2  1  0
  2  3  1  0
  3  4  1  1
  3  5  1  0
  5  6  1  6
  7  5  1  0
  8  7  2  0
  9  7  1  0
 10  9  1  0
 10 13  1  0
 10 11  1  1
 12 11  1  0
 13 14  2  0
 13 15  1  0
 15 16  1  0
 16 17  1  0
 17 18  1  0
 19 17  2  0
M  END
$$$$
