ICG.pdb
     RDKit          3D

 19 18  0  0  1  0  0  0  0  0999 V2000
   29.6422  -12.6200  -16.7555 C   0  0  0  0  0  0  0  0  0  0  0  0
   28.1997  -12.9481  -16.4754 C   0  0  0  0  0  0  0  0  0  0  0  0
   27.3044  -11.7703  -16.7583 C   0  0  2  0  0  0  0  0  0  0  0  0
   27.6551  -10.6453  -15.8166 C   0  0  0  0  0  0  0  0  0  0  0  0
   25.8630  -12.2031  -16.5965 C   0  0  2  0  0  0  0  0  0  0  0  0
   25.6494  -13.3844  -17.3979 N   0  0  0  0  0  0  0  0  0  0  0  0
   24.9318  -11.1161  -16.9906 C   0  0  0  0  0  0  0  0  0  0  0  0
   24.9852  -10.6654  -18.1623 O   0  0  0  0  0  0  0  0  0  0  0  0
   23.9764  -10.5541  -16.1073 N   0  0  0  0  0  0  0  0  0  0  0  0
   23.1097   -9.5067  -16.5590 C   0  0  1  0  0  0  0  0  0  0  0  0
   21.6711  -10.0138  -16.5567 C   0  0  0  0  0  0  0  0  0  0  0  0
   20.5994   -8.6850  -17.1700 S   0  0  0  0  0  0  0  0  0  0  0  0
   23.2180   -8.2844  -15.7311 C   0  0  0  0  0  0  0  0  0  0  0  0
   23.2826   -8.3826  -14.4993 O   0  0  0  0  0  0  0  0  0  0  0  0
   23.2462   -7.0293  -16.3534 N   0  0  0  0  0  0  0  0  0  0  0  0
   23.5571   -5.7996  -15.6732 C   0  0  0  0  0  0  0  0  0  0  0  0
   22.3876   -5.3508  -14.9008 C   0  0  0  0  0  0  0  0  0  0  0  0
   22.4842   -4.2281  -14.1199 O   0  0  0  0  0  0  0  0  0  0  0  0
   21.2772   -5.9458  -14.9111 O   0  0  0  0  0  0  0  0  0  0  0  0
  1  2  1  0
  2  3  1  0
  3  4  1  1
  3  5  1  0
  5  6  1  6
  7  5  1  0
  8  7  2  0
  9  7  1  0
 10  9  1  0
 10 13  1  0
 10 11  1  1
 12 11  1  0
 13 14  2  0
 13 15  1  0
 15 16  1  0
 16 17  1  0
 17 18  1  0
 19 17  2  0
M  END
$$$$
