ICG.pdb
     RDKit          3D

 19 18  0  0  1  0  0  0  0  0999 V2000
   17.2604  -14.5971  -16.8774 C   0  0  0  0  0  0  0  0  0  0  0  0
   17.9508  -13.4185  -17.5107 C   0  0  0  0  0  0  0  0  0  0  0  0
   18.7508  -12.6421  -16.4978 C   0  0  2  0  0  0  0  0  0  0  0  0
   17.8316  -12.1690  -15.3994 C   0  0  0  0  0  0  0  0  0  0  0  0
   19.4277  -11.4821  -17.1960 C   0  0  2  0  0  0  0  0  0  0  0  0
   20.2004  -12.0021  -18.2985 N   0  0  0  0  0  0  0  0  0  0  0  0
   20.2871  -10.7206  -16.2550 C   0  0  0  0  0  0  0  0  0  0  0  0
   19.7771  -10.2609  -15.2027 O   0  0  0  0  0  0  0  0  0  0  0  0
   21.6657  -10.4822  -16.4823 N   0  0  0  0  0  0  0  0  0  0  0  0
   22.3968   -9.6109  -15.6113 C   0  0  1  0  0  0  0  0  0  0  0  0
   23.8496  -10.0714  -15.5495 C   0  0  0  0  0  0  0  0  0  0  0  0
   24.0685  -11.0603  -14.0447 S   0  0  0  0  0  0  0  0  0  0  0  0
   22.3311   -8.1954  -16.0396 C   0  0  0  0  0  0  0  0  0  0  0  0
   22.5041   -7.9071  -17.2304 O   0  0  0  0  0  0  0  0  0  0  0  0
   22.0735   -7.1980  -15.0898 N   0  0  0  0  0  0  0  0  0  0  0  0
   21.9384   -5.8003  -15.4057 C   0  0  0  0  0  0  0  0  0  0  0  0
   21.6670   -5.0381  -14.1766 C   0  0  0  0  0  0  0  0  0  0  0  0
   21.5241   -3.6762  -14.2439 O   0  0  0  0  0  0  0  0  0  0  0  0
   21.5550   -5.5688  -13.0395 O   0  0  0  0  0  0  0  0  0  0  0  0
  1  2  1  0
  2  3  1  0
  3  4  1  1
  3  5  1  0
  5  6  1  6
  7  5  1  0
  8  7  2  0
  9  7  1  0
 10  9  1  0
 10 13  1  0
 10 11  1  6
 12 11  1  0
 13 14  2  0
 13 15  1  0
 15 16  1  0
 16 17  1  0
 17 18  1  0
 19 17  2  0
M  END
$$$$
