ICG.pdb
     RDKit          3D

 19 18  0  0  1  0  0  0  0  0999 V2000
   26.1955  -16.7902  -19.3414 C   0  0  0  0  0  0  0  0  0  0  0  0
   26.4282  -17.2519  -17.9274 C   0  0  0  0  0  0  0  0  0  0  0  0
   25.4339  -16.6356  -16.9785 C   0  0  2  0  0  0  0  0  0  0  0  0
   25.8748  -15.2326  -16.6430 C   0  0  0  0  0  0  0  0  0  0  0  0
   25.3399  -17.5011  -15.7403 C   0  0  2  0  0  0  0  0  0  0  0  0
   25.8817  -18.8021  -16.0516 N   0  0  0  0  0  0  0  0  0  0  0  0
   23.9363  -17.6072  -15.2684 C   0  0  0  0  0  0  0  0  0  0  0  0
   23.3590  -16.5757  -14.8424 O   0  0  0  0  0  0  0  0  0  0  0  0
   23.2056  -18.8216  -15.2728 N   0  0  0  0  0  0  0  0  0  0  0  0
   21.8873  -18.8683  -14.7141 C   0  0  1  0  0  0  0  0  0  0  0  0
   20.8641  -18.7915  -15.8428 C   0  0  0  0  0  0  0  0  0  0  0  0
   20.1105  -20.4298  -16.0388 S   0  0  0  0  0  0  0  0  0  0  0  0
   21.6578  -20.0854  -13.9033 C   0  0  0  0  0  0  0  0  0  0  0  0
   22.2504  -21.1331  -14.1899 O   0  0  0  0  0  0  0  0  0  0  0  0
   20.7709  -20.0360  -12.8197 N   0  0  0  0  0  0  0  0  0  0  0  0
   20.5755  -21.1160  -11.8885 C   0  0  0  0  0  0  0  0  0  0  0  0
   19.5192  -22.0128  -12.3838 C   0  0  0  0  0  0  0  0  0  0  0  0
   19.1017  -23.0603  -11.6039 O   0  0  0  0  0  0  0  0  0  0  0  0
   18.9605  -21.8770  -13.5049 O   0  0  0  0  0  0  0  0  0  0  0  0
  1  2  1  0
  2  3  1  0
  3  4  1  1
  3  5  1  0
  5  6  1  6
  7  5  1  0
  8  7  2  0
  9  7  1  0
 10  9  1  0
 10 13  1  0
 10 11  1  6
 12 11  1  0
 13 14  2  0
 13 15  1  0
 15 16  1  0
 16 17  1  0
 17 18  1  0
 19 17  2  0
M  END
$$$$
