ICG.pdb
     RDKit          3D

 19 18  0  0  1  0  0  0  0  0999 V2000
   20.0097  -12.1882  -21.4418 C   0  0  0  0  0  0  0  0  0  0  0  0
   20.9781  -12.2189  -20.2893 C   0  0  0  0  0  0  0  0  0  0  0  0
   20.5292  -11.3147  -19.1714 C   0  0  2  0  0  0  0  0  0  0  0  0
   20.4210   -9.9027  -19.6909 C   0  0  0  0  0  0  0  0  0  0  0  0
   21.5227  -11.4151  -18.0338 C   0  0  2  0  0  0  0  0  0  0  0  0
   21.5818  -12.7906  -17.6008 N   0  0  0  0  0  0  0  0  0  0  0  0
   21.1427  -10.5192  -16.9127 C   0  0  0  0  0  0  0  0  0  0  0  0
   20.1181  -10.7911  -16.2381 O   0  0  0  0  0  0  0  0  0  0  0  0
   21.8812   -9.3622  -16.5591 N   0  0  0  0  0  0  0  0  0  0  0  0
   21.3975   -8.4875  -15.5329 C   0  0  1  0  0  0  0  0  0  0  0  0
   22.4864   -8.3027  -14.4808 C   0  0  0  0  0  0  0  0  0  0  0  0
   22.6156   -9.8367  -13.5214 S   0  0  0  0  0  0  0  0  0  0  0  0
   20.9750   -7.1713  -16.0622 C   0  0  0  0  0  0  0  0  0  0  0  0
   21.6447   -6.6230  -16.9465 O   0  0  0  0  0  0  0  0  0  0  0  0
   19.8201   -6.5615  -15.5547 N   0  0  0  0  0  0  0  0  0  0  0  0
   19.3269   -5.2815  -15.9905 C   0  0  0  0  0  0  0  0  0  0  0  0
   18.0431   -4.9940  -15.3312 C   0  0  0  0  0  0  0  0  0  0  0  0
   17.7418   -3.7056  -14.9719 O   0  0  0  0  0  0  0  0  0  0  0  0
   17.1827   -5.8762  -15.0694 O   0  0  0  0  0  0  0  0  0  0  0  0
  1  2  1  0
  2  3  1  0
  3  4  1  6
  3  5  1  0
  5  6  1  1
  7  5  1  0
  8  7  2  0
  9  7  1  0
 10  9  1  0
 10 13  1  0
 10 11  1  1
 12 11  1  0
 13 14  2  0
 13 15  1  0
 15 16  1  0
 16 17  1  0
 17 18  1  0
 19 17  2  0
M  END
$$$$
