ICG.pdb
     RDKit          3D

 19 18  0  0  1  0  0  0  0  0999 V2000
   16.3693  -10.7513  -18.1881 C   0  0  0  0  0  0  0  0  0  0  0  0
   17.7215  -10.8765  -17.5378 C   0  0  0  0  0  0  0  0  0  0  0  0
   17.9958   -9.7180  -16.6151 C   0  0  2  0  0  0  0  0  0  0  0  0
   17.9855   -8.4377  -17.4125 C   0  0  0  0  0  0  0  0  0  0  0  0
   19.3301   -9.9406  -15.9359 C   0  0  2  0  0  0  0  0  0  0  0  0
   19.2718  -11.1896  -15.2152 N   0  0  0  0  0  0  0  0  0  0  0  0
   19.6601   -8.8150  -15.0259 C   0  0  0  0  0  0  0  0  0  0  0  0
   19.0608   -8.7281  -13.9249 O   0  0  0  0  0  0  0  0  0  0  0  0
   20.6245   -7.8235  -15.3355 N   0  0  0  0  0  0  0  0  0  0  0  0
   20.8222   -6.7134  -14.4518 C   0  0  1  0  0  0  0  0  0  0  0  0
   22.2815   -6.6819  -14.0091 C   0  0  0  0  0  0  0  0  0  0  0  0
   22.5190   -5.2376  -12.9378 S   0  0  0  0  0  0  0  0  0  0  0  0
   20.4524   -5.4216  -15.0728 C   0  0  0  0  0  0  0  0  0  0  0  0
   20.9124   -5.1208  -16.1814 O   0  0  0  0  0  0  0  0  0  0  0  0
   19.5847   -4.5538  -14.3965 N   0  0  0  0  0  0  0  0  0  0  0  0
   19.2261   -3.2426  -14.8696 C   0  0  0  0  0  0  0  0  0  0  0  0
   18.0268   -3.3323  -15.7177 C   0  0  0  0  0  0  0  0  0  0  0  0
   18.1670   -3.5279  -17.0674 O   0  0  0  0  0  0  0  0  0  0  0  0
   16.8519   -3.2387  -15.2729 O   0  0  0  0  0  0  0  0  0  0  0  0
  1  2  1  0
  2  3  1  0
  3  4  1  6
  3  5  1  0
  5  6  1  1
  7  5  1  0
  8  7  2  0
  9  7  1  0
 10  9  1  0
 10 13  1  0
 10 11  1  6
 12 11  1  0
 13 14  2  0
 13 15  1  0
 15 16  1  0
 16 17  1  0
 17 18  1  0
 19 17  2  0
M  END
$$$$
