ICG.pdb
     RDKit          3D

 19 18  0  0  1  0  0  0  0  0999 V2000
   20.3316  -11.3781  -20.4595 C   0  0  0  0  0  0  0  0  0  0  0  0
   20.7437  -11.4885  -19.0156 C   0  0  0  0  0  0  0  0  0  0  0  0
   20.2824  -10.2950  -18.2208 C   0  0  2  0  0  0  0  0  0  0  0  0
   20.9219   -9.0498  -18.7826 C   0  0  0  0  0  0  0  0  0  0  0  0
   20.6520  -10.5040  -16.7678 C   0  0  2  0  0  0  0  0  0  0  0  0
   20.0899  -11.7595  -16.3308 N   0  0  0  0  0  0  0  0  0  0  0  0
   20.1666   -9.3811  -15.9268 C   0  0  0  0  0  0  0  0  0  0  0  0
   18.9304   -9.1703  -15.8493 O   0  0  0  0  0  0  0  0  0  0  0  0
   21.0316   -8.5258  -15.1993 N   0  0  0  0  0  0  0  0  0  0  0  0
   20.4994   -7.3996  -14.4917 C   0  0  1  0  0  0  0  0  0  0  0  0
   20.1228   -7.8312  -13.0780 C   0  0  0  0  0  0  0  0  0  0  0  0
   21.5868   -8.5670  -12.2997 S   0  0  0  0  0  0  0  0  0  0  0  0
   21.4466   -6.2633  -14.4398 C   0  0  0  0  0  0  0  0  0  0  0  0
   22.6606   -6.4718  -14.5576 O   0  0  0  0  0  0  0  0  0  0  0  0
   20.9562   -4.9634  -14.2576 N   0  0  0  0  0  0  0  0  0  0  0  0
   21.7751   -3.7805  -14.2968 C   0  0  0  0  0  0  0  0  0  0  0  0
   20.9473   -2.5950  -14.0233 C   0  0  0  0  0  0  0  0  0  0  0  0
   21.5462   -1.3687  -13.8911 O   0  0  0  0  0  0  0  0  0  0  0  0
   19.6942   -2.6351  -13.9000 O   0  0  0  0  0  0  0  0  0  0  0  0
  1  2  1  0
  2  3  1  0
  3  4  1  6
  3  5  1  0
  5  6  1  1
  7  5  1  0
  8  7  2  0
  9  7  1  0
 10  9  1  0
 10 13  1  0
 10 11  1  1
 12 11  1  0
 13 14  2  0
 13 15  1  0
 15 16  1  0
 16 17  1  0
 17 18  1  0
 19 17  2  0
M  END
$$$$
