ICG.pdb
     RDKit          3D

 19 18  0  0  1  0  0  0  0  0999 V2000
   23.4729  -17.3173  -16.4243 C   0  0  0  0  0  0  0  0  0  0  0  0
   22.6459  -16.0598  -16.4651 C   0  0  0  0  0  0  0  0  0  0  0  0
   23.4314  -14.8706  -15.9777 C   0  0  2  0  0  0  0  0  0  0  0  0
   23.8493  -15.1066  -14.5477 C   0  0  0  0  0  0  0  0  0  0  0  0
   22.5726  -13.6312  -16.1098 C   0  0  2  0  0  0  0  0  0  0  0  0
   22.1883  -13.4885  -17.4936 N   0  0  0  0  0  0  0  0  0  0  0  0
   23.2963  -12.4268  -15.6306 C   0  0  0  0  0  0  0  0  0  0  0  0
   23.6740  -12.3812  -14.4331 O   0  0  0  0  0  0  0  0  0  0  0  0
   23.5869  -11.3146  -16.4599 N   0  0  0  0  0  0  0  0  0  0  0  0
   24.2176  -10.1528  -15.9080 C   0  0  1  0  0  0  0  0  0  0  0  0
   25.3247   -9.6910  -16.8501 C   0  0  0  0  0  0  0  0  0  0  0  0
   26.0977   -8.2131  -16.1370 S   0  0  0  0  0  0  0  0  0  0  0  0
   23.2615   -9.0483  -15.6688 C   0  0  0  0  0  0  0  0  0  0  0  0
   22.4932   -8.6965  -16.5727 O   0  0  0  0  0  0  0  0  0  0  0  0
   23.2381   -8.4137  -14.4197 N   0  0  0  0  0  0  0  0  0  0  0  0
   22.2507   -7.4427  -14.0277 C   0  0  0  0  0  0  0  0  0  0  0  0
   22.4445   -6.2013  -14.7937 C   0  0  0  0  0  0  0  0  0  0  0  0
   21.3758   -5.3724  -15.0186 O   0  0  0  0  0  0  0  0  0  0  0  0
   23.5554   -5.8425  -15.2673 O   0  0  0  0  0  0  0  0  0  0  0  0
  1  2  1  0
  2  3  1  0
  3  4  1  1
  3  5  1  0
  5  6  1  6
  7  5  1  0
  8  7  2  0
  9  7  1  0
 10  9  1  0
 10 13  1  0
 10 11  1  6
 12 11  1  0
 13 14  2  0
 13 15  1  0
 15 16  1  0
 16 17  1  0
 17 18  1  0
 19 17  2  0
M  END
$$$$
