ICG.pdb
     RDKit          3D

 19 18  0  0  1  0  0  0  0  0999 V2000
   25.9558  -22.9044  -10.8234 C   0  0  0  0  0  0  0  0  0  0  0  0
   25.1883  -21.6317  -11.0643 C   0  0  0  0  0  0  0  0  0  0  0  0
   25.5865  -20.9893  -12.3672 C   0  0  2  0  0  0  0  0  0  0  0  0
   27.0757  -20.7492  -12.3651 C   0  0  0  0  0  0  0  0  0  0  0  0
   24.8143  -19.6977  -12.5305 C   0  0  2  0  0  0  0  0  0  0  0  0
   23.4048  -19.9954  -12.4422 N   0  0  0  0  0  0  0  0  0  0  0  0
   25.1404  -19.0403  -13.8210 C   0  0  0  0  0  0  0  0  0  0  0  0
   26.3337  -18.7266  -14.0585 O   0  0  0  0  0  0  0  0  0  0  0  0
   24.1681  -18.7447  -14.8091 N   0  0  0  0  0  0  0  0  0  0  0  0
   24.5545  -18.0900  -16.0233 C   0  0  1  0  0  0  0  0  0  0  0  0
   23.4647  -18.2968  -17.0702 C   0  0  0  0  0  0  0  0  0  0  0  0
   23.8551  -17.2628  -18.5085 S   0  0  0  0  0  0  0  0  0  0  0  0
   24.8066  -16.6439  -15.8323 C   0  0  0  0  0  0  0  0  0  0  0  0
   23.9117  -15.9210  -15.3767 O   0  0  0  0  0  0  0  0  0  0  0  0
   26.0575  -16.1106  -16.1703 N   0  0  0  0  0  0  0  0  0  0  0  0
   26.4567  -14.7555  -15.8948 C   0  0  0  0  0  0  0  0  0  0  0  0
   26.2263  -13.9192  -17.0835 C   0  0  0  0  0  0  0  0  0  0  0  0
   26.1190  -12.5597  -16.9425 O   0  0  0  0  0  0  0  0  0  0  0  0
   26.1186  -14.3829  -18.2500 O   0  0  0  0  0  0  0  0  0  0  0  0
  1  2  1  0
  2  3  1  0
  3  4  1  1
  3  5  1  0
  5  6  1  6
  7  5  1  0
  8  7  2  0
  9  7  1  0
 10  9  1  0
 10 13  1  0
 10 11  1  6
 12 11  1  0
 13 14  2  0
 13 15  1  0
 15 16  1  0
 16 17  1  0
 17 18  1  0
 19 17  2  0
M  END
$$$$
