KIR.pdb
     RDKit          3D

 29 28  0  0  1  0  0  0  0  0999 V2000
    6.8599  -14.1098   20.0158 N   0  0  0  0  0  0  0  0  0  0  0  0
    6.4821  -14.8591   21.2108 C   0  0  1  0  0  0  0  0  0  0  0  0
    6.5870  -16.2948   20.8962 C   0  0  0  0  0  0  0  0  0  0  0  0
    5.7151  -16.8769   19.8674 C   0  0  0  0  0  0  0  0  0  0  0  0
    5.6862  -18.3326   19.7101 C   0  0  0  0  0  0  0  0  0  0  0  0
    4.9005  -18.9079   18.6085 C   0  0  0  0  0  0  0  0  0  0  0  0
    5.0435  -20.3995   18.7311 N   0  0  0  0  0  0  0  0  0  0  0  0
    7.5463  -14.6067   22.2798 C   0  0  0  0  0  0  0  0  0  0  0  0
    8.7435  -14.4681   21.9462 O   0  0  0  0  0  0  0  0  0  0  0  0
    5.8183  -11.5908   26.3423 C   0  0  0  0  0  0  0  0  0  0  0  0
    6.7068  -12.1682   25.2331 C   0  0  0  0  0  0  0  0  0  0  0  0
    7.3038  -13.4485   25.6959 C   0  0  2  0  0  0  0  0  0  0  0  0
    8.0485  -13.2852   27.0218 C   0  0  0  0  0  0  0  0  0  0  0  0
    8.1165  -14.2126   24.7101 C   0  0  2  0  0  0  0  0  0  0  0  0
    7.1635  -14.5352   23.6161 N   0  0  0  0  0  0  0  0  0  0  0  0
    8.6635  -15.4915   25.1488 C   0  0  0  0  0  0  0  0  0  0  0  0
    7.9049  -16.4555   25.5341 O   0  0  0  0  0  0  0  0  0  0  0  0
   16.6484  -19.6758   24.4703 N   0  0  0  0  0  0  0  0  0  0  0  0
   15.4619  -20.4392   24.6367 C   0  0  0  0  0  0  0  0  0  0  0  0
   15.4744  -21.5105   25.3621 N   0  0  0  0  0  0  0  0  0  0  0  0
   14.2451  -20.0701   24.0287 N   0  0  0  0  0  0  0  0  0  0  0  0
   13.7707  -18.7039   24.0121 C   0  0  0  0  0  0  0  0  0  0  0  0
   12.5204  -18.6146   24.8262 C   0  0  0  0  0  0  0  0  0  0  0  0
   11.7614  -17.3474   24.6457 C   0  0  0  0  0  0  0  0  0  0  0  0
   10.5124  -17.2099   25.4467 C   0  0  2  0  0  0  0  0  0  0  0  0
   10.0418  -15.8343   25.2056 N   0  0  0  0  0  0  0  0  0  0  0  0
   10.7652  -17.4102   26.9002 C   0  0  0  0  0  0  0  0  0  0  0  0
   10.9406  -18.6862   27.3876 O   0  0  0  0  0  0  0  0  0  0  0  0
   10.8047  -16.3789   27.6136 O   0  0  0  0  0  0  0  0  0  0  0  0
  2  1  1  6
  2  3  1  0
  3  4  1  0
  4  5  1  0
  6  5  1  0
  7  6  1  0
  8  2  1  0
  9  8  2  0
 11 12  1  0
 11 10  1  0
 12 14  1  0
 12 13  1  1
 14 15  1  6
 15  8  1  0
 16 14  1  0
 16 26  1  0
 17 16  2  0
 18 19  1  0
 19 20  2  0
 21 19  1  0
 21 22  1  0
 23 22  1  0
 24 23  1  0
 25 26  1  0
 25 24  1  6
 27 25  1  0
 28 27  1  0
 29 27  2  0
M  END
$$$$
