KIR.pdb
     RDKit          3D

 29 28  0  0  1  0  0  0  0  0999 V2000
    7.7003  -15.2296   20.6387 N   0  0  0  0  0  0  0  0  0  0  0  0
    7.3112  -15.7572   21.9435 C   0  0  1  0  0  0  0  0  0  0  0  0
    7.7097  -17.1748   21.9949 C   0  0  0  0  0  0  0  0  0  0  0  0
    7.1297  -18.1259   21.0376 C   0  0  0  0  0  0  0  0  0  0  0  0
    8.0190  -19.0669   20.3530 C   0  0  0  0  0  0  0  0  0  0  0  0
    7.4321  -20.0449   19.4252 C   0  0  0  0  0  0  0  0  0  0  0  0
    7.1056  -19.2834   18.1707 N   0  0  0  0  0  0  0  0  0  0  0  0
    8.1668  -15.0641   23.0048 C   0  0  0  0  0  0  0  0  0  0  0  0
    9.3574  -14.7751   22.7538 O   0  0  0  0  0  0  0  0  0  0  0  0
    5.3197  -11.7309   26.0219 C   0  0  0  0  0  0  0  0  0  0  0  0
    6.4550  -12.3094   25.1677 C   0  0  0  0  0  0  0  0  0  0  0  0
    7.2729  -13.2341   25.9956 C   0  0  2  0  0  0  0  0  0  0  0  0
    7.8227  -12.5463   27.2462 C   0  0  0  0  0  0  0  0  0  0  0  0
    8.3324  -14.0120   25.2966 C   0  0  2  0  0  0  0  0  0  0  0  0
    7.6039  -14.7642   24.2419 N   0  0  0  0  0  0  0  0  0  0  0  0
    9.0450  -15.0159   26.0787 C   0  0  0  0  0  0  0  0  0  0  0  0
    8.4321  -15.9979   26.6384 O   0  0  0  0  0  0  0  0  0  0  0  0
   15.3726  -18.0624   23.5559 N   0  0  0  0  0  0  0  0  0  0  0  0
   15.5013  -16.6499   23.6374 C   0  0  0  0  0  0  0  0  0  0  0  0
   16.6239  -16.0809   23.3376 N   0  0  0  0  0  0  0  0  0  0  0  0
   14.4327  -15.8249   24.0425 N   0  0  0  0  0  0  0  0  0  0  0  0
   13.1256  -16.3532   24.3652 C   0  0  0  0  0  0  0  0  0  0  0  0
   13.1505  -16.8916   25.7592 C   0  0  0  0  0  0  0  0  0  0  0  0
   12.5624  -15.9805   26.7782 C   0  0  0  0  0  0  0  0  0  0  0  0
   11.1058  -16.1466   27.0455 C   0  0  2  0  0  0  0  0  0  0  0  0
   10.4461  -15.0490   26.3162 N   0  0  0  0  0  0  0  0  0  0  0  0
   10.7972  -16.0452   28.4985 C   0  0  0  0  0  0  0  0  0  0  0  0
   10.2569  -14.8804   28.9964 O   0  0  0  0  0  0  0  0  0  0  0  0
   11.0538  -17.0521   29.2016 O   0  0  0  0  0  0  0  0  0  0  0  0
  2  1  1  6
  2  3  1  0
  3  4  1  0
  4  5  1  0
  6  5  1  0
  7  6  1  0
  8  2  1  0
  9  8  2  0
 11 12  1  0
 11 10  1  0
 12 14  1  0
 12 13  1  1
 14 15  1  6
 15  8  1  0
 16 14  1  0
 16 26  1  0
 17 16  2  0
 18 19  1  0
 19 20  2  0
 21 19  1  0
 21 22  1  0
 23 22  1  0
 24 23  1  0
 25 26  1  0
 25 24  1  1
 27 25  1  0
 28 27  1  0
 29 27  2  0
M  END
$$$$
