KIR.pdb
     RDKit          3D

 29 28  0  0  1  0  0  0  0  0999 V2000
    6.8214  -15.2841   20.2707 N   0  0  0  0  0  0  0  0  0  0  0  0
    6.5133  -15.8366   21.5867 C   0  0  1  0  0  0  0  0  0  0  0  0
    6.8005  -17.2813   21.5490 C   0  0  0  0  0  0  0  0  0  0  0  0
    6.4494  -18.0590   20.3535 C   0  0  0  0  0  0  0  0  0  0  0  0
    5.0352  -18.3067   20.0645 C   0  0  0  0  0  0  0  0  0  0  0  0
    4.6832  -19.0430   18.8416 C   0  0  0  0  0  0  0  0  0  0  0  0
    3.1819  -19.0247   18.7633 N   0  0  0  0  0  0  0  0  0  0  0  0
    7.5155  -15.2572   22.5861 C   0  0  0  0  0  0  0  0  0  0  0  0
    8.7150  -15.1231   22.2587 O   0  0  0  0  0  0  0  0  0  0  0  0
    5.1525  -11.8790   26.0483 C   0  0  0  0  0  0  0  0  0  0  0  0
    6.2132  -12.3882   25.0641 C   0  0  0  0  0  0  0  0  0  0  0  0
    7.0197  -13.4533   25.7160 C   0  0  2  0  0  0  0  0  0  0  0  0
    7.7208  -12.9475   26.9776 C   0  0  0  0  0  0  0  0  0  0  0  0
    7.9549  -14.2213   24.8490 C   0  0  2  0  0  0  0  0  0  0  0  0
    7.0745  -14.8861   23.8530 N   0  0  0  0  0  0  0  0  0  0  0  0
    8.7183  -15.2921   25.4800 C   0  0  0  0  0  0  0  0  0  0  0  0
    8.1593  -16.3821   25.8705 O   0  0  0  0  0  0  0  0  0  0  0  0
   16.0640  -15.3356   25.0672 N   0  0  0  0  0  0  0  0  0  0  0  0
   16.3132  -16.5667   25.7309 C   0  0  0  0  0  0  0  0  0  0  0  0
   17.3529  -16.6975   26.4897 N   0  0  0  0  0  0  0  0  0  0  0  0
   15.4559  -17.6768   25.5917 N   0  0  0  0  0  0  0  0  0  0  0  0
   14.2579  -17.6336   24.7827 C   0  0  0  0  0  0  0  0  0  0  0  0
   13.0657  -17.5905   25.6830 C   0  0  0  0  0  0  0  0  0  0  0  0
   12.0920  -16.5131   25.3586 C   0  0  0  0  0  0  0  0  0  0  0  0
   10.8538  -16.4752   26.1869 C   0  0  2  0  0  0  0  0  0  0  0  0
   10.1166  -15.2818   25.7351 N   0  0  0  0  0  0  0  0  0  0  0  0
   11.1651  -16.3577   27.6381 C   0  0  0  0  0  0  0  0  0  0  0  0
   11.5837  -17.4704   28.3333 O   0  0  0  0  0  0  0  0  0  0  0  0
   11.0246  -15.2234   28.1555 O   0  0  0  0  0  0  0  0  0  0  0  0
  2  1  1  6
  2  3  1  0
  3  4  1  0
  4  5  1  0
  6  5  1  0
  7  6  1  0
  8  2  1  0
  9  8  2  0
 11 12  1  0
 11 10  1  0
 12 14  1  0
 12 13  1  1
 14 15  1  6
 15  8  1  0
 16 14  1  0
 16 26  1  0
 17 16  2  0
 18 19  1  0
 19 20  2  0
 21 19  1  0
 21 22  1  0
 23 22  1  0
 24 23  1  0
 25 26  1  0
 25 24  1  6
 27 25  1  0
 28 27  1  0
 29 27  2  0
M  END
$$$$
