KIR.pdb
     RDKit          3D

 29 28  0  0  1  0  0  0  0  0999 V2000
    7.7910  -14.5451   20.1700 N   0  0  0  0  0  0  0  0  0  0  0  0
    6.9961  -14.9719   21.3181 C   0  0  1  0  0  0  0  0  0  0  0  0
    6.8279  -16.4333   21.2334 C   0  0  0  0  0  0  0  0  0  0  0  0
    6.1668  -17.0199   20.0603 C   0  0  0  0  0  0  0  0  0  0  0  0
    6.9842  -17.7243   19.0700 C   0  0  0  0  0  0  0  0  0  0  0  0
    6.3286  -18.2668   17.8710 C   0  0  0  0  0  0  0  0  0  0  0  0
    7.4198  -18.8940   17.0487 N   0  0  0  0  0  0  0  0  0  0  0  0
    7.8294  -14.7392   22.5792 C   0  0  0  0  0  0  0  0  0  0  0  0
    9.0779  -14.7329   22.5084 O   0  0  0  0  0  0  0  0  0  0  0  0
    5.7148  -11.2093   25.9155 C   0  0  0  0  0  0  0  0  0  0  0  0
    6.7400  -12.0000   25.0928 C   0  0  0  0  0  0  0  0  0  0  0  0
    7.0370  -13.2850   25.7785 C   0  0  2  0  0  0  0  0  0  0  0  0
    7.5157  -13.0686   27.2149 C   0  0  0  0  0  0  0  0  0  0  0  0
    7.9101  -14.2516   25.0577 C   0  0  2  0  0  0  0  0  0  0  0  0
    7.1812  -14.5375   23.7944 N   0  0  0  0  0  0  0  0  0  0  0  0
    8.1304  -15.5474   25.6898 C   0  0  0  0  0  0  0  0  0  0  0  0
    7.2758  -16.5029   25.5903 O   0  0  0  0  0  0  0  0  0  0  0  0
   14.6968  -20.3280   23.4989 N   0  0  0  0  0  0  0  0  0  0  0  0
   13.7996  -19.4194   22.8763 C   0  0  0  0  0  0  0  0  0  0  0  0
   13.7042  -19.3806   21.5866 N   0  0  0  0  0  0  0  0  0  0  0  0
   12.9925  -18.5374   23.6228 N   0  0  0  0  0  0  0  0  0  0  0  0
   12.6374  -18.7916   25.0016 C   0  0  0  0  0  0  0  0  0  0  0  0
   11.1487  -18.8613   25.1143 C   0  0  0  0  0  0  0  0  0  0  0  0
   10.4829  -17.5384   25.2587 C   0  0  0  0  0  0  0  0  0  0  0  0
    9.7596  -17.3033   26.5401 C   0  0  2  0  0  0  0  0  0  0  0  0
    9.2650  -15.9172   26.4622 N   0  0  0  0  0  0  0  0  0  0  0  0
   10.6599  -17.4532   27.7165 C   0  0  0  0  0  0  0  0  0  0  0  0
   11.1132  -16.3289   28.3700 O   0  0  0  0  0  0  0  0  0  0  0  0
   10.9601  -18.6243   28.0519 O   0  0  0  0  0  0  0  0  0  0  0  0
  2  1  1  6
  2  3  1  0
  3  4  1  0
  4  5  1  0
  6  5  1  0
  7  6  1  0
  8  2  1  0
  9  8  2  0
 11 12  1  0
 11 10  1  0
 12 14  1  0
 12 13  1  1
 14 15  1  6
 15  8  1  0
 16 14  1  0
 16 26  1  0
 17 16  2  0
 18 19  1  0
 19 20  2  0
 21 19  1  0
 21 22  1  0
 23 22  1  0
 24 23  1  0
 25 26  1  0
 25 24  1  6
 27 25  1  0
 28 27  1  0
 29 27  2  0
M  END
$$$$
