KIR.pdb
     RDKit          3D

 29 28  0  0  1  0  0  0  0  0999 V2000
    7.2675  -13.8006   19.8799 N   0  0  0  0  0  0  0  0  0  0  0  0
    7.0748  -14.6885   21.0230 C   0  0  1  0  0  0  0  0  0  0  0  0
    7.6002  -16.0159   20.6580 C   0  0  0  0  0  0  0  0  0  0  0  0
    6.9977  -16.7509   19.5382 C   0  0  0  0  0  0  0  0  0  0  0  0
    7.5392  -18.0652   19.1857 C   0  0  0  0  0  0  0  0  0  0  0  0
    6.9125  -18.8152   18.0873 C   0  0  0  0  0  0  0  0  0  0  0  0
    7.7240  -20.0705   17.9254 N   0  0  0  0  0  0  0  0  0  0  0  0
    7.9791  -14.1997   22.1554 C   0  0  0  0  0  0  0  0  0  0  0  0
    9.1619  -13.8748   21.9118 O   0  0  0  0  0  0  0  0  0  0  0  0
    6.8616  -11.3198   27.2876 C   0  0  0  0  0  0  0  0  0  0  0  0
    7.9522  -12.1464   26.5945 C   0  0  0  0  0  0  0  0  0  0  0  0
    7.3726  -12.8328   25.4101 C   0  0  2  0  0  0  0  0  0  0  0  0
    6.0751  -13.5662   25.7532 C   0  0  0  0  0  0  0  0  0  0  0  0
    8.2867  -13.6959   24.6127 C   0  0  2  0  0  0  0  0  0  0  0  0
    7.4686  -14.1242   23.4481 N   0  0  0  0  0  0  0  0  0  0  0  0
    8.7558  -14.9257   25.2410 C   0  0  0  0  0  0  0  0  0  0  0  0
    8.0056  -15.9656   25.3362 O   0  0  0  0  0  0  0  0  0  0  0  0
   16.9807  -17.3210   24.6049 N   0  0  0  0  0  0  0  0  0  0  0  0
   15.8649  -16.9063   23.8296 C   0  0  0  0  0  0  0  0  0  0  0  0
   16.0457  -16.3498   22.6757 N   0  0  0  0  0  0  0  0  0  0  0  0
   14.5394  -17.0783   24.2769 N   0  0  0  0  0  0  0  0  0  0  0  0
   14.2261  -17.5443   25.6098 C   0  0  0  0  0  0  0  0  0  0  0  0
   12.7474  -17.7288   25.7242 C   0  0  0  0  0  0  0  0  0  0  0  0
   11.9573  -16.4846   25.5192 C   0  0  0  0  0  0  0  0  0  0  0  0
   10.5801  -16.4796   26.0880 C   0  0  2  0  0  0  0  0  0  0  0  0
   10.0438  -15.1366   25.8041 N   0  0  0  0  0  0  0  0  0  0  0  0
   10.5900  -16.7195   27.5574 C   0  0  0  0  0  0  0  0  0  0  0  0
   10.9056  -17.9713   28.0371 O   0  0  0  0  0  0  0  0  0  0  0  0
   10.3033  -15.7428   28.2908 O   0  0  0  0  0  0  0  0  0  0  0  0
  2  1  1  6
  2  3  1  0
  3  4  1  0
  4  5  1  0
  6  5  1  0
  7  6  1  0
  8  2  1  0
  9  8  2  0
 11 12  1  0
 11 10  1  0
 12 14  1  0
 12 13  1  1
 14 15  1  6
 15  8  1  0
 16 14  1  0
 16 26  1  0
 17 16  2  0
 18 19  1  0
 19 20  2  0
 21 19  1  0
 21 22  1  0
 23 22  1  0
 24 23  1  0
 25 26  1  0
 25 24  1  1
 27 25  1  0
 28 27  1  0
 29 27  2  0
M  END
$$$$
