KIR.pdb
     RDKit          3D

 29 28  0  0  1  0  0  0  0  0999 V2000
    6.1695  -15.1769   21.4025 N   0  0  0  0  0  0  0  0  0  0  0  0
    7.4678  -14.6252   21.0253 C   0  0  1  0  0  0  0  0  0  0  0  0
    7.2342  -13.3236   20.3753 C   0  0  0  0  0  0  0  0  0  0  0  0
    6.9239  -13.2754   18.9404 C   0  0  0  0  0  0  0  0  0  0  0  0
    8.0208  -13.3996   17.9780 C   0  0  0  0  0  0  0  0  0  0  0  0
    7.7130  -13.3170   16.5427 C   0  0  0  0  0  0  0  0  0  0  0  0
    9.0235  -13.4900   15.8262 N   0  0  0  0  0  0  0  0  0  0  0  0
    8.2306  -14.2980   22.3097 C   0  0  0  0  0  0  0  0  0  0  0  0
    9.4002  -13.8600   22.2451 O   0  0  0  0  0  0  0  0  0  0  0  0
    5.2690  -12.1464   26.1128 C   0  0  0  0  0  0  0  0  0  0  0  0
    6.4835  -12.4239   25.2178 C   0  0  0  0  0  0  0  0  0  0  0  0
    7.1737  -13.6527   25.6904 C   0  0  2  0  0  0  0  0  0  0  0  0
    7.6178  -13.5332   27.1490 C   0  0  0  0  0  0  0  0  0  0  0  0
    8.2681  -14.1869   24.8342 C   0  0  2  0  0  0  0  0  0  0  0  0
    7.6076  -14.4945   23.5388 N   0  0  0  0  0  0  0  0  0  0  0  0
    8.8998  -15.4300   25.2618 C   0  0  0  0  0  0  0  0  0  0  0  0
    8.2202  -16.5060   25.4454 O   0  0  0  0  0  0  0  0  0  0  0  0
   17.4311  -18.3147   24.9256 N   0  0  0  0  0  0  0  0  0  0  0  0
   16.5380  -19.4179   24.9862 C   0  0  0  0  0  0  0  0  0  0  0  0
   16.9870  -20.6254   24.8664 N   0  0  0  0  0  0  0  0  0  0  0  0
   15.1516  -19.2468   25.1737 N   0  0  0  0  0  0  0  0  0  0  0  0
   14.5253  -17.9431   25.1753 C   0  0  0  0  0  0  0  0  0  0  0  0
   13.0951  -18.0925   25.5827 C   0  0  0  0  0  0  0  0  0  0  0  0
   12.2488  -16.9029   25.2944 C   0  0  0  0  0  0  0  0  0  0  0  0
   10.8654  -16.9311   25.8475 C   0  0  2  0  0  0  0  0  0  0  0  0
   10.2853  -15.6169   25.5189 N   0  0  0  0  0  0  0  0  0  0  0  0
   10.8660  -17.1286   27.3233 C   0  0  0  0  0  0  0  0  0  0  0  0
   11.0022  -18.3993   27.8364 O   0  0  0  0  0  0  0  0  0  0  0  0
   10.7394  -16.1001   28.0305 O   0  0  0  0  0  0  0  0  0  0  0  0
  2  1  1  1
  2  3  1  0
  3  4  1  0
  4  5  1  0
  6  5  1  0
  7  6  1  0
  8  2  1  0
  9  8  2  0
 11 12  1  0
 11 10  1  0
 12 14  1  0
 12 13  1  1
 14 15  1  6
 15  8  1  0
 16 14  1  0
 16 26  1  0
 17 16  2  0
 18 19  1  0
 19 20  2  0
 21 19  1  0
 21 22  1  0
 23 22  1  0
 24 23  1  0
 25 26  1  0
 25 24  1  1
 27 25  1  0
 28 27  1  0
 29 27  2  0
M  END
$$$$
