KIR.pdb
     RDKit          3D

 29 28  0  0  1  0  0  0  0  0999 V2000
    4.7589  -18.0142   25.2431 N   0  0  0  0  0  0  0  0  0  0  0  0
    6.1557  -18.3577   25.4943 C   0  0  1  0  0  0  0  0  0  0  0  0
    6.5878  -19.2928   24.4407 C   0  0  0  0  0  0  0  0  0  0  0  0
    6.2991  -20.7261   24.5808 C   0  0  0  0  0  0  0  0  0  0  0  0
    7.3873  -21.6863   24.3839 C   0  0  0  0  0  0  0  0  0  0  0  0
    7.0955  -23.1211   24.5182 C   0  0  0  0  0  0  0  0  0  0  0  0
    8.3927  -23.8351   24.2576 N   0  0  0  0  0  0  0  0  0  0  0  0
    6.9957  -17.0982   25.2781 C   0  0  0  0  0  0  0  0  0  0  0  0
    6.6527  -16.2615   24.4142 O   0  0  0  0  0  0  0  0  0  0  0  0
    8.7047  -14.3203   29.4245 C   0  0  0  0  0  0  0  0  0  0  0  0
    8.2254  -14.6647   28.0086 C   0  0  0  0  0  0  0  0  0  0  0  0
    9.3444  -15.2757   27.2442 C   0  0  2  0  0  0  0  0  0  0  0  0
   10.6015  -14.4052   27.2779 C   0  0  0  0  0  0  0  0  0  0  0  0
    9.0461  -15.7411   25.8620 C   0  0  2  0  0  0  0  0  0  0  0  0
    8.1367  -16.9014   26.0506 N   0  0  0  0  0  0  0  0  0  0  0  0
   10.1665  -16.2402   25.0726 C   0  0  0  0  0  0  0  0  0  0  0  0
   10.7431  -17.3563   25.3465 O   0  0  0  0  0  0  0  0  0  0  0  0
    8.9609  -12.0859   18.7580 N   0  0  0  0  0  0  0  0  0  0  0  0
    8.4775  -13.4215   18.7314 C   0  0  0  0  0  0  0  0  0  0  0  0
    7.5220  -13.7511   17.9238 N   0  0  0  0  0  0  0  0  0  0  0  0
    9.0068  -14.4239   19.5690 N   0  0  0  0  0  0  0  0  0  0  0  0
   10.1919  -14.2166   20.3716 C   0  0  0  0  0  0  0  0  0  0  0  0
   10.5884  -15.5154   20.9960 C   0  0  0  0  0  0  0  0  0  0  0  0
   11.8074  -15.4393   21.8459 C   0  0  0  0  0  0  0  0  0  0  0  0
   11.7789  -16.2312   23.1079 C   0  0  2  0  0  0  0  0  0  0  0  0
   10.7456  -15.5965   23.9453 N   0  0  0  0  0  0  0  0  0  0  0  0
   13.0911  -16.1954   23.8106 C   0  0  0  0  0  0  0  0  0  0  0  0
   14.1654  -16.8692   23.2736 O   0  0  0  0  0  0  0  0  0  0  0  0
   13.1424  -15.5370   24.8773 O   0  0  0  0  0  0  0  0  0  0  0  0
  2  1  1  6
  2  3  1  0
  3  4  1  0
  4  5  1  0
  6  5  1  0
  7  6  1  0
  8  2  1  0
  9  8  2  0
 11 12  1  0
 11 10  1  0
 12 14  1  0
 12 13  1  6
 14 15  1  1
 15  8  1  0
 16 14  1  0
 16 26  1  0
 17 16  2  0
 18 19  1  0
 19 20  2  0
 21 19  1  0
 21 22  1  0
 23 22  1  0
 24 23  1  0
 25 26  1  0
 25 24  1  6
 27 25  1  0
 28 27  1  0
 29 27  2  0
M  END
$$$$
