KIR.pdb
     RDKit          3D

 29 28  0  0  1  0  0  0  0  0999 V2000
    5.1521  -19.4710   25.3425 N   0  0  0  0  0  0  0  0  0  0  0  0
    6.2464  -18.7322   25.9659 C   0  0  1  0  0  0  0  0  0  0  0  0
    7.4762  -19.5288   25.8102 C   0  0  0  0  0  0  0  0  0  0  0  0
    8.0576  -20.2005   26.9799 C   0  0  0  0  0  0  0  0  0  0  0  0
    7.4295  -21.4289   27.4711 C   0  0  0  0  0  0  0  0  0  0  0  0
    8.0727  -22.1582   28.5739 C   0  0  0  0  0  0  0  0  0  0  0  0
    7.1566  -23.3036   28.9045 N   0  0  0  0  0  0  0  0  0  0  0  0
    6.4860  -17.4648   25.1441 C   0  0  0  0  0  0  0  0  0  0  0  0
    6.0697  -17.3980   23.9668 O   0  0  0  0  0  0  0  0  0  0  0  0
    5.9536  -12.7708   27.6112 C   0  0  0  0  0  0  0  0  0  0  0  0
    5.9131  -13.7904   26.4658 C   0  0  0  0  0  0  0  0  0  0  0  0
    7.2984  -14.0684   26.0039 C   0  0  2  0  0  0  0  0  0  0  0  0
    8.0299  -12.7904   25.5904 C   0  0  0  0  0  0  0  0  0  0  0  0
    7.4710  -15.1427   24.9879 C   0  0  2  0  0  0  0  0  0  0  0  0
    7.1686  -16.3987   25.7227 N   0  0  0  0  0  0  0  0  0  0  0  0
    8.8068  -15.3217   24.4305 C   0  0  0  0  0  0  0  0  0  0  0  0
    9.6641  -16.1144   24.9690 O   0  0  0  0  0  0  0  0  0  0  0  0
    8.1875  -12.4360   18.2545 N   0  0  0  0  0  0  0  0  0  0  0  0
    8.7116  -13.3880   17.3393 C   0  0  0  0  0  0  0  0  0  0  0  0
    8.0149  -13.7549   16.3127 N   0  0  0  0  0  0  0  0  0  0  0  0
    9.9871  -13.9633   17.5090 N   0  0  0  0  0  0  0  0  0  0  0  0
   10.6980  -13.9134   18.7674 C   0  0  0  0  0  0  0  0  0  0  0  0
   10.2033  -15.0149   19.6482 C   0  0  0  0  0  0  0  0  0  0  0  0
    9.6153  -14.5530   20.9348 C   0  0  0  0  0  0  0  0  0  0  0  0
    9.8578  -15.4250   22.1185 C   0  0  2  0  0  0  0  0  0  0  0  0
    9.3202  -14.6798   23.2707 N   0  0  0  0  0  0  0  0  0  0  0  0
   11.3091  -15.6893   22.3202 C   0  0  0  0  0  0  0  0  0  0  0  0
   11.9396  -15.1893   23.4378 O   0  0  0  0  0  0  0  0  0  0  0  0
   11.8869  -16.3692   21.4382 O   0  0  0  0  0  0  0  0  0  0  0  0
  2  1  1  6
  2  3  1  0
  3  4  1  0
  4  5  1  0
  6  5  1  0
  7  6  1  0
  8  2  1  0
  9  8  2  0
 11 12  1  0
 11 10  1  0
 12 14  1  0
 12 13  1  6
 14 15  1  1
 15  8  1  0
 16 14  1  0
 16 26  1  0
 17 16  2  0
 18 19  1  0
 19 20  2  0
 21 19  1  0
 21 22  1  0
 23 22  1  0
 24 23  1  0
 25 26  1  0
 25 24  1  6
 27 25  1  0
 28 27  1  0
 29 27  2  0
M  END
$$$$
