KIR.pdb
     RDKit          3D

 29 28  0  0  1  0  0  0  0  0999 V2000
   10.1350  -17.4973   16.4594 N   0  0  0  0  0  0  0  0  0  0  0  0
    9.0762  -17.5557   17.4632 C   0  0  1  0  0  0  0  0  0  0  0  0
    8.9910  -18.9437   17.9503 C   0  0  0  0  0  0  0  0  0  0  0  0
    9.3506  -20.0498   17.0533 C   0  0  0  0  0  0  0  0  0  0  0  0
    9.1778  -21.4250   17.5265 C   0  0  0  0  0  0  0  0  0  0  0  0
    9.6271  -22.5292   16.6659 C   0  0  0  0  0  0  0  0  0  0  0  0
    9.4904  -23.7797   17.4893 N   0  0  0  0  0  0  0  0  0  0  0  0
    9.5293  -16.7363   18.6724 C   0  0  0  0  0  0  0  0  0  0  0  0
   10.7476  -16.6369   18.9363 O   0  0  0  0  0  0  0  0  0  0  0  0
    6.3451  -12.4969   19.7900 C   0  0  0  0  0  0  0  0  0  0  0  0
    7.6134  -13.3299   19.5645 C   0  0  0  0  0  0  0  0  0  0  0  0
    7.7959  -14.2682   20.7030 C   0  0  2  0  0  0  0  0  0  0  0  0
    7.7933  -13.5410   22.0485 C   0  0  0  0  0  0  0  0  0  0  0  0
    8.9265  -15.2322   20.6119 C   0  0  2  0  0  0  0  0  0  0  0  0
    8.5725  -16.1103   19.4662 N   0  0  0  0  0  0  0  0  0  0  0  0
    9.1315  -16.1252   21.7467 C   0  0  0  0  0  0  0  0  0  0  0  0
    8.2526  -16.9999   22.0868 O   0  0  0  0  0  0  0  0  0  0  0  0
   16.0067  -16.6721   21.1791 N   0  0  0  0  0  0  0  0  0  0  0  0
   16.2794  -16.4856   22.5608 C   0  0  0  0  0  0  0  0  0  0  0  0
   17.4029  -15.9665   22.9375 N   0  0  0  0  0  0  0  0  0  0  0  0
   15.3560  -16.8531   23.5603 N   0  0  0  0  0  0  0  0  0  0  0  0
   14.2435  -17.7395   23.2990 C   0  0  0  0  0  0  0  0  0  0  0  0
   12.9733  -17.0483   23.6766 C   0  0  0  0  0  0  0  0  0  0  0  0
   11.7405  -17.8257   23.3765 C   0  0  0  0  0  0  0  0  0  0  0  0
   10.4473  -17.1448   23.6675 C   0  0  2  0  0  0  0  0  0  0  0  0
   10.2753  -16.1539   22.5903 N   0  0  0  0  0  0  0  0  0  0  0  0
   10.4716  -16.4571   24.9878 C   0  0  0  0  0  0  0  0  0  0  0  0
   10.4730  -15.0807   25.0344 O   0  0  0  0  0  0  0  0  0  0  0  0
   10.4895  -17.1900   26.0058 O   0  0  0  0  0  0  0  0  0  0  0  0
  2  1  1  6
  2  3  1  0
  3  4  1  0
  4  5  1  0
  6  5  1  0
  7  6  1  0
  8  2  1  0
  9  8  2  0
 11 12  1  0
 11 10  1  0
 12 14  1  0
 12 13  1  1
 14 15  1  6
 15  8  1  0
 16 14  1  0
 16 26  1  0
 17 16  2  0
 18 19  1  0
 19 20  2  0
 21 19  1  0
 21 22  1  0
 23 22  1  0
 24 23  1  0
 25 26  1  0
 25 24  1  6
 27 25  1  0
 28 27  1  0
 29 27  2  0
M  END
$$$$
