KIR.pdb
     RDKit          3D

 29 28  0  0  1  0  0  0  0  0999 V2000
    9.8227  -15.6741   14.4425 N   0  0  0  0  0  0  0  0  0  0  0  0
    9.4447  -16.3089   15.7019 C   0  0  1  0  0  0  0  0  0  0  0  0
   10.2345  -17.5452   15.8399 C   0  0  0  0  0  0  0  0  0  0  0  0
    9.9596  -18.6837   14.9535 C   0  0  0  0  0  0  0  0  0  0  0  0
   11.0746  -19.5360   14.5352 C   0  0  0  0  0  0  0  0  0  0  0  0
   10.7915  -20.7021   13.6856 C   0  0  0  0  0  0  0  0  0  0  0  0
   12.1279  -21.2952   13.3353 N   0  0  0  0  0  0  0  0  0  0  0  0
    9.9153  -15.4061   16.8431 C   0  0  0  0  0  0  0  0  0  0  0  0
   10.9674  -14.7417   16.7183 O   0  0  0  0  0  0  0  0  0  0  0  0
    6.0739  -12.8725   19.5726 C   0  0  0  0  0  0  0  0  0  0  0  0
    7.4258  -13.1171   18.8903 C   0  0  0  0  0  0  0  0  0  0  0  0
    8.2465  -14.0255   19.7336 C   0  0  2  0  0  0  0  0  0  0  0  0
    8.4211  -13.4844   21.1534 C   0  0  0  0  0  0  0  0  0  0  0  0
    9.5438  -14.4873   19.1679 C   0  0  2  0  0  0  0  0  0  0  0  0
    9.1609  -15.3379   18.0108 N   0  0  0  0  0  0  0  0  0  0  0  0
   10.3781  -15.3282   20.0189 C   0  0  0  0  0  0  0  0  0  0  0  0
   10.0757  -16.5536   20.2640 O   0  0  0  0  0  0  0  0  0  0  0  0
   17.7708  -13.3225   19.6557 N   0  0  0  0  0  0  0  0  0  0  0  0
   17.5215  -14.7000   19.4136 C   0  0  0  0  0  0  0  0  0  0  0  0
   17.5159  -15.1568   18.2031 N   0  0  0  0  0  0  0  0  0  0  0  0
   17.2726  -15.6092   20.4614 N   0  0  0  0  0  0  0  0  0  0  0  0
   16.3005  -15.3472   21.4997 C   0  0  0  0  0  0  0  0  0  0  0  0
   15.0753  -16.1608   21.2338 C   0  0  0  0  0  0  0  0  0  0  0  0
   13.8963  -15.3666   20.7938 C   0  0  0  0  0  0  0  0  0  0  0  0
   12.5615  -15.8985   21.1883 C   0  0  2  0  0  0  0  0  0  0  0  0
   11.5828  -14.9313   20.6606 N   0  0  0  0  0  0  0  0  0  0  0  0
   12.4242  -16.0004   22.6674 C   0  0  0  0  0  0  0  0  0  0  0  0
   11.5123  -15.2006   23.3196 O   0  0  0  0  0  0  0  0  0  0  0  0
   13.1657  -16.8298   23.2473 O   0  0  0  0  0  0  0  0  0  0  0  0
  2  1  1  6
  2  3  1  0
  3  4  1  0
  4  5  1  0
  6  5  1  0
  7  6  1  0
  8  2  1  0
  9  8  2  0
 11 12  1  0
 11 10  1  0
 12 14  1  0
 12 13  1  1
 14 15  1  6
 15  8  1  0
 16 14  1  0
 16 26  1  0
 17 16  2  0
 18 19  1  0
 19 20  2  0
 21 19  1  0
 21 22  1  0
 23 22  1  0
 24 23  1  0
 25 26  1  0
 25 24  1  1
 27 25  1  0
 28 27  1  0
 29 27  2  0
M  END
$$$$
