KIR.pdb
     RDKit          3D

 29 28  0  0  1  0  0  0  0  0999 V2000
    7.3338  -14.4807   20.4987 N   0  0  0  0  0  0  0  0  0  0  0  0
    6.8920  -15.1416   21.7236 C   0  0  1  0  0  0  0  0  0  0  0  0
    7.1334  -16.5870   21.5697 C   0  0  0  0  0  0  0  0  0  0  0  0
    6.4538  -17.3251   20.4970 C   0  0  0  0  0  0  0  0  0  0  0  0
    5.4702  -18.3478   20.8594 C   0  0  0  0  0  0  0  0  0  0  0  0
    4.8491  -19.1407   19.7883 C   0  0  0  0  0  0  0  0  0  0  0  0
    5.8477  -20.2048   19.4267 N   0  0  0  0  0  0  0  0  0  0  0  0
    7.8202  -14.7010   22.8564 C   0  0  0  0  0  0  0  0  0  0  0  0
    9.0389  -14.5313   22.6326 O   0  0  0  0  0  0  0  0  0  0  0  0
    5.7452  -11.3480   26.5063 C   0  0  0  0  0  0  0  0  0  0  0  0
    6.7215  -12.0203   25.5326 C   0  0  0  0  0  0  0  0  0  0  0  0
    7.2335  -13.2780   26.1376 C   0  0  2  0  0  0  0  0  0  0  0  0
    7.8351  -13.0414   27.5236 C   0  0  0  0  0  0  0  0  0  0  0  0
    8.1283  -14.1192   25.2963 C   0  0  2  0  0  0  0  0  0  0  0  0
    7.2912  -14.4951   24.1272 N   0  0  0  0  0  0  0  0  0  0  0  0
    8.5927  -15.3764   25.8716 C   0  0  0  0  0  0  0  0  0  0  0  0
    7.7733  -16.2511   26.3369 O   0  0  0  0  0  0  0  0  0  0  0  0
   15.4037  -18.0396   22.4591 N   0  0  0  0  0  0  0  0  0  0  0  0
   14.9533  -16.8844   23.1527 C   0  0  0  0  0  0  0  0  0  0  0  0
   15.6998  -15.8294   23.2123 N   0  0  0  0  0  0  0  0  0  0  0  0
   13.6992  -16.8405   23.7946 N   0  0  0  0  0  0  0  0  0  0  0  0
   12.7430  -17.9215   23.7011 C   0  0  0  0  0  0  0  0  0  0  0  0
   11.4801  -17.5130   24.3883 C   0  0  0  0  0  0  0  0  0  0  0  0
   11.5682  -17.4993   25.8737 C   0  0  0  0  0  0  0  0  0  0  0  0
   10.3394  -17.0727   26.6008 C   0  0  2  0  0  0  0  0  0  0  0  0
    9.9475  -15.7906   25.9889 N   0  0  0  0  0  0  0  0  0  0  0  0
   10.5981  -16.8808   28.0544 C   0  0  0  0  0  0  0  0  0  0  0  0
   10.6247  -17.9767   28.8880 O   0  0  0  0  0  0  0  0  0  0  0  0
   10.7813  -15.7025   28.4445 O   0  0  0  0  0  0  0  0  0  0  0  0
  2  1  1  6
  2  3  1  0
  3  4  1  0
  4  5  1  0
  6  5  1  0
  7  6  1  0
  8  2  1  0
  9  8  2  0
 11 12  1  0
 11 10  1  0
 12 14  1  0
 12 13  1  1
 14 15  1  6
 15  8  1  0
 16 14  1  0
 16 26  1  0
 17 16  2  0
 18 19  1  0
 19 20  2  0
 21 19  1  0
 21 22  1  0
 23 22  1  0
 24 23  1  0
 25 26  1  0
 25 24  1  6
 27 25  1  0
 28 27  1  0
 29 27  2  0
M  END
$$$$
