TQF.pdb
     RDKit          3D

 28 28  0  0  1  0  0  0  0  0999 V2000
    8.1176  -11.9258   19.6087 C   0  0  0  0  0  0  0  0  0  0  0  0
    8.1272  -13.1076   20.5479 C   0  0  1  0  0  0  0  0  0  0  0  0
    7.0172  -13.2069   21.3475 O   0  0  0  0  0  0  0  0  0  0  0  0
    8.3834  -14.3625   19.7330 C   0  0  2  0  0  0  0  0  0  0  0  0
    7.2419  -14.5328   18.8266 N   0  0  0  0  0  0  0  0  0  0  0  0
    8.5298  -15.5513   20.6118 C   0  0  0  0  0  0  0  0  0  0  0  0
    7.5943  -16.3768   20.7240 O   0  0  0  0  0  0  0  0  0  0  0  0
   13.7602  -19.1099   23.0049 N   0  0  0  0  0  0  0  0  0  0  0  0
   12.4773  -18.8756   23.5505 C   0  0  0  0  0  0  0  0  0  0  0  0
   12.4189  -18.5858   24.7716 O   0  0  0  0  0  0  0  0  0  0  0  0
   11.2107  -18.9457   22.7852 C   0  0  0  0  0  0  0  0  0  0  0  0
   11.0233  -17.7164   21.9307 C   0  0  0  0  0  0  0  0  0  0  0  0
    9.8287  -16.8811   22.3195 C   0  0  2  0  0  0  0  0  0  0  0  0
    9.7405  -15.7984   21.3574 N   0  0  0  0  0  0  0  0  0  0  0  0
    9.8729  -16.3687   23.6842 C   0  0  0  0  0  0  0  0  0  0  0  0
   10.6100  -15.4093   24.0597 O   0  0  0  0  0  0  0  0  0  0  0  0
    9.0656  -16.9310   24.7053 N   0  0  0  0  0  0  0  0  0  0  0  0
    9.0562  -16.3878   26.0865 C   0  0  1  0  0  0  0  0  0  0  0  0
    7.6089  -16.0404   26.4364 C   0  0  0  0  0  0  0  0  0  0  0  0
    7.4133  -14.5842   26.2524 C   0  0  0  0  0  0  0  0  0  0  0  0
    8.2284  -13.6183   26.7916 C   0  0  0  0  0  0  0  0  0  0  0  0
    7.9795  -12.2920   26.5621 C   0  0  0  0  0  0  0  0  0  0  0  0
    6.9181  -11.8195   25.7914 C   0  0  0  0  0  0  0  0  0  0  0  0
    6.1065  -12.8169   25.2570 C   0  0  0  0  0  0  0  0  0  0  0  0
    6.3333  -14.1486   25.4704 C   0  0  0  0  0  0  0  0  0  0  0  0
    9.5075  -17.4666   26.9676 C   0  0  0  0  0  0  0  0  0  0  0  0
    9.5549  -18.6437   26.5520 O   0  0  0  0  0  0  0  0  0  0  0  0
    9.8859  -17.1984   28.2646 O   0  0  0  0  0  0  0  0  0  0  0  0
  2  1  1  6
  3  2  1  0
  4  2  1  0
  4  5  1  6
  6  4  1  0
  6 14  1  0
  7  6  2  0
  9 10  2  0
  9  8  1  0
 11  9  1  0
 13 12  1  6
 12 11  1  0
 14 13  1  0
 15 16  2  0
 15 13  1  0
 17 15  1  0
 18 17  1  0
 18 26  1  0
 18 19  1  1
 20 25  2  0
 20 19  1  0
 21 20  1  0
 22 23  1  0
 22 21  2  0
 23 24  2  0
 24 25  1  0
 26 28  1  0
 27 26  2  0
M  END
$$$$
