TQF.pdb
     RDKit          3D

 28 28  0  0  1  0  0  0  0  0999 V2000
    9.0954  -12.7925   19.5228 C   0  0  0  0  0  0  0  0  0  0  0  0
    8.1601  -13.4337   18.5264 C   0  0  1  0  0  0  0  0  0  0  0  0
    7.9648  -12.7057   17.3804 O   0  0  0  0  0  0  0  0  0  0  0  0
    8.6476  -14.8453   18.2545 C   0  0  2  0  0  0  0  0  0  0  0  0
    7.6943  -15.4631   17.3254 N   0  0  0  0  0  0  0  0  0  0  0  0
    8.7329  -15.6339   19.5106 C   0  0  0  0  0  0  0  0  0  0  0  0
    7.6953  -15.9245   20.1493 O   0  0  0  0  0  0  0  0  0  0  0  0
   13.7846  -19.0811   21.3554 N   0  0  0  0  0  0  0  0  0  0  0  0
   12.9830  -18.9777   22.5151 C   0  0  0  0  0  0  0  0  0  0  0  0
   13.4276  -19.5018   23.5669 O   0  0  0  0  0  0  0  0  0  0  0  0
   11.6683  -18.2971   22.5726 C   0  0  0  0  0  0  0  0  0  0  0  0
   11.3679  -17.5849   21.2768 C   0  0  0  0  0  0  0  0  0  0  0  0
   10.0819  -16.7964   21.2994 C   0  0  2  0  0  0  0  0  0  0  0  0
    9.9976  -16.0915   20.0339 N   0  0  0  0  0  0  0  0  0  0  0  0
    9.9627  -15.8745   22.4232 C   0  0  0  0  0  0  0  0  0  0  0  0
   10.5466  -14.7521   22.4869 O   0  0  0  0  0  0  0  0  0  0  0  0
    9.1582  -16.1890   23.5477 N   0  0  0  0  0  0  0  0  0  0  0  0
    8.8461  -15.1844   24.5947 C   0  0  1  0  0  0  0  0  0  0  0  0
    7.5881  -14.4347   24.1553 C   0  0  0  0  0  0  0  0  0  0  0  0
    7.2317  -13.4518   25.2038 C   0  0  0  0  0  0  0  0  0  0  0  0
    6.2309  -13.6325   26.1278 C   0  0  0  0  0  0  0  0  0  0  0  0
    5.9747  -12.6740   27.0708 C   0  0  0  0  0  0  0  0  0  0  0  0
    6.6779  -11.4746   27.1749 C   0  0  0  0  0  0  0  0  0  0  0  0
    7.6859  -11.3146   26.2276 C   0  0  0  0  0  0  0  0  0  0  0  0
    7.9625  -12.2566   25.2755 C   0  0  0  0  0  0  0  0  0  0  0  0
    8.5464  -15.9296   25.8190 C   0  0  0  0  0  0  0  0  0  0  0  0
    8.7085  -15.3981   26.9378 O   0  0  0  0  0  0  0  0  0  0  0  0
    8.0819  -17.2246   25.7536 O   0  0  0  0  0  0  0  0  0  0  0  0
  2  1  1  1
  3  2  1  0
  4  2  1  0
  4  5  1  6
  6  4  1  0
  6 14  1  0
  7  6  2  0
  9 10  2  0
  9  8  1  0
 11  9  1  0
 13 12  1  1
 12 11  1  0
 14 13  1  0
 15 16  2  0
 15 13  1  0
 17 15  1  0
 18 17  1  0
 18 26  1  0
 18 19  1  6
 20 25  2  0
 20 19  1  0
 21 20  1  0
 22 23  1  0
 22 21  2  0
 23 24  2  0
 24 25  1  0
 26 28  1  0
 27 26  2  0
M  END
$$$$
