TQF.pdb
     RDKit          3D

 28 28  0  0  1  0  0  0  0  0999 V2000
    9.0514  -14.0281   18.5062 C   0  0  0  0  0  0  0  0  0  0  0  0
    8.7396  -14.6270   19.8564 C   0  0  1  0  0  0  0  0  0  0  0  0
    9.4486  -14.0827   20.8967 O   0  0  0  0  0  0  0  0  0  0  0  0
    7.2377  -14.5679   20.0692 C   0  0  2  0  0  0  0  0  0  0  0  0
    6.8424  -13.1570   19.9889 N   0  0  0  0  0  0  0  0  0  0  0  0
    6.8607  -15.1380   21.3882 C   0  0  0  0  0  0  0  0  0  0  0  0
    6.5489  -14.3850   22.3394 O   0  0  0  0  0  0  0  0  0  0  0  0
    6.5506  -21.7556   24.6787 N   0  0  0  0  0  0  0  0  0  0  0  0
    5.9898  -20.7944   23.8071 C   0  0  0  0  0  0  0  0  0  0  0  0
    5.4154  -21.2234   22.7752 O   0  0  0  0  0  0  0  0  0  0  0  0
    6.0314  -19.3302   24.0286 C   0  0  0  0  0  0  0  0  0  0  0  0
    6.3366  -18.5951   22.7468 C   0  0  0  0  0  0  0  0  0  0  0  0
    6.5367  -17.1109   22.9290 C   0  0  2  0  0  0  0  0  0  0  0  0
    6.8368  -16.5623   21.6196 N   0  0  0  0  0  0  0  0  0  0  0  0
    7.5704  -16.7586   23.8956 C   0  0  0  0  0  0  0  0  0  0  0  0
    8.7998  -16.6455   23.6120 O   0  0  0  0  0  0  0  0  0  0  0  0
    7.2503  -16.5119   25.2547 N   0  0  0  0  0  0  0  0  0  0  0  0
    8.2770  -16.0839   26.2374 C   0  0  1  0  0  0  0  0  0  0  0  0
    7.5809  -15.2119   27.2827 C   0  0  0  0  0  0  0  0  0  0  0  0
    7.4019  -13.8528   26.7230 C   0  0  0  0  0  0  0  0  0  0  0  0
    8.4056  -12.9206   26.6149 C   0  0  0  0  0  0  0  0  0  0  0  0
    8.1540  -11.6885   26.0745 C   0  0  0  0  0  0  0  0  0  0  0  0
    6.9057  -11.2834   25.6036 C   0  0  0  0  0  0  0  0  0  0  0  0
    5.9056  -12.2447   25.7246 C   0  0  0  0  0  0  0  0  0  0  0  0
    6.1305  -13.4828   26.2601 C   0  0  0  0  0  0  0  0  0  0  0  0
    8.7691  -17.2988   26.8901 C   0  0  0  0  0  0  0  0  0  0  0  0
    8.2051  -18.3955   26.6912 O   0  0  0  0  0  0  0  0  0  0  0  0
    9.8593  -17.2488   27.7303 O   0  0  0  0  0  0  0  0  0  0  0  0
  2  1  1  6
  3  2  1  0
  4  2  1  0
  4  5  1  1
  6  4  1  0
  6 14  1  0
  7  6  2  0
  9 10  2  0
  9  8  1  0
 11  9  1  0
 13 12  1  6
 12 11  1  0
 14 13  1  0
 15 16  2  0
 15 13  1  0
 17 15  1  0
 18 17  1  0
 18 26  1  0
 18 19  1  1
 20 25  2  0
 20 19  1  0
 21 20  1  0
 22 23  1  0
 22 21  2  0
 23 24  2  0
 24 25  1  0
 26 28  1  0
 27 26  2  0
M  END
$$$$
