TQF.pdb
     RDKit          3D

 28 28  0  0  1  0  0  0  0  0999 V2000
    9.7413  -19.2823   17.6209 C   0  0  0  0  0  0  0  0  0  0  0  0
    8.8272  -19.4370   18.8122 C   0  0  1  0  0  0  0  0  0  0  0  0
    8.2838  -20.6885   18.9527 O   0  0  0  0  0  0  0  0  0  0  0  0
    9.5741  -18.9741   20.0500 C   0  0  2  0  0  0  0  0  0  0  0  0
    8.6554  -19.1053   21.1867 N   0  0  0  0  0  0  0  0  0  0  0  0
   10.0257  -17.5659   19.9079 C   0  0  0  0  0  0  0  0  0  0  0  0
   10.5468  -17.1712   18.8394 O   0  0  0  0  0  0  0  0  0  0  0  0
    8.9845  -12.4246   17.8475 N   0  0  0  0  0  0  0  0  0  0  0  0
    8.3339  -13.6500   18.1184 C   0  0  0  0  0  0  0  0  0  0  0  0
    8.3036  -14.4989   17.1927 O   0  0  0  0  0  0  0  0  0  0  0  0
    7.6944  -13.9971   19.4090 C   0  0  0  0  0  0  0  0  0  0  0  0
    8.1823  -15.3319   19.9156 C   0  0  0  0  0  0  0  0  0  0  0  0
    9.4516  -15.2483   20.7267 C   0  0  2  0  0  0  0  0  0  0  0  0
    9.8801  -16.6112   20.9803 N   0  0  0  0  0  0  0  0  0  0  0  0
    9.3208  -14.4986   21.9708 C   0  0  0  0  0  0  0  0  0  0  0  0
    8.7944  -13.3495   22.0563 O   0  0  0  0  0  0  0  0  0  0  0  0
    9.7886  -15.0293   23.1996 N   0  0  0  0  0  0  0  0  0  0  0  0
    9.2564  -14.5689   24.5064 C   0  0  1  0  0  0  0  0  0  0  0  0
    7.8905  -13.9315   24.2503 C   0  0  0  0  0  0  0  0  0  0  0  0
    7.4147  -13.3096   25.5070 C   0  0  0  0  0  0  0  0  0  0  0  0
    6.1582  -13.4890   26.0336 C   0  0  0  0  0  0  0  0  0  0  0  0
    5.8043  -12.8826   27.2085 C   0  0  0  0  0  0  0  0  0  0  0  0
    6.6528  -12.0599   27.9482 C   0  0  0  0  0  0  0  0  0  0  0  0
    7.9194  -11.8930   27.3940 C   0  0  0  0  0  0  0  0  0  0  0  0
    8.2983  -12.4878   26.2222 C   0  0  0  0  0  0  0  0  0  0  0  0
    9.0708  -15.7643   25.3315 C   0  0  0  0  0  0  0  0  0  0  0  0
    9.0416  -15.6739   26.5771 O   0  0  0  0  0  0  0  0  0  0  0  0
    8.9253  -17.0026   24.7462 O   0  0  0  0  0  0  0  0  0  0  0  0
  2  1  1  6
  3  2  1  0
  4  2  1  0
  4  5  1  1
  6  4  1  0
  6 14  1  0
  7  6  2  0
  9 10  2  0
  9  8  1  0
 11  9  1  0
 13 12  1  1
 12 11  1  0
 14 13  1  0
 15 16  2  0
 15 13  1  0
 17 15  1  0
 18 17  1  0
 18 26  1  0
 18 19  1  6
 20 25  2  0
 20 19  1  0
 21 20  1  0
 22 23  1  0
 22 21  2  0
 23 24  2  0
 24 25  1  0
 26 28  1  0
 27 26  2  0
M  END
$$$$
