TQF.pdb
     RDKit          3D

 28 28  0  0  1  0  0  0  0  0999 V2000
    8.5807  -12.6531   20.9847 C   0  0  0  0  0  0  0  0  0  0  0  0
    7.9694  -13.1225   19.6867 C   0  0  1  0  0  0  0  0  0  0  0  0
    7.8433  -12.1457   18.7321 O   0  0  0  0  0  0  0  0  0  0  0  0
    8.7522  -14.3283   19.1993 C   0  0  2  0  0  0  0  0  0  0  0  0
    8.2371  -14.6723   17.8690 N   0  0  0  0  0  0  0  0  0  0  0  0
    8.5988  -15.4777   20.1281 C   0  0  0  0  0  0  0  0  0  0  0  0
    8.1054  -16.5568   19.7265 O   0  0  0  0  0  0  0  0  0  0  0  0
   14.4183  -17.8548   21.2314 N   0  0  0  0  0  0  0  0  0  0  0  0
   13.0608  -17.9614   20.8519 C   0  0  0  0  0  0  0  0  0  0  0  0
   12.8227  -18.2439   19.6510 O   0  0  0  0  0  0  0  0  0  0  0  0
   11.9123  -17.7671   21.7673 C   0  0  0  0  0  0  0  0  0  0  0  0
   11.0156  -16.6535   21.2853 C   0  0  0  0  0  0  0  0  0  0  0  0
    9.7826  -16.4552   22.1317 C   0  0  2  0  0  0  0  0  0  0  0  0
    9.0100  -15.3965   21.5091 N   0  0  0  0  0  0  0  0  0  0  0  0
   10.0576  -16.1514   23.5313 C   0  0  0  0  0  0  0  0  0  0  0  0
   11.2165  -16.1457   24.0430 O   0  0  0  0  0  0  0  0  0  0  0  0
    9.0102  -15.8318   24.4320 N   0  0  0  0  0  0  0  0  0  0  0  0
    9.2139  -15.8267   25.9022 C   0  0  1  0  0  0  0  0  0  0  0  0
    7.8665  -15.5153   26.5542 C   0  0  0  0  0  0  0  0  0  0  0  0
    7.4999  -14.1157   26.2395 C   0  0  0  0  0  0  0  0  0  0  0  0
    8.3780  -13.0591   26.2678 C   0  0  0  0  0  0  0  0  0  0  0  0
    7.9555  -11.7961   25.9521 C   0  0  0  0  0  0  0  0  0  0  0  0
    6.6474  -11.4794   25.5880 C   0  0  0  0  0  0  0  0  0  0  0  0
    5.7769  -12.5661   25.5674 C   0  0  0  0  0  0  0  0  0  0  0  0
    6.1734  -13.8375   25.8778 C   0  0  0  0  0  0  0  0  0  0  0  0
    9.6160  -17.1838   26.2775 C   0  0  0  0  0  0  0  0  0  0  0  0
    9.5632  -18.1118   25.4431 O   0  0  0  0  0  0  0  0  0  0  0  0
   10.0580  -17.4547   27.5536 O   0  0  0  0  0  0  0  0  0  0  0  0
  2  1  1  1
  3  2  1  0
  4  2  1  0
  4  5  1  6
  6  4  1  0
  6 14  1  0
  7  6  2  0
  9 10  2  0
  9  8  1  0
 11  9  1  0
 13 12  1  6
 12 11  1  0
 14 13  1  0
 15 16  2  0
 15 13  1  0
 17 15  1  0
 18 17  1  0
 18 26  1  0
 18 19  1  1
 20 25  2  0
 20 19  1  0
 21 20  1  0
 22 23  1  0
 22 21  2  0
 23 24  2  0
 24 25  1  0
 26 28  1  0
 27 26  2  0
M  END
$$$$
