TQF.pdb
     RDKit          3D

 28 28  0  0  1  0  0  0  0  0999 V2000
   12.4607  -18.9435   18.1605 C   0  0  0  0  0  0  0  0  0  0  0  0
   11.8155  -18.2701   19.3475 C   0  0  1  0  0  0  0  0  0  0  0  0
   12.3059  -17.0201   19.6274 O   0  0  0  0  0  0  0  0  0  0  0  0
   10.3113  -18.2833   19.1440 C   0  0  2  0  0  0  0  0  0  0  0  0
   10.0302  -17.5119   17.9277 N   0  0  0  0  0  0  0  0  0  0  0  0
    9.6077  -17.6886   20.3095 C   0  0  0  0  0  0  0  0  0  0  0  0
    9.2366  -16.4925   20.2842 O   0  0  0  0  0  0  0  0  0  0  0  0
    5.9571  -20.9361   24.2387 N   0  0  0  0  0  0  0  0  0  0  0  0
    5.9796  -19.6348   24.7904 C   0  0  0  0  0  0  0  0  0  0  0  0
    5.1682  -19.3925   25.7186 O   0  0  0  0  0  0  0  0  0  0  0  0
    6.8889  -18.5501   24.3532 C   0  0  0  0  0  0  0  0  0  0  0  0
    7.6525  -18.9473   23.1140 C   0  0  0  0  0  0  0  0  0  0  0  0
    8.5991  -17.8837   22.6151 C   0  0  2  0  0  0  0  0  0  0  0  0
    9.3263  -18.4573   21.4981 N   0  0  0  0  0  0  0  0  0  0  0  0
    9.5131  -17.3701   23.6289 C   0  0  0  0  0  0  0  0  0  0  0  0
   10.6243  -17.9042   23.9200 O   0  0  0  0  0  0  0  0  0  0  0  0
    9.2034  -16.2031   24.3722 N   0  0  0  0  0  0  0  0  0  0  0  0
   10.1129  -15.6756   25.4197 C   0  0  1  0  0  0  0  0  0  0  0  0
   10.0409  -14.1493   25.3682 C   0  0  0  0  0  0  0  0  0  0  0  0
    8.6315  -13.7348   25.5540 C   0  0  0  0  0  0  0  0  0  0  0  0
    7.6809  -13.7530   24.5620 C   0  0  0  0  0  0  0  0  0  0  0  0
    6.3958  -13.3613   24.8240 C   0  0  0  0  0  0  0  0  0  0  0  0
    5.9524  -12.9251   26.0719 C   0  0  0  0  0  0  0  0  0  0  0  0
    6.9338  -12.9150   27.0598 C   0  0  0  0  0  0  0  0  0  0  0  0
    8.2243  -13.3016   26.8245 C   0  0  0  0  0  0  0  0  0  0  0  0
    9.5822  -16.1287   26.7070 C   0  0  0  0  0  0  0  0  0  0  0  0
   10.1641  -15.8290   27.7709 O   0  0  0  0  0  0  0  0  0  0  0  0
    8.4356  -16.8899   26.7620 O   0  0  0  0  0  0  0  0  0  0  0  0
  2  1  1  6
  3  2  1  0
  4  2  1  0
  4  5  1  6
  6  4  1  0
  6 14  1  0
  7  6  2  0
  9 10  2  0
  9  8  1  0
 11  9  1  0
 13 12  1  1
 12 11  1  0
 14 13  1  0
 15 16  2  0
 15 13  1  0
 17 15  1  0
 18 17  1  0
 18 26  1  0
 18 19  1  1
 20 25  2  0
 20 19  1  0
 21 20  1  0
 22 23  1  0
 22 21  2  0
 23 24  2  0
 24 25  1  0
 26 28  1  0
 27 26  2  0
M  END
$$$$
