TQF.pdb
     RDKit          3D

 28 28  0  0  1  0  0  0  0  0999 V2000
    6.4374  -18.6049   25.8501 C   0  0  0  0  0  0  0  0  0  0  0  0
    6.7883  -19.8603   25.0886 C   0  0  1  0  0  0  0  0  0  0  0  0
    6.1235  -20.9840   25.5085 O   0  0  0  0  0  0  0  0  0  0  0  0
    6.6080  -19.5854   23.6066 C   0  0  2  0  0  0  0  0  0  0  0  0
    6.7414  -20.8685   22.9071 N   0  0  0  0  0  0  0  0  0  0  0  0
    7.6222  -18.6181   23.1139 C   0  0  0  0  0  0  0  0  0  0  0  0
    8.7842  -18.9995   22.8431 O   0  0  0  0  0  0  0  0  0  0  0  0
    6.2984  -13.2837   20.0200 N   0  0  0  0  0  0  0  0  0  0  0  0
    7.6981  -13.2335   20.2109 C   0  0  0  0  0  0  0  0  0  0  0  0
    8.3227  -12.3126   19.6275 O   0  0  0  0  0  0  0  0  0  0  0  0
    8.4689  -14.1830   21.0469 C   0  0  0  0  0  0  0  0  0  0  0  0
    7.5732  -15.2530   21.6207 C   0  0  0  0  0  0  0  0  0  0  0  0
    8.3054  -16.2816   22.4465 C   0  0  2  0  0  0  0  0  0  0  0  0
    7.3101  -17.2214   22.9281 N   0  0  0  0  0  0  0  0  0  0  0  0
    9.0797  -15.7251   23.5500 C   0  0  0  0  0  0  0  0  0  0  0  0
   10.1431  -15.0523   23.4038 O   0  0  0  0  0  0  0  0  0  0  0  0
    8.6742  -15.9082   24.8962 N   0  0  0  0  0  0  0  0  0  0  0  0
    9.5220  -15.4787   26.0363 C   0  0  1  0  0  0  0  0  0  0  0  0
    8.5960  -14.9114   27.1126 C   0  0  0  0  0  0  0  0  0  0  0  0
    8.0632  -13.6122   26.6427 C   0  0  0  0  0  0  0  0  0  0  0  0
    6.7429  -13.3786   26.3425 C   0  0  0  0  0  0  0  0  0  0  0  0
    6.3342  -12.1415   25.9231 C   0  0  0  0  0  0  0  0  0  0  0  0
    7.1869  -11.0493   25.7682 C   0  0  0  0  0  0  0  0  0  0  0  0
    8.5191  -11.3112   26.0776 C   0  0  0  0  0  0  0  0  0  0  0  0
    8.9533  -12.5376   26.4990 C   0  0  0  0  0  0  0  0  0  0  0  0
   10.1685  -16.6840   26.5592 C   0  0  0  0  0  0  0  0  0  0  0  0
   10.8916  -16.6225   27.5759 O   0  0  0  0  0  0  0  0  0  0  0  0
    9.9876  -17.9001   25.9385 O   0  0  0  0  0  0  0  0  0  0  0  0
  2  1  1  1
  3  2  1  0
  4  2  1  0
  4  5  1  6
  6  4  1  0
  6 14  1  0
  7  6  2  0
  9 10  2  0
  9  8  1  0
 11  9  1  0
 13 12  1  1
 12 11  1  0
 14 13  1  0
 15 16  2  0
 15 13  1  0
 17 15  1  0
 18 17  1  0
 18 26  1  0
 18 19  1  1
 20 25  2  0
 20 19  1  0
 21 20  1  0
 22 23  1  0
 22 21  2  0
 23 24  2  0
 24 25  1  0
 26 28  1  0
 27 26  2  0
M  END
$$$$
