TQF.pdb
     RDKit          3D

 28 28  0  0  1  0  0  0  0  0999 V2000
    9.8567  -13.8740   21.1713 C   0  0  0  0  0  0  0  0  0  0  0  0
    8.7225  -13.3140   20.3474 C   0  0  1  0  0  0  0  0  0  0  0  0
    9.1151  -12.6855   19.1933 O   0  0  0  0  0  0  0  0  0  0  0  0
    7.7165  -14.4243   20.1034 C   0  0  2  0  0  0  0  0  0  0  0  0
    6.6896  -13.8902   19.2014 N   0  0  0  0  0  0  0  0  0  0  0  0
    7.1021  -14.8799   21.3770 C   0  0  0  0  0  0  0  0  0  0  0  0
    6.1073  -14.2839   21.8507 O   0  0  0  0  0  0  0  0  0  0  0  0
    6.2435  -20.7984   21.9162 N   0  0  0  0  0  0  0  0  0  0  0  0
    5.5754  -19.7477   21.2470 C   0  0  0  0  0  0  0  0  0  0  0  0
    4.8386  -20.0625   20.2792 O   0  0  0  0  0  0  0  0  0  0  0  0
    5.6831  -18.3152   21.6091 C   0  0  0  0  0  0  0  0  0  0  0  0
    6.6813  -18.1093   22.7216 C   0  0  0  0  0  0  0  0  0  0  0  0
    6.8392  -16.6682   23.1389 C   0  0  2  0  0  0  0  0  0  0  0  0
    7.6194  -16.0133   22.1054 N   0  0  0  0  0  0  0  0  0  0  0  0
    7.4486  -16.4866   24.4515 C   0  0  0  0  0  0  0  0  0  0  0  0
    7.0359  -17.0465   25.5102 O   0  0  0  0  0  0  0  0  0  0  0  0
    8.5773  -15.6465   24.6262 N   0  0  0  0  0  0  0  0  0  0  0  0
    9.2763  -15.5328   25.9306 C   0  0  1  0  0  0  0  0  0  0  0  0
    8.2089  -15.3903   27.0159 C   0  0  0  0  0  0  0  0  0  0  0  0
    7.6572  -14.0173   26.9607 C   0  0  0  0  0  0  0  0  0  0  0  0
    8.4199  -12.8790   26.8569 C   0  0  0  0  0  0  0  0  0  0  0  0
    7.8255  -11.6472   26.8019 C   0  0  0  0  0  0  0  0  0  0  0  0
    6.4468  -11.4438   26.8451 C   0  0  0  0  0  0  0  0  0  0  0  0
    5.6960  -12.6117   26.9512 C   0  0  0  0  0  0  0  0  0  0  0  0
    6.2648  -13.8542   27.0074 C   0  0  0  0  0  0  0  0  0  0  0  0
    9.9923  -16.7932   26.1372 C   0  0  0  0  0  0  0  0  0  0  0  0
   10.6047  -17.0042   27.2054 O   0  0  0  0  0  0  0  0  0  0  0  0
    9.9998  -17.7621   25.1583 O   0  0  0  0  0  0  0  0  0  0  0  0
  2  1  1  6
  3  2  1  0
  4  2  1  0
  4  5  1  6
  6  4  1  0
  6 14  1  0
  7  6  2  0
  9 10  2  0
  9  8  1  0
 11  9  1  0
 13 12  1  6
 12 11  1  0
 14 13  1  0
 15 16  2  0
 15 13  1  0
 17 15  1  0
 18 17  1  0
 18 26  1  0
 18 19  1  1
 20 25  2  0
 20 19  1  0
 21 20  1  0
 22 23  1  0
 22 21  2  0
 23 24  2  0
 24 25  1  0
 26 28  1  0
 27 26  2  0
M  END
$$$$
