TQF.pdb
     RDKit          3D

 28 28  0  0  1  0  0  0  0  0999 V2000
    9.6047  -12.2567   17.7203 C   0  0  0  0  0  0  0  0  0  0  0  0
    9.3416  -13.1086   18.9384 C   0  0  1  0  0  0  0  0  0  0  0  0
    8.5372  -12.5199   19.8805 O   0  0  0  0  0  0  0  0  0  0  0  0
    8.8200  -14.4565   18.4743 C   0  0  2  0  0  0  0  0  0  0  0  0
    7.5308  -14.2201   17.8144 N   0  0  0  0  0  0  0  0  0  0  0  0
    8.6538  -15.3895   19.6184 C   0  0  0  0  0  0  0  0  0  0  0  0
    7.5425  -15.5085   20.1841 O   0  0  0  0  0  0  0  0  0  0  0  0
   12.7351  -20.0289   21.2525 N   0  0  0  0  0  0  0  0  0  0  0  0
   11.7865  -19.9942   22.3000 C   0  0  0  0  0  0  0  0  0  0  0  0
   11.8823  -20.8776   23.1883 O   0  0  0  0  0  0  0  0  0  0  0  0
   10.7001  -18.9943   22.4200 C   0  0  0  0  0  0  0  0  0  0  0  0
   10.7233  -18.0251   21.2639 C   0  0  0  0  0  0  0  0  0  0  0  0
    9.6172  -17.0000   21.3064 C   0  0  2  0  0  0  0  0  0  0  0  0
    9.7512  -16.1858   20.1129 N   0  0  0  0  0  0  0  0  0  0  0  0
    9.6104  -16.1736   22.5081 C   0  0  0  0  0  0  0  0  0  0  0  0
   10.5295  -15.3575   22.8147 O   0  0  0  0  0  0  0  0  0  0  0  0
    8.5387  -16.2349   23.4344 N   0  0  0  0  0  0  0  0  0  0  0  0
    8.4278  -15.2856   24.5699 C   0  0  1  0  0  0  0  0  0  0  0  0
    7.1573  -14.4612   24.3606 C   0  0  0  0  0  0  0  0  0  0  0  0
    6.9976  -13.5373   25.5067 C   0  0  0  0  0  0  0  0  0  0  0  0
    6.0676  -13.6950   26.5058 C   0  0  0  0  0  0  0  0  0  0  0  0
    5.9955  -12.7965   27.5358 C   0  0  0  0  0  0  0  0  0  0  0  0
    6.8261  -11.6835   27.6596 C   0  0  0  0  0  0  0  0  0  0  0  0
    7.7591  -11.5452   26.6351 C   0  0  0  0  0  0  0  0  0  0  0  0
    7.8524  -12.4286   25.5953 C   0  0  0  0  0  0  0  0  0  0  0  0
    8.2708  -16.0930   25.7814 C   0  0  0  0  0  0  0  0  0  0  0  0
    8.8696  -15.7791   26.8318 O   0  0  0  0  0  0  0  0  0  0  0  0
    7.4612  -17.2073   25.7793 O   0  0  0  0  0  0  0  0  0  0  0  0
  2  1  1  6
  3  2  1  0
  4  2  1  0
  4  5  1  1
  6  4  1  0
  6 14  1  0
  7  6  2  0
  9 10  2  0
  9  8  1  0
 11  9  1  0
 13 12  1  1
 12 11  1  0
 14 13  1  0
 15 16  2  0
 15 13  1  0
 17 15  1  0
 18 17  1  0
 18 26  1  0
 18 19  1  6
 20 25  2  0
 20 19  1  0
 21 20  1  0
 22 23  1  0
 22 21  2  0
 23 24  2  0
 24 25  1  0
 26 28  1  0
 27 26  2  0
M  END
$$$$
