TQF.pdb
     RDKit          3D

 28 28  0  0  1  0  0  0  0  0999 V2000
    9.7874  -13.5231   17.3445 C   0  0  0  0  0  0  0  0  0  0  0  0
    9.5651  -14.0930   18.7246 C   0  0  1  0  0  0  0  0  0  0  0  0
   10.1480  -13.3740   19.7368 O   0  0  0  0  0  0  0  0  0  0  0  0
    8.0735  -14.2924   18.9238 C   0  0  2  0  0  0  0  0  0  0  0  0
    7.4355  -12.9794   18.7747 N   0  0  0  0  0  0  0  0  0  0  0  0
    7.7834  -14.8607   20.2655 C   0  0  0  0  0  0  0  0  0  0  0  0
    7.4226  -14.1158   21.2058 O   0  0  0  0  0  0  0  0  0  0  0  0
    5.0590  -20.0669   22.6792 N   0  0  0  0  0  0  0  0  0  0  0  0
    5.1512  -18.9774   21.7832 C   0  0  0  0  0  0  0  0  0  0  0  0
    4.1754  -18.1871   21.7407 O   0  0  0  0  0  0  0  0  0  0  0  0
    6.3112  -18.7069   20.9023 C   0  0  0  0  0  0  0  0  0  0  0  0
    7.5229  -18.3059   21.7070 C   0  0  0  0  0  0  0  0  0  0  0  0
    7.6848  -16.8140   21.8612 C   0  0  2  0  0  0  0  0  0  0  0  0
    7.9019  -16.2741   20.5319 N   0  0  0  0  0  0  0  0  0  0  0  0
    8.7538  -16.4169   22.7704 C   0  0  0  0  0  0  0  0  0  0  0  0
    9.9471  -16.1923   22.4094 O   0  0  0  0  0  0  0  0  0  0  0  0
    8.5129  -16.2514   24.1578 N   0  0  0  0  0  0  0  0  0  0  0  0
    9.5963  -15.8860   25.1042 C   0  0  1  0  0  0  0  0  0  0  0  0
    9.7700  -14.3681   25.0437 C   0  0  0  0  0  0  0  0  0  0  0  0
    8.5358  -13.7291   25.5545 C   0  0  0  0  0  0  0  0  0  0  0  0
    7.4255  -13.4655   24.7891 C   0  0  0  0  0  0  0  0  0  0  0  0
    6.3210  -12.8796   25.3461 C   0  0  0  0  0  0  0  0  0  0  0  0
    6.2262  -12.5112   26.6875 C   0  0  0  0  0  0  0  0  0  0  0  0
    7.3637  -12.7878   27.4418 C   0  0  0  0  0  0  0  0  0  0  0  0
    8.4796  -13.3727   26.9100 C   0  0  0  0  0  0  0  0  0  0  0  0
    9.1296  -16.2533   26.4426 C   0  0  0  0  0  0  0  0  0  0  0  0
    7.9781  -16.7086   26.6073 O   0  0  0  0  0  0  0  0  0  0  0  0
    9.9531  -16.1027   27.5363 O   0  0  0  0  0  0  0  0  0  0  0  0
  2  1  1  6
  3  2  1  0
  4  2  1  0
  4  5  1  1
  6  4  1  0
  6 14  1  0
  7  6  2  0
  9 10  2  0
  9  8  1  0
 11  9  1  0
 13 12  1  6
 12 11  1  0
 14 13  1  0
 15 16  2  0
 15 13  1  0
 17 15  1  0
 18 17  1  0
 18 26  1  0
 18 19  1  1
 20 25  2  0
 20 19  1  0
 21 20  1  0
 22 23  1  0
 22 21  2  0
 23 24  2  0
 24 25  1  0
 26 28  1  0
 27 26  2  0
M  END
$$$$
