TQF.pdb
     RDKit          3D

 28 28  0  0  1  0  0  0  0  0999 V2000
    9.4961  -14.1961   17.1911 C   0  0  0  0  0  0  0  0  0  0  0  0
    9.2932  -14.5143   18.6528 C   0  0  1  0  0  0  0  0  0  0  0  0
   10.1767  -13.8923   19.4976 O   0  0  0  0  0  0  0  0  0  0  0  0
    7.8430  -14.2366   19.0047 C   0  0  2  0  0  0  0  0  0  0  0  0
    7.6243  -12.7948   18.8412 N   0  0  0  0  0  0  0  0  0  0  0  0
    7.5408  -14.6523   20.3986 C   0  0  0  0  0  0  0  0  0  0  0  0
    7.5528  -13.8126   21.3281 O   0  0  0  0  0  0  0  0  0  0  0  0
    6.0282  -20.6615   22.0445 N   0  0  0  0  0  0  0  0  0  0  0  0
    6.1764  -19.9790   23.2735 C   0  0  0  0  0  0  0  0  0  0  0  0
    6.0776  -20.6623   24.3232 O   0  0  0  0  0  0  0  0  0  0  0  0
    6.4404  -18.5271   23.4044 C   0  0  0  0  0  0  0  0  0  0  0  0
    6.5076  -17.8628   22.0514 C   0  0  0  0  0  0  0  0  0  0  0  0
    6.9743  -16.4290   22.0997 C   0  0  2  0  0  0  0  0  0  0  0  0
    7.2233  -16.0206   20.7297 N   0  0  0  0  0  0  0  0  0  0  0  0
    8.1489  -16.2078   22.9355 C   0  0  0  0  0  0  0  0  0  0  0  0
    9.3404  -16.4057   22.5536 O   0  0  0  0  0  0  0  0  0  0  0  0
    8.0232  -15.7409   24.2683 N   0  0  0  0  0  0  0  0  0  0  0  0
    9.1881  -15.6603   25.1846 C   0  0  1  0  0  0  0  0  0  0  0  0
    9.5538  -14.1838   25.3382 C   0  0  0  0  0  0  0  0  0  0  0  0
    8.3559  -13.4441   25.7969 C   0  0  0  0  0  0  0  0  0  0  0  0
    7.0789  -13.9511   25.7823 C   0  0  0  0  0  0  0  0  0  0  0  0
    6.0281  -13.2002   26.2354 C   0  0  0  0  0  0  0  0  0  0  0  0
    6.1531  -11.9037   26.7329 C   0  0  0  0  0  0  0  0  0  0  0  0
    7.4560  -11.4122   26.7368 C   0  0  0  0  0  0  0  0  0  0  0  0
    8.5231  -12.1416   26.2903 C   0  0  0  0  0  0  0  0  0  0  0  0
    8.7412  -16.1720   26.4817 C   0  0  0  0  0  0  0  0  0  0  0  0
    7.5611  -16.5499   26.6392 O   0  0  0  0  0  0  0  0  0  0  0  0
    9.6150  -16.2439   27.5440 O   0  0  0  0  0  0  0  0  0  0  0  0
  2  1  1  6
  3  2  1  0
  4  2  1  0
  4  5  1  1
  6  4  1  0
  6 14  1  0
  7  6  2  0
  9 10  2  0
  9  8  1  0
 11  9  1  0
 13 12  1  6
 12 11  1  0
 14 13  1  0
 15 16  2  0
 15 13  1  0
 17 15  1  0
 18 17  1  0
 18 26  1  0
 18 19  1  1
 20 25  2  0
 20 19  1  0
 21 20  1  0
 22 23  1  0
 22 21  2  0
 23 24  2  0
 24 25  1  0
 26 28  1  0
 27 26  2  0
M  END
$$$$
