TQF.pdb
     RDKit          3D

 28 28  0  0  1  0  0  0  0  0999 V2000
    8.8834  -12.6262   20.8547 C   0  0  0  0  0  0  0  0  0  0  0  0
    7.7910  -13.0983   19.9259 C   0  0  1  0  0  0  0  0  0  0  0  0
    7.4786  -12.2174   18.9221 O   0  0  0  0  0  0  0  0  0  0  0  0
    8.1666  -14.4752   19.4087 C   0  0  2  0  0  0  0  0  0  0  0  0
    7.0507  -14.9483   18.5815 N   0  0  0  0  0  0  0  0  0  0  0  0
    8.4180  -15.4180   20.5290 C   0  0  0  0  0  0  0  0  0  0  0  0
    7.4653  -15.8648   21.2085 O   0  0  0  0  0  0  0  0  0  0  0  0
   13.8267  -18.7116   21.2397 N   0  0  0  0  0  0  0  0  0  0  0  0
   13.0801  -19.0086   22.4027 C   0  0  0  0  0  0  0  0  0  0  0  0
   13.5923  -19.8115   23.2222 O   0  0  0  0  0  0  0  0  0  0  0  0
   11.7489  -18.4397   22.7174 C   0  0  0  0  0  0  0  0  0  0  0  0
   11.2942  -17.4904   21.6365 C   0  0  0  0  0  0  0  0  0  0  0  0
    9.9871  -16.8015   21.9415 C   0  0  2  0  0  0  0  0  0  0  0  0
    9.7516  -15.8515   20.8703 N   0  0  0  0  0  0  0  0  0  0  0  0
    9.9434  -16.1464   23.2437 C   0  0  0  0  0  0  0  0  0  0  0  0
   10.6723  -15.1627   23.5693 O   0  0  0  0  0  0  0  0  0  0  0  0
    9.0520  -16.5844   24.2556 N   0  0  0  0  0  0  0  0  0  0  0  0
    9.0006  -15.9368   25.5901 C   0  0  1  0  0  0  0  0  0  0  0  0
    7.5346  -15.6322   25.8996 C   0  0  0  0  0  0  0  0  0  0  0  0
    7.3374  -14.1651   25.8628 C   0  0  0  0  0  0  0  0  0  0  0  0
    6.2669  -13.5414   25.2686 C   0  0  0  0  0  0  0  0  0  0  0  0
    6.1582  -12.1772   25.2900 C   0  0  0  0  0  0  0  0  0  0  0  0
    7.0873  -11.3300   25.8925 C   0  0  0  0  0  0  0  0  0  0  0  0
    8.1627  -11.9853   26.4867 C   0  0  0  0  0  0  0  0  0  0  0  0
    8.2949  -13.3465   26.4799 C   0  0  0  0  0  0  0  0  0  0  0  0
    9.4909  -16.9215   26.5565 C   0  0  0  0  0  0  0  0  0  0  0  0
    9.6804  -18.1066   26.2100 O   0  0  0  0  0  0  0  0  0  0  0  0
    9.7501  -16.5547   27.8586 O   0  0  0  0  0  0  0  0  0  0  0  0
  2  1  1  6
  3  2  1  0
  4  2  1  0
  4  5  1  6
  6  4  1  0
  6 14  1  0
  7  6  2  0
  9 10  2  0
  9  8  1  0
 11  9  1  0
 13 12  1  6
 12 11  1  0
 14 13  1  0
 15 16  2  0
 15 13  1  0
 17 15  1  0
 18 17  1  0
 18 26  1  0
 18 19  1  1
 20 25  2  0
 20 19  1  0
 21 20  1  0
 22 23  1  0
 22 21  2  0
 23 24  2  0
 24 25  1  0
 26 28  1  0
 27 26  2  0
M  END
$$$$
