TQF.pdb
     RDKit          3D

 28 28  0  0  1  0  0  0  0  0999 V2000
    6.6174  -18.7993   23.6474 C   0  0  0  0  0  0  0  0  0  0  0  0
    6.6966  -19.5256   22.3264 C   0  0  1  0  0  0  0  0  0  0  0  0
    5.8953  -20.6353   22.2392 O   0  0  0  0  0  0  0  0  0  0  0  0
    6.4421  -18.5234   21.2150 C   0  0  2  0  0  0  0  0  0  0  0  0
    6.3939  -19.2742   19.9551 N   0  0  0  0  0  0  0  0  0  0  0  0
    7.5130  -17.4949   21.1654 C   0  0  0  0  0  0  0  0  0  0  0  0
    8.6698  -17.8005   20.7943 O   0  0  0  0  0  0  0  0  0  0  0  0
    9.2054  -12.3672   19.0186 N   0  0  0  0  0  0  0  0  0  0  0  0
    8.1393  -13.2191   18.6501 C   0  0  0  0  0  0  0  0  0  0  0  0
    7.8365  -13.2629   17.4315 O   0  0  0  0  0  0  0  0  0  0  0  0
    7.3652  -14.0571   19.5952 C   0  0  0  0  0  0  0  0  0  0  0  0
    7.8620  -13.8822   21.0091 C   0  0  0  0  0  0  0  0  0  0  0  0
    8.3447  -15.1610   21.6474 C   0  0  2  0  0  0  0  0  0  0  0  0
    7.2636  -16.1224   21.5349 N   0  0  0  0  0  0  0  0  0  0  0  0
    8.7757  -15.0149   23.0331 C   0  0  0  0  0  0  0  0  0  0  0  0
    9.7708  -14.3214   23.3986 O   0  0  0  0  0  0  0  0  0  0  0  0
    8.0828  -15.6601   24.0886 N   0  0  0  0  0  0  0  0  0  0  0  0
    8.5664  -15.6096   25.4909 C   0  0  1  0  0  0  0  0  0  0  0  0
    7.3853  -15.2032   26.3726 C   0  0  0  0  0  0  0  0  0  0  0  0
    7.3636  -13.7269   26.4848 C   0  0  0  0  0  0  0  0  0  0  0  0
    8.4720  -12.9513   26.7256 C   0  0  0  0  0  0  0  0  0  0  0  0
    8.3629  -11.5891   26.8044 C   0  0  0  0  0  0  0  0  0  0  0  0
    7.1645  -10.8926   26.6537 C   0  0  0  0  0  0  0  0  0  0  0  0
    6.0563  -11.7001   26.4113 C   0  0  0  0  0  0  0  0  0  0  0  0
    6.1380  -13.0627   26.3275 C   0  0  0  0  0  0  0  0  0  0  0  0
    8.9728  -16.9706   25.8466 C   0  0  0  0  0  0  0  0  0  0  0  0
    8.7844  -17.9146   25.0505 O   0  0  0  0  0  0  0  0  0  0  0  0
    9.5682  -17.2278   27.0617 O   0  0  0  0  0  0  0  0  0  0  0  0
  2  1  1  1
  3  2  1  0
  4  2  1  0
  4  5  1  6
  6  4  1  0
  6 14  1  0
  7  6  2  0
  9 10  2  0
  9  8  1  0
 11  9  1  0
 13 12  1  1
 12 11  1  0
 14 13  1  0
 15 16  2  0
 15 13  1  0
 17 15  1  0
 18 17  1  0
 18 26  1  0
 18 19  1  1
 20 25  2  0
 20 19  1  0
 21 20  1  0
 22 23  1  0
 22 21  2  0
 23 24  2  0
 24 25  1  0
 26 28  1  0
 27 26  2  0
M  END
$$$$
