TQF.pdb
     RDKit          3D

 28 28  0  0  1  0  0  0  0  0999 V2000
    9.5749  -13.8975   20.5185 C   0  0  0  0  0  0  0  0  0  0  0  0
    8.3321  -13.5822   19.7218 C   0  0  1  0  0  0  0  0  0  0  0  0
    8.5726  -13.1188   18.4535 O   0  0  0  0  0  0  0  0  0  0  0  0
    7.4286  -14.8018   19.7446 C   0  0  2  0  0  0  0  0  0  0  0  0
    6.1963  -14.4433   19.0329 N   0  0  0  0  0  0  0  0  0  0  0  0
    7.1213  -15.2149   21.1381 C   0  0  0  0  0  0  0  0  0  0  0  0
    6.5662  -14.4176   21.9288 O   0  0  0  0  0  0  0  0  0  0  0  0
    6.4383  -21.1609   23.2262 N   0  0  0  0  0  0  0  0  0  0  0  0
    6.4411  -20.3722   24.3993 C   0  0  0  0  0  0  0  0  0  0  0  0
    6.1661  -20.9519   25.4795 O   0  0  0  0  0  0  0  0  0  0  0  0
    6.7463  -18.9230   24.4394 C   0  0  0  0  0  0  0  0  0  0  0  0
    6.9034  -18.3619   23.0477 C   0  0  0  0  0  0  0  0  0  0  0  0
    7.2496  -16.8938   23.0186 C   0  0  2  0  0  0  0  0  0  0  0  0
    7.4437  -16.5342   21.6262 N   0  0  0  0  0  0  0  0  0  0  0  0
    8.4137  -16.5356   23.8208 C   0  0  0  0  0  0  0  0  0  0  0  0
    9.6020  -16.5204   23.3820 O   0  0  0  0  0  0  0  0  0  0  0  0
    8.2804  -16.1690   25.1840 N   0  0  0  0  0  0  0  0  0  0  0  0
    9.4435  -15.7342   25.9969 C   0  0  1  0  0  0  0  0  0  0  0  0
    9.6300  -14.2336   25.7709 C   0  0  0  0  0  0  0  0  0  0  0  0
    8.4304  -13.5259   26.2735 C   0  0  0  0  0  0  0  0  0  0  0  0
    8.2307  -13.1749   27.5868 C   0  0  0  0  0  0  0  0  0  0  0  0
    7.0942  -12.5117   27.9636 C   0  0  0  0  0  0  0  0  0  0  0  0
    6.0760  -12.1470   27.0837 C   0  0  0  0  0  0  0  0  0  0  0  0
    6.3010  -12.5141   25.7595 C   0  0  0  0  0  0  0  0  0  0  0  0
    7.4277  -13.1765   25.3568 C   0  0  0  0  0  0  0  0  0  0  0  0
    9.0861  -15.9581   27.3991 C   0  0  0  0  0  0  0  0  0  0  0  0
    9.8751  -15.6342   28.3117 O   0  0  0  0  0  0  0  0  0  0  0  0
    7.8764  -16.5275   27.7302 O   0  0  0  0  0  0  0  0  0  0  0  0
  2  1  1  6
  3  2  1  0
  4  2  1  0
  4  5  1  6
  6  4  1  0
  6 14  1  0
  7  6  2  0
  9 10  2  0
  9  8  1  0
 11  9  1  0
 13 12  1  6
 12 11  1  0
 14 13  1  0
 15 16  2  0
 15 13  1  0
 17 15  1  0
 18 17  1  0
 18 26  1  0
 18 19  1  1
 20 25  2  0
 20 19  1  0
 21 20  1  0
 22 23  1  0
 22 21  2  0
 23 24  2  0
 24 25  1  0
 26 28  1  0
 27 26  2  0
M  END
$$$$
