TQF.pdb
     RDKit          3D

 28 28  0  0  1  0  0  0  0  0999 V2000
    3.8618  -18.7775   23.2648 C   0  0  0  0  0  0  0  0  0  0  0  0
    5.3170  -18.4467   23.0369 C   0  0  1  0  0  0  0  0  0  0  0  0
    6.1958  -19.3662   23.5501 O   0  0  0  0  0  0  0  0  0  0  0  0
    5.5226  -18.1956   21.5540 C   0  0  2  0  0  0  0  0  0  0  0  0
    5.1492  -19.4271   20.8487 N   0  0  0  0  0  0  0  0  0  0  0  0
    6.9347  -17.8383   21.2618 C   0  0  0  0  0  0  0  0  0  0  0  0
    7.7572  -18.7223   20.9285 O   0  0  0  0  0  0  0  0  0  0  0  0
    8.9494  -12.5187   18.7096 N   0  0  0  0  0  0  0  0  0  0  0  0
   10.1309  -13.0580   19.2678 C   0  0  0  0  0  0  0  0  0  0  0  0
   11.2070  -12.4598   19.0173 O   0  0  0  0  0  0  0  0  0  0  0  0
   10.1834  -14.2674   20.1218 C   0  0  0  0  0  0  0  0  0  0  0  0
    8.8016  -14.8233   20.3623 C   0  0  0  0  0  0  0  0  0  0  0  0
    8.7948  -16.1398   21.0991 C   0  0  2  0  0  0  0  0  0  0  0  0
    7.4053  -16.4767   21.3470 N   0  0  0  0  0  0  0  0  0  0  0  0
    9.5641  -16.1384   22.3381 C   0  0  0  0  0  0  0  0  0  0  0  0
   10.8280  -16.2051   22.3900 O   0  0  0  0  0  0  0  0  0  0  0  0
    8.9223  -16.0578   23.5998 N   0  0  0  0  0  0  0  0  0  0  0  0
    9.6609  -16.2644   24.8705 C   0  0  1  0  0  0  0  0  0  0  0  0
   10.2043  -14.9062   25.3152 C   0  0  0  0  0  0  0  0  0  0  0  0
    9.0948  -13.9257   25.3056 C   0  0  0  0  0  0  0  0  0  0  0  0
    8.7505  -13.1552   24.2212 C   0  0  0  0  0  0  0  0  0  0  0  0
    7.7016  -12.2790   24.2966 C   0  0  0  0  0  0  0  0  0  0  0  0
    6.9186  -12.0957   25.4356 C   0  0  0  0  0  0  0  0  0  0  0  0
    7.2875  -12.8868   26.5206 C   0  0  0  0  0  0  0  0  0  0  0  0
    8.3305  -13.7700   26.4715 C   0  0  0  0  0  0  0  0  0  0  0  0
    8.6826  -16.7260   25.8574 C   0  0  0  0  0  0  0  0  0  0  0  0
    7.4754  -16.8244   25.5520 O   0  0  0  0  0  0  0  0  0  0  0  0
    9.0799  -17.0582   27.1337 O   0  0  0  0  0  0  0  0  0  0  0  0
  2  1  1  6
  3  2  1  0
  4  2  1  0
  4  5  1  6
  6  4  1  0
  6 14  1  0
  7  6  2  0
  9 10  2  0
  9  8  1  0
 11  9  1  0
 13 12  1  1
 12 11  1  0
 14 13  1  0
 15 16  2  0
 15 13  1  0
 17 15  1  0
 18 17  1  0
 18 26  1  0
 18 19  1  1
 20 25  2  0
 20 19  1  0
 21 20  1  0
 22 23  1  0
 22 21  2  0
 23 24  2  0
 24 25  1  0
 26 28  1  0
 27 26  2  0
M  END
$$$$
