TQF.pdb
     RDKit          3D

 28 28  0  0  1  0  0  0  0  0999 V2000
    9.2446  -12.8918   20.8391 C   0  0  0  0  0  0  0  0  0  0  0  0
    8.1253  -12.9324   19.8270 C   0  0  1  0  0  0  0  0  0  0  0  0
    8.3690  -12.2183   18.6815 O   0  0  0  0  0  0  0  0  0  0  0  0
    7.7797  -14.3854   19.5558 C   0  0  2  0  0  0  0  0  0  0  0  0
    6.6487  -14.3961   18.6208 N   0  0  0  0  0  0  0  0  0  0  0  0
    7.4214  -15.0941   20.8114 C   0  0  0  0  0  0  0  0  0  0  0  0
    6.3712  -14.8012   21.4281 O   0  0  0  0  0  0  0  0  0  0  0  0
    8.5926  -21.1024   21.7704 N   0  0  0  0  0  0  0  0  0  0  0  0
    8.0033  -20.6861   22.9860 C   0  0  0  0  0  0  0  0  0  0  0  0
    7.6959  -21.5834   23.8099 O   0  0  0  0  0  0  0  0  0  0  0  0
    7.7296  -19.2764   23.3502 C   0  0  0  0  0  0  0  0  0  0  0  0
    8.0463  -18.3476   22.2042 C   0  0  0  0  0  0  0  0  0  0  0  0
    7.8565  -16.8876   22.5334 C   0  0  2  0  0  0  0  0  0  0  0  0
    8.2573  -16.1353   21.3591 N   0  0  0  0  0  0  0  0  0  0  0  0
    8.5817  -16.4399   23.7169 C   0  0  0  0  0  0  0  0  0  0  0  0
    9.8018  -16.0989   23.7161 O   0  0  0  0  0  0  0  0  0  0  0  0
    7.9432  -16.3550   24.9799 N   0  0  0  0  0  0  0  0  0  0  0  0
    8.6591  -15.8816   26.1908 C   0  0  1  0  0  0  0  0  0  0  0  0
    7.6169  -15.2980   27.1452 C   0  0  0  0  0  0  0  0  0  0  0  0
    7.2133  -13.9631   26.6474 C   0  0  0  0  0  0  0  0  0  0  0  0
    5.9775  -13.6729   26.1215 C   0  0  0  0  0  0  0  0  0  0  0  0
    5.6849  -12.4062   25.6931 C   0  0  0  0  0  0  0  0  0  0  0  0
    6.5790  -11.3379   25.7490 C   0  0  0  0  0  0  0  0  0  0  0  0
    7.8240  -11.6572   26.2848 C   0  0  0  0  0  0  0  0  0  0  0  0
    8.1417  -12.9140   26.7203 C   0  0  0  0  0  0  0  0  0  0  0  0
    9.2598  -17.0623   26.8148 C   0  0  0  0  0  0  0  0  0  0  0  0
    9.9779  -16.9439   27.8301 O   0  0  0  0  0  0  0  0  0  0  0  0
    9.0409  -18.3175   26.2918 O   0  0  0  0  0  0  0  0  0  0  0  0
  2  1  1  1
  3  2  1  0
  4  2  1  0
  4  5  1  6
  6  4  1  0
  6 14  1  0
  7  6  2  0
  9 10  2  0
  9  8  1  0
 11  9  1  0
 13 12  1  6
 12 11  1  0
 14 13  1  0
 15 16  2  0
 15 13  1  0
 17 15  1  0
 18 17  1  0
 18 26  1  0
 18 19  1  1
 20 25  2  0
 20 19  1  0
 21 20  1  0
 22 23  1  0
 22 21  2  0
 23 24  2  0
 24 25  1  0
 26 28  1  0
 27 26  2  0
M  END
$$$$
