TQF.pdb
     RDKit          3D

 28 28  0  0  1  0  0  0  0  0999 V2000
   12.6856  -17.1198   22.8407 C   0  0  0  0  0  0  0  0  0  0  0  0
   12.6397  -16.0672   21.7596 C   0  0  1  0  0  0  0  0  0  0  0  0
   13.7546  -16.0230   20.9619 O   0  0  0  0  0  0  0  0  0  0  0  0
   11.3552  -16.2487   20.9713 C   0  0  2  0  0  0  0  0  0  0  0  0
   11.3669  -15.2597   19.8872 N   0  0  0  0  0  0  0  0  0  0  0  0
   10.1634  -16.0553   21.8370 C   0  0  0  0  0  0  0  0  0  0  0  0
    9.7904  -14.9026   22.1553 O   0  0  0  0  0  0  0  0  0  0  0  0
    6.6106  -20.8819   24.2088 N   0  0  0  0  0  0  0  0  0  0  0  0
    6.0153  -19.6974   24.6996 C   0  0  0  0  0  0  0  0  0  0  0  0
    4.9399  -19.8192   25.3377 O   0  0  0  0  0  0  0  0  0  0  0  0
    6.5710  -18.3365   24.5157 C   0  0  0  0  0  0  0  0  0  0  0  0
    7.7630  -18.3565   23.5910 C   0  0  0  0  0  0  0  0  0  0  0  0
    8.3312  -16.9895   23.3004 C   0  0  2  0  0  0  0  0  0  0  0  0
    9.3987  -17.1734   22.3349 N   0  0  0  0  0  0  0  0  0  0  0  0
    8.8064  -16.2740   24.4791 C   0  0  0  0  0  0  0  0  0  0  0  0
    9.0488  -15.0309   24.5062 O   0  0  0  0  0  0  0  0  0  0  0  0
    9.0313  -16.9488   25.7056 N   0  0  0  0  0  0  0  0  0  0  0  0
    9.4733  -16.2303   26.9268 C   0  0  1  0  0  0  0  0  0  0  0  0
    8.2380  -15.5856   27.5561 C   0  0  0  0  0  0  0  0  0  0  0  0
    7.9337  -14.3333   26.8270 C   0  0  0  0  0  0  0  0  0  0  0  0
    8.7338  -13.2162   26.8371 C   0  0  0  0  0  0  0  0  0  0  0  0
    8.3804  -12.1021   26.1248 C   0  0  0  0  0  0  0  0  0  0  0  0
    7.2220  -12.0034   25.3551 C   0  0  0  0  0  0  0  0  0  0  0  0
    6.4279  -13.1472   25.3615 C   0  0  0  0  0  0  0  0  0  0  0  0
    6.7581  -14.2732   26.0640 C   0  0  0  0  0  0  0  0  0  0  0  0
    9.9959  -17.2429   27.8465 C   0  0  0  0  0  0  0  0  0  0  0  0
    9.9391  -18.4550   27.5501 O   0  0  0  0  0  0  0  0  0  0  0  0
   10.5569  -16.8729   29.0488 O   0  0  0  0  0  0  0  0  0  0  0  0
  2  1  1  1
  3  2  1  0
  4  2  1  0
  4  5  1  6
  6  4  1  0
  6 14  1  0
  7  6  2  0
  9 10  2  0
  9  8  1  0
 11  9  1  0
 13 12  1  1
 12 11  1  0
 14 13  1  0
 15 16  2  0
 15 13  1  0
 17 15  1  0
 18 17  1  0
 18 26  1  0
 18 19  1  1
 20 25  2  0
 20 19  1  0
 21 20  1  0
 22 23  1  0
 22 21  2  0
 23 24  2  0
 24 25  1  0
 26 28  1  0
 27 26  2  0
M  END
$$$$
