RTI.pdb
     RDKit          3D

 27 26  0  0  1  0  0  0  0  0999 V2000
   19.0957  -24.9079   -6.7322 N   0  0  0  0  0  0  0  0  0  0  0  0
   18.9274  -24.0884   -7.8849 C   0  0  0  0  0  0  0  0  0  0  0  0
   18.5016  -24.6672   -8.9517 N   0  0  0  0  0  0  0  0  0  0  0  0
   19.2122  -22.6928   -7.8697 N   0  0  0  0  0  0  0  0  0  0  0  0
   19.3080  -21.9321   -9.0727 C   0  0  0  0  0  0  0  0  0  0  0  0
   20.2557  -22.5227  -10.1034 C   0  0  0  0  0  0  0  0  0  0  0  0
   21.1467  -21.4354  -10.6512 C   0  0  0  0  0  0  0  0  0  0  0  0
   22.5490  -21.4940  -10.1427 C   0  0  2  0  0  0  0  0  0  0  0  0
   22.6763  -21.0188   -8.7989 N   0  0  0  0  0  0  0  0  0  0  0  0
   23.4448  -20.7578  -11.0845 C   0  0  0  0  0  0  0  0  0  0  0  0
   24.2998  -19.9279  -10.6411 O   0  0  0  0  0  0  0  0  0  0  0  0
   18.3628  -24.1015   -9.8138 C   0  0  0  0  0  0  0  0  0  0  0  0
   26.1662  -20.3370  -11.6786 C   0  0  2  0  0  0  0  0  0  0  0  0
   25.7885  -20.7911  -13.0771 O   0  0  0  0  0  0  0  0  0  0  0  0
   26.0122  -22.1384  -13.2386 C   0  0  2  0  0  0  0  0  0  0  0  0
   24.3635  -20.3826  -13.3833 N   0  0  0  0  0  0  0  0  0  0  0  0
   23.3957  -20.9369  -12.4929 C   0  0  0  0  0  0  0  0  0  0  0  0
   24.1102  -20.7171  -14.8086 O   0  0  0  0  0  0  0  0  0  0  0  0
   23.4911  -21.7767  -15.0708 C   0  0  0  0  0  0  0  0  0  0  0  0
   21.0466  -17.7061  -17.3683 C   0  0  0  0  0  0  0  0  0  0  0  0
   21.8817  -18.9034  -17.0629 C   0  0  2  0  0  0  0  0  0  0  0  0
   23.2091  -19.0299  -17.6855 C   0  0  0  0  0  0  0  0  0  0  0  0
   22.9251  -19.0514  -19.2188 C   0  0  2  0  0  0  0  0  0  0  0  0
   24.0506  -20.1721  -17.2996 N   0  0  0  0  0  0  0  0  0  0  0  0
   24.5231  -19.9150  -15.8837 C   0  0  0  0  0  0  0  0  0  0  0  0
   25.2840  -20.3831  -18.0247 O   0  0  0  0  0  0  0  0  0  0  0  0
   26.2337  -19.5293  -17.9112 O   0  0  0  0  0  0  0  0  0  0  0  0
  2  1  1  0
  2  3  2  0
  4  2  1  0
  5  4  1  0
  5  6  1  0
  7  6  1  0
  7  8  1  0
  8  9  1  1
 10  8  1  0
 10 11  2  0
 13 12  1  6
 13 14  1  0
 13 15  1  0
 15 16  1  6
 16 10  1  0
 17 15  1  0
 18 17  2  0
 19 20  1  0
 20 21  1  0
 21 23  1  0
 21 22  1  1
 23 24  1  6
 23 25  1  0
 24 17  1  0
 25 27  1  0
 26 25  2  0
M  END
$$$$
