RTI.pdb
     RDKit          3D

 27 26  0  0  1  0  0  0  0  0999 V2000
   26.9414  -28.2010  -19.8823 N   0  0  0  0  0  0  0  0  0  0  0  0
   26.0541  -27.2590  -20.4774 C   0  0  0  0  0  0  0  0  0  0  0  0
   25.2439  -27.7080  -21.3696 N   0  0  0  0  0  0  0  0  0  0  0  0
   26.0531  -25.8829  -20.1096 N   0  0  0  0  0  0  0  0  0  0  0  0
   26.8593  -25.3899  -19.0410 C   0  0  0  0  0  0  0  0  0  0  0  0
   26.2113  -25.5104  -17.6717 C   0  0  0  0  0  0  0  0  0  0  0  0
   27.1054  -24.8796  -16.6330 C   0  0  0  0  0  0  0  0  0  0  0  0
   27.7921  -23.6403  -17.1032 C   0  0  2  0  0  0  0  0  0  0  0  0
   29.1713  -23.8521  -17.4207 N   0  0  0  0  0  0  0  0  0  0  0  0
   27.6105  -22.5614  -16.0862 C   0  0  0  0  0  0  0  0  0  0  0  0
   28.5890  -22.1859  -15.3667 O   0  0  0  0  0  0  0  0  0  0  0  0
   24.5802  -27.0505  -21.8279 C   0  0  0  0  0  0  0  0  0  0  0  0
   26.3906  -18.9965  -16.5761 C   0  0  2  0  0  0  0  0  0  0  0  0
   25.5155  -19.6221  -15.5049 O   0  0  0  0  0  0  0  0  0  0  0  0
   24.2529  -19.8814  -15.9846 C   0  0  2  0  0  0  0  0  0  0  0  0
   26.1984  -20.8456  -14.9323 N   0  0  0  0  0  0  0  0  0  0  0  0
   26.3674  -21.9089  -15.8691 C   0  0  0  0  0  0  0  0  0  0  0  0
   25.4355  -21.2449  -13.7216 O   0  0  0  0  0  0  0  0  0  0  0  0
   24.7919  -22.3218  -13.7514 C   0  0  0  0  0  0  0  0  0  0  0  0
   25.7553  -20.5777   -7.6090 C   0  0  0  0  0  0  0  0  0  0  0  0
   24.9295  -20.9021   -8.8077 C   0  0  2  0  0  0  0  0  0  0  0  0
   25.4760  -20.6375  -10.1482 C   0  0  0  0  0  0  0  0  0  0  0  0
   25.8346  -19.1197  -10.1354 C   0  0  2  0  0  0  0  0  0  0  0  0
   24.6412  -20.9615  -11.3144 N   0  0  0  0  0  0  0  0  0  0  0  0
   25.3920  -20.4869  -12.5412 C   0  0  0  0  0  0  0  0  0  0  0  0
   23.3601  -20.3019  -11.4373 O   0  0  0  0  0  0  0  0  0  0  0  0
   22.3983  -20.6475  -10.6629 O   0  0  0  0  0  0  0  0  0  0  0  0
  2  1  1  0
  2  3  2  0
  4  2  1  0
  5  4  1  0
  5  6  1  0
  7  6  1  0
  7  8  1  0
  8  9  1  1
 10  8  1  0
 10 11  2  0
 13 12  1  1
 13 14  1  0
 13 15  1  0
 15 16  1  1
 16 10  1  0
 17 15  1  0
 18 17  2  0
 19 20  1  0
 20 21  1  0
 21 23  1  0
 21 22  1  6
 23 24  1  6
 23 25  1  0
 24 17  1  0
 25 27  1  0
 26 25  2  0
M  END
$$$$
