RTI.pdb
     RDKit          3D

 27 26  0  0  1  0  0  0  0  0999 V2000
   16.2962  -24.7022  -11.8895 N   0  0  0  0  0  0  0  0  0  0  0  0
   15.2197  -23.7707  -11.8423 C   0  0  0  0  0  0  0  0  0  0  0  0
   14.2310  -24.0645  -11.0740 N   0  0  0  0  0  0  0  0  0  0  0  0
   15.2262  -22.5670  -12.6038 N   0  0  0  0  0  0  0  0  0  0  0  0
   16.3905  -22.1234  -13.2987 C   0  0  0  0  0  0  0  0  0  0  0  0
   17.4713  -21.5557  -12.3938 C   0  0  0  0  0  0  0  0  0  0  0  0
   18.7946  -22.2021  -12.7214 C   0  0  0  0  0  0  0  0  0  0  0  0
   19.1683  -22.1097  -14.1637 C   0  0  2  0  0  0  0  0  0  0  0  0
   18.3045  -22.8698  -15.0144 N   0  0  0  0  0  0  0  0  0  0  0  0
   20.6008  -22.5007  -14.3265 C   0  0  0  0  0  0  0  0  0  0  0  0
   20.9583  -23.7105  -14.1685 O   0  0  0  0  0  0  0  0  0  0  0  0
   13.4206  -23.4141  -11.0203 C   0  0  0  0  0  0  0  0  0  0  0  0
   22.3810  -23.2879  -16.9808 C   0  0  2  0  0  0  0  0  0  0  0  0
   23.2206  -22.1410  -16.4478 O   0  0  0  0  0  0  0  0  0  0  0  0
   23.0182  -20.9952  -17.1811 C   0  0  2  0  0  0  0  0  0  0  0  0
   22.9589  -21.9558  -14.9684 N   0  0  0  0  0  0  0  0  0  0  0  0
   21.6205  -21.5690  -14.6588 C   0  0  0  0  0  0  0  0  0  0  0  0
   23.9786  -21.0019  -14.4608 O   0  0  0  0  0  0  0  0  0  0  0  0
   23.6111  -19.8392  -14.1642 C   0  0  0  0  0  0  0  0  0  0  0  0
   26.6012  -21.6678  -10.1324 C   0  0  0  0  0  0  0  0  0  0  0  0
   26.0636  -21.0011  -11.3533 C   0  0  2  0  0  0  0  0  0  0  0  0
   26.9197  -20.8885  -12.5450 C   0  0  0  0  0  0  0  0  0  0  0  0
   28.1420  -20.0421  -12.0739 C   0  0  2  0  0  0  0  0  0  0  0  0
   26.3358  -20.3173  -13.7675 N   0  0  0  0  0  0  0  0  0  0  0  0
   25.3338  -21.3250  -14.2916 C   0  0  0  0  0  0  0  0  0  0  0  0
   27.2083  -20.1013  -14.9005 O   0  0  0  0  0  0  0  0  0  0  0  0
   27.5011  -21.0877  -15.6655 O   0  0  0  0  0  0  0  0  0  0  0  0
  2  1  1  0
  2  3  2  0
  4  2  1  0
  5  4  1  0
  5  6  1  0
  7  6  1  0
  7  8  1  0
  8  9  1  6
 10  8  1  0
 10 11  2  0
 13 12  1  6
 13 14  1  0
 13 15  1  0
 15 16  1  1
 16 10  1  0
 17 15  1  0
 18 17  2  0
 19 20  1  0
 20 21  1  0
 21 23  1  0
 21 22  1  6
 23 24  1  1
 23 25  1  0
 24 17  1  0
 25 27  1  0
 26 25  2  0
M  END
$$$$
