RTI.pdb
     RDKit          3D

 27 26  0  0  1  0  0  0  0  0999 V2000
   28.4211  -21.8942  -18.4014 N   0  0  0  0  0  0  0  0  0  0  0  0
   29.5770  -22.1284  -17.6029 C   0  0  0  0  0  0  0  0  0  0  0  0
   30.6727  -22.3807  -18.2273 N   0  0  0  0  0  0  0  0  0  0  0  0
   29.5352  -22.0865  -16.1797 N   0  0  0  0  0  0  0  0  0  0  0  0
   28.3251  -21.8258  -15.4706 C   0  0  0  0  0  0  0  0  0  0  0  0
   28.0050  -20.3483  -15.3170 C   0  0  0  0  0  0  0  0  0  0  0  0
   27.6828  -20.0492  -13.8737 C   0  0  0  0  0  0  0  0  0  0  0  0
   26.4229  -20.6898  -13.3935 C   0  0  2  0  0  0  0  0  0  0  0  0
   25.3496  -20.5858  -14.3342 N   0  0  0  0  0  0  0  0  0  0  0  0
   26.0580  -20.1200  -12.0618 C   0  0  0  0  0  0  0  0  0  0  0  0
   25.5783  -18.9458  -11.9753 O   0  0  0  0  0  0  0  0  0  0  0  0
   31.5403  -22.5519  -17.6790 C   0  0  0  0  0  0  0  0  0  0  0  0
   24.1285  -20.0457   -7.8032 C   0  0  2  0  0  0  0  0  0  0  0  0
   24.4740  -20.7436   -9.1063 O   0  0  0  0  0  0  0  0  0  0  0  0
   23.4931  -20.5465  -10.0500 C   0  0  1  0  0  0  0  0  0  0  0  0
   25.8467  -20.3099   -9.5741 N   0  0  0  0  0  0  0  0  0  0  0  0
   26.2209  -20.8372  -10.8464 C   0  0  0  0  0  0  0  0  0  0  0  0
   26.8050  -20.6518   -8.4914 O   0  0  0  0  0  0  0  0  0  0  0  0
   27.4864  -21.6992   -8.6080 C   0  0  0  0  0  0  0  0  0  0  0  0
   29.5899  -16.8479   -5.5369 C   0  0  0  0  0  0  0  0  0  0  0  0
   29.2296  -18.1298   -6.2086 C   0  0  2  0  0  0  0  0  0  0  0  0
   28.3373  -19.0750   -5.5187 C   0  0  0  0  0  0  0  0  0  0  0  0
   29.0871  -19.4337   -4.1990 C   0  0  2  0  0  0  0  0  0  0  0  0
   27.9342  -20.2957   -6.2322 N   0  0  0  0  0  0  0  0  0  0  0  0
   26.9952  -19.8698   -7.3417 C   0  0  0  0  0  0  0  0  0  0  0  0
   27.1626  -21.2822   -5.5090 O   0  0  0  0  0  0  0  0  0  0  0  0
   25.8948  -21.1284   -5.3948 O   0  0  0  0  0  0  0  0  0  0  0  0
  2  1  1  0
  2  3  2  0
  4  2  1  0
  5  4  1  0
  5  6  1  0
  7  6  1  0
  7  8  1  0
  8  9  1  6
 10  8  1  0
 10 11  2  0
 13 12  1  1
 13 14  1  0
 13 15  1  0
 15 16  1  1
 16 10  1  0
 17 15  1  0
 18 17  2  0
 19 20  1  0
 20 21  1  0
 21 23  1  0
 21 22  1  1
 23 24  1  6
 23 25  1  0
 24 17  1  0
 25 27  1  0
 26 25  2  0
M  END
$$$$
