RTI.pdb
     RDKit          3D

 27 26  0  0  1  0  0  0  0  0999 V2000
   17.7366  -18.6089  -14.0090 N   0  0  0  0  0  0  0  0  0  0  0  0
   18.5159  -19.4546  -14.8493 C   0  0  0  0  0  0  0  0  0  0  0  0
   17.8745  -20.1977  -15.6804 N   0  0  0  0  0  0  0  0  0  0  0  0
   19.9385  -19.4845  -14.7832 N   0  0  0  0  0  0  0  0  0  0  0  0
   20.6736  -18.5562  -13.9877 C   0  0  0  0  0  0  0  0  0  0  0  0
   20.8410  -18.9812  -12.5384 C   0  0  0  0  0  0  0  0  0  0  0  0
   21.5481  -20.3128  -12.4814 C   0  0  0  0  0  0  0  0  0  0  0  0
   23.0368  -20.2031  -12.4689 C   0  0  2  0  0  0  0  0  0  0  0  0
   23.6462  -20.7384  -13.6478 N   0  0  0  0  0  0  0  0  0  0  0  0
   23.5664  -20.8399  -11.2258 C   0  0  0  0  0  0  0  0  0  0  0  0
   23.1950  -22.0099  -10.8953 O   0  0  0  0  0  0  0  0  0  0  0  0
   18.4090  -20.8209  -16.3196 C   0  0  0  0  0  0  0  0  0  0  0  0
   25.8463  -22.2232  -11.8498 C   0  0  2  0  0  0  0  0  0  0  0  0
   26.5930  -21.4058  -10.8111 O   0  0  0  0  0  0  0  0  0  0  0  0
   27.3623  -20.4326  -11.4048 C   0  0  2  0  0  0  0  0  0  0  0  0
   25.6187  -20.8559   -9.7915 N   0  0  0  0  0  0  0  0  0  0  0  0
   24.4914  -20.1931  -10.3631 C   0  0  0  0  0  0  0  0  0  0  0  0
   26.3974  -19.9961   -8.8632 O   0  0  0  0  0  0  0  0  0  0  0  0
   26.3837  -18.7549   -9.0480 C   0  0  0  0  0  0  0  0  0  0  0  0
   26.7172  -19.4794   -3.7792 C   0  0  0  0  0  0  0  0  0  0  0  0
   27.1195  -20.5599   -4.7251 C   0  0  1  0  0  0  0  0  0  0  0  0
   28.2356  -20.3211   -5.6541 C   0  0  0  0  0  0  0  0  0  0  0  0
   29.3104  -19.5834   -4.7979 C   0  0  2  0  0  0  0  0  0  0  0  0
   27.9610  -19.5770   -6.8921 N   0  0  0  0  0  0  0  0  0  0  0  0
   27.1498  -20.4910   -7.7868 C   0  0  0  0  0  0  0  0  0  0  0  0
   29.0831  -19.2101   -7.7275 O   0  0  0  0  0  0  0  0  0  0  0  0
   29.5015  -20.0346   -8.6157 O   0  0  0  0  0  0  0  0  0  0  0  0
  2  1  1  0
  2  3  2  0
  4  2  1  0
  5  4  1  0
  5  6  1  0
  7  6  1  0
  7  8  1  0
  8  9  1  6
 10  8  1  0
 10 11  2  0
 13 12  1  6
 13 14  1  0
 13 15  1  0
 15 16  1  1
 16 10  1  0
 17 15  1  0
 18 17  2  0
 19 20  1  0
 20 21  1  0
 21 23  1  0
 21 22  1  1
 23 24  1  1
 23 25  1  0
 24 17  1  0
 25 27  1  0
 26 25  2  0
M  END
$$$$
