RTI.pdb
     RDKit          3D

 27 26  0  0  1  0  0  0  0  0999 V2000
   32.2043  -25.4038  -15.8874 N   0  0  0  0  0  0  0  0  0  0  0  0
   31.8329  -25.4174  -17.2624 C   0  0  0  0  0  0  0  0  0  0  0  0
   32.1143  -26.4806  -17.9293 N   0  0  0  0  0  0  0  0  0  0  0  0
   31.1792  -24.3133  -17.8810 N   0  0  0  0  0  0  0  0  0  0  0  0
   30.6533  -23.2281  -17.1190 C   0  0  0  0  0  0  0  0  0  0  0  0
   29.5229  -23.6213  -16.1825 C   0  0  0  0  0  0  0  0  0  0  0  0
   28.7949  -22.3825  -15.7223 C   0  0  0  0  0  0  0  0  0  0  0  0
   28.2175  -21.5752  -16.8373 C   0  0  2  0  0  0  0  0  0  0  0  0
   29.1761  -20.7120  -17.4567 N   0  0  0  0  0  0  0  0  0  0  0  0
   27.0283  -20.8233  -16.3354 C   0  0  0  0  0  0  0  0  0  0  0  0
   27.1627  -19.6512  -15.8616 O   0  0  0  0  0  0  0  0  0  0  0  0
   31.8530  -26.5315  -18.9352 C   0  0  0  0  0  0  0  0  0  0  0  0
   22.1922  -20.0845  -15.8526 C   0  0  2  0  0  0  0  0  0  0  0  0
   23.3316  -20.7577  -16.5963 O   0  0  0  0  0  0  0  0  0  0  0  0
   23.4891  -20.2219  -17.8531 C   0  0  1  0  0  0  0  0  0  0  0  0
   24.5939  -20.7027  -15.7625 N   0  0  0  0  0  0  0  0  0  0  0  0
   25.7128  -21.3590  -16.3575 C   0  0  0  0  0  0  0  0  0  0  0  0
   24.2511  -21.2297  -14.4164 O   0  0  0  0  0  0  0  0  0  0  0  0
   24.5727  -22.4107  -14.1395 C   0  0  0  0  0  0  0  0  0  0  0  0
   25.6076  -20.8420   -8.9300 C   0  0  0  0  0  0  0  0  0  0  0  0
   24.4414  -21.1560   -9.8049 C   0  0  2  0  0  0  0  0  0  0  0  0
   24.4769  -20.7526  -11.2197 C   0  0  0  0  0  0  0  0  0  0  0  0
   24.7534  -19.2181  -11.1856 C   0  0  2  0  0  0  0  0  0  0  0  0
   23.3036  -21.0479  -12.0552 N   0  0  0  0  0  0  0  0  0  0  0  0
   23.5871  -20.4823  -13.4314 C   0  0  0  0  0  0  0  0  0  0  0  0
   22.0441  -20.4324  -11.6998 O   0  0  0  0  0  0  0  0  0  0  0  0
   21.4095  -20.8504  -10.6671 O   0  0  0  0  0  0  0  0  0  0  0  0
  2  1  1  0
  2  3  2  0
  4  2  1  0
  5  4  1  0
  5  6  1  0
  7  6  1  0
  7  8  1  0
  8  9  1  1
 10  8  1  0
 10 11  2  0
 13 12  1  6
 13 14  1  0
 13 15  1  0
 15 16  1  6
 16 10  1  0
 17 15  1  0
 18 17  2  0
 19 20  1  0
 20 21  1  0
 21 23  1  0
 21 22  1  6
 23 24  1  1
 23 25  1  0
 24 17  1  0
 25 27  1  0
 26 25  2  0
M  END
$$$$
