RTI.pdb
     RDKit          3D

 27 26  0  0  1  0  0  0  0  0999 V2000
   21.2719  -15.0598  -21.3204 N   0  0  0  0  0  0  0  0  0  0  0  0
   21.5464  -15.2309  -19.9333 C   0  0  0  0  0  0  0  0  0  0  0  0
   20.5528  -15.1095  -19.1256 N   0  0  0  0  0  0  0  0  0  0  0  0
   22.8541  -15.5242  -19.4508 N   0  0  0  0  0  0  0  0  0  0  0  0
   23.9582  -15.7068  -20.3355 C   0  0  0  0  0  0  0  0  0  0  0  0
   25.2680  -16.0217  -19.6321 C   0  0  0  0  0  0  0  0  0  0  0  0
   26.3483  -16.2565  -20.6587 C   0  0  0  0  0  0  0  0  0  0  0  0
   27.6372  -16.7347  -20.0767 C   0  0  2  0  0  0  0  0  0  0  0  0
   27.4790  -17.8815  -19.2357 N   0  0  0  0  0  0  0  0  0  0  0  0
   28.3040  -15.6043  -19.3633 C   0  0  0  0  0  0  0  0  0  0  0  0
   28.3401  -15.5789  -18.0927 O   0  0  0  0  0  0  0  0  0  0  0  0
   20.7127  -15.2293  -18.1045 C   0  0  0  0  0  0  0  0  0  0  0  0
   31.4771  -11.8390  -19.3044 C   0  0  2  0  0  0  0  0  0  0  0  0
   30.7944  -12.9175  -20.1262 O   0  0  0  0  0  0  0  0  0  0  0  0
   31.6875  -13.8922  -20.5055 C   0  0  1  0  0  0  0  0  0  0  0  0
   29.6021  -13.4633  -19.3700 N   0  0  0  0  0  0  0  0  0  0  0  0
   28.9204  -14.5205  -20.0440 C   0  0  0  0  0  0  0  0  0  0  0  0
   28.7238  -12.3090  -19.0480 O   0  0  0  0  0  0  0  0  0  0  0  0
   27.9030  -11.9249  -19.9160 C   0  0  0  0  0  0  0  0  0  0  0  0
   25.7585  -12.4001  -14.8046 C   0  0  0  0  0  0  0  0  0  0  0  0
   26.2721  -11.9695  -16.1369 C   0  0  2  0  0  0  0  0  0  0  0  0
   27.1724  -10.8082  -16.2174 C   0  0  0  0  0  0  0  0  0  0  0  0
   26.3126   -9.6071  -15.7171 C   0  0  2  0  0  0  0  0  0  0  0  0
   27.7893  -10.4970  -17.5152 N   0  0  0  0  0  0  0  0  0  0  0  0
   28.7569  -11.6202  -17.8256 C   0  0  0  0  0  0  0  0  0  0  0  0
   28.6171   -9.3148  -17.6082 O   0  0  0  0  0  0  0  0  0  0  0  0
   29.8352   -9.3676  -17.2114 O   0  0  0  0  0  0  0  0  0  0  0  0
  2  1  1  0
  2  3  2  0
  4  2  1  0
  5  4  1  0
  5  6  1  0
  7  6  1  0
  7  8  1  0
  8  9  1  1
 10  8  1  0
 10 11  2  0
 13 12  1  6
 13 14  1  0
 13 15  1  0
 15 16  1  6
 16 10  1  0
 17 15  1  0
 18 17  2  0
 19 20  1  0
 20 21  1  0
 21 23  1  0
 21 22  1  1
 23 24  1  6
 23 25  1  0
 24 17  1  0
 25 27  1  0
 26 25  2  0
M  END
$$$$
