RTI.pdb
     RDKit          3D

 27 26  0  0  1  0  0  0  0  0999 V2000
   20.6885  -20.5255  -12.6914 N   0  0  0  0  0  0  0  0  0  0  0  0
   19.3216  -20.5597  -13.0901 C   0  0  0  0  0  0  0  0  0  0  0  0
   19.0537  -20.1537  -14.2807 N   0  0  0  0  0  0  0  0  0  0  0  0
   18.2909  -21.0205  -12.2215 N   0  0  0  0  0  0  0  0  0  0  0  0
   18.5717  -21.4858  -10.9025 C   0  0  0  0  0  0  0  0  0  0  0  0
   19.0210  -22.9362  -10.8415 C   0  0  0  0  0  0  0  0  0  0  0  0
   18.0870  -23.7168   -9.9501 C   0  0  0  0  0  0  0  0  0  0  0  0
   18.5464  -25.1093   -9.6705 C   0  0  2  0  0  0  0  0  0  0  0  0
   18.6206  -25.9201  -10.8472 N   0  0  0  0  0  0  0  0  0  0  0  0
   17.6679  -25.7166   -8.6261 C   0  0  0  0  0  0  0  0  0  0  0  0
   16.5111  -26.1470   -8.9310 O   0  0  0  0  0  0  0  0  0  0  0  0
   18.0597  -20.0832  -14.5802 C   0  0  0  0  0  0  0  0  0  0  0  0
   16.5087  -28.3063   -7.9106 C   0  0  2  0  0  0  0  0  0  0  0  0
   17.2443  -28.0765   -6.6027 O   0  0  0  0  0  0  0  0  0  0  0  0
   18.4761  -28.6883   -6.6121 C   0  0  2  0  0  0  0  0  0  0  0  0
   17.3175  -26.5937   -6.3072 N   0  0  0  0  0  0  0  0  0  0  0  0
   18.0625  -25.8457   -7.2675 C   0  0  0  0  0  0  0  0  0  0  0  0
   17.8337  -26.4498   -4.9214 O   0  0  0  0  0  0  0  0  0  0  0  0
   19.0075  -26.0353   -4.7631 C   0  0  0  0  0  0  0  0  0  0  0  0
   14.2807  -25.0635   -0.8817 C   0  0  0  0  0  0  0  0  0  0  0  0
   15.5322  -25.1564   -1.6875 C   0  0  2  0  0  0  0  0  0  0  0  0
   16.4146  -26.3208   -1.5103 C   0  0  0  0  0  0  0  0  0  0  0  0
   16.8448  -26.2653   -0.0122 C   0  0  2  0  0  0  0  0  0  0  0  0
   17.5926  -26.4378   -2.3822 N   0  0  0  0  0  0  0  0  0  0  0  0
   17.0834  -26.7503   -3.7740 C   0  0  0  0  0  0  0  0  0  0  0  0
   18.5250  -27.5128   -2.1242 O   0  0  0  0  0  0  0  0  0  0  0  0
   18.2000  -28.7142   -2.4323 O   0  0  0  0  0  0  0  0  0  0  0  0
  2  1  1  0
  2  3  2  0
  4  2  1  0
  5  4  1  0
  5  6  1  0
  7  6  1  0
  7  8  1  0
  8  9  1  6
 10  8  1  0
 10 11  2  0
 13 12  1  1
 13 14  1  0
 13 15  1  0
 15 16  1  1
 16 10  1  0
 17 15  1  0
 18 17  2  0
 19 20  1  0
 20 21  1  0
 21 23  1  0
 21 22  1  6
 23 24  1  6
 23 25  1  0
 24 17  1  0
 25 27  1  0
 26 25  2  0
M  END
$$$$
