RTI.pdb
     RDKit          3D

 27 26  0  0  1  0  0  0  0  0999 V2000
   30.2068  -16.2184  -24.9293 N   0  0  0  0  0  0  0  0  0  0  0  0
   29.4384  -17.3113  -24.4355 C   0  0  0  0  0  0  0  0  0  0  0  0
   29.5677  -18.4352  -25.0473 N   0  0  0  0  0  0  0  0  0  0  0  0
   28.5658  -17.1793  -23.3174 N   0  0  0  0  0  0  0  0  0  0  0  0
   28.5501  -16.0026  -22.5110 C   0  0  0  0  0  0  0  0  0  0  0  0
   27.5497  -16.0501  -21.3682 C   0  0  0  0  0  0  0  0  0  0  0  0
   27.6177  -14.7629  -20.5841 C   0  0  0  0  0  0  0  0  0  0  0  0
   28.8209  -14.6557  -19.7072 C   0  0  2  0  0  0  0  0  0  0  0  0
   29.1527  -15.8885  -19.0609 N   0  0  0  0  0  0  0  0  0  0  0  0
   28.6183  -13.5463  -18.7276 C   0  0  0  0  0  0  0  0  0  0  0  0
   28.0353  -13.7666  -17.6195 O   0  0  0  0  0  0  0  0  0  0  0  0
   29.0264  -19.2588  -24.7135 C   0  0  0  0  0  0  0  0  0  0  0  0
   29.7438   -9.0564  -17.0208 C   0  0  2  0  0  0  0  0  0  0  0  0
   29.9172  -10.0543  -18.1517 O   0  0  0  0  0  0  0  0  0  0  0  0
   31.2094  -10.5218  -18.2070 C   0  0  1  0  0  0  0  0  0  0  0  0
   28.8890  -11.1580  -18.0262 N   0  0  0  0  0  0  0  0  0  0  0  0
   29.0535  -12.2159  -18.9699 C   0  0  0  0  0  0  0  0  0  0  0  0
   27.5503  -10.5167  -18.0899 O   0  0  0  0  0  0  0  0  0  0  0  0
   26.9678  -10.4630  -19.2001 C   0  0  0  0  0  0  0  0  0  0  0  0
   22.4158  -11.0615  -15.1841 C   0  0  0  0  0  0  0  0  0  0  0  0
   23.2449  -10.1188  -15.9891 C   0  0  2  0  0  0  0  0  0  0  0  0
   24.6733  -10.4111  -16.1890 C   0  0  0  0  0  0  0  0  0  0  0  0
   25.2723  -10.4541  -14.7496 C   0  0  2  0  0  0  0  0  0  0  0  0
   25.4533   -9.5067  -17.0465 N   0  0  0  0  0  0  0  0  0  0  0  0
   26.8950   -9.9658  -16.9777 C   0  0  0  0  0  0  0  0  0  0  0  0
   25.5337   -8.1130  -16.6686 O   0  0  0  0  0  0  0  0  0  0  0  0
   26.4722   -7.7274  -15.8847 O   0  0  0  0  0  0  0  0  0  0  0  0
  2  1  1  0
  2  3  2  0
  4  2  1  0
  5  4  1  0
  5  6  1  0
  7  6  1  0
  7  8  1  0
  8  9  1  1
 10  8  1  0
 10 11  2  0
 13 12  1  6
 13 14  1  0
 13 15  1  0
 15 16  1  6
 16 10  1  0
 17 15  1  0
 18 17  2  0
 19 20  1  0
 20 21  1  0
 21 23  1  0
 21 22  1  6
 23 24  1  1
 23 25  1  0
 24 17  1  0
 25 27  1  0
 26 25  2  0
M  END
$$$$
