RTI.pdb
     RDKit          3D

 27 26  0  0  1  0  0  0  0  0999 V2000
   29.3888  -18.4513  -20.3612 N   0  0  0  0  0  0  0  0  0  0  0  0
   29.3477  -19.8750  -20.3657 C   0  0  0  0  0  0  0  0  0  0  0  0
   29.0980  -20.4451  -21.4913 N   0  0  0  0  0  0  0  0  0  0  0  0
   29.5719  -20.6426  -19.1869 N   0  0  0  0  0  0  0  0  0  0  0  0
   29.2190  -20.1546  -17.8937 C   0  0  0  0  0  0  0  0  0  0  0  0
   27.7712  -19.7084  -17.7757 C   0  0  0  0  0  0  0  0  0  0  0  0
   27.5215  -19.1664  -16.3900 C   0  0  0  0  0  0  0  0  0  0  0  0
   27.7270  -20.1712  -15.3052 C   0  0  2  0  0  0  0  0  0  0  0  0
   27.4279  -21.5082  -15.7182 N   0  0  0  0  0  0  0  0  0  0  0  0
   26.9374  -19.7660  -14.1036 C   0  0  0  0  0  0  0  0  0  0  0  0
   27.0258  -18.5831  -13.6461 O   0  0  0  0  0  0  0  0  0  0  0  0
   29.0307  -21.4827  -21.5295 C   0  0  0  0  0  0  0  0  0  0  0  0
   23.2134  -19.7759  -13.4776 C   0  0  2  0  0  0  0  0  0  0  0  0
   23.8395  -20.5855  -12.3564 O   0  0  0  0  0  0  0  0  0  0  0  0
   23.5739  -21.9268  -12.5047 C   0  0  2  0  0  0  0  0  0  0  0  0
   25.3186  -20.2776  -12.2632 N   0  0  0  0  0  0  0  0  0  0  0  0
   26.0648  -20.6544  -13.4199 C   0  0  0  0  0  0  0  0  0  0  0  0
   25.8172  -20.9050  -11.0122 O   0  0  0  0  0  0  0  0  0  0  0  0
   26.3711  -22.0285  -11.0891 C   0  0  0  0  0  0  0  0  0  0  0  0
   28.7837  -19.8796   -5.8948 C   0  0  0  0  0  0  0  0  0  0  0  0
   27.7045  -20.6744   -6.5486 C   0  0  2  0  0  0  0  0  0  0  0  0
   27.1415  -20.2059   -7.8250 C   0  0  0  0  0  0  0  0  0  0  0  0
   26.5658  -18.7918   -7.5067 C   0  0  2  0  0  0  0  0  0  0  0  0
   26.1264  -21.0408   -8.4840 N   0  0  0  0  0  0  0  0  0  0  0  0
   25.7059  -20.3136   -9.7443 C   0  0  0  0  0  0  0  0  0  0  0  0
   24.8732  -21.2572   -7.7955 O   0  0  0  0  0  0  0  0  0  0  0  0
   24.8362  -22.0567   -6.7938 O   0  0  0  0  0  0  0  0  0  0  0  0
  2  1  1  0
  2  3  2  0
  4  2  1  0
  5  4  1  0
  5  6  1  0
  7  6  1  0
  7  8  1  0
  8  9  1  6
 10  8  1  0
 10 11  2  0
 13 12  1  1
 13 14  1  0
 13 15  1  0
 15 16  1  1
 16 10  1  0
 17 15  1  0
 18 17  2  0
 19 20  1  0
 20 21  1  0
 21 23  1  0
 21 22  1  6
 23 24  1  1
 23 25  1  0
 24 17  1  0
 25 27  1  0
 26 25  2  0
M  END
$$$$
