RTI.pdb
     RDKit          3D

 27 26  0  0  1  0  0  0  0  0999 V2000
   26.3030  -12.8253  -17.9575 N   0  0  0  0  0  0  0  0  0  0  0  0
   27.4215  -13.1516  -17.1382 C   0  0  0  0  0  0  0  0  0  0  0  0
   28.5810  -13.1037  -17.6927 N   0  0  0  0  0  0  0  0  0  0  0  0
   27.2764  -13.5140  -15.7683 N   0  0  0  0  0  0  0  0  0  0  0  0
   26.7935  -14.7982  -15.3776 C   0  0  0  0  0  0  0  0  0  0  0  0
   25.7013  -15.3483  -16.2797 C   0  0  0  0  0  0  0  0  0  0  0  0
   25.2803  -16.7114  -15.7888 C   0  0  0  0  0  0  0  0  0  0  0  0
   26.2820  -17.7843  -16.0609 C   0  0  2  0  0  0  0  0  0  0  0  0
   26.4999  -18.0038  -17.4581 N   0  0  0  0  0  0  0  0  0  0  0  0
   25.8679  -19.0341  -15.3553 C   0  0  0  0  0  0  0  0  0  0  0  0
   25.1210  -19.8826  -15.9370 O   0  0  0  0  0  0  0  0  0  0  0  0
   29.4245  -13.3170  -17.1221 C   0  0  0  0  0  0  0  0  0  0  0  0
   25.9130  -21.9269  -11.3040 C   0  0  2  0  0  0  0  0  0  0  0  0
   26.6259  -20.8639  -12.1203 O   0  0  0  0  0  0  0  0  0  0  0  0
   27.8824  -21.2827  -12.4911 C   0  0  1  0  0  0  0  0  0  0  0  0
   25.7640  -20.4529  -13.2948 N   0  0  0  0  0  0  0  0  0  0  0  0
   26.2735  -19.3399  -14.0286 C   0  0  0  0  0  0  0  0  0  0  0  0
   24.3905  -20.2333  -12.7725 O   0  0  0  0  0  0  0  0  0  0  0  0
   24.2053  -19.2952  -11.9598 C   0  0  0  0  0  0  0  0  0  0  0  0
   19.3297  -18.7142  -15.0209 C   0  0  0  0  0  0  0  0  0  0  0  0
   19.9129  -19.4485  -13.8613 C   0  0  2  0  0  0  0  0  0  0  0  0
   21.2933  -19.9508  -13.9511 C   0  0  0  0  0  0  0  0  0  0  0  0
   21.2819  -20.9189  -15.1738 C   0  0  2  0  0  0  0  0  0  0  0  0
   21.8685  -20.6143  -12.7719 N   0  0  0  0  0  0  0  0  0  0  0  0
   23.2830  -21.0150  -13.1359 C   0  0  0  0  0  0  0  0  0  0  0  0
   21.2758  -21.8594  -12.3361 O   0  0  0  0  0  0  0  0  0  0  0  0
   21.7229  -22.9662  -12.8043 O   0  0  0  0  0  0  0  0  0  0  0  0
  2  1  1  0
  2  3  2  0
  4  2  1  0
  5  4  1  0
  5  6  1  0
  7  6  1  0
  7  8  1  0
  8  9  1  6
 10  8  1  0
 10 11  2  0
 13 12  1  1
 13 14  1  0
 13 15  1  0
 15 16  1  1
 16 10  1  0
 17 15  1  0
 18 17  2  0
 19 20  1  0
 20 21  1  0
 21 23  1  0
 21 22  1  1
 23 24  1  1
 23 25  1  0
 24 17  1  0
 25 27  1  0
 26 25  2  0
M  END
$$$$
