RTI.pdb
     RDKit          3D

 27 26  0  0  1  0  0  0  0  0999 V2000
   11.9089  -12.1587  -14.9013 N   0  0  0  0  0  0  0  0  0  0  0  0
   12.8311  -13.1330  -14.4228 C   0  0  0  0  0  0  0  0  0  0  0  0
   12.7426  -14.3130  -14.9269 N   0  0  0  0  0  0  0  0  0  0  0  0
   13.8103  -12.8276  -13.4345 N   0  0  0  0  0  0  0  0  0  0  0  0
   13.6113  -11.7919  -12.4740 C   0  0  0  0  0  0  0  0  0  0  0  0
   14.8004  -11.5639  -11.5557 C   0  0  0  0  0  0  0  0  0  0  0  0
   15.4232  -10.2237  -11.8598 C   0  0  0  0  0  0  0  0  0  0  0  0
   14.9092   -9.1138  -11.0041 C   0  0  2  0  0  0  0  0  0  0  0  0
   13.5050   -8.8894  -11.1640 N   0  0  0  0  0  0  0  0  0  0  0  0
   15.7075   -7.8791  -11.2682 C   0  0  0  0  0  0  0  0  0  0  0  0
   15.4323   -7.1370  -12.2631 O   0  0  0  0  0  0  0  0  0  0  0  0
   13.3935  -15.0548  -14.5971 C   0  0  0  0  0  0  0  0  0  0  0  0
   15.9217   -4.8124   -9.2390 C   0  0  2  0  0  0  0  0  0  0  0  0
   17.3466   -5.3161   -9.3821 O   0  0  0  0  0  0  0  0  0  0  0  0
   17.7803   -5.9141   -8.2221 C   0  0  2  0  0  0  0  0  0  0  0  0
   17.4545   -6.2171  -10.5936 N   0  0  0  0  0  0  0  0  0  0  0  0
   16.7919   -7.4724  -10.4455 C   0  0  0  0  0  0  0  0  0  0  0  0
   18.8998   -6.3496  -10.9117 O   0  0  0  0  0  0  0  0  0  0  0  0
   19.6081   -7.0758  -10.1729 C   0  0  0  0  0  0  0  0  0  0  0  0
   21.1535   -9.0878  -14.3453 C   0  0  0  0  0  0  0  0  0  0  0  0
   21.0336   -8.1646  -13.1802 C   0  0  2  0  0  0  0  0  0  0  0  0
   21.1912   -6.7170  -13.3928 C   0  0  0  0  0  0  0  0  0  0  0  0
   22.6224   -6.5599  -13.9922 C   0  0  2  0  0  0  0  0  0  0  0  0
   21.0129   -5.8227  -12.2394 N   0  0  0  0  0  0  0  0  0  0  0  0
   19.5226   -5.7091  -11.9941 C   0  0  0  0  0  0  0  0  0  0  0  0
   21.4294   -4.4447  -12.3773 O   0  0  0  0  0  0  0  0  0  0  0  0
   20.6464   -3.6055  -12.9487 O   0  0  0  0  0  0  0  0  0  0  0  0
  2  1  1  0
  2  3  2  0
  4  2  1  0
  5  4  1  0
  5  6  1  0
  7  6  1  0
  7  8  1  0
  8  9  1  6
 10  8  1  0
 10 11  2  0
 13 12  1  1
 13 14  1  0
 13 15  1  0
 15 16  1  6
 16 10  1  0
 17 15  1  0
 18 17  2  0
 19 20  1  0
 20 21  1  0
 21 23  1  0
 21 22  1  6
 23 24  1  1
 23 25  1  0
 24 17  1  0
 25 27  1  0
 26 25  2  0
M  END
$$$$
