RTI.pdb
     RDKit          3D

 27 26  0  0  1  0  0  0  0  0999 V2000
   14.4951  -21.3921  -12.3530 N   0  0  0  0  0  0  0  0  0  0  0  0
   14.6719  -22.7804  -12.6176 C   0  0  0  0  0  0  0  0  0  0  0  0
   13.8251  -23.3324  -13.4129 N   0  0  0  0  0  0  0  0  0  0  0  0
   15.7327  -23.5328  -12.0365 N   0  0  0  0  0  0  0  0  0  0  0  0
   17.0224  -22.9653  -11.8137 C   0  0  0  0  0  0  0  0  0  0  0  0
   18.0145  -23.2267  -12.9347 C   0  0  0  0  0  0  0  0  0  0  0  0
   19.2954  -22.4784  -12.6598 C   0  0  0  0  0  0  0  0  0  0  0  0
   19.5332  -21.3325  -13.5866 C   0  0  2  0  0  0  0  0  0  0  0  0
   18.4272  -21.0810  -14.4592 N   0  0  0  0  0  0  0  0  0  0  0  0
   20.8009  -21.5656  -14.3416 C   0  0  0  0  0  0  0  0  0  0  0  0
   20.8765  -22.5047  -15.1952 O   0  0  0  0  0  0  0  0  0  0  0  0
   13.9604  -24.3274  -13.6855 C   0  0  0  0  0  0  0  0  0  0  0  0
   22.1329  -18.8874  -16.3981 C   0  0  1  0  0  0  0  0  0  0  0  0
   22.6973  -20.2952  -16.4626 O   0  0  0  0  0  0  0  0  0  0  0  0
   23.7456  -20.3693  -17.3498 C   0  0  1  0  0  0  0  0  0  0  0  0
   23.0595  -20.7686  -15.0712 N   0  0  0  0  0  0  0  0  0  0  0  0
   21.9650  -20.7730  -14.1553 C   0  0  0  0  0  0  0  0  0  0  0  0
   24.2055  -19.9413  -14.6132 O   0  0  0  0  0  0  0  0  0  0  0  0
   23.9666  -18.8079  -14.1304 C   0  0  0  0  0  0  0  0  0  0  0  0
   26.3781  -21.4599  -10.5365 C   0  0  0  0  0  0  0  0  0  0  0  0
   26.0623  -20.5589  -11.6823 C   0  0  2  0  0  0  0  0  0  0  0  0
   27.0178  -20.4537  -12.7965 C   0  0  0  0  0  0  0  0  0  0  0  0
   28.3318  -19.9284  -12.1411 C   0  0  2  0  0  0  0  0  0  0  0  0
   26.6482  -19.6224  -13.9515 N   0  0  0  0  0  0  0  0  0  0  0  0
   25.5450  -20.3537  -14.6879 C   0  0  0  0  0  0  0  0  0  0  0  0
   27.6424  -19.4064  -14.9793 O   0  0  0  0  0  0  0  0  0  0  0  0
   27.8669  -20.3293  -15.8406 O   0  0  0  0  0  0  0  0  0  0  0  0
  2  1  1  0
  2  3  2  0
  4  2  1  0
  5  4  1  0
  5  6  1  0
  7  6  1  0
  7  8  1  0
  8  9  1  6
 10  8  1  0
 10 11  2  0
 13 12  1  6
 13 14  1  0
 13 15  1  0
 15 16  1  6
 16 10  1  0
 17 15  1  0
 18 17  2  0
 19 20  1  0
 20 21  1  0
 21 23  1  0
 21 22  1  6
 23 24  1  1
 23 25  1  0
 24 17  1  0
 25 27  1  0
 26 25  2  0
M  END
$$$$
