QLQ.pdb
     RDKit          3D

 27 26  0  0  1  0  0  0  0  0999 V2000
   13.6495  -18.1406   17.8256 N   0  0  0  0  0  0  0  0  0  0  0  0
   12.3428  -18.6504   17.5067 C   0  0  0  0  0  0  0  0  0  0  0  0
   12.1916  -19.3006   16.4423 O   0  0  0  0  0  0  0  0  0  0  0  0
   11.2708  -18.3639   18.4591 C   0  0  0  0  0  0  0  0  0  0  0  0
   11.6878  -17.5463   19.6311 C   0  0  0  0  0  0  0  0  0  0  0  0
   10.8674  -17.8297   20.8308 C   0  0  2  0  0  0  0  0  0  0  0  0
    9.6756  -18.5669   20.5228 N   0  0  0  0  0  0  0  0  0  0  0  0
   10.4283  -16.5645   21.5229 C   0  0  0  0  0  0  0  0  0  0  0  0
   11.2817  -15.7349   21.8853 O   0  0  0  0  0  0  0  0  0  0  0  0
    8.8395  -12.8686   20.0634 C   0  0  0  0  0  0  0  0  0  0  0  0
    7.8041  -13.9594   20.1604 C   0  0  2  0  0  0  0  0  0  0  0  0
    6.4961  -13.3459   19.6232 C   0  0  0  0  0  0  0  0  0  0  0  0
    7.5073  -14.4062   21.5360 C   0  0  0  0  0  0  0  0  0  0  0  0
    8.5327  -15.1551   22.2913 C   0  0  2  0  0  0  0  0  0  0  0  0
    9.0201  -16.3700   21.7366 N   0  0  0  0  0  0  0  0  0  0  0  0
    8.1213  -15.4509   23.7006 C   0  0  0  0  0  0  0  0  0  0  0  0
    7.0184  -15.0414   24.1846 O   0  0  0  0  0  0  0  0  0  0  0  0
    5.2221  -18.4114   24.1204 N   0  0  0  0  0  0  0  0  0  0  0  0
    6.0098  -19.2987   24.8792 C   0  0  0  0  0  0  0  0  0  0  0  0
    5.7125  -20.5425   24.8328 O   0  0  0  0  0  0  0  0  0  0  0  0
    7.1343  -18.7859   25.6840 C   0  0  0  0  0  0  0  0  0  0  0  0
    7.2019  -17.3145   25.6587 C   0  0  0  0  0  0  0  0  0  0  0  0
    8.5262  -16.6553   25.9035 C   0  0  2  0  0  0  0  0  0  0  0  0
    8.9486  -16.2007   24.5502 N   0  0  0  0  0  0  0  0  0  0  0  0
    9.5534  -17.3818   26.5948 C   0  0  0  0  0  0  0  0  0  0  0  0
    9.4692  -17.6766   27.9406 O   0  0  0  0  0  0  0  0  0  0  0  0
   10.5924  -17.7732   25.9692 O   0  0  0  0  0  0  0  0  0  0  0  0
  2  1  1  0
  3  2  2  0
  4  2  1  0
  5  4  1  0
  6  7  1  6
  6  5  1  0
  8  6  1  0
  9  8  2  0
 11 10  1  1
 12 11  1  0
 13 11  1  0
 14 13  1  6
 14 15  1  0
 15  8  1  0
 16 24  1  0
 16 14  1  0
 17 16  2  0
 18 19  1  0
 19 21  1  0
 20 19  2  0
 21 22  1  0
 23 22  1  6
 23 24  1  0
 23 25  1  0
 25 26  1  0
 27 25  2  0
M  END
$$$$
