QLQ.pdb
     RDKit          3D

 27 26  0  0  1  0  0  0  0  0999 V2000
    5.3679  -20.6908   24.3425 N   0  0  0  0  0  0  0  0  0  0  0  0
    4.9861  -20.5018   22.9686 C   0  0  0  0  0  0  0  0  0  0  0  0
    4.4469  -21.4565   22.3551 O   0  0  0  0  0  0  0  0  0  0  0  0
    5.2638  -19.1928   22.3791 C   0  0  0  0  0  0  0  0  0  0  0  0
    5.8394  -18.1985   23.3258 C   0  0  0  0  0  0  0  0  0  0  0  0
    5.9953  -16.8624   22.7069 C   0  0  2  0  0  0  0  0  0  0  0  0
    6.2731  -16.9344   21.3011 N   0  0  0  0  0  0  0  0  0  0  0  0
    7.1228  -16.0814   23.3325 C   0  0  0  0  0  0  0  0  0  0  0  0
    8.2578  -16.1282   22.8251 O   0  0  0  0  0  0  0  0  0  0  0  0
    7.3774  -11.3745   24.8532 C   0  0  0  0  0  0  0  0  0  0  0  0
    6.6387  -12.4137   25.6567 C   0  0  2  0  0  0  0  0  0  0  0  0
    6.1426  -11.6902   26.9241 C   0  0  0  0  0  0  0  0  0  0  0  0
    7.4747  -13.5346   26.1307 C   0  0  0  0  0  0  0  0  0  0  0  0
    7.8636  -14.5992   25.1830 C   0  0  2  0  0  0  0  0  0  0  0  0
    6.8313  -15.3048   24.5066 N   0  0  0  0  0  0  0  0  0  0  0  0
    8.7675  -15.6249   25.7944 C   0  0  0  0  0  0  0  0  0  0  0  0
    8.3617  -16.4447   26.6785 O   0  0  0  0  0  0  0  0  0  0  0  0
    9.9507  -20.0756   22.1912 N   0  0  0  0  0  0  0  0  0  0  0  0
    9.7643  -20.1159   23.5866 C   0  0  0  0  0  0  0  0  0  0  0  0
    8.8355  -20.8713   24.0386 O   0  0  0  0  0  0  0  0  0  0  0  0
   10.6272  -19.3112   24.4714 C   0  0  0  0  0  0  0  0  0  0  0  0
   10.1473  -17.9237   24.5932 C   0  0  0  0  0  0  0  0  0  0  0  0
   10.8951  -16.9848   25.4919 C   0  0  2  0  0  0  0  0  0  0  0  0
   10.1131  -15.7206   25.4090 N   0  0  0  0  0  0  0  0  0  0  0  0
   12.3015  -16.7866   25.2836 C   0  0  0  0  0  0  0  0  0  0  0  0
   12.7930  -15.7685   24.4917 O   0  0  0  0  0  0  0  0  0  0  0  0
   13.1463  -17.5679   25.8315 O   0  0  0  0  0  0  0  0  0  0  0  0
  2  1  1  0
  3  2  2  0
  4  2  1  0
  5  4  1  0
  6  7  1  6
  6  5  1  0
  8  6  1  0
  9  8  2  0
 11 10  1  6
 12 11  1  0
 13 11  1  0
 14 13  1  1
 14 15  1  0
 15  8  1  0
 16 24  1  0
 16 14  1  0
 17 16  2  0
 18 19  1  0
 19 21  1  0
 20 19  2  0
 21 22  1  0
 23 22  1  6
 23 24  1  0
 23 25  1  0
 25 26  1  0
 27 25  2  0
M  END
$$$$
