QLQ.pdb
     RDKit          3D

 27 26  0  0  1  0  0  0  0  0999 V2000
    7.1696  -12.4453   18.8978 N   0  0  0  0  0  0  0  0  0  0  0  0
    8.5795  -12.6804   19.0589 C   0  0  0  0  0  0  0  0  0  0  0  0
    9.3896  -11.8939   18.5078 O   0  0  0  0  0  0  0  0  0  0  0  0
    8.9692  -13.8393   19.8610 C   0  0  0  0  0  0  0  0  0  0  0  0
    7.8301  -14.5864   20.4613 C   0  0  0  0  0  0  0  0  0  0  0  0
    8.2846  -15.6594   21.3748 C   0  0  2  0  0  0  0  0  0  0  0  0
    7.2550  -16.6187   21.6547 N   0  0  0  0  0  0  0  0  0  0  0  0
    8.7396  -15.1111   22.7033 C   0  0  0  0  0  0  0  0  0  0  0  0
    9.7532  -14.3917   22.7561 O   0  0  0  0  0  0  0  0  0  0  0  0
    7.6406  -11.8603   25.7179 C   0  0  0  0  0  0  0  0  0  0  0  0
    6.6830  -13.0164   25.5842 C   0  0  2  0  0  0  0  0  0  0  0  0
    5.5436  -12.7356   26.5836 C   0  0  0  0  0  0  0  0  0  0  0  0
    7.2436  -14.3277   25.9664 C   0  0  0  0  0  0  0  0  0  0  0  0
    8.3158  -14.9246   25.1437 C   0  0  2  0  0  0  0  0  0  0  0  0
    7.9692  -15.4496   23.8688 N   0  0  0  0  0  0  0  0  0  0  0  0
    9.0803  -15.9920   25.8641 C   0  0  0  0  0  0  0  0  0  0  0  0
    9.2572  -15.9659   27.1236 O   0  0  0  0  0  0  0  0  0  0  0  0
   11.0761  -21.0919   22.8426 N   0  0  0  0  0  0  0  0  0  0  0  0
    9.8048  -20.4861   22.8168 C   0  0  0  0  0  0  0  0  0  0  0  0
    8.9925  -20.8529   21.8987 O   0  0  0  0  0  0  0  0  0  0  0  0
    9.4477  -19.4734   23.8277 C   0  0  0  0  0  0  0  0  0  0  0  0
   10.5687  -19.1890   24.7403 C   0  0  0  0  0  0  0  0  0  0  0  0
   10.3609  -18.1890   25.8380 C   0  0  2  0  0  0  0  0  0  0  0  0
    9.6368  -17.0747   25.1667 N   0  0  0  0  0  0  0  0  0  0  0  0
   11.4913  -17.7413   26.6013 C   0  0  0  0  0  0  0  0  0  0  0  0
   12.0833  -16.5125   26.3898 O   0  0  0  0  0  0  0  0  0  0  0  0
   11.9892  -18.4878   27.5062 O   0  0  0  0  0  0  0  0  0  0  0  0
  2  1  1  0
  3  2  2  0
  4  2  1  0
  5  4  1  0
  6  7  1  1
  6  5  1  0
  8  6  1  0
  9  8  2  0
 11 10  1  1
 12 11  1  0
 13 11  1  0
 14 13  1  1
 14 15  1  0
 15  8  1  0
 16 24  1  0
 16 14  1  0
 17 16  2  0
 18 19  1  0
 19 21  1  0
 20 19  2  0
 21 22  1  0
 23 22  1  6
 23 24  1  0
 23 25  1  0
 25 26  1  0
 27 25  2  0
M  END
$$$$
