QLQ.pdb
     RDKit          3D

 27 26  0  0  1  0  0  0  0  0999 V2000
    7.8435  -17.1036   17.3251 N   0  0  0  0  0  0  0  0  0  0  0  0
    8.3937  -16.4414   18.4775 C   0  0  0  0  0  0  0  0  0  0  0  0
    9.5858  -16.0469   18.4352 O   0  0  0  0  0  0  0  0  0  0  0  0
    7.5105  -16.2796   19.6316 C   0  0  0  0  0  0  0  0  0  0  0  0
    8.1058  -15.5169   20.7629 C   0  0  0  0  0  0  0  0  0  0  0  0
    8.0493  -16.2704   22.0364 C   0  0  2  0  0  0  0  0  0  0  0  0
    6.7257  -16.7282   22.3484 N   0  0  0  0  0  0  0  0  0  0  0  0
    8.5060  -15.4344   23.2047 C   0  0  0  0  0  0  0  0  0  0  0  0
    9.6732  -15.0049   23.2334 O   0  0  0  0  0  0  0  0  0  0  0  0
    7.7959  -11.3452   25.2914 C   0  0  0  0  0  0  0  0  0  0  0  0
    6.6348  -12.2944   25.4400 C   0  0  2  0  0  0  0  0  0  0  0  0
    5.6423  -11.5980   26.3917 C   0  0  0  0  0  0  0  0  0  0  0  0
    6.9708  -13.5834   26.0769 C   0  0  0  0  0  0  0  0  0  0  0  0
    7.9528  -14.4771   25.4290 C   0  0  2  0  0  0  0  0  0  0  0  0
    7.5567  -15.1665   24.2504 N   0  0  0  0  0  0  0  0  0  0  0  0
    8.5198  -15.4995   26.3650 C   0  0  0  0  0  0  0  0  0  0  0  0
    9.0659  -15.1789   27.4684 O   0  0  0  0  0  0  0  0  0  0  0  0
    6.3375  -21.0999   27.7028 N   0  0  0  0  0  0  0  0  0  0  0  0
    6.6914  -20.9198   26.3515 C   0  0  0  0  0  0  0  0  0  0  0  0
    6.2976  -21.8029   25.5133 O   0  0  0  0  0  0  0  0  0  0  0  0
    7.4824  -19.7434   25.9448 C   0  0  0  0  0  0  0  0  0  0  0  0
    7.7864  -18.8642   27.0871 C   0  0  0  0  0  0  0  0  0  0  0  0
    8.9535  -17.9290   26.9788 C   0  0  2  0  0  0  0  0  0  0  0  0
    8.4687  -16.8668   26.0550 N   0  0  0  0  0  0  0  0  0  0  0  0
   10.2375  -18.4511   26.6052 C   0  0  0  0  0  0  0  0  0  0  0  0
   10.9827  -19.2490   27.4497 O   0  0  0  0  0  0  0  0  0  0  0  0
   10.7323  -18.1775   25.4631 O   0  0  0  0  0  0  0  0  0  0  0  0
  2  1  1  0
  3  2  2  0
  4  2  1  0
  5  4  1  0
  6  7  1  1
  6  5  1  0
  8  6  1  0
  9  8  2  0
 11 10  1  1
 12 11  1  0
 13 11  1  0
 14 13  1  1
 14 15  1  0
 15  8  1  0
 16 24  1  0
 16 14  1  0
 17 16  2  0
 18 19  1  0
 19 21  1  0
 20 19  2  0
 21 22  1  0
 23 22  1  6
 23 24  1  0
 23 25  1  0
 25 26  1  0
 27 25  2  0
M  END
$$$$
