QLQ.pdb
     RDKit          3D

 27 26  0  0  1  0  0  0  0  0999 V2000
    9.5369  -16.8967   18.6483 N   0  0  0  0  0  0  0  0  0  0  0  0
    8.1763  -17.3573   18.5738 C   0  0  0  0  0  0  0  0  0  0  0  0
    7.8870  -18.2538   17.7424 O   0  0  0  0  0  0  0  0  0  0  0  0
    7.2161  -16.7332   19.4831 C   0  0  0  0  0  0  0  0  0  0  0  0
    7.8128  -15.7600   20.4386 C   0  0  0  0  0  0  0  0  0  0  0  0
    8.1290  -16.3814   21.7450 C   0  0  2  0  0  0  0  0  0  0  0  0
    7.0141  -17.0918   22.3024 N   0  0  0  0  0  0  0  0  0  0  0  0
    8.5460  -15.3562   22.7686 C   0  0  0  0  0  0  0  0  0  0  0  0
    9.5094  -14.6063   22.5295 O   0  0  0  0  0  0  0  0  0  0  0  0
    7.5592  -11.3313   25.4128 C   0  0  0  0  0  0  0  0  0  0  0  0
    6.5589  -12.4585   25.4266 C   0  0  2  0  0  0  0  0  0  0  0  0
    5.5182  -12.0833   26.4999 C   0  0  0  0  0  0  0  0  0  0  0  0
    7.1100  -13.7658   25.8357 C   0  0  0  0  0  0  0  0  0  0  0  0
    8.1782  -14.3869   25.0259 C   0  0  2  0  0  0  0  0  0  0  0  0
    7.7993  -15.2899   23.9952 N   0  0  0  0  0  0  0  0  0  0  0  0
    9.2140  -15.0798   25.8565 C   0  0  0  0  0  0  0  0  0  0  0  0
    9.7216  -14.5435   26.8924 O   0  0  0  0  0  0  0  0  0  0  0  0
    6.8369  -19.6589   26.2223 N   0  0  0  0  0  0  0  0  0  0  0  0
    7.3578  -19.7596   27.5270 C   0  0  0  0  0  0  0  0  0  0  0  0
    7.0727  -20.8105   28.1991 O   0  0  0  0  0  0  0  0  0  0  0  0
    8.2036  -18.6807   28.0707 C   0  0  0  0  0  0  0  0  0  0  0  0
    8.4398  -17.6159   27.0805 C   0  0  0  0  0  0  0  0  0  0  0  0
    9.8187  -17.4614   26.5118 C   0  0  2  0  0  0  0  0  0  0  0  0
    9.6685  -16.3632   25.5179 N   0  0  0  0  0  0  0  0  0  0  0  0
   10.4885  -18.6124   25.9759 C   0  0  0  0  0  0  0  0  0  0  0  0
   11.1809  -19.5004   26.7741 O   0  0  0  0  0  0  0  0  0  0  0  0
   10.4646  -18.8412   24.7224 O   0  0  0  0  0  0  0  0  0  0  0  0
  2  1  1  0
  3  2  2  0
  4  2  1  0
  5  4  1  0
  6  7  1  1
  6  5  1  0
  8  6  1  0
  9  8  2  0
 11 10  1  1
 12 11  1  0
 13 11  1  0
 14 13  1  1
 14 15  1  0
 15  8  1  0
 16 24  1  0
 16 14  1  0
 17 16  2  0
 18 19  1  0
 19 21  1  0
 20 19  2  0
 21 22  1  0
 23 22  1  6
 23 24  1  0
 23 25  1  0
 25 26  1  0
 27 25  2  0
M  END
$$$$
