QLQ.pdb
     RDKit          3D

 27 26  0  0  1  0  0  0  0  0999 V2000
    9.2448  -16.3386   17.8179 N   0  0  0  0  0  0  0  0  0  0  0  0
    8.0098  -16.9204   18.2710 C   0  0  0  0  0  0  0  0  0  0  0  0
    7.6991  -18.0686   17.8665 O   0  0  0  0  0  0  0  0  0  0  0  0
    7.1937  -16.1156   19.1790 C   0  0  0  0  0  0  0  0  0  0  0  0
    7.9681  -15.3679   20.2073 C   0  0  0  0  0  0  0  0  0  0  0  0
    8.1824  -16.1663   21.4358 C   0  0  2  0  0  0  0  0  0  0  0  0
    6.9619  -16.7061   21.9629 N   0  0  0  0  0  0  0  0  0  0  0  0
    8.8055  -15.3467   22.5370 C   0  0  0  0  0  0  0  0  0  0  0  0
    9.8713  -14.7412   22.3239 O   0  0  0  0  0  0  0  0  0  0  0  0
    7.3935  -11.4935   25.1775 C   0  0  0  0  0  0  0  0  0  0  0  0
    6.6918  -12.8075   25.4066 C   0  0  2  0  0  0  0  0  0  0  0  0
    5.7485  -12.5767   26.6035 C   0  0  0  0  0  0  0  0  0  0  0  0
    7.5800  -13.9197   25.7989 C   0  0  0  0  0  0  0  0  0  0  0  0
    8.5764  -14.4263   24.8327 C   0  0  2  0  0  0  0  0  0  0  0  0
    8.1293  -15.3006   23.8047 N   0  0  0  0  0  0  0  0  0  0  0  0
    9.7469  -15.0879   25.4923 C   0  0  0  0  0  0  0  0  0  0  0  0
   10.6218  -14.4287   26.1392 O   0  0  0  0  0  0  0  0  0  0  0  0
   11.6745  -15.7435   30.3960 N   0  0  0  0  0  0  0  0  0  0  0  0
   11.2300  -17.0128   29.9778 C   0  0  0  0  0  0  0  0  0  0  0  0
   10.5369  -17.7000   30.8053 O   0  0  0  0  0  0  0  0  0  0  0  0
   11.5608  -17.5040   28.6271 C   0  0  0  0  0  0  0  0  0  0  0  0
   10.7465  -16.8481   27.5893 C   0  0  0  0  0  0  0  0  0  0  0  0
   10.9989  -17.2003   26.1538 C   0  0  2  0  0  0  0  0  0  0  0  0
    9.9238  -16.4777   25.4199 N   0  0  0  0  0  0  0  0  0  0  0  0
   11.1000  -18.5823   25.7787 C   0  0  0  0  0  0  0  0  0  0  0  0
   12.1765  -19.3670   26.1398 O   0  0  0  0  0  0  0  0  0  0  0  0
   10.1813  -19.1256   25.0823 O   0  0  0  0  0  0  0  0  0  0  0  0
  2  1  1  0
  3  2  2  0
  4  2  1  0
  5  4  1  0
  6  7  1  1
  6  5  1  0
  8  6  1  0
  9  8  2  0
 11 10  1  1
 12 11  1  0
 13 11  1  0
 14 13  1  1
 14 15  1  0
 15  8  1  0
 16 24  1  0
 16 14  1  0
 17 16  2  0
 18 19  1  0
 19 21  1  0
 20 19  2  0
 21 22  1  0
 23 22  1  1
 23 24  1  0
 23 25  1  0
 25 26  1  0
 27 25  2  0
M  END
$$$$
