QLQ.pdb
     RDKit          3D

 27 26  0  0  1  0  0  0  0  0999 V2000
    8.2572  -20.4654   20.3297 N   0  0  0  0  0  0  0  0  0  0  0  0
    9.1778  -19.4475   19.8992 C   0  0  0  0  0  0  0  0  0  0  0  0
   10.3266  -19.7918   19.5243 O   0  0  0  0  0  0  0  0  0  0  0  0
    8.7005  -18.0658   19.9359 C   0  0  0  0  0  0  0  0  0  0  0  0
    9.1596  -17.2849   21.1172 C   0  0  0  0  0  0  0  0  0  0  0  0
    8.5707  -15.9267   21.1527 C   0  0  2  0  0  0  0  0  0  0  0  0
    9.0546  -15.0876   20.0941 N   0  0  0  0  0  0  0  0  0  0  0  0
    8.8777  -15.2147   22.4455 C   0  0  0  0  0  0  0  0  0  0  0  0
   10.0554  -15.1369   22.8390 O   0  0  0  0  0  0  0  0  0  0  0  0
    5.7661  -12.2066   27.0335 C   0  0  0  0  0  0  0  0  0  0  0  0
    7.0173  -12.8198   26.4592 C   0  0  2  0  0  0  0  0  0  0  0  0
    8.0566  -11.6828   26.4075 C   0  0  0  0  0  0  0  0  0  0  0  0
    6.8827  -13.3095   25.0729 C   0  0  0  0  0  0  0  0  0  0  0  0
    7.9760  -14.1041   24.4761 C   0  0  2  0  0  0  0  0  0  0  0  0
    7.7780  -14.6483   23.1777 N   0  0  0  0  0  0  0  0  0  0  0  0
    8.4313  -15.2266   25.3568 C   0  0  0  0  0  0  0  0  0  0  0  0
    7.7255  -16.2678   25.5468 O   0  0  0  0  0  0  0  0  0  0  0  0
   13.8874  -17.2049   25.0364 N   0  0  0  0  0  0  0  0  0  0  0  0
   12.7579  -17.8563   24.5039 C   0  0  0  0  0  0  0  0  0  0  0  0
   12.9377  -18.6266   23.4980 O   0  0  0  0  0  0  0  0  0  0  0  0
   11.4292  -17.6448   25.1080 C   0  0  0  0  0  0  0  0  0  0  0  0
   11.4745  -16.6626   26.2050 C   0  0  0  0  0  0  0  0  0  0  0  0
   10.1879  -16.2728   26.8692 C   0  0  2  0  0  0  0  0  0  0  0  0
    9.6699  -15.1702   26.0134 N   0  0  0  0  0  0  0  0  0  0  0  0
   10.1928  -15.9409   28.2659 C   0  0  0  0  0  0  0  0  0  0  0  0
    9.8606  -14.6826   28.7256 O   0  0  0  0  0  0  0  0  0  0  0  0
   10.5183  -16.8181   29.1313 O   0  0  0  0  0  0  0  0  0  0  0  0
  2  1  1  0
  3  2  2  0
  4  2  1  0
  5  4  1  0
  6  7  1  6
  6  5  1  0
  8  6  1  0
  9  8  2  0
 11 10  1  6
 12 11  1  0
 13 11  1  0
 14 13  1  1
 14 15  1  0
 15  8  1  0
 16 24  1  0
 16 14  1  0
 17 16  2  0
 18 19  1  0
 19 21  1  0
 20 19  2  0
 21 22  1  0
 23 22  1  6
 23 24  1  0
 23 25  1  0
 25 26  1  0
 27 25  2  0
M  END
$$$$
