QLQ.pdb
     RDKit          3D

 27 26  0  0  1  0  0  0  0  0999 V2000
   10.1895  -15.3340   13.3731 N   0  0  0  0  0  0  0  0  0  0  0  0
    9.5518  -16.6233   13.3697 C   0  0  0  0  0  0  0  0  0  0  0  0
    8.6964  -16.8715   12.4834 O   0  0  0  0  0  0  0  0  0  0  0  0
    9.9505  -17.5611   14.4184 C   0  0  0  0  0  0  0  0  0  0  0  0
   11.0613  -17.0819   15.2859 C   0  0  0  0  0  0  0  0  0  0  0  0
   10.9208  -17.5500   16.6837 C   0  0  2  0  0  0  0  0  0  0  0  0
    9.7561  -18.3650   16.8783 N   0  0  0  0  0  0  0  0  0  0  0  0
   10.8130  -16.4006   17.6531 C   0  0  0  0  0  0  0  0  0  0  0  0
   11.7249  -15.5560   17.7080 O   0  0  0  0  0  0  0  0  0  0  0  0
    6.4751  -12.9680   20.3355 C   0  0  0  0  0  0  0  0  0  0  0  0
    7.9130  -13.4150   20.2730 C   0  0  2  0  0  0  0  0  0  0  0  0
    8.7131  -12.1895   19.7897 C   0  0  0  0  0  0  0  0  0  0  0  0
    8.1826  -14.4870   19.2943 C   0  0  0  0  0  0  0  0  0  0  0  0
    9.4511  -15.2400   19.3760 C   0  0  2  0  0  0  0  0  0  0  0  0
    9.6421  -16.3306   18.4841 N   0  0  0  0  0  0  0  0  0  0  0  0
    9.7435  -15.7454   20.7551 C   0  0  0  0  0  0  0  0  0  0  0  0
    8.8359  -16.2215   21.5088 O   0  0  0  0  0  0  0  0  0  0  0  0
    9.1719  -19.9043   21.8247 N   0  0  0  0  0  0  0  0  0  0  0  0
   10.3605  -20.1816   22.5275 C   0  0  0  0  0  0  0  0  0  0  0  0
   10.4144  -21.2735   23.1926 O   0  0  0  0  0  0  0  0  0  0  0  0
   11.4886  -19.2330   22.4758 C   0  0  0  0  0  0  0  0  0  0  0  0
   11.1496  -18.0172   21.7159 C   0  0  0  0  0  0  0  0  0  0  0  0
   11.5464  -16.6866   22.2818 C   0  0  2  0  0  0  0  0  0  0  0  0
   11.0468  -15.7120   21.2733 N   0  0  0  0  0  0  0  0  0  0  0  0
   12.9164  -16.4606   22.6464 C   0  0  0  0  0  0  0  0  0  0  0  0
   13.7259  -15.5785   21.9596 O   0  0  0  0  0  0  0  0  0  0  0  0
   13.4293  -17.0887   23.6295 O   0  0  0  0  0  0  0  0  0  0  0  0
  2  1  1  0
  3  2  2  0
  4  2  1  0
  5  4  1  0
  6  7  1  6
  6  5  1  0
  8  6  1  0
  9  8  2  0
 11 10  1  6
 12 11  1  0
 13 11  1  0
 14 13  1  1
 14 15  1  0
 15  8  1  0
 16 24  1  0
 16 14  1  0
 17 16  2  0
 18 19  1  0
 19 21  1  0
 20 19  2  0
 21 22  1  0
 23 22  1  6
 23 24  1  0
 23 25  1  0
 25 26  1  0
 27 25  2  0
M  END
$$$$
