QLQ.pdb
     RDKit          3D

 27 26  0  0  1  0  0  0  0  0999 V2000
    8.6545  -18.8484   18.5648 N   0  0  0  0  0  0  0  0  0  0  0  0
    7.4600  -18.1126   18.8824 C   0  0  0  0  0  0  0  0  0  0  0  0
    6.4082  -18.7505   19.1385 O   0  0  0  0  0  0  0  0  0  0  0  0
    7.5610  -16.6539   18.8781 C   0  0  0  0  0  0  0  0  0  0  0  0
    8.3070  -16.0829   20.0328 C   0  0  0  0  0  0  0  0  0  0  0  0
    7.6528  -14.8711   20.5770 C   0  0  2  0  0  0  0  0  0  0  0  0
    7.7461  -13.7477   19.6892 N   0  0  0  0  0  0  0  0  0  0  0  0
    8.2650  -14.4417   21.8860 C   0  0  0  0  0  0  0  0  0  0  0  0
    9.3843  -13.8986   21.8915 O   0  0  0  0  0  0  0  0  0  0  0  0
    7.4014  -11.3079   25.2477 C   0  0  0  0  0  0  0  0  0  0  0  0
    6.4678  -12.4884   25.1683 C   0  0  2  0  0  0  0  0  0  0  0  0
    5.4721  -12.3153   26.3321 C   0  0  0  0  0  0  0  0  0  0  0  0
    7.1135  -13.7994   25.3786 C   0  0  0  0  0  0  0  0  0  0  0  0
    8.0455  -14.3198   24.3572 C   0  0  2  0  0  0  0  0  0  0  0  0
    7.5157  -14.6829   23.0888 N   0  0  0  0  0  0  0  0  0  0  0  0
    8.8557  -15.4821   24.8427 C   0  0  0  0  0  0  0  0  0  0  0  0
    8.7137  -16.6531   24.3662 O   0  0  0  0  0  0  0  0  0  0  0  0
   11.0548  -14.9199   30.3068 N   0  0  0  0  0  0  0  0  0  0  0  0
   11.6421  -16.1826   30.0963 C   0  0  0  0  0  0  0  0  0  0  0  0
   12.0644  -16.8182   31.1235 O   0  0  0  0  0  0  0  0  0  0  0  0
   11.7476  -16.7306   28.7311 C   0  0  0  0  0  0  0  0  0  0  0  0
   11.1230  -15.8445   27.7336 C   0  0  0  0  0  0  0  0  0  0  0  0
   10.4951  -16.4636   26.5209 C   0  0  2  0  0  0  0  0  0  0  0  0
    9.8141  -15.3197   25.8543 N   0  0  0  0  0  0  0  0  0  0  0  0
    9.6411  -17.6065   26.6802 C   0  0  0  0  0  0  0  0  0  0  0  0
   10.0964  -18.8972   26.5019 O   0  0  0  0  0  0  0  0  0  0  0  0
    8.4146  -17.4512   26.9894 O   0  0  0  0  0  0  0  0  0  0  0  0
  2  1  1  0
  3  2  2  0
  4  2  1  0
  5  4  1  0
  6  7  1  6
  6  5  1  0
  8  6  1  0
  9  8  2  0
 11 10  1  1
 12 11  1  0
 13 11  1  0
 14 13  1  1
 14 15  1  0
 15  8  1  0
 16 24  1  0
 16 14  1  0
 17 16  2  0
 18 19  1  0
 19 21  1  0
 20 19  2  0
 21 22  1  0
 23 22  1  1
 23 24  1  0
 23 25  1  0
 25 26  1  0
 27 25  2  0
M  END
$$$$
