QLQ.pdb
     RDKit          3D

 27 26  0  0  1  0  0  0  0  0999 V2000
    8.2983  -15.2016   18.0850 N   0  0  0  0  0  0  0  0  0  0  0  0
    7.4536  -16.3537   18.2527 C   0  0  0  0  0  0  0  0  0  0  0  0
    7.1686  -17.0454   17.2432 O   0  0  0  0  0  0  0  0  0  0  0  0
    6.9788  -16.6341   19.6070 C   0  0  0  0  0  0  0  0  0  0  0  0
    7.4989  -15.7062   20.6484 C   0  0  0  0  0  0  0  0  0  0  0  0
    8.0495  -16.4296   21.8172 C   0  0  2  0  0  0  0  0  0  0  0  0
    7.0406  -17.1333   22.5560 N   0  0  0  0  0  0  0  0  0  0  0  0
    8.7263  -15.4960   22.7881 C   0  0  0  0  0  0  0  0  0  0  0  0
    9.7570  -14.8914   22.4417 O   0  0  0  0  0  0  0  0  0  0  0  0
    7.6289  -11.4742   25.0962 C   0  0  0  0  0  0  0  0  0  0  0  0
    6.9359  -12.7354   25.5439 C   0  0  2  0  0  0  0  0  0  0  0  0
    6.0786  -12.3343   26.7604 C   0  0  0  0  0  0  0  0  0  0  0  0
    7.8415  -13.8002   26.0193 C   0  0  0  0  0  0  0  0  0  0  0  0
    8.7308  -14.4789   25.0544 C   0  0  2  0  0  0  0  0  0  0  0  0
    8.1409  -15.3436   24.0922 N   0  0  0  0  0  0  0  0  0  0  0  0
    9.8338  -15.2465   25.7154 C   0  0  0  0  0  0  0  0  0  0  0  0
   10.5297  -14.7549   26.6601 O   0  0  0  0  0  0  0  0  0  0  0  0
   10.0935  -20.7937   27.8829 N   0  0  0  0  0  0  0  0  0  0  0  0
   10.5099  -19.7334   28.7113 C   0  0  0  0  0  0  0  0  0  0  0  0
   10.5611  -19.9510   29.9713 O   0  0  0  0  0  0  0  0  0  0  0  0
   10.8739  -18.4322   28.1201 C   0  0  0  0  0  0  0  0  0  0  0  0
   10.6473  -18.4075   26.6646 C   0  0  0  0  0  0  0  0  0  0  0  0
   11.2960  -17.3223   25.8584 C   0  0  2  0  0  0  0  0  0  0  0  0
   10.1442  -16.5538   25.3115 N   0  0  0  0  0  0  0  0  0  0  0  0
   12.2592  -17.6758   24.8544 C   0  0  0  0  0  0  0  0  0  0  0  0
   11.9782  -17.6020   23.5051 O   0  0  0  0  0  0  0  0  0  0  0  0
   13.4186  -18.0817   25.1940 O   0  0  0  0  0  0  0  0  0  0  0  0
  2  1  1  0
  3  2  2  0
  4  2  1  0
  5  4  1  0
  6  7  1  1
  6  5  1  0
  8  6  1  0
  9  8  2  0
 11 10  1  1
 12 11  1  0
 13 11  1  0
 14 13  1  1
 14 15  1  0
 15  8  1  0
 16 24  1  0
 16 14  1  0
 17 16  2  0
 18 19  1  0
 19 21  1  0
 20 19  2  0
 21 22  1  0
 23 22  1  6
 23 24  1  0
 23 25  1  0
 25 26  1  0
 27 25  2  0
M  END
$$$$
