DKT.pdb
     RDKit          3D

 25 24  0  0  1  0  0  0  0  0999 V2000
   16.5095  -11.7436  -11.1080 N   0  0  0  0  0  0  0  0  0  0  0  0
   17.0296  -10.5567  -11.7281 C   0  0  1  0  0  0  0  0  0  0  0  0
   17.1776  -10.7018  -13.2226 C   0  0  0  0  0  0  0  0  0  0  0  0
   18.0274  -11.8862  -13.5154 C   0  0  0  0  0  0  0  0  0  0  0  0
   18.5634  -12.4610  -12.5286 O   0  0  0  0  0  0  0  0  0  0  0  0
   16.1188   -9.4216  -11.4713 C   0  0  0  0  0  0  0  0  0  0  0  0
   15.8947   -8.5881  -12.4097 O   0  0  0  0  0  0  0  0  0  0  0  0
   18.2530  -12.3759  -14.7844 O   0  0  0  0  0  0  0  0  0  0  0  0
   15.4734   -9.1866  -10.2606 N   0  0  0  0  0  0  0  0  0  0  0  0
   14.3477   -8.1452  -10.1610 C   0  0  1  0  0  0  0  0  0  0  0  0
   13.4207   -8.8579   -9.2360 C   0  0  0  0  0  0  0  0  0  0  0  0
   12.2346   -8.2493   -8.6451 C   0  0  0  0  0  0  0  0  0  0  0  0
   11.3510   -9.1515   -7.8900 C   0  0  0  0  0  0  0  0  0  0  0  0
   10.1486   -8.4188   -7.2825 C   0  0  0  0  0  0  0  0  0  0  0  0
    9.2130   -9.3071   -6.6750 N   0  0  0  0  0  0  0  0  0  0  0  0
   15.0333   -6.9755   -9.5915 C   0  0  0  0  0  0  0  0  0  0  0  0
   15.9146   -7.1753   -8.6748 O   0  0  0  0  0  0  0  0  0  0  0  0
   16.2674   -2.1894   -9.2842 C   0  0  0  0  0  0  0  0  0  0  0  0
   15.5974   -3.3081  -10.0472 C   0  0  1  0  0  0  0  0  0  0  0  0
   16.3947   -3.6413  -11.1626 O   0  0  0  0  0  0  0  0  0  0  0  0
   15.4033   -4.5338   -9.1654 C   0  0  2  0  0  0  0  0  0  0  0  0
   14.8508   -5.6295   -9.9422 N   0  0  0  0  0  0  0  0  0  0  0  0
   14.5753   -4.1439   -8.0175 C   0  0  0  0  0  0  0  0  0  0  0  0
   13.3300   -4.1416   -8.1541 O   0  0  0  0  0  0  0  0  0  0  0  0
   15.0778   -3.7782   -6.7924 O   0  0  0  0  0  0  0  0  0  0  0  0
  2  1  1  6
  3  2  1  0
  3  4  1  0
  4  5  2  0
  6  2  1  0
  7  6  2  0
  8  4  1  0
  9  6  1  0
 10  9  1  0
 10 11  1  1
 11 12  1  0
 12 13  1  0
 13 14  1  0
 14 15  1  0
 16 10  1  0
 17 16  2  0
 19 21  1  0
 19 18  1  1
 20 19  1  0
 21 23  1  0
 21 22  1  6
 22 16  1  0
 23 25  1  0
 24 23  2  0
M  END
$$$$
