DKT.pdb
     RDKit          3D

 25 24  0  0  1  0  0  0  0  0999 V2000
   25.5523  -22.4702  -14.4127 N   0  0  0  0  0  0  0  0  0  0  0  0
   25.1255  -21.1150  -14.6249 C   0  0  1  0  0  0  0  0  0  0  0  0
   25.5847  -20.5645  -15.9524 C   0  0  0  0  0  0  0  0  0  0  0  0
   27.0618  -20.3971  -15.9259 C   0  0  0  0  0  0  0  0  0  0  0  0
   27.7563  -21.4305  -16.1285 O   0  0  0  0  0  0  0  0  0  0  0  0
   23.6495  -21.0478  -14.5929 C   0  0  0  0  0  0  0  0  0  0  0  0
   22.9893  -21.5584  -15.5567 O   0  0  0  0  0  0  0  0  0  0  0  0
   27.6953  -19.1942  -15.6957 O   0  0  0  0  0  0  0  0  0  0  0  0
   22.9088  -20.4587  -13.5721 N   0  0  0  0  0  0  0  0  0  0  0  0
   21.3732  -20.4389  -13.6282 C   0  0  1  0  0  0  0  0  0  0  0  0
   21.0608  -20.7674  -12.2079 C   0  0  0  0  0  0  0  0  0  0  0  0
   20.4886  -22.0364  -11.7738 C   0  0  0  0  0  0  0  0  0  0  0  0
   20.1897  -22.1552  -10.3381 C   0  0  0  0  0  0  0  0  0  0  0  0
   19.6987  -23.5572   -9.9571 C   0  0  0  0  0  0  0  0  0  0  0  0
   19.3653  -23.6664   -8.5749 N   0  0  0  0  0  0  0  0  0  0  0  0
   21.0785  -19.0573  -14.0370 C   0  0  0  0  0  0  0  0  0  0  0  0
   21.4654  -18.1009  -13.2672 O   0  0  0  0  0  0  0  0  0  0  0  0
   21.9626  -16.8243  -17.0987 C   0  0  0  0  0  0  0  0  0  0  0  0
   20.4654  -16.8944  -16.9098 C   0  0  1  0  0  0  0  0  0  0  0  0
   19.9401  -17.8687  -17.7848 O   0  0  0  0  0  0  0  0  0  0  0  0
   20.1099  -17.2451  -15.4717 C   0  0  2  0  0  0  0  0  0  0  0  0
   20.4199  -18.6382  -15.2026 N   0  0  0  0  0  0  0  0  0  0  0  0
   18.7005  -16.8979  -15.2520 C   0  0  0  0  0  0  0  0  0  0  0  0
   17.8945  -17.8188  -14.9844 O   0  0  0  0  0  0  0  0  0  0  0  0
   18.2008  -15.6201  -15.3203 O   0  0  0  0  0  0  0  0  0  0  0  0
  2  1  1  6
  3  2  1  0
  3  4  1  0
  4  5  2  0
  6  2  1  0
  7  6  2  0
  8  4  1  0
  9  6  1  0
 10  9  1  0
 10 11  1  1
 11 12  1  0
 12 13  1  0
 13 14  1  0
 14 15  1  0
 16 10  1  0
 17 16  2  0
 19 21  1  0
 19 18  1  1
 20 19  1  0
 21 23  1  0
 21 22  1  6
 22 16  1  0
 23 25  1  0
 24 23  2  0
M  END
$$$$
