DKT.pdb
     RDKit          3D

 25 24  0  0  1  0  0  0  0  0999 V2000
   17.1540  -11.5079  -17.1921 N   0  0  0  0  0  0  0  0  0  0  0  0
   17.3996  -11.0160  -15.8648 C   0  0  1  0  0  0  0  0  0  0  0  0
   18.4104  -11.8495  -15.1165 C   0  0  0  0  0  0  0  0  0  0  0  0
   17.8651  -13.2190  -14.9227 C   0  0  0  0  0  0  0  0  0  0  0  0
   18.6372  -14.1821  -15.1832 O   0  0  0  0  0  0  0  0  0  0  0  0
   17.9157   -9.6330  -15.9346 C   0  0  0  0  0  0  0  0  0  0  0  0
   18.7505   -9.3333  -16.8504 O   0  0  0  0  0  0  0  0  0  0  0  0
   16.5852  -13.4819  -14.4820 O   0  0  0  0  0  0  0  0  0  0  0  0
   17.5542   -8.6114  -15.0610 N   0  0  0  0  0  0  0  0  0  0  0  0
   17.9325   -7.1524  -15.3609 C   0  0  1  0  0  0  0  0  0  0  0  0
   16.6727   -6.4709  -14.9469 C   0  0  0  0  0  0  0  0  0  0  0  0
   16.0444   -5.3940  -15.7032 C   0  0  0  0  0  0  0  0  0  0  0  0
   14.8128   -4.8310  -15.1280 C   0  0  0  0  0  0  0  0  0  0  0  0
   14.2125   -3.7231  -16.0020 C   0  0  0  0  0  0  0  0  0  0  0  0
   12.9468   -3.2715  -15.5251 N   0  0  0  0  0  0  0  0  0  0  0  0
   19.0907   -6.9276  -14.4831 C   0  0  0  0  0  0  0  0  0  0  0  0
   18.9881   -7.2639  -13.2448 O   0  0  0  0  0  0  0  0  0  0  0  0
   22.3464   -8.5523  -14.4618 C   0  0  0  0  0  0  0  0  0  0  0  0
   22.6415   -7.0711  -14.4244 C   0  0  1  0  0  0  0  0  0  0  0  0
   22.9725   -6.6387  -15.7260 O   0  0  0  0  0  0  0  0  0  0  0  0
   21.4439   -6.2862  -13.9074 C   0  0  2  0  0  0  0  0  0  0  0  0
   20.3354   -6.3880  -14.8402 N   0  0  0  0  0  0  0  0  0  0  0  0
   21.8781   -4.9076  -13.6502 C   0  0  0  0  0  0  0  0  0  0  0  0
   21.4205   -3.9936  -14.3745 O   0  0  0  0  0  0  0  0  0  0  0  0
   22.7599   -4.5482  -12.6600 O   0  0  0  0  0  0  0  0  0  0  0  0
  2  1  1  6
  3  2  1  0
  3  4  1  0
  4  5  2  0
  6  2  1  0
  7  6  2  0
  8  4  1  0
  9  6  1  0
 10  9  1  0
 10 11  1  1
 11 12  1  0
 12 13  1  0
 13 14  1  0
 14 15  1  0
 16 10  1  0
 17 16  2  0
 19 21  1  0
 19 18  1  6
 20 19  1  0
 21 23  1  0
 21 22  1  6
 22 16  1  0
 23 25  1  0
 24 23  2  0
M  END
$$$$
