DKT.pdb
     RDKit          3D

 25 24  0  0  1  0  0  0  0  0999 V2000
   20.7808  -11.1299  -19.4711 N   0  0  0  0  0  0  0  0  0  0  0  0
   21.4927  -10.6499  -18.3193 C   0  0  1  0  0  0  0  0  0  0  0  0
   22.7942   -9.9783  -18.6818 C   0  0  0  0  0  0  0  0  0  0  0  0
   23.6828  -10.9659  -19.3494 C   0  0  0  0  0  0  0  0  0  0  0  0
   23.9524  -12.0167  -18.7055 O   0  0  0  0  0  0  0  0  0  0  0  0
   20.6613   -9.6655  -17.5956 C   0  0  0  0  0  0  0  0  0  0  0  0
   20.0166   -8.7934  -18.2659 O   0  0  0  0  0  0  0  0  0  0  0  0
   24.2147  -10.7930  -20.6098 O   0  0  0  0  0  0  0  0  0  0  0  0
   20.5243   -9.6151  -16.2113 N   0  0  0  0  0  0  0  0  0  0  0  0
   19.6499   -8.5392  -15.5483 C   0  0  1  0  0  0  0  0  0  0  0  0
   19.0699   -9.3347  -14.4287 C   0  0  0  0  0  0  0  0  0  0  0  0
   18.2731   -8.7606  -13.3508 C   0  0  0  0  0  0  0  0  0  0  0  0
   17.6696   -9.7177  -12.4103 C   0  0  0  0  0  0  0  0  0  0  0  0
   16.7523   -9.0344  -11.3888 C   0  0  0  0  0  0  0  0  0  0  0  0
   16.1740   -9.9555  -10.4665 N   0  0  0  0  0  0  0  0  0  0  0  0
   20.6310   -7.5167  -15.1552 C   0  0  0  0  0  0  0  0  0  0  0  0
   21.7902   -7.9093  -14.7564 O   0  0  0  0  0  0  0  0  0  0  0  0
   22.1341   -2.7962  -14.5375 C   0  0  0  0  0  0  0  0  0  0  0  0
   21.0679   -3.7675  -14.9871 C   0  0  1  0  0  0  0  0  0  0  0  0
   20.8664   -3.6138  -16.3750 O   0  0  0  0  0  0  0  0  0  0  0  0
   21.4688   -5.2034  -14.6784 C   0  0  2  0  0  0  0  0  0  0  0  0
   20.4608   -6.1243  -15.1734 N   0  0  0  0  0  0  0  0  0  0  0  0
   21.7111   -5.3094  -13.2344 C   0  0  0  0  0  0  0  0  0  0  0  0
   20.7602   -5.6510  -12.4939 O   0  0  0  0  0  0  0  0  0  0  0  0
   22.9210   -5.0574  -12.6344 O   0  0  0  0  0  0  0  0  0  0  0  0
  2  1  1  6
  3  2  1  0
  3  4  1  0
  4  5  2  0
  6  2  1  0
  7  6  2  0
  8  4  1  0
  9  6  1  0
 10  9  1  0
 10 11  1  1
 11 12  1  0
 12 13  1  0
 13 14  1  0
 14 15  1  0
 16 10  1  0
 17 16  2  0
 19 21  1  0
 19 18  1  6
 20 19  1  0
 21 23  1  0
 21 22  1  1
 22 16  1  0
 23 25  1  0
 24 23  2  0
M  END
$$$$
