DKT.pdb
     RDKit          3D

 25 24  0  0  1  0  0  0  0  0999 V2000
   21.4750  -11.3192  -20.2411 N   0  0  0  0  0  0  0  0  0  0  0  0
   22.2365  -10.4496  -19.3879 C   0  0  1  0  0  0  0  0  0  0  0  0
   23.0943   -9.4820  -20.1651 C   0  0  0  0  0  0  0  0  0  0  0  0
   24.2019  -10.2285  -20.8182 C   0  0  0  0  0  0  0  0  0  0  0  0
   24.9733  -10.8804  -20.0622 O   0  0  0  0  0  0  0  0  0  0  0  0
   21.3208   -9.6609  -18.5373 C   0  0  0  0  0  0  0  0  0  0  0  0
   20.3797   -9.0031  -19.0915 O   0  0  0  0  0  0  0  0  0  0  0  0
   24.4220  -10.2428  -22.1793 O   0  0  0  0  0  0  0  0  0  0  0  0
   21.4073   -9.5784  -17.1505 N   0  0  0  0  0  0  0  0  0  0  0  0
   20.3013   -8.8902  -16.3352 C   0  0  1  0  0  0  0  0  0  0  0  0
   19.9589   -9.9900  -15.3886 C   0  0  0  0  0  0  0  0  0  0  0  0
   18.8747   -9.9178  -14.4162 C   0  0  0  0  0  0  0  0  0  0  0  0
   17.5727   -9.4639  -14.9296 C   0  0  0  0  0  0  0  0  0  0  0  0
   16.5466   -9.2462  -13.8109 C   0  0  0  0  0  0  0  0  0  0  0  0
   15.3394   -8.6498  -14.2804 N   0  0  0  0  0  0  0  0  0  0  0  0
   20.9997   -7.7400  -15.7419 C   0  0  0  0  0  0  0  0  0  0  0  0
   22.1910   -7.9209  -15.2892 O   0  0  0  0  0  0  0  0  0  0  0  0
   21.2852   -2.9493  -14.3506 C   0  0  0  0  0  0  0  0  0  0  0  0
   20.5109   -4.0607  -15.0196 C   0  0  1  0  0  0  0  0  0  0  0  0
   20.2757   -3.7074  -16.3652 O   0  0  0  0  0  0  0  0  0  0  0  0
   21.2745   -5.3762  -14.9561 C   0  0  2  0  0  0  0  0  0  0  0  0
   20.5202   -6.4277  -15.6154 N   0  0  0  0  0  0  0  0  0  0  0  0
   21.5803   -5.6591  -13.5484 C   0  0  0  0  0  0  0  0  0  0  0  0
   22.5509   -5.0699  -13.0192 O   0  0  0  0  0  0  0  0  0  0  0  0
   20.8678   -6.5338  -12.7645 O   0  0  0  0  0  0  0  0  0  0  0  0
  2  1  1  6
  3  2  1  0
  3  4  1  0
  4  5  2  0
  6  2  1  0
  7  6  2  0
  8  4  1  0
  9  6  1  0
 10  9  1  0
 10 11  1  1
 11 12  1  0
 12 13  1  0
 13 14  1  0
 14 15  1  0
 16 10  1  0
 17 16  2  0
 19 21  1  0
 19 18  1  6
 20 19  1  0
 21 23  1  0
 21 22  1  1
 22 16  1  0
 23 25  1  0
 24 23  2  0
M  END
$$$$
