DKT.pdb
     RDKit          3D

 25 24  0  0  1  0  0  0  0  0999 V2000
   18.9639  -25.2365   -8.9315 N   0  0  0  0  0  0  0  0  0  0  0  0
   18.2315  -25.4033  -10.1561 C   0  0  1  0  0  0  0  0  0  0  0  0
   16.7654  -25.6718   -9.9217 C   0  0  0  0  0  0  0  0  0  0  0  0
   16.6173  -26.9480   -9.1734 C   0  0  0  0  0  0  0  0  0  0  0  0
   17.3597  -27.9049   -9.5262 O   0  0  0  0  0  0  0  0  0  0  0  0
   18.3424  -24.1766  -10.9727 C   0  0  0  0  0  0  0  0  0  0  0  0
   18.0752  -23.0524  -10.4338 O   0  0  0  0  0  0  0  0  0  0  0  0
   15.7278  -27.1324   -8.1360 O   0  0  0  0  0  0  0  0  0  0  0  0
   18.7234  -24.1520  -12.3113 N   0  0  0  0  0  0  0  0  0  0  0  0
   18.9227  -22.8169  -13.0457 C   0  0  1  0  0  0  0  0  0  0  0  0
   20.0715  -23.1774  -13.9250 C   0  0  0  0  0  0  0  0  0  0  0  0
   20.5401  -22.3501  -15.0307 C   0  0  0  0  0  0  0  0  0  0  0  0
   21.0067  -21.0002  -14.6777 C   0  0  0  0  0  0  0  0  0  0  0  0
   21.3042  -20.1425  -15.9137 C   0  0  0  0  0  0  0  0  0  0  0  0
   21.6057  -18.7884  -15.5838 N   0  0  0  0  0  0  0  0  0  0  0  0
   17.6365  -22.6261  -13.7326 C   0  0  0  0  0  0  0  0  0  0  0  0
   17.1185  -23.6345  -14.3424 O   0  0  0  0  0  0  0  0  0  0  0  0
   14.1258  -21.9301  -12.5318 C   0  0  0  0  0  0  0  0  0  0  0  0
   14.5182  -20.8692  -13.5333 C   0  0  1  0  0  0  0  0  0  0  0  0
   14.9911  -19.7369  -12.8370 O   0  0  0  0  0  0  0  0  0  0  0  0
   15.5944  -21.3808  -14.4807 C   0  0  2  0  0  0  0  0  0  0  0  0
   16.8740  -21.4503  -13.7975 N   0  0  0  0  0  0  0  0  0  0  0  0
   15.6028  -20.5197  -15.6697 C   0  0  0  0  0  0  0  0  0  0  0  0
   16.6306  -19.8449  -15.9098 O   0  0  0  0  0  0  0  0  0  0  0  0
   14.5507  -20.4027  -16.5453 O   0  0  0  0  0  0  0  0  0  0  0  0
  2  1  1  1
  3  2  1  0
  3  4  1  0
  4  5  2  0
  6  2  1  0
  7  6  2  0
  8  4  1  0
  9  6  1  0
 10  9  1  0
 10 11  1  6
 11 12  1  0
 12 13  1  0
 13 14  1  0
 14 15  1  0
 16 10  1  0
 17 16  2  0
 19 21  1  0
 19 18  1  1
 20 19  1  0
 21 23  1  0
 21 22  1  1
 22 16  1  0
 23 25  1  0
 24 23  2  0
M  END
$$$$
