DKT.pdb
     RDKit          3D

 25 24  0  0  1  0  0  0  0  0999 V2000
   14.9991  -11.6831  -14.4548 N   0  0  0  0  0  0  0  0  0  0  0  0
   15.3835  -10.3592  -14.8591 C   0  0  1  0  0  0  0  0  0  0  0  0
   14.8271   -9.2918  -13.9495 C   0  0  0  0  0  0  0  0  0  0  0  0
   13.3469   -9.2586  -14.0855 C   0  0  0  0  0  0  0  0  0  0  0  0
   12.8832   -9.2125  -15.2578 O   0  0  0  0  0  0  0  0  0  0  0  0
   16.8567  -10.2433  -14.8453 C   0  0  0  0  0  0  0  0  0  0  0  0
   17.5102  -10.8155  -13.9121 O   0  0  0  0  0  0  0  0  0  0  0  0
   12.4760   -9.2755  -13.0166 O   0  0  0  0  0  0  0  0  0  0  0  0
   17.6016   -9.5440  -15.7907 N   0  0  0  0  0  0  0  0  0  0  0  0
   19.1366   -9.5233  -15.7208 C   0  0  1  0  0  0  0  0  0  0  0  0
   19.4621   -9.9230  -17.1198 C   0  0  0  0  0  0  0  0  0  0  0  0
   20.8190  -10.0043  -17.6475 C   0  0  0  0  0  0  0  0  0  0  0  0
   20.9390  -10.2787  -19.0880 C   0  0  0  0  0  0  0  0  0  0  0  0
   22.3991  -10.3305  -19.5538 C   0  0  0  0  0  0  0  0  0  0  0  0
   22.5214  -10.4002  -20.9728 N   0  0  0  0  0  0  0  0  0  0  0  0
   19.4299   -8.1234  -15.3789 C   0  0  0  0  0  0  0  0  0  0  0  0
   18.6286   -7.2127  -15.8098 O   0  0  0  0  0  0  0  0  0  0  0  0
   19.7130   -6.2631  -12.0671 C   0  0  0  0  0  0  0  0  0  0  0  0
   20.9582   -5.9852  -12.8762 C   0  0  1  0  0  0  0  0  0  0  0  0
   21.9969   -6.8227  -12.4174 O   0  0  0  0  0  0  0  0  0  0  0  0
   20.7143   -6.2286  -14.3590 C   0  0  2  0  0  0  0  0  0  0  0  0
   20.4987   -7.6431  -14.6076 N   0  0  0  0  0  0  0  0  0  0  0  0
   21.8427   -5.6602  -15.1067 C   0  0  0  0  0  0  0  0  0  0  0  0
   22.0527   -4.4280  -15.0235 O   0  0  0  0  0  0  0  0  0  0  0  0
   22.6920   -6.3944  -15.8984 O   0  0  0  0  0  0  0  0  0  0  0  0
  2  1  1  1
  3  2  1  0
  3  4  1  0
  4  5  2  0
  6  2  1  0
  7  6  2  0
  8  4  1  0
  9  6  1  0
 10  9  1  0
 10 11  1  6
 11 12  1  0
 12 13  1  0
 13 14  1  0
 14 15  1  0
 16 10  1  0
 17 16  2  0
 19 21  1  0
 19 18  1  1
 20 19  1  0
 21 23  1  0
 21 22  1  1
 22 16  1  0
 23 25  1  0
 24 23  2  0
M  END
$$$$
