DKT.pdb
     RDKit          3D

 25 24  0  0  1  0  0  0  0  0999 V2000
   13.5244  -12.1661  -11.1371 N   0  0  0  0  0  0  0  0  0  0  0  0
   14.7790  -11.5617  -10.7845 C   0  0  1  0  0  0  0  0  0  0  0  0
   15.9286  -12.0940  -11.6040 C   0  0  0  0  0  0  0  0  0  0  0  0
   16.0272  -13.5644  -11.4077 C   0  0  0  0  0  0  0  0  0  0  0  0
   16.0578  -14.2775  -12.4480 O   0  0  0  0  0  0  0  0  0  0  0  0
   14.7059  -10.1017  -11.0015 C   0  0  0  0  0  0  0  0  0  0  0  0
   14.0612   -9.6610  -12.0093 O   0  0  0  0  0  0  0  0  0  0  0  0
   16.0855  -14.1731  -10.1718 O   0  0  0  0  0  0  0  0  0  0  0  0
   15.2978   -9.1509  -10.1748 N   0  0  0  0  0  0  0  0  0  0  0  0
   15.0799   -7.6503  -10.4241 C   0  0  1  0  0  0  0  0  0  0  0  0
   14.8912   -7.1824   -9.0211 C   0  0  0  0  0  0  0  0  0  0  0  0
   14.5560   -5.8101   -8.6597 C   0  0  0  0  0  0  0  0  0  0  0  0
   14.3421   -5.5508   -7.2273 C   0  0  0  0  0  0  0  0  0  0  0  0
   13.9435   -4.0963   -6.9494 C   0  0  0  0  0  0  0  0  0  0  0  0
   13.5226   -3.8891   -5.6028 N   0  0  0  0  0  0  0  0  0  0  0  0
   16.3384   -7.2386  -11.0638 C   0  0  0  0  0  0  0  0  0  0  0  0
   17.4410   -7.4782  -10.4442 O   0  0  0  0  0  0  0  0  0  0  0  0
   18.2226   -8.3776  -14.0462 C   0  0  0  0  0  0  0  0  0  0  0  0
   18.0185   -6.8879  -14.1935 C   0  0  1  0  0  0  0  0  0  0  0  0
   16.9066   -6.6602  -15.0316 O   0  0  0  0  0  0  0  0  0  0  0  0
   17.7898   -6.2293  -12.8401 C   0  0  2  0  0  0  0  0  0  0  0  0
   16.4930   -6.6101  -12.3084 N   0  0  0  0  0  0  0  0  0  0  0  0
   17.9620   -4.7804  -13.0025 C   0  0  0  0  0  0  0  0  0  0  0  0
   16.9507   -4.0463  -12.9143 O   0  0  0  0  0  0  0  0  0  0  0  0
   19.1679   -4.1692  -13.2464 O   0  0  0  0  0  0  0  0  0  0  0  0
  2  1  1  6
  3  2  1  0
  3  4  1  0
  4  5  2  0
  6  2  1  0
  7  6  2  0
  8  4  1  0
  9  6  1  0
 10  9  1  0
 10 11  1  1
 11 12  1  0
 12 13  1  0
 13 14  1  0
 14 15  1  0
 16 10  1  0
 17 16  2  0
 19 21  1  0
 19 18  1  1
 20 19  1  0
 21 23  1  0
 21 22  1  6
 22 16  1  0
 23 25  1  0
 24 23  2  0
M  END
$$$$
