DKT.pdb
     RDKit          3D

 25 24  0  0  1  0  0  0  0  0999 V2000
   18.7629   -8.1943  -13.5151 N   0  0  0  0  0  0  0  0  0  0  0  0
   19.0572   -7.7915  -14.8623 C   0  0  1  0  0  0  0  0  0  0  0  0
   19.1811   -6.2946  -15.0049 C   0  0  0  0  0  0  0  0  0  0  0  0
   17.8562   -5.6696  -14.7506 C   0  0  0  0  0  0  0  0  0  0  0  0
   16.8498   -6.2444  -15.2487 O   0  0  0  0  0  0  0  0  0  0  0  0
   20.3354   -8.3949  -15.2937 C   0  0  0  0  0  0  0  0  0  0  0  0
   21.2927   -8.4732  -14.4553 O   0  0  0  0  0  0  0  0  0  0  0  0
   17.6780   -4.5181  -14.0133 O   0  0  0  0  0  0  0  0  0  0  0  0
   20.5808   -8.8944  -16.5695 N   0  0  0  0  0  0  0  0  0  0  0  0
   21.8462   -9.7165  -16.8600 C   0  0  1  0  0  0  0  0  0  0  0  0
   21.2370  -11.0625  -17.0595 C   0  0  0  0  0  0  0  0  0  0  0  0
   21.9912  -12.2458  -17.4562 C   0  0  0  0  0  0  0  0  0  0  0  0
   21.2029  -13.4619  -17.7102 C   0  0  0  0  0  0  0  0  0  0  0  0
   22.0729  -14.6362  -18.1749 C   0  0  0  0  0  0  0  0  0  0  0  0
   21.3043  -15.7852  -18.5249 N   0  0  0  0  0  0  0  0  0  0  0  0
   22.3800   -9.0782  -18.0726 C   0  0  0  0  0  0  0  0  0  0  0  0
   21.5534   -8.7686  -19.0096 O   0  0  0  0  0  0  0  0  0  0  0  0
   24.4655   -5.8403  -18.6785 C   0  0  0  0  0  0  0  0  0  0  0  0
   25.1378   -7.0252  -19.3315 C   0  0  1  0  0  0  0  0  0  0  0  0
   26.1689   -7.4876  -18.4867 O   0  0  0  0  0  0  0  0  0  0  0  0
   24.1411   -8.1460  -19.5924 C   0  0  2  0  0  0  0  0  0  0  0  0
   23.7159   -8.7427  -18.3385 N   0  0  0  0  0  0  0  0  0  0  0  0
   24.7586   -9.0986  -20.5233 C   0  0  0  0  0  0  0  0  0  0  0  0
   25.0435  -10.2436  -20.1027 O   0  0  0  0  0  0  0  0  0  0  0  0
   25.0478   -8.8171  -21.8365 O   0  0  0  0  0  0  0  0  0  0  0  0
  2  1  1  1
  3  2  1  0
  3  4  1  0
  4  5  2  0
  6  2  1  0
  7  6  2  0
  8  4  1  0
  9  6  1  0
 10  9  1  0
 10 11  1  6
 11 12  1  0
 12 13  1  0
 13 14  1  0
 14 15  1  0
 16 10  1  0
 17 16  2  0
 19 21  1  0
 19 18  1  1
 20 19  1  0
 21 23  1  0
 21 22  1  1
 22 16  1  0
 23 25  1  0
 24 23  2  0
M  END
$$$$
