DKT.pdb
     RDKit          3D

 25 24  0  0  1  0  0  0  0  0999 V2000
   15.5459  -10.5387  -15.1014 N   0  0  0  0  0  0  0  0  0  0  0  0
   16.5980  -10.4971  -14.1241 C   0  0  1  0  0  0  0  0  0  0  0  0
   17.9164  -10.9851  -14.6718 C   0  0  0  0  0  0  0  0  0  0  0  0
   17.8116  -12.4374  -14.9725 C   0  0  0  0  0  0  0  0  0  0  0  0
   18.2886  -12.8274  -16.0733 O   0  0  0  0  0  0  0  0  0  0  0  0
   16.7880   -9.1079  -13.6570 C   0  0  0  0  0  0  0  0  0  0  0  0
   16.7799   -8.1641  -14.5141 O   0  0  0  0  0  0  0  0  0  0  0  0
   17.2315  -13.3581  -14.1256 O   0  0  0  0  0  0  0  0  0  0  0  0
   16.9790   -8.7421  -12.3276 N   0  0  0  0  0  0  0  0  0  0  0  0
   17.0805   -7.2616  -11.9283 C   0  0  1  0  0  0  0  0  0  0  0  0
   16.3512   -7.2964  -10.6284 C   0  0  0  0  0  0  0  0  0  0  0  0
   16.0923   -6.1179   -9.8095 C   0  0  0  0  0  0  0  0  0  0  0  0
   15.3411   -6.3457   -8.5651 C   0  0  0  0  0  0  0  0  0  0  0  0
   15.0660   -5.0444   -7.8016 C   0  0  0  0  0  0  0  0  0  0  0  0
   14.3099   -5.2547   -6.6111 N   0  0  0  0  0  0  0  0  0  0  0  0
   18.5322   -7.0471  -11.8331 C   0  0  0  0  0  0  0  0  0  0  0  0
   19.1432   -7.4848  -10.7881 O   0  0  0  0  0  0  0  0  0  0  0  0
   21.3448   -8.6045  -13.2605 C   0  0  0  0  0  0  0  0  0  0  0  0
   21.5561   -7.1391  -13.5611 C   0  0  1  0  0  0  0  0  0  0  0  0
   21.1212   -6.8758  -14.8772 O   0  0  0  0  0  0  0  0  0  0  0  0
   20.7924   -6.2621  -12.5787 C   0  0  2  0  0  0  0  0  0  0  0  0
   19.3616   -6.4175  -12.7732 N   0  0  0  0  0  0  0  0  0  0  0  0
   21.2658   -4.8813  -12.7357 C   0  0  0  0  0  0  0  0  0  0  0  0
   22.4674   -4.6310  -12.4850 O   0  0  0  0  0  0  0  0  0  0  0  0
   20.4736   -3.8354  -13.1428 O   0  0  0  0  0  0  0  0  0  0  0  0
  2  1  1  6
  3  2  1  0
  3  4  1  0
  4  5  2  0
  6  2  1  0
  7  6  2  0
  8  4  1  0
  9  6  1  0
 10  9  1  0
 10 11  1  1
 11 12  1  0
 12 13  1  0
 13 14  1  0
 14 15  1  0
 16 10  1  0
 17 16  2  0
 19 21  1  0
 19 18  1  1
 20 19  1  0
 21 23  1  0
 21 22  1  6
 22 16  1  0
 23 25  1  0
 24 23  2  0
M  END
$$$$
