DKT.pdb
     RDKit          3D

 25 24  0  0  1  0  0  0  0  0999 V2000
   15.2477  -11.1803  -11.8645 N   0  0  0  0  0  0  0  0  0  0  0  0
   15.4998   -9.7781  -12.0494 C   0  0  1  0  0  0  0  0  0  0  0  0
   15.8469   -9.0773  -10.7591 C   0  0  0  0  0  0  0  0  0  0  0  0
   14.6611   -9.0922   -9.8622 C   0  0  0  0  0  0  0  0  0  0  0  0
   13.6234   -9.6615  -10.2988 O   0  0  0  0  0  0  0  0  0  0  0  0
   16.6310   -9.5951  -12.9826 C   0  0  0  0  0  0  0  0  0  0  0  0
   17.6381  -10.3711  -12.8884 O   0  0  0  0  0  0  0  0  0  0  0  0
   14.6409   -8.5268   -8.6048 O   0  0  0  0  0  0  0  0  0  0  0  0
   16.6838   -8.6221  -13.9766 N   0  0  0  0  0  0  0  0  0  0  0  0
   17.8406   -8.5959  -14.9879 C   0  0  1  0  0  0  0  0  0  0  0  0
   17.0695   -8.4482  -16.2554 C   0  0  0  0  0  0  0  0  0  0  0  0
   17.1290   -9.3994  -17.3590 C   0  0  0  0  0  0  0  0  0  0  0  0
   16.2875   -9.0917  -18.5260 C   0  0  0  0  0  0  0  0  0  0  0  0
   16.3518  -10.1863  -19.5981 C   0  0  0  0  0  0  0  0  0  0  0  0
   15.5814   -9.8686  -20.7552 N   0  0  0  0  0  0  0  0  0  0  0  0
   18.6100   -7.4127  -14.5746 C   0  0  0  0  0  0  0  0  0  0  0  0
   17.9690   -6.4195  -14.0650 O   0  0  0  0  0  0  0  0  0  0  0  0
   22.7714   -4.9937  -13.3952 C   0  0  0  0  0  0  0  0  0  0  0  0
   22.0756   -6.2694  -13.8085 C   0  0  1  0  0  0  0  0  0  0  0  0
   22.0578   -7.1559  -12.7110 O   0  0  0  0  0  0  0  0  0  0  0  0
   20.6524   -5.9922  -14.2726 C   0  0  2  0  0  0  0  0  0  0  0  0
   19.9986   -7.2308  -14.6567 N   0  0  0  0  0  0  0  0  0  0  0  0
   20.7090   -4.9934  -15.3471 C   0  0  0  0  0  0  0  0  0  0  0  0
   21.0080   -3.8139  -15.0494 O   0  0  0  0  0  0  0  0  0  0  0  0
   20.4542   -5.2668  -16.6691 O   0  0  0  0  0  0  0  0  0  0  0  0
  2  1  1  1
  3  2  1  0
  3  4  1  0
  4  5  2  0
  6  2  1  0
  7  6  2  0
  8  4  1  0
  9  6  1  0
 10  9  1  0
 10 11  1  6
 11 12  1  0
 12 13  1  0
 13 14  1  0
 14 15  1  0
 16 10  1  0
 17 16  2  0
 19 21  1  0
 19 18  1  1
 20 19  1  0
 21 23  1  0
 21 22  1  6
 22 16  1  0
 23 25  1  0
 24 23  2  0
M  END
$$$$
