DKT.pdb
     RDKit          3D

 25 24  0  0  1  0  0  0  0  0999 V2000
   17.9049  -13.6370  -17.4710 N   0  0  0  0  0  0  0  0  0  0  0  0
   18.6592  -13.1998  -16.3292 C   0  0  1  0  0  0  0  0  0  0  0  0
   20.1330  -13.0692  -16.6246 C   0  0  0  0  0  0  0  0  0  0  0  0
   20.6768  -14.4037  -16.9905 C   0  0  0  0  0  0  0  0  0  0  0  0
   20.3820  -15.3670  -16.2312 O   0  0  0  0  0  0  0  0  0  0  0  0
   18.1676  -11.8790  -15.8846 C   0  0  0  0  0  0  0  0  0  0  0  0
   17.6962  -11.0736  -16.7534 O   0  0  0  0  0  0  0  0  0  0  0  0
   21.4698  -14.6345  -18.0947 O   0  0  0  0  0  0  0  0  0  0  0  0
   18.1792  -11.4365  -14.5649 N   0  0  0  0  0  0  0  0  0  0  0  0
   17.5139  -10.1064  -14.1777 C   0  0  1  0  0  0  0  0  0  0  0  0
   16.7794  -10.5345  -12.9529 C   0  0  0  0  0  0  0  0  0  0  0  0
   15.6872   -9.7769  -12.3533 C   0  0  0  0  0  0  0  0  0  0  0  0
   15.0124  -10.4084  -11.2085 C   0  0  0  0  0  0  0  0  0  0  0  0
   13.7333   -9.6667  -10.8018 C   0  0  0  0  0  0  0  0  0  0  0  0
   13.0719  -10.2768   -9.6957 N   0  0  0  0  0  0  0  0  0  0  0  0
   18.6644   -9.2199  -13.9473 C   0  0  0  0  0  0  0  0  0  0  0  0
   19.3829   -9.4182  -12.8978 O   0  0  0  0  0  0  0  0  0  0  0  0
   21.9529   -8.9159  -15.4301 C   0  0  0  0  0  0  0  0  0  0  0  0
   21.3352   -7.5395  -15.5105 C   0  0  1  0  0  0  0  0  0  0  0  0
   20.7706   -7.3669  -16.7920 O   0  0  0  0  0  0  0  0  0  0  0  0
   20.2642   -7.3560  -14.4443 C   0  0  2  0  0  0  0  0  0  0  0  0
   19.0975   -8.1614  -14.7597 N   0  0  0  0  0  0  0  0  0  0  0  0
   19.9796   -5.9206  -14.3254 C   0  0  0  0  0  0  0  0  0  0  0  0
   18.8764   -5.4954  -14.7397 O   0  0  0  0  0  0  0  0  0  0  0  0
   20.8485   -5.0037  -13.7856 O   0  0  0  0  0  0  0  0  0  0  0  0
  2  1  1  6
  3  2  1  0
  3  4  1  0
  4  5  2  0
  6  2  1  0
  7  6  2  0
  8  4  1  0
  9  6  1  0
 10  9  1  0
 10 11  1  1
 11 12  1  0
 12 13  1  0
 13 14  1  0
 14 15  1  0
 16 10  1  0
 17 16  2  0
 19 21  1  0
 19 18  1  6
 20 19  1  0
 21 23  1  0
 21 22  1  6
 22 16  1  0
 23 25  1  0
 24 23  2  0
M  END
$$$$
