DKT.pdb
     RDKit          3D

 25 24  0  0  1  0  0  0  0  0999 V2000
   17.4415  -10.1310  -16.1295 N   0  0  0  0  0  0  0  0  0  0  0  0
   17.9482  -10.0040  -14.7912 C   0  0  1  0  0  0  0  0  0  0  0  0
   19.2109   -9.1807  -14.7261 C   0  0  0  0  0  0  0  0  0  0  0  0
   20.3003   -9.9023  -15.4354 C   0  0  0  0  0  0  0  0  0  0  0  0
   20.8780   -9.2845  -16.3713 O   0  0  0  0  0  0  0  0  0  0  0  0
   16.9360   -9.3492  -13.9365 C   0  0  0  0  0  0  0  0  0  0  0  0
   16.3330   -8.3163  -14.3780 O   0  0  0  0  0  0  0  0  0  0  0  0
   20.7009  -11.1852  -15.1269 O   0  0  0  0  0  0  0  0  0  0  0  0
   16.5824   -9.7807  -12.6612 N   0  0  0  0  0  0  0  0  0  0  0  0
   15.3529   -9.1963  -11.9482 C   0  0  1  0  0  0  0  0  0  0  0  0
   14.6745  -10.4572  -11.5325 C   0  0  0  0  0  0  0  0  0  0  0  0
   13.4703  -10.5000  -10.7113 C   0  0  0  0  0  0  0  0  0  0  0  0
   12.9317  -11.8379  -10.4199 C   0  0  0  0  0  0  0  0  0  0  0  0
   11.5778  -11.7796   -9.7021 C   0  0  0  0  0  0  0  0  0  0  0  0
   11.0062  -13.0703   -9.5006 N   0  0  0  0  0  0  0  0  0  0  0  0
   15.9497   -8.4105  -10.8578 C   0  0  0  0  0  0  0  0  0  0  0  0
   16.9904   -8.8847  -10.2670 O   0  0  0  0  0  0  0  0  0  0  0  0
   15.9957   -4.3018  -10.5917 C   0  0  0  0  0  0  0  0  0  0  0  0
   16.9552   -5.2461   -9.9061 C   0  0  1  0  0  0  0  0  0  0  0  0
   17.6248   -4.5494   -8.8779 O   0  0  0  0  0  0  0  0  0  0  0  0
   16.2216   -6.4467   -9.3248 C   0  0  2  0  0  0  0  0  0  0  0  0
   15.5214   -7.1649  -10.3751 N   0  0  0  0  0  0  0  0  0  0  0  0
   15.3461   -5.9691   -8.2475 C   0  0  0  0  0  0  0  0  0  0  0  0
   14.1068   -6.0016   -8.4279 O   0  0  0  0  0  0  0  0  0  0  0  0
   15.7974   -5.4847   -7.0438 O   0  0  0  0  0  0  0  0  0  0  0  0
  2  1  1  6
  3  2  1  0
  3  4  1  0
  4  5  2  0
  6  2  1  0
  7  6  2  0
  8  4  1  0
  9  6  1  0
 10  9  1  0
 10 11  1  1
 11 12  1  0
 12 13  1  0
 13 14  1  0
 14 15  1  0
 16 10  1  0
 17 16  2  0
 19 21  1  0
 19 18  1  1
 20 19  1  0
 21 23  1  0
 21 22  1  6
 22 16  1  0
 23 25  1  0
 24 23  2  0
M  END
$$$$
