DKT.pdb
     RDKit          3D

 25 24  0  0  1  0  0  0  0  0999 V2000
   17.2210  -13.3945  -16.7337 N   0  0  0  0  0  0  0  0  0  0  0  0
   17.0011  -12.0563  -16.2596 C   0  0  1  0  0  0  0  0  0  0  0  0
   16.4799  -12.0220  -14.8442 C   0  0  0  0  0  0  0  0  0  0  0  0
   15.2054  -12.7847  -14.7755 C   0  0  0  0  0  0  0  0  0  0  0  0
   14.2575  -12.3771  -15.5014 O   0  0  0  0  0  0  0  0  0  0  0  0
   18.2715  -11.3021  -16.2928 C   0  0  0  0  0  0  0  0  0  0  0  0
   19.3317  -11.8633  -15.8611 O   0  0  0  0  0  0  0  0  0  0  0  0
   15.0134  -13.8909  -13.9751 O   0  0  0  0  0  0  0  0  0  0  0  0
   18.4037  -10.0005  -16.7682 N   0  0  0  0  0  0  0  0  0  0  0  0
   19.7840   -9.3289  -16.8424 C   0  0  1  0  0  0  0  0  0  0  0  0
   19.7577   -8.8444  -18.2521 C   0  0  0  0  0  0  0  0  0  0  0  0
   20.2029   -9.6365  -19.3926 C   0  0  0  0  0  0  0  0  0  0  0  0
   21.5655   -9.3658  -19.8773 C   0  0  0  0  0  0  0  0  0  0  0  0
   21.9065  -10.1657  -21.1405 C   0  0  0  0  0  0  0  0  0  0  0  0
   23.1555   -9.7837  -21.7128 N   0  0  0  0  0  0  0  0  0  0  0  0
   19.6947   -8.2828  -15.8127 C   0  0  0  0  0  0  0  0  0  0  0  0
   18.6081   -7.5968  -15.7370 O   0  0  0  0  0  0  0  0  0  0  0  0
   20.3455   -6.2974  -11.4759 C   0  0  0  0  0  0  0  0  0  0  0  0
   20.5437   -7.4018  -12.4875 C   0  0  1  0  0  0  0  0  0  0  0  0
   19.5368   -8.3733  -12.3058 O   0  0  0  0  0  0  0  0  0  0  0  0
   20.4890   -6.8596  -13.9090 C   0  0  2  0  0  0  0  0  0  0  0  0
   20.6701   -7.9374  -14.8655 N   0  0  0  0  0  0  0  0  0  0  0  0
   21.4853   -5.7878  -14.0275 C   0  0  0  0  0  0  0  0  0  0  0  0
   22.6060   -6.0667  -14.5129 O   0  0  0  0  0  0  0  0  0  0  0  0
   21.2701   -4.4878  -13.6389 O   0  0  0  0  0  0  0  0  0  0  0  0
  2  1  1  1
  3  2  1  0
  3  4  1  0
  4  5  2  0
  6  2  1  0
  7  6  2  0
  8  4  1  0
  9  6  1  0
 10  9  1  0
 10 11  1  6
 11 12  1  0
 12 13  1  0
 13 14  1  0
 14 15  1  0
 16 10  1  0
 17 16  2  0
 19 21  1  0
 19 18  1  1
 20 19  1  0
 21 23  1  0
 21 22  1  6
 22 16  1  0
 23 25  1  0
 24 23  2  0
M  END
$$$$
