DKT.pdb
     RDKit          3D

 25 24  0  0  1  0  0  0  0  0999 V2000
   16.0941  -13.7194  -16.4789 N   0  0  0  0  0  0  0  0  0  0  0  0
   16.0174  -12.2955  -16.3037 C   0  0  1  0  0  0  0  0  0  0  0  0
   15.5725  -11.9063  -14.9155 C   0  0  0  0  0  0  0  0  0  0  0  0
   14.1631  -12.3361  -14.7171 C   0  0  0  0  0  0  0  0  0  0  0  0
   13.9547  -13.2204  -13.8418 O   0  0  0  0  0  0  0  0  0  0  0  0
   17.3463  -11.6934  -16.5389 C   0  0  0  0  0  0  0  0  0  0  0  0
   18.3581  -12.1804  -15.9350 O   0  0  0  0  0  0  0  0  0  0  0  0
   13.0965  -11.8266  -15.4271 O   0  0  0  0  0  0  0  0  0  0  0  0
   17.5845  -10.6142  -17.3852 N   0  0  0  0  0  0  0  0  0  0  0  0
   19.0128  -10.0928  -17.6084 C   0  0  1  0  0  0  0  0  0  0  0  0
   18.8921   -9.6088  -19.0134 C   0  0  0  0  0  0  0  0  0  0  0  0
   19.9229   -8.8388  -19.6996 C   0  0  0  0  0  0  0  0  0  0  0  0
   19.6278   -8.4542  -21.0887 C   0  0  0  0  0  0  0  0  0  0  0  0
   20.7512   -7.6194  -21.7155 C   0  0  0  0  0  0  0  0  0  0  0  0
   21.9999   -8.3076  -21.7394 N   0  0  0  0  0  0  0  0  0  0  0  0
   19.1410   -9.0426  -16.5869 C   0  0  0  0  0  0  0  0  0  0  0  0
   18.1097   -8.3163  -16.3303 O   0  0  0  0  0  0  0  0  0  0  0  0
   20.1674   -9.1290  -12.8454 C   0  0  0  0  0  0  0  0  0  0  0  0
   20.9957   -8.1007  -13.5795 C   0  0  1  0  0  0  0  0  0  0  0  0
   22.2525   -8.6628  -13.8881 O   0  0  0  0  0  0  0  0  0  0  0  0
   20.3029   -7.6495  -14.8578 C   0  0  2  0  0  0  0  0  0  0  0  0
   20.2774   -8.7326  -15.8250 N   0  0  0  0  0  0  0  0  0  0  0  0
   20.9786   -6.4389  -15.3405 C   0  0  0  0  0  0  0  0  0  0  0  0
   21.5880   -6.4921  -16.4338 O   0  0  0  0  0  0  0  0  0  0  0  0
   20.9881   -5.2405  -14.6689 O   0  0  0  0  0  0  0  0  0  0  0  0
  2  1  1  1
  3  2  1  0
  3  4  1  0
  4  5  2  0
  6  2  1  0
  7  6  2  0
  8  4  1  0
  9  6  1  0
 10  9  1  0
 10 11  1  6
 11 12  1  0
 12 13  1  0
 13 14  1  0
 14 15  1  0
 16 10  1  0
 17 16  2  0
 19 21  1  0
 19 18  1  6
 20 19  1  0
 21 23  1  0
 21 22  1  6
 22 16  1  0
 23 25  1  0
 24 23  2  0
M  END
$$$$
