APD.pdb
     RDKit          3D

 21 21  0  0  1  0  0  0  0  0999 V2000
    7.9721  -16.2965   17.3432 C   0  0  0  0  0  0  0  0  0  0  0  0
    8.2801  -14.8303   17.6507 C   0  0  2  0  0  0  0  0  0  0  0  0
    8.9504  -14.2939   16.5196 N   0  0  0  0  0  0  0  0  0  0  0  0
    8.9473  -14.6726   18.9472 C   0  0  0  0  0  0  0  0  0  0  0  0
   10.1577  -14.9119   19.0371 O   0  0  0  0  0  0  0  0  0  0  0  0
    8.2477  -14.2498   20.1286 N   0  0  0  0  0  0  0  0  0  0  0  0
    6.9116  -13.7320   20.0704 C   0  0  0  0  0  0  0  0  0  0  0  0
    6.4924  -13.4874   21.5276 C   0  0  0  0  0  0  0  0  0  0  0  0
    7.4182  -14.3987   22.2954 C   0  0  0  0  0  0  0  0  0  0  0  0
    8.7021  -14.2421   21.4749 C   0  0  1  0  0  0  0  0  0  0  0  0
    9.6134  -15.3764   21.8190 C   0  0  0  0  0  0  0  0  0  0  0  0
    9.3104  -16.5134   21.3888 O   0  0  0  0  0  0  0  0  0  0  0  0
   10.7922  -15.2472   22.5937 N   0  0  0  0  0  0  0  0  0  0  0  0
   11.6261  -16.3902   22.9407 C   0  0  1  0  0  0  0  0  0  0  0  0
   13.0615  -15.8408   23.0143 C   0  0  0  0  0  0  0  0  0  0  0  0
   14.0226  -16.9179   23.3195 C   0  0  0  0  0  0  0  0  0  0  0  0
   13.8300  -18.0743   22.8726 O   0  0  0  0  0  0  0  0  0  0  0  0
   11.2666  -16.9611   24.2416 C   0  0  0  0  0  0  0  0  0  0  0  0
   11.7067  -18.2774   24.4856 O   0  0  0  0  0  0  0  0  0  0  0  0
   15.1472  -16.6782   24.0989 O   0  0  0  0  0  0  0  0  0  0  0  0
   10.6192  -16.4176   25.1597 O   0  0  0  0  0  0  0  0  0  0  0  0
  2  1  1  6
  3  2  1  0
  4  5  2  0
  4  2  1  0
  6  4  1  0
  7  6  1  0
  8  7  1  0
  9  8  1  0
  9 10  1  0
 10 11  1  6
 10  6  1  0
 11 13  1  0
 12 11  2  0
 13 14  1  0
 14 15  1  1
 14 18  1  0
 16 20  1  0
 16 15  1  0
 17 16  2  0
 18 21  2  0
 18 19  1  0
M  END
$$$$
