APD.pdb
     RDKit          3D

 21 21  0  0  1  0  0  0  0  0999 V2000
    8.2926  -16.7744   16.4666 C   0  0  0  0  0  0  0  0  0  0  0  0
    9.0827  -15.4740   16.3118 C   0  0  2  0  0  0  0  0  0  0  0  0
    9.9399  -15.6322   15.1908 N   0  0  0  0  0  0  0  0  0  0  0  0
    9.7143  -15.0655   17.5709 C   0  0  0  0  0  0  0  0  0  0  0  0
   10.7714  -15.6051   17.9197 O   0  0  0  0  0  0  0  0  0  0  0  0
    9.1509  -14.0569   18.4249 N   0  0  0  0  0  0  0  0  0  0  0  0
    8.0606  -13.2287   17.9982 C   0  0  0  0  0  0  0  0  0  0  0  0
    7.6942  -12.3598   19.2103 C   0  0  0  0  0  0  0  0  0  0  0  0
    8.2435  -13.1576   20.3674 C   0  0  0  0  0  0  0  0  0  0  0  0
    9.5356  -13.6937   19.7437 C   0  0  1  0  0  0  0  0  0  0  0  0
   10.0130  -14.8386   20.5784 C   0  0  0  0  0  0  0  0  0  0  0  0
    9.3826  -15.9181   20.4953 O   0  0  0  0  0  0  0  0  0  0  0  0
   11.1281  -14.7813   21.4501 N   0  0  0  0  0  0  0  0  0  0  0  0
   11.5258  -15.9090   22.2821 C   0  0  1  0  0  0  0  0  0  0  0  0
   12.9207  -15.5464   22.8211 C   0  0  0  0  0  0  0  0  0  0  0  0
   13.9081  -15.4825   21.7265 C   0  0  0  0  0  0  0  0  0  0  0  0
   13.5596  -15.7541   20.5522 O   0  0  0  0  0  0  0  0  0  0  0  0
   10.6149  -16.1094   23.4125 C   0  0  0  0  0  0  0  0  0  0  0  0
   10.7215  -17.3431   24.0851 O   0  0  0  0  0  0  0  0  0  0  0  0
   15.2283  -15.1253   21.9693 O   0  0  0  0  0  0  0  0  0  0  0  0
    9.7583  -15.3150   23.8511 O   0  0  0  0  0  0  0  0  0  0  0  0
  2  1  1  1
  3  2  1  0
  4  5  2  0
  4  2  1  0
  6  4  1  0
  7  6  1  0
  8  7  1  0
  9  8  1  0
  9 10  1  0
 10 11  1  1
 10  6  1  0
 11 13  1  0
 12 11  2  0
 13 14  1  0
 14 15  1  1
 14 18  1  0
 16 20  1  0
 16 15  1  0
 17 16  2  0
 18 21  2  0
 18 19  1  0
M  END
$$$$
