APD.pdb
     RDKit          3D

 21 21  0  0  1  0  0  0  0  0999 V2000
    7.5967  -16.9354   16.7491 C   0  0  0  0  0  0  0  0  0  0  0  0
    8.5320  -15.7682   16.4292 C   0  0  2  0  0  0  0  0  0  0  0  0
    9.2841  -16.1328   15.2813 N   0  0  0  0  0  0  0  0  0  0  0  0
    9.2941  -15.3403   17.6070 C   0  0  0  0  0  0  0  0  0  0  0  0
   10.3034  -15.9749   17.9370 O   0  0  0  0  0  0  0  0  0  0  0  0
    8.9133  -14.2058   18.4019 N   0  0  0  0  0  0  0  0  0  0  0  0
    7.9714  -13.2336   17.9282 C   0  0  0  0  0  0  0  0  0  0  0  0
    7.7651  -12.2490   19.0887 C   0  0  0  0  0  0  0  0  0  0  0  0
    8.1854  -13.0604   20.2896 C   0  0  0  0  0  0  0  0  0  0  0  0
    9.3651  -13.8377   19.6978 C   0  0  1  0  0  0  0  0  0  0  0  0
    9.6540  -14.9970   20.5967 C   0  0  0  0  0  0  0  0  0  0  0  0
    8.7982  -15.9100   20.6573 O   0  0  0  0  0  0  0  0  0  0  0  0
   10.8285  -15.1291   21.3775 N   0  0  0  0  0  0  0  0  0  0  0  0
   11.1030  -16.3149   22.1780 C   0  0  1  0  0  0  0  0  0  0  0  0
   11.3565  -17.4430   21.1627 C   0  0  0  0  0  0  0  0  0  0  0  0
   11.7959  -18.6758   21.8441 C   0  0  0  0  0  0  0  0  0  0  0  0
   11.9059  -18.6954   23.0938 O   0  0  0  0  0  0  0  0  0  0  0  0
   12.2937  -16.1513   23.0166 C   0  0  0  0  0  0  0  0  0  0  0  0
   13.2701  -15.2534   22.5409 O   0  0  0  0  0  0  0  0  0  0  0  0
   12.0939  -19.8268   21.1259 O   0  0  0  0  0  0  0  0  0  0  0  0
   12.5432  -16.7115   24.1035 O   0  0  0  0  0  0  0  0  0  0  0  0
  2  1  1  1
  3  2  1  0
  4  5  2  0
  4  2  1  0
  6  4  1  0
  7  6  1  0
  8  7  1  0
  9  8  1  0
  9 10  1  0
 10 11  1  1
 10  6  1  0
 11 13  1  0
 12 11  2  0
 13 14  1  0
 14 15  1  6
 14 18  1  0
 16 20  1  0
 16 15  1  0
 17 16  2  0
 18 21  2  0
 18 19  1  0
M  END
$$$$
