APD.pdb
     RDKit          3D

 21 21  0  0  1  0  0  0  0  0999 V2000
    8.1433  -16.9161   16.8957 C   0  0  0  0  0  0  0  0  0  0  0  0
    8.9335  -15.6080   16.8346 C   0  0  2  0  0  0  0  0  0  0  0  0
    9.8407  -15.7137   15.7472 N   0  0  0  0  0  0  0  0  0  0  0  0
    9.5063  -15.2545   18.1376 C   0  0  0  0  0  0  0  0  0  0  0  0
   10.5146  -15.8500   18.5363 O   0  0  0  0  0  0  0  0  0  0  0  0
    8.9394  -14.2374   18.9792 N   0  0  0  0  0  0  0  0  0  0  0  0
    7.9689  -13.3036   18.4863 C   0  0  0  0  0  0  0  0  0  0  0  0
    7.5489  -12.4567   19.6967 C   0  0  0  0  0  0  0  0  0  0  0  0
    7.9097  -13.3442   20.8626 C   0  0  0  0  0  0  0  0  0  0  0  0
    9.2128  -13.9616   20.3460 C   0  0  1  0  0  0  0  0  0  0  0  0
    9.5080  -15.1756   21.1675 C   0  0  0  0  0  0  0  0  0  0  0  0
    8.7694  -16.1751   21.0095 O   0  0  0  0  0  0  0  0  0  0  0  0
   10.5656  -15.2676   22.1053 N   0  0  0  0  0  0  0  0  0  0  0  0
   10.8001  -16.4654   22.9005 C   0  0  1  0  0  0  0  0  0  0  0  0
   12.2355  -16.3246   23.4367 C   0  0  0  0  0  0  0  0  0  0  0  0
   13.1942  -16.1334   22.3314 C   0  0  0  0  0  0  0  0  0  0  0  0
   13.0961  -16.8268   21.2903 O   0  0  0  0  0  0  0  0  0  0  0  0
    9.8756  -16.5659   24.0332 C   0  0  0  0  0  0  0  0  0  0  0  0
    9.8923  -17.7833   24.7427 O   0  0  0  0  0  0  0  0  0  0  0  0
   14.2136  -15.1939   22.4185 O   0  0  0  0  0  0  0  0  0  0  0  0
    9.0777  -15.6992   24.4448 O   0  0  0  0  0  0  0  0  0  0  0  0
  2  1  1  1
  3  2  1  0
  4  5  2  0
  4  2  1  0
  6  4  1  0
  7  6  1  0
  8  7  1  0
  9  8  1  0
  9 10  1  0
 10 11  1  1
 10  6  1  0
 11 13  1  0
 12 11  2  0
 13 14  1  0
 14 15  1  1
 14 18  1  0
 16 20  1  0
 16 15  1  0
 17 16  2  0
 18 21  2  0
 18 19  1  0
M  END
$$$$
