APD.pdb
     RDKit          3D

 21 21  0  0  1  0  0  0  0  0999 V2000
    7.5983  -12.1412   26.2960 C   0  0  0  0  0  0  0  0  0  0  0  0
    6.5764  -13.0983   25.6804 C   0  0  2  0  0  0  0  0  0  0  0  0
    5.6104  -13.3844   26.6811 N   0  0  0  0  0  0  0  0  0  0  0  0
    7.2222  -14.2492   25.0407 C   0  0  0  0  0  0  0  0  0  0  0  0
    7.6997  -15.1447   25.7481 O   0  0  0  0  0  0  0  0  0  0  0  0
    7.3261  -14.3808   23.6138 N   0  0  0  0  0  0  0  0  0  0  0  0
    6.5824  -13.5397   22.7216 C   0  0  0  0  0  0  0  0  0  0  0  0
    7.0352  -13.9256   21.3057 C   0  0  0  0  0  0  0  0  0  0  0  0
    8.3828  -14.5589   21.5506 C   0  0  0  0  0  0  0  0  0  0  0  0
    8.1045  -15.3010   22.8613 C   0  0  1  0  0  0  0  0  0  0  0  0
    9.4180  -15.6456   23.4868 C   0  0  0  0  0  0  0  0  0  0  0  0
   10.1366  -14.6989   23.8831 O   0  0  0  0  0  0  0  0  0  0  0  0
    9.8975  -16.9670   23.6614 N   0  0  0  0  0  0  0  0  0  0  0  0
   11.2429  -17.2508   24.1426 C   0  0  1  0  0  0  0  0  0  0  0  0
   11.1467  -18.6191   24.8398 C   0  0  0  0  0  0  0  0  0  0  0  0
   10.7442  -18.4641   26.2509 C   0  0  0  0  0  0  0  0  0  0  0  0
   10.6511  -17.3182   26.7533 O   0  0  0  0  0  0  0  0  0  0  0  0
   12.2132  -17.3403   23.0480 C   0  0  0  0  0  0  0  0  0  0  0  0
   13.5272  -16.9284   23.3472 O   0  0  0  0  0  0  0  0  0  0  0  0
   10.4636  -19.5695   27.0439 O   0  0  0  0  0  0  0  0  0  0  0  0
   12.0133  -17.7412   21.8832 O   0  0  0  0  0  0  0  0  0  0  0  0
  2  1  1  1
  3  2  1  0
  4  5  2  0
  4  2  1  0
  6  4  1  0
  7  6  1  0
  8  7  1  0
  9  8  1  0
  9 10  1  0
 10 11  1  1
 10  6  1  0
 11 13  1  0
 12 11  2  0
 13 14  1  0
 14 15  1  6
 14 18  1  0
 16 20  1  0
 16 15  1  0
 17 16  2  0
 18 21  2  0
 18 19  1  0
M  END
$$$$
