APD.pdb
     RDKit          3D

 21 21  0  0  1  0  0  0  0  0999 V2000
    7.0932  -17.3745   17.2934 C   0  0  0  0  0  0  0  0  0  0  0  0
    8.1093  -16.2763   16.9758 C   0  0  2  0  0  0  0  0  0  0  0  0
    8.8911  -16.7290   15.8802 N   0  0  0  0  0  0  0  0  0  0  0  0
    8.8400  -15.8457   18.1723 C   0  0  0  0  0  0  0  0  0  0  0  0
    9.7396  -16.5654   18.6229 O   0  0  0  0  0  0  0  0  0  0  0  0
    8.5511  -14.6125   18.8505 N   0  0  0  0  0  0  0  0  0  0  0  0
    7.7198  -13.6033   18.2614 C   0  0  0  0  0  0  0  0  0  0  0  0
    7.5809  -12.5018   19.3225 C   0  0  0  0  0  0  0  0  0  0  0  0
    7.8905  -13.2362   20.6039 C   0  0  0  0  0  0  0  0  0  0  0  0
    9.0039  -14.1718   20.1232 C   0  0  1  0  0  0  0  0  0  0  0  0
    9.1567  -15.2663   21.1304 C   0  0  0  0  0  0  0  0  0  0  0  0
    8.1650  -16.0026   21.3402 O   0  0  0  0  0  0  0  0  0  0  0  0
   10.3456  -15.5237   21.8561 N   0  0  0  0  0  0  0  0  0  0  0  0
   10.4361  -16.5809   22.8542 C   0  0  1  0  0  0  0  0  0  0  0  0
   11.8977  -17.0599   22.8099 C   0  0  0  0  0  0  0  0  0  0  0  0
   12.1472  -18.0857   23.8408 C   0  0  0  0  0  0  0  0  0  0  0  0
   11.1936  -18.5342   24.5217 O   0  0  0  0  0  0  0  0  0  0  0  0
   10.1344  -16.0939   24.2031 C   0  0  0  0  0  0  0  0  0  0  0  0
    9.5907  -17.0377   25.0973 O   0  0  0  0  0  0  0  0  0  0  0  0
   13.4272  -18.5708   24.0771 O   0  0  0  0  0  0  0  0  0  0  0  0
   10.3053  -14.9428   24.6537 O   0  0  0  0  0  0  0  0  0  0  0  0
  2  1  1  1
  3  2  1  0
  4  5  2  0
  4  2  1  0
  6  4  1  0
  7  6  1  0
  8  7  1  0
  9  8  1  0
  9 10  1  0
 10 11  1  1
 10  6  1  0
 11 13  1  0
 12 11  2  0
 13 14  1  0
 14 15  1  1
 14 18  1  0
 16 20  1  0
 16 15  1  0
 17 16  2  0
 18 21  2  0
 18 19  1  0
M  END
$$$$
