APD.pdb
     RDKit          3D

 21 21  0  0  1  0  0  0  0  0999 V2000
    7.2974  -16.8986   17.3638 C   0  0  0  0  0  0  0  0  0  0  0  0
    8.4155  -15.8758   17.1565 C   0  0  2  0  0  0  0  0  0  0  0  0
    9.2258  -16.3471   16.0898 N   0  0  0  0  0  0  0  0  0  0  0  0
    9.1018  -15.5547   18.4122 C   0  0  0  0  0  0  0  0  0  0  0  0
   10.0418  -16.2664   18.7863 O   0  0  0  0  0  0  0  0  0  0  0  0
    8.7237  -14.4390   19.2346 N   0  0  0  0  0  0  0  0  0  0  0  0
    7.8696  -13.3957   18.7460 C   0  0  0  0  0  0  0  0  0  0  0  0
    7.6311  -12.4561   19.9372 C   0  0  0  0  0  0  0  0  0  0  0  0
    7.9215  -13.3441   21.1222 C   0  0  0  0  0  0  0  0  0  0  0  0
    9.0992  -14.1567   20.5756 C   0  0  1  0  0  0  0  0  0  0  0  0
    9.2626  -15.3705   21.4332 C   0  0  0  0  0  0  0  0  0  0  0  0
    8.2635  -16.1113   21.5843 O   0  0  0  0  0  0  0  0  0  0  0  0
   10.4690  -15.7355   22.0794 N   0  0  0  0  0  0  0  0  0  0  0  0
   10.5940  -16.9558   22.8652 C   0  0  1  0  0  0  0  0  0  0  0  0
   12.0567  -17.4024   22.6954 C   0  0  0  0  0  0  0  0  0  0  0  0
   12.9842  -16.2992   23.0116 C   0  0  0  0  0  0  0  0  0  0  0  0
   13.3013  -16.0699   24.2037 O   0  0  0  0  0  0  0  0  0  0  0  0
   10.3276  -16.7261   24.2878 C   0  0  0  0  0  0  0  0  0  0  0  0
   10.3220  -17.8696   25.1115 O   0  0  0  0  0  0  0  0  0  0  0  0
   13.5194  -15.5004   22.0091 O   0  0  0  0  0  0  0  0  0  0  0  0
   10.1080  -15.6369   24.8559 O   0  0  0  0  0  0  0  0  0  0  0  0
  2  1  1  1
  3  2  1  0
  4  5  2  0
  4  2  1  0
  6  4  1  0
  7  6  1  0
  8  7  1  0
  9  8  1  0
  9 10  1  0
 10 11  1  1
 10  6  1  0
 11 13  1  0
 12 11  2  0
 13 14  1  0
 14 15  1  1
 14 18  1  0
 16 20  1  0
 16 15  1  0
 17 16  2  0
 18 21  2  0
 18 19  1  0
M  END
$$$$
