APD.pdb
     RDKit          3D

 21 21  0  0  1  0  0  0  0  0999 V2000
    7.3208  -17.2756   17.1486 C   0  0  0  0  0  0  0  0  0  0  0  0
    8.3361  -16.1818   16.8136 C   0  0  2  0  0  0  0  0  0  0  0  0
    9.1499  -16.6708   15.7576 N   0  0  0  0  0  0  0  0  0  0  0  0
    9.0317  -15.6972   18.0103 C   0  0  0  0  0  0  0  0  0  0  0  0
   10.0090  -16.3243   18.4369 O   0  0  0  0  0  0  0  0  0  0  0  0
    8.6210  -14.5149   18.7157 N   0  0  0  0  0  0  0  0  0  0  0  0
    7.7139  -13.5669   18.1369 C   0  0  0  0  0  0  0  0  0  0  0  0
    7.4571  -12.5135   19.2246 C   0  0  0  0  0  0  0  0  0  0  0  0
    7.8072  -13.2544   20.4917 C   0  0  0  0  0  0  0  0  0  0  0  0
    9.0087  -14.0730   20.0093 C   0  0  1  0  0  0  0  0  0  0  0  0
    9.2400  -15.1783   20.9892 C   0  0  0  0  0  0  0  0  0  0  0  0
    8.3809  -16.0883   21.0488 O   0  0  0  0  0  0  0  0  0  0  0  0
   10.3637  -15.2629   21.8473 N   0  0  0  0  0  0  0  0  0  0  0  0
   10.5742  -16.3890   22.7473 C   0  0  1  0  0  0  0  0  0  0  0  0
   12.0985  -16.5933   22.7957 C   0  0  0  0  0  0  0  0  0  0  0  0
   12.4505  -17.7249   23.6748 C   0  0  0  0  0  0  0  0  0  0  0  0
   12.6583  -17.5278   24.8964 O   0  0  0  0  0  0  0  0  0  0  0  0
   10.0868  -16.1120   24.1014 C   0  0  0  0  0  0  0  0  0  0  0  0
    9.8387  -17.2360   24.9145 O   0  0  0  0  0  0  0  0  0  0  0  0
   12.5588  -19.0165   23.1754 O   0  0  0  0  0  0  0  0  0  0  0  0
    9.8687  -14.9981   24.6199 O   0  0  0  0  0  0  0  0  0  0  0  0
  2  1  1  1
  3  2  1  0
  4  5  2  0
  4  2  1  0
  6  4  1  0
  7  6  1  0
  8  7  1  0
  9  8  1  0
  9 10  1  0
 10 11  1  1
 10  6  1  0
 11 13  1  0
 12 11  2  0
 13 14  1  0
 14 15  1  1
 14 18  1  0
 16 20  1  0
 16 15  1  0
 17 16  2  0
 18 21  2  0
 18 19  1  0
M  END
$$$$
