APD.pdb
     RDKit          3D

 21 21  0  0  1  0  0  0  0  0999 V2000
   -5.6314  -25.8730   23.7311 C   0  0  0  0  0  0  0  0  0  0  0  0
   -4.3282  -25.4427   24.4063 C   0  0  2  0  0  0  0  0  0  0  0  0
   -3.5414  -26.6108   24.5877 N   0  0  0  0  0  0  0  0  0  0  0  0
   -4.5749  -24.6238   25.5977 C   0  0  0  0  0  0  0  0  0  0  0  0
   -5.1143  -25.1393   26.5845 O   0  0  0  0  0  0  0  0  0  0  0  0
   -4.2146  -23.2347   25.6672 N   0  0  0  0  0  0  0  0  0  0  0  0
   -3.3723  -22.6226   24.6810 C   0  0  0  0  0  0  0  0  0  0  0  0
   -3.3039  -21.1341   25.0529 C   0  0  0  0  0  0  0  0  0  0  0  0
   -4.5470  -20.9442   25.8871 C   0  0  0  0  0  0  0  0  0  0  0  0
   -4.5729  -22.2725   26.6494 C   0  0  1  0  0  0  0  0  0  0  0  0
   -5.9453  -22.4564   27.2136 C   0  0  0  0  0  0  0  0  0  0  0  0
   -6.8802  -22.6641   26.4058 O   0  0  0  0  0  0  0  0  0  0  0  0
   -6.2532  -22.4139   28.5955 N   0  0  0  0  0  0  0  0  0  0  0  0
   -7.6131  -22.5639   29.0960 C   0  0  1  0  0  0  0  0  0  0  0  0
   -7.6872  -23.9964   29.6530 C   0  0  0  0  0  0  0  0  0  0  0  0
   -9.0217  -24.2732   30.2183 C   0  0  0  0  0  0  0  0  0  0  0  0
  -10.0365  -23.7227   29.7270 O   0  0  0  0  0  0  0  0  0  0  0  0
   -7.9121  -21.6170   30.1738 C   0  0  0  0  0  0  0  0  0  0  0  0
   -6.8081  -21.1499   30.9146 O   0  0  0  0  0  0  0  0  0  0  0  0
   -9.1816  -25.1379   31.2936 O   0  0  0  0  0  0  0  0  0  0  0  0
   -9.0290  -21.1736   30.5106 O   0  0  0  0  0  0  0  0  0  0  0  0
  2  1  1  1
  3  2  1  0
  4  5  2  0
  4  2  1  0
  6  4  1  0
  7  6  1  0
  8  7  1  0
  9  8  1  0
  9 10  1  0
 10 11  1  6
 10  6  1  0
 11 13  1  0
 12 11  2  0
 13 14  1  0
 14 15  1  1
 14 18  1  0
 16 20  1  0
 16 15  1  0
 17 16  2  0
 18 21  2  0
 18 19  1  0
M  END
$$$$
