APD.pdb
     RDKit          3D

 21 21  0  0  1  0  0  0  0  0999 V2000
    6.3590  -14.2166   20.8385 C   0  0  0  0  0  0  0  0  0  0  0  0
    7.3193  -13.1117   21.2813 C   0  0  2  0  0  0  0  0  0  0  0  0
    8.1328  -12.7870   20.1637 N   0  0  0  0  0  0  0  0  0  0  0  0
    8.0164  -13.4595   22.5239 C   0  0  0  0  0  0  0  0  0  0  0  0
    9.0585  -14.1236   22.4668 O   0  0  0  0  0  0  0  0  0  0  0  0
    7.5346  -13.0591   23.8168 N   0  0  0  0  0  0  0  0  0  0  0  0
    6.4989  -12.0785   23.9665 C   0  0  0  0  0  0  0  0  0  0  0  0
    6.2084  -12.0013   25.4726 C   0  0  0  0  0  0  0  0  0  0  0  0
    6.7158  -13.3304   25.9758 C   0  0  0  0  0  0  0  0  0  0  0  0
    7.9600  -13.5004   25.0988 C   0  0  1  0  0  0  0  0  0  0  0  0
    8.3677  -14.9381   25.1462 C   0  0  0  0  0  0  0  0  0  0  0  0
    7.5494  -15.7862   24.7210 O   0  0  0  0  0  0  0  0  0  0  0  0
    9.6143  -15.3991   25.6359 N   0  0  0  0  0  0  0  0  0  0  0  0
    9.9969  -16.8042   25.5938 C   0  0  1  0  0  0  0  0  0  0  0  0
   11.3620  -16.8343   24.8845 C   0  0  0  0  0  0  0  0  0  0  0  0
   11.8767  -18.2140   24.7914 C   0  0  0  0  0  0  0  0  0  0  0  0
   13.0820  -18.4149   24.5064 O   0  0  0  0  0  0  0  0  0  0  0  0
   10.1435  -17.3767   26.9349 C   0  0  0  0  0  0  0  0  0  0  0  0
   10.0053  -18.7758   27.0316 O   0  0  0  0  0  0  0  0  0  0  0  0
   11.0486  -19.3068   25.0139 O   0  0  0  0  0  0  0  0  0  0  0  0
   10.3791  -16.7714   28.0004 O   0  0  0  0  0  0  0  0  0  0  0  0
  2  1  1  6
  3  2  1  0
  4  5  2  0
  4  2  1  0
  6  4  1  0
  7  6  1  0
  8  7  1  0
  9  8  1  0
  9 10  1  0
 10 11  1  6
 10  6  1  0
 11 13  1  0
 12 11  2  0
 13 14  1  0
 14 15  1  1
 14 18  1  0
 16 20  1  0
 16 15  1  0
 17 16  2  0
 18 21  2  0
 18 19  1  0
M  END
$$$$
