APD.pdb
     RDKit          3D

 21 21  0  0  1  0  0  0  0  0999 V2000
    6.3525  -15.2327   22.1645 C   0  0  0  0  0  0  0  0  0  0  0  0
    7.2479  -13.9992   22.2906 C   0  0  2  0  0  0  0  0  0  0  0  0
    7.9768  -13.8813   21.0777 N   0  0  0  0  0  0  0  0  0  0  0  0
    8.0314  -14.0174   23.5303 C   0  0  0  0  0  0  0  0  0  0  0  0
    9.1058  -14.6299   23.5573 O   0  0  0  0  0  0  0  0  0  0  0  0
    7.5988  -13.3491   24.7263 N   0  0  0  0  0  0  0  0  0  0  0  0
    6.5515  -12.3696   24.7074 C   0  0  0  0  0  0  0  0  0  0  0  0
    6.3257  -11.9683   26.1726 C   0  0  0  0  0  0  0  0  0  0  0  0
    6.8807  -13.1505   26.9286 C   0  0  0  0  0  0  0  0  0  0  0  0
    8.0884  -13.4958   26.0521 C   0  0  1  0  0  0  0  0  0  0  0  0
    8.5261  -14.8845   26.3921 C   0  0  0  0  0  0  0  0  0  0  0  0
    7.7212  -15.8172   26.1642 O   0  0  0  0  0  0  0  0  0  0  0  0
    9.7867  -15.2107   26.9495 N   0  0  0  0  0  0  0  0  0  0  0  0
   10.1382  -16.5695   27.3399 C   0  0  1  0  0  0  0  0  0  0  0  0
   11.4170  -16.9026   26.5517 C   0  0  0  0  0  0  0  0  0  0  0  0
   11.2355  -18.1252   25.7458 C   0  0  0  0  0  0  0  0  0  0  0  0
   10.1494  -18.7515   25.7939 O   0  0  0  0  0  0  0  0  0  0  0  0
   10.4204  -16.6764   28.7740 C   0  0  0  0  0  0  0  0  0  0  0  0
   10.2017  -17.9402   29.3578 O   0  0  0  0  0  0  0  0  0  0  0  0
   12.2505  -18.6037   24.9270 O   0  0  0  0  0  0  0  0  0  0  0  0
   10.8342  -15.7807   29.5381 O   0  0  0  0  0  0  0  0  0  0  0  0
  2  1  1  6
  3  2  1  0
  4  5  2  0
  4  2  1  0
  6  4  1  0
  7  6  1  0
  8  7  1  0
  9  8  1  0
  9 10  1  0
 10 11  1  6
 10  6  1  0
 11 13  1  0
 12 11  2  0
 13 14  1  0
 14 15  1  6
 14 18  1  0
 16 20  1  0
 16 15  1  0
 17 16  2  0
 18 21  2  0
 18 19  1  0
M  END
$$$$
