APD.pdb
     RDKit          3D

 21 21  0  0  1  0  0  0  0  0999 V2000
    6.0816  -15.4389   22.4520 C   0  0  0  0  0  0  0  0  0  0  0  0
    6.9428  -14.1753   22.4808 C   0  0  2  0  0  0  0  0  0  0  0  0
    7.5315  -14.0367   21.1961 N   0  0  0  0  0  0  0  0  0  0  0  0
    7.8561  -14.1628   23.6282 C   0  0  0  0  0  0  0  0  0  0  0  0
    8.9058  -14.8151   23.5723 O   0  0  0  0  0  0  0  0  0  0  0  0
    7.5798  -13.4195   24.8262 N   0  0  0  0  0  0  0  0  0  0  0  0
    6.5277  -12.4468   24.8858 C   0  0  0  0  0  0  0  0  0  0  0  0
    6.4956  -11.9517   26.3392 C   0  0  0  0  0  0  0  0  0  0  0  0
    7.1612  -13.0803   27.0878 C   0  0  0  0  0  0  0  0  0  0  0  0
    8.2446  -13.4779   26.0807 C   0  0  1  0  0  0  0  0  0  0  0  0
    8.7406  -14.8400   26.4470 C   0  0  0  0  0  0  0  0  0  0  0  0
    7.9168  -15.7835   26.4169 O   0  0  0  0  0  0  0  0  0  0  0  0
   10.0756  -15.1302   26.8208 N   0  0  0  0  0  0  0  0  0  0  0  0
   10.4826  -16.4440   27.3010 C   0  0  1  0  0  0  0  0  0  0  0  0
   11.9635  -16.5818   26.9065 C   0  0  0  0  0  0  0  0  0  0  0  0
   12.1588  -16.2721   25.4771 C   0  0  0  0  0  0  0  0  0  0  0  0
   11.5874  -16.9664   24.6022 O   0  0  0  0  0  0  0  0  0  0  0  0
   10.3640  -16.5607   28.7570 C   0  0  0  0  0  0  0  0  0  0  0  0
   10.4782  -17.8613   29.2874 O   0  0  0  0  0  0  0  0  0  0  0  0
   12.9697  -15.2188   25.0741 O   0  0  0  0  0  0  0  0  0  0  0  0
   10.1768  -15.6436   29.5824 O   0  0  0  0  0  0  0  0  0  0  0  0
  2  1  1  6
  3  2  1  0
  4  5  2  0
  4  2  1  0
  6  4  1  0
  7  6  1  0
  8  7  1  0
  9  8  1  0
  9 10  1  0
 10 11  1  1
 10  6  1  0
 11 13  1  0
 12 11  2  0
 13 14  1  0
 14 15  1  1
 14 18  1  0
 16 20  1  0
 16 15  1  0
 17 16  2  0
 18 21  2  0
 18 19  1  0
M  END
$$$$
