APD.pdb
     RDKit          3D

 21 21  0  0  1  0  0  0  0  0999 V2000
    7.3051  -17.4525   17.7536 C   0  0  0  0  0  0  0  0  0  0  0  0
    8.3152  -16.3439   17.4532 C   0  0  2  0  0  0  0  0  0  0  0  0
    9.1905  -16.8320   16.4473 N   0  0  0  0  0  0  0  0  0  0  0  0
    8.9399  -15.8284   18.6758 C   0  0  0  0  0  0  0  0  0  0  0  0
    9.8780  -16.4536   19.1852 O   0  0  0  0  0  0  0  0  0  0  0  0
    8.5033  -14.6174   19.3138 N   0  0  0  0  0  0  0  0  0  0  0  0
    7.6541  -13.6751   18.6448 C   0  0  0  0  0  0  0  0  0  0  0  0
    7.3428  -12.5828   19.6785 C   0  0  0  0  0  0  0  0  0  0  0  0
    7.5936  -13.2870   20.9894 C   0  0  0  0  0  0  0  0  0  0  0  0
    8.8103  -14.1392   20.6161 C   0  0  1  0  0  0  0  0  0  0  0  0
    8.9556  -15.2153   21.6440 C   0  0  0  0  0  0  0  0  0  0  0  0
    8.0526  -16.0815   21.7069 O   0  0  0  0  0  0  0  0  0  0  0  0
   10.0444  -15.3184   22.5440 N   0  0  0  0  0  0  0  0  0  0  0  0
   10.0882  -16.3178   23.6031 C   0  0  1  0  0  0  0  0  0  0  0  0
   11.5827  -16.6021   23.8343 C   0  0  0  0  0  0  0  0  0  0  0  0
   12.2474  -16.9836   22.5733 C   0  0  0  0  0  0  0  0  0  0  0  0
   11.8383  -17.9773   21.9256 O   0  0  0  0  0  0  0  0  0  0  0  0
    9.4978  -15.8259   24.8510 C   0  0  0  0  0  0  0  0  0  0  0  0
    9.2716  -16.7900   25.8537 O   0  0  0  0  0  0  0  0  0  0  0  0
   13.3270  -16.2605   22.0825 O   0  0  0  0  0  0  0  0  0  0  0  0
    9.1746  -14.6535   25.1310 O   0  0  0  0  0  0  0  0  0  0  0  0
  2  1  1  1
  3  2  1  0
  4  5  2  0
  4  2  1  0
  6  4  1  0
  7  6  1  0
  8  7  1  0
  9  8  1  0
  9 10  1  0
 10 11  1  1
 10  6  1  0
 11 13  1  0
 12 11  2  0
 13 14  1  0
 14 15  1  1
 14 18  1  0
 16 20  1  0
 16 15  1  0
 17 16  2  0
 18 21  2  0
 18 19  1  0
M  END
$$$$
