APD.pdb
     RDKit          3D

 21 21  0  0  1  0  0  0  0  0999 V2000
    6.3759  -15.4131   22.3334 C   0  0  0  0  0  0  0  0  0  0  0  0
    7.2545  -14.1626   22.3938 C   0  0  2  0  0  0  0  0  0  0  0  0
    7.9837  -14.1002   21.1769 N   0  0  0  0  0  0  0  0  0  0  0  0
    8.0362  -14.1036   23.6333 C   0  0  0  0  0  0  0  0  0  0  0  0
    9.0727  -14.7725   23.7266 O   0  0  0  0  0  0  0  0  0  0  0  0
    7.6444  -13.2957   24.7548 N   0  0  0  0  0  0  0  0  0  0  0  0
    6.6174  -12.3005   24.6467 C   0  0  0  0  0  0  0  0  0  0  0  0
    6.4328  -11.7325   26.0616 C   0  0  0  0  0  0  0  0  0  0  0  0
    6.9798  -12.8350   26.9346 C   0  0  0  0  0  0  0  0  0  0  0  0
    8.1603  -13.3042   26.0787 C   0  0  1  0  0  0  0  0  0  0  0  0
    8.5765  -14.6558   26.5641 C   0  0  0  0  0  0  0  0  0  0  0  0
    7.7237  -15.5728   26.5250 O   0  0  0  0  0  0  0  0  0  0  0  0
    9.8671  -14.9641   27.0596 N   0  0  0  0  0  0  0  0  0  0  0  0
   10.2106  -16.2838   27.5721 C   0  0  1  0  0  0  0  0  0  0  0  0
   11.5128  -16.6750   26.8518 C   0  0  0  0  0  0  0  0  0  0  0  0
   12.0344  -17.9561   27.3656 C   0  0  0  0  0  0  0  0  0  0  0  0
   13.0593  -17.9699   28.0893 O   0  0  0  0  0  0  0  0  0  0  0  0
   10.4509  -16.2693   29.0177 C   0  0  0  0  0  0  0  0  0  0  0  0
   10.5720  -14.9986   29.6147 O   0  0  0  0  0  0  0  0  0  0  0  0
   11.4104  -19.1595   27.0627 O   0  0  0  0  0  0  0  0  0  0  0  0
   10.5579  -17.2497   29.7823 O   0  0  0  0  0  0  0  0  0  0  0  0
  2  1  1  6
  3  2  1  0
  4  5  2  0
  4  2  1  0
  6  4  1  0
  7  6  1  0
  8  7  1  0
  9  8  1  0
  9 10  1  0
 10 11  1  1
 10  6  1  0
 11 13  1  0
 12 11  2  0
 13 14  1  0
 14 15  1  6
 14 18  1  0
 16 20  1  0
 16 15  1  0
 17 16  2  0
 18 21  2  0
 18 19  1  0
M  END
$$$$
