APD.pdb
     RDKit          3D

 21 21  0  0  1  0  0  0  0  0999 V2000
    7.5270  -17.0403   16.5217 C   0  0  0  0  0  0  0  0  0  0  0  0
    8.4776  -15.8612   16.3081 C   0  0  2  0  0  0  0  0  0  0  0  0
    9.3263  -16.1955   15.2199 N   0  0  0  0  0  0  0  0  0  0  0  0
    9.1347  -15.4566   17.5552 C   0  0  0  0  0  0  0  0  0  0  0  0
   10.1334  -16.0765   17.9410 O   0  0  0  0  0  0  0  0  0  0  0  0
    8.6622  -14.3615   18.3562 N   0  0  0  0  0  0  0  0  0  0  0  0
    7.6910  -13.4288   17.8627 C   0  0  0  0  0  0  0  0  0  0  0  0
    7.3852  -12.4826   19.0331 C   0  0  0  0  0  0  0  0  0  0  0  0
    7.7971  -13.2982   20.2340 C   0  0  0  0  0  0  0  0  0  0  0  0
    9.0397  -14.0000   19.6775 C   0  0  1  0  0  0  0  0  0  0  0  0
    9.3514  -15.1629   20.5641 C   0  0  0  0  0  0  0  0  0  0  0  0
    8.5360  -16.1140   20.5795 O   0  0  0  0  0  0  0  0  0  0  0  0
   10.5049  -15.2582   21.3806 N   0  0  0  0  0  0  0  0  0  0  0  0
   10.7689  -16.4159   22.2246 C   0  0  1  0  0  0  0  0  0  0  0  0
   12.3018  -16.5083   22.3225 C   0  0  0  0  0  0  0  0  0  0  0  0
   12.7069  -17.6101   23.2164 C   0  0  0  0  0  0  0  0  0  0  0  0
   12.1772  -18.7411   23.0960 O   0  0  0  0  0  0  0  0  0  0  0  0
   10.2138  -16.2553   23.5714 C   0  0  0  0  0  0  0  0  0  0  0  0
    9.9247  -14.9353   23.9710 O   0  0  0  0  0  0  0  0  0  0  0  0
   13.6709  -17.4215   24.1985 O   0  0  0  0  0  0  0  0  0  0  0  0
    9.9643  -17.1503   24.4045 O   0  0  0  0  0  0  0  0  0  0  0  0
  2  1  1  1
  3  2  1  0
  4  5  2  0
  4  2  1  0
  6  4  1  0
  7  6  1  0
  8  7  1  0
  9  8  1  0
  9 10  1  0
 10 11  1  1
 10  6  1  0
 11 13  1  0
 12 11  2  0
 13 14  1  0
 14 15  1  1
 14 18  1  0
 16 20  1  0
 16 15  1  0
 17 16  2  0
 18 21  2  0
 18 19  1  0
M  END
$$$$
