APD.pdb
     RDKit          3D

 21 21  0  0  1  0  0  0  0  0999 V2000
    5.1356  -17.0943   21.2838 C   0  0  0  0  0  0  0  0  0  0  0  0
    5.8005  -16.8934   19.9211 C   0  0  2  0  0  0  0  0  0  0  0  0
    5.5259  -18.0492   19.1433 N   0  0  0  0  0  0  0  0  0  0  0  0
    7.2093  -16.5077   20.0523 C   0  0  0  0  0  0  0  0  0  0  0  0
    8.0638  -17.3868   20.2181 O   0  0  0  0  0  0  0  0  0  0  0  0
    7.6428  -15.1390   19.9975 N   0  0  0  0  0  0  0  0  0  0  0  0
    6.7871  -14.0945   19.5144 C   0  0  0  0  0  0  0  0  0  0  0  0
    7.5723  -12.7880   19.7026 C   0  0  0  0  0  0  0  0  0  0  0  0
    8.5708  -13.1535   20.7733 C   0  0  0  0  0  0  0  0  0  0  0  0
    8.9023  -14.5912   20.3618 C   0  0  1  0  0  0  0  0  0  0  0  0
    9.5500  -15.2690   21.5265 C   0  0  0  0  0  0  0  0  0  0  0  0
    8.9344  -15.2593   22.6177 O   0  0  0  0  0  0  0  0  0  0  0  0
   10.8068  -15.9202   21.4741 N   0  0  0  0  0  0  0  0  0  0  0  0
   11.4347  -16.4990   22.6543 C   0  0  1  0  0  0  0  0  0  0  0  0
   11.6433  -17.9859   22.3178 C   0  0  0  0  0  0  0  0  0  0  0  0
   11.1871  -18.8459   23.4267 C   0  0  0  0  0  0  0  0  0  0  0  0
   10.7934  -18.3281   24.4996 O   0  0  0  0  0  0  0  0  0  0  0  0
   12.7352  -15.8884   22.9433 C   0  0  0  0  0  0  0  0  0  0  0  0
   13.2273  -16.0646   24.2520 O   0  0  0  0  0  0  0  0  0  0  0  0
   11.1842  -20.2299   23.3086 O   0  0  0  0  0  0  0  0  0  0  0  0
   13.4592  -15.2335   22.1660 O   0  0  0  0  0  0  0  0  0  0  0  0
  2  1  1  1
  3  2  1  0
  4  5  2  0
  4  2  1  0
  6  4  1  0
  7  6  1  0
  8  7  1  0
  9  8  1  0
  9 10  1  0
 10 11  1  1
 10  6  1  0
 11 13  1  0
 12 11  2  0
 13 14  1  0
 14 15  1  6
 14 18  1  0
 16 20  1  0
 16 15  1  0
 17 16  2  0
 18 21  2  0
 18 19  1  0
M  END
$$$$
