APD.pdb
     RDKit          3D

 21 21  0  0  1  0  0  0  0  0999 V2000
    8.2136  -16.7081   16.0362 C   0  0  0  0  0  0  0  0  0  0  0  0
    8.9106  -15.3519   15.9165 C   0  0  2  0  0  0  0  0  0  0  0  0
    9.7139  -15.3924   14.7463 N   0  0  0  0  0  0  0  0  0  0  0  0
    9.5825  -14.9712   17.1633 C   0  0  0  0  0  0  0  0  0  0  0  0
   10.6878  -15.4598   17.4278 O   0  0  0  0  0  0  0  0  0  0  0  0
    9.0050  -14.0475   18.1000 N   0  0  0  0  0  0  0  0  0  0  0  0
    7.8008  -13.3267   17.8051 C   0  0  0  0  0  0  0  0  0  0  0  0
    7.4669  -12.5300   19.0750 C   0  0  0  0  0  0  0  0  0  0  0  0
    8.2028  -13.2944   20.1480 C   0  0  0  0  0  0  0  0  0  0  0  0
    9.4764  -13.6784   19.3886 C   0  0  1  0  0  0  0  0  0  0  0  0
   10.1450  -14.7874   20.1359 C   0  0  0  0  0  0  0  0  0  0  0  0
    9.5957  -15.9133   20.1147 O   0  0  0  0  0  0  0  0  0  0  0  0
   11.3546  -14.6475   20.8595 N   0  0  0  0  0  0  0  0  0  0  0  0
   11.9063  -15.7241   21.6713 C   0  0  1  0  0  0  0  0  0  0  0  0
   13.3898  -15.3669   21.8690 C   0  0  0  0  0  0  0  0  0  0  0  0
   14.0677  -15.1944   20.5698 C   0  0  0  0  0  0  0  0  0  0  0  0
   14.0127  -16.1056   19.7089 O   0  0  0  0  0  0  0  0  0  0  0  0
   11.2585  -15.8141   22.9828 C   0  0  0  0  0  0  0  0  0  0  0  0
   11.5982  -16.9339   23.7680 O   0  0  0  0  0  0  0  0  0  0  0  0
   14.7730  -14.0346   20.2753 O   0  0  0  0  0  0  0  0  0  0  0  0
   10.4439  -15.0144   23.4869 O   0  0  0  0  0  0  0  0  0  0  0  0
  2  1  1  1
  3  2  1  0
  4  5  2  0
  4  2  1  0
  6  4  1  0
  7  6  1  0
  8  7  1  0
  9  8  1  0
  9 10  1  0
 10 11  1  1
 10  6  1  0
 11 13  1  0
 12 11  2  0
 13 14  1  0
 14 15  1  1
 14 18  1  0
 16 20  1  0
 16 15  1  0
 17 16  2  0
 18 21  2  0
 18 19  1  0
M  END
$$$$
