GDR.pdb
     RDKit          3D

 24 23  0  0  1  0  0  0  0  0999 V2000
   17.0601   -9.8747  -16.1393 N   0  0  0  0  0  0  0  0  0  0  0  0
   17.3544  -10.6938  -14.9896 C   0  0  0  0  0  0  0  0  0  0  0  0
   17.9051   -9.8563  -13.8655 C   0  0  0  0  0  0  0  0  0  0  0  0
   17.9530  -10.3058  -12.6918 O   0  0  0  0  0  0  0  0  0  0  0  0
   18.3842   -8.5465  -14.0821 N   0  0  0  0  0  0  0  0  0  0  0  0
   18.9285   -7.7775  -12.9572 C   0  0  1  0  0  0  0  0  0  0  0  0
   19.9466   -6.8019  -13.4197 C   0  0  0  0  0  0  0  0  0  0  0  0
   21.1549   -7.4550  -13.9054 C   0  0  0  0  0  0  0  0  0  0  0  0
   21.5049   -8.5936  -13.5665 O   0  0  0  0  0  0  0  0  0  0  0  0
   17.7727   -7.1196  -12.2493 C   0  0  0  0  0  0  0  0  0  0  0  0
   17.0285   -6.2569  -12.7281 O   0  0  0  0  0  0  0  0  0  0  0  0
   21.9757   -6.7667  -14.8075 O   0  0  0  0  0  0  0  0  0  0  0  0
   11.1642  -10.6255   -8.3470 N   0  0  0  0  0  0  0  0  0  0  0  0
   11.0965   -9.2795   -7.8544 C   0  0  0  0  0  0  0  0  0  0  0  0
   10.0659   -8.9652   -7.1722 N   0  0  0  0  0  0  0  0  0  0  0  0
   12.1186   -8.3354   -8.1071 N   0  0  0  0  0  0  0  0  0  0  0  0
   13.2883   -8.6971   -8.8738 C   0  0  0  0  0  0  0  0  0  0  0  0
   14.2535   -7.5087   -8.9998 C   0  0  0  0  0  0  0  0  0  0  0  0
   15.4261   -7.9763   -9.8053 C   0  0  0  0  0  0  0  0  0  0  0  0
   16.4253   -6.8907  -10.1105 C   0  0  2  0  0  0  0  0  0  0  0  0
   17.4933   -7.5132  -10.9028 N   0  0  0  0  0  0  0  0  0  0  0  0
   16.9585   -6.1990   -8.9370 C   0  0  0  0  0  0  0  0  0  0  0  0
   16.2516   -5.4170   -8.2664 O   0  0  0  0  0  0  0  0  0  0  0  0
   18.2694   -6.3943   -8.5368 O   0  0  0  0  0  0  0  0  0  0  0  0
  2  1  1  0
  3  2  1  0
  4  3  2  0
  5  3  1  0
  6  7  1  6
  6  5  1  0
  8 12  1  0
  8  7  1  0
  9  8  2  0
 10 11  2  0
 10  6  1  0
 14 13  1  0
 14 16  1  0
 15 14  2  0
 17 16  1  0
 18 17  1  0
 19 18  1  0
 20 21  1  0
 20 19  1  1
 21 10  1  0
 22 20  1  0
 23 22  2  0
 24 22  1  0
M  END
$$$$
