GDR.pdb
     RDKit          3D

 24 23  0  0  1  0  0  0  0  0999 V2000
   25.1770  -20.1478  -20.9414 N   0  0  0  0  0  0  0  0  0  0  0  0
   25.2871  -19.3031  -19.7779 C   0  0  0  0  0  0  0  0  0  0  0  0
   25.0492  -20.0958  -18.5196 C   0  0  0  0  0  0  0  0  0  0  0  0
   24.8973  -21.3435  -18.5641 O   0  0  0  0  0  0  0  0  0  0  0  0
   24.9872  -19.4761  -17.2530 N   0  0  0  0  0  0  0  0  0  0  0  0
   24.8437  -20.3007  -16.0479 C   0  0  1  0  0  0  0  0  0  0  0  0
   26.0200  -20.1521  -15.1555 C   0  0  0  0  0  0  0  0  0  0  0  0
   27.2531  -20.5978  -15.7905 C   0  0  0  0  0  0  0  0  0  0  0  0
   27.5778  -21.7876  -15.9027 O   0  0  0  0  0  0  0  0  0  0  0  0
   23.5523  -19.9113  -15.3766 C   0  0  0  0  0  0  0  0  0  0  0  0
   23.1897  -18.7576  -15.1216 O   0  0  0  0  0  0  0  0  0  0  0  0
   28.1295  -19.6357  -16.3079 O   0  0  0  0  0  0  0  0  0  0  0  0
   19.7421  -24.5166  -13.9308 N   0  0  0  0  0  0  0  0  0  0  0  0
   19.0548  -24.3479  -12.6826 C   0  0  0  0  0  0  0  0  0  0  0  0
   18.7031  -25.4091  -12.0688 N   0  0  0  0  0  0  0  0  0  0  0  0
   18.7740  -23.0696  -12.1470 N   0  0  0  0  0  0  0  0  0  0  0  0
   19.1497  -21.8696  -12.8581 C   0  0  0  0  0  0  0  0  0  0  0  0
   20.2502  -21.1056  -12.1065 C   0  0  0  0  0  0  0  0  0  0  0  0
   21.5032  -21.2256  -12.9178 C   0  0  0  0  0  0  0  0  0  0  0  0
   21.3773  -20.6759  -14.3150 C   0  0  2  0  0  0  0  0  0  0  0  0
   22.6505  -20.9528  -14.9918 N   0  0  0  0  0  0  0  0  0  0  0  0
   21.0259  -19.2577  -14.3878 C   0  0  0  0  0  0  0  0  0  0  0  0
   21.7463  -18.3818  -13.8634 O   0  0  0  0  0  0  0  0  0  0  0  0
   19.8781  -18.8470  -15.0439 O   0  0  0  0  0  0  0  0  0  0  0  0
  2  1  1  0
  3  2  1  0
  4  3  2  0
  5  3  1  0
  6  7  1  1
  6  5  1  0
  8 12  1  0
  8  7  1  0
  9  8  2  0
 10 11  2  0
 10  6  1  0
 14 13  1  0
 14 16  1  0
 15 14  2  0
 17 16  1  0
 18 17  1  0
 19 18  1  0
 20 21  1  0
 20 19  1  1
 21 10  1  0
 22 20  1  0
 23 22  2  0
 24 22  1  0
M  END
$$$$
