GDR.pdb
     RDKit          3D

 24 23  0  0  1  0  0  0  0  0999 V2000
   15.4609  -11.4851  -25.1991 N   0  0  0  0  0  0  0  0  0  0  0  0
   15.6448  -12.6720  -24.4011 C   0  0  0  0  0  0  0  0  0  0  0  0
   16.9733  -12.6373  -23.6927 C   0  0  0  0  0  0  0  0  0  0  0  0
   17.3407  -13.5965  -22.9667 O   0  0  0  0  0  0  0  0  0  0  0  0
   17.8502  -11.5379  -23.8135 N   0  0  0  0  0  0  0  0  0  0  0  0
   19.1509  -11.5690  -23.1353 C   0  0  1  0  0  0  0  0  0  0  0  0
   20.1116  -10.6390  -23.7790 C   0  0  0  0  0  0  0  0  0  0  0  0
   20.6384  -11.1696  -25.0295 C   0  0  0  0  0  0  0  0  0  0  0  0
   20.6414  -12.3738  -25.3185 O   0  0  0  0  0  0  0  0  0  0  0  0
   18.9181  -11.2494  -21.6815 C   0  0  0  0  0  0  0  0  0  0  0  0
   18.2649  -10.2944  -21.2472 O   0  0  0  0  0  0  0  0  0  0  0  0
   21.1744  -10.2773  -25.9663 O   0  0  0  0  0  0  0  0  0  0  0  0
   16.2135  -16.7508  -15.8405 N   0  0  0  0  0  0  0  0  0  0  0  0
   16.2307  -15.4729  -15.1881 C   0  0  0  0  0  0  0  0  0  0  0  0
   15.4962  -15.3425  -14.1537 N   0  0  0  0  0  0  0  0  0  0  0  0
   17.0208  -14.3995  -15.6606 N   0  0  0  0  0  0  0  0  0  0  0  0
   17.7533  -14.5085  -16.9009 C   0  0  0  0  0  0  0  0  0  0  0  0
   18.4391  -13.1801  -17.2542 C   0  0  0  0  0  0  0  0  0  0  0  0
   18.7296  -13.2107  -18.7230 C   0  0  0  0  0  0  0  0  0  0  0  0
   19.2831  -11.9162  -19.2599 C   0  0  2  0  0  0  0  0  0  0  0  0
   19.4947  -12.1147  -20.6992 N   0  0  0  0  0  0  0  0  0  0  0  0
   20.4990  -11.4459  -18.5965 C   0  0  0  0  0  0  0  0  0  0  0  0
   20.4642  -10.9520  -17.4494 O   0  0  0  0  0  0  0  0  0  0  0  0
   21.7281  -11.5364  -19.2273 O   0  0  0  0  0  0  0  0  0  0  0  0
  2  1  1  0
  3  2  1  0
  4  3  2  0
  5  3  1  0
  6  7  1  6
  6  5  1  0
  8 12  1  0
  8  7  1  0
  9  8  2  0
 10 11  2  0
 10  6  1  0
 14 13  1  0
 14 16  1  0
 15 14  2  0
 17 16  1  0
 18 17  1  0
 19 18  1  0
 20 21  1  0
 20 19  1  1
 21 10  1  0
 22 20  1  0
 23 22  2  0
 24 22  1  0
M  END
$$$$
