GDR.pdb
     RDKit          3D

 24 23  0  0  1  0  0  0  0  0999 V2000
   18.3926  -20.1732  -17.7911 N   0  0  0  0  0  0  0  0  0  0  0  0
   18.9080  -19.4849  -16.6335 C   0  0  0  0  0  0  0  0  0  0  0  0
   19.3056  -20.4667  -15.5630 C   0  0  0  0  0  0  0  0  0  0  0  0
   18.9422  -21.6693  -15.6255 O   0  0  0  0  0  0  0  0  0  0  0  0
   20.0935  -20.0803  -14.4575 N   0  0  0  0  0  0  0  0  0  0  0  0
   20.4062  -21.0603  -13.4112 C   0  0  1  0  0  0  0  0  0  0  0  0
   21.7022  -20.7498  -12.7583 C   0  0  0  0  0  0  0  0  0  0  0  0
   22.8329  -20.9520  -13.6545 C   0  0  0  0  0  0  0  0  0  0  0  0
   23.7535  -20.1357  -13.7951 O   0  0  0  0  0  0  0  0  0  0  0  0
   19.2552  -21.0766  -12.4392 C   0  0  0  0  0  0  0  0  0  0  0  0
   18.6347  -20.0863  -12.0372 O   0  0  0  0  0  0  0  0  0  0  0  0
   22.8941  -22.1328  -14.4050 O   0  0  0  0  0  0  0  0  0  0  0  0
   11.6617  -20.8970  -13.5416 N   0  0  0  0  0  0  0  0  0  0  0  0
   11.6106  -21.2932  -12.1634 C   0  0  0  0  0  0  0  0  0  0  0  0
   10.4600  -21.3268  -11.6143 N   0  0  0  0  0  0  0  0  0  0  0  0
   12.7750  -21.6328  -11.4363 N   0  0  0  0  0  0  0  0  0  0  0  0
   14.0848  -21.5001  -12.0309 C   0  0  0  0  0  0  0  0  0  0  0  0
   15.1721  -22.0536  -11.0975 C   0  0  0  0  0  0  0  0  0  0  0  0
   16.4806  -21.9126  -11.8122 C   0  0  0  0  0  0  0  0  0  0  0  0
   17.6534  -22.4699  -11.0480 C   0  0  2  0  0  0  0  0  0  0  0  0
   18.8253  -22.3395  -11.9230 N   0  0  0  0  0  0  0  0  0  0  0  0
   17.4828  -23.8445  -10.5775 C   0  0  0  0  0  0  0  0  0  0  0  0
   17.9247  -24.8143  -11.2296 O   0  0  0  0  0  0  0  0  0  0  0  0
   16.8224  -24.1078   -9.3895 O   0  0  0  0  0  0  0  0  0  0  0  0
  2  1  1  0
  3  2  1  0
  4  3  2  0
  5  3  1  0
  6  7  1  1
  6  5  1  0
  8 12  1  0
  8  7  1  0
  9  8  2  0
 10 11  2  0
 10  6  1  0
 14 13  1  0
 14 16  1  0
 15 14  2  0
 17 16  1  0
 18 17  1  0
 19 18  1  0
 20 21  1  0
 20 19  1  6
 21 10  1  0
 22 20  1  0
 23 22  2  0
 24 22  1  0
M  END
$$$$
