GDR.pdb
     RDKit          3D

 24 23  0  0  1  0  0  0  0  0999 V2000
   15.2732  -11.7407  -13.4192 N   0  0  0  0  0  0  0  0  0  0  0  0
   16.5052  -11.2697  -14.0021 C   0  0  0  0  0  0  0  0  0  0  0  0
   17.0661  -10.1207  -13.2062 C   0  0  0  0  0  0  0  0  0  0  0  0
   17.1708  -10.1948  -11.9550 O   0  0  0  0  0  0  0  0  0  0  0  0
   17.4919   -8.9264  -13.8265 N   0  0  0  0  0  0  0  0  0  0  0  0
   18.1399   -7.8829  -13.0240 C   0  0  1  0  0  0  0  0  0  0  0  0
   19.1417   -7.1372  -13.8255 C   0  0  0  0  0  0  0  0  0  0  0  0
   20.2636   -7.9767  -14.2244 C   0  0  0  0  0  0  0  0  0  0  0  0
   20.6966   -8.9155  -13.5426 O   0  0  0  0  0  0  0  0  0  0  0  0
   17.0584   -6.9917  -12.4708 C   0  0  0  0  0  0  0  0  0  0  0  0
   16.1830   -6.4222  -13.1316 O   0  0  0  0  0  0  0  0  0  0  0  0
   20.8967   -7.7178  -15.4465 O   0  0  0  0  0  0  0  0  0  0  0  0
   11.8321   -9.8049   -7.1826 N   0  0  0  0  0  0  0  0  0  0  0  0
   11.9739  -10.1366   -8.5715 C   0  0  0  0  0  0  0  0  0  0  0  0
   11.2786  -11.1134   -9.0059 N   0  0  0  0  0  0  0  0  0  0  0  0
   12.8414   -9.4214   -9.4293 N   0  0  0  0  0  0  0  0  0  0  0  0
   13.6535   -8.3379   -8.9261 C   0  0  0  0  0  0  0  0  0  0  0  0
   14.4128   -7.6430  -10.0664 C   0  0  0  0  0  0  0  0  0  0  0  0
   15.2746   -6.5882   -9.4440 C   0  0  0  0  0  0  0  0  0  0  0  0
   16.0988   -5.8123  -10.4384 C   0  0  2  0  0  0  0  0  0  0  0  0
   17.0222   -6.7712  -11.0579 N   0  0  0  0  0  0  0  0  0  0  0  0
   16.8105   -4.6620   -9.8816 C   0  0  0  0  0  0  0  0  0  0  0  0
   16.1950   -3.6705   -9.4355 O   0  0  0  0  0  0  0  0  0  0  0  0
   18.1941   -4.6422   -9.8348 O   0  0  0  0  0  0  0  0  0  0  0  0
  2  1  1  0
  3  2  1  0
  4  3  2  0
  5  3  1  0
  6  7  1  6
  6  5  1  0
  8 12  1  0
  8  7  1  0
  9  8  2  0
 10 11  2  0
 10  6  1  0
 14 13  1  0
 14 16  1  0
 15 14  2  0
 17 16  1  0
 18 17  1  0
 19 18  1  0
 20 21  1  0
 20 19  1  1
 21 10  1  0
 22 20  1  0
 23 22  2  0
 24 22  1  0
M  END
$$$$
