GDR.pdb
     RDKit          3D

 24 23  0  0  1  0  0  0  0  0999 V2000
   18.1999   -9.0791  -16.8050 N   0  0  0  0  0  0  0  0  0  0  0  0
   19.1896  -10.1009  -16.5690 C   0  0  0  0  0  0  0  0  0  0  0  0
   18.7102  -11.4348  -17.0779 C   0  0  0  0  0  0  0  0  0  0  0  0
   17.5181  -11.5922  -17.4468 O   0  0  0  0  0  0  0  0  0  0  0  0
   19.5707  -12.5506  -17.1599 N   0  0  0  0  0  0  0  0  0  0  0  0
   19.0514  -13.8334  -17.6472 C   0  0  1  0  0  0  0  0  0  0  0  0
   20.1165  -14.6222  -18.3147 C   0  0  0  0  0  0  0  0  0  0  0  0
   19.6031  -15.8496  -18.9083 C   0  0  0  0  0  0  0  0  0  0  0  0
   18.4880  -15.9429  -19.4389 O   0  0  0  0  0  0  0  0  0  0  0  0
   18.4412  -14.5565  -16.4747 C   0  0  0  0  0  0  0  0  0  0  0  0
   18.8876  -14.5704  -15.3224 O   0  0  0  0  0  0  0  0  0  0  0  0
   20.4068  -16.9963  -18.8842 O   0  0  0  0  0  0  0  0  0  0  0  0
   10.6720  -18.5941  -16.3986 N   0  0  0  0  0  0  0  0  0  0  0  0
   10.9124  -18.2995  -15.0150 C   0  0  0  0  0  0  0  0  0  0  0  0
   10.0945  -18.7914  -14.1691 N   0  0  0  0  0  0  0  0  0  0  0  0
   12.0022  -17.5018  -14.5958 N   0  0  0  0  0  0  0  0  0  0  0  0
   12.9134  -16.9272  -15.5583 C   0  0  0  0  0  0  0  0  0  0  0  0
   14.1014  -16.2515  -14.8571 C   0  0  0  0  0  0  0  0  0  0  0  0
   15.0246  -15.7599  -15.9289 C   0  0  0  0  0  0  0  0  0  0  0  0
   16.4848  -15.9089  -15.5883 C   0  0  2  0  0  0  0  0  0  0  0  0
   17.2379  -15.2990  -16.6913 N   0  0  0  0  0  0  0  0  0  0  0  0
   16.9192  -17.2824  -15.3341 C   0  0  0  0  0  0  0  0  0  0  0  0
   17.3451  -18.0105  -16.2558 O   0  0  0  0  0  0  0  0  0  0  0  0
   16.8690  -17.8144  -14.0569 O   0  0  0  0  0  0  0  0  0  0  0  0
  2  1  1  0
  3  2  1  0
  4  3  2  0
  5  3  1  0
  6  7  1  1
  6  5  1  0
  8 12  1  0
  8  7  1  0
  9  8  2  0
 10 11  2  0
 10  6  1  0
 14 13  1  0
 14 16  1  0
 15 14  2  0
 17 16  1  0
 18 17  1  0
 19 18  1  0
 20 21  1  0
 20 19  1  6
 21 10  1  0
 22 20  1  0
 23 22  2  0
 24 22  1  0
M  END
$$$$
