GDR.pdb
     RDKit          3D

 24 23  0  0  1  0  0  0  0  0999 V2000
   26.0428  -32.7494  -19.3459 N   0  0  0  0  0  0  0  0  0  0  0  0
   24.7179  -33.2969  -19.1902 C   0  0  0  0  0  0  0  0  0  0  0  0
   23.9773  -32.5935  -18.0834 C   0  0  0  0  0  0  0  0  0  0  0  0
   24.5017  -31.6289  -17.4698 O   0  0  0  0  0  0  0  0  0  0  0  0
   22.6784  -32.9851  -17.6941 N   0  0  0  0  0  0  0  0  0  0  0  0
   22.0236  -32.3097  -16.5680 C   0  0  1  0  0  0  0  0  0  0  0  0
   20.7303  -31.7115  -16.9825 C   0  0  0  0  0  0  0  0  0  0  0  0
   20.1041  -30.9538  -15.9072 C   0  0  0  0  0  0  0  0  0  0  0  0
   20.5731  -30.8654  -14.7645 O   0  0  0  0  0  0  0  0  0  0  0  0
   21.8691  -33.3154  -15.4569 C   0  0  0  0  0  0  0  0  0  0  0  0
   21.4692  -34.4777  -15.5847 O   0  0  0  0  0  0  0  0  0  0  0  0
   18.9031  -30.2823  -16.1681 O   0  0  0  0  0  0  0  0  0  0  0  0
   26.0688  -32.8515   -8.1550 N   0  0  0  0  0  0  0  0  0  0  0  0
   24.9805  -31.9479   -8.3962 C   0  0  0  0  0  0  0  0  0  0  0  0
   25.0457  -30.8031   -7.8380 N   0  0  0  0  0  0  0  0  0  0  0  0
   23.8806  -32.2987   -9.2129 N   0  0  0  0  0  0  0  0  0  0  0  0
   23.7303  -33.6447   -9.7154 C   0  0  0  0  0  0  0  0  0  0  0  0
   22.4091  -33.8017  -10.4831 C   0  0  0  0  0  0  0  0  0  0  0  0
   22.5558  -33.0527  -11.7715 C   0  0  0  0  0  0  0  0  0  0  0  0
   21.9922  -33.7799  -12.9646 C   0  0  2  0  0  0  0  0  0  0  0  0
   22.2100  -32.9108  -14.1279 N   0  0  0  0  0  0  0  0  0  0  0  0
   20.5880  -34.1701  -12.8392 C   0  0  0  0  0  0  0  0  0  0  0  0
   19.6684  -33.3305  -12.9414 O   0  0  0  0  0  0  0  0  0  0  0  0
   20.2396  -35.4889  -12.6021 O   0  0  0  0  0  0  0  0  0  0  0  0
  2  1  1  0
  3  2  1  0
  4  3  2  0
  5  3  1  0
  6  7  1  6
  6  5  1  0
  8 12  1  0
  8  7  1  0
  9  8  2  0
 10 11  2  0
 10  6  1  0
 14 13  1  0
 14 16  1  0
 15 14  2  0
 17 16  1  0
 18 17  1  0
 19 18  1  0
 20 21  1  0
 20 19  1  1
 21 10  1  0
 22 20  1  0
 23 22  2  0
 24 22  1  0
M  END
$$$$
