GDR.pdb
     RDKit          3D

 24 23  0  0  1  0  0  0  0  0999 V2000
   28.8449  -22.7934  -16.5383 N   0  0  0  0  0  0  0  0  0  0  0  0
   28.3406  -21.6248  -15.8605 C   0  0  0  0  0  0  0  0  0  0  0  0
   27.1614  -21.9792  -14.9932 C   0  0  0  0  0  0  0  0  0  0  0  0
   26.6461  -23.1255  -15.0447 O   0  0  0  0  0  0  0  0  0  0  0  0
   26.5927  -21.0483  -14.0976 N   0  0  0  0  0  0  0  0  0  0  0  0
   25.5482  -21.4843  -13.1639 C   0  0  1  0  0  0  0  0  0  0  0  0
   25.7180  -20.8450  -11.8355 C   0  0  0  0  0  0  0  0  0  0  0  0
   24.7302  -21.3090  -10.8704 C   0  0  0  0  0  0  0  0  0  0  0  0
   23.8790  -22.1735  -11.1191 O   0  0  0  0  0  0  0  0  0  0  0  0
   24.2138  -21.1748  -13.7913 C   0  0  0  0  0  0  0  0  0  0  0  0
   23.8827  -20.0929  -14.2887 O   0  0  0  0  0  0  0  0  0  0  0  0
   24.7330  -20.7538   -9.5848 O   0  0  0  0  0  0  0  0  0  0  0  0
   18.3667  -27.4663  -16.0697 N   0  0  0  0  0  0  0  0  0  0  0  0
   17.7165  -26.2374  -16.4246 C   0  0  0  0  0  0  0  0  0  0  0  0
   16.5756  -26.3291  -16.9869 N   0  0  0  0  0  0  0  0  0  0  0  0
   18.3033  -24.9765  -16.1684 N   0  0  0  0  0  0  0  0  0  0  0  0
   19.6046  -24.8769  -15.5492 C   0  0  0  0  0  0  0  0  0  0  0  0
   20.0102  -23.4084  -15.3525 C   0  0  0  0  0  0  0  0  0  0  0  0
   21.3506  -23.4066  -14.6847 C   0  0  0  0  0  0  0  0  0  0  0  0
   21.9244  -22.0290  -14.4776 C   0  0  2  0  0  0  0  0  0  0  0  0
   23.2275  -22.2101  -13.8256 N   0  0  0  0  0  0  0  0  0  0  0  0
   21.0676  -21.1137  -13.7238 C   0  0  0  0  0  0  0  0  0  0  0  0
   21.1619  -21.0089  -12.4823 O   0  0  0  0  0  0  0  0  0  0  0  0
   20.1236  -20.3350  -14.3712 O   0  0  0  0  0  0  0  0  0  0  0  0
  2  1  1  0
  3  2  1  0
  4  3  2  0
  5  3  1  0
  6  7  1  1
  6  5  1  0
  8 12  1  0
  8  7  1  0
  9  8  2  0
 10 11  2  0
 10  6  1  0
 14 13  1  0
 14 16  1  0
 15 14  2  0
 17 16  1  0
 18 17  1  0
 19 18  1  0
 20 21  1  0
 20 19  1  1
 21 10  1  0
 22 20  1  0
 23 22  2  0
 24 22  1  0
M  END
$$$$
