GDR.pdb
     RDKit          3D

 24 23  0  0  1  0  0  0  0  0999 V2000
   17.1178  -10.1172  -15.5300 N   0  0  0  0  0  0  0  0  0  0  0  0
   18.5485   -9.9922  -15.6596 C   0  0  0  0  0  0  0  0  0  0  0  0
   19.1285   -9.2588  -14.4789 C   0  0  0  0  0  0  0  0  0  0  0  0
   19.1899   -9.8063  -13.3482 O   0  0  0  0  0  0  0  0  0  0  0  0
   19.6207   -7.9409  -14.5929 N   0  0  0  0  0  0  0  0  0  0  0  0
   20.1339   -7.2524  -13.4031 C   0  0  1  0  0  0  0  0  0  0  0  0
   21.2061   -6.2916  -13.7626 C   0  0  0  0  0  0  0  0  0  0  0  0
   21.7420   -5.6023  -12.5963 C   0  0  0  0  0  0  0  0  0  0  0  0
   21.4081   -5.8595  -11.4318 O   0  0  0  0  0  0  0  0  0  0  0  0
   18.9671   -6.5910  -12.7168 C   0  0  0  0  0  0  0  0  0  0  0  0
   18.2083   -5.7576  -13.2237 O   0  0  0  0  0  0  0  0  0  0  0  0
   22.6895   -4.5893  -12.7897 O   0  0  0  0  0  0  0  0  0  0  0  0
   12.5744  -10.4764   -8.8396 N   0  0  0  0  0  0  0  0  0  0  0  0
   12.2991   -9.0924   -8.5790 C   0  0  0  0  0  0  0  0  0  0  0  0
   11.1423   -8.8096   -8.1226 N   0  0  0  0  0  0  0  0  0  0  0  0
   13.2575   -8.0794   -8.8136 N   0  0  0  0  0  0  0  0  0  0  0  0
   14.5428   -8.3951   -9.3922 C   0  0  0  0  0  0  0  0  0  0  0  0
   15.3863   -7.1260   -9.5863 C   0  0  0  0  0  0  0  0  0  0  0  0
   16.6323   -7.5311  -10.3116 C   0  0  0  0  0  0  0  0  0  0  0  0
   17.5591   -6.3826  -10.6153 C   0  0  2  0  0  0  0  0  0  0  0  0
   18.6947   -6.9441  -11.3577 N   0  0  0  0  0  0  0  0  0  0  0  0
   18.0023   -5.6249   -9.4451 C   0  0  0  0  0  0  0  0  0  0  0  0
   19.1388   -5.7930   -8.9542 O   0  0  0  0  0  0  0  0  0  0  0  0
   17.1678   -4.6960   -8.8473 O   0  0  0  0  0  0  0  0  0  0  0  0
  2  1  1  0
  3  2  1  0
  4  3  2  0
  5  3  1  0
  6  7  1  6
  6  5  1  0
  8 12  1  0
  8  7  1  0
  9  8  2  0
 10 11  2  0
 10  6  1  0
 14 13  1  0
 14 16  1  0
 15 14  2  0
 17 16  1  0
 18 17  1  0
 19 18  1  0
 20 21  1  0
 20 19  1  1
 21 10  1  0
 22 20  1  0
 23 22  2  0
 24 22  1  0
M  END
$$$$
