GDR.pdb
     RDKit          3D

 24 23  0  0  1  0  0  0  0  0999 V2000
   21.8188  -12.1431  -16.8164 N   0  0  0  0  0  0  0  0  0  0  0  0
   20.7135  -11.3715  -17.3285 C   0  0  0  0  0  0  0  0  0  0  0  0
   20.4066  -10.2114  -16.4185 C   0  0  0  0  0  0  0  0  0  0  0  0
   19.3604  -10.2002  -15.7204 O   0  0  0  0  0  0  0  0  0  0  0  0
   21.2718   -9.1011  -16.3143 N   0  0  0  0  0  0  0  0  0  0  0  0
   20.9126   -7.9808  -15.4376 C   0  0  1  0  0  0  0  0  0  0  0  0
   22.1187   -7.3827  -14.8132 C   0  0  0  0  0  0  0  0  0  0  0  0
   21.8046   -6.1871  -14.0422 C   0  0  0  0  0  0  0  0  0  0  0  0
   21.2320   -5.1954  -14.5138 O   0  0  0  0  0  0  0  0  0  0  0  0
   20.1305   -6.9885  -16.2583 C   0  0  0  0  0  0  0  0  0  0  0  0
   20.4804   -6.5138  -17.3444 O   0  0  0  0  0  0  0  0  0  0  0  0
   22.1653   -6.1445  -12.6897 O   0  0  0  0  0  0  0  0  0  0  0  0
   11.4589   -5.4692  -15.2318 N   0  0  0  0  0  0  0  0  0  0  0  0
   11.8771   -4.4707  -16.1737 C   0  0  0  0  0  0  0  0  0  0  0  0
   10.9701   -3.7133  -16.6535 N   0  0  0  0  0  0  0  0  0  0  0  0
   13.2293   -4.3232  -16.5605 N   0  0  0  0  0  0  0  0  0  0  0  0
   14.2487   -5.2058  -16.0421 C   0  0  0  0  0  0  0  0  0  0  0  0
   15.6166   -4.8954  -16.6686 C   0  0  0  0  0  0  0  0  0  0  0  0
   16.6136   -5.8097  -16.0261 C   0  0  0  0  0  0  0  0  0  0  0  0
   18.0310   -5.5799  -16.4826 C   0  0  2  0  0  0  0  0  0  0  0  0
   18.8679   -6.5424  -15.7553 N   0  0  0  0  0  0  0  0  0  0  0  0
   18.5159   -4.2100  -16.3151 C   0  0  0  0  0  0  0  0  0  0  0  0
   19.0889   -3.8471  -15.2659 O   0  0  0  0  0  0  0  0  0  0  0  0
   18.3508   -3.2741  -17.3218 O   0  0  0  0  0  0  0  0  0  0  0  0
  2  1  1  0
  3  2  1  0
  4  3  2  0
  5  3  1  0
  6  7  1  6
  6  5  1  0
  8 12  1  0
  8  7  1  0
  9  8  2  0
 10 11  2  0
 10  6  1  0
 14 13  1  0
 14 16  1  0
 15 14  2  0
 17 16  1  0
 18 17  1  0
 19 18  1  0
 20 21  1  0
 20 19  1  1
 21 10  1  0
 22 20  1  0
 23 22  2  0
 24 22  1  0
M  END
$$$$
