GDR.pdb
     RDKit          3D

 24 23  0  0  1  0  0  0  0  0999 V2000
   18.8812  -18.4082  -15.8915 N   0  0  0  0  0  0  0  0  0  0  0  0
   19.5733  -18.0526  -14.6775 C   0  0  0  0  0  0  0  0  0  0  0  0
   20.3136  -19.2392  -14.1190 C   0  0  0  0  0  0  0  0  0  0  0  0
   19.6917  -20.1907  -13.5807 O   0  0  0  0  0  0  0  0  0  0  0  0
   21.7210  -19.3297  -14.1762 N   0  0  0  0  0  0  0  0  0  0  0  0
   22.3799  -20.6020  -13.8602 C   0  0  1  0  0  0  0  0  0  0  0  0
   21.9261  -21.6801  -14.7734 C   0  0  0  0  0  0  0  0  0  0  0  0
   22.6751  -22.9151  -14.5831 C   0  0  0  0  0  0  0  0  0  0  0  0
   22.4331  -23.7350  -13.6869 O   0  0  0  0  0  0  0  0  0  0  0  0
   23.8681  -20.3759  -13.9226 C   0  0  0  0  0  0  0  0  0  0  0  0
   24.4642  -19.7225  -14.7858 O   0  0  0  0  0  0  0  0  0  0  0  0
   23.7310  -23.2033  -15.4567 O   0  0  0  0  0  0  0  0  0  0  0  0
   30.9894  -23.3204   -9.4289 N   0  0  0  0  0  0  0  0  0  0  0  0
   30.6818  -21.9744   -9.0384 C   0  0  0  0  0  0  0  0  0  0  0  0
   31.5757  -21.3448   -8.3819 N   0  0  0  0  0  0  0  0  0  0  0  0
   29.4481  -21.3628   -9.3602 N   0  0  0  0  0  0  0  0  0  0  0  0
   28.4332  -22.0829  -10.0939 C   0  0  0  0  0  0  0  0  0  0  0  0
   28.1107  -21.3808  -11.4216 C   0  0  0  0  0  0  0  0  0  0  0  0
   26.6278  -21.4617  -11.6145 C   0  0  0  0  0  0  0  0  0  0  0  0
   26.1417  -20.7930  -12.8741 C   0  0  2  0  0  0  0  0  0  0  0  0
   24.6831  -20.9597  -12.9023 N   0  0  0  0  0  0  0  0  0  0  0  0
   26.7632  -21.2781  -14.1063 C   0  0  0  0  0  0  0  0  0  0  0  0
   26.3341  -22.2933  -14.6947 O   0  0  0  0  0  0  0  0  0  0  0  0
   27.8505  -20.6202  -14.6556 O   0  0  0  0  0  0  0  0  0  0  0  0
  2  1  1  0
  3  2  1  0
  4  3  2  0
  5  3  1  0
  6  7  1  6
  6  5  1  0
  8 12  1  0
  8  7  1  0
  9  8  2  0
 10 11  2  0
 10  6  1  0
 14 13  1  0
 14 16  1  0
 15 14  2  0
 17 16  1  0
 18 17  1  0
 19 18  1  0
 20 21  1  0
 20 19  1  1
 21 10  1  0
 22 20  1  0
 23 22  2  0
 24 22  1  0
M  END
$$$$
