GDR.pdb
     RDKit          3D

 24 23  0  0  1  0  0  0  0  0999 V2000
   24.4599  -14.1983  -18.7443 N   0  0  0  0  0  0  0  0  0  0  0  0
   24.4159  -12.7691  -18.5578 C   0  0  0  0  0  0  0  0  0  0  0  0
   25.6155  -12.1122  -19.1884 C   0  0  0  0  0  0  0  0  0  0  0  0
   26.5330  -12.8037  -19.7004 O   0  0  0  0  0  0  0  0  0  0  0  0
   25.7568  -10.7085  -19.2292 N   0  0  0  0  0  0  0  0  0  0  0  0
   26.9287  -10.1157  -19.8836 C   0  0  1  0  0  0  0  0  0  0  0  0
   26.5471   -8.9321  -20.6932 C   0  0  0  0  0  0  0  0  0  0  0  0
   27.6789   -8.3749  -21.4219 C   0  0  0  0  0  0  0  0  0  0  0  0
   28.6543   -9.0421  -21.7921 O   0  0  0  0  0  0  0  0  0  0  0  0
   27.9351   -9.7866  -18.8118 C   0  0  0  0  0  0  0  0  0  0  0  0
   27.6903   -9.2239  -17.7390 O   0  0  0  0  0  0  0  0  0  0  0  0
   27.6755   -7.0082  -21.7276 O   0  0  0  0  0  0  0  0  0  0  0  0
   36.1118  -13.2136  -18.5733 N   0  0  0  0  0  0  0  0  0  0  0  0
   36.0970  -12.2844  -17.4800 C   0  0  0  0  0  0  0  0  0  0  0  0
   37.1194  -12.2729  -16.7177 N   0  0  0  0  0  0  0  0  0  0  0  0
   35.0051  -11.4163  -17.2475 N   0  0  0  0  0  0  0  0  0  0  0  0
   33.8551  -11.4217  -18.1217 C   0  0  0  0  0  0  0  0  0  0  0  0
   32.7469  -10.5063  -17.5797 C   0  0  0  0  0  0  0  0  0  0  0  0
   31.5733  -10.6421  -18.5000 C   0  0  0  0  0  0  0  0  0  0  0  0
   30.3513   -9.8895  -18.0412 C   0  0  2  0  0  0  0  0  0  0  0  0
   29.3010  -10.1484  -19.0341 N   0  0  0  0  0  0  0  0  0  0  0  0
   30.5547   -8.4558  -17.8338 C   0  0  0  0  0  0  0  0  0  0  0  0
   30.3638   -7.6323  -18.7538 O   0  0  0  0  0  0  0  0  0  0  0  0
   30.9673   -7.9714  -16.6041 O   0  0  0  0  0  0  0  0  0  0  0  0
  2  1  1  0
  3  2  1  0
  4  3  2  0
  5  3  1  0
  6  7  1  1
  6  5  1  0
  8 12  1  0
  8  7  1  0
  9  8  2  0
 10 11  2  0
 10  6  1  0
 14 13  1  0
 14 16  1  0
 15 14  2  0
 17 16  1  0
 18 17  1  0
 19 18  1  0
 20 21  1  0
 20 19  1  6
 21 10  1  0
 22 20  1  0
 23 22  2  0
 24 22  1  0
M  END
$$$$
