ICF.pdb
     RDKit          3D

 26 26  0  0  1  0  0  0  0  0999 V2000
   25.7215   -6.4817  -23.9446 C   0  0  0  0  0  0  0  0  0  0  0  0
   24.3934   -6.5511  -23.2699 C   0  0  0  0  0  0  0  0  0  0  0  0
   24.4078   -6.2327  -21.8116 C   0  0  2  0  0  0  0  0  0  0  0  0
   25.2413   -7.1511  -20.9816 C   0  0  0  0  0  0  0  0  0  0  0  0
   23.0032   -6.1346  -21.2310 C   0  0  2  0  0  0  0  0  0  0  0  0
   22.3925   -4.9424  -21.7901 N   0  0  0  0  0  0  0  0  0  0  0  0
   23.0795   -5.9368  -19.7403 C   0  0  0  0  0  0  0  0  0  0  0  0
   23.6575   -6.7694  -18.9926 O   0  0  0  0  0  0  0  0  0  0  0  0
   22.5007   -4.7995  -19.1154 N   0  0  0  0  0  0  0  0  0  0  0  0
   22.4911   -4.5726  -17.7005 C   0  0  1  0  0  0  0  0  0  0  0  0
   22.3074   -3.1087  -17.3515 C   0  0  0  0  0  0  0  0  0  0  0  0
   20.6136   -2.5862  -17.7117 S   0  0  0  0  0  0  0  0  0  0  0  0
   21.5052   -5.3937  -16.9797 C   0  0  0  0  0  0  0  0  0  0  0  0
   20.5027   -5.8207  -17.5951 O   0  0  0  0  0  0  0  0  0  0  0  0
   21.6352   -5.7283  -15.6119 N   0  0  0  0  0  0  0  0  0  0  0  0
   20.6425   -6.4993  -14.9333 C   0  0  1  0  0  0  0  0  0  0  0  0
   21.3074   -7.4916  -13.9899 C   0  0  0  0  0  0  0  0  0  0  0  0
   20.3154   -8.3286  -13.2875 C   0  0  0  0  0  0  0  0  0  0  0  0
   19.8683   -7.9577  -12.0345 C   0  0  0  0  0  0  0  0  0  0  0  0
   18.9402   -8.7051  -11.3331 C   0  0  0  0  0  0  0  0  0  0  0  0
   18.4675   -9.8496  -11.9320 C   0  0  0  0  0  0  0  0  0  0  0  0
   18.9146  -10.2240  -13.1892 C   0  0  0  0  0  0  0  0  0  0  0  0
   19.8405   -9.4768  -13.8871 C   0  0  0  0  0  0  0  0  0  0  0  0
   19.6115   -5.7045  -14.2692 C   0  0  0  0  0  0  0  0  0  0  0  0
   18.3026   -6.1322  -14.1407 O   0  0  0  0  0  0  0  0  0  0  0  0
   19.9088   -4.5857  -13.7903 O   0  0  0  0  0  0  0  0  0  0  0  0
  2  1  1  0
  3  2  1  0
  3  4  1  1
  5  6  1  6
  5  3  1  0
  7  5  1  0
  8  7  2  0
  9  7  1  0
 10 11  1  6
 10  9  1  0
 11 12  1  0
 13 14  2  0
 13 10  1  0
 15 13  1  0
 16 15  1  0
 17 18  1  0
 16 17  1  1
 18 19  2  0
 19 20  1  0
 21 20  2  0
 22 21  1  0
 23 18  1  0
 23 22  2  0
 24 16  1  0
 24 25  1  0
 26 24  2  0
M  END
$$$$
