ICF.pdb
     RDKit          3D

 26 26  0  0  1  0  0  0  0  0999 V2000
   26.1249  -25.9419  -16.7278 C   0  0  0  0  0  0  0  0  0  0  0  0
   25.1177  -24.8431  -16.6808 C   0  0  0  0  0  0  0  0  0  0  0  0
   25.4145  -23.7548  -15.7031 C   0  0  2  0  0  0  0  0  0  0  0  0
   25.6576  -24.2213  -14.3065 C   0  0  0  0  0  0  0  0  0  0  0  0
   24.3480  -22.6677  -15.7122 C   0  0  2  0  0  0  0  0  0  0  0  0
   24.4549  -21.9753  -16.9834 N   0  0  0  0  0  0  0  0  0  0  0  0
   24.6372  -21.6595  -14.6319 C   0  0  0  0  0  0  0  0  0  0  0  0
   25.5733  -20.8239  -14.7423 O   0  0  0  0  0  0  0  0  0  0  0  0
   23.8636  -21.6101  -13.4412 N   0  0  0  0  0  0  0  0  0  0  0  0
   23.9859  -20.5920  -12.4401 C   0  0  1  0  0  0  0  0  0  0  0  0
   22.6398  -20.0567  -11.9930 C   0  0  0  0  0  0  0  0  0  0  0  0
   22.8257  -19.0708  -10.4879 S   0  0  0  0  0  0  0  0  0  0  0  0
   24.7799  -21.0075  -11.2727 C   0  0  0  0  0  0  0  0  0  0  0  0
   24.5905  -22.1425  -10.7807 O   0  0  0  0  0  0  0  0  0  0  0  0
   25.7568  -20.1798  -10.6724 N   0  0  0  0  0  0  0  0  0  0  0  0
   26.2786  -20.4610   -9.3728 C   0  0  1  0  0  0  0  0  0  0  0  0
   27.3565  -19.4483   -9.0130 C   0  0  0  0  0  0  0  0  0  0  0  0
   27.8768  -19.6636   -7.6488 C   0  0  0  0  0  0  0  0  0  0  0  0
   28.8978  -20.5695   -7.4385 C   0  0  0  0  0  0  0  0  0  0  0  0
   29.4219  -20.8093   -6.1817 C   0  0  0  0  0  0  0  0  0  0  0  0
   28.8858  -20.1054   -5.1284 C   0  0  0  0  0  0  0  0  0  0  0  0
   27.8612  -19.1958   -5.3368 C   0  0  0  0  0  0  0  0  0  0  0  0
   27.3399  -18.9583   -6.5916 C   0  0  0  0  0  0  0  0  0  0  0  0
   25.2628  -20.5876   -8.3297 C   0  0  0  0  0  0  0  0  0  0  0  0
   25.3457  -21.5210   -7.3126 O   0  0  0  0  0  0  0  0  0  0  0  0
   24.2681  -19.8260   -8.3424 O   0  0  0  0  0  0  0  0  0  0  0  0
  2  1  1  0
  3  2  1  0
  3  4  1  1
  5  6  1  6
  5  3  1  0
  7  5  1  0
  8  7  2  0
  9  7  1  0
 10 11  1  1
 10  9  1  0
 11 12  1  0
 13 14  2  0
 13 10  1  0
 15 13  1  0
 16 15  1  0
 17 18  1  0
 16 17  1  1
 18 19  2  0
 19 20  1  0
 21 20  2  0
 22 21  1  0
 23 18  1  0
 23 22  2  0
 24 16  1  0
 24 25  1  0
 26 24  2  0
M  END
$$$$
