ICF.pdb
     RDKit          3D

 26 26  0  0  1  0  0  0  0  0999 V2000
   17.1118  -10.6140  -15.7115 C   0  0  0  0  0  0  0  0  0  0  0  0
   17.6856  -10.0406  -14.4602 C   0  0  0  0  0  0  0  0  0  0  0  0
   16.8548   -8.9847  -13.8096 C   0  0  2  0  0  0  0  0  0  0  0  0
   16.4837   -7.8467  -14.7010 C   0  0  0  0  0  0  0  0  0  0  0  0
   17.4922   -8.4592  -12.5302 C   0  0  2  0  0  0  0  0  0  0  0  0
   17.6884   -9.5981  -11.6520 N   0  0  0  0  0  0  0  0  0  0  0  0
   16.5421   -7.5208  -11.8344 C   0  0  0  0  0  0  0  0  0  0  0  0
   16.2025   -6.4230  -12.3502 O   0  0  0  0  0  0  0  0  0  0  0  0
   15.9890   -7.8371  -10.5645 N   0  0  0  0  0  0  0  0  0  0  0  0
   15.1594   -6.9519   -9.8016 C   0  0  1  0  0  0  0  0  0  0  0  0
   14.1863   -7.6975   -8.9096 C   0  0  0  0  0  0  0  0  0  0  0  0
   15.0326   -9.0422   -8.0450 S   0  0  0  0  0  0  0  0  0  0  0  0
   15.9183   -5.9676   -9.0136 C   0  0  0  0  0  0  0  0  0  0  0  0
   16.9527   -6.3359   -8.4134 O   0  0  0  0  0  0  0  0  0  0  0  0
   15.5332   -4.6117   -8.8993 N   0  0  0  0  0  0  0  0  0  0  0  0
   16.3277   -3.6670   -8.1806 C   0  0  1  0  0  0  0  0  0  0  0  0
   17.7568   -3.6816   -8.7044 C   0  0  0  0  0  0  0  0  0  0  0  0
   17.9424   -2.7291   -9.8163 C   0  0  0  0  0  0  0  0  0  0  0  0
   18.1545   -1.3914   -9.5462 C   0  0  0  0  0  0  0  0  0  0  0  0
   18.3342   -0.4573  -10.5497 C   0  0  0  0  0  0  0  0  0  0  0  0
   18.2946   -0.9092  -11.8484 C   0  0  0  0  0  0  0  0  0  0  0  0
   18.0819   -2.2510  -12.1221 C   0  0  0  0  0  0  0  0  0  0  0  0
   17.9029   -3.1810  -11.1192 C   0  0  0  0  0  0  0  0  0  0  0  0
   15.7658   -2.3187   -8.1331 C   0  0  0  0  0  0  0  0  0  0  0  0
   14.7437   -1.9032   -8.9669 O   0  0  0  0  0  0  0  0  0  0  0  0
   16.2176   -1.4915   -7.3078 O   0  0  0  0  0  0  0  0  0  0  0  0
  2  1  1  0
  3  2  1  0
  3  4  1  6
  5  6  1  1
  5  3  1  0
  7  5  1  0
  8  7  2  0
  9  7  1  0
 10 11  1  1
 10  9  1  0
 11 12  1  0
 13 14  2  0
 13 10  1  0
 15 13  1  0
 16 15  1  0
 17 18  1  0
 16 17  1  6
 18 19  2  0
 19 20  1  0
 21 20  2  0
 22 21  1  0
 23 18  1  0
 23 22  2  0
 24 16  1  0
 24 25  1  0
 26 24  2  0
M  END
$$$$
