ICF.pdb
     RDKit          3D

 26 26  0  0  1  0  0  0  0  0999 V2000
   25.7690  -14.4583  -16.1178 C   0  0  0  0  0  0  0  0  0  0  0  0
   26.6446  -15.6485  -16.3194 C   0  0  0  0  0  0  0  0  0  0  0  0
   26.3603  -16.8027  -15.4163 C   0  0  2  0  0  0  0  0  0  0  0  0
   26.4536  -16.4917  -13.9597 C   0  0  0  0  0  0  0  0  0  0  0  0
   27.2193  -18.0161  -15.7470 C   0  0  2  0  0  0  0  0  0  0  0  0
   27.0135  -18.3145  -17.1525 N   0  0  0  0  0  0  0  0  0  0  0  0
   26.7394  -19.2099  -14.9648 C   0  0  0  0  0  0  0  0  0  0  0  0
   25.6351  -19.7620  -15.2143 O   0  0  0  0  0  0  0  0  0  0  0  0
   27.5153  -19.7631  -13.9110 N   0  0  0  0  0  0  0  0  0  0  0  0
   27.1591  -20.9421  -13.1785 C   0  0  1  0  0  0  0  0  0  0  0  0
   28.1151  -22.0910  -13.4326 C   0  0  0  0  0  0  0  0  0  0  0  0
   29.8260  -21.5384  -13.2337 S   0  0  0  0  0  0  0  0  0  0  0  0
   27.0128  -20.7141  -11.7320 C   0  0  0  0  0  0  0  0  0  0  0  0
   28.0268  -20.7729  -11.0011 O   0  0  0  0  0  0  0  0  0  0  0  0
   25.7703  -20.4288  -11.1197 N   0  0  0  0  0  0  0  0  0  0  0  0
   25.5765  -20.5859   -9.7133 C   0  0  1  0  0  0  0  0  0  0  0  0
   25.9272  -19.2929   -8.9907 C   0  0  0  0  0  0  0  0  0  0  0  0
   26.9144  -19.5162   -7.9166 C   0  0  0  0  0  0  0  0  0  0  0  0
   26.5302  -20.1516   -6.7522 C   0  0  0  0  0  0  0  0  0  0  0  0
   27.4144  -20.3859   -5.7153 C   0  0  0  0  0  0  0  0  0  0  0  0
   28.7114  -19.9591   -5.8819 C   0  0  0  0  0  0  0  0  0  0  0  0
   29.0995  -19.3213   -7.0495 C   0  0  0  0  0  0  0  0  0  0  0  0
   28.2156  -19.0887   -8.0826 C   0  0  0  0  0  0  0  0  0  0  0  0
   24.2579  -21.0929   -9.3392 C   0  0  0  0  0  0  0  0  0  0  0  0
   23.9191  -21.4103   -8.0365 O   0  0  0  0  0  0  0  0  0  0  0  0
   23.3854  -21.2529  -10.2239 O   0  0  0  0  0  0  0  0  0  0  0  0
  2  1  1  0
  3  2  1  0
  3  4  1  1
  5  6  1  6
  5  3  1  0
  7  5  1  0
  8  7  2  0
  9  7  1  0
 10 11  1  1
 10  9  1  0
 11 12  1  0
 13 14  2  0
 13 10  1  0
 15 13  1  0
 16 15  1  0
 17 18  1  0
 16 17  1  1
 18 19  2  0
 19 20  1  0
 21 20  2  0
 22 21  1  0
 23 18  1  0
 23 22  2  0
 24 16  1  0
 24 25  1  0
 26 24  2  0
M  END
$$$$
