ICF.pdb
     RDKit          3D

 26 26  0  0  1  0  0  0  0  0999 V2000
   25.7475  -14.0846  -16.3868 C   0  0  0  0  0  0  0  0  0  0  0  0
   24.2719  -13.9761  -16.2012 C   0  0  0  0  0  0  0  0  0  0  0  0
   23.6932  -12.6342  -16.5061 C   0  0  2  0  0  0  0  0  0  0  0  0
   24.2701  -11.5115  -15.7099 C   0  0  0  0  0  0  0  0  0  0  0  0
   22.1742  -12.6252  -16.3967 C   0  0  2  0  0  0  0  0  0  0  0  0
   21.6756  -13.6536  -17.2913 N   0  0  0  0  0  0  0  0  0  0  0  0
   21.6346  -11.3086  -16.8893 C   0  0  0  0  0  0  0  0  0  0  0  0
   21.2588  -11.1537  -18.0814 O   0  0  0  0  0  0  0  0  0  0  0  0
   21.5274  -10.1849  -16.0265 N   0  0  0  0  0  0  0  0  0  0  0  0
   20.8985   -8.9481  -16.3851 C   0  0  1  0  0  0  0  0  0  0  0  0
   19.4724   -9.1421  -16.8617 C   0  0  0  0  0  0  0  0  0  0  0  0
   18.4847   -9.9420  -15.5746 S   0  0  0  0  0  0  0  0  0  0  0  0
   20.9440   -7.9343  -15.3193 C   0  0  0  0  0  0  0  0  0  0  0  0
   20.5835   -8.2502  -14.1633 O   0  0  0  0  0  0  0  0  0  0  0  0
   21.3793   -6.6067  -15.5381 N   0  0  0  0  0  0  0  0  0  0  0  0
   21.5320   -5.6828  -14.4594 C   0  0  1  0  0  0  0  0  0  0  0  0
   22.9785   -5.6684  -13.9856 C   0  0  0  0  0  0  0  0  0  0  0  0
   23.9188   -5.4577  -15.1034 C   0  0  0  0  0  0  0  0  0  0  0  0
   24.2397   -4.1737  -15.4978 C   0  0  0  0  0  0  0  0  0  0  0  0
   25.1145   -3.9202  -16.5382 C   0  0  0  0  0  0  0  0  0  0  0  0
   25.6652   -5.0053  -17.1797 C   0  0  0  0  0  0  0  0  0  0  0  0
   25.3448   -6.2948  -16.7858 C   0  0  0  0  0  0  0  0  0  0  0  0
   24.4718   -6.5452  -15.7476 C   0  0  0  0  0  0  0  0  0  0  0  0
   21.0239   -4.3412  -14.7381 C   0  0  0  0  0  0  0  0  0  0  0  0
   20.9726   -3.3454  -13.7798 O   0  0  0  0  0  0  0  0  0  0  0  0
   20.6132   -4.0644  -15.8889 O   0  0  0  0  0  0  0  0  0  0  0  0
  2  1  1  0
  3  2  1  0
  3  4  1  1
  5  6  1  6
  5  3  1  0
  7  5  1  0
  8  7  2  0
  9  7  1  0
 10 11  1  1
 10  9  1  0
 11 12  1  0
 13 14  2  0
 13 10  1  0
 15 13  1  0
 16 15  1  0
 17 18  1  0
 16 17  1  6
 18 19  2  0
 19 20  1  0
 21 20  2  0
 22 21  1  0
 23 18  1  0
 23 22  2  0
 24 16  1  0
 24 25  1  0
 26 24  2  0
M  END
$$$$
