ICF.pdb
     RDKit          3D

 26 26  0  0  1  0  0  0  0  0999 V2000
   25.9560  -21.7520  -21.6051 C   0  0  0  0  0  0  0  0  0  0  0  0
   25.3068  -21.1013  -20.4309 C   0  0  0  0  0  0  0  0  0  0  0  0
   25.7033  -21.6545  -19.1023 C   0  0  2  0  0  0  0  0  0  0  0  0
   25.5176  -23.1285  -18.9605 C   0  0  0  0  0  0  0  0  0  0  0  0
   25.0198  -20.9291  -17.9507 C   0  0  2  0  0  0  0  0  0  0  0  0
   25.0153  -19.5153  -18.2794 N   0  0  0  0  0  0  0  0  0  0  0  0
   25.8311  -21.0898  -16.6925 C   0  0  0  0  0  0  0  0  0  0  0  0
   25.9922  -22.2151  -16.1501 O   0  0  0  0  0  0  0  0  0  0  0  0
   26.4494  -19.9751  -16.0649 N   0  0  0  0  0  0  0  0  0  0  0  0
   27.1357  -20.0337  -14.8082 C   0  0  1  0  0  0  0  0  0  0  0  0
   28.3482  -19.1243  -14.7693 C   0  0  0  0  0  0  0  0  0  0  0  0
   27.9966  -17.5736  -15.6316 S   0  0  0  0  0  0  0  0  0  0  0  0
   26.2664  -19.7703  -13.6503 C   0  0  0  0  0  0  0  0  0  0  0  0
   25.7025  -18.6574  -13.5535 O   0  0  0  0  0  0  0  0  0  0  0  0
   26.0337  -20.7221  -12.6306 N   0  0  0  0  0  0  0  0  0  0  0  0
   25.0519  -20.5054  -11.6160 C   0  0  1  0  0  0  0  0  0  0  0  0
   23.6612  -20.4732  -12.2340 C   0  0  0  0  0  0  0  0  0  0  0  0
   22.6092  -20.3337  -11.2085 C   0  0  0  0  0  0  0  0  0  0  0  0
   21.9653  -19.1228  -11.0456 C   0  0  0  0  0  0  0  0  0  0  0  0
   20.9731  -18.9379  -10.1005 C   0  0  0  0  0  0  0  0  0  0  0  0
   20.6410  -20.0161   -9.3135 C   0  0  0  0  0  0  0  0  0  0  0  0
   21.2856  -21.2322   -9.4749 C   0  0  0  0  0  0  0  0  0  0  0  0
   22.2752  -21.4143  -10.4184 C   0  0  0  0  0  0  0  0  0  0  0  0
   25.1380  -21.4288  -10.4865 C   0  0  0  0  0  0  0  0  0  0  0  0
   24.9171  -21.0360   -9.1790 O   0  0  0  0  0  0  0  0  0  0  0  0
   25.4232  -22.6310  -10.6937 O   0  0  0  0  0  0  0  0  0  0  0  0
  2  1  1  0
  3  2  1  0
  3  4  1  6
  5  6  1  6
  5  3  1  0
  7  5  1  0
  8  7  2  0
  9  7  1  0
 10 11  1  6
 10  9  1  0
 11 12  1  0
 13 14  2  0
 13 10  1  0
 15 13  1  0
 16 15  1  0
 17 18  1  0
 16 17  1  6
 18 19  2  0
 19 20  1  0
 21 20  2  0
 22 21  1  0
 23 18  1  0
 23 22  2  0
 24 16  1  0
 24 25  1  0
 26 24  2  0
M  END
$$$$
