ICF.pdb
     RDKit          3D

 26 26  0  0  1  0  0  0  0  0999 V2000
   18.9297  -22.1869  -12.8306 C   0  0  0  0  0  0  0  0  0  0  0  0
   19.2509  -23.6066  -12.5068 C   0  0  0  0  0  0  0  0  0  0  0  0
   18.4888  -24.1812  -11.3589 C   0  0  2  0  0  0  0  0  0  0  0  0
   18.6847  -23.4690  -10.0622 C   0  0  0  0  0  0  0  0  0  0  0  0
   18.7533  -25.6705  -11.1816 C   0  0  2  0  0  0  0  0  0  0  0  0
   18.4469  -26.3122  -12.4470 N   0  0  0  0  0  0  0  0  0  0  0  0
   17.8086  -26.2384  -10.1557 C   0  0  0  0  0  0  0  0  0  0  0  0
   16.5916  -25.9151  -10.1287 O   0  0  0  0  0  0  0  0  0  0  0  0
   18.2536  -27.1643   -9.1743 N   0  0  0  0  0  0  0  0  0  0  0  0
   17.4175  -27.7241   -8.1539 C   0  0  1  0  0  0  0  0  0  0  0  0
   16.8113  -29.0508   -8.5671 C   0  0  0  0  0  0  0  0  0  0  0  0
   17.9202  -29.9206   -9.7011 S   0  0  0  0  0  0  0  0  0  0  0  0
   18.0884  -27.8566   -6.8508 C   0  0  0  0  0  0  0  0  0  0  0  0
   19.1706  -28.4813   -6.7843 O   0  0  0  0  0  0  0  0  0  0  0  0
   17.5658  -27.3075   -5.6569 N   0  0  0  0  0  0  0  0  0  0  0  0
   18.1405  -27.6045   -4.3834 C   0  0  1  0  0  0  0  0  0  0  0  0
   18.2371  -26.3369   -3.5462 C   0  0  0  0  0  0  0  0  0  0  0  0
   18.7085  -26.6198   -2.1765 C   0  0  0  0  0  0  0  0  0  0  0  0
   17.8048  -26.6534   -1.1327 C   0  0  0  0  0  0  0  0  0  0  0  0
   18.1928  -26.9137    0.1687 C   0  0  0  0  0  0  0  0  0  0  0  0
   19.5301  -27.1422    0.3959 C   0  0  0  0  0  0  0  0  0  0  0  0
   20.4389  -27.1090   -0.6498 C   0  0  0  0  0  0  0  0  0  0  0  0
   20.0494  -26.8491   -1.9473 C   0  0  0  0  0  0  0  0  0  0  0  0
   17.4860  -28.6969   -3.6664 C   0  0  0  0  0  0  0  0  0  0  0  0
   18.1898  -29.6883   -3.0073 O   0  0  0  0  0  0  0  0  0  0  0  0
   16.2348  -28.7529   -3.6377 O   0  0  0  0  0  0  0  0  0  0  0  0
  2  1  1  0
  3  2  1  0
  3  4  1  1
  5  6  1  6
  5  3  1  0
  7  5  1  0
  8  7  2  0
  9  7  1  0
 10 11  1  6
 10  9  1  0
 11 12  1  0
 13 14  2  0
 13 10  1  0
 15 13  1  0
 16 15  1  0
 17 18  1  0
 16 17  1  1
 18 19  2  0
 19 20  1  0
 21 20  2  0
 22 21  1  0
 23 18  1  0
 23 22  2  0
 24 16  1  0
 24 25  1  0
 26 24  2  0
M  END
$$$$
