ICF.pdb
     RDKit          3D

 26 26  0  0  1  0  0  0  0  0999 V2000
   23.5866  -19.0940  -17.1625 C   0  0  0  0  0  0  0  0  0  0  0  0
   24.5602  -18.9638  -16.0405 C   0  0  0  0  0  0  0  0  0  0  0  0
   24.5887  -17.6253  -15.3803 C   0  0  2  0  0  0  0  0  0  0  0  0
   24.9620  -16.4947  -16.2800 C   0  0  0  0  0  0  0  0  0  0  0  0
   25.4692  -17.6162  -14.1377 C   0  0  2  0  0  0  0  0  0  0  0  0
   26.8340  -17.8366  -14.5800 N   0  0  0  0  0  0  0  0  0  0  0  0
   25.1011  -18.7696  -13.2425 C   0  0  0  0  0  0  0  0  0  0  0  0
   23.9206  -18.9404  -12.8377 O   0  0  0  0  0  0  0  0  0  0  0  0
   26.0734  -19.7143  -12.8172 N   0  0  0  0  0  0  0  0  0  0  0  0
   25.8033  -20.8092  -11.9330 C   0  0  1  0  0  0  0  0  0  0  0  0
   26.0857  -22.1533  -12.5749 C   0  0  0  0  0  0  0  0  0  0  0  0
   27.6404  -22.0931  -13.4976 S   0  0  0  0  0  0  0  0  0  0  0  0
   26.5002  -20.7075  -10.6408 C   0  0  0  0  0  0  0  0  0  0  0  0
   27.7255  -20.4533  -10.6287 O   0  0  0  0  0  0  0  0  0  0  0  0
   25.8479  -20.8844   -9.3986 N   0  0  0  0  0  0  0  0  0  0  0  0
   26.5748  -20.9076   -8.1693 C   0  0  1  0  0  0  0  0  0  0  0  0
   27.4151  -19.6454   -8.0362 C   0  0  0  0  0  0  0  0  0  0  0  0
   28.1058  -19.5821   -6.7335 C   0  0  0  0  0  0  0  0  0  0  0  0
   29.0233  -20.5571   -6.3948 C   0  0  0  0  0  0  0  0  0  0  0  0
   29.6982  -20.5454   -5.1880 C   0  0  0  0  0  0  0  0  0  0  0  0
   29.4228  -19.5147   -4.3197 C   0  0  0  0  0  0  0  0  0  0  0  0
   28.5025  -18.5351   -4.6572 C   0  0  0  0  0  0  0  0  0  0  0  0
   27.8305  -18.5488   -5.8617 C   0  0  0  0  0  0  0  0  0  0  0  0
   25.7524  -21.1563   -6.9870 C   0  0  0  0  0  0  0  0  0  0  0  0
   26.2522  -21.7358   -5.8350 O   0  0  0  0  0  0  0  0  0  0  0  0
   24.5410  -20.8372   -7.0007 O   0  0  0  0  0  0  0  0  0  0  0  0
  2  1  1  0
  3  2  1  0
  3  4  1  6
  5  6  1  6
  5  3  1  0
  7  5  1  0
  8  7  2  0
  9  7  1  0
 10 11  1  6
 10  9  1  0
 11 12  1  0
 13 14  2  0
 13 10  1  0
 15 13  1  0
 16 15  1  0
 17 18  1  0
 16 17  1  1
 18 19  2  0
 19 20  1  0
 21 20  2  0
 22 21  1  0
 23 18  1  0
 23 22  2  0
 24 16  1  0
 24 25  1  0
 26 24  2  0
M  END
$$$$
