ICF.pdb
     RDKit          3D

 26 26  0  0  1  0  0  0  0  0999 V2000
   28.9381  -18.5897  -16.8255 C   0  0  0  0  0  0  0  0  0  0  0  0
   27.6986  -17.7740  -16.6778 C   0  0  0  0  0  0  0  0  0  0  0  0
   27.0840  -17.7984  -15.3176 C   0  0  2  0  0  0  0  0  0  0  0  0
   27.8081  -16.9913  -14.2923 C   0  0  0  0  0  0  0  0  0  0  0  0
   26.8705  -19.2180  -14.8090 C   0  0  2  0  0  0  0  0  0  0  0  0
   26.0409  -19.9008  -15.7849 N   0  0  0  0  0  0  0  0  0  0  0  0
   26.0999  -19.1866  -13.5158 C   0  0  0  0  0  0  0  0  0  0  0  0
   25.6010  -18.1193  -13.0704 O   0  0  0  0  0  0  0  0  0  0  0  0
   25.9042  -20.3632  -12.7437 N   0  0  0  0  0  0  0  0  0  0  0  0
   25.2026  -20.4025  -11.4948 C   0  0  1  0  0  0  0  0  0  0  0  0
   24.0124  -21.3409  -11.5301 C   0  0  0  0  0  0  0  0  0  0  0  0
   23.1474  -21.3164   -9.9416 S   0  0  0  0  0  0  0  0  0  0  0  0
   26.0650  -20.7198  -10.3453 C   0  0  0  0  0  0  0  0  0  0  0  0
   26.7254  -21.7827  -10.3552 O   0  0  0  0  0  0  0  0  0  0  0  0
   26.1865  -19.8746   -9.2180 N   0  0  0  0  0  0  0  0  0  0  0  0
   26.8874  -20.2898   -8.0447 C   0  0  1  0  0  0  0  0  0  0  0  0
   27.5230  -19.0861   -7.3634 C   0  0  0  0  0  0  0  0  0  0  0  0
   28.2283  -19.4673   -6.1243 C   0  0  0  0  0  0  0  0  0  0  0  0
   29.4932  -20.0172   -6.1958 C   0  0  0  0  0  0  0  0  0  0  0  0
   30.1979  -20.3916   -5.0666 C   0  0  0  0  0  0  0  0  0  0  0  0
   29.5899  -20.1963   -3.8483 C   0  0  0  0  0  0  0  0  0  0  0  0
   28.3207  -19.6447   -3.7739 C   0  0  0  0  0  0  0  0  0  0  0  0
   27.6196  -19.2719   -4.9018 C   0  0  0  0  0  0  0  0  0  0  0  0
   26.0926  -21.0970   -7.1213 C   0  0  0  0  0  0  0  0  0  0  0  0
   26.6540  -22.0257   -6.2641 O   0  0  0  0  0  0  0  0  0  0  0  0
   24.8483  -20.9542   -7.0922 O   0  0  0  0  0  0  0  0  0  0  0  0
  2  1  1  0
  3  2  1  0
  3  4  1  1
  5  6  1  6
  5  3  1  0
  7  5  1  0
  8  7  2  0
  9  7  1  0
 10 11  1  6
 10  9  1  0
 11 12  1  0
 13 14  2  0
 13 10  1  0
 15 13  1  0
 16 15  1  0
 17 18  1  0
 16 17  1  1
 18 19  2  0
 19 20  1  0
 21 20  2  0
 22 21  1  0
 23 18  1  0
 23 22  2  0
 24 16  1  0
 24 25  1  0
 26 24  2  0
M  END
$$$$
