ICF.pdb
     RDKit          3D

 26 26  0  0  1  0  0  0  0  0999 V2000
   19.7874  -25.8497    1.7136 C   0  0  0  0  0  0  0  0  0  0  0  0
   20.1457  -26.3045    0.3394 C   0  0  0  0  0  0  0  0  0  0  0  0
   20.3484  -27.7762    0.1933 C   0  0  2  0  0  0  0  0  0  0  0  0
   21.2750  -28.3800    1.1953 C   0  0  0  0  0  0  0  0  0  0  0  0
   20.7815  -28.1595   -1.2156 C   0  0  2  0  0  0  0  0  0  0  0  0
   19.7014  -27.7864   -2.1106 N   0  0  0  0  0  0  0  0  0  0  0  0
   20.9419  -29.6535   -1.3120 C   0  0  0  0  0  0  0  0  0  0  0  0
   19.9843  -30.4368   -1.0751 O   0  0  0  0  0  0  0  0  0  0  0  0
   22.1833  -30.2414   -1.6750 N   0  0  0  0  0  0  0  0  0  0  0  0
   22.4082  -31.6526   -1.7823 C   0  0  1  0  0  0  0  0  0  0  0  0
   22.6009  -32.0994   -3.2182 C   0  0  0  0  0  0  0  0  0  0  0  0
   21.1889  -31.5905   -4.2278 S   0  0  0  0  0  0  0  0  0  0  0  0
   23.5190  -32.1364   -0.9469 C   0  0  0  0  0  0  0  0  0  0  0  0
   24.6040  -31.5129   -0.9566 O   0  0  0  0  0  0  0  0  0  0  0  0
   23.4209  -33.2828   -0.1248 N   0  0  0  0  0  0  0  0  0  0  0  0
   24.5025  -33.6983    0.7106 C   0  0  1  0  0  0  0  0  0  0  0  0
   24.0893  -33.6258    2.1738 C   0  0  0  0  0  0  0  0  0  0  0  0
   24.2255  -32.2593    2.7142 C   0  0  0  0  0  0  0  0  0  0  0  0
   25.4507  -31.8239    3.1795 C   0  0  0  0  0  0  0  0  0  0  0  0
   25.6333  -30.5542    3.6955 C   0  0  0  0  0  0  0  0  0  0  0  0
   24.5378  -29.7231    3.7318 C   0  0  0  0  0  0  0  0  0  0  0  0
   23.3072  -30.1576    3.2655 C   0  0  0  0  0  0  0  0  0  0  0  0
   23.1275  -31.4248    2.7512 C   0  0  0  0  0  0  0  0  0  0  0  0
   25.0735  -34.9963    0.3568 C   0  0  0  0  0  0  0  0  0  0  0  0
   26.2897  -35.4380    0.8451 O   0  0  0  0  0  0  0  0  0  0  0  0
   24.4478  -35.7535   -0.4208 O   0  0  0  0  0  0  0  0  0  0  0  0
  2  1  1  0
  3  2  1  0
  3  4  1  1
  5  6  1  6
  5  3  1  0
  7  5  1  0
  8  7  2  0
  9  7  1  0
 10 11  1  6
 10  9  1  0
 11 12  1  0
 13 14  2  0
 13 10  1  0
 15 13  1  0
 16 15  1  0
 17 18  1  0
 16 17  1  1
 18 19  2  0
 19 20  1  0
 21 20  2  0
 22 21  1  0
 23 18  1  0
 23 22  2  0
 24 16  1  0
 24 25  1  0
 26 24  2  0
M  END
$$$$
