ICF.pdb
     RDKit          3D

 26 26  0  0  1  0  0  0  0  0999 V2000
   29.2132  -17.8517  -16.5552 C   0  0  0  0  0  0  0  0  0  0  0  0
   27.9859  -17.0525  -16.2747 C   0  0  0  0  0  0  0  0  0  0  0  0
   27.2084  -17.4873  -15.0769 C   0  0  2  0  0  0  0  0  0  0  0  0
   27.8853  -17.2378  -13.7705 C   0  0  0  0  0  0  0  0  0  0  0  0
   26.7758  -18.9445  -15.1707 C   0  0  2  0  0  0  0  0  0  0  0  0
   25.9465  -19.0683  -16.3555 N   0  0  0  0  0  0  0  0  0  0  0  0
   25.9147  -19.2988  -13.9873 C   0  0  0  0  0  0  0  0  0  0  0  0
   24.7773  -18.7840  -13.8208 O   0  0  0  0  0  0  0  0  0  0  0  0
   26.3521  -20.2307  -13.0081 N   0  0  0  0  0  0  0  0  0  0  0  0
   25.5477  -20.6917  -11.9153 C   0  0  1  0  0  0  0  0  0  0  0  0
   24.7974  -21.9664  -12.2478 C   0  0  0  0  0  0  0  0  0  0  0  0
   23.3583  -22.1468  -11.1669 S   0  0  0  0  0  0  0  0  0  0  0  0
   26.2991  -20.8576  -10.6609 C   0  0  0  0  0  0  0  0  0  0  0  0
   27.5352  -21.0455  -10.7123 O   0  0  0  0  0  0  0  0  0  0  0  0
   25.6878  -20.8148   -9.3863 N   0  0  0  0  0  0  0  0  0  0  0  0
   26.4507  -20.9508   -8.1865 C   0  0  1  0  0  0  0  0  0  0  0  0
   27.4256  -19.7894   -8.0536 C   0  0  0  0  0  0  0  0  0  0  0  0
   28.0715  -19.7655   -6.7269 C   0  0  0  0  0  0  0  0  0  0  0  0
   29.0080  -20.7271   -6.4018 C   0  0  0  0  0  0  0  0  0  0  0  0
   29.6428  -20.7508   -5.1737 C   0  0  0  0  0  0  0  0  0  0  0  0
   29.3072  -19.7700   -4.2695 C   0  0  0  0  0  0  0  0  0  0  0  0
   28.3677  -18.8039   -4.5933 C   0  0  0  0  0  0  0  0  0  0  0  0
   27.7357  -18.7823   -5.8191 C   0  0  0  0  0  0  0  0  0  0  0  0
   25.6485  -21.1452   -6.9805 C   0  0  0  0  0  0  0  0  0  0  0  0
   26.1263  -21.8005   -5.8603 O   0  0  0  0  0  0  0  0  0  0  0  0
   24.4758  -20.7059   -6.9429 O   0  0  0  0  0  0  0  0  0  0  0  0
  2  1  1  0
  3  2  1  0
  3  4  1  1
  5  6  1  6
  5  3  1  0
  7  5  1  0
  8  7  2  0
  9  7  1  0
 10 11  1  6
 10  9  1  0
 11 12  1  0
 13 14  2  0
 13 10  1  0
 15 13  1  0
 16 15  1  0
 17 18  1  0
 16 17  1  1
 18 19  2  0
 19 20  1  0
 21 20  2  0
 22 21  1  0
 23 18  1  0
 23 22  2  0
 24 16  1  0
 24 25  1  0
 26 24  2  0
M  END
$$$$
