ICF.pdb
     RDKit          3D

 26 26  0  0  1  0  0  0  0  0999 V2000
   29.6853  -23.4229  -20.0221 C   0  0  0  0  0  0  0  0  0  0  0  0
   29.6711  -23.5508  -18.5365 C   0  0  0  0  0  0  0  0  0  0  0  0
   28.8395  -22.5373  -17.8225 C   0  0  2  0  0  0  0  0  0  0  0  0
   29.2272  -21.1196  -18.0809 C   0  0  0  0  0  0  0  0  0  0  0  0
   28.7792  -22.7969  -16.3230 C   0  0  2  0  0  0  0  0  0  0  0  0
   28.0836  -24.0570  -16.1356 N   0  0  0  0  0  0  0  0  0  0  0  0
   27.9540  -21.7305  -15.6529 C   0  0  0  0  0  0  0  0  0  0  0  0
   28.3149  -20.5238  -15.6457 O   0  0  0  0  0  0  0  0  0  0  0  0
   26.7316  -22.0437  -15.0000 N   0  0  0  0  0  0  0  0  0  0  0  0
   25.8886  -21.0790  -14.3579 C   0  0  1  0  0  0  0  0  0  0  0  0
   24.5523  -20.9232  -15.0570 C   0  0  0  0  0  0  0  0  0  0  0  0
   24.7958  -20.7322  -16.8392 S   0  0  0  0  0  0  0  0  0  0  0  0
   25.6838  -21.3387  -12.9238 C   0  0  0  0  0  0  0  0  0  0  0  0
   25.4894  -22.5138  -12.5400 O   0  0  0  0  0  0  0  0  0  0  0  0
   25.6959  -20.3160  -11.9472 N   0  0  0  0  0  0  0  0  0  0  0  0
   25.2181  -20.5438  -10.6205 C   0  0  1  0  0  0  0  0  0  0  0  0
   25.7731  -19.4859   -9.6773 C   0  0  0  0  0  0  0  0  0  0  0  0
   27.0177  -19.9341   -9.0230 C   0  0  0  0  0  0  0  0  0  0  0  0
   27.3788  -19.4057   -7.7992 C   0  0  0  0  0  0  0  0  0  0  0  0
   28.5335  -19.7904   -7.1431 C   0  0  0  0  0  0  0  0  0  0  0  0
   29.3257  -20.7324   -7.7574 C   0  0  0  0  0  0  0  0  0  0  0  0
   28.9656  -21.2642   -8.9855 C   0  0  0  0  0  0  0  0  0  0  0  0
   27.8131  -20.8788   -9.6381 C   0  0  0  0  0  0  0  0  0  0  0  0
   23.7664  -20.6760  -10.5167 C   0  0  0  0  0  0  0  0  0  0  0  0
   23.1505  -21.4175   -9.5249 O   0  0  0  0  0  0  0  0  0  0  0  0
   23.0337  -20.0997  -11.3536 O   0  0  0  0  0  0  0  0  0  0  0  0
  2  1  1  0
  3  2  1  0
  3  4  1  1
  5  6  1  6
  5  3  1  0
  7  5  1  0
  8  7  2  0
  9  7  1  0
 10 11  1  6
 10  9  1  0
 11 12  1  0
 13 14  2  0
 13 10  1  0
 15 13  1  0
 16 15  1  0
 17 18  1  0
 16 17  1  1
 18 19  2  0
 19 20  1  0
 21 20  2  0
 22 21  1  0
 23 18  1  0
 23 22  2  0
 24 16  1  0
 24 25  1  0
 26 24  2  0
M  END
$$$$
