ICF.pdb
     RDKit          3D

 26 26  0  0  1  0  0  0  0  0999 V2000
   21.8822  -18.7515  -14.8182 C   0  0  0  0  0  0  0  0  0  0  0  0
   22.9187  -19.4782  -15.6063 C   0  0  0  0  0  0  0  0  0  0  0  0
   24.3295  -19.1060  -15.2903 C   0  0  2  0  0  0  0  0  0  0  0  0
   25.1622  -18.7554  -16.4781 C   0  0  0  0  0  0  0  0  0  0  0  0
   25.0313  -20.1697  -14.4564 C   0  0  2  0  0  0  0  0  0  0  0  0
   24.1619  -21.3317  -14.4272 N   0  0  0  0  0  0  0  0  0  0  0  0
   25.1792  -19.6903  -13.0367 C   0  0  0  0  0  0  0  0  0  0  0  0
   25.8322  -18.6505  -12.7558 O   0  0  0  0  0  0  0  0  0  0  0  0
   24.5863  -20.3936  -11.9539 N   0  0  0  0  0  0  0  0  0  0  0  0
   24.6524  -19.9741  -10.5853 C   0  0  1  0  0  0  0  0  0  0  0  0
   23.2815  -19.8696   -9.9463 C   0  0  0  0  0  0  0  0  0  0  0  0
   22.3475  -21.3955  -10.2132 S   0  0  0  0  0  0  0  0  0  0  0  0
   25.5364  -20.8089   -9.7562 C   0  0  0  0  0  0  0  0  0  0  0  0
   25.8376  -21.9569  -10.1531 O   0  0  0  0  0  0  0  0  0  0  0  0
   26.0686  -20.3743   -8.5201 N   0  0  0  0  0  0  0  0  0  0  0  0
   26.7573  -21.2703   -7.6465 C   0  0  1  0  0  0  0  0  0  0  0  0
   28.2106  -20.8420   -7.4999 C   0  0  0  0  0  0  0  0  0  0  0  0
   28.4080  -19.9666   -6.3282 C   0  0  0  0  0  0  0  0  0  0  0  0
   28.0247  -18.6412   -6.3891 C   0  0  0  0  0  0  0  0  0  0  0  0
   28.1869  -17.7782   -5.3210 C   0  0  0  0  0  0  0  0  0  0  0  0
   28.7518  -18.2892   -4.1756 C   0  0  0  0  0  0  0  0  0  0  0  0
   29.1373  -19.6189   -4.1120 C   0  0  0  0  0  0  0  0  0  0  0  0
   28.9745  -20.4779   -5.1789 C   0  0  0  0  0  0  0  0  0  0  0  0
   26.1040  -21.4747   -6.3552 C   0  0  0  0  0  0  0  0  0  0  0  0
   26.4947  -22.4586   -5.4653 O   0  0  0  0  0  0  0  0  0  0  0  0
   25.1476  -20.7361   -6.0247 O   0  0  0  0  0  0  0  0  0  0  0  0
  2  1  1  0
  3  2  1  0
  3  4  1  6
  5  6  1  1
  5  3  1  0
  7  5  1  0
  8  7  2  0
  9  7  1  0
 10 11  1  1
 10  9  1  0
 11 12  1  0
 13 14  2  0
 13 10  1  0
 15 13  1  0
 16 15  1  0
 17 18  1  0
 16 17  1  1
 18 19  2  0
 19 20  1  0
 21 20  2  0
 22 21  1  0
 23 18  1  0
 23 22  2  0
 24 16  1  0
 24 25  1  0
 26 24  2  0
M  END
$$$$
