ICF.pdb
     RDKit          3D

 26 26  0  0  1  0  0  0  0  0999 V2000
   27.1640  -19.0336  -18.7965 C   0  0  0  0  0  0  0  0  0  0  0  0
   27.6749  -19.7368  -17.5847 C   0  0  0  0  0  0  0  0  0  0  0  0
   27.2969  -19.1101  -16.2837 C   0  0  2  0  0  0  0  0  0  0  0  0
   27.6264  -17.6588  -16.1723 C   0  0  0  0  0  0  0  0  0  0  0  0
   27.8690  -19.8681  -15.0931 C   0  0  2  0  0  0  0  0  0  0  0  0
   27.5657  -21.2730  -15.2957 N   0  0  0  0  0  0  0  0  0  0  0  0
   27.1684  -19.4404  -13.8308 C   0  0  0  0  0  0  0  0  0  0  0  0
   27.1069  -18.2300  -13.4876 O   0  0  0  0  0  0  0  0  0  0  0  0
   26.5466  -20.3877  -12.9737 N   0  0  0  0  0  0  0  0  0  0  0  0
   25.8238  -20.0483  -11.7838 C   0  0  1  0  0  0  0  0  0  0  0  0
   24.3231  -20.0499  -11.9991 C   0  0  0  0  0  0  0  0  0  0  0  0
   23.8288  -21.5029  -12.9564 S   0  0  0  0  0  0  0  0  0  0  0  0
   26.1711  -20.8868  -10.6253 C   0  0  0  0  0  0  0  0  0  0  0  0
   26.2987  -22.1215  -10.7842 O   0  0  0  0  0  0  0  0  0  0  0  0
   26.3702  -20.3617   -9.3274 N   0  0  0  0  0  0  0  0  0  0  0  0
   26.6018  -21.2130   -8.2041 C   0  0  1  0  0  0  0  0  0  0  0  0
   28.0387  -21.0646   -7.7245 C   0  0  0  0  0  0  0  0  0  0  0  0
   28.1134  -20.3676   -6.4257 C   0  0  0  0  0  0  0  0  0  0  0  0
   27.8793  -19.0080   -6.3617 C   0  0  0  0  0  0  0  0  0  0  0  0
   27.9364  -18.3065   -5.1716 C   0  0  0  0  0  0  0  0  0  0  0  0
   28.2388  -19.0168   -4.0330 C   0  0  0  0  0  0  0  0  0  0  0  0
   28.4741  -20.3811   -4.0946 C   0  0  0  0  0  0  0  0  0  0  0  0
   28.4166  -21.0788   -5.2831 C   0  0  0  0  0  0  0  0  0  0  0  0
   25.6340  -21.0577   -7.1200 C   0  0  0  0  0  0  0  0  0  0  0  0
   24.6799  -20.0566   -7.1051 O   0  0  0  0  0  0  0  0  0  0  0  0
   25.6556  -21.8568   -6.1554 O   0  0  0  0  0  0  0  0  0  0  0  0
  2  1  1  0
  3  2  1  0
  3  4  1  6
  5  6  1  6
  5  3  1  0
  7  5  1  0
  8  7  2  0
  9  7  1  0
 10 11  1  6
 10  9  1  0
 11 12  1  0
 13 14  2  0
 13 10  1  0
 15 13  1  0
 16 15  1  0
 17 18  1  0
 16 17  1  1
 18 19  2  0
 19 20  1  0
 21 20  2  0
 22 21  1  0
 23 18  1  0
 23 22  2  0
 24 16  1  0
 24 25  1  0
 26 24  2  0
M  END
$$$$
