FYS.pdb
     RDKit          3D

 30 31  0  0  1  0  0  0  0  0999 V2000
    5.5530  -17.7591   24.3305 N   0  0  0  0  0  0  0  0  0  0  0  0
    6.2891  -16.5811   24.6689 C   0  0  1  0  0  0  0  0  0  0  0  0
    6.3042  -16.3529   26.1742 C   0  0  0  0  0  0  0  0  0  0  0  0
    6.6768  -14.9302   26.3775 C   0  0  0  0  0  0  0  0  0  0  0  0
    5.8869  -13.9174   25.8822 C   0  0  0  0  0  0  0  0  0  0  0  0
    6.2260  -12.5849   26.0660 C   0  0  0  0  0  0  0  0  0  0  0  0
    7.3745  -12.2631   26.7570 C   0  0  0  0  0  0  0  0  0  0  0  0
    8.1525  -13.2867   27.2453 C   0  0  0  0  0  0  0  0  0  0  0  0
    7.8283  -14.6275   27.0706 C   0  0  0  0  0  0  0  0  0  0  0  0
    7.6963  -16.6297   24.2057 C   0  0  0  0  0  0  0  0  0  0  0  0
    8.3665  -17.6745   24.1264 O   0  0  0  0  0  0  0  0  0  0  0  0
    6.9721  -13.9395   17.4715 O   0  0  0  0  0  0  0  0  0  0  0  0
    7.6445  -13.9888   18.6698 C   0  0  0  0  0  0  0  0  0  0  0  0
    8.2506  -15.1613   19.0695 C   0  0  0  0  0  0  0  0  0  0  0  0
    8.9357  -15.2412   20.2727 C   0  0  0  0  0  0  0  0  0  0  0  0
    9.0044  -14.1183   21.0756 C   0  0  0  0  0  0  0  0  0  0  0  0
    9.7145  -14.1063   22.3799 C   0  0  0  0  0  0  0  0  0  0  0  0
    9.5704  -15.4484   23.0956 C   0  0  2  0  0  0  0  0  0  0  0  0
    8.3264  -15.4068   23.8258 N   0  0  0  0  0  0  0  0  0  0  0  0
   10.6849  -15.5790   24.0558 C   0  0  0  0  0  0  0  0  0  0  0  0
   11.8978  -15.6187   23.6509 O   0  0  0  0  0  0  0  0  0  0  0  0
    8.3962  -12.9612   20.6627 C   0  0  0  0  0  0  0  0  0  0  0  0
    7.7158  -12.8708   19.4745 C   0  0  0  0  0  0  0  0  0  0  0  0
   10.0025  -15.8554   28.3034 O   0  0  0  0  0  0  0  0  0  0  0  0
   11.0427  -15.1399   27.7331 C   0  0  0  0  0  0  0  0  0  0  0  0
   11.4630  -15.7953   26.4213 C   0  0  2  0  0  0  0  0  0  0  0  0
   10.4023  -15.6610   25.4400 N   0  0  0  0  0  0  0  0  0  0  0  0
   11.8819  -17.1944   26.6040 C   0  0  0  0  0  0  0  0  0  0  0  0
   11.2896  -18.1749   26.1082 O   0  0  0  0  0  0  0  0  0  0  0  0
   13.0088  -17.4330   27.3784 O   0  0  0  0  0  0  0  0  0  0  0  0
  2  1  1  1
  3  4  1  0
  3  2  1  0
  4  5  2  0
  5  6  1  0
  7  6  2  0
  8  7  1  0
  9  4  1  0
  9  8  2  0
 10 19  1  0
 10  2  1  0
 11 10  2  0
 13 12  1  0
 14 13  2  0
 15 14  1  0
 16 15  2  0
 16 22  1  0
 18 17  1  1
 17 16  1  0
 18 19  1  0
 20 18  1  0
 21 20  2  0
 22 23  2  0
 23 13  1  0
 24 25  1  0
 26 25  1  1
 26 28  1  0
 26 27  1  0
 27 20  1  0
 28 30  1  0
 29 28  2  0
M  END
$$$$
