FYS.pdb
     RDKit          3D

 30 31  0  0  1  0  0  0  0  0999 V2000
    9.4680  -16.6346   25.6259 N   0  0  0  0  0  0  0  0  0  0  0  0
    8.0770  -16.8413   25.8835 C   0  0  1  0  0  0  0  0  0  0  0  0
    7.6424  -16.1407   27.1635 C   0  0  0  0  0  0  0  0  0  0  0  0
    8.8235  -15.3812   27.6459 C   0  0  0  0  0  0  0  0  0  0  0  0
    9.0474  -14.0882   27.2299 C   0  0  0  0  0  0  0  0  0  0  0  0
   10.1479  -13.3698   27.6741 C   0  0  0  0  0  0  0  0  0  0  0  0
   11.0372  -13.9568   28.5485 C   0  0  0  0  0  0  0  0  0  0  0  0
   10.7989  -15.2492   28.9543 C   0  0  0  0  0  0  0  0  0  0  0  0
    9.7016  -15.9841   28.5196 C   0  0  0  0  0  0  0  0  0  0  0  0
    7.2102  -16.3527   24.7848 C   0  0  0  0  0  0  0  0  0  0  0  0
    6.4988  -15.3353   24.8605 O   0  0  0  0  0  0  0  0  0  0  0  0
    8.4987  -11.8768   17.9896 O   0  0  0  0  0  0  0  0  0  0  0  0
    8.3032  -12.6309   19.1227 C   0  0  0  0  0  0  0  0  0  0  0  0
    7.0438  -13.1059   19.4228 C   0  0  0  0  0  0  0  0  0  0  0  0
    6.8163  -13.8689   20.5583 C   0  0  0  0  0  0  0  0  0  0  0  0
    7.8796  -14.1507   21.3953 C   0  0  0  0  0  0  0  0  0  0  0  0
    7.7348  -14.9587   22.6328 C   0  0  0  0  0  0  0  0  0  0  0  0
    7.2929  -16.3848   22.3085 C   0  0  2  0  0  0  0  0  0  0  0  0
    7.1859  -17.0900   23.5630 N   0  0  0  0  0  0  0  0  0  0  0  0
    8.3481  -17.0182   21.4920 C   0  0  0  0  0  0  0  0  0  0  0  0
    8.1605  -17.2571   20.2493 O   0  0  0  0  0  0  0  0  0  0  0  0
    9.1247  -13.6704   21.0815 C   0  0  0  0  0  0  0  0  0  0  0  0
    9.3612  -12.9147   19.9609 C   0  0  0  0  0  0  0  0  0  0  0  0
   11.5718  -15.6925   20.7764 O   0  0  0  0  0  0  0  0  0  0  0  0
   11.0350  -16.8386   20.2131 C   0  0  0  0  0  0  0  0  0  0  0  0
   10.6996  -17.8453   21.3091 C   0  0  2  0  0  0  0  0  0  0  0  0
    9.5800  -17.3635   22.0966 N   0  0  0  0  0  0  0  0  0  0  0  0
   11.8676  -18.1758   22.1414 C   0  0  0  0  0  0  0  0  0  0  0  0
   11.9754  -17.8793   23.3491 O   0  0  0  0  0  0  0  0  0  0  0  0
   12.9137  -18.8614   21.5396 O   0  0  0  0  0  0  0  0  0  0  0  0
  2  1  1  6
  3  4  1  0
  3  2  1  0
  4  5  2  0
  5  6  1  0
  7  6  2  0
  8  7  1  0
  9  4  1  0
  9  8  2  0
 10 19  1  0
 10  2  1  0
 11 10  2  0
 13 12  1  0
 14 13  2  0
 15 14  1  0
 16 15  2  0
 16 22  1  0
 18 17  1  1
 17 16  1  0
 18 19  1  0
 20 18  1  0
 21 20  2  0
 22 23  2  0
 23 13  1  0
 24 25  1  0
 26 25  1  6
 26 28  1  0
 26 27  1  0
 27 20  1  0
 28 30  1  0
 29 28  2  0
M  END
$$$$
