FYS.pdb
     RDKit          3D

 30 31  0  0  1  0  0  0  0  0999 V2000
    5.1717  -17.6519   24.2074 N   0  0  0  0  0  0  0  0  0  0  0  0
    5.8950  -16.4483   24.4759 C   0  0  1  0  0  0  0  0  0  0  0  0
    6.0509  -16.2200   25.9731 C   0  0  0  0  0  0  0  0  0  0  0  0
    6.4356  -14.7959   26.1410 C   0  0  0  0  0  0  0  0  0  0  0  0
    5.5289  -13.7883   25.9006 C   0  0  0  0  0  0  0  0  0  0  0  0
    5.8781  -12.4545   26.0539 C   0  0  0  0  0  0  0  0  0  0  0  0
    7.1556  -12.1262   26.4542 C   0  0  0  0  0  0  0  0  0  0  0  0
    8.0491  -13.1447   26.6902 C   0  0  0  0  0  0  0  0  0  0  0  0
    7.7168  -14.4866   26.5418 C   0  0  0  0  0  0  0  0  0  0  0  0
    7.2502  -16.4461   23.8754 C   0  0  0  0  0  0  0  0  0  0  0  0
    7.9904  -17.4443   23.8260 O   0  0  0  0  0  0  0  0  0  0  0  0
    7.2206  -13.8936   16.7045 O   0  0  0  0  0  0  0  0  0  0  0  0
    7.6906  -13.8735   17.9965 C   0  0  0  0  0  0  0  0  0  0  0  0
    7.3636  -12.8248   18.8302 C   0  0  0  0  0  0  0  0  0  0  0  0
    7.8228  -12.7773   20.1379 C   0  0  0  0  0  0  0  0  0  0  0  0
    8.6215  -13.8059   20.6009 C   0  0  0  0  0  0  0  0  0  0  0  0
    9.1606  -13.8434   21.9842 C   0  0  0  0  0  0  0  0  0  0  0  0
    8.9937  -15.2313   22.6008 C   0  0  2  0  0  0  0  0  0  0  0  0
    7.7415  -15.2274   23.3181 N   0  0  0  0  0  0  0  0  0  0  0  0
   10.0951  -15.4424   23.5619 C   0  0  0  0  0  0  0  0  0  0  0  0
   10.2110  -14.7025   24.5990 O   0  0  0  0  0  0  0  0  0  0  0  0
    8.9367  -14.8405   19.7585 C   0  0  0  0  0  0  0  0  0  0  0  0
    8.4880  -14.8977   18.4631 C   0  0  0  0  0  0  0  0  0  0  0  0
   11.8655  -18.9903   23.8123 O   0  0  0  0  0  0  0  0  0  0  0  0
   12.1702  -18.0589   24.7914 C   0  0  0  0  0  0  0  0  0  0  0  0
   12.1876  -16.6588   24.1859 C   0  0  2  0  0  0  0  0  0  0  0  0
   11.0314  -16.4774   23.3279 N   0  0  0  0  0  0  0  0  0  0  0  0
   13.4513  -16.3657   23.4908 C   0  0  0  0  0  0  0  0  0  0  0  0
   13.5419  -16.1310   22.2682 O   0  0  0  0  0  0  0  0  0  0  0  0
   14.6142  -16.3507   24.2484 O   0  0  0  0  0  0  0  0  0  0  0  0
  2  1  1  1
  3  4  1  0
  3  2  1  0
  4  5  2  0
  5  6  1  0
  7  6  2  0
  8  7  1  0
  9  4  1  0
  9  8  2  0
 10 19  1  0
 10  2  1  0
 11 10  2  0
 13 12  1  0
 14 13  2  0
 15 14  1  0
 16 15  2  0
 16 22  1  0
 18 17  1  1
 17 16  1  0
 18 19  1  0
 20 18  1  0
 21 20  2  0
 22 23  2  0
 23 13  1  0
 24 25  1  0
 26 25  1  6
 26 28  1  0
 26 27  1  0
 27 20  1  0
 28 30  1  0
 29 28  2  0
M  END
$$$$
