FYS.pdb
     RDKit          3D

 30 31  0  0  1  0  0  0  0  0999 V2000
    5.2946  -16.3400   21.2193 N   0  0  0  0  0  0  0  0  0  0  0  0
    6.4517  -15.8264   21.8837 C   0  0  1  0  0  0  0  0  0  0  0  0
    6.4529  -14.3039   21.8924 C   0  0  0  0  0  0  0  0  0  0  0  0
    7.2687  -13.8799   20.7265 C   0  0  0  0  0  0  0  0  0  0  0  0
    8.6436  -13.9334   20.7720 C   0  0  0  0  0  0  0  0  0  0  0  0
    9.4152  -13.5394   19.6887 C   0  0  0  0  0  0  0  0  0  0  0  0
    8.7990  -13.0848   18.5425 C   0  0  0  0  0  0  0  0  0  0  0  0
    7.4248  -13.0376   18.5135 C   0  0  0  0  0  0  0  0  0  0  0  0
    6.6356  -13.4284   19.5894 C   0  0  0  0  0  0  0  0  0  0  0  0
    6.5591  -16.2859   23.2888 C   0  0  0  0  0  0  0  0  0  0  0  0
    5.6534  -16.1614   24.1322 O   0  0  0  0  0  0  0  0  0  0  0  0
    9.1968  -20.6695   30.2918 O   0  0  0  0  0  0  0  0  0  0  0  0
    8.9797  -20.2157   29.0121 C   0  0  0  0  0  0  0  0  0  0  0  0
   10.0467  -20.0332   28.1577 C   0  0  0  0  0  0  0  0  0  0  0  0
    9.8586  -19.5768   26.8618 C   0  0  0  0  0  0  0  0  0  0  0  0
    8.5735  -19.3039   26.4319 C   0  0  0  0  0  0  0  0  0  0  0  0
    8.2723  -18.8118   25.0635 C   0  0  0  0  0  0  0  0  0  0  0  0
    7.9196  -17.3253   25.0801 C   0  0  2  0  0  0  0  0  0  0  0  0
    7.7729  -16.9101   23.7059 N   0  0  0  0  0  0  0  0  0  0  0  0
    9.0504  -16.5916   25.6837 C   0  0  0  0  0  0  0  0  0  0  0  0
   10.1734  -16.5041   25.0774 O   0  0  0  0  0  0  0  0  0  0  0  0
    7.5246  -19.4910   27.2945 C   0  0  0  0  0  0  0  0  0  0  0  0
    7.6992  -19.9421   28.5786 C   0  0  0  0  0  0  0  0  0  0  0  0
    8.4024  -13.6849   28.4294 O   0  0  0  0  0  0  0  0  0  0  0  0
    9.6088  -13.7978   27.7580 C   0  0  0  0  0  0  0  0  0  0  0  0
    9.9736  -15.2699   27.5938 C   0  0  2  0  0  0  0  0  0  0  0  0
    8.8845  -15.9796   26.9488 N   0  0  0  0  0  0  0  0  0  0  0  0
   10.3710  -15.8930   28.8665 C   0  0  0  0  0  0  0  0  0  0  0  0
    9.7825  -16.8628   29.3873 O   0  0  0  0  0  0  0  0  0  0  0  0
   11.4719  -15.3641   29.5260 O   0  0  0  0  0  0  0  0  0  0  0  0
  2  1  1  1
  3  4  1  0
  3  2  1  0
  4  5  2  0
  5  6  1  0
  7  6  2  0
  8  7  1  0
  9  4  1  0
  9  8  2  0
 10 19  1  0
 10  2  1  0
 11 10  2  0
 13 12  1  0
 14 13  2  0
 15 14  1  0
 16 15  2  0
 16 22  1  0
 18 17  1  6
 17 16  1  0
 18 19  1  0
 20 18  1  0
 21 20  2  0
 22 23  2  0
 23 13  1  0
 24 25  1  0
 26 25  1  1
 26 28  1  0
 26 27  1  0
 27 20  1  0
 28 30  1  0
 29 28  2  0
M  END
$$$$
