FYS.pdb
     RDKit          3D

 30 31  0  0  1  0  0  0  0  0999 V2000
    5.3945  -17.6983   24.5140 N   0  0  0  0  0  0  0  0  0  0  0  0
    6.0994  -16.4833   24.7799 C   0  0  1  0  0  0  0  0  0  0  0  0
    6.3319  -16.2952   26.2728 C   0  0  0  0  0  0  0  0  0  0  0  0
    6.7375  -14.8789   26.4574 C   0  0  0  0  0  0  0  0  0  0  0  0
    8.0422  -14.5525   26.7512 C   0  0  0  0  0  0  0  0  0  0  0  0
    8.4318  -13.2327   26.9262 C   0  0  0  0  0  0  0  0  0  0  0  0
    7.4991  -12.2250   26.8047 C   0  0  0  0  0  0  0  0  0  0  0  0
    6.2001  -12.5681   26.5109 C   0  0  0  0  0  0  0  0  0  0  0  0
    5.7917  -13.8852   26.3323 C   0  0  0  0  0  0  0  0  0  0  0  0
    7.4187  -16.4251   24.1068 C   0  0  0  0  0  0  0  0  0  0  0  0
    8.2033  -17.3872   24.0304 O   0  0  0  0  0  0  0  0  0  0  0  0
    7.2425  -14.0252   16.8238 O   0  0  0  0  0  0  0  0  0  0  0  0
    7.6972  -13.9514   18.1193 C   0  0  0  0  0  0  0  0  0  0  0  0
    7.2317  -12.9582   18.9552 C   0  0  0  0  0  0  0  0  0  0  0  0
    7.6720  -12.8587   20.2664 C   0  0  0  0  0  0  0  0  0  0  0  0
    8.5939  -13.7779   20.7308 C   0  0  0  0  0  0  0  0  0  0  0  0
    9.1239  -13.7527   22.1179 C   0  0  0  0  0  0  0  0  0  0  0  0
    9.0512  -15.1379   22.7584 C   0  0  2  0  0  0  0  0  0  0  0  0
    7.8191  -15.1931   23.5078 N   0  0  0  0  0  0  0  0  0  0  0  0
   10.1865  -15.2718   23.6935 C   0  0  0  0  0  0  0  0  0  0  0  0
   10.2194  -14.6045   24.7844 O   0  0  0  0  0  0  0  0  0  0  0  0
    9.0459  -14.7585   19.8863 C   0  0  0  0  0  0  0  0  0  0  0  0
    8.6172  -14.8664   18.5873 C   0  0  0  0  0  0  0  0  0  0  0  0
   11.7174  -18.5985   24.6393 O   0  0  0  0  0  0  0  0  0  0  0  0
   12.0457  -17.4226   25.2938 C   0  0  0  0  0  0  0  0  0  0  0  0
   12.3722  -16.3366   24.2735 C   0  0  2  0  0  0  0  0  0  0  0  0
   11.2490  -16.1502   23.3739 N   0  0  0  0  0  0  0  0  0  0  0  0
   13.6272  -16.6052   23.5530 C   0  0  0  0  0  0  0  0  0  0  0  0
   14.7457  -16.6933   24.1000 O   0  0  0  0  0  0  0  0  0  0  0  0
   13.5565  -16.7703   22.1766 O   0  0  0  0  0  0  0  0  0  0  0  0
  2  1  1  1
  3  4  1  0
  3  2  1  0
  4  5  2  0
  5  6  1  0
  7  6  2  0
  8  7  1  0
  9  4  1  0
  9  8  2  0
 10 19  1  0
 10  2  1  0
 11 10  2  0
 13 12  1  0
 14 13  2  0
 15 14  1  0
 16 15  2  0
 16 22  1  0
 18 17  1  1
 17 16  1  0
 18 19  1  0
 20 18  1  0
 21 20  2  0
 22 23  2  0
 23 13  1  0
 24 25  1  0
 26 25  1  1
 26 28  1  0
 26 27  1  0
 27 20  1  0
 28 30  1  0
 29 28  2  0
M  END
$$$$
