FYS.pdb
     RDKit          3D

 30 31  0  0  1  0  0  0  0  0999 V2000
    5.2501  -17.3338   24.6874 N   0  0  0  0  0  0  0  0  0  0  0  0
    6.2293  -16.3132   24.8961 C   0  0  1  0  0  0  0  0  0  0  0  0
    6.7654  -16.3454   26.3207 C   0  0  0  0  0  0  0  0  0  0  0  0
    7.1935  -14.9595   26.6376 C   0  0  0  0  0  0  0  0  0  0  0  0
    8.5046  -14.6817   26.9519 C   0  0  0  0  0  0  0  0  0  0  0  0
    8.9152  -13.3906   27.2500 C   0  0  0  0  0  0  0  0  0  0  0  0
    7.9971  -12.3625   27.2327 C   0  0  0  0  0  0  0  0  0  0  0  0
    6.6913  -12.6570   26.9168 C   0  0  0  0  0  0  0  0  0  0  0  0
    6.2621  -13.9447   26.6154 C   0  0  0  0  0  0  0  0  0  0  0  0
    7.3855  -16.4292   23.9759 C   0  0  0  0  0  0  0  0  0  0  0  0
    7.8380  -17.5108   23.5608 O   0  0  0  0  0  0  0  0  0  0  0  0
    7.2782  -14.0016   16.7850 O   0  0  0  0  0  0  0  0  0  0  0  0
    7.7777  -13.9802   18.0659 C   0  0  0  0  0  0  0  0  0  0  0  0
    7.3149  -13.0455   18.9681 C   0  0  0  0  0  0  0  0  0  0  0  0
    7.7998  -12.9997   20.2665 C   0  0  0  0  0  0  0  0  0  0  0  0
    8.7639  -13.9129   20.6498 C   0  0  0  0  0  0  0  0  0  0  0  0
    9.3433  -13.9424   22.0169 C   0  0  0  0  0  0  0  0  0  0  0  0
    9.1658  -15.3176   22.6587 C   0  0  2  0  0  0  0  0  0  0  0  0
    8.0231  -15.2306   23.5357 N   0  0  0  0  0  0  0  0  0  0  0  0
   10.3681  -15.6062   23.4664 C   0  0  0  0  0  0  0  0  0  0  0  0
   10.6582  -14.8931   24.4880 O   0  0  0  0  0  0  0  0  0  0  0  0
    9.2125  -14.8351   19.7401 C   0  0  0  0  0  0  0  0  0  0  0  0
    8.7399  -14.8895   18.4531 C   0  0  0  0  0  0  0  0  0  0  0  0
   12.3397  -19.1483   22.8770 O   0  0  0  0  0  0  0  0  0  0  0  0
   12.5797  -18.4596   24.0548 C   0  0  0  0  0  0  0  0  0  0  0  0
   12.4405  -16.9596   23.8144 C   0  0  2  0  0  0  0  0  0  0  0  0
   11.2066  -16.6861   23.1012 N   0  0  0  0  0  0  0  0  0  0  0  0
   13.6162  -16.3903   23.1363 C   0  0  0  0  0  0  0  0  0  0  0  0
   13.5770  -15.8097   22.0320 O   0  0  0  0  0  0  0  0  0  0  0  0
   14.8453  -16.5096   23.7701 O   0  0  0  0  0  0  0  0  0  0  0  0
  2  1  1  1
  3  4  1  0
  3  2  1  0
  4  5  2  0
  5  6  1  0
  7  6  2  0
  8  7  1  0
  9  4  1  0
  9  8  2  0
 10 19  1  0
 10  2  1  0
 11 10  2  0
 13 12  1  0
 14 13  2  0
 15 14  1  0
 16 15  2  0
 16 22  1  0
 18 17  1  1
 17 16  1  0
 18 19  1  0
 20 18  1  0
 21 20  2  0
 22 23  2  0
 23 13  1  0
 24 25  1  0
 26 25  1  6
 26 28  1  0
 26 27  1  0
 27 20  1  0
 28 30  1  0
 29 28  2  0
M  END
$$$$
