FYS.pdb
     RDKit          3D

 30 31  0  0  1  0  0  0  0  0999 V2000
    5.6790  -17.8104   22.9832 N   0  0  0  0  0  0  0  0  0  0  0  0
    6.4406  -16.7537   22.3938 C   0  0  1  0  0  0  0  0  0  0  0  0
    5.5349  -15.6581   21.8486 C   0  0  0  0  0  0  0  0  0  0  0  0
    6.4043  -14.7538   21.0543 C   0  0  0  0  0  0  0  0  0  0  0  0
    6.7623  -13.5160   21.5387 C   0  0  0  0  0  0  0  0  0  0  0  0
    7.5737  -12.6632   20.8047 C   0  0  0  0  0  0  0  0  0  0  0  0
    8.0330  -13.0576   19.5663 C   0  0  0  0  0  0  0  0  0  0  0  0
    7.6662  -14.2972   19.0971 C   0  0  0  0  0  0  0  0  0  0  0  0
    6.8540  -15.1649   19.8187 C   0  0  0  0  0  0  0  0  0  0  0  0
    7.3856  -16.1253   23.3474 C   0  0  0  0  0  0  0  0  0  0  0  0
    7.1292  -15.1039   24.0091 O   0  0  0  0  0  0  0  0  0  0  0  0
    8.4254  -20.1773   28.6163 O   0  0  0  0  0  0  0  0  0  0  0  0
    8.6537  -19.0520   27.8598 C   0  0  0  0  0  0  0  0  0  0  0  0
    9.9140  -18.4934   27.8227 C   0  0  0  0  0  0  0  0  0  0  0  0
   10.1743  -17.3588   27.0688 C   0  0  0  0  0  0  0  0  0  0  0  0
    9.1431  -16.7882   26.3467 C   0  0  0  0  0  0  0  0  0  0  0  0
    9.3242  -15.5739   25.5110 C   0  0  0  0  0  0  0  0  0  0  0  0
    9.7429  -15.9438   24.0890 C   0  0  2  0  0  0  0  0  0  0  0  0
    8.6695  -16.7237   23.5215 N   0  0  0  0  0  0  0  0  0  0  0  0
   10.9542  -16.7850   24.1709 C   0  0  0  0  0  0  0  0  0  0  0  0
   10.8897  -17.9863   24.6059 O   0  0  0  0  0  0  0  0  0  0  0  0
    7.8966  -17.3567   26.3951 C   0  0  0  0  0  0  0  0  0  0  0  0
    7.6278  -18.4789   27.1374 C   0  0  0  0  0  0  0  0  0  0  0  0
   14.1818  -15.5177   21.9205 O   0  0  0  0  0  0  0  0  0  0  0  0
   13.8376  -16.8522   22.0612 C   0  0  0  0  0  0  0  0  0  0  0  0
   13.3335  -17.1097   23.4777 C   0  0  2  0  0  0  0  0  0  0  0  0
   12.1991  -16.2507   23.7622 N   0  0  0  0  0  0  0  0  0  0  0  0
   14.4002  -16.9788   24.4834 C   0  0  0  0  0  0  0  0  0  0  0  0
   15.4441  -17.6631   24.4927 O   0  0  0  0  0  0  0  0  0  0  0  0
   14.2291  -16.0317   25.4836 O   0  0  0  0  0  0  0  0  0  0  0  0
  2  1  1  1
  3  4  1  0
  3  2  1  0
  4  5  2  0
  5  6  1  0
  7  6  2  0
  8  7  1  0
  9  4  1  0
  9  8  2  0
 10 19  1  0
 10  2  1  0
 11 10  2  0
 13 12  1  0
 14 13  2  0
 15 14  1  0
 16 15  2  0
 16 22  1  0
 18 17  1  1
 17 16  1  0
 18 19  1  0
 20 18  1  0
 21 20  2  0
 22 23  2  0
 23 13  1  0
 24 25  1  0
 26 25  1  6
 26 28  1  0
 26 27  1  0
 27 20  1  0
 28 30  1  0
 29 28  2  0
M  END
$$$$
