FYS.pdb
     RDKit          3D

 30 31  0  0  1  0  0  0  0  0999 V2000
    6.1923  -18.3946   26.3478 N   0  0  0  0  0  0  0  0  0  0  0  0
    6.4749  -17.0129   26.1135 C   0  0  1  0  0  0  0  0  0  0  0  0
    7.3312  -16.4278   27.2282 C   0  0  0  0  0  0  0  0  0  0  0  0
    7.2121  -14.9521   27.1161 C   0  0  0  0  0  0  0  0  0  0  0  0
    8.3324  -14.1522   27.1258 C   0  0  0  0  0  0  0  0  0  0  0  0
    8.2323  -12.7725   27.0221 C   0  0  0  0  0  0  0  0  0  0  0  0
    6.9901  -12.1861   26.9069 C   0  0  0  0  0  0  0  0  0  0  0  0
    5.8812  -12.9994   26.8988 C   0  0  0  0  0  0  0  0  0  0  0  0
    5.9624  -14.3836   27.0017 C   0  0  0  0  0  0  0  0  0  0  0  0
    7.1819  -16.7801   24.8317 C   0  0  0  0  0  0  0  0  0  0  0  0
    8.0430  -17.5459   24.3636 O   0  0  0  0  0  0  0  0  0  0  0  0
    8.8501  -12.9837   17.0759 O   0  0  0  0  0  0  0  0  0  0  0  0
    8.3755  -13.2596   18.3365 C   0  0  0  0  0  0  0  0  0  0  0  0
    7.5804  -14.3671   18.5439 C   0  0  0  0  0  0  0  0  0  0  0  0
    7.0872  -14.6708   19.8040 C   0  0  0  0  0  0  0  0  0  0  0  0
    7.4061  -13.8402   20.8618 C   0  0  0  0  0  0  0  0  0  0  0  0
    6.9258  -14.0828   22.2460 C   0  0  0  0  0  0  0  0  0  0  0  0
    7.4664  -15.4039   22.7908 C   0  0  2  0  0  0  0  0  0  0  0  0
    6.8596  -15.6079   24.0842 N   0  0  0  0  0  0  0  0  0  0  0  0
    8.9267  -15.2664   22.9637 C   0  0  0  0  0  0  0  0  0  0  0  0
    9.4122  -14.4114   23.7822 O   0  0  0  0  0  0  0  0  0  0  0  0
    8.1977  -12.7437   20.6376 C   0  0  0  0  0  0  0  0  0  0  0  0
    8.6911  -12.4338   19.3953 C   0  0  0  0  0  0  0  0  0  0  0  0
   11.2996  -18.3749   22.0186 O   0  0  0  0  0  0  0  0  0  0  0  0
   11.7753  -17.3669   22.8412 C   0  0  0  0  0  0  0  0  0  0  0  0
   11.2357  -16.0192   22.3728 C   0  0  2  0  0  0  0  0  0  0  0  0
    9.7954  -16.0927   22.2120 N   0  0  0  0  0  0  0  0  0  0  0  0
   11.9105  -15.5388   21.1562 C   0  0  0  0  0  0  0  0  0  0  0  0
   13.1122  -15.2049   21.1053 O   0  0  0  0  0  0  0  0  0  0  0  0
   11.1573  -15.4534   19.9935 O   0  0  0  0  0  0  0  0  0  0  0  0
  2  1  1  1
  3  4  1  0
  3  2  1  0
  4  5  2  0
  5  6  1  0
  7  6  2  0
  8  7  1  0
  9  4  1  0
  9  8  2  0
 10 19  1  0
 10  2  1  0
 11 10  2  0
 13 12  1  0
 14 13  2  0
 15 14  1  0
 16 15  2  0
 16 22  1  0
 18 17  1  1
 17 16  1  0
 18 19  1  0
 20 18  1  0
 21 20  2  0
 22 23  2  0
 23 13  1  0
 24 25  1  0
 26 25  1  6
 26 28  1  0
 26 27  1  0
 27 20  1  0
 28 30  1  0
 29 28  2  0
M  END
$$$$
