FYS.pdb
     RDKit          3D

 30 31  0  0  1  0  0  0  0  0999 V2000
    6.7106  -15.4122   22.3057 N   0  0  0  0  0  0  0  0  0  0  0  0
    7.8043  -14.5424   22.0039 C   0  0  1  0  0  0  0  0  0  0  0  0
    7.4095  -13.0812   22.1689 C   0  0  0  0  0  0  0  0  0  0  0  0
    6.8981  -12.9405   23.5556 C   0  0  0  0  0  0  0  0  0  0  0  0
    6.5209  -11.7107   24.0459 C   0  0  0  0  0  0  0  0  0  0  0  0
    6.0421  -11.5679   25.3400 C   0  0  0  0  0  0  0  0  0  0  0  0
    5.9401  -12.6751   26.1549 C   0  0  0  0  0  0  0  0  0  0  0  0
    6.3211  -13.8962   25.6497 C   0  0  0  0  0  0  0  0  0  0  0  0
    6.8030  -14.0580   24.3556 C   0  0  0  0  0  0  0  0  0  0  0  0
    8.9885  -14.7895   22.8605 C   0  0  0  0  0  0  0  0  0  0  0  0
   10.0408  -14.1292   22.7994 O   0  0  0  0  0  0  0  0  0  0  0  0
   12.2090  -16.1553   30.8033 O   0  0  0  0  0  0  0  0  0  0  0  0
   11.4344  -16.0193   29.6754 C   0  0  0  0  0  0  0  0  0  0  0  0
   11.4212  -14.8218   28.9916 C   0  0  0  0  0  0  0  0  0  0  0  0
   10.6500  -14.6550   27.8511 C   0  0  0  0  0  0  0  0  0  0  0  0
    9.8858  -15.7159   27.4031 C   0  0  0  0  0  0  0  0  0  0  0  0
    9.0288  -15.6334   26.1930 C   0  0  0  0  0  0  0  0  0  0  0  0
    9.8485  -15.8592   24.9236 C   0  0  2  0  0  0  0  0  0  0  0  0
    8.9239  -15.8480   23.8156 N   0  0  0  0  0  0  0  0  0  0  0  0
   10.4736  -17.1945   25.0118 C   0  0  0  0  0  0  0  0  0  0  0  0
    9.7743  -18.2283   25.2924 O   0  0  0  0  0  0  0  0  0  0  0  0
    9.9108  -16.8990   28.0951 C   0  0  0  0  0  0  0  0  0  0  0  0
   10.6701  -17.0752   29.2244 C   0  0  0  0  0  0  0  0  0  0  0  0
   14.0289  -17.3654   23.4439 O   0  0  0  0  0  0  0  0  0  0  0  0
   13.6086  -18.6560   23.7208 C   0  0  0  0  0  0  0  0  0  0  0  0
   12.5088  -18.6263   24.7776 C   0  0  2  0  0  0  0  0  0  0  0  0
   11.8637  -17.3264   24.7827 N   0  0  0  0  0  0  0  0  0  0  0  0
   13.0026  -19.0107   26.1097 C   0  0  0  0  0  0  0  0  0  0  0  0
   12.9021  -18.2966   27.1286 O   0  0  0  0  0  0  0  0  0  0  0  0
   13.6189  -20.2480   26.2354 O   0  0  0  0  0  0  0  0  0  0  0  0
  2  1  1  1
  3  4  1  0
  3  2  1  0
  4  5  2  0
  5  6  1  0
  7  6  2  0
  8  7  1  0
  9  4  1  0
  9  8  2  0
 10 19  1  0
 10  2  1  0
 11 10  2  0
 13 12  1  0
 14 13  2  0
 15 14  1  0
 16 15  2  0
 16 22  1  0
 18 17  1  1
 17 16  1  0
 18 19  1  0
 20 18  1  0
 21 20  2  0
 22 23  2  0
 23 13  1  0
 24 25  1  0
 26 25  1  6
 26 28  1  0
 26 27  1  0
 27 20  1  0
 28 30  1  0
 29 28  2  0
M  END
$$$$
