FYS.pdb
     RDKit          3D

 30 31  0  0  1  0  0  0  0  0999 V2000
    7.4873  -16.9429   20.9328 N   0  0  0  0  0  0  0  0  0  0  0  0
    8.8803  -16.6992   20.7223 C   0  0  1  0  0  0  0  0  0  0  0  0
    9.0992  -15.6165   19.6745 C   0  0  0  0  0  0  0  0  0  0  0  0
    8.4733  -14.3820   20.2121 C   0  0  0  0  0  0  0  0  0  0  0  0
    9.2438  -13.3880   20.7720 C   0  0  0  0  0  0  0  0  0  0  0  0
    8.6692  -12.2310   21.2775 C   0  0  0  0  0  0  0  0  0  0  0  0
    7.3016  -12.0683   21.2208 C   0  0  0  0  0  0  0  0  0  0  0  0
    6.5465  -13.0707   20.6583 C   0  0  0  0  0  0  0  0  0  0  0  0
    7.1049  -14.2368   20.1467 C   0  0  0  0  0  0  0  0  0  0  0  0
    9.5836  -16.2804   21.9580 C   0  0  0  0  0  0  0  0  0  0  0  0
   10.7732  -15.9188   21.9924 O   0  0  0  0  0  0  0  0  0  0  0  0
   10.8274  -14.2907   30.3834 O   0  0  0  0  0  0  0  0  0  0  0  0
   10.2638  -14.5527   29.1569 C   0  0  0  0  0  0  0  0  0  0  0  0
   10.2001  -13.5581   28.2037 C   0  0  0  0  0  0  0  0  0  0  0  0
    9.6376  -13.7928   26.9580 C   0  0  0  0  0  0  0  0  0  0  0  0
    9.1358  -15.0504   26.6802 C   0  0  0  0  0  0  0  0  0  0  0  0
    8.5155  -15.3971   25.3762 C   0  0  0  0  0  0  0  0  0  0  0  0
    9.5467  -15.9924   24.4189 C   0  0  2  0  0  0  0  0  0  0  0  0
    8.8573  -16.2902   23.1866 N   0  0  0  0  0  0  0  0  0  0  0  0
   10.0443  -17.2531   25.0057 C   0  0  0  0  0  0  0  0  0  0  0  0
    9.2410  -18.2098   25.2812 O   0  0  0  0  0  0  0  0  0  0  0  0
    9.2075  -16.0272   27.6394 C   0  0  0  0  0  0  0  0  0  0  0  0
    9.7618  -15.8061   28.8750 C   0  0  0  0  0  0  0  0  0  0  0  0
   12.7416  -18.9110   23.4532 O   0  0  0  0  0  0  0  0  0  0  0  0
   13.1258  -19.0773   24.7737 C   0  0  0  0  0  0  0  0  0  0  0  0
   11.9854  -18.6666   25.6998 C   0  0  2  0  0  0  0  0  0  0  0  0
   11.4278  -17.3994   25.2649 N   0  0  0  0  0  0  0  0  0  0  0  0
   12.3941  -18.6419   27.1135 C   0  0  0  0  0  0  0  0  0  0  0  0
   12.3608  -17.6247   27.8362 O   0  0  0  0  0  0  0  0  0  0  0  0
   12.8448  -19.8290   27.6742 O   0  0  0  0  0  0  0  0  0  0  0  0
  2  1  1  1
  3  4  1  0
  3  2  1  0
  4  5  2  0
  5  6  1  0
  7  6  2  0
  8  7  1  0
  9  4  1  0
  9  8  2  0
 10 19  1  0
 10  2  1  0
 11 10  2  0
 13 12  1  0
 14 13  2  0
 15 14  1  0
 16 15  2  0
 16 22  1  0
 18 17  1  1
 17 16  1  0
 18 19  1  0
 20 18  1  0
 21 20  2  0
 22 23  2  0
 23 13  1  0
 24 25  1  0
 26 25  1  6
 26 28  1  0
 26 27  1  0
 27 20  1  0
 28 30  1  0
 29 28  2  0
M  END
$$$$
