FYS.pdb
     RDKit          3D

 30 31  0  0  1  0  0  0  0  0999 V2000
    5.3347  -17.6955   24.5104 N   0  0  0  0  0  0  0  0  0  0  0  0
    6.0291  -16.4658   24.7330 C   0  0  1  0  0  0  0  0  0  0  0  0
    6.2460  -16.2153   26.2190 C   0  0  0  0  0  0  0  0  0  0  0  0
    6.6142  -14.7832   26.3521 C   0  0  0  0  0  0  0  0  0  0  0  0
    7.9222  -14.4086   26.5614 C   0  0  0  0  0  0  0  0  0  0  0  0
    8.2770  -13.0735   26.6876 C   0  0  0  0  0  0  0  0  0  0  0  0
    7.3055  -12.0993   26.6028 C   0  0  0  0  0  0  0  0  0  0  0  0
    6.0037  -12.4903   26.3935 C   0  0  0  0  0  0  0  0  0  0  0  0
    5.6298  -13.8233   26.2646 C   0  0  0  0  0  0  0  0  0  0  0  0
    7.3544  -16.4260   24.0703 C   0  0  0  0  0  0  0  0  0  0  0  0
    8.1222  -17.4013   23.9920 O   0  0  0  0  0  0  0  0  0  0  0  0
    7.3279  -14.0657   16.7489 O   0  0  0  0  0  0  0  0  0  0  0  0
    7.7579  -13.9867   18.0526 C   0  0  0  0  0  0  0  0  0  0  0  0
    7.6765  -12.7890   18.7313 C   0  0  0  0  0  0  0  0  0  0  0  0
    8.1023  -12.6790   20.0465 C   0  0  0  0  0  0  0  0  0  0  0  0
    8.6152  -13.7975   20.6761 C   0  0  0  0  0  0  0  0  0  0  0  0
    9.0959  -13.7782   22.0811 C   0  0  0  0  0  0  0  0  0  0  0  0
    9.0006  -15.1661   22.7129 C   0  0  2  0  0  0  0  0  0  0  0  0
    7.7814  -15.1967   23.4843 N   0  0  0  0  0  0  0  0  0  0  0  0
   10.1491  -15.3350   23.6260 C   0  0  0  0  0  0  0  0  0  0  0  0
   10.5541  -14.3657   24.3561 O   0  0  0  0  0  0  0  0  0  0  0  0
    8.6887  -14.9799   19.9864 C   0  0  0  0  0  0  0  0  0  0  0  0
    8.2705  -15.1001   18.6851 C   0  0  0  0  0  0  0  0  0  0  0  0
   11.3597  -18.9859   24.8461 O   0  0  0  0  0  0  0  0  0  0  0  0
   11.9190  -17.8665   25.4405 C   0  0  0  0  0  0  0  0  0  0  0  0
   12.0550  -16.7483   24.4118 C   0  0  2  0  0  0  0  0  0  0  0  0
   10.8065  -16.5865   23.6901 N   0  0  0  0  0  0  0  0  0  0  0  0
   13.1997  -16.9542   23.5099 C   0  0  0  0  0  0  0  0  0  0  0  0
   13.1129  -17.0036   22.2656 O   0  0  0  0  0  0  0  0  0  0  0  0
   14.4541  -17.1023   24.0852 O   0  0  0  0  0  0  0  0  0  0  0  0
  2  1  1  1
  3  4  1  0
  3  2  1  0
  4  5  2  0
  5  6  1  0
  7  6  2  0
  8  7  1  0
  9  4  1  0
  9  8  2  0
 10 19  1  0
 10  2  1  0
 11 10  2  0
 13 12  1  0
 14 13  2  0
 15 14  1  0
 16 15  2  0
 16 22  1  0
 18 17  1  1
 17 16  1  0
 18 19  1  0
 20 18  1  0
 21 20  2  0
 22 23  2  0
 23 13  1  0
 24 25  1  0
 26 25  1  1
 26 28  1  0
 26 27  1  0
 27 20  1  0
 28 30  1  0
 29 28  2  0
M  END
$$$$
