FYS.pdb
     RDKit          3D

 30 31  0  0  1  0  0  0  0  0999 V2000
    9.7675  -16.5939   19.6740 N   0  0  0  0  0  0  0  0  0  0  0  0
    9.2502  -15.7044   20.6665 C   0  0  1  0  0  0  0  0  0  0  0  0
    7.7313  -15.6240   20.5982 C   0  0  0  0  0  0  0  0  0  0  0  0
    7.3447  -14.3908   21.3291 C   0  0  0  0  0  0  0  0  0  0  0  0
    7.6425  -13.1472   20.8192 C   0  0  0  0  0  0  0  0  0  0  0  0
    7.2863  -11.9887   21.4940 C   0  0  0  0  0  0  0  0  0  0  0  0
    6.6216  -12.0786   22.6983 C   0  0  0  0  0  0  0  0  0  0  0  0
    6.3318  -13.3284   23.1937 C   0  0  0  0  0  0  0  0  0  0  0  0
    6.6809  -14.5000   22.5313 C   0  0  0  0  0  0  0  0  0  0  0  0
    9.6195  -16.1042   22.0452 C   0  0  0  0  0  0  0  0  0  0  0  0
   10.2158  -17.1586   22.3272 O   0  0  0  0  0  0  0  0  0  0  0  0
   10.9140  -15.4835   30.6660 O   0  0  0  0  0  0  0  0  0  0  0  0
   10.4678  -15.2726   29.3826 C   0  0  0  0  0  0  0  0  0  0  0  0
    9.6477  -16.2026   28.7790 C   0  0  0  0  0  0  0  0  0  0  0  0
    9.1821  -16.0171   27.4859 C   0  0  0  0  0  0  0  0  0  0  0  0
    9.5544  -14.8753   26.8016 C   0  0  0  0  0  0  0  0  0  0  0  0
    9.1069  -14.5889   25.4148 C   0  0  0  0  0  0  0  0  0  0  0  0
    9.9192  -15.3910   24.3993 C   0  0  2  0  0  0  0  0  0  0  0  0
    9.2728  -15.2304   23.1191 N   0  0  0  0  0  0  0  0  0  0  0  0
    9.8635  -16.8147   24.7883 C   0  0  0  0  0  0  0  0  0  0  0  0
    8.7520  -17.4478   24.8009 O   0  0  0  0  0  0  0  0  0  0  0  0
   10.3702  -13.9615   27.4169 C   0  0  0  0  0  0  0  0  0  0  0  0
   10.8366  -14.1348   28.6956 C   0  0  0  0  0  0  0  0  0  0  0  0
   12.9928  -19.2124   24.2728 O   0  0  0  0  0  0  0  0  0  0  0  0
   11.7522  -19.7472   24.5792 C   0  0  0  0  0  0  0  0  0  0  0  0
   11.0453  -18.8619   25.6007 C   0  0  2  0  0  0  0  0  0  0  0  0
   11.0574  -17.4822   25.1510 N   0  0  0  0  0  0  0  0  0  0  0  0
   11.6036  -19.0138   26.9540 C   0  0  0  0  0  0  0  0  0  0  0  0
   12.0755  -18.0752   27.6282 O   0  0  0  0  0  0  0  0  0  0  0  0
   11.6029  -20.2848   27.5117 O   0  0  0  0  0  0  0  0  0  0  0  0
  2  1  1  6
  3  4  1  0
  3  2  1  0
  4  5  2  0
  5  6  1  0
  7  6  2  0
  8  7  1  0
  9  4  1  0
  9  8  2  0
 10 19  1  0
 10  2  1  0
 11 10  2  0
 13 12  1  0
 14 13  2  0
 15 14  1  0
 16 15  2  0
 16 22  1  0
 18 17  1  1
 17 16  1  0
 18 19  1  0
 20 18  1  0
 21 20  2  0
 22 23  2  0
 23 13  1  0
 24 25  1  0
 26 25  1  6
 26 28  1  0
 26 27  1  0
 27 20  1  0
 28 30  1  0
 29 28  2  0
M  END
$$$$
