FYS.pdb
     RDKit          3D

 30 31  0  0  1  0  0  0  0  0999 V2000
   10.4748  -16.9148   20.0176 N   0  0  0  0  0  0  0  0  0  0  0  0
    9.8495  -16.0321   20.9524 C   0  0  1  0  0  0  0  0  0  0  0  0
    8.3323  -16.0960   20.8422 C   0  0  0  0  0  0  0  0  0  0  0  0
    7.8730  -14.7076   20.5857 C   0  0  0  0  0  0  0  0  0  0  0  0
    6.9781  -14.4371   19.5752 C   0  0  0  0  0  0  0  0  0  0  0  0
    6.5428  -13.1436   19.3267 C   0  0  0  0  0  0  0  0  0  0  0  0
    7.0120  -12.1057   20.1032 C   0  0  0  0  0  0  0  0  0  0  0  0
    7.9054  -12.3931   21.1085 C   0  0  0  0  0  0  0  0  0  0  0  0
    8.3526  -13.6830   21.3719 C   0  0  0  0  0  0  0  0  0  0  0  0
   10.2130  -16.3318   22.3578 C   0  0  0  0  0  0  0  0  0  0  0  0
   11.0342  -17.2038   22.6927 O   0  0  0  0  0  0  0  0  0  0  0  0
   10.5615  -15.2483   31.0572 O   0  0  0  0  0  0  0  0  0  0  0  0
   10.2200  -15.1484   29.7291 C   0  0  0  0  0  0  0  0  0  0  0  0
    9.3918  -16.0928   29.1599 C   0  0  0  0  0  0  0  0  0  0  0  0
    9.0302  -16.0182   27.8231 C   0  0  0  0  0  0  0  0  0  0  0  0
    9.5156  -14.9734   27.0594 C   0  0  0  0  0  0  0  0  0  0  0  0
    9.1846  -14.8089   25.6211 C   0  0  0  0  0  0  0  0  0  0  0  0
   10.0689  -15.6989   24.7492 C   0  0  2  0  0  0  0  0  0  0  0  0
    9.5864  -15.5774   23.3946 N   0  0  0  0  0  0  0  0  0  0  0  0
    9.8961  -17.0963   25.1952 C   0  0  0  0  0  0  0  0  0  0  0  0
    8.7396  -17.6432   25.2040 O   0  0  0  0  0  0  0  0  0  0  0  0
   10.3377  -14.0435   27.6415 C   0  0  0  0  0  0  0  0  0  0  0  0
   10.7019  -14.1076   28.9629 C   0  0  0  0  0  0  0  0  0  0  0  0
   12.6886  -19.5471   24.6262 O   0  0  0  0  0  0  0  0  0  0  0  0
   11.6177  -20.1700   25.2460 C   0  0  0  0  0  0  0  0  0  0  0  0
   10.8959  -19.1776   26.1522 C   0  0  2  0  0  0  0  0  0  0  0  0
   11.0268  -17.8349   25.6175 N   0  0  0  0  0  0  0  0  0  0  0  0
   11.3447  -19.2686   27.5510 C   0  0  0  0  0  0  0  0  0  0  0  0
   11.7791  -18.3036   28.2130 O   0  0  0  0  0  0  0  0  0  0  0  0
   11.2786  -20.5097   28.1688 O   0  0  0  0  0  0  0  0  0  0  0  0
  2  1  1  6
  3  4  1  0
  3  2  1  0
  4  5  2  0
  5  6  1  0
  7  6  2  0
  8  7  1  0
  9  4  1  0
  9  8  2  0
 10 19  1  0
 10  2  1  0
 11 10  2  0
 13 12  1  0
 14 13  2  0
 15 14  1  0
 16 15  2  0
 16 22  1  0
 18 17  1  1
 17 16  1  0
 18 19  1  0
 20 18  1  0
 21 20  2  0
 22 23  2  0
 23 13  1  0
 24 25  1  0
 26 25  1  6
 26 28  1  0
 26 27  1  0
 27 20  1  0
 28 30  1  0
 29 28  2  0
M  END
$$$$
