FYS.pdb
     RDKit          3D

 30 31  0  0  1  0  0  0  0  0999 V2000
    8.2268  -17.2284   20.7208 N   0  0  0  0  0  0  0  0  0  0  0  0
    9.5113  -16.6414   20.4987 C   0  0  1  0  0  0  0  0  0  0  0  0
    9.4339  -15.5128   19.4797 C   0  0  0  0  0  0  0  0  0  0  0  0
    8.4314  -14.5487   19.9992 C   0  0  0  0  0  0  0  0  0  0  0  0
    7.0895  -14.8555   19.9921 C   0  0  0  0  0  0  0  0  0  0  0  0
    6.1445  -13.9619   20.4746 C   0  0  0  0  0  0  0  0  0  0  0  0
    6.5513  -12.7422   20.9716 C   0  0  0  0  0  0  0  0  0  0  0  0
    7.8955  -12.4513   20.9714 C   0  0  0  0  0  0  0  0  0  0  0  0
    8.8565  -13.3344   20.4920 C   0  0  0  0  0  0  0  0  0  0  0  0
   10.1137  -16.0915   21.7364 C   0  0  0  0  0  0  0  0  0  0  0  0
   11.1791  -15.4503   21.7657 O   0  0  0  0  0  0  0  0  0  0  0  0
   10.8584  -14.3076   30.2988 O   0  0  0  0  0  0  0  0  0  0  0  0
   10.3795  -14.6230   29.0491 C   0  0  0  0  0  0  0  0  0  0  0  0
   10.2360  -15.9445   28.6818 C   0  0  0  0  0  0  0  0  0  0  0  0
    9.7556  -16.2930   27.4284 C   0  0  0  0  0  0  0  0  0  0  0  0
    9.4185  -15.2880   26.5415 C   0  0  0  0  0  0  0  0  0  0  0  0
    8.8964  -15.5620   25.1785 C   0  0  0  0  0  0  0  0  0  0  0  0
   10.0360  -15.8442   24.2007 C   0  0  2  0  0  0  0  0  0  0  0  0
    9.4350  -16.3074   22.9732 N   0  0  0  0  0  0  0  0  0  0  0  0
   10.8676  -16.9267   24.7647 C   0  0  0  0  0  0  0  0  0  0  0  0
   11.5605  -16.7373   25.8232 O   0  0  0  0  0  0  0  0  0  0  0  0
    9.5675  -13.9798   26.9232 C   0  0  0  0  0  0  0  0  0  0  0  0
   10.0418  -13.6235   28.1605 C   0  0  0  0  0  0  0  0  0  0  0  0
   11.1497  -20.5340   22.6939 O   0  0  0  0  0  0  0  0  0  0  0  0
   11.1514  -20.6104   24.0771 C   0  0  0  0  0  0  0  0  0  0  0  0
   11.6551  -19.2969   24.6670 C   0  0  2  0  0  0  0  0  0  0  0  0
   10.8951  -18.1872   24.1221 N   0  0  0  0  0  0  0  0  0  0  0  0
   13.1055  -19.1229   24.4877 C   0  0  0  0  0  0  0  0  0  0  0  0
   13.6258  -18.1950   23.8347 O   0  0  0  0  0  0  0  0  0  0  0  0
   13.9442  -20.0535   25.0853 O   0  0  0  0  0  0  0  0  0  0  0  0
  2  1  1  1
  3  4  1  0
  3  2  1  0
  4  5  2  0
  5  6  1  0
  7  6  2  0
  8  7  1  0
  9  4  1  0
  9  8  2  0
 10 19  1  0
 10  2  1  0
 11 10  2  0
 13 12  1  0
 14 13  2  0
 15 14  1  0
 16 15  2  0
 16 22  1  0
 18 17  1  1
 17 16  1  0
 18 19  1  0
 20 18  1  0
 21 20  2  0
 22 23  2  0
 23 13  1  0
 24 25  1  0
 26 25  1  6
 26 28  1  0
 26 27  1  0
 27 20  1  0
 28 30  1  0
 29 28  2  0
M  END
$$$$
