FYS.pdb
     RDKit          3D

 30 31  0  0  1  0  0  0  0  0999 V2000
    6.3383  -18.2319   26.2918 N   0  0  0  0  0  0  0  0  0  0  0  0
    6.6031  -16.8577   25.9999 C   0  0  1  0  0  0  0  0  0  0  0  0
    7.4914  -16.2284   27.0644 C   0  0  0  0  0  0  0  0  0  0  0  0
    7.2987  -14.7603   26.9551 C   0  0  0  0  0  0  0  0  0  0  0  0
    8.3786  -13.9066   26.9485 C   0  0  0  0  0  0  0  0  0  0  0  0
    8.2098  -12.5335   26.8473 C   0  0  0  0  0  0  0  0  0  0  0  0
    6.9389  -12.0084   26.7514 C   0  0  0  0  0  0  0  0  0  0  0  0
    5.8709  -12.8749   26.7594 C   0  0  0  0  0  0  0  0  0  0  0  0
    6.0212  -14.2535   26.8601 C   0  0  0  0  0  0  0  0  0  0  0  0
    7.2659  -16.6661   24.6880 C   0  0  0  0  0  0  0  0  0  0  0  0
    8.0985  -17.4555   24.2077 O   0  0  0  0  0  0  0  0  0  0  0  0
    8.9095  -13.1575   16.8511 O   0  0  0  0  0  0  0  0  0  0  0  0
    8.4526  -13.3532   18.1331 C   0  0  0  0  0  0  0  0  0  0  0  0
    8.8969  -12.5377   19.1526 C   0  0  0  0  0  0  0  0  0  0  0  0
    8.4539  -12.7109   20.4552 C   0  0  0  0  0  0  0  0  0  0  0  0
    7.5509  -13.7227   20.7224 C   0  0  0  0  0  0  0  0  0  0  0  0
    7.0196  -13.9858   22.0840 C   0  0  0  0  0  0  0  0  0  0  0  0
    7.5306  -15.3206   22.6241 C   0  0  2  0  0  0  0  0  0  0  0  0
    6.9329  -15.5073   23.9242 N   0  0  0  0  0  0  0  0  0  0  0  0
    8.9959  -15.2221   22.7806 C   0  0  0  0  0  0  0  0  0  0  0  0
    9.5115  -14.4233   23.6366 O   0  0  0  0  0  0  0  0  0  0  0  0
    7.1198  -14.5239   19.6969 C   0  0  0  0  0  0  0  0  0  0  0  0
    7.5515  -14.3615   18.4046 C   0  0  0  0  0  0  0  0  0  0  0  0
   11.3634  -18.1790   21.3396 O   0  0  0  0  0  0  0  0  0  0  0  0
   11.9134  -17.2708   22.2295 C   0  0  0  0  0  0  0  0  0  0  0  0
   11.2805  -15.8980   22.0248 C   0  0  2  0  0  0  0  0  0  0  0  0
    9.8357  -16.0232   21.9711 N   0  0  0  0  0  0  0  0  0  0  0  0
   11.8254  -15.2006   20.8488 C   0  0  0  0  0  0  0  0  0  0  0  0
   11.1528  -14.8853   19.8456 O   0  0  0  0  0  0  0  0  0  0  0  0
   13.1746  -14.8749   20.8615 O   0  0  0  0  0  0  0  0  0  0  0  0
  2  1  1  1
  3  4  1  0
  3  2  1  0
  4  5  2  0
  5  6  1  0
  7  6  2  0
  8  7  1  0
  9  4  1  0
  9  8  2  0
 10 19  1  0
 10  2  1  0
 11 10  2  0
 13 12  1  0
 14 13  2  0
 15 14  1  0
 16 15  2  0
 16 22  1  0
 18 17  1  1
 17 16  1  0
 18 19  1  0
 20 18  1  0
 21 20  2  0
 22 23  2  0
 23 13  1  0
 24 25  1  0
 26 25  1  6
 26 28  1  0
 26 27  1  0
 27 20  1  0
 28 30  1  0
 29 28  2  0
M  END
$$$$
