FYS.pdb
     RDKit          3D

 30 31  0  0  1  0  0  0  0  0999 V2000
    7.1459  -19.1080   27.2339 N   0  0  0  0  0  0  0  0  0  0  0  0
    7.7789  -17.8388   27.0540 C   0  0  1  0  0  0  0  0  0  0  0  0
    9.1262  -17.7885   27.7614 C   0  0  0  0  0  0  0  0  0  0  0  0
    9.3997  -16.3557   28.0382 C   0  0  0  0  0  0  0  0  0  0  0  0
    9.1532  -15.8189   29.2816 C   0  0  0  0  0  0  0  0  0  0  0  0
    9.4047  -14.4815   29.5507 C   0  0  0  0  0  0  0  0  0  0  0  0
    9.9110  -13.6701   28.5580 C   0  0  0  0  0  0  0  0  0  0  0  0
   10.1516  -14.2220   27.3215 C   0  0  0  0  0  0  0  0  0  0  0  0
    9.9056  -15.5599   27.0338 C   0  0  0  0  0  0  0  0  0  0  0  0
    8.0055  -17.5066   25.6273 C   0  0  0  0  0  0  0  0  0  0  0  0
    8.4882  -18.2973   24.7975 O   0  0  0  0  0  0  0  0  0  0  0  0
    7.5508  -12.9989   18.1507 O   0  0  0  0  0  0  0  0  0  0  0  0
    7.4632  -13.3623   19.4739 C   0  0  0  0  0  0  0  0  0  0  0  0
    8.2698  -12.7490   20.4094 C   0  0  0  0  0  0  0  0  0  0  0  0
    8.2037  -13.0945   21.7508 C   0  0  0  0  0  0  0  0  0  0  0  0
    7.3092  -14.0724   22.1433 C   0  0  0  0  0  0  0  0  0  0  0  0
    7.1663  -14.5096   23.5554 C   0  0  0  0  0  0  0  0  0  0  0  0
    7.8462  -15.8587   23.7836 C   0  0  2  0  0  0  0  0  0  0  0  0
    7.6502  -16.2016   25.1716 N   0  0  0  0  0  0  0  0  0  0  0  0
    9.2919  -15.6931   23.5310 C   0  0  0  0  0  0  0  0  0  0  0  0
   10.0283  -15.0355   24.3446 O   0  0  0  0  0  0  0  0  0  0  0  0
    6.5151  -14.6715   21.2000 C   0  0  0  0  0  0  0  0  0  0  0  0
    6.5720  -14.3376   19.8704 C   0  0  0  0  0  0  0  0  0  0  0  0
   11.5154  -18.4477   22.6603 O   0  0  0  0  0  0  0  0  0  0  0  0
   12.0638  -17.1938   22.8749 C   0  0  0  0  0  0  0  0  0  0  0  0
   11.2823  -16.1460   22.0886 C   0  0  2  0  0  0  0  0  0  0  0  0
    9.8648  -16.2707   22.3731 N   0  0  0  0  0  0  0  0  0  0  0  0
   11.5699  -16.1996   20.6462 C   0  0  0  0  0  0  0  0  0  0  0  0
   10.7020  -16.3557   19.7626 O   0  0  0  0  0  0  0  0  0  0  0  0
   12.8931  -16.0677   20.2483 O   0  0  0  0  0  0  0  0  0  0  0  0
  2  1  1  6
  3  4  1  0
  3  2  1  0
  4  5  2  0
  5  6  1  0
  7  6  2  0
  8  7  1  0
  9  4  1  0
  9  8  2  0
 10 19  1  0
 10  2  1  0
 11 10  2  0
 13 12  1  0
 14 13  2  0
 15 14  1  0
 16 15  2  0
 16 22  1  0
 18 17  1  1
 17 16  1  0
 18 19  1  0
 20 18  1  0
 21 20  2  0
 22 23  2  0
 23 13  1  0
 24 25  1  0
 26 25  1  1
 26 28  1  0
 26 27  1  0
 27 20  1  0
 28 30  1  0
 29 28  2  0
M  END
$$$$
