LID.pdb
     RDKit          3D

 25 24  0  0  1  0  0  0  0  0999 V2000
   20.4422  -16.3073  -19.5919 C   0  0  0  0  0  0  0  0  0  0  0  0
   19.4106  -16.1795  -18.4643 C   0  0  2  0  0  0  0  0  0  0  0  0
   18.1089  -15.7273  -19.0783 C   0  0  0  0  0  0  0  0  0  0  0  0
   19.9273  -15.1126  -17.5530 C   0  0  0  0  0  0  0  0  0  0  0  0
   21.2449  -15.4736  -16.9652 C   0  0  2  0  0  0  0  0  0  0  0  0
   21.2366  -16.6680  -16.1527 N   0  0  0  0  0  0  0  0  0  0  0  0
   21.6952  -14.3559  -16.0917 C   0  0  0  0  0  0  0  0  0  0  0  0
   21.1313  -14.2124  -14.9613 O   0  0  0  0  0  0  0  0  0  0  0  0
   26.6703  -13.7379  -14.8109 C   0  0  0  0  0  0  0  0  0  0  0  0
   25.1840  -13.6749  -14.8461 C   0  0  0  0  0  0  0  0  0  0  0  0
   24.5622  -12.4128  -15.2805 C   0  0  2  0  0  0  0  0  0  0  0  0
   25.1989  -11.1730  -14.6784 C   0  0  0  0  0  0  0  0  0  0  0  0
   23.1077  -12.3721  -15.4771 C   0  0  2  0  0  0  0  0  0  0  0  0
   22.7092  -13.4419  -16.4362 N   0  0  0  0  0  0  0  0  0  0  0  0
   22.4464  -11.1253  -15.8759 C   0  0  0  0  0  0  0  0  0  0  0  0
   22.5277  -10.7199  -17.1058 O   0  0  0  0  0  0  0  0  0  0  0  0
   21.6760  -10.2462  -15.0748 N   0  0  0  0  0  0  0  0  0  0  0  0
   21.1541   -8.9930  -15.5719 C   0  0  1  0  0  0  0  0  0  0  0  0
   19.6366   -8.9719  -15.5597 C   0  0  0  0  0  0  0  0  0  0  0  0
   19.0706   -7.6754  -15.9492 C   0  0  0  0  0  0  0  0  0  0  0  0
   19.1827   -7.1865  -17.0977 O   0  0  0  0  0  0  0  0  0  0  0  0
   21.5874   -7.8712  -14.7205 C   0  0  0  0  0  0  0  0  0  0  0  0
   22.2424   -8.0878  -13.5011 O   0  0  0  0  0  0  0  0  0  0  0  0
   18.3744   -6.9517  -14.9969 O   0  0  0  0  0  0  0  0  0  0  0  0
   21.4120   -6.6613  -15.0061 O   0  0  0  0  0  0  0  0  0  0  0  0
  2  1  1  6
  2  3  1  0
  4  2  1  0
  4  5  1  0
  5  7  1  0
  5  6  1  1
  7  8  2  0
  9 10  1  0
 10 11  1  0
 11 12  1  1
 13 11  1  0
 14  7  1  0
 13 14  1  6
 15 13  1  0
 15 16  2  0
 17 15  1  0
 18 17  1  0
 18 19  1  1
 20 19  1  0
 20 24  1  0
 21 20  2  0
 22 18  1  0
 22 23  1  0
 25 22  2  0
M  END
$$$$
