LID.pdb
     RDKit          3D

 25 24  0  0  1  0  0  0  0  0999 V2000
   17.4783   -9.9450  -20.0203 C   0  0  0  0  0  0  0  0  0  0  0  0
   16.4082   -9.7498  -18.9392 C   0  0  2  0  0  0  0  0  0  0  0  0
   15.5042   -8.6259  -19.3817 C   0  0  0  0  0  0  0  0  0  0  0  0
   17.1424   -9.3396  -17.7029 C   0  0  0  0  0  0  0  0  0  0  0  0
   18.1326  -10.3649  -17.2784 C   0  0  2  0  0  0  0  0  0  0  0  0
   17.5557  -11.6033  -16.8090 N   0  0  0  0  0  0  0  0  0  0  0  0
   18.9391   -9.8081  -16.1583 C   0  0  0  0  0  0  0  0  0  0  0  0
   18.4148   -9.7719  -15.0007 O   0  0  0  0  0  0  0  0  0  0  0  0
   23.3188  -11.7171  -14.4369 C   0  0  0  0  0  0  0  0  0  0  0  0
   22.0608  -10.9473  -14.6340 C   0  0  0  0  0  0  0  0  0  0  0  0
   22.1732   -9.4946  -14.8470 C   0  0  2  0  0  0  0  0  0  0  0  0
   23.2156   -8.8223  -13.9715 C   0  0  0  0  0  0  0  0  0  0  0  0
   20.9541   -8.7240  -15.1225 C   0  0  2  0  0  0  0  0  0  0  0  0
   20.2509   -9.3158  -16.2966 N   0  0  0  0  0  0  0  0  0  0  0  0
   21.0199   -7.2707  -15.3087 C   0  0  0  0  0  0  0  0  0  0  0  0
   21.5817   -6.7840  -16.3722 O   0  0  0  0  0  0  0  0  0  0  0  0
   20.5236   -6.2540  -14.4553 N   0  0  0  0  0  0  0  0  0  0  0  0
   20.6841   -4.8465  -14.7436 C   0  0  1  0  0  0  0  0  0  0  0  0
   19.4531   -4.0490  -14.3532 C   0  0  0  0  0  0  0  0  0  0  0  0
   19.5792   -2.6136  -14.6298 C   0  0  0  0  0  0  0  0  0  0  0  0
   20.1979   -2.1488  -15.6156 O   0  0  0  0  0  0  0  0  0  0  0  0
   21.8032   -4.2786  -13.9715 C   0  0  0  0  0  0  0  0  0  0  0  0
   22.3375   -4.9428  -12.8597 O   0  0  0  0  0  0  0  0  0  0  0  0
   18.9825   -1.7228  -13.7546 O   0  0  0  0  0  0  0  0  0  0  0  0
   22.3574   -3.1835  -14.2359 O   0  0  0  0  0  0  0  0  0  0  0  0
  2  1  1  6
  2  3  1  0
  4  2  1  0
  4  5  1  0
  5  7  1  0
  5  6  1  1
  7  8  2  0
  9 10  1  0
 10 11  1  0
 11 12  1  1
 13 11  1  0
 14  7  1  0
 13 14  1  6
 15 13  1  0
 15 16  2  0
 17 15  1  0
 18 17  1  0
 18 19  1  1
 20 19  1  0
 20 24  1  0
 21 20  2  0
 22 18  1  0
 22 23  1  0
 25 22  2  0
M  END
$$$$
