LID.pdb
     RDKit          3D

 25 24  0  0  1  0  0  0  0  0999 V2000
   27.3149  -12.9496  -14.9722 C   0  0  0  0  0  0  0  0  0  0  0  0
   27.3089  -12.4991  -16.4382 C   0  0  2  0  0  0  0  0  0  0  0  0
   28.6173  -11.7997  -16.7117 C   0  0  0  0  0  0  0  0  0  0  0  0
   26.1862  -11.5194  -16.5629 C   0  0  0  0  0  0  0  0  0  0  0  0
   24.8627  -12.1588  -16.3360 C   0  0  2  0  0  0  0  0  0  0  0  0
   24.6034  -13.3181  -17.1579 N   0  0  0  0  0  0  0  0  0  0  0  0
   23.7986  -11.1633  -16.6389 C   0  0  0  0  0  0  0  0  0  0  0  0
   23.4952  -10.9602  -17.8567 O   0  0  0  0  0  0  0  0  0  0  0  0
   18.1850  -10.3037  -16.0686 C   0  0  0  0  0  0  0  0  0  0  0  0
   19.4531   -9.5286  -16.1419 C   0  0  0  0  0  0  0  0  0  0  0  0
   20.7178  -10.2704  -16.0059 C   0  0  2  0  0  0  0  0  0  0  0  0
   20.6526  -11.4241  -15.0210 C   0  0  0  0  0  0  0  0  0  0  0  0
   21.9829   -9.5271  -16.0606 C   0  0  2  0  0  0  0  0  0  0  0  0
   23.1021  -10.4276  -15.6611 N   0  0  0  0  0  0  0  0  0  0  0  0
   22.1312   -8.2589  -15.3391 C   0  0  0  0  0  0  0  0  0  0  0  0
   22.4466   -8.2688  -14.0805 O   0  0  0  0  0  0  0  0  0  0  0  0
   21.9830   -6.9419  -15.8410 N   0  0  0  0  0  0  0  0  0  0  0  0
   22.1717   -5.7679  -15.0188 C   0  0  1  0  0  0  0  0  0  0  0  0
   22.0736   -4.4904  -15.8323 C   0  0  0  0  0  0  0  0  0  0  0  0
   22.1907   -3.2741  -15.0201 C   0  0  0  0  0  0  0  0  0  0  0  0
   21.3697   -2.3283  -15.0650 O   0  0  0  0  0  0  0  0  0  0  0  0
   21.1247   -5.6786  -13.9860 C   0  0  0  0  0  0  0  0  0  0  0  0
   19.8692   -6.2748  -14.1624 O   0  0  0  0  0  0  0  0  0  0  0  0
   23.2665   -3.1640  -14.1564 O   0  0  0  0  0  0  0  0  0  0  0  0
   21.2636   -5.0784  -12.8920 O   0  0  0  0  0  0  0  0  0  0  0  0
  2  1  1  1
  2  3  1  0
  4  2  1  0
  4  5  1  0
  5  7  1  0
  5  6  1  6
  7  8  2  0
  9 10  1  0
 10 11  1  0
 11 12  1  1
 13 11  1  0
 14  7  1  0
 13 14  1  1
 15 13  1  0
 15 16  2  0
 17 15  1  0
 18 17  1  0
 18 19  1  6
 20 19  1  0
 20 24  1  0
 21 20  2  0
 22 18  1  0
 22 23  1  0
 25 22  2  0
M  END
$$$$
