LID.pdb
     RDKit          3D

 25 24  0  0  1  0  0  0  0  0999 V2000
   29.3023  -12.7643  -15.6208 C   0  0  0  0  0  0  0  0  0  0  0  0
   28.7957  -13.2493  -16.9846 C   0  0  2  0  0  0  0  0  0  0  0  0
   29.5852  -12.5328  -18.0520 C   0  0  0  0  0  0  0  0  0  0  0  0
   27.3619  -12.8321  -17.0629 C   0  0  0  0  0  0  0  0  0  0  0  0
   26.5257  -13.5221  -16.0448 C   0  0  2  0  0  0  0  0  0  0  0  0
   26.5199  -14.9632  -16.1444 N   0  0  0  0  0  0  0  0  0  0  0  0
   25.1171  -13.0689  -16.2038 C   0  0  0  0  0  0  0  0  0  0  0  0
   24.4376  -13.5461  -17.1665 O   0  0  0  0  0  0  0  0  0  0  0  0
   20.0316  -13.1245  -13.5063 C   0  0  0  0  0  0  0  0  0  0  0  0
   20.8522  -12.2295  -14.3664 C   0  0  0  0  0  0  0  0  0  0  0  0
   22.2204  -12.6627  -14.6963 C   0  0  2  0  0  0  0  0  0  0  0  0
   22.9353  -13.3670  -13.5571 C   0  0  0  0  0  0  0  0  0  0  0  0
   23.0455  -11.8050  -15.5563 C   0  0  2  0  0  0  0  0  0  0  0  0
   24.4839  -12.1415  -15.3544 N   0  0  0  0  0  0  0  0  0  0  0  0
   22.9018  -10.3462  -15.5078 C   0  0  0  0  0  0  0  0  0  0  0  0
   23.6451   -9.6539  -14.7005 O   0  0  0  0  0  0  0  0  0  0  0  0
   22.0270   -9.5257  -16.2626 N   0  0  0  0  0  0  0  0  0  0  0  0
   22.0089   -8.0853  -16.1404 C   0  0  1  0  0  0  0  0  0  0  0  0
   22.1969   -7.4050  -17.4840 C   0  0  0  0  0  0  0  0  0  0  0  0
   22.1735   -5.9402  -17.4016 C   0  0  0  0  0  0  0  0  0  0  0  0
   21.9959   -5.3082  -16.3341 O   0  0  0  0  0  0  0  0  0  0  0  0
   20.7100   -7.6205  -15.6228 C   0  0  0  0  0  0  0  0  0  0  0  0
   20.6070   -6.4704  -14.8294 O   0  0  0  0  0  0  0  0  0  0  0  0
   22.3578   -5.2155  -18.5662 O   0  0  0  0  0  0  0  0  0  0  0  0
   19.6169   -8.1978  -15.8418 O   0  0  0  0  0  0  0  0  0  0  0  0
  2  1  1  1
  2  3  1  0
  4  2  1  0
  4  5  1  0
  5  7  1  0
  5  6  1  6
  7  8  2  0
  9 10  1  0
 10 11  1  0
 11 12  1  1
 13 11  1  0
 14  7  1  0
 13 14  1  1
 15 13  1  0
 15 16  2  0
 17 15  1  0
 18 17  1  0
 18 19  1  6
 20 19  1  0
 20 24  1  0
 21 20  2  0
 22 18  1  0
 22 23  1  0
 25 22  2  0
M  END
$$$$
