LID.pdb
     RDKit          3D

 25 24  0  0  1  0  0  0  0  0999 V2000
   28.1303  -10.6397  -16.1519 C   0  0  0  0  0  0  0  0  0  0  0  0
   27.1314  -11.6564  -16.7178 C   0  0  2  0  0  0  0  0  0  0  0  0
   27.7278  -12.2393  -17.9751 C   0  0  0  0  0  0  0  0  0  0  0  0
   25.9035  -10.8771  -17.0654 C   0  0  0  0  0  0  0  0  0  0  0  0
   25.2384  -10.3196  -15.8575 C   0  0  2  0  0  0  0  0  0  0  0  0
   24.8787  -11.3003  -14.8597 N   0  0  0  0  0  0  0  0  0  0  0  0
   23.9803   -9.6456  -16.2791 C   0  0  0  0  0  0  0  0  0  0  0  0
   23.9846   -8.9942  -17.3709 O   0  0  0  0  0  0  0  0  0  0  0  0
   18.3712   -9.4220  -17.5397 C   0  0  0  0  0  0  0  0  0  0  0  0
   19.0902   -9.4196  -16.2370 C   0  0  0  0  0  0  0  0  0  0  0  0
   20.4735   -9.9241  -16.2175 C   0  0  2  0  0  0  0  0  0  0  0  0
   20.6313  -11.2633  -15.5198 C   0  0  0  0  0  0  0  0  0  0  0  0
   21.5733   -8.9655  -16.0509 C   0  0  2  0  0  0  0  0  0  0  0  0
   22.7794   -9.6814  -15.5449 N   0  0  0  0  0  0  0  0  0  0  0  0
   21.3863   -7.7524  -15.2482 C   0  0  0  0  0  0  0  0  0  0  0  0
   21.6909   -7.7633  -13.9870 O   0  0  0  0  0  0  0  0  0  0  0  0
   20.9027   -6.4885  -15.6688 N   0  0  0  0  0  0  0  0  0  0  0  0
   20.7342   -5.3761  -14.7609 C   0  0  1  0  0  0  0  0  0  0  0  0
   21.9604   -4.4821  -14.7340 C   0  0  0  0  0  0  0  0  0  0  0  0
   21.7968   -3.2972  -13.8844 C   0  0  0  0  0  0  0  0  0  0  0  0
   20.7777   -3.0777  -13.1888 O   0  0  0  0  0  0  0  0  0  0  0  0
   19.6115   -4.5208  -15.1840 C   0  0  0  0  0  0  0  0  0  0  0  0
   18.9160   -4.7619  -16.3761 O   0  0  0  0  0  0  0  0  0  0  0  0
   22.8236   -2.3700  -13.8482 O   0  0  0  0  0  0  0  0  0  0  0  0
   19.1944   -3.5323  -14.5321 O   0  0  0  0  0  0  0  0  0  0  0  0
  2  1  1  6
  2  3  1  0
  4  2  1  0
  4  5  1  0
  5  7  1  0
  5  6  1  1
  7  8  2  0
  9 10  1  0
 10 11  1  0
 11 12  1  1
 13 11  1  0
 14  7  1  0
 13 14  1  1
 15 13  1  0
 15 16  2  0
 17 15  1  0
 18 17  1  0
 18 19  1  6
 20 19  1  0
 20 24  1  0
 21 20  2  0
 22 18  1  0
 22 23  1  0
 25 22  2  0
M  END
$$$$
