LID.pdb
     RDKit          3D

 25 24  0  0  1  0  0  0  0  0999 V2000
   15.2428  -27.3584   -3.6927 C   0  0  0  0  0  0  0  0  0  0  0  0
   16.4314  -27.8491   -4.5282 C   0  0  2  0  0  0  0  0  0  0  0  0
   16.0234  -29.1367   -5.2002 C   0  0  0  0  0  0  0  0  0  0  0  0
   17.5328  -28.1239   -3.5550 C   0  0  0  0  0  0  0  0  0  0  0  0
   17.9972  -26.8845   -2.8764 C   0  0  2  0  0  0  0  0  0  0  0  0
   18.6578  -25.9343   -3.7410 N   0  0  0  0  0  0  0  0  0  0  0  0
   18.9731  -27.2622   -1.8181 C   0  0  0  0  0  0  0  0  0  0  0  0
   20.1644  -27.5344   -2.1690 O   0  0  0  0  0  0  0  0  0  0  0  0
   20.5292  -24.1797    1.9293 C   0  0  0  0  0  0  0  0  0  0  0  0
   20.3724  -25.2973    0.9595 C   0  0  0  0  0  0  0  0  0  0  0  0
   19.9137  -26.5962    1.4798 C   0  0  2  0  0  0  0  0  0  0  0  0
   20.4890  -26.9536    2.8386 C   0  0  0  0  0  0  0  0  0  0  0  0
   19.7196  -27.7063    0.5385 C   0  0  2  0  0  0  0  0  0  0  0  0
   18.6628  -27.3387   -0.4469 N   0  0  0  0  0  0  0  0  0  0  0  0
   19.4398  -29.0587    1.0322 C   0  0  0  0  0  0  0  0  0  0  0  0
   18.2546  -29.3491    1.4733 O   0  0  0  0  0  0  0  0  0  0  0  0
   20.3188  -30.1684    1.0955 N   0  0  0  0  0  0  0  0  0  0  0  0
   19.9683  -31.4043    1.7586 C   0  0  1  0  0  0  0  0  0  0  0  0
   21.0190  -32.4773    1.5392 C   0  0  0  0  0  0  0  0  0  0  0  0
   20.6286  -33.7892    2.0677 C   0  0  0  0  0  0  0  0  0  0  0  0
   19.4984  -34.0342    2.5505 O   0  0  0  0  0  0  0  0  0  0  0  0
   19.8790  -31.2089    3.2163 C   0  0  0  0  0  0  0  0  0  0  0  0
   18.7796  -31.6716    3.9512 O   0  0  0  0  0  0  0  0  0  0  0  0
   21.5588  -34.8134    2.0316 O   0  0  0  0  0  0  0  0  0  0  0  0
   20.7542  -30.6284    3.9042 O   0  0  0  0  0  0  0  0  0  0  0  0
  2  1  1  1
  2  3  1  0
  4  2  1  0
  4  5  1  0
  5  7  1  0
  5  6  1  6
  7  8  2  0
  9 10  1  0
 10 11  1  0
 11 12  1  1
 13 11  1  0
 14  7  1  0
 13 14  1  6
 15 13  1  0
 15 16  2  0
 17 15  1  0
 18 17  1  0
 18 19  1  1
 20 19  1  0
 20 24  1  0
 21 20  2  0
 22 18  1  0
 22 23  1  0
 25 22  2  0
M  END
$$$$
