LID.pdb
     RDKit          3D

 25 24  0  0  1  0  0  0  0  0999 V2000
   24.9122  -40.2984   -5.5003 C   0  0  0  0  0  0  0  0  0  0  0  0
   26.4094  -40.5917   -5.6556 C   0  0  2  0  0  0  0  0  0  0  0  0
   26.7149  -41.8538   -4.8876 C   0  0  0  0  0  0  0  0  0  0  0  0
   27.1221  -39.4399   -5.0222 C   0  0  0  0  0  0  0  0  0  0  0  0
   26.8026  -38.1515   -5.6932 C   0  0  2  0  0  0  0  0  0  0  0  0
   27.4752  -37.9448   -6.9547 N   0  0  0  0  0  0  0  0  0  0  0  0
   27.2095  -37.0369   -4.7948 C   0  0  0  0  0  0  0  0  0  0  0  0
   28.4011  -36.6018   -4.8795 O   0  0  0  0  0  0  0  0  0  0  0  0
   25.0829  -32.4218   -4.8381 C   0  0  0  0  0  0  0  0  0  0  0  0
   25.8982  -33.6470   -4.6182 C   0  0  0  0  0  0  0  0  0  0  0  0
   26.0731  -34.1136   -3.2326 C   0  0  2  0  0  0  0  0  0  0  0  0
   26.2207  -32.9929   -2.2191 C   0  0  0  0  0  0  0  0  0  0  0  0
   26.8665  -35.3249   -2.9893 C   0  0  2  0  0  0  0  0  0  0  0  0
   26.3581  -36.4294   -3.8524 N   0  0  0  0  0  0  0  0  0  0  0  0
   27.0329  -35.8430   -1.6274 C   0  0  0  0  0  0  0  0  0  0  0  0
   26.0383  -36.4322   -1.0381 O   0  0  0  0  0  0  0  0  0  0  0  0
   28.1897  -35.8043   -0.8097 N   0  0  0  0  0  0  0  0  0  0  0  0
   28.1968  -36.2816    0.5549 C   0  0  1  0  0  0  0  0  0  0  0  0
   29.6020  -36.3288    1.1264 C   0  0  0  0  0  0  0  0  0  0  0  0
   29.6493  -36.8062    2.5130 C   0  0  0  0  0  0  0  0  0  0  0  0
   30.7110  -36.9357    3.1662 O   0  0  0  0  0  0  0  0  0  0  0  0
   27.4279  -35.3783    1.4290 C   0  0  0  0  0  0  0  0  0  0  0  0
   27.2788  -34.0184    1.1271 O   0  0  0  0  0  0  0  0  0  0  0  0
   28.4565  -37.1318    3.1349 O   0  0  0  0  0  0  0  0  0  0  0  0
   26.8577  -35.7391    2.4877 O   0  0  0  0  0  0  0  0  0  0  0  0
  2  1  1  1
  2  3  1  0
  4  2  1  0
  4  5  1  0
  5  7  1  0
  5  6  1  6
  7  8  2  0
  9 10  1  0
 10 11  1  0
 11 12  1  1
 13 11  1  0
 14  7  1  0
 13 14  1  6
 15 13  1  0
 15 16  2  0
 17 15  1  0
 18 17  1  0
 18 19  1  1
 20 19  1  0
 20 24  1  0
 21 20  2  0
 22 18  1  0
 22 23  1  0
 25 22  2  0
M  END
$$$$
