LID.pdb
     RDKit          3D

 25 24  0  0  1  0  0  0  0  0999 V2000
   15.3869   -9.7100  -18.1740 C   0  0  0  0  0  0  0  0  0  0  0  0
   16.5872  -10.6632  -18.1229 C   0  0  2  0  0  0  0  0  0  0  0  0
   16.0850  -12.0545  -18.4199 C   0  0  0  0  0  0  0  0  0  0  0  0
   17.0967  -10.6082  -16.7182 C   0  0  0  0  0  0  0  0  0  0  0  0
   18.4897  -11.1184  -16.6117 C   0  0  2  0  0  0  0  0  0  0  0  0
   18.6021  -12.4645  -16.0999 N   0  0  0  0  0  0  0  0  0  0  0  0
   19.2471  -10.2350  -15.6838 C   0  0  0  0  0  0  0  0  0  0  0  0
   18.9666  -10.2841  -14.4447 O   0  0  0  0  0  0  0  0  0  0  0  0
   24.0626  -10.7965  -14.6104 C   0  0  0  0  0  0  0  0  0  0  0  0
   22.6449  -10.3446  -14.5953 C   0  0  0  0  0  0  0  0  0  0  0  0
   22.3664   -8.9507  -14.9795 C   0  0  2  0  0  0  0  0  0  0  0  0
   23.3547   -7.9464  -14.4141 C   0  0  0  0  0  0  0  0  0  0  0  0
   20.9692   -8.5101  -15.0777 C   0  0  2  0  0  0  0  0  0  0  0  0
   20.2588   -9.3437  -16.0894 N   0  0  0  0  0  0  0  0  0  0  0  0
   20.6506   -7.1017  -15.3346 C   0  0  0  0  0  0  0  0  0  0  0  0
   20.7892   -6.6196  -16.5313 O   0  0  0  0  0  0  0  0  0  0  0  0
   20.1754   -6.1292  -14.4199 N   0  0  0  0  0  0  0  0  0  0  0  0
   19.8582   -4.7754  -14.8156 C   0  0  1  0  0  0  0  0  0  0  0  0
   18.6755   -4.2256  -14.0394 C   0  0  0  0  0  0  0  0  0  0  0  0
   18.2806   -2.8768  -14.4607 C   0  0  0  0  0  0  0  0  0  0  0  0
   18.7996   -2.2724  -15.4282 O   0  0  0  0  0  0  0  0  0  0  0  0
   20.9878   -3.8709  -14.5382 C   0  0  0  0  0  0  0  0  0  0  0  0
   21.3444   -2.8501  -15.4291 O   0  0  0  0  0  0  0  0  0  0  0  0
   17.2800   -2.2354  -13.7515 O   0  0  0  0  0  0  0  0  0  0  0  0
   21.7061   -3.9355  -13.5106 O   0  0  0  0  0  0  0  0  0  0  0  0
  2  1  1  1
  2  3  1  0
  4  2  1  0
  4  5  1  0
  5  7  1  0
  5  6  1  1
  7  8  2  0
  9 10  1  0
 10 11  1  0
 11 12  1  1
 13 11  1  0
 14  7  1  0
 13 14  1  6
 15 13  1  0
 15 16  2  0
 17 15  1  0
 18 17  1  0
 18 19  1  1
 20 19  1  0
 20 24  1  0
 21 20  2  0
 22 18  1  0
 22 23  1  0
 25 22  2  0
M  END
$$$$
