LID.pdb
     RDKit          3D

 25 24  0  0  1  0  0  0  0  0999 V2000
   29.3424  -19.3276    8.5646 C   0  0  0  0  0  0  0  0  0  0  0  0
   29.4968  -19.1894   10.0841 C   0  0  2  0  0  0  0  0  0  0  0  0
   30.9523  -18.9223   10.3780 C   0  0  0  0  0  0  0  0  0  0  0  0
   29.1087  -20.5139   10.6592 C   0  0  0  0  0  0  0  0  0  0  0  0
   27.6335  -20.6544   10.7857 C   0  0  2  0  0  0  0  0  0  0  0  0
   27.0196  -19.7486   11.7288 N   0  0  0  0  0  0  0  0  0  0  0  0
   27.3278  -22.0361   11.2466 C   0  0  0  0  0  0  0  0  0  0  0  0
   27.0461  -22.2113   12.4739 O   0  0  0  0  0  0  0  0  0  0  0  0
   24.2069  -26.8999    9.5636 C   0  0  0  0  0  0  0  0  0  0  0  0
   25.2232  -26.3202   10.4829 C   0  0  0  0  0  0  0  0  0  0  0  0
   25.8981  -25.0805   10.0634 C   0  0  2  0  0  0  0  0  0  0  0  0
   26.1708  -25.0017    8.5719 C   0  0  0  0  0  0  0  0  0  0  0  0
   26.9147  -24.4953   10.9465 C   0  0  2  0  0  0  0  0  0  0  0  0
   27.3303  -23.1679   10.4092 N   0  0  0  0  0  0  0  0  0  0  0  0
   28.1227  -25.2516   11.2924 C   0  0  0  0  0  0  0  0  0  0  0  0
   28.0149  -26.3852   11.9145 O   0  0  0  0  0  0  0  0  0  0  0  0
   29.4736  -24.9168   11.0252 N   0  0  0  0  0  0  0  0  0  0  0  0
   30.5816  -25.7353   11.4636 C   0  0  1  0  0  0  0  0  0  0  0  0
   31.8731  -24.9413   11.5348 C   0  0  0  0  0  0  0  0  0  0  0  0
   32.2938  -24.3989   10.2380 C   0  0  0  0  0  0  0  0  0  0  0  0
   31.6260  -24.5225    9.1848 O   0  0  0  0  0  0  0  0  0  0  0  0
   30.3433  -26.2546   12.8217 C   0  0  0  0  0  0  0  0  0  0  0  0
   31.0594  -27.3493   13.3233 O   0  0  0  0  0  0  0  0  0  0  0  0
   33.4940  -23.7127   10.1730 O   0  0  0  0  0  0  0  0  0  0  0  0
   29.5031  -25.7751   13.6220 O   0  0  0  0  0  0  0  0  0  0  0  0
  2  1  1  6
  2  3  1  0
  4  2  1  0
  4  5  1  0
  5  7  1  0
  5  6  1  1
  7  8  2  0
  9 10  1  0
 10 11  1  0
 11 12  1  6
 13 11  1  0
 14  7  1  0
 13 14  1  6
 15 13  1  0
 15 16  2  0
 17 15  1  0
 18 17  1  0
 18 19  1  1
 20 19  1  0
 20 24  1  0
 21 20  2  0
 22 18  1  0
 22 23  1  0
 25 22  2  0
M  END
$$$$
