LID.pdb
     RDKit          3D

 25 24  0  0  1  0  0  0  0  0999 V2000
   26.2032  -17.6204  -18.3448 C   0  0  0  0  0  0  0  0  0  0  0  0
   27.1281  -18.7967  -18.6806 C   0  0  2  0  0  0  0  0  0  0  0  0
   26.5461  -19.5163  -19.8721 C   0  0  0  0  0  0  0  0  0  0  0  0
   27.0941  -19.6999  -17.4894 C   0  0  0  0  0  0  0  0  0  0  0  0
   27.3285  -18.9576  -16.2221 C   0  0  2  0  0  0  0  0  0  0  0  0
   28.6125  -18.3014  -16.1355 N   0  0  0  0  0  0  0  0  0  0  0  0
   27.2541  -19.9203  -15.0896 C   0  0  0  0  0  0  0  0  0  0  0  0
   26.5521  -20.9698  -15.2385 O   0  0  0  0  0  0  0  0  0  0  0  0
   31.4309  -21.5568  -12.1335 C   0  0  0  0  0  0  0  0  0  0  0  0
   30.1292  -21.4167  -12.8407 C   0  0  0  0  0  0  0  0  0  0  0  0
   28.9703  -20.9568  -12.0573 C   0  0  2  0  0  0  0  0  0  0  0  0
   28.8823  -21.5681  -10.6704 C   0  0  0  0  0  0  0  0  0  0  0  0
   27.6976  -20.7198  -12.7502 C   0  0  2  0  0  0  0  0  0  0  0  0
   27.9128  -19.7448  -13.8577 N   0  0  0  0  0  0  0  0  0  0  0  0
   26.5076  -20.3084  -11.9982 C   0  0  0  0  0  0  0  0  0  0  0  0
   26.4560  -19.1217  -11.4760 O   0  0  0  0  0  0  0  0  0  0  0  0
   25.3279  -21.0526  -11.7478 N   0  0  0  0  0  0  0  0  0  0  0  0
   24.2969  -20.5988  -10.8416 C   0  0  1  0  0  0  0  0  0  0  0  0
   22.9713  -21.2882  -11.1081 C   0  0  0  0  0  0  0  0  0  0  0  0
   22.2275  -20.7033  -12.2295 C   0  0  0  0  0  0  0  0  0  0  0  0
   22.5111  -19.5986  -12.7490 O   0  0  0  0  0  0  0  0  0  0  0  0
   24.6507  -20.9141   -9.4465 C   0  0  0  0  0  0  0  0  0  0  0  0
   25.5910  -21.9050   -9.1354 O   0  0  0  0  0  0  0  0  0  0  0  0
   21.1535  -21.4094  -12.7428 O   0  0  0  0  0  0  0  0  0  0  0  0
   24.1546  -20.3391   -8.4467 O   0  0  0  0  0  0  0  0  0  0  0  0
  2  1  1  1
  2  3  1  0
  4  2  1  0
  4  5  1  0
  5  7  1  0
  5  6  1  6
  7  8  2  0
  9 10  1  0
 10 11  1  0
 11 12  1  1
 13 11  1  0
 14  7  1  0
 13 14  1  6
 15 13  1  0
 15 16  2  0
 17 15  1  0
 18 17  1  0
 18 19  1  6
 20 19  1  0
 20 24  1  0
 21 20  2  0
 22 18  1  0
 22 23  1  0
 25 22  2  0
M  END
$$$$
