LID.pdb
     RDKit          3D

 25 24  0  0  1  0  0  0  0  0999 V2000
   23.9340  -31.2185  -14.5112 C   0  0  0  0  0  0  0  0  0  0  0  0
   22.6956  -31.7001  -15.2770 C   0  0  2  0  0  0  0  0  0  0  0  0
   23.0003  -31.6096  -16.7517 C   0  0  0  0  0  0  0  0  0  0  0  0
   21.6017  -30.7394  -14.9358 C   0  0  0  0  0  0  0  0  0  0  0  0
   21.3085  -30.7257  -13.4778 C   0  0  2  0  0  0  0  0  0  0  0  0
   20.8001  -31.9717  -12.9526 N   0  0  0  0  0  0  0  0  0  0  0  0
   20.2754  -29.6877  -13.2129 C   0  0  0  0  0  0  0  0  0  0  0  0
   19.0681  -29.9518  -13.5114 O   0  0  0  0  0  0  0  0  0  0  0  0
   18.6105  -26.3112   -8.6526 C   0  0  0  0  0  0  0  0  0  0  0  0
   18.6233  -26.3714  -10.1393 C   0  0  0  0  0  0  0  0  0  0  0  0
   19.3664  -27.4731  -10.7736 C   0  0  2  0  0  0  0  0  0  0  0  0
   20.6253  -27.8771  -10.0274 C   0  0  0  0  0  0  0  0  0  0  0  0
   19.4263  -27.5336  -12.2395 C   0  0  2  0  0  0  0  0  0  0  0  0
   20.5479  -28.4258  -12.6511 N   0  0  0  0  0  0  0  0  0  0  0  0
   19.5024  -26.3016  -13.0315 C   0  0  0  0  0  0  0  0  0  0  0  0
   20.6157  -25.6369  -13.0803 O   0  0  0  0  0  0  0  0  0  0  0  0
   18.4844  -25.6940  -13.8079 N   0  0  0  0  0  0  0  0  0  0  0  0
   18.6455  -24.3987  -14.4293 C   0  0  1  0  0  0  0  0  0  0  0  0
   17.7078  -24.2210  -15.6093 C   0  0  0  0  0  0  0  0  0  0  0  0
   17.7890  -22.8895  -16.2203 C   0  0  0  0  0  0  0  0  0  0  0  0
   18.7993  -22.4659  -16.8288 O   0  0  0  0  0  0  0  0  0  0  0  0
   18.3209  -23.3192  -13.4804 C   0  0  0  0  0  0  0  0  0  0  0  0
   18.9034  -22.0496  -13.5883 O   0  0  0  0  0  0  0  0  0  0  0  0
   16.6899  -22.0543  -16.1199 O   0  0  0  0  0  0  0  0  0  0  0  0
   17.5184  -23.4408  -12.5226 O   0  0  0  0  0  0  0  0  0  0  0  0
  2  1  1  1
  2  3  1  0
  4  2  1  0
  4  5  1  0
  5  7  1  0
  5  6  1  6
  7  8  2  0
  9 10  1  0
 10 11  1  0
 11 12  1  1
 13 11  1  0
 14  7  1  0
 13 14  1  1
 15 13  1  0
 15 16  2  0
 17 15  1  0
 18 17  1  0
 18 19  1  6
 20 19  1  0
 20 24  1  0
 21 20  2  0
 22 18  1  0
 22 23  1  0
 25 22  2  0
M  END
$$$$
