LID.pdb
     RDKit          3D

 25 24  0  0  1  0  0  0  0  0999 V2000
   18.8768  -14.6835  -20.3845 C   0  0  0  0  0  0  0  0  0  0  0  0
   17.6852  -14.2562  -19.5188 C   0  0  2  0  0  0  0  0  0  0  0  0
   16.7459  -13.4571  -20.3879 C   0  0  0  0  0  0  0  0  0  0  0  0
   18.2478  -13.3726  -18.4518 C   0  0  0  0  0  0  0  0  0  0  0  0
   19.2342  -14.0889  -17.5997 C   0  0  2  0  0  0  0  0  0  0  0  0
   18.6926  -15.2018  -16.8547 N   0  0  0  0  0  0  0  0  0  0  0  0
   19.7871  -13.1280  -16.6068 C   0  0  0  0  0  0  0  0  0  0  0  0
   19.1311  -12.9259  -15.5367 O   0  0  0  0  0  0  0  0  0  0  0  0
   24.4081  -13.8094  -14.5688 C   0  0  0  0  0  0  0  0  0  0  0  0
   23.0223  -13.3635  -14.8769 C   0  0  0  0  0  0  0  0  0  0  0  0
   22.8273  -11.9589  -15.2737 C   0  0  2  0  0  0  0  0  0  0  0  0
   23.6349  -10.9690  -14.4534 C   0  0  0  0  0  0  0  0  0  0  0  0
   21.4903  -11.5226  -15.6956 C   0  0  2  0  0  0  0  0  0  0  0  0
   20.9947  -12.4239  -16.7750 N   0  0  0  0  0  0  0  0  0  0  0  0
   21.2580  -10.1351  -16.1103 C   0  0  0  0  0  0  0  0  0  0  0  0
   21.8200   -9.6845  -17.1895 O   0  0  0  0  0  0  0  0  0  0  0  0
   20.4553   -9.1535  -15.4777 N   0  0  0  0  0  0  0  0  0  0  0  0
   20.3286   -7.8050  -15.9832 C   0  0  1  0  0  0  0  0  0  0  0  0
   18.9214   -7.2665  -15.8012 C   0  0  0  0  0  0  0  0  0  0  0  0
   18.7598   -5.8896  -16.2818 C   0  0  0  0  0  0  0  0  0  0  0  0
   19.2449   -5.4691  -17.3581 O   0  0  0  0  0  0  0  0  0  0  0  0
   21.2180   -6.8861  -15.2513 C   0  0  0  0  0  0  0  0  0  0  0  0
   21.6609   -5.6858  -15.8221 O   0  0  0  0  0  0  0  0  0  0  0  0
   18.0316   -5.0057  -15.5048 O   0  0  0  0  0  0  0  0  0  0  0  0
   21.6424   -7.0938  -14.0881 O   0  0  0  0  0  0  0  0  0  0  0  0
  2  1  1  6
  2  3  1  0
  4  2  1  0
  4  5  1  0
  5  7  1  0
  5  6  1  1
  7  8  2  0
  9 10  1  0
 10 11  1  0
 11 12  1  1
 13 11  1  0
 14  7  1  0
 13 14  1  6
 15 13  1  0
 15 16  2  0
 17 15  1  0
 18 17  1  0
 18 19  1  1
 20 19  1  0
 20 24  1  0
 21 20  2  0
 22 18  1  0
 22 23  1  0
 25 22  2  0
M  END
$$$$
