FGV.pdb
     RDKit          3D

 23 23  0  0  1  0  0  0  0  0999 V2000
   23.1137  -12.9932  -14.6573 N   0  0  0  0  0  0  0  0  0  0  0  0
   23.9837  -12.2165  -15.5165 C   0  0  1  0  0  0  0  0  0  0  0  0
   24.3703  -13.0607  -16.6970 C   0  0  0  0  0  0  0  0  0  0  0  0
   25.2536  -14.1868  -16.3576 C   0  0  0  0  0  0  0  0  0  0  0  0
   25.8087  -14.2942  -15.1081 C   0  0  0  0  0  0  0  0  0  0  0  0
   26.6428  -15.3500  -14.7771 C   0  0  0  0  0  0  0  0  0  0  0  0
   26.9121  -16.3048  -15.7315 C   0  0  0  0  0  0  0  0  0  0  0  0
   26.3706  -16.2234  -16.9909 C   0  0  0  0  0  0  0  0  0  0  0  0
   25.5371  -15.1510  -17.2916 C   0  0  0  0  0  0  0  0  0  0  0  0
   23.2750  -11.0088  -15.9511 C   0  0  0  0  0  0  0  0  0  0  0  0
   23.8022  -10.0940  -16.6623 O   0  0  0  0  0  0  0  0  0  0  0  0
   21.9038  -10.7663  -15.5976 N   0  0  0  0  0  0  0  0  0  0  0  0
   21.2051   -9.5936  -16.0091 C   0  0  0  0  0  0  0  0  0  0  0  0
   21.4223   -8.4247  -15.1646 C   0  0  0  0  0  0  0  0  0  0  0  0
   21.7441   -8.5628  -13.9672 O   0  0  0  0  0  0  0  0  0  0  0  0
   22.4006   -3.5795  -15.0687 C   0  0  0  0  0  0  0  0  0  0  0  0
   22.1166   -4.8632  -15.8191 C   0  0  1  0  0  0  0  0  0  0  0  0
   23.3961   -5.3158  -16.4549 C   0  0  0  0  0  0  0  0  0  0  0  0
   21.5428   -5.9229  -14.9062 C   0  0  2  0  0  0  0  0  0  0  0  0
   21.2741   -7.1193  -15.6809 N   0  0  0  0  0  0  0  0  0  0  0  0
   20.2692   -5.5017  -14.2791 C   0  0  0  0  0  0  0  0  0  0  0  0
   20.2760   -4.9250  -13.0258 O   0  0  0  0  0  0  0  0  0  0  0  0
   19.1526   -5.6464  -14.8451 O   0  0  0  0  0  0  0  0  0  0  0  0
  2  1  1  1
  3  2  1  0
  4  3  1  0
  5  4  2  0
  6  5  1  0
  7  8  1  0
  7  6  2  0
  8  9  2  0
  9  4  1  0
 10  2  1  0
 10 12  1  0
 11 10  2  0
 13 12  1  0
 13 14  1  0
 14 15  2  0
 14 20  1  0
 17 18  1  1
 17 16  1  0
 19 17  1  0
 19 20  1  6
 21 19  1  0
 21 22  1  0
 23 21  2  0
M  END
$$$$
