FGV.pdb
     RDKit          3D

 23 23  0  0  1  0  0  0  0  0999 V2000
   26.8127  -21.7191   -8.6022 N   0  0  0  0  0  0  0  0  0  0  0  0
   25.9661  -20.5807   -8.3092 C   0  0  1  0  0  0  0  0  0  0  0  0
   26.8406  -19.3949   -8.0178 C   0  0  0  0  0  0  0  0  0  0  0  0
   27.5700  -19.4939   -6.7444 C   0  0  0  0  0  0  0  0  0  0  0  0
   28.9409  -19.5252   -6.7190 C   0  0  0  0  0  0  0  0  0  0  0  0
   29.6388  -19.6191   -5.5257 C   0  0  0  0  0  0  0  0  0  0  0  0
   28.9296  -19.6817   -4.3475 C   0  0  0  0  0  0  0  0  0  0  0  0
   27.5566  -19.6524   -4.3420 C   0  0  0  0  0  0  0  0  0  0  0  0
   26.8857  -19.5576   -5.5569 C   0  0  0  0  0  0  0  0  0  0  0  0
   25.1005  -20.3171   -9.4628 C   0  0  0  0  0  0  0  0  0  0  0  0
   24.5253  -19.2021   -9.6780 O   0  0  0  0  0  0  0  0  0  0  0  0
   24.8340  -21.3210  -10.4553 N   0  0  0  0  0  0  0  0  0  0  0  0
   23.9052  -21.1170  -11.5175 C   0  0  0  0  0  0  0  0  0  0  0  0
   24.5030  -20.6989  -12.7803 C   0  0  0  0  0  0  0  0  0  0  0  0
   23.7863  -20.4978  -13.7813 O   0  0  0  0  0  0  0  0  0  0  0  0
   27.5464  -18.1190  -13.0167 C   0  0  0  0  0  0  0  0  0  0  0  0
   27.8240  -19.3813  -13.8049 C   0  0  1  0  0  0  0  0  0  0  0  0
   28.7623  -20.2281  -12.9998 C   0  0  0  0  0  0  0  0  0  0  0  0
   26.5471  -20.1216  -14.1325 C   0  0  2  0  0  0  0  0  0  0  0  0
   25.8976  -20.5139  -12.8965 N   0  0  0  0  0  0  0  0  0  0  0  0
   26.7914  -21.3525  -14.9186 C   0  0  0  0  0  0  0  0  0  0  0  0
   27.0976  -21.2634  -16.2609 O   0  0  0  0  0  0  0  0  0  0  0  0
   26.7325  -22.5050  -14.4123 O   0  0  0  0  0  0  0  0  0  0  0  0
  2  1  1  6
  3  2  1  0
  4  3  1  0
  5  4  2  0
  6  5  1  0
  7  8  1  0
  7  6  2  0
  8  9  2  0
  9  4  1  0
 10  2  1  0
 10 12  1  0
 11 10  2  0
 13 12  1  0
 13 14  1  0
 14 15  2  0
 14 20  1  0
 17 18  1  1
 17 16  1  0
 19 17  1  0
 19 20  1  1
 21 19  1  0
 21 22  1  0
 23 21  2  0
M  END
$$$$
