FGV.pdb
     RDKit          3D

 23 23  0  0  1  0  0  0  0  0999 V2000
   28.7247  -21.3335   -8.8558 N   0  0  0  0  0  0  0  0  0  0  0  0
   27.3723  -20.8383   -8.7004 C   0  0  1  0  0  0  0  0  0  0  0  0
   27.4231  -19.5227   -7.9778 C   0  0  0  0  0  0  0  0  0  0  0  0
   27.9523  -19.6175   -6.6087 C   0  0  0  0  0  0  0  0  0  0  0  0
   29.0221  -18.8560   -6.2131 C   0  0  0  0  0  0  0  0  0  0  0  0
   29.5297  -18.9374   -4.9264 C   0  0  0  0  0  0  0  0  0  0  0  0
   28.9387  -19.8048   -4.0356 C   0  0  0  0  0  0  0  0  0  0  0  0
   27.8662  -20.5798   -4.4033 C   0  0  0  0  0  0  0  0  0  0  0  0
   27.3804  -20.4746   -5.7026 C   0  0  0  0  0  0  0  0  0  0  0  0
   26.7641  -20.6804  -10.0251 C   0  0  0  0  0  0  0  0  0  0  0  0
   27.4315  -20.5373  -11.0996 O   0  0  0  0  0  0  0  0  0  0  0  0
   25.3393  -20.6761  -10.2091 N   0  0  0  0  0  0  0  0  0  0  0  0
   24.7352  -20.4989  -11.4882 C   0  0  0  0  0  0  0  0  0  0  0  0
   23.2779  -20.5556  -11.4891 C   0  0  0  0  0  0  0  0  0  0  0  0
   22.6545  -20.7688  -10.4299 O   0  0  0  0  0  0  0  0  0  0  0  0
   21.1994  -19.6924  -15.1736 C   0  0  0  0  0  0  0  0  0  0  0  0
   20.8333  -19.1133  -13.8237 C   0  0  1  0  0  0  0  0  0  0  0  0
   19.3838  -18.7349  -13.8644 C   0  0  0  0  0  0  0  0  0  0  0  0
   21.1233  -20.0888  -12.7057 C   0  0  2  0  0  0  0  0  0  0  0  0
   22.5457  -20.3716  -12.6819 N   0  0  0  0  0  0  0  0  0  0  0  0
   20.4149  -21.3774  -12.8798 C   0  0  0  0  0  0  0  0  0  0  0  0
   19.1697  -21.5610  -12.3147 O   0  0  0  0  0  0  0  0  0  0  0  0
   20.9027  -22.3381  -13.5335 O   0  0  0  0  0  0  0  0  0  0  0  0
  2  1  1  6
  3  2  1  0
  4  3  1  0
  5  4  2  0
  6  5  1  0
  7  8  1  0
  7  6  2  0
  8  9  2  0
  9  4  1  0
 10  2  1  0
 10 12  1  0
 11 10  2  0
 13 12  1  0
 13 14  1  0
 14 15  2  0
 14 20  1  0
 17 18  1  6
 17 16  1  0
 19 17  1  0
 19 20  1  6
 21 19  1  0
 21 22  1  0
 23 21  2  0
M  END
$$$$
