FGV.pdb
     RDKit          3D

 23 23  0  0  1  0  0  0  0  0999 V2000
   25.3550  -20.9884   -8.0579 N   0  0  0  0  0  0  0  0  0  0  0  0
   26.4790  -20.3359   -8.6977 C   0  0  1  0  0  0  0  0  0  0  0  0
   27.7457  -20.8195   -8.0518 C   0  0  0  0  0  0  0  0  0  0  0  0
   28.0006  -20.2286   -6.7292 C   0  0  0  0  0  0  0  0  0  0  0  0
   27.6459  -18.9321   -6.4571 C   0  0  0  0  0  0  0  0  0  0  0  0
   27.8817  -18.3645   -5.2153 C   0  0  0  0  0  0  0  0  0  0  0  0
   28.4855  -19.1287   -4.2424 C   0  0  0  0  0  0  0  0  0  0  0  0
   28.8516  -20.4297   -4.4859 C   0  0  0  0  0  0  0  0  0  0  0  0
   28.6010  -20.9700   -5.7431 C   0  0  0  0  0  0  0  0  0  0  0  0
   26.4695  -20.6574  -10.1282 C   0  0  0  0  0  0  0  0  0  0  0  0
   26.3879  -21.8413  -10.5887 O   0  0  0  0  0  0  0  0  0  0  0  0
   26.5533  -19.6359  -11.1349 N   0  0  0  0  0  0  0  0  0  0  0  0
   26.9169  -19.9212  -12.4836 C   0  0  0  0  0  0  0  0  0  0  0  0
   25.7930  -20.0816  -13.3989 C   0  0  0  0  0  0  0  0  0  0  0  0
   25.9085  -19.7675  -14.6006 O   0  0  0  0  0  0  0  0  0  0  0  0
   24.4961  -22.9399  -14.5872 C   0  0  0  0  0  0  0  0  0  0  0  0
   23.2422  -22.3023  -14.0278 C   0  0  1  0  0  0  0  0  0  0  0  0
   22.9051  -23.0008  -12.7454 C   0  0  0  0  0  0  0  0  0  0  0  0
   23.4217  -20.8153  -13.8218 C   0  0  2  0  0  0  0  0  0  0  0  0
   24.5571  -20.5928  -12.9472 N   0  0  0  0  0  0  0  0  0  0  0  0
   22.2407  -20.1841  -13.1897 C   0  0  0  0  0  0  0  0  0  0  0  0
   22.3295  -19.6879  -11.9054 O   0  0  0  0  0  0  0  0  0  0  0  0
   21.1321  -20.0743  -13.7788 O   0  0  0  0  0  0  0  0  0  0  0  0
  2  1  1  1
  3  2  1  0
  4  3  1  0
  5  4  2  0
  6  5  1  0
  7  8  1  0
  7  6  2  0
  8  9  2  0
  9  4  1  0
 10  2  1  0
 10 12  1  0
 11 10  2  0
 13 12  1  0
 13 14  1  0
 14 15  2  0
 14 20  1  0
 17 18  1  1
 17 16  1  0
 19 17  1  0
 19 20  1  1
 21 19  1  0
 21 22  1  0
 23 21  2  0
M  END
$$$$
