FGV.pdb
     RDKit          3D

 23 23  0  0  1  0  0  0  0  0999 V2000
   25.6196  -21.3000  -16.6475 N   0  0  0  0  0  0  0  0  0  0  0  0
   26.3674  -21.2644  -15.4073 C   0  0  1  0  0  0  0  0  0  0  0  0
   27.5861  -20.4095  -15.6063 C   0  0  0  0  0  0  0  0  0  0  0  0
   28.5661  -20.9815  -16.5422 C   0  0  0  0  0  0  0  0  0  0  0  0
   28.7639  -20.4266  -17.7807 C   0  0  0  0  0  0  0  0  0  0  0  0
   29.6835  -20.9572  -18.6709 C   0  0  0  0  0  0  0  0  0  0  0  0
   30.4078  -22.0650  -18.2923 C   0  0  0  0  0  0  0  0  0  0  0  0
   30.2312  -22.6421  -17.0587 C   0  0  0  0  0  0  0  0  0  0  0  0
   29.3001  -22.0853  -16.1880 C   0  0  0  0  0  0  0  0  0  0  0  0
   25.5147  -20.7153  -14.3486 C   0  0  0  0  0  0  0  0  0  0  0  0
   24.5914  -19.8628  -14.5520 O   0  0  0  0  0  0  0  0  0  0  0  0
   25.6634  -21.1091  -12.9751 N   0  0  0  0  0  0  0  0  0  0  0  0
   24.8809  -20.5395  -11.9283 C   0  0  0  0  0  0  0  0  0  0  0  0
   23.5361  -21.0893  -11.8019 C   0  0  0  0  0  0  0  0  0  0  0  0
   23.1902  -22.0733  -12.4862 O   0  0  0  0  0  0  0  0  0  0  0  0
   21.9356  -21.5770   -8.3032 C   0  0  0  0  0  0  0  0  0  0  0  0
   20.9295  -20.9026   -9.2113 C   0  0  1  0  0  0  0  0  0  0  0  0
   20.8723  -19.4528   -8.8362 C   0  0  0  0  0  0  0  0  0  0  0  0
   21.2876  -21.0874  -10.6685 C   0  0  2  0  0  0  0  0  0  0  0  0
   22.6022  -20.5231  -10.9075 N   0  0  0  0  0  0  0  0  0  0  0  0
   20.3373  -20.4056  -11.5766 C   0  0  0  0  0  0  0  0  0  0  0  0
   19.1881  -21.0520  -11.9828 O   0  0  0  0  0  0  0  0  0  0  0  0
   20.5289  -19.2370  -12.0077 O   0  0  0  0  0  0  0  0  0  0  0  0
  2  1  1  6
  3  2  1  0
  4  3  1  0
  5  4  2  0
  6  5  1  0
  7  8  1  0
  7  6  2  0
  8  9  2  0
  9  4  1  0
 10  2  1  0
 10 12  1  0
 11 10  2  0
 13 12  1  0
 13 14  1  0
 14 15  2  0
 14 20  1  0
 17 18  1  1
 17 16  1  0
 19 17  1  0
 19 20  1  1
 21 19  1  0
 21 22  1  0
 23 21  2  0
M  END
$$$$
