FGV.pdb
     RDKit          3D

 23 23  0  0  1  0  0  0  0  0999 V2000
   20.0692  -18.6947  -15.2479 N   0  0  0  0  0  0  0  0  0  0  0  0
   20.8174  -19.7721  -14.6333 C   0  0  1  0  0  0  0  0  0  0  0  0
   22.2757  -19.4132  -14.6486 C   0  0  0  0  0  0  0  0  0  0  0  0
   22.8784  -19.4350  -15.9901 C   0  0  0  0  0  0  0  0  0  0  0  0
   23.2777  -20.6152  -16.5634 C   0  0  0  0  0  0  0  0  0  0  0  0
   23.8474  -20.6480  -17.8260 C   0  0  0  0  0  0  0  0  0  0  0  0
   24.0105  -19.4641  -18.5093 C   0  0  0  0  0  0  0  0  0  0  0  0
   23.6201  -18.2672  -17.9606 C   0  0  0  0  0  0  0  0  0  0  0  0
   23.0515  -18.2683  -16.6910 C   0  0  0  0  0  0  0  0  0  0  0  0
   20.3434  -19.9623  -13.2590 C   0  0  0  0  0  0  0  0  0  0  0  0
   20.1768  -19.0124  -12.4282 O   0  0  0  0  0  0  0  0  0  0  0  0
   20.0257  -21.2638  -12.7403 N   0  0  0  0  0  0  0  0  0  0  0  0
   19.4969  -21.4555  -11.4302 C   0  0  0  0  0  0  0  0  0  0  0  0
   19.1262  -22.8304  -11.1158 C   0  0  0  0  0  0  0  0  0  0  0  0
   19.3156  -23.7406  -11.9475 O   0  0  0  0  0  0  0  0  0  0  0  0
   17.4591  -25.9446   -7.5839 C   0  0  0  0  0  0  0  0  0  0  0  0
   17.8679  -24.5553   -8.0249 C   0  0  1  0  0  0  0  0  0  0  0  0
   19.0655  -24.1519   -7.2193 C   0  0  0  0  0  0  0  0  0  0  0  0
   18.1525  -24.5067   -9.5089 C   0  0  2  0  0  0  0  0  0  0  0  0
   18.5482  -23.1590   -9.8706 N   0  0  0  0  0  0  0  0  0  0  0  0
   16.9681  -24.8585  -10.3250 C   0  0  0  0  0  0  0  0  0  0  0  0
   15.9512  -23.9416  -10.4945 O   0  0  0  0  0  0  0  0  0  0  0  0
   16.8381  -25.9794  -10.8862 O   0  0  0  0  0  0  0  0  0  0  0  0
  2  1  1  1
  3  2  1  0
  4  3  1  0
  5  4  2  0
  6  5  1  0
  7  8  1  0
  7  6  2  0
  8  9  2  0
  9  4  1  0
 10  2  1  0
 10 12  1  0
 11 10  2  0
 13 12  1  0
 13 14  1  0
 14 15  2  0
 14 20  1  0
 17 18  1  1
 17 16  1  0
 19 17  1  0
 19 20  1  6
 21 19  1  0
 21 22  1  0
 23 21  2  0
M  END
$$$$
