FGV.pdb
     RDKit          3D

 23 23  0  0  1  0  0  0  0  0999 V2000
   24.4682  -18.2072  -15.3658 N   0  0  0  0  0  0  0  0  0  0  0  0
   25.3522  -18.1954  -16.5133 C   0  0  1  0  0  0  0  0  0  0  0  0
   25.3389  -16.8194  -17.1151 C   0  0  0  0  0  0  0  0  0  0  0  0
   24.2117  -16.5824  -18.0297 C   0  0  0  0  0  0  0  0  0  0  0  0
   23.1972  -15.7247  -17.6892 C   0  0  0  0  0  0  0  0  0  0  0  0
   22.1299  -15.4942  -18.5422 C   0  0  0  0  0  0  0  0  0  0  0  0
   22.0989  -16.1460  -19.7543 C   0  0  0  0  0  0  0  0  0  0  0  0
   23.1005  -17.0104  -20.1223 C   0  0  0  0  0  0  0  0  0  0  0  0
   24.1581  -17.2201  -19.2434 C   0  0  0  0  0  0  0  0  0  0  0  0
   26.7047  -18.5605  -16.0807 C   0  0  0  0  0  0  0  0  0  0  0  0
   27.6853  -18.7195  -16.8766 O   0  0  0  0  0  0  0  0  0  0  0  0
   27.0270  -18.7692  -14.6964 N   0  0  0  0  0  0  0  0  0  0  0  0
   27.9355  -19.7810  -14.2681 C   0  0  0  0  0  0  0  0  0  0  0  0
   27.4397  -20.6323  -13.1928 C   0  0  0  0  0  0  0  0  0  0  0  0
   28.0875  -21.6359  -12.8333 O   0  0  0  0  0  0  0  0  0  0  0  0
   25.7037  -19.1187  -10.0173 C   0  0  0  0  0  0  0  0  0  0  0  0
   26.1084  -20.5721  -10.1409 C   0  0  1  0  0  0  0  0  0  0  0  0
   25.5026  -21.3167   -8.9900 C   0  0  0  0  0  0  0  0  0  0  0  0
   25.6806  -21.1551  -11.4687 C   0  0  2  0  0  0  0  0  0  0  0  0
   26.2229  -20.3406  -12.5393 N   0  0  0  0  0  0  0  0  0  0  0  0
   24.2087  -21.1804  -11.6287 C   0  0  0  0  0  0  0  0  0  0  0  0
   23.4376  -21.9573  -10.7889 O   0  0  0  0  0  0  0  0  0  0  0  0
   23.6098  -20.5126  -12.5139 O   0  0  0  0  0  0  0  0  0  0  0  0
  2  1  1  1
  3  2  1  0
  4  3  1  0
  5  4  2  0
  6  5  1  0
  7  8  1  0
  7  6  2  0
  8  9  2  0
  9  4  1  0
 10  2  1  0
 10 12  1  0
 11 10  2  0
 13 12  1  0
 13 14  1  0
 14 15  2  0
 14 20  1  0
 17 18  1  1
 17 16  1  0
 19 17  1  0
 19 20  1  6
 21 19  1  0
 21 22  1  0
 23 21  2  0
M  END
$$$$
