FGV.pdb
     RDKit          3D

 23 23  0  0  1  0  0  0  0  0999 V2000
   32.3835  -30.3881  -17.7074 N   0  0  0  0  0  0  0  0  0  0  0  0
   31.6301  -29.4508  -18.5151 C   0  0  1  0  0  0  0  0  0  0  0  0
   31.6574  -29.9173  -19.9424 C   0  0  0  0  0  0  0  0  0  0  0  0
   32.7904  -29.3896  -20.7178 C   0  0  0  0  0  0  0  0  0  0  0  0
   33.8037  -30.2147  -21.1342 C   0  0  0  0  0  0  0  0  0  0  0  0
   34.8764  -29.7288  -21.8644 C   0  0  0  0  0  0  0  0  0  0  0  0
   34.9142  -28.3875  -22.1719 C   0  0  0  0  0  0  0  0  0  0  0  0
   33.9139  -27.5374  -21.7685 C   0  0  0  0  0  0  0  0  0  0  0  0
   32.8508  -28.0565  -21.0368 C   0  0  0  0  0  0  0  0  0  0  0  0
   30.2531  -29.3860  -18.0158 C   0  0  0  0  0  0  0  0  0  0  0  0
   29.3549  -28.6301  -18.5080 O   0  0  0  0  0  0  0  0  0  0  0  0
   29.8091  -30.1894  -16.9107 N   0  0  0  0  0  0  0  0  0  0  0  0
   28.4728  -30.1368  -16.4166 C   0  0  0  0  0  0  0  0  0  0  0  0
   27.5207  -30.9724  -17.1391 C   0  0  0  0  0  0  0  0  0  0  0  0
   27.8078  -31.4269  -18.2648 O   0  0  0  0  0  0  0  0  0  0  0  0
   27.1209  -34.0372  -17.0504 C   0  0  0  0  0  0  0  0  0  0  0  0
   25.7238  -33.6344  -16.6291 C   0  0  1  0  0  0  0  0  0  0  0  0
   25.6635  -33.6842  -15.1325 C   0  0  0  0  0  0  0  0  0  0  0  0
   25.3598  -32.2649  -17.1561 C   0  0  2  0  0  0  0  0  0  0  0  0
   26.2608  -31.2831  -16.5834 N   0  0  0  0  0  0  0  0  0  0  0  0
   23.9794  -31.8676  -16.7962 C   0  0  0  0  0  0  0  0  0  0  0  0
   23.7697  -30.8800  -15.8559 O   0  0  0  0  0  0  0  0  0  0  0  0
   22.9620  -32.3981  -17.3172 O   0  0  0  0  0  0  0  0  0  0  0  0
  2  1  1  1
  3  2  1  0
  4  3  1  0
  5  4  2  0
  6  5  1  0
  7  8  1  0
  7  6  2  0
  8  9  2  0
  9  4  1  0
 10  2  1  0
 10 12  1  0
 11 10  2  0
 13 12  1  0
 13 14  1  0
 14 15  2  0
 14 20  1  0
 17 18  1  1
 17 16  1  0
 19 17  1  0
 19 20  1  1
 21 19  1  0
 21 22  1  0
 23 21  2  0
M  END
$$$$
