FGV.pdb
     RDKit          3D

 23 23  0  0  1  0  0  0  0  0999 V2000
   27.3399  -17.3007  -18.5327 N   0  0  0  0  0  0  0  0  0  0  0  0
   27.7140  -17.4160  -17.1380 C   0  0  1  0  0  0  0  0  0  0  0  0
   28.4498  -16.1705  -16.7341 C   0  0  0  0  0  0  0  0  0  0  0  0
   29.7288  -15.9828  -17.4358 C   0  0  0  0  0  0  0  0  0  0  0  0
   30.7903  -16.8186  -17.2002 C   0  0  0  0  0  0  0  0  0  0  0  0
   32.0001  -16.6510  -17.8545 C   0  0  0  0  0  0  0  0  0  0  0  0
   32.1265  -15.6201  -18.7580 C   0  0  0  0  0  0  0  0  0  0  0  0
   31.0809  -14.7674  -19.0143 C   0  0  0  0  0  0  0  0  0  0  0  0
   29.8795  -14.9626  -18.3408 C   0  0  0  0  0  0  0  0  0  0  0  0
   26.5034  -17.5896  -16.3294 C   0  0  0  0  0  0  0  0  0  0  0  0
   25.4908  -16.8209  -16.3940 O   0  0  0  0  0  0  0  0  0  0  0  0
   26.3704  -18.6642  -15.3852 N   0  0  0  0  0  0  0  0  0  0  0  0
   25.2249  -18.8083  -14.5487 C   0  0  0  0  0  0  0  0  0  0  0  0
   25.1151  -20.0995  -13.8797 C   0  0  0  0  0  0  0  0  0  0  0  0
   25.3588  -21.1539  -14.5001 O   0  0  0  0  0  0  0  0  0  0  0  0
   26.9807  -21.0816  -10.9633 C   0  0  0  0  0  0  0  0  0  0  0  0
   25.5431  -21.3601  -10.5797 C   0  0  1  0  0  0  0  0  0  0  0  0
   25.1022  -20.2811   -9.6377 C   0  0  0  0  0  0  0  0  0  0  0  0
   24.6498  -21.4361  -11.7971 C   0  0  2  0  0  0  0  0  0  0  0  0
   24.7329  -20.1834  -12.5234 N   0  0  0  0  0  0  0  0  0  0  0  0
   23.2283  -21.6542  -11.4444 C   0  0  0  0  0  0  0  0  0  0  0  0
   22.8000  -22.9055  -11.0518 O   0  0  0  0  0  0  0  0  0  0  0  0
   22.3690  -20.7332  -11.4854 O   0  0  0  0  0  0  0  0  0  0  0  0
  2  1  1  6
  3  2  1  0
  4  3  1  0
  5  4  2  0
  6  5  1  0
  7  8  1  0
  7  6  2  0
  8  9  2  0
  9  4  1  0
 10  2  1  0
 10 12  1  0
 11 10  2  0
 13 12  1  0
 13 14  1  0
 14 15  2  0
 14 20  1  0
 17 18  1  1
 17 16  1  0
 19 17  1  0
 19 20  1  1
 21 19  1  0
 21 22  1  0
 23 21  2  0
M  END
$$$$
