FGV.pdb
     RDKit          3D

 23 23  0  0  1  0  0  0  0  0999 V2000
   28.7783  -21.4835   -8.8066 N   0  0  0  0  0  0  0  0  0  0  0  0
   27.4359  -20.9396   -8.8265 C   0  0  1  0  0  0  0  0  0  0  0  0
   27.4614  -19.5759   -8.1975 C   0  0  0  0  0  0  0  0  0  0  0  0
   27.8562  -19.5830   -6.7807 C   0  0  0  0  0  0  0  0  0  0  0  0
   29.0906  -19.1292   -6.3916 C   0  0  0  0  0  0  0  0  0  0  0  0
   29.4739  -19.1319   -5.0601 C   0  0  0  0  0  0  0  0  0  0  0  0
   28.5879  -19.6025   -4.1174 C   0  0  0  0  0  0  0  0  0  0  0  0
   27.3452  -20.0631   -4.4774 C   0  0  0  0  0  0  0  0  0  0  0  0
   26.9908  -20.0471   -5.8225 C   0  0  0  0  0  0  0  0  0  0  0  0
   26.9699  -20.8630  -10.2145 C   0  0  0  0  0  0  0  0  0  0  0  0
   27.7287  -21.0060  -11.2265 O   0  0  0  0  0  0  0  0  0  0  0  0
   25.5923  -20.6159  -10.5388 N   0  0  0  0  0  0  0  0  0  0  0  0
   25.1174  -20.5884  -11.8828 C   0  0  0  0  0  0  0  0  0  0  0  0
   23.6947  -20.3000  -12.0225 C   0  0  0  0  0  0  0  0  0  0  0  0
   23.0117  -19.9963  -11.0237 O   0  0  0  0  0  0  0  0  0  0  0  0
   22.4365  -18.1820  -15.0971 C   0  0  0  0  0  0  0  0  0  0  0  0
   21.5534  -19.3957  -14.9002 C   0  0  1  0  0  0  0  0  0  0  0  0
   21.9268  -20.4084  -15.9399 C   0  0  0  0  0  0  0  0  0  0  0  0
   21.6869  -19.9568  -13.5027 C   0  0  2  0  0  0  0  0  0  0  0  0
   23.0633  -20.3580  -13.2837 N   0  0  0  0  0  0  0  0  0  0  0  0
   20.8348  -21.1484  -13.2866 C   0  0  0  0  0  0  0  0  0  0  0  0
   19.5621  -21.0017  -12.7747 O   0  0  0  0  0  0  0  0  0  0  0  0
   21.2218  -22.3178  -13.5528 O   0  0  0  0  0  0  0  0  0  0  0  0
  2  1  1  6
  3  2  1  0
  4  3  1  0
  5  4  2  0
  6  5  1  0
  7  8  1  0
  7  6  2  0
  8  9  2  0
  9  4  1  0
 10  2  1  0
 10 12  1  0
 11 10  2  0
 13 12  1  0
 13 14  1  0
 14 15  2  0
 14 20  1  0
 17 18  1  6
 17 16  1  0
 19 17  1  0
 19 20  1  6
 21 19  1  0
 21 22  1  0
 23 21  2  0
M  END
$$$$
