FGV.pdb
     RDKit          3D

 23 23  0  0  1  0  0  0  0  0999 V2000
   13.7462  -16.7012    4.8467 N   0  0  0  0  0  0  0  0  0  0  0  0
   15.1170  -17.1413    4.6870 C   0  0  1  0  0  0  0  0  0  0  0  0
   15.6734  -16.5320    3.4321 C   0  0  0  0  0  0  0  0  0  0  0  0
   16.7511  -17.3211    2.8163 C   0  0  0  0  0  0  0  0  0  0  0  0
   16.4827  -18.5118    2.1909 C   0  0  0  0  0  0  0  0  0  0  0  0
   17.4897  -19.2642    1.6080 C   0  0  0  0  0  0  0  0  0  0  0  0
   18.7829  -18.7957    1.6648 C   0  0  0  0  0  0  0  0  0  0  0  0
   19.0818  -17.6070    2.2842 C   0  0  0  0  0  0  0  0  0  0  0  0
   18.0480  -16.8754    2.8597 C   0  0  0  0  0  0  0  0  0  0  0  0
   15.8947  -16.7223    5.8571 C   0  0  0  0  0  0  0  0  0  0  0  0
   15.5269  -15.8084    6.6633 O   0  0  0  0  0  0  0  0  0  0  0  0
   17.1559  -17.3272    6.1849 N   0  0  0  0  0  0  0  0  0  0  0  0
   17.9517  -16.8866    7.2828 C   0  0  0  0  0  0  0  0  0  0  0  0
   19.2214  -17.5871    7.4374 C   0  0  0  0  0  0  0  0  0  0  0  0
   19.4578  -18.6176    6.7753 O   0  0  0  0  0  0  0  0  0  0  0  0
   22.5655  -15.5130    8.4677 C   0  0  0  0  0  0  0  0  0  0  0  0
   22.4258  -16.8158    9.2259 C   0  0  1  0  0  0  0  0  0  0  0  0
   21.9490  -16.4926   10.6095 C   0  0  0  0  0  0  0  0  0  0  0  0
   21.4868  -17.7685    8.5214 C   0  0  2  0  0  0  0  0  0  0  0  0
   20.2045  -17.1170    8.3346 N   0  0  0  0  0  0  0  0  0  0  0  0
   21.2493  -19.0074    9.2970 C   0  0  0  0  0  0  0  0  0  0  0  0
   22.0834  -20.0939    9.1325 O   0  0  0  0  0  0  0  0  0  0  0  0
   20.3015  -19.1229   10.1196 O   0  0  0  0  0  0  0  0  0  0  0  0
  2  1  1  1
  3  2  1  0
  4  3  1  0
  5  4  2  0
  6  5  1  0
  7  8  1  0
  7  6  2  0
  8  9  2  0
  9  4  1  0
 10  2  1  0
 10 12  1  0
 11 10  2  0
 13 12  1  0
 13 14  1  0
 14 15  2  0
 14 20  1  0
 17 18  1  1
 17 16  1  0
 19 17  1  0
 19 20  1  1
 21 19  1  0
 21 22  1  0
 23 21  2  0
M  END
$$$$
