FGV.pdb
     RDKit          3D

 23 23  0  0  1  0  0  0  0  0999 V2000
   24.2681  -21.4138  -15.0115 N   0  0  0  0  0  0  0  0  0  0  0  0
   23.9296  -20.3405  -14.0994 C   0  0  1  0  0  0  0  0  0  0  0  0
   22.5972  -20.6433  -13.4757 C   0  0  0  0  0  0  0  0  0  0  0  0
   21.4945  -20.7319  -14.4450 C   0  0  0  0  0  0  0  0  0  0  0  0
   21.0369  -21.9489  -14.8813 C   0  0  0  0  0  0  0  0  0  0  0  0
   19.9994  -22.0448  -15.7947 C   0  0  0  0  0  0  0  0  0  0  0  0
   19.4241  -20.8866  -16.2667 C   0  0  0  0  0  0  0  0  0  0  0  0
   19.8613  -19.6540  -15.8478 C   0  0  0  0  0  0  0  0  0  0  0  0
   20.9049  -19.5919  -14.9300 C   0  0  0  0  0  0  0  0  0  0  0  0
   24.9718  -20.2360  -13.0736 C   0  0  0  0  0  0  0  0  0  0  0  0
   24.9102  -19.4456  -12.0776 O   0  0  0  0  0  0  0  0  0  0  0  0
   26.1639  -21.0364  -13.1202 N   0  0  0  0  0  0  0  0  0  0  0  0
   27.1908  -20.9348  -12.1365 C   0  0  0  0  0  0  0  0  0  0  0  0
   26.7960  -21.3504  -10.7955 C   0  0  0  0  0  0  0  0  0  0  0  0
   26.2761  -22.4690  -10.6094 O   0  0  0  0  0  0  0  0  0  0  0  0
   28.9719  -20.2219   -7.6721 C   0  0  0  0  0  0  0  0  0  0  0  0
   27.4968  -20.0743   -7.3655 C   0  0  1  0  0  0  0  0  0  0  0  0
   27.1612  -18.6146   -7.4167 C   0  0  0  0  0  0  0  0  0  0  0  0
   26.6485  -20.8751   -8.3272 C   0  0  2  0  0  0  0  0  0  0  0  0
   26.9923  -20.5006   -9.6856 N   0  0  0  0  0  0  0  0  0  0  0  0
   25.1999  -20.6254   -8.1483 C   0  0  0  0  0  0  0  0  0  0  0  0
   24.5151  -21.2461   -7.1240 O   0  0  0  0  0  0  0  0  0  0  0  0
   24.5448  -19.8566   -8.9019 O   0  0  0  0  0  0  0  0  0  0  0  0
  2  1  1  6
  3  2  1  0
  4  3  1  0
  5  4  2  0
  6  5  1  0
  7  8  1  0
  7  6  2  0
  8  9  2  0
  9  4  1  0
 10  2  1  0
 10 12  1  0
 11 10  2  0
 13 12  1  0
 13 14  1  0
 14 15  2  0
 14 20  1  0
 17 18  1  6
 17 16  1  0
 19 17  1  0
 19 20  1  6
 21 19  1  0
 21 22  1  0
 23 21  2  0
M  END
$$$$
