FGV.pdb
     RDKit          3D

 23 23  0  0  1  0  0  0  0  0999 V2000
   24.2119  -14.9020  -18.4792 N   0  0  0  0  0  0  0  0  0  0  0  0
   23.9370  -14.0418  -17.3465 C   0  0  1  0  0  0  0  0  0  0  0  0
   25.2376  -13.6976  -16.6788 C   0  0  0  0  0  0  0  0  0  0  0  0
   25.9883  -14.8691  -16.2019 C   0  0  0  0  0  0  0  0  0  0  0  0
   25.7713  -15.3817  -14.9485 C   0  0  0  0  0  0  0  0  0  0  0  0
   26.4730  -16.4843  -14.4881 C   0  0  0  0  0  0  0  0  0  0  0  0
   27.4050  -17.0684  -15.3160 C   0  0  0  0  0  0  0  0  0  0  0  0
   27.6436  -16.5770  -16.5760 C   0  0  0  0  0  0  0  0  0  0  0  0
   26.9224  -15.4688  -17.0083 C   0  0  0  0  0  0  0  0  0  0  0  0
   23.2581  -12.8307  -17.8174 C   0  0  0  0  0  0  0  0  0  0  0  0
   23.2793  -12.4297  -19.0254 O   0  0  0  0  0  0  0  0  0  0  0  0
   22.5032  -11.9912  -16.9291 N   0  0  0  0  0  0  0  0  0  0  0  0
   21.7904  -10.8435  -17.3846 C   0  0  0  0  0  0  0  0  0  0  0  0
   20.3785  -10.8165  -17.0203 C   0  0  0  0  0  0  0  0  0  0  0  0
   19.8727  -11.7638  -16.3856 O   0  0  0  0  0  0  0  0  0  0  0  0
   16.1694   -8.1946  -16.7923 C   0  0  0  0  0  0  0  0  0  0  0  0
   17.6500   -8.2751  -17.0972 C   0  0  1  0  0  0  0  0  0  0  0  0
   18.3795   -7.5099  -16.0350 C   0  0  0  0  0  0  0  0  0  0  0  0
   18.1223   -9.7093  -17.1744 C   0  0  2  0  0  0  0  0  0  0  0  0
   19.5585   -9.7239  -17.3760 N   0  0  0  0  0  0  0  0  0  0  0  0
   17.5060  -10.4491  -18.2993 C   0  0  0  0  0  0  0  0  0  0  0  0
   16.5184  -11.3804  -18.0527 O   0  0  0  0  0  0  0  0  0  0  0  0
   17.8456  -10.2674  -19.4993 O   0  0  0  0  0  0  0  0  0  0  0  0
  2  1  1  6
  3  2  1  0
  4  3  1  0
  5  4  2  0
  6  5  1  0
  7  8  1  0
  7  6  2  0
  8  9  2  0
  9  4  1  0
 10  2  1  0
 10 12  1  0
 11 10  2  0
 13 12  1  0
 13 14  1  0
 14 15  2  0
 14 20  1  0
 17 18  1  1
 17 16  1  0
 19 17  1  0
 19 20  1  6
 21 19  1  0
 21 22  1  0
 23 21  2  0
M  END
$$$$
