FGV.pdb
     RDKit          3D

 23 23  0  0  1  0  0  0  0  0999 V2000
   28.6198  -20.7546   -8.6301 N   0  0  0  0  0  0  0  0  0  0  0  0
   27.2938  -20.9607   -8.0845 C   0  0  1  0  0  0  0  0  0  0  0  0
   26.9113  -19.7495   -7.2829 C   0  0  0  0  0  0  0  0  0  0  0  0
   27.7916  -19.4973   -6.1319 C   0  0  0  0  0  0  0  0  0  0  0  0
   27.9071  -20.4151   -5.1194 C   0  0  0  0  0  0  0  0  0  0  0  0
   28.7325  -20.1881   -4.0299 C   0  0  0  0  0  0  0  0  0  0  0  0
   29.4465  -19.0124   -3.9743 C   0  0  0  0  0  0  0  0  0  0  0  0
   29.3510  -18.0749   -4.9733 C   0  0  0  0  0  0  0  0  0  0  0  0
   28.5135  -18.3331   -6.0536 C   0  0  0  0  0  0  0  0  0  0  0  0
   26.3498  -21.1744   -9.1857 C   0  0  0  0  0  0  0  0  0  0  0  0
   25.0869  -21.2328   -9.0363 O   0  0  0  0  0  0  0  0  0  0  0  0
   26.7926  -21.3365  -10.5427 N   0  0  0  0  0  0  0  0  0  0  0  0
   25.9284  -21.7999  -11.5777 C   0  0  0  0  0  0  0  0  0  0  0  0
   24.9111  -20.8435  -11.9986 C   0  0  0  0  0  0  0  0  0  0  0  0
   25.0898  -19.6198  -11.8348 O   0  0  0  0  0  0  0  0  0  0  0  0
   24.1219  -19.9238  -15.1822 C   0  0  0  0  0  0  0  0  0  0  0  0
   22.7957  -20.4393  -14.6654 C   0  0  1  0  0  0  0  0  0  0  0  0
   22.6224  -21.8417  -15.1647 C   0  0  0  0  0  0  0  0  0  0  0  0
   22.7255  -20.3724  -13.1567 C   0  0  2  0  0  0  0  0  0  0  0  0
   23.7092  -21.2794  -12.5969 N   0  0  0  0  0  0  0  0  0  0  0  0
   21.3997  -20.7730  -12.6327 C   0  0  0  0  0  0  0  0  0  0  0  0
   20.3918  -19.8376  -12.5205 O   0  0  0  0  0  0  0  0  0  0  0  0
   21.1386  -21.9529  -12.2752 O   0  0  0  0  0  0  0  0  0  0  0  0
  2  1  1  6
  3  2  1  0
  4  3  1  0
  5  4  2  0
  6  5  1  0
  7  8  1  0
  7  6  2  0
  8  9  2  0
  9  4  1  0
 10  2  1  0
 10 12  1  0
 11 10  2  0
 13 12  1  0
 13 14  1  0
 14 15  2  0
 14 20  1  0
 17 18  1  1
 17 16  1  0
 19 17  1  0
 19 20  1  1
 21 19  1  0
 21 22  1  0
 23 21  2  0
M  END
$$$$
