DSC.pdb
     RDKit          3D

 21 20  0  0  1  0  0  0  0  0999 V2000
   16.8305  -16.9689   16.8119 N   0  0  0  0  0  0  0  0  0  0  0  0
   16.3712  -15.9966   17.7777 C   0  0  1  0  0  0  0  0  0  0  0  0
   16.4235  -14.6259   17.1867 C   0  0  0  0  0  0  0  0  0  0  0  0
   17.7764  -14.0531   17.2718 C   0  0  0  0  0  0  0  0  0  0  0  0
   18.6187  -14.5842   18.0238 O   0  0  0  0  0  0  0  0  0  0  0  0
   14.9856  -16.3593   18.1924 C   0  0  0  0  0  0  0  0  0  0  0  0
   14.1462  -16.6248   17.2695 O   0  0  0  0  0  0  0  0  0  0  0  0
   18.1246  -12.9381   16.5324 O   0  0  0  0  0  0  0  0  0  0  0  0
   11.6696  -18.4928   19.8705 O   0  0  0  0  0  0  0  0  0  0  0  0
   12.9494  -18.1471   19.4415 C   0  0  0  0  0  0  0  0  0  0  0  0
   13.2960  -16.7779   19.9736 C   0  0  2  0  0  0  0  0  0  0  0  0
   14.6259  -16.4036   19.5629 N   0  0  0  0  0  0  0  0  0  0  0  0
   13.1890  -16.6802   21.4277 C   0  0  0  0  0  0  0  0  0  0  0  0
   14.1463  -16.8499   22.2282 O   0  0  0  0  0  0  0  0  0  0  0  0
   11.9357  -16.3746   22.0172 N   0  0  0  0  0  0  0  0  0  0  0  0
   11.7901  -16.3109   23.4562 C   0  0  1  0  0  0  0  0  0  0  0  0
   10.3691  -15.8734   23.7404 C   0  0  0  0  0  0  0  0  0  0  0  0
   10.0374  -14.2479   23.0034 S   0  0  0  0  0  0  0  0  0  0  0  0
   11.9872  -17.6227   24.0981 C   0  0  0  0  0  0  0  0  0  0  0  0
   12.0847  -18.7085   23.4734 O   0  0  0  0  0  0  0  0  0  0  0  0
   12.0709  -17.6623   25.4816 O   0  0  0  0  0  0  0  0  0  0  0  0
  2  1  1  6
  2  3  1  0
  3  4  1  0
  4  8  1  0
  4  5  2  0
  6  2  1  0
  7  6  2  0
 10  9  1  0
 11 10  1  1
 11 12  1  0
 12  6  1  0
 13 11  1  0
 13 15  1  0
 14 13  2  0
 16 15  1  0
 16 19  1  0
 16 17  1  6
 18 17  1  0
 19 21  1  0
 20 19  2  0
M  END
$$$$
