DSC.pdb
     RDKit          3D

 21 20  0  0  1  0  0  0  0  0999 V2000
    6.1158  -20.5847   19.6525 N   0  0  0  0  0  0  0  0  0  0  0  0
    6.4892  -21.5232   20.6864 C   0  0  1  0  0  0  0  0  0  0  0  0
    7.9464  -21.8363   20.5896 C   0  0  0  0  0  0  0  0  0  0  0  0
    8.2291  -22.7466   19.4684 C   0  0  0  0  0  0  0  0  0  0  0  0
    7.2955  -23.1056   18.7223 O   0  0  0  0  0  0  0  0  0  0  0  0
    6.1455  -20.9301   22.0107 C   0  0  0  0  0  0  0  0  0  0  0  0
    5.6191  -19.7683   22.0158 O   0  0  0  0  0  0  0  0  0  0  0  0
    9.5108  -23.2078   19.2324 O   0  0  0  0  0  0  0  0  0  0  0  0
    6.3966  -23.1228   25.6298 O   0  0  0  0  0  0  0  0  0  0  0  0
    5.4595  -22.1196   25.3915 C   0  0  0  0  0  0  0  0  0  0  0  0
    6.0745  -21.0715   24.4961 C   0  0  2  0  0  0  0  0  0  0  0  0
    6.3992  -21.6391   23.2117 N   0  0  0  0  0  0  0  0  0  0  0  0
    7.2660  -20.4499   25.0700 C   0  0  0  0  0  0  0  0  0  0  0  0
    8.4489  -20.7462   24.7558 O   0  0  0  0  0  0  0  0  0  0  0  0
    7.1215  -19.4378   26.0531 N   0  0  0  0  0  0  0  0  0  0  0  0
    8.2817  -18.8666   26.7039 C   0  0  1  0  0  0  0  0  0  0  0  0
    7.9293  -17.4407   27.0697 C   0  0  0  0  0  0  0  0  0  0  0  0
    7.2735  -16.5509   25.6297 S   0  0  0  0  0  0  0  0  0  0  0  0
    8.6289  -19.5716   27.9505 C   0  0  0  0  0  0  0  0  0  0  0  0
    7.9698  -20.5282   28.4293 O   0  0  0  0  0  0  0  0  0  0  0  0
    9.7563  -19.1529   28.6406 O   0  0  0  0  0  0  0  0  0  0  0  0
  2  1  1  6
  2  3  1  0
  3  4  1  0
  4  8  1  0
  4  5  2  0
  6  2  1  0
  7  6  2  0
 10  9  1  0
 11 10  1  1
 11 12  1  0
 12  6  1  0
 13 11  1  0
 13 15  1  0
 14 13  2  0
 16 15  1  0
 16 19  1  0
 16 17  1  1
 18 17  1  0
 19 21  1  0
 20 19  2  0
M  END
$$$$
