DSC.pdb
     RDKit          3D

 21 20  0  0  1  0  0  0  0  0999 V2000
   11.3526  -18.9692   21.1866 N   0  0  0  0  0  0  0  0  0  0  0  0
   12.0805  -17.7276   21.3195 C   0  0  1  0  0  0  0  0  0  0  0  0
   12.2517  -17.0903   19.9795 C   0  0  0  0  0  0  0  0  0  0  0  0
   13.2747  -17.7825   19.1797 C   0  0  0  0  0  0  0  0  0  0  0  0
   14.3893  -18.0212   19.6874 O   0  0  0  0  0  0  0  0  0  0  0  0
   11.3335  -16.8386   22.2550 C   0  0  0  0  0  0  0  0  0  0  0  0
   11.7662  -15.6483   22.4065 O   0  0  0  0  0  0  0  0  0  0  0  0
   13.0178  -18.1700   17.8778 O   0  0  0  0  0  0  0  0  0  0  0  0
    8.0378  -18.1790   24.5805 O   0  0  0  0  0  0  0  0  0  0  0  0
    7.9809  -16.9736   23.8838 C   0  0  0  0  0  0  0  0  0  0  0  0
    9.3776  -16.4201   23.7389 C   0  0  2  0  0  0  0  0  0  0  0  0
   10.1880  -17.3090   22.9449 N   0  0  0  0  0  0  0  0  0  0  0  0
   10.0359  -16.1735   25.0200 C   0  0  0  0  0  0  0  0  0  0  0  0
   10.9042  -16.9268   25.5345 O   0  0  0  0  0  0  0  0  0  0  0  0
    9.7004  -15.0152   25.7666 N   0  0  0  0  0  0  0  0  0  0  0  0
   10.2805  -14.7821   27.0724 C   0  0  1  0  0  0  0  0  0  0  0  0
    9.7180  -13.4721   27.5813 C   0  0  0  0  0  0  0  0  0  0  0  0
   10.4494  -13.0384   29.1851 S   0  0  0  0  0  0  0  0  0  0  0  0
    9.9149  -15.8289   28.0431 C   0  0  0  0  0  0  0  0  0  0  0  0
    8.8097  -16.4265   28.0565 O   0  0  0  0  0  0  0  0  0  0  0  0
   10.8510  -16.1779   29.0046 O   0  0  0  0  0  0  0  0  0  0  0  0
  2  1  1  6
  2  3  1  0
  3  4  1  0
  4  8  1  0
  4  5  2  0
  6  2  1  0
  7  6  2  0
 10  9  1  0
 11 10  1  1
 11 12  1  0
 12  6  1  0
 13 11  1  0
 13 15  1  0
 14 13  2  0
 16 15  1  0
 16 19  1  0
 16 17  1  1
 18 17  1  0
 19 21  1  0
 20 19  2  0
M  END
$$$$
