DSC.pdb
     RDKit          3D

 21 20  0  0  1  0  0  0  0  0999 V2000
   11.2893  -15.9541   18.8941 N   0  0  0  0  0  0  0  0  0  0  0  0
   11.8632  -15.6037   20.1735 C   0  0  1  0  0  0  0  0  0  0  0  0
   12.6301  -14.3273   20.0568 C   0  0  0  0  0  0  0  0  0  0  0  0
   13.9295  -14.5371   19.3987 C   0  0  0  0  0  0  0  0  0  0  0  0
   14.6901  -15.4325   19.8191 O   0  0  0  0  0  0  0  0  0  0  0  0
   10.7610  -15.4887   21.1712 C   0  0  0  0  0  0  0  0  0  0  0  0
    9.6853  -14.9156   20.7953 O   0  0  0  0  0  0  0  0  0  0  0  0
   14.3171  -13.7573   18.3249 O   0  0  0  0  0  0  0  0  0  0  0  0
    8.0074  -17.4923   24.0667 O   0  0  0  0  0  0  0  0  0  0  0  0
    9.1658  -17.4676   23.2928 C   0  0  0  0  0  0  0  0  0  0  0  0
    9.7913  -16.0969   23.3830 C   0  0  2  0  0  0  0  0  0  0  0  0
   10.9141  -15.9995   22.4846 N   0  0  0  0  0  0  0  0  0  0  0  0
   10.2171  -15.7452   24.7359 C   0  0  0  0  0  0  0  0  0  0  0  0
   11.3717  -15.9461   25.1971 O   0  0  0  0  0  0  0  0  0  0  0  0
    9.2943  -15.1331   25.6221 N   0  0  0  0  0  0  0  0  0  0  0  0
    9.6465  -14.8880   27.0048 C   0  0  1  0  0  0  0  0  0  0  0  0
    8.5057  -14.1083   27.6227 C   0  0  0  0  0  0  0  0  0  0  0  0
    8.0514  -12.6960   26.5767 S   0  0  0  0  0  0  0  0  0  0  0  0
    9.7992  -16.1357   27.7740 C   0  0  0  0  0  0  0  0  0  0  0  0
    9.5486  -17.2808   27.3217 O   0  0  0  0  0  0  0  0  0  0  0  0
   10.2489  -16.0408   29.0822 O   0  0  0  0  0  0  0  0  0  0  0  0
  2  1  1  6
  2  3  1  0
  3  4  1  0
  4  8  1  0
  4  5  2  0
  6  2  1  0
  7  6  2  0
 10  9  1  0
 11 10  1  1
 11 12  1  0
 12  6  1  0
 13 11  1  0
 13 15  1  0
 14 13  2  0
 16 15  1  0
 16 19  1  0
 16 17  1  1
 18 17  1  0
 19 21  1  0
 20 19  2  0
M  END
$$$$
