DSC.pdb
     RDKit          3D

 21 20  0  0  1  0  0  0  0  0999 V2000
   12.2692  -18.9399   22.0279 N   0  0  0  0  0  0  0  0  0  0  0  0
   13.2489  -18.0622   22.6268 C   0  0  1  0  0  0  0  0  0  0  0  0
   14.3090  -17.7247   21.6302 C   0  0  0  0  0  0  0  0  0  0  0  0
   15.2705  -18.8274   21.4713 C   0  0  0  0  0  0  0  0  0  0  0  0
   15.6489  -19.4583   22.4792 O   0  0  0  0  0  0  0  0  0  0  0  0
   12.5516  -16.8386   23.1168 C   0  0  0  0  0  0  0  0  0  0  0  0
   13.2646  -15.8046   23.3388 O   0  0  0  0  0  0  0  0  0  0  0  0
   15.7585  -19.1715   20.2244 O   0  0  0  0  0  0  0  0  0  0  0  0
    8.3656  -16.4337   22.9386 O   0  0  0  0  0  0  0  0  0  0  0  0
    9.2795  -15.3919   22.7933 C   0  0  0  0  0  0  0  0  0  0  0  0
   10.4542  -15.6337   23.7098 C   0  0  2  0  0  0  0  0  0  0  0  0
   11.1494  -16.8362   23.3252 N   0  0  0  0  0  0  0  0  0  0  0  0
   10.0781  -15.7174   25.1194 C   0  0  0  0  0  0  0  0  0  0  0  0
    9.9704  -16.7913   25.7683 O   0  0  0  0  0  0  0  0  0  0  0  0
    9.8072  -14.5275   25.8422 N   0  0  0  0  0  0  0  0  0  0  0  0
    9.1348  -14.5762   27.1234 C   0  0  1  0  0  0  0  0  0  0  0  0
    9.8995  -13.6673   28.0617 C   0  0  0  0  0  0  0  0  0  0  0  0
   11.6329  -14.1904   28.1926 S   0  0  0  0  0  0  0  0  0  0  0  0
    7.7511  -14.0747   27.0495 C   0  0  0  0  0  0  0  0  0  0  0  0
    7.2602  -13.4979   26.0471 O   0  0  0  0  0  0  0  0  0  0  0  0
    6.9369  -14.2505   28.1581 O   0  0  0  0  0  0  0  0  0  0  0  0
  2  1  1  6
  2  3  1  0
  3  4  1  0
  4  8  1  0
  4  5  2  0
  6  2  1  0
  7  6  2  0
 10  9  1  0
 11 10  1  6
 11 12  1  0
 12  6  1  0
 13 11  1  0
 13 15  1  0
 14 13  2  0
 16 15  1  0
 16 19  1  0
 16 17  1  1
 18 17  1  0
 19 21  1  0
 20 19  2  0
M  END
$$$$
