DSC.pdb
     RDKit          3D

 21 20  0  0  1  0  0  0  0  0999 V2000
   11.1823  -16.2045   18.5730 N   0  0  0  0  0  0  0  0  0  0  0  0
   11.5102  -15.4572   19.7660 C   0  0  1  0  0  0  0  0  0  0  0  0
   12.4779  -14.3682   19.4364 C   0  0  0  0  0  0  0  0  0  0  0  0
   13.8358  -14.8970   19.2316 C   0  0  0  0  0  0  0  0  0  0  0  0
   14.2220  -15.8694   19.9117 O   0  0  0  0  0  0  0  0  0  0  0  0
   10.2490  -14.9100   20.3434 C   0  0  0  0  0  0  0  0  0  0  0  0
    9.3608  -14.4943   19.5278 O   0  0  0  0  0  0  0  0  0  0  0  0
   14.6860  -14.3321   18.2993 O   0  0  0  0  0  0  0  0  0  0  0  0
    6.7366  -16.1793   22.3935 O   0  0  0  0  0  0  0  0  0  0  0  0
    7.9555  -16.0637   21.7283 C   0  0  0  0  0  0  0  0  0  0  0  0
    8.7347  -14.9147   22.3206 C   0  0  2  0  0  0  0  0  0  0  0  0
   10.0555  -14.8578   21.7468 N   0  0  0  0  0  0  0  0  0  0  0  0
    8.8378  -14.9779   23.7769 C   0  0  0  0  0  0  0  0  0  0  0  0
    9.5841  -15.7728   24.4071 O   0  0  0  0  0  0  0  0  0  0  0  0
    8.0586  -14.0986   24.5715 N   0  0  0  0  0  0  0  0  0  0  0  0
    8.1473  -14.1311   26.0161 C   0  0  1  0  0  0  0  0  0  0  0  0
    7.3310  -12.9679   26.5378 C   0  0  0  0  0  0  0  0  0  0  0  0
    5.5973  -13.1161   26.0206 S   0  0  0  0  0  0  0  0  0  0  0  0
    7.5761  -15.3646   26.5852 C   0  0  0  0  0  0  0  0  0  0  0  0
    6.8842  -16.1887   25.9364 O   0  0  0  0  0  0  0  0  0  0  0  0
    7.8175  -15.6344   27.9237 O   0  0  0  0  0  0  0  0  0  0  0  0
  2  1  1  6
  2  3  1  0
  3  4  1  0
  4  8  1  0
  4  5  2  0
  6  2  1  0
  7  6  2  0
 10  9  1  0
 11 10  1  6
 11 12  1  0
 12  6  1  0
 13 11  1  0
 13 15  1  0
 14 13  2  0
 16 15  1  0
 16 19  1  0
 16 17  1  1
 18 17  1  0
 19 21  1  0
 20 19  2  0
M  END
$$$$
