DSC.pdb
     RDKit          3D

 21 20  0  0  1  0  0  0  0  0999 V2000
   -2.7260  -25.9523   24.8315 N   0  0  0  0  0  0  0  0  0  0  0  0
   -3.2626  -26.2788   26.1333 C   0  0  1  0  0  0  0  0  0  0  0  0
   -2.3586  -25.7597   27.2030 C   0  0  0  0  0  0  0  0  0  0  0  0
   -1.0934  -26.5097   27.2508 C   0  0  0  0  0  0  0  0  0  0  0  0
   -0.8739  -27.3929   26.3971 O   0  0  0  0  0  0  0  0  0  0  0  0
   -4.6295  -25.6929   26.2424 C   0  0  0  0  0  0  0  0  0  0  0  0
   -4.8731  -24.6390   25.5663 O   0  0  0  0  0  0  0  0  0  0  0  0
   -0.1488  -26.2496   28.2261 O   0  0  0  0  0  0  0  0  0  0  0  0
   -7.5305  -27.2626   28.8716 O   0  0  0  0  0  0  0  0  0  0  0  0
   -7.9092  -26.8532   27.5947 C   0  0  0  0  0  0  0  0  0  0  0  0
   -6.9595  -25.7815   27.1175 C   0  0  2  0  0  0  0  0  0  0  0  0
   -5.6126  -26.2921   27.0694 N   0  0  0  0  0  0  0  0  0  0  0  0
   -6.9941  -24.5731   27.9385 C   0  0  0  0  0  0  0  0  0  0  0  0
   -6.2445  -24.3589   28.9275 O   0  0  0  0  0  0  0  0  0  0  0  0
   -7.9233  -23.5463   27.6319 N   0  0  0  0  0  0  0  0  0  0  0  0
   -8.0406  -22.3772   28.4776 C   0  0  1  0  0  0  0  0  0  0  0  0
   -8.6459  -21.2764   27.6330 C   0  0  0  0  0  0  0  0  0  0  0  0
   -7.4668  -20.7101   26.3743 S   0  0  0  0  0  0  0  0  0  0  0  0
   -8.9394  -22.6022   29.6236 C   0  0  0  0  0  0  0  0  0  0  0  0
   -9.6213  -23.6437   29.7940 O   0  0  0  0  0  0  0  0  0  0  0  0
   -9.0398  -21.5999   30.5765 O   0  0  0  0  0  0  0  0  0  0  0  0
  2  1  1  6
  2  3  1  0
  3  4  1  0
  4  8  1  0
  4  5  2  0
  6  2  1  0
  7  6  2  0
 10  9  1  0
 11 10  1  1
 11 12  1  0
 12  6  1  0
 13 11  1  0
 13 15  1  0
 14 13  2  0
 16 15  1  0
 16 19  1  0
 16 17  1  6
 18 17  1  0
 19 21  1  0
 20 19  2  0
M  END
$$$$
