DSC.pdb
     RDKit          3D

 21 20  0  0  1  0  0  0  0  0999 V2000
   11.4415  -15.7266   18.4547 N   0  0  0  0  0  0  0  0  0  0  0  0
   11.8941  -15.4620   19.8016 C   0  0  1  0  0  0  0  0  0  0  0  0
   12.8434  -14.3089   19.8040 C   0  0  0  0  0  0  0  0  0  0  0  0
   14.1603  -14.6932   19.2714 C   0  0  0  0  0  0  0  0  0  0  0  0
   14.7581  -15.6704   19.7662 O   0  0  0  0  0  0  0  0  0  0  0  0
   10.7030  -15.1899   20.6564 C   0  0  0  0  0  0  0  0  0  0  0  0
    9.9061  -14.2686   20.2782 O   0  0  0  0  0  0  0  0  0  0  0  0
   14.7415  -13.9878   18.2342 O   0  0  0  0  0  0  0  0  0  0  0  0
    8.9724  -18.0055   23.0250 O   0  0  0  0  0  0  0  0  0  0  0  0
    8.3507  -16.8503   22.5554 C   0  0  0  0  0  0  0  0  0  0  0  0
    9.3137  -15.6929   22.6613 C   0  0  2  0  0  0  0  0  0  0  0  0
   10.4753  -15.9324   21.8424 N   0  0  0  0  0  0  0  0  0  0  0  0
    9.7330  -15.4152   24.0333 C   0  0  0  0  0  0  0  0  0  0  0  0
   10.8511  -15.7336   24.5177 O   0  0  0  0  0  0  0  0  0  0  0  0
    8.8466  -14.7419   24.9123 N   0  0  0  0  0  0  0  0  0  0  0  0
    9.1575  -14.6105   26.3201 C   0  0  1  0  0  0  0  0  0  0  0  0
    8.0784  -13.7451   26.9349 C   0  0  0  0  0  0  0  0  0  0  0  0
    8.2473  -12.0222   26.3887 S   0  0  0  0  0  0  0  0  0  0  0  0
    9.1401  -15.9066   27.0213 C   0  0  0  0  0  0  0  0  0  0  0  0
    8.7564  -16.9855   26.5043 O   0  0  0  0  0  0  0  0  0  0  0  0
    9.5754  -15.9384   28.3374 O   0  0  0  0  0  0  0  0  0  0  0  0
  2  1  1  6
  2  3  1  0
  3  4  1  0
  4  8  1  0
  4  5  2  0
  6  2  1  0
  7  6  2  0
 10  9  1  0
 11 10  1  1
 11 12  1  0
 12  6  1  0
 13 11  1  0
 13 15  1  0
 14 13  2  0
 16 15  1  0
 16 19  1  0
 16 17  1  1
 18 17  1  0
 19 21  1  0
 20 19  2  0
M  END
$$$$
