DSC.pdb
     RDKit          3D

 21 20  0  0  1  0  0  0  0  0999 V2000
    8.8716  -18.6789   15.2718 N   0  0  0  0  0  0  0  0  0  0  0  0
    9.3704  -18.7590   16.6260 C   0  0  1  0  0  0  0  0  0  0  0  0
   10.8169  -18.3883   16.6600 C   0  0  0  0  0  0  0  0  0  0  0  0
   11.6421  -19.3689   15.9369 C   0  0  0  0  0  0  0  0  0  0  0  0
   11.3320  -20.5769   15.9774 O   0  0  0  0  0  0  0  0  0  0  0  0
    8.5548  -17.8534   17.4852 C   0  0  0  0  0  0  0  0  0  0  0  0
    8.1967  -16.7352   16.9870 O   0  0  0  0  0  0  0  0  0  0  0  0
   12.7527  -18.9704   15.2164 O   0  0  0  0  0  0  0  0  0  0  0  0
    6.6049  -19.2276   20.9437 O   0  0  0  0  0  0  0  0  0  0  0  0
    6.1435  -18.2301   20.0871 C   0  0  0  0  0  0  0  0  0  0  0  0
    7.3168  -17.4144   19.6011 C   0  0  2  0  0  0  0  0  0  0  0  0
    8.1975  -18.2308   18.8041 N   0  0  0  0  0  0  0  0  0  0  0  0
    8.0753  -16.7928   20.6845 C   0  0  0  0  0  0  0  0  0  0  0  0
    9.1431  -17.2548   21.1665 O   0  0  0  0  0  0  0  0  0  0  0  0
    7.6084  -15.5835   21.2601 N   0  0  0  0  0  0  0  0  0  0  0  0
    8.3098  -14.9722   22.3693 C   0  0  1  0  0  0  0  0  0  0  0  0
    7.6652  -13.6247   22.6145 C   0  0  0  0  0  0  0  0  0  0  0  0
    7.7654  -12.5846   21.1301 S   0  0  0  0  0  0  0  0  0  0  0  0
    8.1858  -15.7560   23.6111 C   0  0  0  0  0  0  0  0  0  0  0  0
    7.4361  -16.7552   23.7452 O   0  0  0  0  0  0  0  0  0  0  0  0
    8.9458  -15.3660   24.7034 O   0  0  0  0  0  0  0  0  0  0  0  0
  2  1  1  6
  2  3  1  0
  3  4  1  0
  4  8  1  0
  4  5  2  0
  6  2  1  0
  7  6  2  0
 10  9  1  0
 11 10  1  1
 11 12  1  0
 12  6  1  0
 13 11  1  0
 13 15  1  0
 14 13  2  0
 16 15  1  0
 16 19  1  0
 16 17  1  1
 18 17  1  0
 19 21  1  0
 20 19  2  0
M  END
$$$$
