DSC.pdb
     RDKit          3D

 21 20  0  0  1  0  0  0  0  0999 V2000
    8.7862  -19.7703   20.1797 N   0  0  0  0  0  0  0  0  0  0  0  0
    9.1715  -18.4030   20.4462 C   0  0  1  0  0  0  0  0  0  0  0  0
    8.5489  -17.4917   19.4399 C   0  0  0  0  0  0  0  0  0  0  0  0
    9.2097  -17.6030   18.1297 C   0  0  0  0  0  0  0  0  0  0  0  0
   10.1308  -18.4311   17.9782 O   0  0  0  0  0  0  0  0  0  0  0  0
    8.7494  -18.0539   21.8331 C   0  0  0  0  0  0  0  0  0  0  0  0
    7.5677  -18.3782   22.1872 O   0  0  0  0  0  0  0  0  0  0  0  0
    8.8249  -16.8045   17.0689 O   0  0  0  0  0  0  0  0  0  0  0  0
   11.4745  -16.6640   24.8045 O   0  0  0  0  0  0  0  0  0  0  0  0
   10.3921  -17.5165   25.0126 C   0  0  0  0  0  0  0  0  0  0  0  0
    9.2684  -17.1239   24.0844 C   0  0  2  0  0  0  0  0  0  0  0  0
    9.6355  -17.3865   22.7157 N   0  0  0  0  0  0  0  0  0  0  0  0
    8.8684  -15.7252   24.2224 C   0  0  0  0  0  0  0  0  0  0  0  0
    8.6565  -14.9436   23.2580 O   0  0  0  0  0  0  0  0  0  0  0  0
    8.6965  -15.1720   25.5170 N   0  0  0  0  0  0  0  0  0  0  0  0
    8.2701  -13.7987   25.6848 C   0  0  1  0  0  0  0  0  0  0  0  0
    6.8471  -13.7097   25.1762 C   0  0  0  0  0  0  0  0  0  0  0  0
    6.0589  -12.1738   25.7374 S   0  0  0  0  0  0  0  0  0  0  0  0
    8.2628  -13.3828   27.0986 C   0  0  0  0  0  0  0  0  0  0  0  0
    8.0326  -12.2114   27.4902 O   0  0  0  0  0  0  0  0  0  0  0  0
    8.5271  -14.3464   28.0600 O   0  0  0  0  0  0  0  0  0  0  0  0
  2  1  1  6
  2  3  1  0
  3  4  1  0
  4  8  1  0
  4  5  2  0
  6  2  1  0
  7  6  2  0
 10  9  1  0
 11 10  1  1
 11 12  1  0
 12  6  1  0
 13 11  1  0
 13 15  1  0
 14 13  2  0
 16 15  1  0
 16 19  1  0
 16 17  1  1
 18 17  1  0
 19 21  1  0
 20 19  2  0
M  END
$$$$
