MNY.pdb
     RDKit          3D

 29 29  0  0  1  0  0  0  0  0999 V2000
    7.3133  -12.6750   27.3627 C   0  0  0  0  0  0  0  0  0  0  0  0
    7.3423  -13.4453   25.7251 S   0  0  0  0  0  0  0  0  0  0  0  0
    5.7844  -14.2547   25.3318 C   0  0  0  0  0  0  0  0  0  0  0  0
    5.6764  -14.6692   23.8849 C   0  0  0  0  0  0  0  0  0  0  0  0
    6.2349  -16.0406   23.6904 C   0  0  2  0  0  0  0  0  0  0  0  0
    7.0868  -16.3973   24.8000 N   0  0  0  0  0  0  0  0  0  0  0  0
    6.9652  -16.1875   22.4057 C   0  0  0  0  0  0  0  0  0  0  0  0
    6.3320  -16.1742   21.3202 O   0  0  0  0  0  0  0  0  0  0  0  0
    9.7091  -12.2755   19.9837 N   0  0  0  0  0  0  0  0  0  0  0  0
    9.2743  -13.6200   20.0520 C   0  0  0  0  0  0  0  0  0  0  0  0
    9.1692  -14.2847   18.9995 O   0  0  0  0  0  0  0  0  0  0  0  0
    8.9450  -14.2423   21.3490 C   0  0  0  0  0  0  0  0  0  0  0  0
    9.2344  -15.7239   21.3648 C   0  0  2  0  0  0  0  0  0  0  0  0
    8.3742  -16.3456   22.3401 N   0  0  0  0  0  0  0  0  0  0  0  0
   10.6796  -15.9723   21.6942 C   0  0  0  0  0  0  0  0  0  0  0  0
   11.5616  -15.3939   21.0221 O   0  0  0  0  0  0  0  0  0  0  0  0
   10.7815  -14.7472   30.1423 O   0  0  0  0  0  0  0  0  0  0  0  0
   10.7820  -14.8870   28.7476 C   0  0  0  0  0  0  0  0  0  0  0  0
    9.6711  -14.5204   28.0265 C   0  0  0  0  0  0  0  0  0  0  0  0
    9.6666  -14.6557   26.6564 C   0  0  0  0  0  0  0  0  0  0  0  0
   10.7666  -15.1592   25.9667 C   0  0  0  0  0  0  0  0  0  0  0  0
   10.6993  -15.2893   24.4946 C   0  0  0  0  0  0  0  0  0  0  0  0
   11.6516  -16.3430   23.9881 C   0  0  2  0  0  0  0  0  0  0  0  0
   11.0692  -16.8404   22.7411 N   0  0  0  0  0  0  0  0  0  0  0  0
   11.8625  -17.4425   24.9501 C   0  0  0  0  0  0  0  0  0  0  0  0
   11.2544  -18.6729   24.7742 O   0  0  0  0  0  0  0  0  0  0  0  0
   11.8732  -15.5230   26.7011 C   0  0  0  0  0  0  0  0  0  0  0  0
   11.8639  -15.3812   28.0804 C   0  0  0  0  0  0  0  0  0  0  0  0
   12.5991  -17.2849   25.9504 O   0  0  0  0  0  0  0  0  0  0  0  0
  2  1  1  0
  3  2  1  0
  4  5  1  0
  4  3  1  0
  5  6  1  1
  7  8  2  0
  7  5  1  0
  9 10  1  0
 10 12  1  0
 11 10  2  0
 13 12  1  1
 13 14  1  0
 14  7  1  0
 15 24  1  0
 15 13  1  0
 16 15  2  0
 18 17  1  0
 19 18  2  0
 20 19  1  0
 21 27  1  0
 21 20  2  0
 22 21  1  0
 23 22  1  1
 23 24  1  0
 25 23  1  0
 26 25  1  0
 27 28  2  0
 28 18  1  0
 29 25  2  0
M  END
$$$$
