MNY.pdb
     RDKit          3D

 29 29  0  0  1  0  0  0  0  0999 V2000
    7.6147  -11.4687   25.4503 C   0  0  0  0  0  0  0  0  0  0  0  0
    6.2653  -12.6735   25.3906 S   0  0  0  0  0  0  0  0  0  0  0  0
    6.3602  -13.7221   23.9317 C   0  0  0  0  0  0  0  0  0  0  0  0
    7.6289  -14.5363   23.8641 C   0  0  0  0  0  0  0  0  0  0  0  0
    7.6650  -15.3456   22.6094 C   0  0  2  0  0  0  0  0  0  0  0  0
    6.4697  -16.1470   22.4949 N   0  0  0  0  0  0  0  0  0  0  0  0
    8.8757  -16.2000   22.5107 C   0  0  0  0  0  0  0  0  0  0  0  0
    8.8147  -17.4126   22.8349 O   0  0  0  0  0  0  0  0  0  0  0  0
   11.2092  -17.0462   19.1924 N   0  0  0  0  0  0  0  0  0  0  0  0
   12.1849  -16.1143   19.6179 C   0  0  0  0  0  0  0  0  0  0  0  0
   12.9624  -15.6139   18.7779 O   0  0  0  0  0  0  0  0  0  0  0  0
   12.2926  -15.7294   21.0385 C   0  0  0  0  0  0  0  0  0  0  0  0
   11.3267  -16.4905   21.9143 C   0  0  2  0  0  0  0  0  0  0  0  0
   10.1267  -15.7050   22.0584 N   0  0  0  0  0  0  0  0  0  0  0  0
   11.9441  -16.7706   23.2556 C   0  0  0  0  0  0  0  0  0  0  0  0
   11.9060  -17.9359   23.7080 O   0  0  0  0  0  0  0  0  0  0  0  0
   10.4569  -15.9383   31.5188 O   0  0  0  0  0  0  0  0  0  0  0  0
   10.6232  -15.8841   30.1280 C   0  0  0  0  0  0  0  0  0  0  0  0
   10.6555  -14.6656   29.4935 C   0  0  0  0  0  0  0  0  0  0  0  0
   10.8186  -14.6070   28.1277 C   0  0  0  0  0  0  0  0  0  0  0  0
   10.9539  -15.7585   27.3563 C   0  0  0  0  0  0  0  0  0  0  0  0
   11.1178  -15.6323   25.8914 C   0  0  0  0  0  0  0  0  0  0  0  0
   12.5626  -15.7692   25.4825 C   0  0  2  0  0  0  0  0  0  0  0  0
   12.5658  -15.7547   24.0191 N   0  0  0  0  0  0  0  0  0  0  0  0
   13.1968  -16.9969   26.0016 C   0  0  0  0  0  0  0  0  0  0  0  0
   14.1218  -16.9441   27.0294 O   0  0  0  0  0  0  0  0  0  0  0  0
   10.9196  -16.9730   28.0044 C   0  0  0  0  0  0  0  0  0  0  0  0
   10.7548  -17.0171   29.3804 C   0  0  0  0  0  0  0  0  0  0  0  0
   12.9106  -18.1172   25.5210 O   0  0  0  0  0  0  0  0  0  0  0  0
  2  1  1  0
  3  2  1  0
  4  5  1  0
  4  3  1  0
  5  6  1  1
  7  8  2  0
  7  5  1  0
  9 10  1  0
 10 12  1  0
 11 10  2  0
 13 12  1  6
 13 14  1  0
 14  7  1  0
 15 24  1  0
 15 13  1  0
 16 15  2  0
 18 17  1  0
 19 18  2  0
 20 19  1  0
 21 27  1  0
 21 20  2  0
 22 21  1  0
 23 22  1  6
 23 24  1  0
 25 23  1  0
 26 25  1  0
 27 28  2  0
 28 18  1  0
 29 25  2  0
M  END
$$$$
