MNY.pdb
     RDKit          3D

 29 29  0  0  1  0  0  0  0  0999 V2000
    7.8666  -11.7902   20.1507 C   0  0  0  0  0  0  0  0  0  0  0  0
    7.6904  -12.6198   18.5518 S   0  0  0  0  0  0  0  0  0  0  0  0
    7.3323  -14.3733   18.7366 C   0  0  0  0  0  0  0  0  0  0  0  0
    8.0829  -15.0183   19.8757 C   0  0  0  0  0  0  0  0  0  0  0  0
    8.6674  -16.3234   19.4447 C   0  0  2  0  0  0  0  0  0  0  0  0
    7.6885  -17.0954   18.7167 N   0  0  0  0  0  0  0  0  0  0  0  0
    9.2130  -17.1117   20.5787 C   0  0  0  0  0  0  0  0  0  0  0  0
    8.4337  -17.5951   21.4380 O   0  0  0  0  0  0  0  0  0  0  0  0
   11.9303  -20.0547   19.4651 N   0  0  0  0  0  0  0  0  0  0  0  0
   11.4201  -19.8953   20.7749 C   0  0  0  0  0  0  0  0  0  0  0  0
   10.4118  -20.5452   21.1235 O   0  0  0  0  0  0  0  0  0  0  0  0
   12.0645  -18.9724   21.7293 C   0  0  0  0  0  0  0  0  0  0  0  0
   11.2352  -17.7365   21.9818 C   0  0  2  0  0  0  0  0  0  0  0  0
   10.6019  -17.3524   20.7452 N   0  0  0  0  0  0  0  0  0  0  0  0
   12.0988  -16.6236   22.5058 C   0  0  0  0  0  0  0  0  0  0  0  0
   13.3353  -16.6820   22.3280 O   0  0  0  0  0  0  0  0  0  0  0  0
   10.9119  -15.4187   30.9501 O   0  0  0  0  0  0  0  0  0  0  0  0
   10.8036  -15.4902   29.5544 C   0  0  0  0  0  0  0  0  0  0  0  0
   11.0922  -16.6685   28.9089 C   0  0  0  0  0  0  0  0  0  0  0  0
   10.9874  -16.7440   27.5382 C   0  0  0  0  0  0  0  0  0  0  0  0
   10.5929  -15.6496   26.7727 C   0  0  0  0  0  0  0  0  0  0  0  0
   10.5070  -15.7891   25.3024 C   0  0  0  0  0  0  0  0  0  0  0  0
   11.7651  -15.3058   24.6262 C   0  0  2  0  0  0  0  0  0  0  0  0
   11.5529  -15.5142   23.1934 N   0  0  0  0  0  0  0  0  0  0  0  0
   12.9775  -16.0085   25.0901 C   0  0  0  0  0  0  0  0  0  0  0  0
   13.0761  -17.3869   25.0196 O   0  0  0  0  0  0  0  0  0  0  0  0
   10.3069  -14.4748   27.4318 C   0  0  0  0  0  0  0  0  0  0  0  0
   10.4166  -14.4132   28.8126 C   0  0  0  0  0  0  0  0  0  0  0  0
   13.9470  -15.3699   25.5595 O   0  0  0  0  0  0  0  0  0  0  0  0
  2  1  1  0
  3  2  1  0
  4  5  1  0
  4  3  1  0
  5  6  1  1
  7  8  2  0
  7  5  1  0
  9 10  1  0
 10 12  1  0
 11 10  2  0
 13 12  1  6
 13 14  1  0
 14  7  1  0
 15 24  1  0
 15 13  1  0
 16 15  2  0
 18 17  1  0
 19 18  2  0
 20 19  1  0
 21 27  1  0
 21 20  2  0
 22 21  1  0
 23 22  1  1
 23 24  1  0
 25 23  1  0
 26 25  1  0
 27 28  2  0
 28 18  1  0
 29 25  2  0
M  END
$$$$
