MNY.pdb
     RDKit          3D

 29 29  0  0  1  0  0  0  0  0999 V2000
    8.3324  -11.6270   20.3522 C   0  0  0  0  0  0  0  0  0  0  0  0
    7.3710  -11.9480   18.8527 S   0  0  0  0  0  0  0  0  0  0  0  0
    7.9369  -13.4221   17.9903 C   0  0  0  0  0  0  0  0  0  0  0  0
    8.3506  -14.5355   18.9209 C   0  0  0  0  0  0  0  0  0  0  0  0
    8.9172  -15.6806   18.1475 C   0  0  2  0  0  0  0  0  0  0  0  0
    7.9604  -16.1509   17.1742 N   0  0  0  0  0  0  0  0  0  0  0  0
    9.3652  -16.7972   19.0181 C   0  0  0  0  0  0  0  0  0  0  0  0
    9.1088  -17.9845   18.6959 O   0  0  0  0  0  0  0  0  0  0  0  0
   13.5084  -19.9946   20.7783 N   0  0  0  0  0  0  0  0  0  0  0  0
   12.1947  -19.5405   21.0421 C   0  0  0  0  0  0  0  0  0  0  0  0
   11.5275  -20.0859   21.9465 O   0  0  0  0  0  0  0  0  0  0  0  0
   11.6074  -18.4337   20.2623 C   0  0  0  0  0  0  0  0  0  0  0  0
   10.6150  -17.6287   21.0662 C   0  0  2  0  0  0  0  0  0  0  0  0
   10.0849  -16.5865   20.2233 N   0  0  0  0  0  0  0  0  0  0  0  0
   11.2766  -17.0447   22.2828 C   0  0  0  0  0  0  0  0  0  0  0  0
   12.1559  -16.1684   22.1317 O   0  0  0  0  0  0  0  0  0  0  0  0
   10.5516  -14.1267   30.5946 O   0  0  0  0  0  0  0  0  0  0  0  0
   10.3778  -14.6959   29.3255 C   0  0  0  0  0  0  0  0  0  0  0  0
   10.5745  -16.0448   29.1518 C   0  0  0  0  0  0  0  0  0  0  0  0
   10.4050  -16.6086   27.9074 C   0  0  0  0  0  0  0  0  0  0  0  0
   10.0354  -15.8462   26.8021 C   0  0  0  0  0  0  0  0  0  0  0  0
    9.8769  -16.5072   25.4882 C   0  0  0  0  0  0  0  0  0  0  0  0
   11.1947  -16.6235   24.7647 C   0  0  2  0  0  0  0  0  0  0  0  0
   10.9330  -17.4581   23.5914 N   0  0  0  0  0  0  0  0  0  0  0  0
   12.2640  -17.2042   25.6003 C   0  0  0  0  0  0  0  0  0  0  0  0
   12.3063  -18.5616   25.8659 O   0  0  0  0  0  0  0  0  0  0  0  0
    9.8417  -14.4958   26.9897 C   0  0  0  0  0  0  0  0  0  0  0  0
   10.0157  -13.9414   28.2486 C   0  0  0  0  0  0  0  0  0  0  0  0
   13.1596  -16.4782   26.0890 O   0  0  0  0  0  0  0  0  0  0  0  0
  2  1  1  0
  3  2  1  0
  4  5  1  0
  4  3  1  0
  5  6  1  6
  7  8  2  0
  7  5  1  0
  9 10  1  0
 10 12  1  0
 11 10  2  0
 13 12  1  6
 13 14  1  0
 14  7  1  0
 15 24  1  0
 15 13  1  0
 16 15  2  0
 18 17  1  0
 19 18  2  0
 20 19  1  0
 21 27  1  0
 21 20  2  0
 22 21  1  0
 23 22  1  1
 23 24  1  0
 25 23  1  0
 26 25  1  0
 27 28  2  0
 28 18  1  0
 29 25  2  0
M  END
$$$$
