MNY.pdb
     RDKit          3D

 29 29  0  0  1  0  0  0  0  0999 V2000
    7.1647  -13.8027   17.5393 C   0  0  0  0  0  0  0  0  0  0  0  0
    7.7774  -12.5928   18.7379 S   0  0  0  0  0  0  0  0  0  0  0  0
    7.1255  -12.8877   20.3886 C   0  0  0  0  0  0  0  0  0  0  0  0
    7.3396  -14.3015   20.8705 C   0  0  0  0  0  0  0  0  0  0  0  0
    8.7330  -14.4757   21.3789 C   0  0  2  0  0  0  0  0  0  0  0  0
    9.6881  -14.1337   20.3518 N   0  0  0  0  0  0  0  0  0  0  0  0
    8.9905  -15.8446   21.8938 C   0  0  0  0  0  0  0  0  0  0  0  0
    8.2467  -16.3296   22.7830 O   0  0  0  0  0  0  0  0  0  0  0  0
    8.7914  -19.4819   19.9923 N   0  0  0  0  0  0  0  0  0  0  0  0
   10.0891  -18.9697   19.7578 C   0  0  0  0  0  0  0  0  0  0  0  0
   10.4350  -18.6864   18.5914 O   0  0  0  0  0  0  0  0  0  0  0  0
   11.0342  -18.7679   20.8732 C   0  0  0  0  0  0  0  0  0  0  0  0
   10.4464  -17.9234   21.9779 C   0  0  2  0  0  0  0  0  0  0  0  0
   10.0587  -16.6514   21.4217 N   0  0  0  0  0  0  0  0  0  0  0  0
   11.4462  -17.7381   23.0847 C   0  0  0  0  0  0  0  0  0  0  0  0
   12.3879  -16.9317   22.9209 O   0  0  0  0  0  0  0  0  0  0  0  0
   10.1821  -13.8886   30.4601 O   0  0  0  0  0  0  0  0  0  0  0  0
   10.2872  -14.5164   29.2113 C   0  0  0  0  0  0  0  0  0  0  0  0
   11.0972  -15.6174   29.0690 C   0  0  0  0  0  0  0  0  0  0  0  0
   11.2039  -16.2376   27.8446 C   0  0  0  0  0  0  0  0  0  0  0  0
   10.5079  -15.7796   26.7286 C   0  0  0  0  0  0  0  0  0  0  0  0
   10.6696  -16.4826   25.4371 C   0  0  0  0  0  0  0  0  0  0  0  0
   11.4215  -17.7790   25.6030 C   0  0  2  0  0  0  0  0  0  0  0  0
   11.3518  -18.4493   24.3040 N   0  0  0  0  0  0  0  0  0  0  0  0
   10.8697  -18.6350   26.6714 C   0  0  0  0  0  0  0  0  0  0  0  0
   11.5296  -18.7873   27.8780 O   0  0  0  0  0  0  0  0  0  0  0  0
    9.7000  -14.6754   26.8847 C   0  0  0  0  0  0  0  0  0  0  0  0
    9.6020  -14.0609   28.1237 C   0  0  0  0  0  0  0  0  0  0  0  0
    9.7881  -19.2445   26.5083 O   0  0  0  0  0  0  0  0  0  0  0  0
  2  1  1  0
  3  2  1  0
  4  5  1  0
  4  3  1  0
  5  6  1  6
  7  8  2  0
  7  5  1  0
  9 10  1  0
 10 12  1  0
 11 10  2  0
 13 12  1  6
 13 14  1  0
 14  7  1  0
 15 24  1  0
 15 13  1  0
 16 15  2  0
 18 17  1  0
 19 18  2  0
 20 19  1  0
 21 27  1  0
 21 20  2  0
 22 21  1  0
 23 22  1  6
 23 24  1  0
 25 23  1  0
 26 25  1  0
 27 28  2  0
 28 18  1  0
 29 25  2  0
M  END
$$$$
