MNY.pdb
     RDKit          3D

 29 29  0  0  1  0  0  0  0  0999 V2000
    7.8436  -12.7230   20.8690 C   0  0  0  0  0  0  0  0  0  0  0  0
    7.4305  -13.0317   19.1341 S   0  0  0  0  0  0  0  0  0  0  0  0
    8.4358  -14.3438   18.4237 C   0  0  0  0  0  0  0  0  0  0  0  0
    8.9716  -15.3083   19.4531 C   0  0  0  0  0  0  0  0  0  0  0  0
    9.7245  -16.4152   18.7911 C   0  0  2  0  0  0  0  0  0  0  0  0
    9.5068  -16.3867   17.3642 N   0  0  0  0  0  0  0  0  0  0  0  0
    9.3851  -17.7517   19.3424 C   0  0  0  0  0  0  0  0  0  0  0  0
    8.6799  -18.5459   18.6706 O   0  0  0  0  0  0  0  0  0  0  0  0
   13.2201  -19.2808   20.1240 N   0  0  0  0  0  0  0  0  0  0  0  0
   12.8213  -18.0716   19.5073 C   0  0  0  0  0  0  0  0  0  0  0  0
   13.2290  -17.8067   18.3566 O   0  0  0  0  0  0  0  0  0  0  0  0
   11.9323  -17.1242   20.2073 C   0  0  0  0  0  0  0  0  0  0  0  0
   11.0691  -17.8048   21.2422 C   0  0  2  0  0  0  0  0  0  0  0  0
    9.8271  -18.1876   20.6189 N   0  0  0  0  0  0  0  0  0  0  0  0
   10.8202  -16.8848   22.4044 C   0  0  0  0  0  0  0  0  0  0  0  0
   11.7930  -16.4949   23.0868 O   0  0  0  0  0  0  0  0  0  0  0  0
    6.6546  -11.2950   27.7953 O   0  0  0  0  0  0  0  0  0  0  0  0
    6.9492  -12.1960   26.7628 C   0  0  0  0  0  0  0  0  0  0  0  0
    8.2586  -12.4352   26.4212 C   0  0  0  0  0  0  0  0  0  0  0  0
    8.5533  -13.3192   25.4078 C   0  0  0  0  0  0  0  0  0  0  0  0
    7.5537  -13.9892   24.7068 C   0  0  0  0  0  0  0  0  0  0  0  0
    7.9318  -14.9210   23.6218 C   0  0  0  0  0  0  0  0  0  0  0  0
    9.2694  -15.5647   23.8864 C   0  0  2  0  0  0  0  0  0  0  0  0
    9.5188  -16.4487   22.7471 N   0  0  0  0  0  0  0  0  0  0  0  0
    9.3093  -16.3143   25.1574 C   0  0  0  0  0  0  0  0  0  0  0  0
    9.8636  -15.7596   26.2975 O   0  0  0  0  0  0  0  0  0  0  0  0
    6.2458  -13.7404   25.0588 C   0  0  0  0  0  0  0  0  0  0  0  0
    5.9637  -12.8476   26.0815 C   0  0  0  0  0  0  0  0  0  0  0  0
    8.8407  -17.4731   25.2317 O   0  0  0  0  0  0  0  0  0  0  0  0
  2  1  1  0
  3  2  1  0
  4  5  1  0
  4  3  1  0
  5  6  1  6
  7  8  2  0
  7  5  1  0
  9 10  1  0
 10 12  1  0
 11 10  2  0
 13 12  1  6
 13 14  1  0
 14  7  1  0
 15 24  1  0
 15 13  1  0
 16 15  2  0
 18 17  1  0
 19 18  2  0
 20 19  1  0
 21 27  1  0
 21 20  2  0
 22 21  1  0
 23 22  1  6
 23 24  1  0
 25 23  1  0
 26 25  1  0
 27 28  2  0
 28 18  1  0
 29 25  2  0
M  END
$$$$
