MNY.pdb
     RDKit          3D

 29 29  0  0  1  0  0  0  0  0999 V2000
    7.0213  -12.4417   21.0302 C   0  0  0  0  0  0  0  0  0  0  0  0
    7.5893  -12.3656   19.3134 S   0  0  0  0  0  0  0  0  0  0  0  0
    7.7958  -14.0031   18.5971 C   0  0  0  0  0  0  0  0  0  0  0  0
    7.8931  -15.0981   19.6308 C   0  0  0  0  0  0  0  0  0  0  0  0
    9.2768  -15.1701   20.1881 C   0  0  2  0  0  0  0  0  0  0  0  0
   10.2509  -15.0211   19.1332 N   0  0  0  0  0  0  0  0  0  0  0  0
    9.5247  -16.4190   20.9525 C   0  0  0  0  0  0  0  0  0  0  0  0
    8.6302  -16.8811   21.7047 O   0  0  0  0  0  0  0  0  0  0  0  0
   10.4246  -20.8750   20.0060 N   0  0  0  0  0  0  0  0  0  0  0  0
   11.3319  -19.8129   19.7818 C   0  0  0  0  0  0  0  0  0  0  0  0
   11.5473  -19.4268   18.6135 O   0  0  0  0  0  0  0  0  0  0  0  0
   12.0235  -19.1597   20.9100 C   0  0  0  0  0  0  0  0  0  0  0  0
   11.1064  -18.2588   21.7015 C   0  0  2  0  0  0  0  0  0  0  0  0
   10.7486  -17.1335   20.8748 N   0  0  0  0  0  0  0  0  0  0  0  0
   11.7829  -17.7995   22.9626 C   0  0  0  0  0  0  0  0  0  0  0  0
   12.1778  -18.6558   23.7840 O   0  0  0  0  0  0  0  0  0  0  0  0
   10.4513  -14.2311   30.5611 O   0  0  0  0  0  0  0  0  0  0  0  0
   10.5135  -14.6886   29.2375 C   0  0  0  0  0  0  0  0  0  0  0  0
   10.2920  -13.8114   28.2032 C   0  0  0  0  0  0  0  0  0  0  0  0
   10.3520  -14.2557   26.9015 C   0  0  0  0  0  0  0  0  0  0  0  0
   10.6338  -15.5843   26.5935 C   0  0  0  0  0  0  0  0  0  0  0  0
   10.6762  -16.0044   25.1757 C   0  0  0  0  0  0  0  0  0  0  0  0
   12.0737  -15.9214   24.6156 C   0  0  2  0  0  0  0  0  0  0  0  0
   11.9848  -16.4281   23.2456 N   0  0  0  0  0  0  0  0  0  0  0  0
   13.0586  -16.6899   25.4019 C   0  0  0  0  0  0  0  0  0  0  0  0
   12.9163  -18.0534   25.5898 O   0  0  0  0  0  0  0  0  0  0  0  0
   10.8535  -16.4529   27.6392 C   0  0  0  0  0  0  0  0  0  0  0  0
   10.7901  -15.9916   28.9452 C   0  0  0  0  0  0  0  0  0  0  0  0
   14.0481  -16.1222   25.9183 O   0  0  0  0  0  0  0  0  0  0  0  0
  2  1  1  0
  3  2  1  0
  4  5  1  0
  4  3  1  0
  5  6  1  6
  7  8  2  0
  7  5  1  0
  9 10  1  0
 10 12  1  0
 11 10  2  0
 13 12  1  6
 13 14  1  0
 14  7  1  0
 15 24  1  0
 15 13  1  0
 16 15  2  0
 18 17  1  0
 19 18  2  0
 20 19  1  0
 21 27  1  0
 21 20  2  0
 22 21  1  0
 23 22  1  1
 23 24  1  0
 25 23  1  0
 26 25  1  0
 27 28  2  0
 28 18  1  0
 29 25  2  0
M  END
$$$$
