MNY.pdb
     RDKit          3D

 29 29  0  0  1  0  0  0  0  0999 V2000
    7.6149  -12.2399   20.5679 C   0  0  0  0  0  0  0  0  0  0  0  0
    8.6155  -12.6035   19.1042 S   0  0  0  0  0  0  0  0  0  0  0  0
    9.3625  -14.2382   19.1858 C   0  0  0  0  0  0  0  0  0  0  0  0
    9.4757  -14.7725   20.5925 C   0  0  0  0  0  0  0  0  0  0  0  0
    9.9500  -16.1886   20.5777 C   0  0  2  0  0  0  0  0  0  0  0  0
    9.8499  -16.7372   19.2462 N   0  0  0  0  0  0  0  0  0  0  0  0
    9.2271  -17.0474   21.5500 C   0  0  0  0  0  0  0  0  0  0  0  0
    8.7486  -18.1484   21.1784 O   0  0  0  0  0  0  0  0  0  0  0  0
   10.0973  -18.5834   25.8248 N   0  0  0  0  0  0  0  0  0  0  0  0
    9.7797  -18.9552   24.4973 C   0  0  0  0  0  0  0  0  0  0  0  0
   10.6608  -19.4712   23.7776 O   0  0  0  0  0  0  0  0  0  0  0  0
    8.4235  -18.7401   23.9567 C   0  0  0  0  0  0  0  0  0  0  0  0
    8.0901  -17.2751   23.8090 C   0  0  2  0  0  0  0  0  0  0  0  0
    9.0451  -16.6792   22.9086 N   0  0  0  0  0  0  0  0  0  0  0  0
    8.1224  -16.5925   25.1476 C   0  0  0  0  0  0  0  0  0  0  0  0
    9.1967  -16.5650   25.7872 O   0  0  0  0  0  0  0  0  0  0  0  0
   12.1175  -15.2416   29.9234 O   0  0  0  0  0  0  0  0  0  0  0  0
   11.1729  -14.9437   28.9316 C   0  0  0  0  0  0  0  0  0  0  0  0
   11.4567  -15.2216   27.6160 C   0  0  0  0  0  0  0  0  0  0  0  0
   10.5323  -14.9309   26.6381 C   0  0  0  0  0  0  0  0  0  0  0  0
    9.3008  -14.3561   26.9421 C   0  0  0  0  0  0  0  0  0  0  0  0
    8.3517  -14.0587   25.8471 C   0  0  0  0  0  0  0  0  0  0  0  0
    6.9730  -14.5884   26.1507 C   0  0  2  0  0  0  0  0  0  0  0  0
    6.9736  -15.9817   25.7031 N   0  0  0  0  0  0  0  0  0  0  0  0
    5.8997  -13.8200   25.4900 C   0  0  0  0  0  0  0  0  0  0  0  0
    5.0491  -13.0078   26.2190 O   0  0  0  0  0  0  0  0  0  0  0  0
    9.0290  -14.0825   28.2641 C   0  0  0  0  0  0  0  0  0  0  0  0
    9.9693  -14.3806   29.2385 C   0  0  0  0  0  0  0  0  0  0  0  0
    5.7349  -13.8869   24.2505 O   0  0  0  0  0  0  0  0  0  0  0  0
  2  1  1  0
  3  2  1  0
  4  5  1  0
  4  3  1  0
  5  6  1  6
  7  8  2  0
  7  5  1  0
  9 10  1  0
 10 12  1  0
 11 10  2  0
 13 12  1  1
 13 14  1  0
 14  7  1  0
 15 24  1  0
 15 13  1  0
 16 15  2  0
 18 17  1  0
 19 18  2  0
 20 19  1  0
 21 27  1  0
 21 20  2  0
 22 21  1  0
 23 22  1  6
 23 24  1  0
 25 23  1  0
 26 25  1  0
 27 28  2  0
 28 18  1  0
 29 25  2  0
M  END
$$$$
