MNY.pdb
     RDKit          3D

 29 29  0  0  1  0  0  0  0  0999 V2000
    6.6249  -18.2087   15.4528 C   0  0  0  0  0  0  0  0  0  0  0  0
    6.8587  -19.7877   16.3059 S   0  0  0  0  0  0  0  0  0  0  0  0
    7.0676  -19.5724   18.0799 C   0  0  0  0  0  0  0  0  0  0  0  0
    8.0069  -18.4469   18.4375 C   0  0  0  0  0  0  0  0  0  0  0  0
    8.0876  -18.2836   19.9198 C   0  0  2  0  0  0  0  0  0  0  0  0
    6.7717  -18.0685   20.4731 N   0  0  0  0  0  0  0  0  0  0  0  0
    9.0087  -17.1929   20.3290 C   0  0  0  0  0  0  0  0  0  0  0  0
   10.2310  -17.2664   20.0466 O   0  0  0  0  0  0  0  0  0  0  0  0
    7.0280  -13.1902   19.2467 N   0  0  0  0  0  0  0  0  0  0  0  0
    8.3184  -13.6215   19.6346 C   0  0  0  0  0  0  0  0  0  0  0  0
    9.1351  -13.9771   18.7589 O   0  0  0  0  0  0  0  0  0  0  0  0
    8.7071  -13.6555   21.0579 C   0  0  0  0  0  0  0  0  0  0  0  0
    9.4063  -14.9403   21.4314 C   0  0  2  0  0  0  0  0  0  0  0  0
    8.5683  -16.0455   21.0392 N   0  0  0  0  0  0  0  0  0  0  0  0
    9.6801  -14.9778   22.9088 C   0  0  0  0  0  0  0  0  0  0  0  0
   10.3785  -14.0739   23.4180 O   0  0  0  0  0  0  0  0  0  0  0  0
    5.3806  -11.1154   26.0010 O   0  0  0  0  0  0  0  0  0  0  0  0
    6.0030  -12.3702   25.9447 C   0  0  0  0  0  0  0  0  0  0  0  0
    7.3611  -12.4652   26.1316 C   0  0  0  0  0  0  0  0  0  0  0  0
    7.9771  -13.6952   26.0772 C   0  0  0  0  0  0  0  0  0  0  0  0
    7.2592  -14.8637   25.8354 C   0  0  0  0  0  0  0  0  0  0  0  0
    7.9780  -16.1555   25.7800 C   0  0  0  0  0  0  0  0  0  0  0  0
    9.3561  -15.9970   25.1892 C   0  0  2  0  0  0  0  0  0  0  0  0
    9.1710  -16.0050   23.7375 N   0  0  0  0  0  0  0  0  0  0  0  0
   10.2914  -17.0586   25.6100 C   0  0  0  0  0  0  0  0  0  0  0  0
   10.6435  -17.2158   26.9389 O   0  0  0  0  0  0  0  0  0  0  0  0
    5.8991  -14.7546   25.6497 C   0  0  0  0  0  0  0  0  0  0  0  0
    5.2919  -13.5094   25.7072 C   0  0  0  0  0  0  0  0  0  0  0  0
   10.7887  -17.8430   24.7701 O   0  0  0  0  0  0  0  0  0  0  0  0
  2  1  1  0
  3  2  1  0
  4  5  1  0
  4  3  1  0
  5  6  1  6
  7  8  2  0
  7  5  1  0
  9 10  1  0
 10 12  1  0
 11 10  2  0
 13 12  1  1
 13 14  1  0
 14  7  1  0
 15 24  1  0
 15 13  1  0
 16 15  2  0
 18 17  1  0
 19 18  2  0
 20 19  1  0
 21 27  1  0
 21 20  2  0
 22 21  1  0
 23 22  1  1
 23 24  1  0
 25 23  1  0
 26 25  1  0
 27 28  2  0
 28 18  1  0
 29 25  2  0
M  END
$$$$
