MNY.pdb
     RDKit          3D

 29 29  0  0  1  0  0  0  0  0999 V2000
    8.5515  -11.9444   19.0396 C   0  0  0  0  0  0  0  0  0  0  0  0
    7.6360  -12.1636   20.5854 S   0  0  0  0  0  0  0  0  0  0  0  0
    7.4181  -13.9006   21.0007 C   0  0  0  0  0  0  0  0  0  0  0  0
    7.6461  -14.8265   19.8312 C   0  0  0  0  0  0  0  0  0  0  0  0
    7.5601  -16.2521   20.2679 C   0  0  2  0  0  0  0  0  0  0  0  0
    6.5137  -16.4138   21.2492 N   0  0  0  0  0  0  0  0  0  0  0  0
    8.8489  -16.7722   20.7911 C   0  0  0  0  0  0  0  0  0  0  0  0
    9.6792  -17.2938   20.0052 O   0  0  0  0  0  0  0  0  0  0  0  0
   13.5410  -17.3217   22.6240 N   0  0  0  0  0  0  0  0  0  0  0  0
   12.7266  -16.3853   23.3033 C   0  0  0  0  0  0  0  0  0  0  0  0
   13.1340  -15.8783   24.3698 O   0  0  0  0  0  0  0  0  0  0  0  0
   11.4060  -16.0035   22.7665 C   0  0  0  0  0  0  0  0  0  0  0  0
   10.4445  -17.1667   22.7267 C   0  0  2  0  0  0  0  0  0  0  0  0
    9.1984  -16.7086   22.1653 N   0  0  0  0  0  0  0  0  0  0  0  0
   10.2345  -17.7209   24.1079 C   0  0  0  0  0  0  0  0  0  0  0  0
   11.2030  -18.2392   24.7057 O   0  0  0  0  0  0  0  0  0  0  0  0
   10.5166  -12.8269   29.0458 O   0  0  0  0  0  0  0  0  0  0  0  0
    9.8662  -13.9402   28.4958 C   0  0  0  0  0  0  0  0  0  0  0  0
    8.8058  -13.7555   27.6414 C   0  0  0  0  0  0  0  0  0  0  0  0
    8.1636  -14.8456   27.0986 C   0  0  0  0  0  0  0  0  0  0  0  0
    8.5586  -16.1486   27.3909 C   0  0  0  0  0  0  0  0  0  0  0  0
    7.8241  -17.2802   26.7838 C   0  0  0  0  0  0  0  0  0  0  0  0
    8.7583  -18.2340   26.0831 C   0  0  2  0  0  0  0  0  0  0  0  0
    8.9743  -17.6728   24.7490 N   0  0  0  0  0  0  0  0  0  0  0  0
    8.2263  -19.6084   26.0001 C   0  0  0  0  0  0  0  0  0  0  0  0
    7.9600  -20.1993   24.7775 O   0  0  0  0  0  0  0  0  0  0  0  0
    9.6223  -16.3198   28.2486 C   0  0  0  0  0  0  0  0  0  0  0  0
   10.2598  -15.2128   28.7878 C   0  0  0  0  0  0  0  0  0  0  0  0
    8.0032  -20.2720   27.0383 O   0  0  0  0  0  0  0  0  0  0  0  0
  2  1  1  0
  3  2  1  0
  4  5  1  0
  4  3  1  0
  5  6  1  1
  7  8  2  0
  7  5  1  0
  9 10  1  0
 10 12  1  0
 11 10  2  0
 13 12  1  1
 13 14  1  0
 14  7  1  0
 15 24  1  0
 15 13  1  0
 16 15  2  0
 18 17  1  0
 19 18  2  0
 20 19  1  0
 21 27  1  0
 21 20  2  0
 22 21  1  0
 23 22  1  1
 23 24  1  0
 25 23  1  0
 26 25  1  0
 27 28  2  0
 28 18  1  0
 29 25  2  0
M  END
$$$$
