MNY.pdb
     RDKit          3D

 29 29  0  0  1  0  0  0  0  0999 V2000
    6.9357  -11.9417   26.6355 C   0  0  0  0  0  0  0  0  0  0  0  0
    7.3721  -13.6841   26.8578 S   0  0  0  0  0  0  0  0  0  0  0  0
    7.3027  -14.6003   25.3109 C   0  0  0  0  0  0  0  0  0  0  0  0
    7.6305  -16.0646   25.4700 C   0  0  0  0  0  0  0  0  0  0  0  0
    7.5162  -16.7718   24.1596 C   0  0  2  0  0  0  0  0  0  0  0  0
    6.5034  -17.7981   24.2301 N   0  0  0  0  0  0  0  0  0  0  0  0
    8.8069  -17.3454   23.7010 C   0  0  0  0  0  0  0  0  0  0  0  0
    9.0644  -18.5571   23.9128 O   0  0  0  0  0  0  0  0  0  0  0  0
   10.0625  -17.3769   19.9506 N   0  0  0  0  0  0  0  0  0  0  0  0
   10.9559  -16.3047   20.1825 C   0  0  0  0  0  0  0  0  0  0  0  0
   11.2143  -15.5101   19.2538 O   0  0  0  0  0  0  0  0  0  0  0  0
   11.5829  -16.1167   21.5052 C   0  0  0  0  0  0  0  0  0  0  0  0
   11.0478  -17.0808   22.5363 C   0  0  2  0  0  0  0  0  0  0  0  0
    9.7869  -16.5769   23.0200 N   0  0  0  0  0  0  0  0  0  0  0  0
   12.0271  -17.2375   23.6656 C   0  0  0  0  0  0  0  0  0  0  0  0
   13.1435  -17.7503   23.4317 O   0  0  0  0  0  0  0  0  0  0  0  0
    8.4744  -13.7649   29.6638 O   0  0  0  0  0  0  0  0  0  0  0  0
    9.5600  -14.2645   28.9312 C   0  0  0  0  0  0  0  0  0  0  0  0
   10.5322  -14.9968   29.5691 C   0  0  0  0  0  0  0  0  0  0  0  0
   11.6004  -15.4898   28.8541 C   0  0  0  0  0  0  0  0  0  0  0  0
   11.7306  -15.2676   27.4855 C   0  0  0  0  0  0  0  0  0  0  0  0
   12.9054  -15.8156   26.7727 C   0  0  0  0  0  0  0  0  0  0  0  0
   12.5891  -17.1369   26.1187 C   0  0  2  0  0  0  0  0  0  0  0  0
   11.7216  -16.8221   24.9829 N   0  0  0  0  0  0  0  0  0  0  0  0
   11.9372  -18.0939   27.0341 C   0  0  0  0  0  0  0  0  0  0  0  0
   12.6127  -18.6145   28.1238 O   0  0  0  0  0  0  0  0  0  0  0  0
   10.7497  -14.5321   26.8585 C   0  0  0  0  0  0  0  0  0  0  0  0
    9.6794  -14.0419   27.5910 C   0  0  0  0  0  0  0  0  0  0  0  0
   10.7540  -18.4570   26.8436 O   0  0  0  0  0  0  0  0  0  0  0  0
  2  1  1  0
  3  2  1  0
  4  5  1  0
  4  3  1  0
  5  6  1  1
  7  8  2  0
  7  5  1  0
  9 10  1  0
 10 12  1  0
 11 10  2  0
 13 12  1  6
 13 14  1  0
 14  7  1  0
 15 24  1  0
 15 13  1  0
 16 15  2  0
 18 17  1  0
 19 18  2  0
 20 19  1  0
 21 27  1  0
 21 20  2  0
 22 21  1  0
 23 22  1  1
 23 24  1  0
 25 23  1  0
 26 25  1  0
 27 28  2  0
 28 18  1  0
 29 25  2  0
M  END
$$$$
