VGA.pdb
     RDKit          3D

 17 16  0  0  1  0  0  0  0  0999 V2000
   18.8929  -13.3605  -18.5956 C   0  0  0  0  0  0  0  0  0  0  0  0
   19.9173  -12.6659  -17.7119 C   0  0  1  0  0  0  0  0  0  0  0  0
   21.3161  -12.8116  -18.2751 C   0  0  0  0  0  0  0  0  0  0  0  0
   19.5971  -11.1813  -17.7032 C   0  0  2  0  0  0  0  0  0  0  0  0
   19.7582  -10.5787  -18.9895 N   0  0  0  0  0  0  0  0  0  0  0  0
   20.4595  -10.4946  -16.7248 C   0  0  0  0  0  0  0  0  0  0  0  0
   20.4416  -10.7592  -15.4826 O   0  0  0  0  0  0  0  0  0  0  0  0
   21.3692   -9.4831  -17.1398 N   0  0  0  0  0  0  0  0  0  0  0  0
   22.2398   -8.8398  -16.1791 C   0  0  0  0  0  0  0  0  0  0  0  0
   21.5380   -7.7096  -15.5671 C   0  0  0  0  0  0  0  0  0  0  0  0
   20.3254   -7.5322  -15.7743 O   0  0  0  0  0  0  0  0  0  0  0  0
   22.4641   -5.1067  -13.0170 C   0  0  0  0  0  0  0  0  0  0  0  0
   21.5869   -5.7460  -14.0817 C   0  0  2  0  0  0  0  0  0  0  0  0
   22.2748   -6.8283  -14.7367 N   0  0  0  0  0  0  0  0  0  0  0  0
   21.1697   -4.7424  -15.0861 C   0  0  0  0  0  0  0  0  0  0  0  0
   20.1762   -3.8447  -14.7726 O   0  0  0  0  0  0  0  0  0  0  0  0
   21.6966   -4.6798  -16.2287 O   0  0  0  0  0  0  0  0  0  0  0  0
  2  1  1  6
  2  3  1  0
  4  2  1  0
  4  5  1  6
  6  8  1  0
  6  4  1  0
  7  6  2  0
  9 10  1  0
  9  8  1  0
 10 11  2  0
 13 12  1  1
 13 15  1  0
 14 13  1  0
 14 10  1  0
 15 17  2  0
 15 16  1  0
M  END
$$$$
