VGA.pdb
     RDKit          3D

 17 16  0  0  1  0  0  0  0  0999 V2000
   26.6690  -21.0101  -18.3035 C   0  0  0  0  0  0  0  0  0  0  0  0
   26.2621  -20.2018  -17.0812 C   0  0  1  0  0  0  0  0  0  0  0  0
   24.9192  -20.6549  -16.5462 C   0  0  0  0  0  0  0  0  0  0  0  0
   27.2837  -20.4618  -15.9877 C   0  0  2  0  0  0  0  0  0  0  0  0
   27.3303  -21.8362  -15.5974 N   0  0  0  0  0  0  0  0  0  0  0  0
   26.9760  -19.6254  -14.8138 C   0  0  0  0  0  0  0  0  0  0  0  0
   27.0713  -18.3588  -14.8239 O   0  0  0  0  0  0  0  0  0  0  0  0
   26.5496  -20.2147  -13.5915 N   0  0  0  0  0  0  0  0  0  0  0  0
   26.1217  -19.3841  -12.4862 C   0  0  0  0  0  0  0  0  0  0  0  0
   26.1202  -20.1762  -11.2546 C   0  0  0  0  0  0  0  0  0  0  0  0
   26.0495  -21.4161  -11.3014 O   0  0  0  0  0  0  0  0  0  0  0  0
   26.4788  -19.3956   -7.5916 C   0  0  0  0  0  0  0  0  0  0  0  0
   26.1112  -20.2518   -8.7932 C   0  0  2  0  0  0  0  0  0  0  0  0
   26.2013  -19.4944  -10.0145 N   0  0  0  0  0  0  0  0  0  0  0  0
   24.7432  -20.7971   -8.6466 C   0  0  0  0  0  0  0  0  0  0  0  0
   24.5049  -21.7851   -7.7202 O   0  0  0  0  0  0  0  0  0  0  0  0
   23.7799  -20.3852   -9.3462 O   0  0  0  0  0  0  0  0  0  0  0  0
  2  1  1  6
  2  3  1  0
  4  2  1  0
  4  5  1  1
  6  8  1  0
  6  4  1  0
  7  6  2  0
  9 10  1  0
  9  8  1  0
 10 11  2  0
 13 12  1  1
 13 15  1  0
 14 13  1  0
 14 10  1  0
 15 17  2  0
 15 16  1  0
M  END
$$$$
