VGA.pdb
     RDKit          3D

 17 16  0  0  1  0  0  0  0  0999 V2000
   22.6175  -14.5333  -17.1661 C   0  0  0  0  0  0  0  0  0  0  0  0
   23.6703  -13.4372  -17.2199 C   0  0  1  0  0  0  0  0  0  0  0  0
   23.5477  -12.6208  -18.4901 C   0  0  0  0  0  0  0  0  0  0  0  0
   23.4184  -12.4898  -16.0598 C   0  0  2  0  0  0  0  0  0  0  0  0
   22.1125  -11.9097  -16.1002 N   0  0  0  0  0  0  0  0  0  0  0  0
   24.4337  -11.4213  -16.0638 C   0  0  0  0  0  0  0  0  0  0  0  0
   24.1904  -10.2386  -16.4582 O   0  0  0  0  0  0  0  0  0  0  0  0
   25.7596  -11.6751  -15.6158 N   0  0  0  0  0  0  0  0  0  0  0  0
   26.7362  -10.6079  -15.5714 C   0  0  0  0  0  0  0  0  0  0  0  0
   27.5439  -10.6367  -16.7925 C   0  0  0  0  0  0  0  0  0  0  0  0
   27.3151  -11.4746  -17.6814 O   0  0  0  0  0  0  0  0  0  0  0  0
   30.1746   -8.3674  -18.2347 C   0  0  0  0  0  0  0  0  0  0  0  0
   29.2950   -9.6067  -18.1844 C   0  0  2  0  0  0  0  0  0  0  0  0
   28.5879   -9.6881  -16.9326 N   0  0  0  0  0  0  0  0  0  0  0  0
   30.1050  -10.8300  -18.3778 C   0  0  0  0  0  0  0  0  0  0  0  0
   30.3490  -11.6558  -17.3056 O   0  0  0  0  0  0  0  0  0  0  0  0
   30.5839  -11.1454  -19.4995 O   0  0  0  0  0  0  0  0  0  0  0  0
  2  1  1  6
  2  3  1  0
  4  2  1  0
  4  5  1  6
  6  8  1  0
  6  4  1  0
  7  6  2  0
  9 10  1  0
  9  8  1  0
 10 11  2  0
 13 12  1  1
 13 15  1  0
 14 13  1  0
 14 10  1  0
 15 17  2  0
 15 16  1  0
M  END
$$$$
