VGA.pdb
     RDKit          3D

 17 16  0  0  1  0  0  0  0  0999 V2000
   16.0665  -12.6961  -16.6800 C   0  0  0  0  0  0  0  0  0  0  0  0
   17.1977  -11.7733  -17.1062 C   0  0  1  0  0  0  0  0  0  0  0  0
   16.7081  -10.3504  -17.2817 C   0  0  0  0  0  0  0  0  0  0  0  0
   18.2284  -11.7513  -15.9908 C   0  0  2  0  0  0  0  0  0  0  0  0
   17.6574  -11.4153  -14.7241 N   0  0  0  0  0  0  0  0  0  0  0  0
   19.2956  -10.7900  -16.3218 C   0  0  0  0  0  0  0  0  0  0  0  0
   20.1001  -10.9575  -17.2904 O   0  0  0  0  0  0  0  0  0  0  0  0
   19.4739   -9.6068  -15.5529 N   0  0  0  0  0  0  0  0  0  0  0  0
   20.4103   -8.5888  -15.9790 C   0  0  0  0  0  0  0  0  0  0  0  0
   20.3397   -7.4489  -15.0625 C   0  0  0  0  0  0  0  0  0  0  0  0
   19.4286   -7.3708  -14.2208 O   0  0  0  0  0  0  0  0  0  0  0  0
   22.6300   -4.5690  -14.2857 C   0  0  0  0  0  0  0  0  0  0  0  0
   21.3427   -5.3733  -14.1962 C   0  0  2  0  0  0  0  0  0  0  0  0
   21.3331   -6.4425  -15.1606 N   0  0  0  0  0  0  0  0  0  0  0  0
   20.1664   -4.5011  -14.4099 C   0  0  0  0  0  0  0  0  0  0  0  0
   19.6814   -3.7517  -13.3638 O   0  0  0  0  0  0  0  0  0  0  0  0
   19.5876   -4.4192  -15.5258 O   0  0  0  0  0  0  0  0  0  0  0  0
  2  1  1  1
  2  3  1  0
  4  2  1  0
  4  5  1  1
  6  8  1  0
  6  4  1  0
  7  6  2  0
  9 10  1  0
  9  8  1  0
 10 11  2  0
 13 12  1  6
 13 15  1  0
 14 13  1  0
 14 10  1  0
 15 17  2  0
 15 16  1  0
M  END
$$$$
