VGA.pdb
     RDKit          3D

 17 16  0  0  1  0  0  0  0  0999 V2000
   17.0189  -13.2827  -15.6694 C   0  0  0  0  0  0  0  0  0  0  0  0
   17.3974  -11.9165  -16.2198 C   0  0  1  0  0  0  0  0  0  0  0  0
   16.2564  -11.3078  -17.0088 C   0  0  0  0  0  0  0  0  0  0  0  0
   17.6609  -10.9947  -15.0418 C   0  0  2  0  0  0  0  0  0  0  0  0
   16.5341  -10.8854  -14.1691 N   0  0  0  0  0  0  0  0  0  0  0  0
   18.0356   -9.6569  -15.5342 C   0  0  0  0  0  0  0  0  0  0  0  0
   17.1933   -8.7204  -15.6987 O   0  0  0  0  0  0  0  0  0  0  0  0
   19.3875   -9.3507  -15.8533 N   0  0  0  0  0  0  0  0  0  0  0  0
   19.7573   -8.0179  -16.2791 C   0  0  0  0  0  0  0  0  0  0  0  0
   20.7095   -7.4486  -15.3232 C   0  0  0  0  0  0  0  0  0  0  0  0
   20.7166   -7.8249  -14.1387 O   0  0  0  0  0  0  0  0  0  0  0  0
   23.6658   -5.1455  -15.6106 C   0  0  0  0  0  0  0  0  0  0  0  0
   22.5983   -5.9350  -14.8694 C   0  0  2  0  0  0  0  0  0  0  0  0
   21.6179   -6.4623  -15.7828 N   0  0  0  0  0  0  0  0  0  0  0  0
   21.9293   -5.0865  -13.8583 C   0  0  0  0  0  0  0  0  0  0  0  0
   20.6743   -4.5876  -14.1177 O   0  0  0  0  0  0  0  0  0  0  0  0
   22.4727   -4.8017  -12.7579 O   0  0  0  0  0  0  0  0  0  0  0  0
  2  1  1  1
  2  3  1  0
  4  2  1  0
  4  5  1  1
  6  8  1  0
  6  4  1  0
  7  6  2  0
  9 10  1  0
  9  8  1  0
 10 11  2  0
 13 12  1  6
 13 15  1  0
 14 13  1  0
 14 10  1  0
 15 17  2  0
 15 16  1  0
M  END
$$$$
