VGA.pdb
     RDKit          3D

 17 16  0  0  1  0  0  0  0  0999 V2000
   16.9957  -12.4980  -20.2508 C   0  0  0  0  0  0  0  0  0  0  0  0
   17.6745  -11.3248  -19.5613 C   0  0  1  0  0  0  0  0  0  0  0  0
   16.7050  -10.1814  -19.3425 C   0  0  0  0  0  0  0  0  0  0  0  0
   18.1278  -11.7884  -18.1878 C   0  0  2  0  0  0  0  0  0  0  0  0
   17.0481  -12.2852  -17.3936 N   0  0  0  0  0  0  0  0  0  0  0  0
   18.7881  -10.6753  -17.4825 C   0  0  0  0  0  0  0  0  0  0  0  0
   19.8874  -10.1685  -17.8676 O   0  0  0  0  0  0  0  0  0  0  0  0
   18.2090  -10.1083  -16.3136 N   0  0  0  0  0  0  0  0  0  0  0  0
   18.8246   -8.9684  -15.6684 C   0  0  0  0  0  0  0  0  0  0  0  0
   18.0416   -7.7650  -15.9564 C   0  0  0  0  0  0  0  0  0  0  0  0
   17.4473   -7.6428  -17.0411 O   0  0  0  0  0  0  0  0  0  0  0  0
   16.2682   -5.2887  -14.0242 C   0  0  0  0  0  0  0  0  0  0  0  0
   17.1666   -5.5859  -15.2144 C   0  0  2  0  0  0  0  0  0  0  0  0
   17.9801   -6.7487  -14.9702 N   0  0  0  0  0  0  0  0  0  0  0  0
   18.0352   -4.4262  -15.5152 C   0  0  0  0  0  0  0  0  0  0  0  0
   17.4887   -3.3038  -16.0920 O   0  0  0  0  0  0  0  0  0  0  0  0
   19.2688   -4.4296  -15.2597 O   0  0  0  0  0  0  0  0  0  0  0  0
  2  1  1  1
  2  3  1  0
  4  2  1  0
  4  5  1  1
  6  8  1  0
  6  4  1  0
  7  6  2  0
  9 10  1  0
  9  8  1  0
 10 11  2  0
 13 12  1  1
 13 15  1  0
 14 13  1  0
 14 10  1  0
 15 17  2  0
 15 16  1  0
M  END
$$$$
