VGA.pdb
     RDKit          3D

 17 16  0  0  1  0  0  0  0  0999 V2000
   28.5641  -26.1853  -18.8795 C   0  0  0  0  0  0  0  0  0  0  0  0
   28.0664  -25.0980  -17.9399 C   0  0  1  0  0  0  0  0  0  0  0  0
   27.8393  -23.7956  -18.6796 C   0  0  0  0  0  0  0  0  0  0  0  0
   26.7192  -25.5350  -17.3913 C   0  0  2  0  0  0  0  0  0  0  0  0
   26.1139  -24.5368  -16.5663 N   0  0  0  0  0  0  0  0  0  0  0  0
   26.8790  -26.7816  -16.6213 C   0  0  0  0  0  0  0  0  0  0  0  0
   27.0679  -26.7984  -15.3653 O   0  0  0  0  0  0  0  0  0  0  0  0
   26.8272  -28.0479  -17.2669 N   0  0  0  0  0  0  0  0  0  0  0  0
   26.8923  -29.2694  -16.4933 C   0  0  0  0  0  0  0  0  0  0  0  0
   28.1273  -29.9858  -16.8184 C   0  0  0  0  0  0  0  0  0  0  0  0
   29.0153  -29.4390  -17.4945 O   0  0  0  0  0  0  0  0  0  0  0  0
   29.5761  -33.3221  -15.8496 C   0  0  0  0  0  0  0  0  0  0  0  0
   29.5025  -32.0202  -16.6318 C   0  0  2  0  0  0  0  0  0  0  0  0
   28.2819  -31.3125  -16.3437 N   0  0  0  0  0  0  0  0  0  0  0  0
   29.5953  -32.2789  -18.0859 C   0  0  0  0  0  0  0  0  0  0  0  0
   30.8057  -32.6344  -18.6334 O   0  0  0  0  0  0  0  0  0  0  0  0
   28.5964  -32.1846  -18.8478 O   0  0  0  0  0  0  0  0  0  0  0  0
  2  1  1  6
  2  3  1  0
  4  2  1  0
  4  5  1  1
  6  8  1  0
  6  4  1  0
  7  6  2  0
  9 10  1  0
  9  8  1  0
 10 11  2  0
 13 12  1  1
 13 15  1  0
 14 13  1  0
 14 10  1  0
 15 17  2  0
 15 16  1  0
M  END
$$$$
