VGA.pdb
     RDKit          3D

 17 16  0  0  1  0  0  0  0  0999 V2000
   19.0530  -12.1437  -18.9439 C   0  0  0  0  0  0  0  0  0  0  0  0
   18.7431  -11.0281  -17.9581 C   0  0  1  0  0  0  0  0  0  0  0  0
   17.3759  -11.2133  -17.3322 C   0  0  0  0  0  0  0  0  0  0  0  0
   19.7586  -11.1045  -16.8314 C   0  0  2  0  0  0  0  0  0  0  0  0
   19.7534  -12.3741  -16.1744 N   0  0  0  0  0  0  0  0  0  0  0  0
   19.4893  -10.0392  -15.8489 C   0  0  0  0  0  0  0  0  0  0  0  0
   18.9920  -10.2664  -14.7024 O   0  0  0  0  0  0  0  0  0  0  0  0
   19.7815   -8.6801  -16.1501 N   0  0  0  0  0  0  0  0  0  0  0  0
   19.3639   -7.6235  -15.2536 C   0  0  0  0  0  0  0  0  0  0  0  0
   20.3589   -6.5493  -15.2709 C   0  0  0  0  0  0  0  0  0  0  0  0
   21.4188   -6.6805  -15.9065 O   0  0  0  0  0  0  0  0  0  0  0  0
   20.4374   -3.0053  -14.0225 C   0  0  0  0  0  0  0  0  0  0  0  0
   21.0400   -4.2875  -14.5747 C   0  0  2  0  0  0  0  0  0  0  0  0
   20.0822   -5.3623  -14.5472 N   0  0  0  0  0  0  0  0  0  0  0  0
   22.2423   -4.6737  -13.8032 C   0  0  0  0  0  0  0  0  0  0  0  0
   23.4742   -4.1991  -14.1886 O   0  0  0  0  0  0  0  0  0  0  0  0
   22.1780   -5.4285  -12.7967 O   0  0  0  0  0  0  0  0  0  0  0  0
  2  1  1  6
  2  3  1  0
  4  2  1  0
  4  5  1  1
  6  8  1  0
  6  4  1  0
  7  6  2  0
  9 10  1  0
  9  8  1  0
 10 11  2  0
 13 12  1  1
 13 15  1  0
 14 13  1  0
 14 10  1  0
 15 17  2  0
 15 16  1  0
M  END
$$$$
