VGA.pdb
     RDKit          3D

 17 16  0  0  1  0  0  0  0  0999 V2000
   24.1116  -13.7510  -17.4639 C   0  0  0  0  0  0  0  0  0  0  0  0
   23.5438  -12.9093  -16.3316 C   0  0  1  0  0  0  0  0  0  0  0  0
   24.6352  -12.1301  -15.6268 C   0  0  0  0  0  0  0  0  0  0  0  0
   22.5944  -11.8903  -16.9374 C   0  0  2  0  0  0  0  0  0  0  0  0
   23.2408  -11.0326  -17.8808 N   0  0  0  0  0  0  0  0  0  0  0  0
   21.9897  -11.0787  -15.8659 C   0  0  0  0  0  0  0  0  0  0  0  0
   21.2070  -11.5630  -14.9905 O   0  0  0  0  0  0  0  0  0  0  0  0
   22.2632   -9.6866  -15.7645 N   0  0  0  0  0  0  0  0  0  0  0  0
   21.5996   -8.8793  -14.7631 C   0  0  0  0  0  0  0  0  0  0  0  0
   21.7082   -7.4654  -15.1281 C   0  0  0  0  0  0  0  0  0  0  0  0
   22.5519   -7.0910  -15.9604 O   0  0  0  0  0  0  0  0  0  0  0  0
   19.7444   -4.3605  -14.3441 C   0  0  0  0  0  0  0  0  0  0  0  0
   20.9622   -5.1393  -14.8158 C   0  0  2  0  0  0  0  0  0  0  0  0
   20.8300   -6.5402  -14.5100 N   0  0  0  0  0  0  0  0  0  0  0  0
   22.1949   -4.6089  -14.1919 C   0  0  0  0  0  0  0  0  0  0  0  0
   22.9093   -3.6258  -14.8355 O   0  0  0  0  0  0  0  0  0  0  0  0
   22.6177   -5.0291  -13.0820 O   0  0  0  0  0  0  0  0  0  0  0  0
  2  1  1  6
  2  3  1  0
  4  2  1  0
  4  5  1  6
  6  8  1  0
  6  4  1  0
  7  6  2  0
  9 10  1  0
  9  8  1  0
 10 11  2  0
 13 12  1  1
 13 15  1  0
 14 13  1  0
 14 10  1  0
 15 17  2  0
 15 16  1  0
M  END
$$$$
