VGA.pdb
     RDKit          3D

 17 16  0  0  1  0  0  0  0  0999 V2000
   17.9268  -12.3246  -16.0742 C   0  0  0  0  0  0  0  0  0  0  0  0
   19.2106  -12.4968  -16.8710 C   0  0  1  0  0  0  0  0  0  0  0  0
   18.9683  -13.2943  -18.1360 C   0  0  0  0  0  0  0  0  0  0  0  0
   19.6821  -11.1186  -17.3012 C   0  0  2  0  0  0  0  0  0  0  0  0
   20.7220  -11.1764  -18.2803 N   0  0  0  0  0  0  0  0  0  0  0  0
   20.1534  -10.3668  -16.1242 C   0  0  0  0  0  0  0  0  0  0  0  0
   19.4460  -10.1996  -15.0826 O   0  0  0  0  0  0  0  0  0  0  0  0
   21.4503   -9.7832  -16.1046 N   0  0  0  0  0  0  0  0  0  0  0  0
   21.8825   -8.9929  -14.9718 C   0  0  0  0  0  0  0  0  0  0  0  0
   21.3510   -7.6340  -15.0956 C   0  0  0  0  0  0  0  0  0  0  0  0
   20.5427   -7.3517  -15.9966 O   0  0  0  0  0  0  0  0  0  0  0  0
   19.7682   -5.2976  -13.9107 C   0  0  0  0  0  0  0  0  0  0  0  0
   21.2481   -5.3202  -14.2590 C   0  0  2  0  0  0  0  0  0  0  0  0
   21.7808   -6.6547  -14.1654 N   0  0  0  0  0  0  0  0  0  0  0  0
   22.0084   -4.4180  -13.3656 C   0  0  0  0  0  0  0  0  0  0  0  0
   21.8727   -3.0567  -13.5049 O   0  0  0  0  0  0  0  0  0  0  0  0
   22.7829   -4.8558  -12.4737 O   0  0  0  0  0  0  0  0  0  0  0  0
  2  1  1  6
  2  3  1  0
  4  2  1  0
  4  5  1  6
  6  8  1  0
  6  4  1  0
  7  6  2  0
  9 10  1  0
  9  8  1  0
 10 11  2  0
 13 12  1  1
 13 15  1  0
 14 13  1  0
 14 10  1  0
 15 17  2  0
 15 16  1  0
M  END
$$$$
