VGA.pdb
     RDKit          3D

 17 16  0  0  1  0  0  0  0  0999 V2000
   22.5992  -20.2369  -16.5972 C   0  0  0  0  0  0  0  0  0  0  0  0
   23.2946  -21.0069  -15.4854 C   0  0  1  0  0  0  0  0  0  0  0  0
   24.3661  -21.9231  -16.0400 C   0  0  0  0  0  0  0  0  0  0  0  0
   23.9945  -20.0015  -14.5875 C   0  0  2  0  0  0  0  0  0  0  0  0
   25.0113  -19.2683  -15.2747 N   0  0  0  0  0  0  0  0  0  0  0  0
   24.5847  -20.6979  -13.4303 C   0  0  0  0  0  0  0  0  0  0  0  0
   23.8893  -21.3328  -12.5778 O   0  0  0  0  0  0  0  0  0  0  0  0
   25.9905  -20.6883  -13.2142 N   0  0  0  0  0  0  0  0  0  0  0  0
   26.5644  -21.3896  -12.0857 C   0  0  0  0  0  0  0  0  0  0  0  0
   26.3678  -20.5976  -10.8698 C   0  0  0  0  0  0  0  0  0  0  0  0
   26.4244  -19.3567  -10.9084 O   0  0  0  0  0  0  0  0  0  0  0  0
   25.1444  -21.3366   -7.4144 C   0  0  0  0  0  0  0  0  0  0  0  0
   25.8874  -20.5148   -8.4559 C   0  0  2  0  0  0  0  0  0  0  0  0
   26.1126  -21.2808   -9.6542 N   0  0  0  0  0  0  0  0  0  0  0  0
   27.1823  -20.0398   -7.9193 C   0  0  0  0  0  0  0  0  0  0  0  0
   28.3478  -20.6378   -8.3379 O   0  0  0  0  0  0  0  0  0  0  0  0
   27.2565  -19.0987   -7.0852 O   0  0  0  0  0  0  0  0  0  0  0  0
  2  1  1  6
  2  3  1  0
  4  2  1  0
  4  5  1  6
  6  8  1  0
  6  4  1  0
  7  6  2  0
  9 10  1  0
  9  8  1  0
 10 11  2  0
 13 12  1  1
 13 15  1  0
 14 13  1  0
 14 10  1  0
 15 17  2  0
 15 16  1  0
M  END
$$$$
