VGA.pdb
     RDKit          3D

 17 16  0  0  1  0  0  0  0  0999 V2000
   20.2128  -11.5654  -19.9547 C   0  0  0  0  0  0  0  0  0  0  0  0
   20.8624  -10.9117  -18.7450 C   0  0  1  0  0  0  0  0  0  0  0  0
   20.9558   -9.4095  -18.9174 C   0  0  0  0  0  0  0  0  0  0  0  0
   19.9701  -11.1636  -17.5420 C   0  0  2  0  0  0  0  0  0  0  0  0
   18.6450  -10.6608  -17.7282 N   0  0  0  0  0  0  0  0  0  0  0  0
   20.5683  -10.5472  -16.3442 C   0  0  0  0  0  0  0  0  0  0  0  0
   21.6896  -10.9076  -15.8686 O   0  0  0  0  0  0  0  0  0  0  0  0
   19.8997   -9.4985  -15.6541 N   0  0  0  0  0  0  0  0  0  0  0  0
   20.5168   -8.8627  -14.5097 C   0  0  0  0  0  0  0  0  0  0  0  0
   20.9355   -7.5074  -14.8735 C   0  0  0  0  0  0  0  0  0  0  0  0
   21.5033   -7.2915  -15.9577 O   0  0  0  0  0  0  0  0  0  0  0  0
   19.7858   -4.1822  -13.9383 C   0  0  0  0  0  0  0  0  0  0  0  0
   20.9205   -5.0963  -14.3730 C   0  0  2  0  0  0  0  0  0  0  0  0
   20.6771   -6.4542  -13.9606 N   0  0  0  0  0  0  0  0  0  0  0  0
   22.2092   -4.6307  -13.8138 C   0  0  0  0  0  0  0  0  0  0  0  0
   22.9585   -3.7147  -14.5141 O   0  0  0  0  0  0  0  0  0  0  0  0
   22.6490   -5.0470  -12.7091 O   0  0  0  0  0  0  0  0  0  0  0  0
  2  1  1  6
  2  3  1  0
  4  2  1  0
  4  5  1  6
  6  8  1  0
  6  4  1  0
  7  6  2  0
  9 10  1  0
  9  8  1  0
 10 11  2  0
 13 12  1  1
 13 15  1  0
 14 13  1  0
 14 10  1  0
 15 17  2  0
 15 16  1  0
M  END
$$$$
