VGA.pdb
     RDKit          3D

 17 16  0  0  1  0  0  0  0  0999 V2000
   18.6815  -12.5263  -20.3128 C   0  0  0  0  0  0  0  0  0  0  0  0
   19.0895  -11.0615  -20.2868 C   0  0  1  0  0  0  0  0  0  0  0  0
   17.9354  -10.1783  -19.8590 C   0  0  0  0  0  0  0  0  0  0  0  0
   20.1807  -10.8988  -19.2429 C   0  0  2  0  0  0  0  0  0  0  0  0
   19.7519  -11.2905  -17.9367 N   0  0  0  0  0  0  0  0  0  0  0  0
   20.6330   -9.4962  -19.2141 C   0  0  0  0  0  0  0  0  0  0  0  0
   21.2147   -8.9376  -20.1954 O   0  0  0  0  0  0  0  0  0  0  0  0
   20.4327   -8.6903  -18.0594 N   0  0  0  0  0  0  0  0  0  0  0  0
   20.9280   -7.3310  -18.0182 C   0  0  0  0  0  0  0  0  0  0  0  0
   21.5188   -7.0682  -16.7043 C   0  0  0  0  0  0  0  0  0  0  0  0
   21.4272   -7.9067  -15.7916 O   0  0  0  0  0  0  0  0  0  0  0  0
   23.6986   -4.3484  -15.2884 C   0  0  0  0  0  0  0  0  0  0  0  0
   22.8071   -5.5786  -15.2258 C   0  0  2  0  0  0  0  0  0  0  0  0
   22.1944   -5.8385  -16.5027 N   0  0  0  0  0  0  0  0  0  0  0  0
   21.7573   -5.4106  -14.1963 C   0  0  0  0  0  0  0  0  0  0  0  0
   22.0717   -5.6066  -12.8719 O   0  0  0  0  0  0  0  0  0  0  0  0
   20.5749   -5.0915  -14.4916 O   0  0  0  0  0  0  0  0  0  0  0  0
  2  1  1  1
  2  3  1  0
  4  2  1  0
  4  5  1  1
  6  8  1  0
  6  4  1  0
  7  6  2  0
  9 10  1  0
  9  8  1  0
 10 11  2  0
 13 12  1  6
 13 15  1  0
 14 13  1  0
 14 10  1  0
 15 17  2  0
 15 16  1  0
M  END
$$$$
