VGA.pdb
     RDKit          3D

 17 16  0  0  1  0  0  0  0  0999 V2000
   24.7200  -32.5555   -9.7354 C   0  0  0  0  0  0  0  0  0  0  0  0
   25.9366  -32.8994   -8.8902 C   0  0  1  0  0  0  0  0  0  0  0  0
   26.3976  -31.7046   -8.0808 C   0  0  0  0  0  0  0  0  0  0  0  0
   25.5277  -33.9740   -7.8978 C   0  0  2  0  0  0  0  0  0  0  0  0
   24.4534  -33.5577   -7.0515 N   0  0  0  0  0  0  0  0  0  0  0  0
   26.6884  -34.3528   -7.0720 C   0  0  0  0  0  0  0  0  0  0  0  0
   27.6907  -34.9803   -7.5356 O   0  0  0  0  0  0  0  0  0  0  0  0
   26.7362  -34.0241   -5.6890 N   0  0  0  0  0  0  0  0  0  0  0  0
   27.9339  -34.2749   -4.9160 C   0  0  0  0  0  0  0  0  0  0  0  0
   27.6152  -35.1703   -3.8021 C   0  0  0  0  0  0  0  0  0  0  0  0
   26.4478  -35.2728   -3.3882 O   0  0  0  0  0  0  0  0  0  0  0  0
   29.5662  -37.6443   -1.7441 C   0  0  0  0  0  0  0  0  0  0  0  0
   28.3820  -36.7500   -2.0754 C   0  0  2  0  0  0  0  0  0  0  0  0
   28.6683  -35.9131   -3.2117 N   0  0  0  0  0  0  0  0  0  0  0  0
   28.0247  -35.9054   -0.9139 C   0  0  0  0  0  0  0  0  0  0  0  0
   27.3232  -36.4566    0.1325 O   0  0  0  0  0  0  0  0  0  0  0  0
   28.3428  -34.6882   -0.8482 O   0  0  0  0  0  0  0  0  0  0  0  0
  2  1  1  1
  2  3  1  0
  4  2  1  0
  4  5  1  1
  6  8  1  0
  6  4  1  0
  7  6  2  0
  9 10  1  0
  9  8  1  0
 10 11  2  0
 13 12  1  1
 13 15  1  0
 14 13  1  0
 14 10  1  0
 15 17  2  0
 15 16  1  0
M  END
$$$$
