VGA.pdb
     RDKit          3D

 17 16  0  0  1  0  0  0  0  0999 V2000
   23.0114  -12.6823  -17.8137 C   0  0  0  0  0  0  0  0  0  0  0  0
   22.3232  -11.6914  -16.8879 C   0  0  1  0  0  0  0  0  0  0  0  0
   21.6061  -12.4028  -15.7588 C   0  0  0  0  0  0  0  0  0  0  0  0
   23.3952  -10.8231  -16.2526 C   0  0  2  0  0  0  0  0  0  0  0  0
   24.3885  -11.5913  -15.5695 N   0  0  0  0  0  0  0  0  0  0  0  0
   22.7713   -9.8749  -15.3123 C   0  0  0  0  0  0  0  0  0  0  0  0
   22.6855  -10.0951  -14.0643 O   0  0  0  0  0  0  0  0  0  0  0  0
   22.2264   -8.6446  -15.7732 N   0  0  0  0  0  0  0  0  0  0  0  0
   21.5113   -7.7728  -14.8658 C   0  0  0  0  0  0  0  0  0  0  0  0
   20.3259   -7.2376  -15.5384 C   0  0  0  0  0  0  0  0  0  0  0  0
   20.1027   -7.5038  -16.7317 O   0  0  0  0  0  0  0  0  0  0  0  0
   17.3081   -5.3002  -14.4005 C   0  0  0  0  0  0  0  0  0  0  0  0
   18.2371   -5.9385  -15.4211 C   0  0  2  0  0  0  0  0  0  0  0  0
   19.4446   -6.4122  -14.7958 N   0  0  0  0  0  0  0  0  0  0  0  0
   18.5772   -4.9750  -16.4917 C   0  0  0  0  0  0  0  0  0  0  0  0
   17.6746   -4.7412  -17.5026 O   0  0  0  0  0  0  0  0  0  0  0  0
   19.6738   -4.3552  -16.5110 O   0  0  0  0  0  0  0  0  0  0  0  0
  2  1  1  6
  2  3  1  0
  4  2  1  0
  4  5  1  1
  6  8  1  0
  6  4  1  0
  7  6  2  0
  9 10  1  0
  9  8  1  0
 10 11  2  0
 13 12  1  1
 13 15  1  0
 14 13  1  0
 14 10  1  0
 15 17  2  0
 15 16  1  0
M  END
$$$$
