SST.pdb
     RDKit          3D

 20 19  0  0  1  0  0  0  0  0999 V2000
    7.4031  -15.8508   15.0050 O   0  0  0  0  0  0  0  0  0  0  0  0
    7.5884  -15.7618   16.3643 C   0  0  0  0  0  0  0  0  0  0  0  0
    7.7383  -14.3007   16.7741 C   0  0  2  0  0  0  0  0  0  0  0  0
    8.4878  -13.6251   15.7348 N   0  0  0  0  0  0  0  0  0  0  0  0
    8.4188  -14.2073   18.0899 C   0  0  0  0  0  0  0  0  0  0  0  0
    9.6789  -14.1628   18.0720 O   0  0  0  0  0  0  0  0  0  0  0  0
    6.2870  -14.4975   21.6813 O   0  0  0  0  0  0  0  0  0  0  0  0
    7.3475  -13.6152   21.6019 C   0  0  0  0  0  0  0  0  0  0  0  0
    8.3395  -14.0983   20.5510 C   0  0  2  0  0  0  0  0  0  0  0  0
    7.6538  -14.1734   19.2677 N   0  0  0  0  0  0  0  0  0  0  0  0
    8.8749  -15.4239   20.9342 C   0  0  0  0  0  0  0  0  0  0  0  0
    8.2616  -16.4638   20.5009 O   0  0  0  0  0  0  0  0  0  0  0  0
   11.4812  -17.5979   19.9809 C   0  0  0  0  0  0  0  0  0  0  0  0
   11.7235  -17.3184   21.4370 C   0  0  1  0  0  0  0  0  0  0  0  0
   12.7226  -16.3609   21.6257 O   0  0  0  0  0  0  0  0  0  0  0  0
   10.4425  -16.9172   22.1561 C   0  0  2  0  0  0  0  0  0  0  0  0
   10.0236  -15.5796   21.7487 N   0  0  0  0  0  0  0  0  0  0  0  0
   10.7599  -16.8804   23.6001 C   0  0  0  0  0  0  0  0  0  0  0  0
   10.9747  -18.0716   24.2631 O   0  0  0  0  0  0  0  0  0  0  0  0
   10.8429  -15.8055   24.2535 O   0  0  0  0  0  0  0  0  0  0  0  0
  2  1  1  0
  2  3  1  0
  3  5  1  0
  3  4  1  6
  5  6  2  0
  7  8  1  0
  9  8  1  1
 10  9  1  0
 10  5  1  0
 11 17  1  0
 11  9  1  0
 12 11  2  0
 14 13  1  6
 14 15  1  0
 14 16  1  0
 16 17  1  6
 18 16  1  0
 18 19  1  0
 20 18  2  0
M  END
$$$$
