SST.pdb
     RDKit          3D

 20 19  0  0  1  0  0  0  0  0999 V2000
    8.8798  -15.9191   15.3648 O   0  0  0  0  0  0  0  0  0  0  0  0
    7.6158  -15.4467   15.6279 C   0  0  0  0  0  0  0  0  0  0  0  0
    7.6856  -13.9847   16.0554 C   0  0  2  0  0  0  0  0  0  0  0  0
    8.2165  -13.2241   14.9428 N   0  0  0  0  0  0  0  0  0  0  0  0
    8.5320  -13.8475   17.2670 C   0  0  0  0  0  0  0  0  0  0  0  0
    9.7386  -13.5323   17.0803 O   0  0  0  0  0  0  0  0  0  0  0  0
    7.2584  -15.1428   20.9977 O   0  0  0  0  0  0  0  0  0  0  0  0
    7.9051  -13.9225   20.9502 C   0  0  0  0  0  0  0  0  0  0  0  0
    8.7986  -13.8629   19.7173 C   0  0  2  0  0  0  0  0  0  0  0  0
    7.9709  -14.0679   18.5359 N   0  0  0  0  0  0  0  0  0  0  0  0
    9.8488  -14.9022   19.8046 C   0  0  0  0  0  0  0  0  0  0  0  0
    9.6509  -16.0053   19.1809 O   0  0  0  0  0  0  0  0  0  0  0  0
   13.2112  -15.0138   18.4362 C   0  0  0  0  0  0  0  0  0  0  0  0
   13.3556  -15.2514   19.9126 C   0  0  1  0  0  0  0  0  0  0  0  0
   13.8092  -14.1132   20.5828 O   0  0  0  0  0  0  0  0  0  0  0  0
   12.0632  -15.7680   20.5306 C   0  0  2  0  0  0  0  0  0  0  0  0
   11.0458  -14.7213   20.5406 N   0  0  0  0  0  0  0  0  0  0  0  0
   12.3744  -16.1207   21.9328 C   0  0  0  0  0  0  0  0  0  0  0  0
   13.1576  -17.2299   22.1800 O   0  0  0  0  0  0  0  0  0  0  0  0
   11.9545  -15.4506   22.9145 O   0  0  0  0  0  0  0  0  0  0  0  0
  2  1  1  0
  2  3  1  0
  3  5  1  0
  3  4  1  6
  5  6  2  0
  7  8  1  0
  9  8  1  1
 10  9  1  0
 10  5  1  0
 11 17  1  0
 11  9  1  0
 12 11  2  0
 14 13  1  6
 14 15  1  0
 14 16  1  0
 16 17  1  1
 18 16  1  0
 18 19  1  0
 20 18  2  0
M  END
$$$$
