SST.pdb
     RDKit          3D

 20 19  0  0  1  0  0  0  0  0999 V2000
   12.8589  -19.4771   18.0765 O   0  0  0  0  0  0  0  0  0  0  0  0
   11.6217  -19.2380   17.5268 C   0  0  0  0  0  0  0  0  0  0  0  0
   11.4589  -17.7492   17.2401 C   0  0  2  0  0  0  0  0  0  0  0  0
   12.3267  -17.4158   16.1293 N   0  0  0  0  0  0  0  0  0  0  0  0
   11.7898  -16.9576   18.4514 C   0  0  0  0  0  0  0  0  0  0  0  0
   12.8820  -16.3277   18.4333 O   0  0  0  0  0  0  0  0  0  0  0  0
    9.3479  -17.0915   21.8185 O   0  0  0  0  0  0  0  0  0  0  0  0
    9.9737  -15.8977   21.5139 C   0  0  0  0  0  0  0  0  0  0  0  0
   11.2474  -16.1729   20.7241 C   0  0  2  0  0  0  0  0  0  0  0  0
   10.8986  -16.9425   19.5372 N   0  0  0  0  0  0  0  0  0  0  0  0
   12.2108  -16.9189   21.5644 C   0  0  0  0  0  0  0  0  0  0  0  0
   12.2678  -18.1922   21.4209 O   0  0  0  0  0  0  0  0  0  0  0  0
   15.9736  -16.5353   21.7531 C   0  0  0  0  0  0  0  0  0  0  0  0
   15.4193  -16.4473   23.1467 C   0  0  1  0  0  0  0  0  0  0  0  0
   15.4052  -15.1338   23.6211 O   0  0  0  0  0  0  0  0  0  0  0  0
   14.0359  -17.0762   23.2451 C   0  0  2  0  0  0  0  0  0  0  0  0
   13.0587  -16.2837   22.5050 N   0  0  0  0  0  0  0  0  0  0  0  0
   13.6595  -17.0525   24.6752 C   0  0  0  0  0  0  0  0  0  0  0  0
   14.3253  -17.8861   25.5507 O   0  0  0  0  0  0  0  0  0  0  0  0
   12.7546  -16.3021   25.1305 O   0  0  0  0  0  0  0  0  0  0  0  0
  2  1  1  0
  2  3  1  0
  3  5  1  0
  3  4  1  6
  5  6  2  0
  7  8  1  0
  9  8  1  1
 10  9  1  0
 10  5  1  0
 11 17  1  0
 11  9  1  0
 12 11  2  0
 14 13  1  6
 14 15  1  0
 14 16  1  0
 16 17  1  6
 18 16  1  0
 18 19  1  0
 20 18  2  0
M  END
$$$$
