SST.pdb
     RDKit          3D

 20 19  0  0  1  0  0  0  0  0999 V2000
   16.6881  -20.2705   12.6075 O   0  0  0  0  0  0  0  0  0  0  0  0
   15.3285  -20.3325   12.4137 C   0  0  0  0  0  0  0  0  0  0  0  0
   14.6991  -18.9746   12.7056 C   0  0  2  0  0  0  0  0  0  0  0  0
   15.2019  -18.0348   11.7247 N   0  0  0  0  0  0  0  0  0  0  0  0
   15.0241  -18.5490   14.0899 C   0  0  0  0  0  0  0  0  0  0  0  0
   15.7292  -17.5106   14.2106 O   0  0  0  0  0  0  0  0  0  0  0  0
   12.8156  -19.8800   17.2184 O   0  0  0  0  0  0  0  0  0  0  0  0
   13.5260  -18.6967   17.2876 C   0  0  0  0  0  0  0  0  0  0  0  0
   14.8403  -18.8423   16.5303 C   0  0  2  0  0  0  0  0  0  0  0  0
   14.5468  -19.2985   15.1781 N   0  0  0  0  0  0  0  0  0  0  0  0
   15.7197  -19.8078   17.2267 C   0  0  0  0  0  0  0  0  0  0  0  0
   15.4862  -21.0576   17.0583 O   0  0  0  0  0  0  0  0  0  0  0  0
   19.8420  -19.4483   17.8236 C   0  0  0  0  0  0  0  0  0  0  0  0
   19.0117  -19.7924   19.0273 C   0  0  1  0  0  0  0  0  0  0  0  0
   18.8228  -18.6901   19.8639 O   0  0  0  0  0  0  0  0  0  0  0  0
   17.6773  -20.4125   18.6347 C   0  0  2  0  0  0  0  0  0  0  0  0
   16.7935  -19.4040   18.0581 N   0  0  0  0  0  0  0  0  0  0  0  0
   17.0568  -20.9096   19.8817 C   0  0  0  0  0  0  0  0  0  0  0  0
   17.5720  -22.0454   20.4725 O   0  0  0  0  0  0  0  0  0  0  0  0
   16.0752  -20.3395   20.4300 O   0  0  0  0  0  0  0  0  0  0  0  0
  2  1  1  0
  2  3  1  0
  3  5  1  0
  3  4  1  6
  5  6  2  0
  7  8  1  0
  9  8  1  1
 10  9  1  0
 10  5  1  0
 11 17  1  0
 11  9  1  0
 12 11  2  0
 14 13  1  6
 14 15  1  0
 14 16  1  0
 16 17  1  1
 18 16  1  0
 18 19  1  0
 20 18  2  0
M  END
$$$$
