SST.pdb
     RDKit          3D

 20 19  0  0  1  0  0  0  0  0999 V2000
    9.5426  -17.9730   15.7907 O   0  0  0  0  0  0  0  0  0  0  0  0
   10.8476  -17.5485   15.7096 C   0  0  0  0  0  0  0  0  0  0  0  0
   10.8909  -16.0419   15.4785 C   0  0  2  0  0  0  0  0  0  0  0  0
   11.5145  -15.8101   14.1918 N   0  0  0  0  0  0  0  0  0  0  0  0
   11.6370  -15.3787   16.5770 C   0  0  0  0  0  0  0  0  0  0  0  0
   12.8750  -15.2161   16.4010 O   0  0  0  0  0  0  0  0  0  0  0  0
    9.8041  -14.3137   20.2259 O   0  0  0  0  0  0  0  0  0  0  0  0
   10.7131  -13.4697   19.6170 C   0  0  0  0  0  0  0  0  0  0  0  0
   11.6949  -14.2866   18.7858 C   0  0  2  0  0  0  0  0  0  0  0  0
   10.9537  -14.9708   17.7347 N   0  0  0  0  0  0  0  0  0  0  0  0
   12.3964  -15.2630   19.6491 C   0  0  0  0  0  0  0  0  0  0  0  0
   11.7374  -16.2879   20.0494 O   0  0  0  0  0  0  0  0  0  0  0  0
   14.7617  -17.7334   18.8911 C   0  0  0  0  0  0  0  0  0  0  0  0
   15.4241  -16.8941   19.9464 C   0  0  1  0  0  0  0  0  0  0  0  0
   16.3491  -16.0018   19.3997 O   0  0  0  0  0  0  0  0  0  0  0  0
   14.4043  -16.1610   20.8076 C   0  0  2  0  0  0  0  0  0  0  0  0
   13.7490  -15.1063   20.0401 N   0  0  0  0  0  0  0  0  0  0  0  0
   15.1579  -15.5269   21.9110 C   0  0  0  0  0  0  0  0  0  0  0  0
   15.6799  -16.3292   22.9052 O   0  0  0  0  0  0  0  0  0  0  0  0
   15.3447  -14.2823   21.9831 O   0  0  0  0  0  0  0  0  0  0  0  0
  2  1  1  0
  2  3  1  0
  3  5  1  0
  3  4  1  6
  5  6  2  0
  7  8  1  0
  9  8  1  1
 10  9  1  0
 10  5  1  0
 11 17  1  0
 11  9  1  0
 12 11  2  0
 14 13  1  6
 14 15  1  0
 14 16  1  0
 16 17  1  6
 18 16  1  0
 18 19  1  0
 20 18  2  0
M  END
$$$$
