SST.pdb
     RDKit          3D

 20 19  0  0  1  0  0  0  0  0999 V2000
    8.2546  -14.6028   16.8316 O   0  0  0  0  0  0  0  0  0  0  0  0
    7.4856  -13.6179   17.4048 C   0  0  0  0  0  0  0  0  0  0  0  0
    8.1824  -13.0701   18.6456 C   0  0  2  0  0  0  0  0  0  0  0  0
    9.4855  -12.5834   18.2416 N   0  0  0  0  0  0  0  0  0  0  0  0
    8.2889  -14.1292   19.6800 C   0  0  0  0  0  0  0  0  0  0  0  0
    7.2064  -14.6303   20.0888 O   0  0  0  0  0  0  0  0  0  0  0  0
   12.0252  -15.5284   20.9307 O   0  0  0  0  0  0  0  0  0  0  0  0
   10.9671  -16.3949   20.7326 C   0  0  0  0  0  0  0  0  0  0  0  0
    9.6548  -15.6779   21.0258 C   0  0  2  0  0  0  0  0  0  0  0  0
    9.5548  -14.5193   20.1482 N   0  0  0  0  0  0  0  0  0  0  0  0
    9.6137  -15.2615   22.4455 C   0  0  0  0  0  0  0  0  0  0  0  0
   10.2202  -14.1784   22.7681 O   0  0  0  0  0  0  0  0  0  0  0  0
    7.1940  -13.7125   24.6182 C   0  0  0  0  0  0  0  0  0  0  0  0
    7.5183  -15.0579   25.2029 C   0  0  1  0  0  0  0  0  0  0  0  0
    6.5649  -16.0195   24.8610 O   0  0  0  0  0  0  0  0  0  0  0  0
    8.9179  -15.5185   24.8183 C   0  0  2  0  0  0  0  0  0  0  0  0
    8.9369  -16.0064   23.4426 N   0  0  0  0  0  0  0  0  0  0  0  0
    9.2537  -16.6482   25.7119 C   0  0  0  0  0  0  0  0  0  0  0  0
    9.4171  -16.4021   27.0600 O   0  0  0  0  0  0  0  0  0  0  0  0
    9.3976  -17.8290   25.2948 O   0  0  0  0  0  0  0  0  0  0  0  0
  2  1  1  0
  2  3  1  0
  3  5  1  0
  3  4  1  6
  5  6  2  0
  7  8  1  0
  9  8  1  1
 10  9  1  0
 10  5  1  0
 11 17  1  0
 11  9  1  0
 12 11  2  0
 14 13  1  6
 14 15  1  0
 14 16  1  0
 16 17  1  6
 18 16  1  0
 18 19  1  0
 20 18  2  0
M  END
$$$$
