SST.pdb
     RDKit          3D

 20 19  0  0  1  0  0  0  0  0999 V2000
    5.7198  -21.9100   21.6298 O   0  0  0  0  0  0  0  0  0  0  0  0
    5.9029  -21.5956   20.3041 C   0  0  0  0  0  0  0  0  0  0  0  0
    6.0806  -20.0893   20.1467 C   0  0  2  0  0  0  0  0  0  0  0  0
    6.2682  -19.8115   18.7375 N   0  0  0  0  0  0  0  0  0  0  0  0
    7.2351  -19.6247   20.9557 C   0  0  0  0  0  0  0  0  0  0  0  0
    8.3816  -19.8221   20.4691 O   0  0  0  0  0  0  0  0  0  0  0  0
    6.6182  -17.7629   24.6067 O   0  0  0  0  0  0  0  0  0  0  0  0
    7.7140  -17.3870   23.8534 C   0  0  0  0  0  0  0  0  0  0  0  0
    8.1557  -18.5505   22.9741 C   0  0  2  0  0  0  0  0  0  0  0  0
    7.0105  -19.0021   22.1948 N   0  0  0  0  0  0  0  0  0  0  0  0
    8.6789  -19.6493   23.8164 C   0  0  0  0  0  0  0  0  0  0  0  0
    7.8305  -20.4553   24.3415 O   0  0  0  0  0  0  0  0  0  0  0  0
   11.1887  -22.4519   22.8478 C   0  0  0  0  0  0  0  0  0  0  0  0
   11.6642  -21.6938   24.0545 C   0  0  1  0  0  0  0  0  0  0  0  0
   12.6604  -20.7698   23.7316 O   0  0  0  0  0  0  0  0  0  0  0  0
   10.5126  -21.0186   24.7874 C   0  0  2  0  0  0  0  0  0  0  0  0
   10.0623  -19.8378   24.0568 N   0  0  0  0  0  0  0  0  0  0  0  0
   11.0428  -20.5761   26.0952 C   0  0  0  0  0  0  0  0  0  0  0  0
   11.3855  -21.5317   27.0302 O   0  0  0  0  0  0  0  0  0  0  0  0
   11.1959  -19.3610   26.3940 O   0  0  0  0  0  0  0  0  0  0  0  0
  2  1  1  0
  2  3  1  0
  3  5  1  0
  3  4  1  6
  5  6  2  0
  7  8  1  0
  9  8  1  1
 10  9  1  0
 10  5  1  0
 11 17  1  0
 11  9  1  0
 12 11  2  0
 14 13  1  6
 14 15  1  0
 14 16  1  0
 16 17  1  6
 18 16  1  0
 18 19  1  0
 20 18  2  0
M  END
$$$$
