SST.pdb
     RDKit          3D

 20 19  0  0  1  0  0  0  0  0999 V2000
    9.1323  -19.0769   19.7927 O   0  0  0  0  0  0  0  0  0  0  0  0
    8.2083  -18.2518   19.1966 C   0  0  0  0  0  0  0  0  0  0  0  0
    8.8394  -16.8969   18.8946 C   0  0  2  0  0  0  0  0  0  0  0  0
    9.7124  -17.0614   17.7506 N   0  0  0  0  0  0  0  0  0  0  0  0
    9.5795  -16.4029   20.0827 C   0  0  0  0  0  0  0  0  0  0  0  0
   10.8354  -16.5110   20.0509 O   0  0  0  0  0  0  0  0  0  0  0  0
    7.5664  -15.2934   23.5445 O   0  0  0  0  0  0  0  0  0  0  0  0
    8.6858  -14.5595   23.2009 C   0  0  0  0  0  0  0  0  0  0  0  0
    9.6111  -15.4087   22.3379 C   0  0  2  0  0  0  0  0  0  0  0  0
    8.8713  -15.8509   21.1632 N   0  0  0  0  0  0  0  0  0  0  0  0
   10.0996  -16.5705   23.1139 C   0  0  0  0  0  0  0  0  0  0  0  0
    9.5800  -17.7164   22.8648 O   0  0  0  0  0  0  0  0  0  0  0  0
   13.7003  -18.8700   25.4486 C   0  0  0  0  0  0  0  0  0  0  0  0
   13.1401  -17.6916   24.7040 C   0  0  1  0  0  0  0  0  0  0  0  0
   13.6014  -17.6388   23.3868 O   0  0  0  0  0  0  0  0  0  0  0  0
   11.6180  -17.6667   24.7489 C   0  0  2  0  0  0  0  0  0  0  0  0
   11.1060  -16.4609   24.1050 N   0  0  0  0  0  0  0  0  0  0  0  0
   11.2360  -17.6235   26.1770 C   0  0  0  0  0  0  0  0  0  0  0  0
   11.3119  -18.7842   26.9198 O   0  0  0  0  0  0  0  0  0  0  0  0
   10.8432  -16.5699   26.7470 O   0  0  0  0  0  0  0  0  0  0  0  0
  2  1  1  0
  2  3  1  0
  3  5  1  0
  3  4  1  6
  5  6  2  0
  7  8  1  0
  9  8  1  1
 10  9  1  0
 10  5  1  0
 11 17  1  0
 11  9  1  0
 12 11  2  0
 14 13  1  6
 14 15  1  0
 14 16  1  0
 16 17  1  6
 18 16  1  0
 18 19  1  0
 20 18  2  0
M  END
$$$$
