SST.pdb
     RDKit          3D

 20 19  0  0  1  0  0  0  0  0999 V2000
    9.2128  -19.0219   18.7001 O   0  0  0  0  0  0  0  0  0  0  0  0
    8.2520  -18.2739   18.0619 C   0  0  0  0  0  0  0  0  0  0  0  0
    8.7398  -16.8395   17.8887 C   0  0  2  0  0  0  0  0  0  0  0  0
    9.8599  -16.8618   16.9705 N   0  0  0  0  0  0  0  0  0  0  0  0
    9.1205  -16.2679   19.2046 C   0  0  0  0  0  0  0  0  0  0  0  0
   10.3526  -16.2345   19.4706 O   0  0  0  0  0  0  0  0  0  0  0  0
    6.3097  -15.5925   22.1646 O   0  0  0  0  0  0  0  0  0  0  0  0
    7.2819  -14.6221   22.0141 C   0  0  0  0  0  0  0  0  0  0  0  0
    8.5151  -15.2290   21.3561 C   0  0  2  0  0  0  0  0  0  0  0  0
    8.1217  -15.8008   20.0752 N   0  0  0  0  0  0  0  0  0  0  0  0
    9.0957  -16.2689   22.2349 C   0  0  0  0  0  0  0  0  0  0  0  0
    8.8168  -17.4937   21.9757 O   0  0  0  0  0  0  0  0  0  0  0  0
   12.4410  -17.9747   25.3373 C   0  0  0  0  0  0  0  0  0  0  0  0
   11.9246  -16.9229   24.3972 C   0  0  1  0  0  0  0  0  0  0  0  0
   12.5963  -16.9415   23.1728 O   0  0  0  0  0  0  0  0  0  0  0  0
   10.4196  -17.0367   24.1939 C   0  0  2  0  0  0  0  0  0  0  0  0
    9.9359  -15.9614   23.3333 N   0  0  0  0  0  0  0  0  0  0  0  0
    9.7978  -16.8749   25.5261 C   0  0  0  0  0  0  0  0  0  0  0  0
    9.6397  -17.9895   26.3245 O   0  0  0  0  0  0  0  0  0  0  0  0
    9.4051  -15.7604   25.9652 O   0  0  0  0  0  0  0  0  0  0  0  0
  2  1  1  0
  2  3  1  0
  3  5  1  0
  3  4  1  6
  5  6  2  0
  7  8  1  0
  9  8  1  1
 10  9  1  0
 10  5  1  0
 11 17  1  0
 11  9  1  0
 12 11  2  0
 14 13  1  1
 14 15  1  0
 14 16  1  0
 16 17  1  6
 18 16  1  0
 18 19  1  0
 20 18  2  0
M  END
$$$$
