SST.pdb
     RDKit          3D

 20 19  0  0  1  0  0  0  0  0999 V2000
    7.2179  -16.1927   20.2572 O   0  0  0  0  0  0  0  0  0  0  0  0
    7.5449  -15.1895   19.3760 C   0  0  0  0  0  0  0  0  0  0  0  0
    7.3437  -13.8303   20.0373 C   0  0  2  0  0  0  0  0  0  0  0  0
    7.7633  -12.8139   19.0944 N   0  0  0  0  0  0  0  0  0  0  0  0
    8.1181  -13.7588   21.3016 C   0  0  0  0  0  0  0  0  0  0  0  0
    9.3583  -13.5581   21.1936 O   0  0  0  0  0  0  0  0  0  0  0  0
    6.2699  -14.3813   25.0138 O   0  0  0  0  0  0  0  0  0  0  0  0
    7.3971  -13.5865   24.9283 C   0  0  0  0  0  0  0  0  0  0  0  0
    8.2510  -14.0322   23.7475 C   0  0  2  0  0  0  0  0  0  0  0  0
    7.4572  -13.9130   22.5317 N   0  0  0  0  0  0  0  0  0  0  0  0
    8.6949  -15.4303   23.9452 C   0  0  0  0  0  0  0  0  0  0  0  0
    7.9892  -16.3615   23.4161 O   0  0  0  0  0  0  0  0  0  0  0  0
   12.0708  -18.8306   24.5637 C   0  0  0  0  0  0  0  0  0  0  0  0
   11.5743  -17.4536   24.2254 C   0  0  1  0  0  0  0  0  0  0  0  0
   11.5386  -17.2355   22.8464 O   0  0  0  0  0  0  0  0  0  0  0  0
   10.2172  -17.1717   24.8563 C   0  0  2  0  0  0  0  0  0  0  0  0
    9.8545  -15.7681   24.6857 N   0  0  0  0  0  0  0  0  0  0  0  0
   10.3586  -17.4378   26.3043 C   0  0  0  0  0  0  0  0  0  0  0  0
   10.2825  -18.7417   26.7500 O   0  0  0  0  0  0  0  0  0  0  0  0
   10.5461  -16.5231   27.1513 O   0  0  0  0  0  0  0  0  0  0  0  0
  2  1  1  0
  2  3  1  0
  3  5  1  0
  3  4  1  6
  5  6  2  0
  7  8  1  0
  9  8  1  1
 10  9  1  0
 10  5  1  0
 11 17  1  0
 11  9  1  0
 12 11  2  0
 14 13  1  6
 14 15  1  0
 14 16  1  0
 16 17  1  1
 18 16  1  0
 18 19  1  0
 20 18  2  0
M  END
$$$$
