SST.pdb
     RDKit          3D

 20 19  0  0  1  0  0  0  0  0999 V2000
   10.4528  -12.7560   20.0518 O   0  0  0  0  0  0  0  0  0  0  0  0
    9.3600  -12.5583   19.2416 C   0  0  0  0  0  0  0  0  0  0  0  0
    8.5679  -13.8548   19.1113 C   0  0  2  0  0  0  0  0  0  0  0  0
    7.5440  -13.6479   18.1078 N   0  0  0  0  0  0  0  0  0  0  0  0
    7.9825  -14.2287   20.4231 C   0  0  0  0  0  0  0  0  0  0  0  0
    6.8778  -13.6983   20.7203 O   0  0  0  0  0  0  0  0  0  0  0  0
    9.6252  -17.3171   22.8340 O   0  0  0  0  0  0  0  0  0  0  0  0
    8.2815  -17.1245   22.5750 C   0  0  0  0  0  0  0  0  0  0  0  0
    7.9920  -15.6338   22.4481 C   0  0  2  0  0  0  0  0  0  0  0  0
    8.6631  -15.1321   21.2563 N   0  0  0  0  0  0  0  0  0  0  0  0
    8.4709  -14.9223   23.6544 C   0  0  0  0  0  0  0  0  0  0  0  0
    9.6480  -14.4140   23.6202 O   0  0  0  0  0  0  0  0  0  0  0  0
    7.2161  -11.8254   25.7766 C   0  0  0  0  0  0  0  0  0  0  0  0
    7.2328  -13.1094   26.5564 C   0  0  1  0  0  0  0  0  0  0  0  0
    5.9625  -13.6830   26.6453 O   0  0  0  0  0  0  0  0  0  0  0  0
    8.2395  -14.1015   25.9896 C   0  0  2  0  0  0  0  0  0  0  0  0
    7.6851  -14.7854   24.8253 N   0  0  0  0  0  0  0  0  0  0  0  0
    8.4814  -15.1101   27.0439 C   0  0  0  0  0  0  0  0  0  0  0  0
    8.0784  -16.4114   26.8227 O   0  0  0  0  0  0  0  0  0  0  0  0
    9.0412  -14.8323   28.1388 O   0  0  0  0  0  0  0  0  0  0  0  0
  2  1  1  0
  2  3  1  0
  3  5  1  0
  3  4  1  6
  5  6  2  0
  7  8  1  0
  9  8  1  1
 10  9  1  0
 10  5  1  0
 11 17  1  0
 11  9  1  0
 12 11  2  0
 14 13  1  6
 14 15  1  0
 14 16  1  0
 16 17  1  6
 18 16  1  0
 18 19  1  0
 20 18  2  0
M  END
$$$$
