SST.pdb
     RDKit          3D

 20 19  0  0  1  0  0  0  0  0999 V2000
    3.5444  -24.4312   19.6817 O   0  0  0  0  0  0  0  0  0  0  0  0
    2.1861  -24.2489   19.5737 C   0  0  0  0  0  0  0  0  0  0  0  0
    1.8265  -22.8062   19.9123 C   0  0  2  0  0  0  0  0  0  0  0  0
    2.3888  -21.9574   18.8820 N   0  0  0  0  0  0  0  0  0  0  0  0
    2.3459  -22.4535   21.2573 C   0  0  0  0  0  0  0  0  0  0  0  0
    3.2879  -21.6161   21.2972 O   0  0  0  0  0  0  0  0  0  0  0  0
    0.3533  -23.7395   24.6256 O   0  0  0  0  0  0  0  0  0  0  0  0
    1.0434  -22.5424   24.6455 C   0  0  0  0  0  0  0  0  0  0  0  0
    2.2463  -22.6280   23.7139 C   0  0  2  0  0  0  0  0  0  0  0  0
    1.7833  -23.0494   22.3984 N   0  0  0  0  0  0  0  0  0  0  0  0
    3.2337  -23.5904   24.2520 C   0  0  0  0  0  0  0  0  0  0  0  0
    3.1556  -24.8088   23.8591 O   0  0  0  0  0  0  0  0  0  0  0  0
    7.2201  -23.2769   24.5116 C   0  0  0  0  0  0  0  0  0  0  0  0
    6.5755  -23.6034   25.8287 C   0  0  1  0  0  0  0  0  0  0  0  0
    6.5180  -22.4915   26.6719 O   0  0  0  0  0  0  0  0  0  0  0  0
    5.1947  -24.2188   25.6447 C   0  0  2  0  0  0  0  0  0  0  0  0
    4.2460  -23.2163   25.1699 N   0  0  0  0  0  0  0  0  0  0  0  0
    4.7520  -24.6756   26.9799 C   0  0  0  0  0  0  0  0  0  0  0  0
    5.3976  -25.7472   27.5626 O   0  0  0  0  0  0  0  0  0  0  0  0
    3.8083  -24.1272   27.6106 O   0  0  0  0  0  0  0  0  0  0  0  0
  2  1  1  0
  2  3  1  0
  3  5  1  0
  3  4  1  6
  5  6  2  0
  7  8  1  0
  9  8  1  1
 10  9  1  0
 10  5  1  0
 11 17  1  0
 11  9  1  0
 12 11  2  0
 14 13  1  6
 14 15  1  0
 14 16  1  0
 16 17  1  1
 18 16  1  0
 18 19  1  0
 20 18  2  0
M  END
$$$$
