SST.pdb
     RDKit          3D

 20 19  0  0  1  0  0  0  0  0999 V2000
   -0.7274  -24.3222   25.2767 O   0  0  0  0  0  0  0  0  0  0  0  0
   -1.9859  -24.4342   25.8184 C   0  0  0  0  0  0  0  0  0  0  0  0
   -1.9852  -25.4863   26.9222 C   0  0  2  0  0  0  0  0  0  0  0  0
   -1.7902  -26.7796   26.2995 N   0  0  0  0  0  0  0  0  0  0  0  0
   -3.2593  -25.4297   27.6815 C   0  0  0  0  0  0  0  0  0  0  0  0
   -4.2222  -26.1001   27.2196 O   0  0  0  0  0  0  0  0  0  0  0  0
   -3.2356  -23.9254   31.4674 O   0  0  0  0  0  0  0  0  0  0  0  0
   -4.1609  -24.8887   31.1135 C   0  0  0  0  0  0  0  0  0  0  0  0
   -4.5536  -24.7106   29.6520 C   0  0  2  0  0  0  0  0  0  0  0  0
   -3.3386  -24.6540   28.8501 N   0  0  0  0  0  0  0  0  0  0  0  0
   -5.3437  -23.4696   29.4894 C   0  0  0  0  0  0  0  0  0  0  0  0
   -4.7039  -22.3761   29.2894 O   0  0  0  0  0  0  0  0  0  0  0  0
   -8.7071  -22.9839   27.2648 C   0  0  0  0  0  0  0  0  0  0  0  0
   -8.8338  -22.4773   28.6734 C   0  0  1  0  0  0  0  0  0  0  0  0
   -9.5847  -23.3413   29.4736 O   0  0  0  0  0  0  0  0  0  0  0  0
   -7.4731  -22.2010   29.2989 C   0  0  2  0  0  0  0  0  0  0  0  0
   -6.7592  -23.4501   29.5452 N   0  0  0  0  0  0  0  0  0  0  0  0
   -7.7292  -21.5522   30.6031 C   0  0  0  0  0  0  0  0  0  0  0  0
   -8.1776  -20.2471   30.6185 O   0  0  0  0  0  0  0  0  0  0  0  0
   -7.5551  -22.1410   31.7041 O   0  0  0  0  0  0  0  0  0  0  0  0
  2  1  1  0
  2  3  1  0
  3  5  1  0
  3  4  1  6
  5  6  2  0
  7  8  1  0
  9  8  1  1
 10  9  1  0
 10  5  1  0
 11 17  1  0
 11  9  1  0
 12 11  2  0
 14 13  1  6
 14 15  1  0
 14 16  1  0
 16 17  1  1
 18 16  1  0
 18 19  1  0
 20 18  2  0
M  END
$$$$
