SST.pdb
     RDKit          3D

 20 19  0  0  1  0  0  0  0  0999 V2000
    8.6355  -19.2222   11.9023 O   0  0  0  0  0  0  0  0  0  0  0  0
    7.3836  -18.7193   12.1665 C   0  0  0  0  0  0  0  0  0  0  0  0
    7.5017  -17.3420   12.8101 C   0  0  2  0  0  0  0  0  0  0  0  0
    8.2929  -16.5087   11.9282 N   0  0  0  0  0  0  0  0  0  0  0  0
    8.1195  -17.4587   14.1547 C   0  0  0  0  0  0  0  0  0  0  0  0
    9.3353  -17.1374   14.2475 O   0  0  0  0  0  0  0  0  0  0  0  0
    7.3790  -17.9076   18.8723 O   0  0  0  0  0  0  0  0  0  0  0  0
    6.8340  -17.8853   17.6026 C   0  0  0  0  0  0  0  0  0  0  0  0
    7.9481  -17.9458   16.5648 C   0  0  2  0  0  0  0  0  0  0  0  0
    7.3470  -17.9094   15.2382 N   0  0  0  0  0  0  0  0  0  0  0  0
    8.7388  -19.1840   16.7450 C   0  0  0  0  0  0  0  0  0  0  0  0
    8.2400  -20.2806   16.3049 O   0  0  0  0  0  0  0  0  0  0  0  0
   12.7583  -19.7375   16.1598 C   0  0  0  0  0  0  0  0  0  0  0  0
   12.2486  -20.1835   17.5008 C   0  0  1  0  0  0  0  0  0  0  0  0
   12.5768  -19.2777   18.5119 O   0  0  0  0  0  0  0  0  0  0  0  0
   10.7495  -20.4505   17.4751 C   0  0  2  0  0  0  0  0  0  0  0  0
   10.0074  -19.1975   17.3755 N   0  0  0  0  0  0  0  0  0  0  0  0
   10.4092  -21.0857   18.7666 C   0  0  0  0  0  0  0  0  0  0  0  0
   10.8307  -22.3786   19.0019 O   0  0  0  0  0  0  0  0  0  0  0  0
    9.7490  -20.4961   19.6642 O   0  0  0  0  0  0  0  0  0  0  0  0
  2  1  1  0
  2  3  1  0
  3  5  1  0
  3  4  1  6
  5  6  2  0
  7  8  1  0
  9  8  1  1
 10  9  1  0
 10  5  1  0
 11 17  1  0
 11  9  1  0
 12 11  2  0
 14 13  1  6
 14 15  1  0
 14 16  1  0
 16 17  1  1
 18 16  1  0
 18 19  1  0
 20 18  2  0
M  END
$$$$
