IQV.pdb
     RDKit          3D

 25 24  0  0  1  0  0  0  0  0999 V2000
   19.0232  -13.2283  -18.1122 C   0  0  0  0  0  0  0  0  0  0  0  0
   18.4432  -12.9807  -16.7488 C   0  0  0  0  0  0  0  0  0  0  0  0
   18.4650  -11.5115  -16.4495 C   0  0  2  0  0  0  0  0  0  0  0  0
   19.9035  -11.0616  -16.4948 C   0  0  0  0  0  0  0  0  0  0  0  0
   17.7726  -11.2123  -15.1791 C   0  0  2  0  0  0  0  0  0  0  0  0
   16.4613  -11.8105  -15.0879 N   0  0  0  0  0  0  0  0  0  0  0  0
   17.6900   -9.7932  -14.8334 C   0  0  0  0  0  0  0  0  0  0  0  0
   17.1893   -8.9110  -15.5869 O   0  0  0  0  0  0  0  0  0  0  0  0
   16.1207   -8.7241   -9.8193 N   0  0  0  0  0  0  0  0  0  0  0  0
   15.3217   -8.5149  -10.9773 C   0  0  0  0  0  0  0  0  0  0  0  0
   14.1078   -8.8552  -10.9046 O   0  0  0  0  0  0  0  0  0  0  0  0
   15.9183   -7.9230  -12.1953 C   0  0  0  0  0  0  0  0  0  0  0  0
   17.3969   -7.7206  -11.9446 C   0  0  0  0  0  0  0  0  0  0  0  0
   18.1958   -7.9434  -13.2117 C   0  0  2  0  0  0  0  0  0  0  0  0
   18.1934   -9.3512  -13.5870 N   0  0  0  0  0  0  0  0  0  0  0  0
   19.5745   -7.4560  -13.0867 C   0  0  0  0  0  0  0  0  0  0  0  0
   20.4062   -8.1034  -12.3811 O   0  0  0  0  0  0  0  0  0  0  0  0
   22.1021   -7.4146  -15.4827 C   0  0  0  0  0  0  0  0  0  0  0  0
   22.0198   -5.9895  -15.0445 C   0  0  1  0  0  0  0  0  0  0  0  0
   21.2261   -5.1070  -15.9547 C   0  0  0  0  0  0  0  0  0  0  0  0
   21.4665   -5.8709  -13.6176 C   0  0  2  0  0  0  0  0  0  0  0  0
   20.0710   -6.2830  -13.7091 N   0  0  0  0  0  0  0  0  0  0  0  0
   21.5937   -4.4723  -13.1681 C   0  0  0  0  0  0  0  0  0  0  0  0
   20.5853   -3.7428  -13.2106 O   0  0  0  0  0  0  0  0  0  0  0  0
   22.7789   -3.9246  -12.6995 O   0  0  0  0  0  0  0  0  0  0  0  0
  2  1  1  0
  3  2  1  0
  3  5  1  0
  3  4  1  1
  5  6  1  6
  7  5  1  0
  7  8  2  0
 10  9  1  0
 10 12  1  0
 11 10  2  0
 13 12  1  0
 14 13  1  1
 15 14  1  0
 15  7  1  0
 16 14  1  0
 17 16  2  0
 19 18  1  6
 19 21  1  0
 20 19  1  0
 21 22  1  6
 21 23  1  0
 22 16  1  0
 23 25  1  0
 24 23  2  0
M  END
$$$$
