IQV.pdb
     RDKit          3D

 25 24  0  0  1  0  0  0  0  0999 V2000
   19.0464  -12.9888  -17.2112 C   0  0  0  0  0  0  0  0  0  0  0  0
   18.1916  -12.7506  -15.9990 C   0  0  0  0  0  0  0  0  0  0  0  0
   18.1980  -11.2910  -15.6552 C   0  0  2  0  0  0  0  0  0  0  0  0
   19.6289  -10.8937  -15.3940 C   0  0  0  0  0  0  0  0  0  0  0  0
   17.2712  -10.9979  -14.5424 C   0  0  2  0  0  0  0  0  0  0  0  0
   15.9425  -11.5238  -14.7512 N   0  0  0  0  0  0  0  0  0  0  0  0
   17.1866   -9.5894  -14.1564 C   0  0  0  0  0  0  0  0  0  0  0  0
   16.5116   -8.7247  -14.7835 O   0  0  0  0  0  0  0  0  0  0  0  0
   16.1149   -7.4244   -8.7677 N   0  0  0  0  0  0  0  0  0  0  0  0
   16.5800   -6.2149   -9.3544 C   0  0  0  0  0  0  0  0  0  0  0  0
   16.4588   -5.1618   -8.6681 O   0  0  0  0  0  0  0  0  0  0  0  0
   17.1739   -6.2263  -10.7098 C   0  0  0  0  0  0  0  0  0  0  0  0
   17.1373   -7.6478  -11.2278 C   0  0  0  0  0  0  0  0  0  0  0  0
   17.8312   -7.7524  -12.5697 C   0  0  2  0  0  0  0  0  0  0  0  0
   17.8930   -9.1378  -13.0164 N   0  0  0  0  0  0  0  0  0  0  0  0
   19.1782   -7.1702  -12.5403 C   0  0  0  0  0  0  0  0  0  0  0  0
   20.0329   -7.6107  -11.7131 O   0  0  0  0  0  0  0  0  0  0  0  0
   21.7252   -7.4194  -14.9932 C   0  0  0  0  0  0  0  0  0  0  0  0
   21.5280   -5.9521  -14.7986 C   0  0  1  0  0  0  0  0  0  0  0  0
   20.6436   -5.3061  -15.8173 C   0  0  0  0  0  0  0  0  0  0  0  0
   20.9937   -5.6378  -13.3943 C   0  0  2  0  0  0  0  0  0  0  0  0
   19.6186   -6.1220  -13.3871 N   0  0  0  0  0  0  0  0  0  0  0  0
   21.0603   -4.1819  -13.1701 C   0  0  0  0  0  0  0  0  0  0  0  0
   20.0141   -3.5166  -13.2861 O   0  0  0  0  0  0  0  0  0  0  0  0
   22.2285   -3.5124  -12.8364 O   0  0  0  0  0  0  0  0  0  0  0  0
  2  1  1  0
  3  2  1  0
  3  5  1  0
  3  4  1  1
  5  6  1  6
  7  5  1  0
  7  8  2  0
 10  9  1  0
 10 12  1  0
 11 10  2  0
 13 12  1  0
 14 13  1  1
 15 14  1  0
 15  7  1  0
 16 14  1  0
 17 16  2  0
 19 18  1  6
 19 21  1  0
 20 19  1  0
 21 22  1  6
 21 23  1  0
 22 16  1  0
 23 25  1  0
 24 23  2  0
M  END
$$$$
