IQV.pdb
     RDKit          3D

 25 24  0  0  1  0  0  0  0  0999 V2000
   17.8510  -15.0934  -16.8549 C   0  0  0  0  0  0  0  0  0  0  0  0
   17.4073  -13.6618  -16.7538 C   0  0  0  0  0  0  0  0  0  0  0  0
   18.6068  -12.7660  -16.6672 C   0  0  2  0  0  0  0  0  0  0  0  0
   19.4693  -13.2722  -15.5388 C   0  0  0  0  0  0  0  0  0  0  0  0
   18.2097  -11.3483  -16.5421 C   0  0  2  0  0  0  0  0  0  0  0  0
   17.3197  -10.9091  -17.5911 N   0  0  0  0  0  0  0  0  0  0  0  0
   19.3161  -10.4007  -16.4083 C   0  0  0  0  0  0  0  0  0  0  0  0
   20.1766  -10.4460  -15.4840 O   0  0  0  0  0  0  0  0  0  0  0  0
   21.6182   -7.0289  -21.0869 N   0  0  0  0  0  0  0  0  0  0  0  0
   22.1856   -8.2661  -20.6739 C   0  0  0  0  0  0  0  0  0  0  0  0
   22.9645   -8.8385  -21.4865 O   0  0  0  0  0  0  0  0  0  0  0  0
   21.8564   -8.8284  -19.3453 C   0  0  0  0  0  0  0  0  0  0  0  0
   20.9082   -7.8743  -18.6520 C   0  0  0  0  0  0  0  0  0  0  0  0
   20.5378   -8.3849  -17.2753 C   0  0  2  0  0  0  0  0  0  0  0  0
   19.4572   -9.3590  -17.3555 N   0  0  0  0  0  0  0  0  0  0  0  0
   20.1691   -7.2949  -16.3642 C   0  0  0  0  0  0  0  0  0  0  0  0
   18.9817   -6.8491  -16.3691 O   0  0  0  0  0  0  0  0  0  0  0  0
   19.9198   -7.2408  -12.8472 C   0  0  0  0  0  0  0  0  0  0  0  0
   20.8526   -6.1135  -13.1453 C   0  0  1  0  0  0  0  0  0  0  0  0
   22.2981   -6.4338  -12.9334 C   0  0  0  0  0  0  0  0  0  0  0  0
   20.6568   -5.5841  -14.5728 C   0  0  2  0  0  0  0  0  0  0  0  0
   21.0586   -6.6781  -15.4488 N   0  0  0  0  0  0  0  0  0  0  0  0
   21.5050   -4.3931  -14.7636 C   0  0  0  0  0  0  0  0  0  0  0  0
   22.5912   -4.5289  -15.3573 O   0  0  0  0  0  0  0  0  0  0  0  0
   21.1570   -3.1270  -14.3162 O   0  0  0  0  0  0  0  0  0  0  0  0
  2  1  1  0
  3  2  1  0
  3  5  1  0
  3  4  1  1
  5  6  1  6
  7  5  1  0
  7  8  2  0
 10  9  1  0
 10 12  1  0
 11 10  2  0
 13 12  1  0
 14 13  1  6
 15 14  1  0
 15  7  1  0
 16 14  1  0
 17 16  2  0
 19 18  1  6
 19 21  1  0
 20 19  1  0
 21 22  1  6
 21 23  1  0
 22 16  1  0
 23 25  1  0
 24 23  2  0
M  END
$$$$
