IQV.pdb
     RDKit          3D

 25 24  0  0  1  0  0  0  0  0999 V2000
   17.2581  -16.0584  -16.8925 C   0  0  0  0  0  0  0  0  0  0  0  0
   17.3349  -14.9813  -15.8481 C   0  0  0  0  0  0  0  0  0  0  0  0
   17.7953  -13.7000  -16.4767 C   0  0  2  0  0  0  0  0  0  0  0  0
   19.1166  -13.9747  -17.1490 C   0  0  0  0  0  0  0  0  0  0  0  0
   17.8303  -12.6007  -15.4901 C   0  0  2  0  0  0  0  0  0  0  0  0
   16.6018  -12.4629  -14.7435 N   0  0  0  0  0  0  0  0  0  0  0  0
   18.2300  -11.2980  -16.0224 C   0  0  0  0  0  0  0  0  0  0  0  0
   19.2715  -11.1064  -16.7119 O   0  0  0  0  0  0  0  0  0  0  0  0
   17.2451   -6.6400  -18.9067 N   0  0  0  0  0  0  0  0  0  0  0  0
   16.5131   -7.8261  -19.1910 C   0  0  0  0  0  0  0  0  0  0  0  0
   16.2503   -8.0600  -20.4038 O   0  0  0  0  0  0  0  0  0  0  0  0
   16.0942   -8.7230  -18.0911 C   0  0  0  0  0  0  0  0  0  0  0  0
   16.5575   -8.1145  -16.7852 C   0  0  0  0  0  0  0  0  0  0  0  0
   17.7766   -8.8386  -16.2535 C   0  0  2  0  0  0  0  0  0  0  0  0
   17.4220  -10.1650  -15.7660 N   0  0  0  0  0  0  0  0  0  0  0  0
   18.4533   -8.0762  -15.1976 C   0  0  0  0  0  0  0  0  0  0  0  0
   18.0167   -8.1306  -14.0080 O   0  0  0  0  0  0  0  0  0  0  0  0
   22.0536   -6.1738  -15.9790 C   0  0  0  0  0  0  0  0  0  0  0  0
   21.6889   -6.4999  -14.5682 C   0  0  1  0  0  0  0  0  0  0  0  0
   22.3723   -5.6543  -13.5411 C   0  0  0  0  0  0  0  0  0  0  0  0
   20.1711   -6.4318  -14.3495 C   0  0  2  0  0  0  0  0  0  0  0  0
   19.5919   -7.2569  -15.4028 N   0  0  0  0  0  0  0  0  0  0  0  0
   19.7336   -5.0276  -14.4542 C   0  0  0  0  0  0  0  0  0  0  0  0
   19.9931   -4.2549  -13.5127 O   0  0  0  0  0  0  0  0  0  0  0  0
   19.0469   -4.5202  -15.5475 O   0  0  0  0  0  0  0  0  0  0  0  0
  2  1  1  0
  3  2  1  0
  3  5  1  0
  3  4  1  1
  5  6  1  6
  7  5  1  0
  7  8  2  0
 10  9  1  0
 10 12  1  0
 11 10  2  0
 13 12  1  0
 14 13  1  1
 15 14  1  0
 15  7  1  0
 16 14  1  0
 17 16  2  0
 19 18  1  6
 19 21  1  0
 20 19  1  0
 21 22  1  6
 21 23  1  0
 22 16  1  0
 23 25  1  0
 24 23  2  0
M  END
$$$$
