IQV.pdb
     RDKit          3D

 25 24  0  0  1  0  0  0  0  0999 V2000
   19.2028  -22.7790  -16.2561 C   0  0  0  0  0  0  0  0  0  0  0  0
   19.0376  -21.2949  -16.0924 C   0  0  0  0  0  0  0  0  0  0  0  0
   20.3457  -20.6823  -15.6894 C   0  0  2  0  0  0  0  0  0  0  0  0
   21.3470  -21.0010  -16.7707 C   0  0  0  0  0  0  0  0  0  0  0  0
   20.7491  -21.1199  -14.3370 C   0  0  2  0  0  0  0  0  0  0  0  0
   19.7786  -20.7956  -13.3178 N   0  0  0  0  0  0  0  0  0  0  0  0
   22.0765  -20.6784  -13.9092 C   0  0  0  0  0  0  0  0  0  0  0  0
   22.4585  -19.4740  -13.9228 O   0  0  0  0  0  0  0  0  0  0  0  0
   24.8214  -20.6384   -9.6889 N   0  0  0  0  0  0  0  0  0  0  0  0
   26.1001  -20.8369  -10.2795 C   0  0  0  0  0  0  0  0  0  0  0  0
   27.0787  -20.2519   -9.7366 O   0  0  0  0  0  0  0  0  0  0  0  0
   26.2413  -21.6966  -11.4757 C   0  0  0  0  0  0  0  0  0  0  0  0
   24.8573  -22.1220  -11.9157 C   0  0  0  0  0  0  0  0  0  0  0  0
   24.3677  -21.2651  -13.0644 C   0  0  2  0  0  0  0  0  0  0  0  0
   23.0116  -21.6350  -13.4477 N   0  0  0  0  0  0  0  0  0  0  0  0
   25.2600  -21.3405  -14.2272 C   0  0  0  0  0  0  0  0  0  0  0  0
   25.2349  -22.3679  -14.9704 O   0  0  0  0  0  0  0  0  0  0  0  0
   26.5277  -17.9851  -16.2655 C   0  0  0  0  0  0  0  0  0  0  0  0
   27.5865  -19.0012  -15.9893 C   0  0  1  0  0  0  0  0  0  0  0  0
   28.4558  -18.6853  -14.8139 C   0  0  0  0  0  0  0  0  0  0  0  0
   26.9876  -20.4035  -15.8119 C   0  0  2  0  0  0  0  0  0  0  0  0
   26.1782  -20.3273  -14.6017 N   0  0  0  0  0  0  0  0  0  0  0  0
   28.0841  -21.3797  -15.6740 C   0  0  0  0  0  0  0  0  0  0  0  0
   28.4240  -21.7302  -14.5285 O   0  0  0  0  0  0  0  0  0  0  0  0
   28.7585  -21.9297  -16.7543 O   0  0  0  0  0  0  0  0  0  0  0  0
  2  1  1  0
  3  2  1  0
  3  5  1  0
  3  4  1  6
  5  6  1  1
  7  5  1  0
  7  8  2  0
 10  9  1  0
 10 12  1  0
 11 10  2  0
 13 12  1  0
 14 13  1  1
 15 14  1  0
 15  7  1  0
 16 14  1  0
 17 16  2  0
 19 18  1  1
 19 21  1  0
 20 19  1  0
 21 22  1  1
 21 23  1  0
 22 16  1  0
 23 25  1  0
 24 23  2  0
M  END
$$$$
