IQV.pdb
     RDKit          3D

 25 24  0  0  1  0  0  0  0  0999 V2000
   24.1925  -21.6783   -7.7053 C   0  0  0  0  0  0  0  0  0  0  0  0
   24.3456  -20.2331   -8.0855 C   0  0  0  0  0  0  0  0  0  0  0  0
   24.2344  -20.0877   -9.5739 C   0  0  2  0  0  0  0  0  0  0  0  0
   22.8883  -20.6307   -9.9824 C   0  0  0  0  0  0  0  0  0  0  0  0
   25.3801  -20.7181  -10.2617 C   0  0  2  0  0  0  0  0  0  0  0  0
   26.6594  -20.3271   -9.7174 N   0  0  0  0  0  0  0  0  0  0  0  0
   25.3968  -20.5616  -11.7161 C   0  0  0  0  0  0  0  0  0  0  0  0
   25.8212  -19.5304  -12.3105 O   0  0  0  0  0  0  0  0  0  0  0  0
   27.8734  -22.0786  -15.5643 N   0  0  0  0  0  0  0  0  0  0  0  0
   26.8549  -22.2905  -16.5344 C   0  0  0  0  0  0  0  0  0  0  0  0
   27.1699  -22.1107  -17.7440 O   0  0  0  0  0  0  0  0  0  0  0  0
   25.4984  -22.7027  -16.1104 C   0  0  0  0  0  0  0  0  0  0  0  0
   25.4843  -22.7926  -14.5998 C   0  0  0  0  0  0  0  0  0  0  0  0
   24.9274  -21.5243  -13.9878 C   0  0  2  0  0  0  0  0  0  0  0  0
   24.9144  -21.6112  -12.5334 N   0  0  0  0  0  0  0  0  0  0  0  0
   23.5824  -21.2158  -14.4877 C   0  0  0  0  0  0  0  0  0  0  0  0
   22.5739  -21.7723  -13.9568 O   0  0  0  0  0  0  0  0  0  0  0  0
   21.9332  -17.7134  -15.1205 C   0  0  0  0  0  0  0  0  0  0  0  0
   21.9338  -18.5493  -16.3579 C   0  0  1  0  0  0  0  0  0  0  0  0
   23.0438  -18.2416  -17.3119 C   0  0  0  0  0  0  0  0  0  0  0  0
   21.9553  -20.0475  -16.0245 C   0  0  2  0  0  0  0  0  0  0  0  0
   23.3070  -20.3180  -15.5497 N   0  0  0  0  0  0  0  0  0  0  0  0
   21.6418  -20.8151  -17.2438 C   0  0  0  0  0  0  0  0  0  0  0  0
   22.5864  -21.2605  -17.9221 O   0  0  0  0  0  0  0  0  0  0  0  0
   20.3484  -21.0681  -17.6766 O   0  0  0  0  0  0  0  0  0  0  0  0
  2  1  1  0
  3  2  1  0
  3  5  1  0
  3  4  1  6
  5  6  1  1
  7  5  1  0
  7  8  2  0
 10  9  1  0
 10 12  1  0
 11 10  2  0
 13 12  1  0
 14 13  1  6
 15 14  1  0
 15  7  1  0
 16 14  1  0
 17 16  2  0
 19 18  1  1
 19 21  1  0
 20 19  1  0
 21 22  1  6
 21 23  1  0
 22 16  1  0
 23 25  1  0
 24 23  2  0
M  END
$$$$
