IQV.pdb
     RDKit          3D

 25 24  0  0  1  0  0  0  0  0999 V2000
   32.6456  -21.8863  -10.8348 C   0  0  0  0  0  0  0  0  0  0  0  0
   31.9398  -21.8394  -12.1601 C   0  0  0  0  0  0  0  0  0  0  0  0
   30.5691  -21.2578  -11.9823 C   0  0  2  0  0  0  0  0  0  0  0  0
   29.8256  -22.1399  -11.0114 C   0  0  0  0  0  0  0  0  0  0  0  0
   29.8910  -21.0752  -13.2823 C   0  0  2  0  0  0  0  0  0  0  0  0
   30.7034  -20.3894  -14.2596 N   0  0  0  0  0  0  0  0  0  0  0  0
   28.5711  -20.4482  -13.2140 C   0  0  0  0  0  0  0  0  0  0  0  0
   28.3857  -19.2086  -13.0535 O   0  0  0  0  0  0  0  0  0  0  0  0
   22.6857  -20.1570  -14.4544 N   0  0  0  0  0  0  0  0  0  0  0  0
   23.6143  -19.3418  -15.1590 C   0  0  0  0  0  0  0  0  0  0  0  0
   23.1605  -18.2978  -15.7054 O   0  0  0  0  0  0  0  0  0  0  0  0
   25.0408  -19.7295  -15.2285 C   0  0  0  0  0  0  0  0  0  0  0  0
   25.2287  -20.9833  -14.4022 C   0  0  0  0  0  0  0  0  0  0  0  0
   26.0727  -20.7020  -13.1768 C   0  0  2  0  0  0  0  0  0  0  0  0
   27.4128  -21.2526  -13.3310 N   0  0  0  0  0  0  0  0  0  0  0  0
   25.4525  -21.2174  -11.9505 C   0  0  0  0  0  0  0  0  0  0  0  0
   25.2505  -22.4635  -11.8267 O   0  0  0  0  0  0  0  0  0  0  0  0
   26.4418  -20.3752   -8.3650 C   0  0  0  0  0  0  0  0  0  0  0  0
   24.9675  -20.1733   -8.4891 C   0  0  1  0  0  0  0  0  0  0  0  0
   24.5455  -18.7423   -8.5948 C   0  0  0  0  0  0  0  0  0  0  0  0
   24.3901  -20.9588   -9.6749 C   0  0  2  0  0  0  0  0  0  0  0  0
   25.0469  -20.4124  -10.8563 N   0  0  0  0  0  0  0  0  0  0  0  0
   22.9303  -20.7560   -9.7198 C   0  0  0  0  0  0  0  0  0  0  0  0
   22.4622  -20.0177  -10.6066 O   0  0  0  0  0  0  0  0  0  0  0  0
   22.0487  -21.3450   -8.8252 O   0  0  0  0  0  0  0  0  0  0  0  0
  2  1  1  0
  3  2  1  0
  3  5  1  0
  3  4  1  1
  5  6  1  6
  7  5  1  0
  7  8  2  0
 10  9  1  0
 10 12  1  0
 11 10  2  0
 13 12  1  0
 14 13  1  6
 15 14  1  0
 15  7  1  0
 16 14  1  0
 17 16  2  0
 19 18  1  6
 19 21  1  0
 20 19  1  0
 21 22  1  6
 21 23  1  0
 22 16  1  0
 23 25  1  0
 24 23  2  0
M  END
$$$$
