IQV.pdb
     RDKit          3D

 25 24  0  0  1  0  0  0  0  0999 V2000
   27.0698  -17.6713  -14.2300 C   0  0  0  0  0  0  0  0  0  0  0  0
   26.7809  -18.9784  -14.9118 C   0  0  0  0  0  0  0  0  0  0  0  0
   26.9826  -20.1075  -13.9458 C   0  0  2  0  0  0  0  0  0  0  0  0
   28.4136  -20.0495  -13.4742 C   0  0  0  0  0  0  0  0  0  0  0  0
   26.5894  -21.4008  -14.5424 C   0  0  2  0  0  0  0  0  0  0  0  0
   27.3906  -21.7702  -15.6858 N   0  0  0  0  0  0  0  0  0  0  0  0
   25.1706  -21.5278  -14.8754 C   0  0  0  0  0  0  0  0  0  0  0  0
   24.6827  -21.2454  -16.0063 O   0  0  0  0  0  0  0  0  0  0  0  0
   21.1308  -25.2537  -11.9549 N   0  0  0  0  0  0  0  0  0  0  0  0
   20.2700  -24.5807  -12.8656 C   0  0  0  0  0  0  0  0  0  0  0  0
   19.0716  -24.9750  -12.9187 O   0  0  0  0  0  0  0  0  0  0  0  0
   20.7886  -23.4727  -13.6982 C   0  0  0  0  0  0  0  0  0  0  0  0
   22.2430  -23.2559  -13.3406 C   0  0  0  0  0  0  0  0  0  0  0  0
   22.8398  -22.1315  -14.1608 C   0  0  2  0  0  0  0  0  0  0  0  0
   24.2650  -21.9919  -13.8921 N   0  0  0  0  0  0  0  0  0  0  0  0
   22.1540  -20.8551  -13.9274 C   0  0  0  0  0  0  0  0  0  0  0  0
   22.3081  -20.2545  -12.8210 O   0  0  0  0  0  0  0  0  0  0  0  0
   22.2258  -17.6190  -15.8508 C   0  0  0  0  0  0  0  0  0  0  0  0
   20.8052  -18.0721  -15.7716 C   0  0  1  0  0  0  0  0  0  0  0  0
   20.3013  -18.7475  -17.0074 C   0  0  0  0  0  0  0  0  0  0  0  0
   20.5745  -18.9913  -14.5641 C   0  0  2  0  0  0  0  0  0  0  0  0
   21.3054  -20.2162  -14.8662 N   0  0  0  0  0  0  0  0  0  0  0  0
   19.1284  -19.2407  -14.4200 C   0  0  0  0  0  0  0  0  0  0  0  0
   18.6587  -20.2916  -14.8950 O   0  0  0  0  0  0  0  0  0  0  0  0
   18.2614  -18.3654  -13.7824 O   0  0  0  0  0  0  0  0  0  0  0  0
  2  1  1  0
  3  2  1  0
  3  5  1  0
  3  4  1  6
  5  6  1  6
  7  5  1  0
  7  8  2  0
 10  9  1  0
 10 12  1  0
 11 10  2  0
 13 12  1  0
 14 13  1  1
 15 14  1  0
 15  7  1  0
 16 14  1  0
 17 16  2  0
 19 18  1  6
 19 21  1  0
 20 19  1  0
 21 22  1  6
 21 23  1  0
 22 16  1  0
 23 25  1  0
 24 23  2  0
M  END
$$$$
