IQV.pdb
     RDKit          3D

 25 24  0  0  1  0  0  0  0  0999 V2000
   29.0733  -19.7784  -15.5813 C   0  0  0  0  0  0  0  0  0  0  0  0
   27.5768  -19.6471  -15.5850 C   0  0  0  0  0  0  0  0  0  0  0  0
   27.1137  -19.1075  -14.2647 C   0  0  2  0  0  0  0  0  0  0  0  0
   27.5956  -17.6823  -14.1640 C   0  0  0  0  0  0  0  0  0  0  0  0
   27.5432  -19.9764  -13.1495 C   0  0  2  0  0  0  0  0  0  0  0  0
   27.4091  -21.3851  -13.4379 N   0  0  0  0  0  0  0  0  0  0  0  0
   26.9286  -19.6795  -11.8557 C   0  0  0  0  0  0  0  0  0  0  0  0
   26.8116  -18.5145  -11.3803 O   0  0  0  0  0  0  0  0  0  0  0  0
   22.3629  -20.6072   -8.2727 N   0  0  0  0  0  0  0  0  0  0  0  0
   22.3329  -20.4682   -9.6880 C   0  0  0  0  0  0  0  0  0  0  0  0
   21.2803  -19.9879  -10.1940 O   0  0  0  0  0  0  0  0  0  0  0  0
   23.5000  -20.8780  -10.5003 C   0  0  0  0  0  0  0  0  0  0  0  0
   24.5919  -21.3359   -9.5579 C   0  0  0  0  0  0  0  0  0  0  0  0
   25.8493  -20.5133   -9.7468 C   0  0  2  0  0  0  0  0  0  0  0  0
   26.4259  -20.7402  -11.0655 N   0  0  0  0  0  0  0  0  0  0  0  0
   26.8471  -20.7852   -8.7053 C   0  0  0  0  0  0  0  0  0  0  0  0
   27.6741  -21.7339   -8.8626 O   0  0  0  0  0  0  0  0  0  0  0  0
   27.9393  -17.9821   -5.8723 C   0  0  0  0  0  0  0  0  0  0  0  0
   28.7709  -19.1740   -6.2152 C   0  0  1  0  0  0  0  0  0  0  0  0
   29.8374  -19.4926   -5.2162 C   0  0  0  0  0  0  0  0  0  0  0  0
   27.9025  -20.4194   -6.4412 C   0  0  2  0  0  0  0  0  0  0  0  0
   26.9679  -20.0518   -7.4981 N   0  0  0  0  0  0  0  0  0  0  0  0
   27.2032  -20.7512   -5.1860 C   0  0  0  0  0  0  0  0  0  0  0  0
   25.9722  -20.5724   -5.1292 O   0  0  0  0  0  0  0  0  0  0  0  0
   27.8447  -21.2527   -4.0630 O   0  0  0  0  0  0  0  0  0  0  0  0
  2  1  1  0
  3  2  1  0
  3  5  1  0
  3  4  1  1
  5  6  1  6
  7  5  1  0
  7  8  2  0
 10  9  1  0
 10 12  1  0
 11 10  2  0
 13 12  1  0
 14 13  1  1
 15 14  1  0
 15  7  1  0
 16 14  1  0
 17 16  2  0
 19 18  1  1
 19 21  1  0
 20 19  1  0
 21 22  1  6
 21 23  1  0
 22 16  1  0
 23 25  1  0
 24 23  2  0
M  END
$$$$
