IQV.pdb
     RDKit          3D

 25 24  0  0  1  0  0  0  0  0999 V2000
   25.4879  -33.7592  -10.1586 C   0  0  0  0  0  0  0  0  0  0  0  0
   24.9194  -32.7101   -9.2460 C   0  0  0  0  0  0  0  0  0  0  0  0
   25.6985  -32.6786   -7.9651 C   0  0  2  0  0  0  0  0  0  0  0  0
   27.1574  -32.8205   -8.3191 C   0  0  0  0  0  0  0  0  0  0  0  0
   25.2019  -33.6906   -7.0099 C   0  0  2  0  0  0  0  0  0  0  0  0
   23.7914  -33.5656   -6.7263 N   0  0  0  0  0  0  0  0  0  0  0  0
   25.9486  -33.7828   -5.7554 C   0  0  0  0  0  0  0  0  0  0  0  0
   25.8872  -32.9222   -4.8322 O   0  0  0  0  0  0  0  0  0  0  0  0
   27.3816  -37.1486   -0.9806 N   0  0  0  0  0  0  0  0  0  0  0  0
   26.4955  -36.0361   -1.0036 C   0  0  0  0  0  0  0  0  0  0  0  0
   25.9975  -35.6778    0.1002 O   0  0  0  0  0  0  0  0  0  0  0  0
   26.1929  -35.3528   -2.2808 C   0  0  0  0  0  0  0  0  0  0  0  0
   26.9767  -36.0385   -3.3788 C   0  0  0  0  0  0  0  0  0  0  0  0
   27.5930  -35.0232   -4.3183 C   0  0  2  0  0  0  0  0  0  0  0  0
   26.8001  -34.8911   -5.5335 N   0  0  0  0  0  0  0  0  0  0  0  0
   28.9822  -35.3563   -4.6550 C   0  0  0  0  0  0  0  0  0  0  0  0
   29.2202  -36.1706   -5.5978 O   0  0  0  0  0  0  0  0  0  0  0  0
   33.6769  -34.2251   -4.8899 C   0  0  0  0  0  0  0  0  0  0  0  0
   32.2030  -34.0050   -4.7959 C   0  0  1  0  0  0  0  0  0  0  0  0
   31.5632  -33.5479   -6.0682 C   0  0  0  0  0  0  0  0  0  0  0  0
   31.4783  -35.2595   -4.2887 C   0  0  2  0  0  0  0  0  0  0  0  0
   30.1180  -34.8263   -3.9925 N   0  0  0  0  0  0  0  0  0  0  0  0
   32.1667  -35.7572   -3.0834 C   0  0  0  0  0  0  0  0  0  0  0  0
   33.2114  -36.4189   -3.2290 O   0  0  0  0  0  0  0  0  0  0  0  0
   31.7117  -35.5271   -1.7932 O   0  0  0  0  0  0  0  0  0  0  0  0
  2  1  1  0
  3  2  1  0
  3  5  1  0
  3  4  1  6
  5  6  1  1
  7  5  1  0
  7  8  2  0
 10  9  1  0
 10 12  1  0
 11 10  2  0
 13 12  1  0
 14 13  1  1
 15 14  1  0
 15  7  1  0
 16 14  1  0
 17 16  2  0
 19 18  1  6
 19 21  1  0
 20 19  1  0
 21 22  1  1
 21 23  1  0
 22 16  1  0
 23 25  1  0
 24 23  2  0
M  END
$$$$
