IQV.pdb
     RDKit          3D

 25 24  0  0  1  0  0  0  0  0999 V2000
   27.3188  -16.1577  -15.6372 C   0  0  0  0  0  0  0  0  0  0  0  0
   25.8551  -16.4395  -15.4507 C   0  0  0  0  0  0  0  0  0  0  0  0
   25.0558  -15.2255  -15.8194 C   0  0  2  0  0  0  0  0  0  0  0  0
   25.5267  -14.0908  -14.9450 C   0  0  0  0  0  0  0  0  0  0  0  0
   23.6050  -15.4940  -15.7407 C   0  0  2  0  0  0  0  0  0  0  0  0
   23.2224  -16.7497  -16.3427 N   0  0  0  0  0  0  0  0  0  0  0  0
   22.7449  -14.4245  -16.2470 C   0  0  0  0  0  0  0  0  0  0  0  0
   22.6038  -14.1525  -17.4729 O   0  0  0  0  0  0  0  0  0  0  0  0
   18.2628  -14.6417  -14.0135 N   0  0  0  0  0  0  0  0  0  0  0  0
   18.4254  -14.9583  -15.3906 C   0  0  0  0  0  0  0  0  0  0  0  0
   17.8949  -16.0291  -15.7986 O   0  0  0  0  0  0  0  0  0  0  0  0
   19.1881  -14.0514  -16.2770 C   0  0  0  0  0  0  0  0  0  0  0  0
   19.6843  -12.8882  -15.4459 C   0  0  0  0  0  0  0  0  0  0  0  0
   21.1258  -12.5630  -15.7768 C   0  0  2  0  0  0  0  0  0  0  0  0
   22.0144  -13.6289  -15.3328 N   0  0  0  0  0  0  0  0  0  0  0  0
   21.5475  -11.2806  -15.2009 C   0  0  0  0  0  0  0  0  0  0  0  0
   22.0534  -11.2523  -14.0381 O   0  0  0  0  0  0  0  0  0  0  0  0
   23.5606   -8.5580  -17.1738 C   0  0  0  0  0  0  0  0  0  0  0  0
   22.3913   -7.9409  -16.4799 C   0  0  1  0  0  0  0  0  0  0  0  0
   21.2170   -7.6719  -17.3663 C   0  0  0  0  0  0  0  0  0  0  0  0
   21.9367   -8.7874  -15.2828 C   0  0  2  0  0  0  0  0  0  0  0  0
   21.4330  -10.0292  -15.8572 N   0  0  0  0  0  0  0  0  0  0  0  0
   20.8840   -8.0585  -14.5515 C   0  0  0  0  0  0  0  0  0  0  0  0
   19.7000   -8.4089  -14.7130 O   0  0  0  0  0  0  0  0  0  0  0  0
   21.1425   -7.0011  -13.6916 O   0  0  0  0  0  0  0  0  0  0  0  0
  2  1  1  0
  3  2  1  0
  3  5  1  0
  3  4  1  1
  5  6  1  6
  7  5  1  0
  7  8  2  0
 10  9  1  0
 10 12  1  0
 11 10  2  0
 13 12  1  0
 14 13  1  1
 15 14  1  0
 15  7  1  0
 16 14  1  0
 17 16  2  0
 19 18  1  6
 19 21  1  0
 20 19  1  0
 21 22  1  6
 21 23  1  0
 22 16  1  0
 23 25  1  0
 24 23  2  0
M  END
$$$$
