IQV.pdb
     RDKit          3D

 25 24  0  0  1  0  0  0  0  0999 V2000
   29.2394  -23.2090  -20.6976 C   0  0  0  0  0  0  0  0  0  0  0  0
   29.5148  -22.7041  -19.3098 C   0  0  0  0  0  0  0  0  0  0  0  0
   28.4002  -21.8027  -18.8696 C   0  0  2  0  0  0  0  0  0  0  0  0
   28.5964  -20.4731  -19.5532 C   0  0  0  0  0  0  0  0  0  0  0  0
   28.3232  -21.7250  -17.3961 C   0  0  2  0  0  0  0  0  0  0  0  0
   28.2576  -23.0187  -16.7579 N   0  0  0  0  0  0  0  0  0  0  0  0
   27.2626  -20.8646  -16.8720 C   0  0  0  0  0  0  0  0  0  0  0  0
   27.0300  -19.6954  -17.2911 O   0  0  0  0  0  0  0  0  0  0  0  0
   22.0311  -21.6996  -16.3151 N   0  0  0  0  0  0  0  0  0  0  0  0
   21.9423  -20.3375  -15.9150 C   0  0  0  0  0  0  0  0  0  0  0  0
   20.8103  -19.9240  -15.5379 O   0  0  0  0  0  0  0  0  0  0  0  0
   23.1422  -19.4721  -15.9513 C   0  0  0  0  0  0  0  0  0  0  0  0
   24.3049  -20.3003  -16.4534 C   0  0  0  0  0  0  0  0  0  0  0  0
   25.2936  -20.5756  -15.3399 C   0  0  2  0  0  0  0  0  0  0  0  0
   26.4306  -21.3425  -15.8319 N   0  0  0  0  0  0  0  0  0  0  0  0
   24.6687  -21.2687  -14.2071 C   0  0  0  0  0  0  0  0  0  0  0  0
   24.1654  -22.4203  -14.3778 O   0  0  0  0  0  0  0  0  0  0  0  0
   26.1681  -21.6415  -10.7395 C   0  0  0  0  0  0  0  0  0  0  0  0
   24.7642  -21.1658  -10.5595 C   0  0  1  0  0  0  0  0  0  0  0  0
   24.6426  -19.7205  -10.1942 C   0  0  0  0  0  0  0  0  0  0  0  0
   23.9117  -21.4452  -11.8050 C   0  0  2  0  0  0  0  0  0  0  0  0
   24.5774  -20.7411  -12.8944 N   0  0  0  0  0  0  0  0  0  0  0  0
   22.5477  -20.9332  -11.5778 C   0  0  0  0  0  0  0  0  0  0  0  0
   22.2328  -19.8413  -12.0871 O   0  0  0  0  0  0  0  0  0  0  0  0
   21.5946  -21.6041  -10.8257 O   0  0  0  0  0  0  0  0  0  0  0  0
  2  1  1  0
  3  2  1  0
  3  5  1  0
  3  4  1  6
  5  6  1  1
  7  5  1  0
  7  8  2  0
 10  9  1  0
 10 12  1  0
 11 10  2  0
 13 12  1  0
 14 13  1  6
 15 14  1  0
 15  7  1  0
 16 14  1  0
 17 16  2  0
 19 18  1  6
 19 21  1  0
 20 19  1  0
 21 22  1  6
 21 23  1  0
 22 16  1  0
 23 25  1  0
 24 23  2  0
M  END
$$$$
