IQV.pdb
     RDKit          3D

 25 24  0  0  1  0  0  0  0  0999 V2000
   13.9481  -14.8280  -11.5953 C   0  0  0  0  0  0  0  0  0  0  0  0
   14.0280  -13.8266  -10.4784 C   0  0  0  0  0  0  0  0  0  0  0  0
   14.5065  -12.5100  -11.0135 C   0  0  2  0  0  0  0  0  0  0  0  0
   15.8619  -12.7390  -11.6333 C   0  0  0  0  0  0  0  0  0  0  0  0
   14.4827  -11.4656   -9.9687 C   0  0  2  0  0  0  0  0  0  0  0  0
   13.2439  -11.4264   -9.2275 N   0  0  0  0  0  0  0  0  0  0  0  0
   14.8240  -10.1186  -10.4261 C   0  0  0  0  0  0  0  0  0  0  0  0
   14.1146   -9.4430  -11.2242 O   0  0  0  0  0  0  0  0  0  0  0  0
   15.9806   -4.9061   -8.0185 N   0  0  0  0  0  0  0  0  0  0  0  0
   14.7908   -5.4719   -8.5549 C   0  0  0  0  0  0  0  0  0  0  0  0
   13.7021   -4.9070   -8.2545 O   0  0  0  0  0  0  0  0  0  0  0  0
   14.8621   -6.6687   -9.4222 C   0  0  0  0  0  0  0  0  0  0  0  0
   16.3029   -7.1290   -9.4720 C   0  0  0  0  0  0  0  0  0  0  0  0
   16.4827   -8.2339  -10.4918 C   0  0  2  0  0  0  0  0  0  0  0  0
   16.0148   -9.5091   -9.9646 N   0  0  0  0  0  0  0  0  0  0  0  0
   17.8765   -8.3517  -10.9364 C   0  0  0  0  0  0  0  0  0  0  0  0
   18.7617   -8.7548  -10.1224 O   0  0  0  0  0  0  0  0  0  0  0  0
   21.0734   -8.7755  -14.6581 C   0  0  0  0  0  0  0  0  0  0  0  0
   19.7037   -8.7207  -14.0661 C   0  0  1  0  0  0  0  0  0  0  0  0
   18.9780  -10.0285  -14.0632 C   0  0  0  0  0  0  0  0  0  0  0  0
   19.7298   -8.1546  -12.6395 C   0  0  2  0  0  0  0  0  0  0  0  0
   18.3312   -8.0423  -12.2431 N   0  0  0  0  0  0  0  0  0  0  0  0
   20.3988   -6.8407  -12.6566 C   0  0  0  0  0  0  0  0  0  0  0  0
   19.7249   -5.8371  -12.9551 O   0  0  0  0  0  0  0  0  0  0  0  0
   21.7416   -6.6626  -12.3573 O   0  0  0  0  0  0  0  0  0  0  0  0
  2  1  1  0
  3  2  1  0
  3  5  1  0
  3  4  1  1
  5  6  1  6
  7  5  1  0
  7  8  2  0
 10  9  1  0
 10 12  1  0
 11 10  2  0
 13 12  1  0
 14 13  1  1
 15 14  1  0
 15  7  1  0
 16 14  1  0
 17 16  2  0
 19 18  1  1
 19 21  1  0
 20 19  1  0
 21 22  1  6
 21 23  1  0
 22 16  1  0
 23 25  1  0
 24 23  2  0
M  END
$$$$
