IQV.pdb
     RDKit          3D

 25 24  0  0  1  0  0  0  0  0999 V2000
   12.3865  -11.8484  -15.4505 C   0  0  0  0  0  0  0  0  0  0  0  0
   13.8844  -11.9264  -15.3685 C   0  0  0  0  0  0  0  0  0  0  0  0
   14.3712  -11.0997  -14.2160 C   0  0  2  0  0  0  0  0  0  0  0  0
   13.8590   -9.6959  -14.4176 C   0  0  0  0  0  0  0  0  0  0  0  0
   15.8379  -11.1978  -14.0669 C   0  0  2  0  0  0  0  0  0  0  0  0
   16.3186  -12.5589  -14.0241 N   0  0  0  0  0  0  0  0  0  0  0  0
   16.4026  -10.4423  -12.9487 C   0  0  0  0  0  0  0  0  0  0  0  0
   16.3143  -10.7987  -11.7396 O   0  0  0  0  0  0  0  0  0  0  0  0
   21.2296   -6.5083  -13.1913 N   0  0  0  0  0  0  0  0  0  0  0  0
   21.2116   -7.9232  -13.3360 C   0  0  0  0  0  0  0  0  0  0  0  0
   22.2620   -8.4671  -13.7782 O   0  0  0  0  0  0  0  0  0  0  0  0
   19.9999   -8.6922  -12.9752 C   0  0  0  0  0  0  0  0  0  0  0  0
   18.9113   -7.7086  -12.6041 C   0  0  0  0  0  0  0  0  0  0  0  0
   17.6670   -8.4316  -12.1326 C   0  0  2  0  0  0  0  0  0  0  0  0
   17.0947   -9.2350  -13.2050 N   0  0  0  0  0  0  0  0  0  0  0  0
   16.6595   -7.5055  -11.6021 C   0  0  0  0  0  0  0  0  0  0  0  0
   15.9326   -6.8441  -12.4040 O   0  0  0  0  0  0  0  0  0  0  0  0
   13.9418   -6.0143   -7.7436 C   0  0  0  0  0  0  0  0  0  0  0  0
   14.9537   -6.9037   -8.3876 C   0  0  1  0  0  0  0  0  0  0  0  0
   14.5045   -8.3179   -8.5754 C   0  0  0  0  0  0  0  0  0  0  0  0
   15.4214   -6.3393   -9.7363 C   0  0  2  0  0  0  0  0  0  0  0  0
   16.4228   -7.2808  -10.2225 N   0  0  0  0  0  0  0  0  0  0  0  0
   15.9933   -4.9970   -9.5226 C   0  0  0  0  0  0  0  0  0  0  0  0
   17.2079   -4.9054   -9.2639 O   0  0  0  0  0  0  0  0  0  0  0  0
   15.2491   -3.8286   -9.5945 O   0  0  0  0  0  0  0  0  0  0  0  0
  2  1  1  0
  3  2  1  0
  3  5  1  0
  3  4  1  6
  5  6  1  1
  7  5  1  0
  7  8  2  0
 10  9  1  0
 10 12  1  0
 11 10  2  0
 13 12  1  0
 14 13  1  6
 15 14  1  0
 15  7  1  0
 16 14  1  0
 17 16  2  0
 19 18  1  6
 19 21  1  0
 20 19  1  0
 21 22  1  1
 21 23  1  0
 22 16  1  0
 23 25  1  0
 24 23  2  0
M  END
$$$$
