EYH.pdb
     RDKit          3D

 32 33  0  0  1  0  0  0  0  0999 V2000
   18.9828  -10.4431  -18.5942 N   0  0  0  0  0  0  0  0  0  0  0  0
   20.1906  -10.1858  -17.8349 C   0  0  1  0  0  0  0  0  0  0  0  0
   21.2475   -9.7065  -18.8010 C   0  0  0  0  0  0  0  0  0  0  0  0
   20.5485   -9.3486  -20.0993 C   0  0  0  0  0  0  0  0  0  0  0  0
   21.4707   -8.8179  -21.1186 C   0  0  0  0  0  0  0  0  0  0  0  0
   22.0661   -9.6625  -21.8610 O   0  0  0  0  0  0  0  0  0  0  0  0
   19.8844   -9.1815  -16.7887 C   0  0  0  0  0  0  0  0  0  0  0  0
   18.8703   -8.4745  -16.8631 O   0  0  0  0  0  0  0  0  0  0  0  0
   21.7360   -7.4768  -21.3283 O   0  0  0  0  0  0  0  0  0  0  0  0
   19.6745   -4.9840   -9.0139 O   0  0  0  0  0  0  0  0  0  0  0  0
   20.0325   -5.8282  -10.0672 C   0  0  0  0  0  0  0  0  0  0  0  0
   19.3867   -7.0253  -10.3190 C   0  0  0  0  0  0  0  0  0  0  0  0
   19.7562   -7.8381  -11.3599 C   0  0  0  0  0  0  0  0  0  0  0  0
   20.7758   -7.4938  -12.1855 C   0  0  0  0  0  0  0  0  0  0  0  0
   21.2302   -8.3316  -13.3402 C   0  0  0  0  0  0  0  0  0  0  0  0
   20.4802   -8.0759  -14.6052 C   0  0  2  0  0  0  0  0  0  0  0  0
   20.7228   -8.9843  -15.6708 N   0  0  0  0  0  0  0  0  0  0  0  0
   20.8578   -6.7131  -15.0501 C   0  0  0  0  0  0  0  0  0  0  0  0
   21.9165   -6.5582  -15.7020 O   0  0  0  0  0  0  0  0  0  0  0  0
   21.4341   -6.3017  -11.9509 C   0  0  0  0  0  0  0  0  0  0  0  0
   21.0701   -5.4597  -10.8928 C   0  0  0  0  0  0  0  0  0  0  0  0
   20.0855   -5.5615  -14.7796 N   0  0  0  0  0  0  0  0  0  0  0  0
   20.4315   -4.2266  -15.2965 C   0  0  1  0  0  0  0  0  0  0  0  0
   20.1966   -4.1590  -16.7803 C   0  0  0  0  0  0  0  0  0  0  0  0
   20.5661   -2.8382  -17.2810 C   0  0  0  0  0  0  0  0  0  0  0  0
   21.7863   -2.1949  -17.1358 C   0  0  0  0  0  0  0  0  0  0  0  0
   21.7278   -0.9941  -17.7342 N   0  0  0  0  0  0  0  0  0  0  0  0
   20.4989   -0.8767  -18.2479 C   0  0  0  0  0  0  0  0  0  0  0  0
   19.7955   -1.9961  -17.9721 N   0  0  0  0  0  0  0  0  0  0  0  0
   19.6580   -3.2479  -14.5146 C   0  0  0  0  0  0  0  0  0  0  0  0
   18.7821   -3.6526  -13.5233 O   0  0  0  0  0  0  0  0  0  0  0  0
   19.7805   -2.0221  -14.7365 O   0  0  0  0  0  0  0  0  0  0  0  0
  2  1  1  6
  2  3  1  0
  4  3  1  0
  5  6  2  0
  5  4  1  0
  7  2  1  0
  8  7  2  0
  9  5  1  0
 10 11  1  0
 11 12  2  0
 12 13  1  0
 14 15  1  0
 14 13  2  0
 16 15  1  1
 16 17  1  0
 17  7  1  0
 18 16  1  0
 19 18  2  0
 20 14  1  0
 21 20  2  0
 21 11  1  0
 22 18  1  0
 23 22  1  0
 23 24  1  6
 24 25  1  0
 25 29  1  0
 26 25  2  0
 26 27  1  0
 27 28  1  0
 29 28  2  0
 30 31  1  0
 30 23  1  0
 32 30  2  0
M  END
$$$$
