EYH.pdb
     RDKit          3D

 32 33  0  0  1  0  0  0  0  0999 V2000
   29.1361   -7.0818  -22.6532 N   0  0  0  0  0  0  0  0  0  0  0  0
   29.6616   -8.3990  -22.3524 C   0  0  1  0  0  0  0  0  0  0  0  0
   30.3728   -8.9027  -23.5855 C   0  0  0  0  0  0  0  0  0  0  0  0
   29.3656   -9.6913  -24.4014 C   0  0  0  0  0  0  0  0  0  0  0  0
   29.2785  -11.1043  -23.9929 C   0  0  0  0  0  0  0  0  0  0  0  0
   30.1562  -11.5289  -23.1754 O   0  0  0  0  0  0  0  0  0  0  0  0
   30.5663   -8.2897  -21.1834 C   0  0  0  0  0  0  0  0  0  0  0  0
   31.4265   -7.4005  -21.1258 O   0  0  0  0  0  0  0  0  0  0  0  0
   28.3185  -11.9994  -24.4290 O   0  0  0  0  0  0  0  0  0  0  0  0
   27.5406   -4.0062  -18.3208 O   0  0  0  0  0  0  0  0  0  0  0  0
   28.2966   -5.1709  -18.1715 C   0  0  0  0  0  0  0  0  0  0  0  0
   27.7635   -6.4357  -18.3430 C   0  0  0  0  0  0  0  0  0  0  0  0
   28.5259   -7.5654  -18.1910 C   0  0  0  0  0  0  0  0  0  0  0  0
   29.8397   -7.4813  -17.8647 C   0  0  0  0  0  0  0  0  0  0  0  0
   30.7299   -8.6716  -17.6847 C   0  0  0  0  0  0  0  0  0  0  0  0
   31.3417   -9.1668  -18.9531 C   0  0  2  0  0  0  0  0  0  0  0  0
   30.4928   -9.1821  -20.0928 N   0  0  0  0  0  0  0  0  0  0  0  0
   31.8006  -10.5510  -18.6865 C   0  0  0  0  0  0  0  0  0  0  0  0
   30.9482  -11.4410  -18.4610 O   0  0  0  0  0  0  0  0  0  0  0  0
   30.3916   -6.2267  -17.6887 C   0  0  0  0  0  0  0  0  0  0  0  0
   29.6279   -5.0627  -17.8400 C   0  0  0  0  0  0  0  0  0  0  0  0
   33.1606  -10.9331  -18.6707 N   0  0  0  0  0  0  0  0  0  0  0  0
   33.6042  -12.3211  -18.8843 C   0  0  1  0  0  0  0  0  0  0  0  0
   32.9496  -12.9011  -20.1076 C   0  0  0  0  0  0  0  0  0  0  0  0
   33.4625  -14.2458  -20.3537 C   0  0  0  0  0  0  0  0  0  0  0  0
   34.1290  -15.0686  -19.4580 C   0  0  0  0  0  0  0  0  0  0  0  0
   34.4405  -16.2248  -20.0660 N   0  0  0  0  0  0  0  0  0  0  0  0
   33.9826  -16.1389  -21.3193 C   0  0  0  0  0  0  0  0  0  0  0  0
   33.3896  -14.9379  -21.4923 N   0  0  0  0  0  0  0  0  0  0  0  0
   35.0754  -12.3004  -18.9355 C   0  0  0  0  0  0  0  0  0  0  0  0
   35.7582  -11.2522  -19.5260 O   0  0  0  0  0  0  0  0  0  0  0  0
   35.7389  -13.2401  -18.4418 O   0  0  0  0  0  0  0  0  0  0  0  0
  2  1  1  6
  2  3  1  0
  4  3  1  0
  5  6  2  0
  5  4  1  0
  7  2  1  0
  8  7  2  0
  9  5  1  0
 10 11  1  0
 11 12  2  0
 12 13  1  0
 14 15  1  0
 14 13  2  0
 16 15  1  1
 16 17  1  0
 17  7  1  0
 18 16  1  0
 19 18  2  0
 20 14  1  0
 21 20  2  0
 21 11  1  0
 22 18  1  0
 23 22  1  0
 23 24  1  6
 24 25  1  0
 25 29  1  0
 26 25  2  0
 26 27  1  0
 27 28  1  0
 29 28  2  0
 30 31  1  0
 30 23  1  0
 32 30  2  0
M  END
$$$$
