EYH.pdb
     RDKit          3D

 32 33  0  0  1  0  0  0  0  0999 V2000
   19.7380  -28.8151   -9.9411 N   0  0  0  0  0  0  0  0  0  0  0  0
   19.9821  -27.3908   -9.8239 C   0  0  1  0  0  0  0  0  0  0  0  0
   20.4633  -26.8949  -11.1666 C   0  0  0  0  0  0  0  0  0  0  0  0
   19.4836  -27.3922  -12.2130 C   0  0  0  0  0  0  0  0  0  0  0  0
   19.2658  -26.4219  -13.3003 C   0  0  0  0  0  0  0  0  0  0  0  0
   19.7669  -25.2616  -13.1539 O   0  0  0  0  0  0  0  0  0  0  0  0
   18.7259  -26.7312   -9.3952 C   0  0  0  0  0  0  0  0  0  0  0  0
   17.6245  -27.2463   -9.6310 O   0  0  0  0  0  0  0  0  0  0  0  0
   18.5612  -26.6768  -14.4629 O   0  0  0  0  0  0  0  0  0  0  0  0
   17.2665  -27.4115   -2.3605 O   0  0  0  0  0  0  0  0  0  0  0  0
   17.3447  -26.5849   -3.4834 C   0  0  0  0  0  0  0  0  0  0  0  0
   16.2721  -25.8408   -3.9406 C   0  0  0  0  0  0  0  0  0  0  0  0
   16.3729  -25.0357   -5.0463 C   0  0  0  0  0  0  0  0  0  0  0  0
   17.5372  -24.9401   -5.7354 C   0  0  0  0  0  0  0  0  0  0  0  0
   17.7178  -24.0808   -6.9480 C   0  0  0  0  0  0  0  0  0  0  0  0
   17.5685  -24.8162   -8.2384 C   0  0  2  0  0  0  0  0  0  0  0  0
   18.7233  -25.4998   -8.7061 N   0  0  0  0  0  0  0  0  0  0  0  0
   17.1710  -23.8105   -9.2524 C   0  0  0  0  0  0  0  0  0  0  0  0
   18.0635  -23.1827   -9.8681 O   0  0  0  0  0  0  0  0  0  0  0  0
   18.6209  -25.6757   -5.2949 C   0  0  0  0  0  0  0  0  0  0  0  0
   18.5358  -26.5027   -4.1681 C   0  0  0  0  0  0  0  0  0  0  0  0
   15.8274  -23.5122   -9.5711 N   0  0  0  0  0  0  0  0  0  0  0  0
   15.4467  -22.6366  -10.6924 C   0  0  1  0  0  0  0  0  0  0  0  0
   14.7404  -23.4253  -11.7605 C   0  0  0  0  0  0  0  0  0  0  0  0
   15.6852  -23.7939  -12.8109 C   0  0  0  0  0  0  0  0  0  0  0  0
   17.0302  -23.4638  -12.8858 C   0  0  0  0  0  0  0  0  0  0  0  0
   17.5531  -23.9880  -14.0063 N   0  0  0  0  0  0  0  0  0  0  0  0
   16.5633  -24.6363  -14.6291 C   0  0  0  0  0  0  0  0  0  0  0  0
   15.4310  -24.5176  -13.9027 N   0  0  0  0  0  0  0  0  0  0  0  0
   14.6521  -21.5335  -10.1273 C   0  0  0  0  0  0  0  0  0  0  0  0
   14.0965  -21.6233   -8.8636 O   0  0  0  0  0  0  0  0  0  0  0  0
   14.4635  -20.4868  -10.7874 O   0  0  0  0  0  0  0  0  0  0  0  0
  2  1  1  6
  2  3  1  0
  4  3  1  0
  5  6  2  0
  5  4  1  0
  7  2  1  0
  8  7  2  0
  9  5  1  0
 10 11  1  0
 11 12  2  0
 12 13  1  0
 14 15  1  0
 14 13  2  0
 16 15  1  1
 16 17  1  0
 17  7  1  0
 18 16  1  0
 19 18  2  0
 20 14  1  0
 21 20  2  0
 21 11  1  0
 22 18  1  0
 23 22  1  0
 23 24  1  6
 24 25  1  0
 25 29  1  0
 26 25  2  0
 26 27  1  0
 27 28  1  0
 29 28  2  0
 30 31  1  0
 30 23  1  0
 32 30  2  0
M  END
$$$$
