EYH.pdb
     RDKit          3D

 32 33  0  0  1  0  0  0  0  0999 V2000
   32.1231  -34.8137   -7.0986 N   0  0  0  0  0  0  0  0  0  0  0  0
   31.7606  -35.6138   -5.9453 C   0  0  1  0  0  0  0  0  0  0  0  0
   33.0288  -35.9333   -5.1906 C   0  0  0  0  0  0  0  0  0  0  0  0
   33.5810  -37.2283   -5.7565 C   0  0  0  0  0  0  0  0  0  0  0  0
   32.9908  -38.4244   -5.1303 C   0  0  0  0  0  0  0  0  0  0  0  0
   32.7507  -39.4189   -5.8868 O   0  0  0  0  0  0  0  0  0  0  0  0
   30.7930  -34.8470   -5.1251 C   0  0  0  0  0  0  0  0  0  0  0  0
   30.7815  -33.6087   -5.1470 O   0  0  0  0  0  0  0  0  0  0  0  0
   32.6801  -38.5468   -3.7881 O   0  0  0  0  0  0  0  0  0  0  0  0
   26.3601  -31.9146   -8.7597 O   0  0  0  0  0  0  0  0  0  0  0  0
   26.6086  -32.6509   -7.5992 C   0  0  0  0  0  0  0  0  0  0  0  0
   26.2506  -32.2052   -6.3397 C   0  0  0  0  0  0  0  0  0  0  0  0
   26.5051  -32.9461   -5.2141 C   0  0  0  0  0  0  0  0  0  0  0  0
   27.1215  -34.1514   -5.2973 C   0  0  0  0  0  0  0  0  0  0  0  0
   27.4283  -35.0124   -4.1114 C   0  0  0  0  0  0  0  0  0  0  0  0
   28.8089  -34.8315   -3.5734 C   0  0  2  0  0  0  0  0  0  0  0  0
   29.8496  -35.4821   -4.2897 N   0  0  0  0  0  0  0  0  0  0  0  0
   28.7915  -35.3533   -2.1860 C   0  0  0  0  0  0  0  0  0  0  0  0
   28.8920  -36.5882   -1.9999 O   0  0  0  0  0  0  0  0  0  0  0  0
   27.4874  -34.6148   -6.5467 C   0  0  0  0  0  0  0  0  0  0  0  0
   27.2353  -33.8715   -7.7064 C   0  0  0  0  0  0  0  0  0  0  0  0
   28.6664  -34.5309   -1.0441 N   0  0  0  0  0  0  0  0  0  0  0  0
   28.5561  -35.0701    0.3219 C   0  0  1  0  0  0  0  0  0  0  0  0
   28.5984  -33.9574    1.3326 C   0  0  0  0  0  0  0  0  0  0  0  0
   28.5566  -34.5121    2.6825 C   0  0  0  0  0  0  0  0  0  0  0  0
   29.3221  -35.5522    3.1884 C   0  0  0  0  0  0  0  0  0  0  0  0
   28.9849  -35.7676    4.4703 N   0  0  0  0  0  0  0  0  0  0  0  0
   28.0271  -34.8847    4.7724 C   0  0  0  0  0  0  0  0  0  0  0  0
   27.7685  -34.1240    3.6870 N   0  0  0  0  0  0  0  0  0  0  0  0
   27.3299  -35.8838    0.3663 C   0  0  0  0  0  0  0  0  0  0  0  0
   27.1492  -36.8571    1.3325 O   0  0  0  0  0  0  0  0  0  0  0  0
   26.4226  -35.7073   -0.4779 O   0  0  0  0  0  0  0  0  0  0  0  0
  2  1  1  6
  2  3  1  0
  4  3  1  0
  5  6  2  0
  5  4  1  0
  7  2  1  0
  8  7  2  0
  9  5  1  0
 10 11  1  0
 11 12  2  0
 12 13  1  0
 14 15  1  0
 14 13  2  0
 16 15  1  6
 16 17  1  0
 17  7  1  0
 18 16  1  0
 19 18  2  0
 20 14  1  0
 21 20  2  0
 21 11  1  0
 22 18  1  0
 23 22  1  0
 23 24  1  1
 24 25  1  0
 25 29  1  0
 26 25  2  0
 26 27  1  0
 27 28  1  0
 29 28  2  0
 30 31  1  0
 30 23  1  0
 32 30  2  0
M  END
$$$$
