EYH.pdb
     RDKit          3D

 32 33  0  0  1  0  0  0  0  0999 V2000
   27.5526  -20.5543  -16.6099 N   0  0  0  0  0  0  0  0  0  0  0  0
   26.1342  -20.3321  -16.8110 C   0  0  1  0  0  0  0  0  0  0  0  0
   25.7430  -21.0029  -18.1061 C   0  0  0  0  0  0  0  0  0  0  0  0
   26.2870  -20.1545  -19.2403 C   0  0  0  0  0  0  0  0  0  0  0  0
   25.6311  -18.8387  -19.3365 C   0  0  0  0  0  0  0  0  0  0  0  0
   26.2292  -17.8498  -18.8041 O   0  0  0  0  0  0  0  0  0  0  0  0
   25.4013  -20.8822  -15.6460 C   0  0  0  0  0  0  0  0  0  0  0  0
   24.9657  -22.0415  -15.6583 O   0  0  0  0  0  0  0  0  0  0  0  0
   24.4198  -18.5987  -19.9597 O   0  0  0  0  0  0  0  0  0  0  0  0
   30.5004  -21.6325  -11.1513 O   0  0  0  0  0  0  0  0  0  0  0  0
   29.1631  -21.2759  -11.3384 C   0  0  0  0  0  0  0  0  0  0  0  0
   28.1293  -21.8453  -10.6171 C   0  0  0  0  0  0  0  0  0  0  0  0
   26.8232  -21.4789  -10.8184 C   0  0  0  0  0  0  0  0  0  0  0  0
   26.4970  -20.5377  -11.7391 C   0  0  0  0  0  0  0  0  0  0  0  0
   25.0943  -20.0894  -12.0091 C   0  0  0  0  0  0  0  0  0  0  0  0
   24.5356  -20.5934  -13.2983 C   0  0  2  0  0  0  0  0  0  0  0  0
   25.1670  -20.1216  -14.4808 N   0  0  0  0  0  0  0  0  0  0  0  0
   23.1107  -20.1852  -13.3276 C   0  0  0  0  0  0  0  0  0  0  0  0
   22.8276  -18.9650  -13.3044 O   0  0  0  0  0  0  0  0  0  0  0  0
   27.5154  -19.9566  -12.4704 C   0  0  0  0  0  0  0  0  0  0  0  0
   28.8543  -20.3188  -12.2779 C   0  0  0  0  0  0  0  0  0  0  0  0
   22.0370  -21.1018  -13.3806 N   0  0  0  0  0  0  0  0  0  0  0  0
   20.6270  -20.6800  -13.4340 C   0  0  1  0  0  0  0  0  0  0  0  0
   19.9664  -21.2060  -14.6783 C   0  0  0  0  0  0  0  0  0  0  0  0
   20.5469  -20.5668  -15.8557 C   0  0  0  0  0  0  0  0  0  0  0  0
   21.3343  -21.1590  -16.8319 C   0  0  0  0  0  0  0  0  0  0  0  0
   21.6737  -20.2365  -17.7470 N   0  0  0  0  0  0  0  0  0  0  0  0
   21.1149  -19.0846  -17.3614 C   0  0  0  0  0  0  0  0  0  0  0  0
   20.4317  -19.2866  -16.2141 N   0  0  0  0  0  0  0  0  0  0  0  0
   19.9969  -21.1226  -12.1791 C   0  0  0  0  0  0  0  0  0  0  0  0
   20.4082  -22.2773  -11.5380 O   0  0  0  0  0  0  0  0  0  0  0  0
   19.0693  -20.4558  -11.6674 O   0  0  0  0  0  0  0  0  0  0  0  0
  2  1  1  1
  2  3  1  0
  4  3  1  0
  5  6  2  0
  5  4  1  0
  7  2  1  0
  8  7  2  0
  9  5  1  0
 10 11  1  0
 11 12  2  0
 12 13  1  0
 14 15  1  0
 14 13  2  0
 16 15  1  1
 16 17  1  0
 17  7  1  0
 18 16  1  0
 19 18  2  0
 20 14  1  0
 21 20  2  0
 21 11  1  0
 22 18  1  0
 23 22  1  0
 23 24  1  6
 24 25  1  0
 25 29  1  0
 26 25  2  0
 26 27  1  0
 27 28  1  0
 29 28  2  0
 30 31  1  0
 30 23  1  0
 32 30  2  0
M  END
$$$$
