EYH.pdb
     RDKit          3D

 32 33  0  0  1  0  0  0  0  0999 V2000
   20.5011  -12.7332  -20.1746 N   0  0  0  0  0  0  0  0  0  0  0  0
   21.1592  -11.4929  -19.8136 C   0  0  1  0  0  0  0  0  0  0  0  0
   21.3536  -10.6907  -21.0780 C   0  0  0  0  0  0  0  0  0  0  0  0
   22.1083  -11.5662  -22.0608 C   0  0  0  0  0  0  0  0  0  0  0  0
   22.4224  -10.8721  -23.3219 C   0  0  0  0  0  0  0  0  0  0  0  0
   23.4096  -10.0694  -23.3142 O   0  0  0  0  0  0  0  0  0  0  0  0
   20.3180  -10.7853  -18.8192 C   0  0  0  0  0  0  0  0  0  0  0  0
   19.0836  -10.7795  -18.9196 O   0  0  0  0  0  0  0  0  0  0  0  0
   21.7281  -11.0271  -24.5081 O   0  0  0  0  0  0  0  0  0  0  0  0
   16.5349  -14.5506  -15.2875 O   0  0  0  0  0  0  0  0  0  0  0  0
   17.4233  -13.4737  -15.3249 C   0  0  0  0  0  0  0  0  0  0  0  0
   18.7288  -13.5960  -15.7655 C   0  0  0  0  0  0  0  0  0  0  0  0
   19.5831  -12.5236  -15.7932 C   0  0  0  0  0  0  0  0  0  0  0  0
   19.1745  -11.2959  -15.3864 C   0  0  0  0  0  0  0  0  0  0  0  0
   20.0525  -10.0831  -15.3916 C   0  0  0  0  0  0  0  0  0  0  0  0
   20.1411   -9.4060  -16.7190 C   0  0  2  0  0  0  0  0  0  0  0  0
   20.8754  -10.0924  -17.7236 N   0  0  0  0  0  0  0  0  0  0  0  0
   20.7828   -8.0914  -16.4788 C   0  0  0  0  0  0  0  0  0  0  0  0
   22.0328   -8.0114  -16.5059 O   0  0  0  0  0  0  0  0  0  0  0  0
   17.8738  -11.1525  -14.9426 C   0  0  0  0  0  0  0  0  0  0  0  0
   16.9880  -12.2366  -14.9076 C   0  0  0  0  0  0  0  0  0  0  0  0
   20.0601   -6.9061  -16.2170 N   0  0  0  0  0  0  0  0  0  0  0  0
   20.7132   -5.6130  -15.9520 C   0  0  1  0  0  0  0  0  0  0  0  0
   20.9710   -4.8793  -17.2392 C   0  0  0  0  0  0  0  0  0  0  0  0
   21.5212   -3.5572  -16.9544 C   0  0  0  0  0  0  0  0  0  0  0  0
   22.8556   -3.1795  -16.9740 C   0  0  0  0  0  0  0  0  0  0  0  0
   22.9527   -1.8794  -16.6522 N   0  0  0  0  0  0  0  0  0  0  0  0
   21.7088   -1.4406  -16.4331 C   0  0  0  0  0  0  0  0  0  0  0  0
   20.8416   -2.4595  -16.6169 N   0  0  0  0  0  0  0  0  0  0  0  0
   19.8579   -4.8854  -14.9997 C   0  0  0  0  0  0  0  0  0  0  0  0
   20.3116   -3.7524  -14.3485 O   0  0  0  0  0  0  0  0  0  0  0  0
   18.6957   -5.2842  -14.7607 O   0  0  0  0  0  0  0  0  0  0  0  0
  2  1  1  6
  2  3  1  0
  4  3  1  0
  5  6  2  0
  5  4  1  0
  7  2  1  0
  8  7  2  0
  9  5  1  0
 10 11  1  0
 11 12  2  0
 12 13  1  0
 14 15  1  0
 14 13  2  0
 16 15  1  1
 16 17  1  0
 17  7  1  0
 18 16  1  0
 19 18  2  0
 20 14  1  0
 21 20  2  0
 21 11  1  0
 22 18  1  0
 23 22  1  0
 23 24  1  6
 24 25  1  0
 25 29  1  0
 26 25  2  0
 26 27  1  0
 27 28  1  0
 29 28  2  0
 30 31  1  0
 30 23  1  0
 32 30  2  0
M  END
$$$$
