EYH.pdb
     RDKit          3D

 32 33  0  0  1  0  0  0  0  0999 V2000
   12.0518  -15.2485    4.8276 N   0  0  0  0  0  0  0  0  0  0  0  0
   13.0628  -15.0496    5.8475 C   0  0  1  0  0  0  0  0  0  0  0  0
   12.3922  -15.1907    7.1931 C   0  0  0  0  0  0  0  0  0  0  0  0
   11.8065  -16.5885    7.2652 C   0  0  0  0  0  0  0  0  0  0  0  0
   11.7448  -17.1131    8.6406 C   0  0  0  0  0  0  0  0  0  0  0  0
   11.7012  -16.2630    9.5864 O   0  0  0  0  0  0  0  0  0  0  0  0
   14.1392  -16.0483    5.6452 C   0  0  0  0  0  0  0  0  0  0  0  0
   13.9557  -17.0460    4.9347 O   0  0  0  0  0  0  0  0  0  0  0  0
   11.7303  -18.4541    8.9793 O   0  0  0  0  0  0  0  0  0  0  0  0
   18.2550  -14.1926    0.4038 O   0  0  0  0  0  0  0  0  0  0  0  0
   18.1489  -14.7026    1.6996 C   0  0  0  0  0  0  0  0  0  0  0  0
   18.1565  -16.0586    1.9726 C   0  0  0  0  0  0  0  0  0  0  0  0
   18.0510  -16.5361    3.2539 C   0  0  0  0  0  0  0  0  0  0  0  0
   17.9347  -15.6886    4.3065 C   0  0  0  0  0  0  0  0  0  0  0  0
   17.8174  -16.1404    5.7290 C   0  0  0  0  0  0  0  0  0  0  0  0
   16.5121  -16.7886    6.0522 C   0  0  2  0  0  0  0  0  0  0  0  0
   15.4095  -15.9129    6.2445 N   0  0  0  0  0  0  0  0  0  0  0  0
   16.7241  -17.5631    7.2984 C   0  0  0  0  0  0  0  0  0  0  0  0
   16.5836  -16.9881    8.4026 O   0  0  0  0  0  0  0  0  0  0  0  0
   17.9251  -14.3298    4.0550 C   0  0  0  0  0  0  0  0  0  0  0  0
   18.0317  -13.8249    2.7532 C   0  0  0  0  0  0  0  0  0  0  0  0
   17.0804  -18.9300    7.3168 N   0  0  0  0  0  0  0  0  0  0  0  0
   17.2168  -19.7044    8.5621 C   0  0  1  0  0  0  0  0  0  0  0  0
   15.8669  -19.9630    9.1723 C   0  0  0  0  0  0  0  0  0  0  0  0
   16.0164  -20.7593   10.3870 C   0  0  0  0  0  0  0  0  0  0  0  0
   16.5005  -20.3359   11.6159 C   0  0  0  0  0  0  0  0  0  0  0  0
   16.4844  -21.3661   12.4771 N   0  0  0  0  0  0  0  0  0  0  0  0
   16.0011  -22.4201   11.8111 C   0  0  0  0  0  0  0  0  0  0  0  0
   15.7178  -22.0504   10.5435 N   0  0  0  0  0  0  0  0  0  0  0  0
   17.9765  -20.9215    8.2317 C   0  0  0  0  0  0  0  0  0  0  0  0
   18.6379  -21.6423    9.2098 O   0  0  0  0  0  0  0  0  0  0  0  0
   18.0379  -21.3274    7.0491 O   0  0  0  0  0  0  0  0  0  0  0  0
  2  1  1  6
  2  3  1  0
  4  3  1  0
  5  6  2  0
  5  4  1  0
  7  2  1  0
  8  7  2  0
  9  5  1  0
 10 11  1  0
 11 12  2  0
 12 13  1  0
 14 15  1  0
 14 13  2  0
 16 15  1  1
 16 17  1  0
 17  7  1  0
 18 16  1  0
 19 18  2  0
 20 14  1  0
 21 20  2  0
 21 11  1  0
 22 18  1  0
 23 22  1  0
 23 24  1  6
 24 25  1  0
 25 29  1  0
 26 25  2  0
 26 27  1  0
 27 28  1  0
 29 28  2  0
 30 31  1  0
 30 23  1  0
 32 30  2  0
M  END
$$$$
