EYH.pdb
     RDKit          3D

 32 33  0  0  1  0  0  0  0  0999 V2000
   29.7490  -21.7894  -18.3458 N   0  0  0  0  0  0  0  0  0  0  0  0
   28.8159  -20.7492  -17.9597 C   0  0  1  0  0  0  0  0  0  0  0  0
   27.8022  -20.6060  -19.0697 C   0  0  0  0  0  0  0  0  0  0  0  0
   28.5505  -20.1708  -20.3158 C   0  0  0  0  0  0  0  0  0  0  0  0
   28.1583  -20.9326  -21.5145 C   0  0  0  0  0  0  0  0  0  0  0  0
   26.9200  -20.9626  -21.8056 O   0  0  0  0  0  0  0  0  0  0  0  0
   28.1920  -21.1307  -16.6705 C   0  0  0  0  0  0  0  0  0  0  0  0
   28.0232  -22.3211  -16.3733 O   0  0  0  0  0  0  0  0  0  0  0  0
   29.0311  -21.6139  -22.3433 O   0  0  0  0  0  0  0  0  0  0  0  0
   25.3730  -20.8514   -8.3019 O   0  0  0  0  0  0  0  0  0  0  0  0
   25.8130  -20.4706   -9.5715 C   0  0  0  0  0  0  0  0  0  0  0  0
   25.0108  -19.7870  -10.4673 C   0  0  0  0  0  0  0  0  0  0  0  0
   25.4652  -19.4235  -11.7091 C   0  0  0  0  0  0  0  0  0  0  0  0
   26.7271  -19.7239  -12.1054 C   0  0  0  0  0  0  0  0  0  0  0  0
   27.2881  -19.3567  -13.4440 C   0  0  0  0  0  0  0  0  0  0  0  0
   27.2018  -20.4500  -14.4567 C   0  0  2  0  0  0  0  0  0  0  0  0
   27.7651  -20.1685  -15.7307 N   0  0  0  0  0  0  0  0  0  0  0  0
   25.7603  -20.7482  -14.6322 C   0  0  0  0  0  0  0  0  0  0  0  0
   25.0727  -20.0085  -15.3736 O   0  0  0  0  0  0  0  0  0  0  0  0
   27.5447  -20.4067  -11.2250 C   0  0  0  0  0  0  0  0  0  0  0  0
   27.0972  -20.7856   -9.9534 C   0  0  0  0  0  0  0  0  0  0  0  0
   25.1052  -21.8313  -14.0049 N   0  0  0  0  0  0  0  0  0  0  0  0
   23.6769  -22.1279  -14.2072 C   0  0  1  0  0  0  0  0  0  0  0  0
   23.3797  -23.5578  -13.8485 C   0  0  0  0  0  0  0  0  0  0  0  0
   23.8642  -24.4442  -14.9027 C   0  0  0  0  0  0  0  0  0  0  0  0
   24.4380  -24.0784  -16.1113 C   0  0  0  0  0  0  0  0  0  0  0  0
   24.7472  -25.1844  -16.8075 N   0  0  0  0  0  0  0  0  0  0  0  0
   24.3786  -26.2291  -16.0587 C   0  0  0  0  0  0  0  0  0  0  0  0
   23.8432  -25.7784  -14.9037 N   0  0  0  0  0  0  0  0  0  0  0  0
   22.9163  -21.1364  -13.4286 C   0  0  0  0  0  0  0  0  0  0  0  0
   23.5032  -20.4363  -12.3900 O   0  0  0  0  0  0  0  0  0  0  0  0
   21.7146  -20.9092  -13.6956 O   0  0  0  0  0  0  0  0  0  0  0  0
  2  1  1  6
  2  3  1  0
  4  3  1  0
  5  6  2  0
  5  4  1  0
  7  2  1  0
  8  7  2  0
  9  5  1  0
 10 11  1  0
 11 12  2  0
 12 13  1  0
 14 15  1  0
 14 13  2  0
 16 15  1  1
 16 17  1  0
 17  7  1  0
 18 16  1  0
 19 18  2  0
 20 14  1  0
 21 20  2  0
 21 11  1  0
 22 18  1  0
 23 22  1  0
 23 24  1  1
 24 25  1  0
 25 29  1  0
 26 25  2  0
 26 27  1  0
 27 28  1  0
 29 28  2  0
 30 31  1  0
 30 23  1  0
 32 30  2  0
M  END
$$$$
