GTM.pdb
     RDKit          3D

 20 19  0  0  1  0  0  0  0  0999 V2000
   26.4375  -23.3993  -17.8498 N   0  0  0  0  0  0  0  0  0  0  0  0
   25.6010  -22.7138  -16.8958 C   0  0  0  0  0  0  0  0  0  0  0  0
   26.4460  -22.1839  -15.7967 C   0  0  0  0  0  0  0  0  0  0  0  0
   27.5996  -22.6609  -15.5874 O   0  0  0  0  0  0  0  0  0  0  0  0
   27.4546  -18.7199  -15.2233 C   0  0  0  0  0  0  0  0  0  0  0  0
   26.6704  -19.1036  -13.9660 C   0  0  1  0  0  0  0  0  0  0  0  0
   25.3569  -18.6576  -14.1981 O   0  0  0  0  0  0  0  0  0  0  0  0
   26.7255  -20.6031  -13.8716 C   0  0  2  0  0  0  0  0  0  0  0  0
   25.9681  -21.1474  -14.9811 N   0  0  0  0  0  0  0  0  0  0  0  0
   26.1750  -21.1150  -12.5876 C   0  0  0  0  0  0  0  0  0  0  0  0
   25.1700  -21.8653  -12.6080 O   0  0  0  0  0  0  0  0  0  0  0  0
   27.4603  -18.4520   -6.6346 C   0  0  0  0  0  0  0  0  0  0  0  0
   26.6788  -20.0293   -6.2197 S   0  0  0  0  0  0  0  0  0  0  0  0
   25.8780  -20.7678   -7.6844 C   0  0  0  0  0  0  0  0  0  0  0  0
   26.6523  -20.4920   -8.9280 C   0  0  0  0  0  0  0  0  0  0  0  0
   25.9873  -21.0834  -10.1230 C   0  0  2  0  0  0  0  0  0  0  0  0
   26.7472  -20.7835  -11.3452 N   0  0  0  0  0  0  0  0  0  0  0  0
   24.6273  -20.6050  -10.3583 C   0  0  0  0  0  0  0  0  0  0  0  0
   24.4079  -19.6372  -11.1141 O   0  0  0  0  0  0  0  0  0  0  0  0
   23.5130  -21.1875   -9.7658 O   0  0  0  0  0  0  0  0  0  0  0  0
  2  1  1  0
  3  2  1  0
  4  3  2  0
  6  5  1  6
  6  7  1  0
  6  8  1  0
  8  9  1  6
  9  3  1  0
 10  8  1  0
 10 17  1  0
 11 10  2  0
 13 12  1  0
 14 15  1  0
 14 13  1  0
 16 18  1  0
 16 17  1  0
 16 15  1  1
 18 20  1  0
 19 18  2  0
M  END
$$$$
