GTM.pdb
     RDKit          3D

 20 19  0  0  1  0  0  0  0  0999 V2000
   16.9248  -13.4984  -15.5732 N   0  0  0  0  0  0  0  0  0  0  0  0
   17.1041  -12.2485  -14.8765 C   0  0  0  0  0  0  0  0  0  0  0  0
   17.9255  -11.3369  -15.7115 C   0  0  0  0  0  0  0  0  0  0  0  0
   18.5167  -11.7704  -16.7433 O   0  0  0  0  0  0  0  0  0  0  0  0
   16.7534   -8.3543  -17.2245 C   0  0  0  0  0  0  0  0  0  0  0  0
   17.9426   -7.8423  -16.4079 C   0  0  1  0  0  0  0  0  0  0  0  0
   17.3864   -7.3425  -15.2167 O   0  0  0  0  0  0  0  0  0  0  0  0
   18.8187   -9.0343  -16.1394 C   0  0  2  0  0  0  0  0  0  0  0  0
   18.0509   -9.9847  -15.3596 N   0  0  0  0  0  0  0  0  0  0  0  0
   20.0642   -8.6745  -15.4093 C   0  0  0  0  0  0  0  0  0  0  0  0
   20.0614   -8.6772  -14.1551 O   0  0  0  0  0  0  0  0  0  0  0  0
   25.7173  -11.4497  -15.6386 C   0  0  0  0  0  0  0  0  0  0  0  0
   26.2210   -9.7129  -15.6193 S   0  0  0  0  0  0  0  0  0  0  0  0
   24.8559   -8.6422  -15.0516 C   0  0  0  0  0  0  0  0  0  0  0  0
   23.6124   -8.8783  -15.8388 C   0  0  0  0  0  0  0  0  0  0  0  0
   22.4660   -8.1028  -15.2871 C   0  0  2  0  0  0  0  0  0  0  0  0
   21.2510   -8.3297  -16.0829 N   0  0  0  0  0  0  0  0  0  0  0  0
   22.6716   -6.6569  -15.2563 C   0  0  0  0  0  0  0  0  0  0  0  0
   22.2710   -5.9305  -16.1879 O   0  0  0  0  0  0  0  0  0  0  0  0
   23.3147   -6.0117  -14.2064 O   0  0  0  0  0  0  0  0  0  0  0  0
  2  1  1  0
  3  2  1  0
  4  3  2  0
  6  5  1  6
  6  7  1  0
  6  8  1  0
  8  9  1  1
  9  3  1  0
 10  8  1  0
 10 17  1  0
 11 10  2  0
 13 12  1  0
 14 15  1  0
 14 13  1  0
 16 18  1  0
 16 17  1  0
 16 15  1  6
 18 20  1  0
 19 18  2  0
M  END
$$$$
