GTM.pdb
     RDKit          3D

 20 19  0  0  1  0  0  0  0  0999 V2000
   28.6255  -23.2608  -16.3007 N   0  0  0  0  0  0  0  0  0  0  0  0
   27.3078  -22.8233  -15.9107 C   0  0  0  0  0  0  0  0  0  0  0  0
   27.4292  -21.7916  -14.8505 C   0  0  0  0  0  0  0  0  0  0  0  0
   28.4393  -21.0300  -14.8093 O   0  0  0  0  0  0  0  0  0  0  0  0
   25.4975  -19.1837  -14.7129 C   0  0  0  0  0  0  0  0  0  0  0  0
   25.2377  -19.6699  -13.2848 C   0  0  1  0  0  0  0  0  0  0  0  0
   24.0320  -20.3907  -13.3524 O   0  0  0  0  0  0  0  0  0  0  0  0
   26.3880  -20.5690  -12.9259 C   0  0  2  0  0  0  0  0  0  0  0  0
   26.4206  -21.6551  -13.8851 N   0  0  0  0  0  0  0  0  0  0  0  0
   26.2749  -21.1183  -11.5478 C   0  0  0  0  0  0  0  0  0  0  0  0
   25.9266  -22.3131  -11.3915 O   0  0  0  0  0  0  0  0  0  0  0  0
   27.6768  -18.2109   -5.4169 C   0  0  0  0  0  0  0  0  0  0  0  0
   28.0947  -19.9693   -5.4833 S   0  0  0  0  0  0  0  0  0  0  0  0
   27.0702  -20.8389   -6.7186 C   0  0  0  0  0  0  0  0  0  0  0  0
   27.3025  -20.3085   -8.0922 C   0  0  0  0  0  0  0  0  0  0  0  0
   26.4009  -20.9592   -9.0842 C   0  0  2  0  0  0  0  0  0  0  0  0
   26.5470  -20.3379  -10.4086 N   0  0  0  0  0  0  0  0  0  0  0  0
   24.9804  -20.8855   -8.7515 C   0  0  0  0  0  0  0  0  0  0  0  0
   24.2339  -20.0506   -9.3006 O   0  0  0  0  0  0  0  0  0  0  0  0
   24.3827  -21.7257   -7.8194 O   0  0  0  0  0  0  0  0  0  0  0  0
  2  1  1  0
  3  2  1  0
  4  3  2  0
  6  5  1  6
  6  7  1  0
  6  8  1  0
  8  9  1  6
  9  3  1  0
 10  8  1  0
 10 17  1  0
 11 10  2  0
 13 12  1  0
 14 15  1  0
 14 13  1  0
 16 18  1  0
 16 17  1  0
 16 15  1  1
 18 20  1  0
 19 18  2  0
M  END
$$$$
