GTM.pdb
     RDKit          3D

 20 19  0  0  1  0  0  0  0  0999 V2000
   18.8418  -14.1399  -20.0274 N   0  0  0  0  0  0  0  0  0  0  0  0
   18.1214  -12.8954  -19.9184 C   0  0  0  0  0  0  0  0  0  0  0  0
   19.0913  -11.7762  -19.8195 C   0  0  0  0  0  0  0  0  0  0  0  0
   20.1885  -11.8209  -20.4488 O   0  0  0  0  0  0  0  0  0  0  0  0
   17.8785   -8.3790  -20.1954 C   0  0  0  0  0  0  0  0  0  0  0  0
   18.7674   -8.2724  -18.9537 C   0  0  1  0  0  0  0  0  0  0  0  0
   17.8816   -8.2900  -17.8614 O   0  0  0  0  0  0  0  0  0  0  0  0
   19.6495   -9.4900  -18.9567 C   0  0  2  0  0  0  0  0  0  0  0  0
   18.7952  -10.6589  -19.0246 N   0  0  0  0  0  0  0  0  0  0  0  0
   20.5162   -9.5700  -17.7499 C   0  0  0  0  0  0  0  0  0  0  0  0
   20.0701  -10.1117  -16.7103 O   0  0  0  0  0  0  0  0  0  0  0  0
   27.5613  -10.5272  -14.5768 C   0  0  0  0  0  0  0  0  0  0  0  0
   26.5812  -10.2206  -16.0655 S   0  0  0  0  0  0  0  0  0  0  0  0
   24.8591   -9.7923  -15.6380 C   0  0  0  0  0  0  0  0  0  0  0  0
   23.9955   -9.7241  -16.8512 C   0  0  0  0  0  0  0  0  0  0  0  0
   22.6316   -9.2252  -16.5183 C   0  0  2  0  0  0  0  0  0  0  0  0
   21.8262   -9.0555  -17.7364 N   0  0  0  0  0  0  0  0  0  0  0  0
   22.6090   -7.9373  -15.8293 C   0  0  0  0  0  0  0  0  0  0  0  0
   22.8612   -7.8556  -14.6104 O   0  0  0  0  0  0  0  0  0  0  0  0
   22.3105   -6.7441  -16.4769 O   0  0  0  0  0  0  0  0  0  0  0  0
  2  1  1  0
  3  2  1  0
  4  3  2  0
  6  5  1  6
  6  7  1  0
  6  8  1  0
  8  9  1  1
  9  3  1  0
 10  8  1  0
 10 17  1  0
 11 10  2  0
 13 12  1  0
 14 15  1  0
 14 13  1  0
 16 18  1  0
 16 17  1  0
 16 15  1  6
 18 20  1  0
 19 18  2  0
M  END
$$$$
