GTM.pdb
     RDKit          3D

 20 19  0  0  1  0  0  0  0  0999 V2000
   19.8259  -14.1570  -19.0870 N   0  0  0  0  0  0  0  0  0  0  0  0
   18.8613  -13.0852  -19.0632 C   0  0  0  0  0  0  0  0  0  0  0  0
   19.5760  -11.7845  -19.0479 C   0  0  0  0  0  0  0  0  0  0  0  0
   20.7551  -11.6952  -19.4993 O   0  0  0  0  0  0  0  0  0  0  0  0
   19.1824   -6.9389  -18.4870 C   0  0  0  0  0  0  0  0  0  0  0  0
   18.4850   -8.3013  -18.4609 C   0  0  1  0  0  0  0  0  0  0  0  0
   17.7004   -8.3382  -19.6275 O   0  0  0  0  0  0  0  0  0  0  0  0
   19.5737   -9.3372  -18.5063 C   0  0  2  0  0  0  0  0  0  0  0  0
   18.9454  -10.6431  -18.5308 N   0  0  0  0  0  0  0  0  0  0  0  0
   20.4978   -9.2455  -17.3437 C   0  0  0  0  0  0  0  0  0  0  0  0
   20.1175   -9.6650  -16.2246 O   0  0  0  0  0  0  0  0  0  0  0  0
   26.5042  -11.6599  -15.3190 C   0  0  0  0  0  0  0  0  0  0  0  0
   26.5305   -9.9028  -15.7462 S   0  0  0  0  0  0  0  0  0  0  0  0
   24.9146   -9.1234  -15.4091 C   0  0  0  0  0  0  0  0  0  0  0  0
   23.9913   -9.2547  -16.5720 C   0  0  0  0  0  0  0  0  0  0  0  0
   22.6501   -8.6819  -16.2666 C   0  0  2  0  0  0  0  0  0  0  0  0
   21.7905   -8.7009  -17.4590 N   0  0  0  0  0  0  0  0  0  0  0  0
   22.6744   -7.2975  -15.8010 C   0  0  0  0  0  0  0  0  0  0  0  0
   22.9149   -7.0245  -14.6078 O   0  0  0  0  0  0  0  0  0  0  0  0
   22.4354   -6.2176  -16.6428 O   0  0  0  0  0  0  0  0  0  0  0  0
  2  1  1  0
  3  2  1  0
  4  3  2  0
  6  5  1  6
  6  7  1  0
  6  8  1  0
  8  9  1  1
  9  3  1  0
 10  8  1  0
 10 17  1  0
 11 10  2  0
 13 12  1  0
 14 15  1  0
 14 13  1  0
 16 18  1  0
 16 17  1  0
 16 15  1  6
 18 20  1  0
 19 18  2  0
M  END
$$$$
