GTM.pdb
     RDKit          3D

 20 19  0  0  1  0  0  0  0  0999 V2000
   16.0289  -13.8277  -17.7099 N   0  0  0  0  0  0  0  0  0  0  0  0
   15.9813  -12.5193  -17.1055 C   0  0  0  0  0  0  0  0  0  0  0  0
   17.1473  -11.7250  -17.5666 C   0  0  0  0  0  0  0  0  0  0  0  0
   18.1066  -12.2864  -18.1722 O   0  0  0  0  0  0  0  0  0  0  0  0
   16.5417   -8.3314  -19.0796 C   0  0  0  0  0  0  0  0  0  0  0  0
   17.6866   -8.1309  -18.0835 C   0  0  1  0  0  0  0  0  0  0  0  0
   17.0844   -7.6000  -16.9288 O   0  0  0  0  0  0  0  0  0  0  0  0
   18.2622   -9.4941  -17.8174 C   0  0  2  0  0  0  0  0  0  0  0  0
   17.1919  -10.3426  -17.3323 N   0  0  0  0  0  0  0  0  0  0  0  0
   19.3687   -9.4625  -16.8232 C   0  0  0  0  0  0  0  0  0  0  0  0
   19.1115   -9.6725  -15.6137 O   0  0  0  0  0  0  0  0  0  0  0  0
   25.7064  -11.3876  -13.8735 C   0  0  0  0  0  0  0  0  0  0  0  0
   24.5273  -11.3123  -15.2428 S   0  0  0  0  0  0  0  0  0  0  0  0
   24.1092   -9.5832  -15.6516 C   0  0  0  0  0  0  0  0  0  0  0  0
   23.0700   -9.5095  -16.7178 C   0  0  0  0  0  0  0  0  0  0  0  0
   21.7310   -9.1888  -16.1484 C   0  0  2  0  0  0  0  0  0  0  0  0
   20.7007   -9.2035  -17.1970 N   0  0  0  0  0  0  0  0  0  0  0  0
   21.6435   -7.8796  -15.5063 C   0  0  0  0  0  0  0  0  0  0  0  0
   21.3692   -6.8570  -16.1658 O   0  0  0  0  0  0  0  0  0  0  0  0
   21.8564   -7.6948  -14.1452 O   0  0  0  0  0  0  0  0  0  0  0  0
  2  1  1  0
  3  2  1  0
  4  3  2  0
  6  5  1  6
  6  7  1  0
  6  8  1  0
  8  9  1  1
  9  3  1  0
 10  8  1  0
 10 17  1  0
 11 10  2  0
 13 12  1  0
 14 15  1  0
 14 13  1  0
 16 18  1  0
 16 17  1  0
 16 15  1  6
 18 20  1  0
 19 18  2  0
M  END
$$$$
