GTM.pdb
     RDKit          3D

 20 19  0  0  1  0  0  0  0  0999 V2000
   23.2914  -20.1410  -16.5714 N   0  0  0  0  0  0  0  0  0  0  0  0
   22.4737  -21.1352  -15.9212 C   0  0  0  0  0  0  0  0  0  0  0  0
   22.2716  -20.7500  -14.5021 C   0  0  0  0  0  0  0  0  0  0  0  0
   23.0654  -19.9419  -13.9376 O   0  0  0  0  0  0  0  0  0  0  0  0
   19.2064  -19.2930  -13.3607 C   0  0  0  0  0  0  0  0  0  0  0  0
   20.4851  -19.3780  -12.5235 C   0  0  1  0  0  0  0  0  0  0  0  0
   20.1345  -18.8713  -11.2593 O   0  0  0  0  0  0  0  0  0  0  0  0
   20.8446  -20.8357  -12.4432 C   0  0  2  0  0  0  0  0  0  0  0  0
   21.1952  -21.2822  -13.7768 N   0  0  0  0  0  0  0  0  0  0  0  0
   19.7336  -21.6692  -11.9096 C   0  0  0  0  0  0  0  0  0  0  0  0
   18.8873  -22.1433  -12.7047 O   0  0  0  0  0  0  0  0  0  0  0  0
   17.0924  -26.4174   -6.2164 C   0  0  0  0  0  0  0  0  0  0  0  0
   18.2483  -25.0965   -6.6521 S   0  0  0  0  0  0  0  0  0  0  0  0
   17.8245  -24.3636   -8.2693 C   0  0  0  0  0  0  0  0  0  0  0  0
   18.9044  -23.4609   -8.7601 C   0  0  0  0  0  0  0  0  0  0  0  0
   18.5888  -22.9242  -10.1138 C   0  0  2  0  0  0  0  0  0  0  0  0
   19.6003  -21.9443  -10.5358 N   0  0  0  0  0  0  0  0  0  0  0  0
   17.2975  -22.2481  -10.2115 C   0  0  0  0  0  0  0  0  0  0  0  0
   16.2620  -22.8789  -10.5043 O   0  0  0  0  0  0  0  0  0  0  0  0
   17.1447  -20.8847   -9.9883 O   0  0  0  0  0  0  0  0  0  0  0  0
  2  1  1  0
  3  2  1  0
  4  3  2  0
  6  5  1  6
  6  7  1  0
  6  8  1  0
  8  9  1  6
  9  3  1  0
 10  8  1  0
 10 17  1  0
 11 10  2  0
 13 12  1  0
 14 15  1  0
 14 13  1  0
 16 18  1  0
 16 17  1  0
 16 15  1  1
 18 20  1  0
 19 18  2  0
M  END
$$$$
