GTM.pdb
     RDKit          3D

 20 19  0  0  1  0  0  0  0  0999 V2000
   18.5813   -9.6791  -17.2702 N   0  0  0  0  0  0  0  0  0  0  0  0
   19.3966   -8.6963  -16.6001 C   0  0  0  0  0  0  0  0  0  0  0  0
   19.0543   -7.3459  -17.1122 C   0  0  0  0  0  0  0  0  0  0  0  0
   18.6613   -7.1931  -18.3056 O   0  0  0  0  0  0  0  0  0  0  0  0
   16.5013   -5.3851  -15.9117 C   0  0  0  0  0  0  0  0  0  0  0  0
   17.6867   -4.4352  -15.7226 C   0  0  1  0  0  0  0  0  0  0  0  0
   18.0881   -4.6053  -14.3854 O   0  0  0  0  0  0  0  0  0  0  0  0
   18.7566   -4.8961  -16.6731 C   0  0  2  0  0  0  0  0  0  0  0  0
   19.1651   -6.2278  -16.2723 N   0  0  0  0  0  0  0  0  0  0  0  0
   19.9372   -3.9906  -16.6864 C   0  0  0  0  0  0  0  0  0  0  0  0
   20.9546   -4.3011  -16.0219 O   0  0  0  0  0  0  0  0  0  0  0  0
   24.3636    1.4871  -20.1177 C   0  0  0  0  0  0  0  0  0  0  0  0
   23.0110    0.2929  -20.2406 S   0  0  0  0  0  0  0  0  0  0  0  0
   22.6230   -0.4261  -18.6083 C   0  0  0  0  0  0  0  0  0  0  0  0
   21.4815   -1.3813  -18.6891 C   0  0  0  0  0  0  0  0  0  0  0  0
   21.1441   -1.9375  -17.3486 C   0  0  2  0  0  0  0  0  0  0  0  0
   19.9498   -2.7916  -17.4233 N   0  0  0  0  0  0  0  0  0  0  0  0
   20.8646   -0.9306  -16.3278 C   0  0  0  0  0  0  0  0  0  0  0  0
   19.6927   -0.6499  -16.0055 O   0  0  0  0  0  0  0  0  0  0  0  0
   21.8684   -0.2350  -15.6640 O   0  0  0  0  0  0  0  0  0  0  0  0
  2  1  1  0
  3  2  1  0
  4  3  2  0
  6  5  1  1
  6  7  1  0
  6  8  1  0
  8  9  1  1
  9  3  1  0
 10  8  1  0
 10 17  1  0
 11 10  2  0
 13 12  1  0
 14 15  1  0
 14 13  1  0
 16 18  1  0
 16 17  1  0
 16 15  1  6
 18 20  1  0
 19 18  2  0
M  END
$$$$
