GTM.pdb
     RDKit          3D

 20 19  0  0  1  0  0  0  0  0999 V2000
   27.8809  -21.5251  -16.0641 N   0  0  0  0  0  0  0  0  0  0  0  0
   26.8807  -21.9935  -15.1368 C   0  0  0  0  0  0  0  0  0  0  0  0
   26.5535  -20.9068  -14.1804 C   0  0  0  0  0  0  0  0  0  0  0  0
   26.3586  -19.7262  -14.5932 O   0  0  0  0  0  0  0  0  0  0  0  0
   24.3619  -19.8780  -13.8201 C   0  0  0  0  0  0  0  0  0  0  0  0
   24.3209  -20.2328  -12.3316 C   0  0  1  0  0  0  0  0  0  0  0  0
   23.6838  -21.4849  -12.2666 O   0  0  0  0  0  0  0  0  0  0  0  0
   25.7510  -20.3275  -11.8775 C   0  0  2  0  0  0  0  0  0  0  0  0
   26.4583  -21.1840  -12.8085 N   0  0  0  0  0  0  0  0  0  0  0  0
   25.8774  -20.8713  -10.4983 C   0  0  0  0  0  0  0  0  0  0  0  0
   25.8675  -22.1137  -10.3266 O   0  0  0  0  0  0  0  0  0  0  0  0
   29.5421  -18.8224   -5.4661 C   0  0  0  0  0  0  0  0  0  0  0  0
   28.0188  -19.3529   -4.6483 S   0  0  0  0  0  0  0  0  0  0  0  0
   27.0016  -20.3799   -5.7629 C   0  0  0  0  0  0  0  0  0  0  0  0
   26.9277  -19.7933   -7.1313 C   0  0  0  0  0  0  0  0  0  0  0  0
   26.1322  -20.6565   -8.0489 C   0  0  2  0  0  0  0  0  0  0  0  0
   26.0081  -20.0336   -9.3748 N   0  0  0  0  0  0  0  0  0  0  0  0
   24.7706  -20.9295   -7.5955 C   0  0  0  0  0  0  0  0  0  0  0  0
   23.7904  -20.3790   -8.1359 O   0  0  0  0  0  0  0  0  0  0  0  0
   24.4873  -21.8037   -6.5526 O   0  0  0  0  0  0  0  0  0  0  0  0
  2  1  1  0
  3  2  1  0
  4  3  2  0
  6  5  1  6
  6  7  1  0
  6  8  1  0
  8  9  1  6
  9  3  1  0
 10  8  1  0
 10 17  1  0
 11 10  2  0
 13 12  1  0
 14 15  1  0
 14 13  1  0
 16 18  1  0
 16 17  1  0
 16 15  1  1
 18 20  1  0
 19 18  2  0
M  END
$$$$
