GTM.pdb
     RDKit          3D

 20 19  0  0  1  0  0  0  0  0999 V2000
   28.7010  -22.1929  -15.9267 N   0  0  0  0  0  0  0  0  0  0  0  0
   27.4049  -22.5457  -15.4020 C   0  0  0  0  0  0  0  0  0  0  0  0
   26.9804  -21.5197  -14.4171 C   0  0  0  0  0  0  0  0  0  0  0  0
   27.5190  -20.3744  -14.4116 O   0  0  0  0  0  0  0  0  0  0  0  0
   23.3193  -19.7027  -11.9810 C   0  0  0  0  0  0  0  0  0  0  0  0
   23.9131  -20.7511  -12.9252 C   0  0  1  0  0  0  0  0  0  0  0  0
   23.6867  -20.2533  -14.2209 O   0  0  0  0  0  0  0  0  0  0  0  0
   25.3834  -20.8158  -12.6180 C   0  0  2  0  0  0  0  0  0  0  0  0
   25.9758  -21.8159  -13.4838 N   0  0  0  0  0  0  0  0  0  0  0  0
   25.6550  -21.1575  -11.1956 C   0  0  0  0  0  0  0  0  0  0  0  0
   25.4275  -22.3229  -10.7915 O   0  0  0  0  0  0  0  0  0  0  0  0
   28.7975  -19.5100   -4.1514 C   0  0  0  0  0  0  0  0  0  0  0  0
   28.4743  -18.9226   -5.8310 S   0  0  0  0  0  0  0  0  0  0  0  0
   27.3709  -20.0701   -6.7242 C   0  0  0  0  0  0  0  0  0  0  0  0
   27.2246  -19.6840   -8.1565 C   0  0  0  0  0  0  0  0  0  0  0  0
   26.2964  -20.6029   -8.8736 C   0  0  2  0  0  0  0  0  0  0  0  0
   26.1610  -20.2117  -10.2842 N   0  0  0  0  0  0  0  0  0  0  0  0
   24.9420  -20.6430   -8.3277 C   0  0  0  0  0  0  0  0  0  0  0  0
   24.0438  -19.9057   -8.7811 O   0  0  0  0  0  0  0  0  0  0  0  0
   24.5760  -21.4898   -7.2880 O   0  0  0  0  0  0  0  0  0  0  0  0
  2  1  1  0
  3  2  1  0
  4  3  2  0
  6  5  1  1
  6  7  1  0
  6  8  1  0
  8  9  1  6
  9  3  1  0
 10  8  1  0
 10 17  1  0
 11 10  2  0
 13 12  1  0
 14 15  1  0
 14 13  1  0
 16 18  1  0
 16 17  1  0
 16 15  1  1
 18 20  1  0
 19 18  2  0
M  END
$$$$
