GTM.pdb
     RDKit          3D

 20 19  0  0  1  0  0  0  0  0999 V2000
   19.9248  -14.9321  -18.1597 N   0  0  0  0  0  0  0  0  0  0  0  0
   19.0734  -13.8254  -18.5206 C   0  0  0  0  0  0  0  0  0  0  0  0
   19.8950  -12.5950  -18.6394 C   0  0  0  0  0  0  0  0  0  0  0  0
   21.0935  -12.6604  -19.0409 O   0  0  0  0  0  0  0  0  0  0  0  0
   19.8115   -7.7283  -18.9809 C   0  0  0  0  0  0  0  0  0  0  0  0
   19.0297   -9.0240  -18.7508 C   0  0  1  0  0  0  0  0  0  0  0  0
   18.3370   -9.2571  -19.9524 O   0  0  0  0  0  0  0  0  0  0  0  0
   20.0512  -10.0974  -18.4963 C   0  0  2  0  0  0  0  0  0  0  0  0
   19.3446  -11.3486  -18.3057 N   0  0  0  0  0  0  0  0  0  0  0  0
   20.8961   -9.8107  -17.3057 C   0  0  0  0  0  0  0  0  0  0  0  0
   20.3774   -9.8437  -16.1642 O   0  0  0  0  0  0  0  0  0  0  0  0
   27.0122  -11.4506  -16.3279 C   0  0  0  0  0  0  0  0  0  0  0  0
   26.9411  -10.0009  -15.2490 S   0  0  0  0  0  0  0  0  0  0  0  0
   25.2342   -9.3679  -15.1157 C   0  0  0  0  0  0  0  0  0  0  0  0
   24.4137   -9.7553  -16.2983 C   0  0  0  0  0  0  0  0  0  0  0  0
   23.0238   -9.2295  -16.1895 C   0  0  2  0  0  0  0  0  0  0  0  0
   22.2647   -9.5021  -17.4186 N   0  0  0  0  0  0  0  0  0  0  0  0
   22.9370   -7.7886  -15.9654 C   0  0  0  0  0  0  0  0  0  0  0  0
   23.1185   -6.9807  -16.8983 O   0  0  0  0  0  0  0  0  0  0  0  0
   22.6520   -7.2376  -14.7215 O   0  0  0  0  0  0  0  0  0  0  0  0
  2  1  1  0
  3  2  1  0
  4  3  2  0
  6  5  1  6
  6  7  1  0
  6  8  1  0
  8  9  1  1
  9  3  1  0
 10  8  1  0
 10 17  1  0
 11 10  2  0
 13 12  1  0
 14 15  1  0
 14 13  1  0
 16 18  1  0
 16 17  1  0
 16 15  1  6
 18 20  1  0
 19 18  2  0
M  END
$$$$
