GTM.pdb
     RDKit          3D

 20 19  0  0  1  0  0  0  0  0999 V2000
   20.8552  -14.6912  -17.9656 N   0  0  0  0  0  0  0  0  0  0  0  0
   19.9297  -13.7247  -18.5033 C   0  0  0  0  0  0  0  0  0  0  0  0
   20.5782  -12.3899  -18.5312 C   0  0  0  0  0  0  0  0  0  0  0  0
   21.8399  -12.2897  -18.5296 O   0  0  0  0  0  0  0  0  0  0  0  0
   20.2116   -7.6803  -19.5680 C   0  0  0  0  0  0  0  0  0  0  0  0
   19.5668   -9.0685  -19.5524 C   0  0  1  0  0  0  0  0  0  0  0  0
   19.7101   -9.5583  -20.8629 O   0  0  0  0  0  0  0  0  0  0  0  0
   20.3573   -9.8935  -18.5752 C   0  0  2  0  0  0  0  0  0  0  0  0
   19.7924  -11.2282  -18.5596 N   0  0  0  0  0  0  0  0  0  0  0  0
   20.3392   -9.3236  -17.2010 C   0  0  0  0  0  0  0  0  0  0  0  0
   19.2758   -9.3601  -16.5368 O   0  0  0  0  0  0  0  0  0  0  0  0
   21.7361   -9.3905  -11.4167 C   0  0  0  0  0  0  0  0  0  0  0  0
   21.7117  -10.3061  -12.9761 S   0  0  0  0  0  0  0  0  0  0  0  0
   22.9712   -9.6645  -14.1312 C   0  0  0  0  0  0  0  0  0  0  0  0
   22.6698   -8.2648  -14.5462 C   0  0  0  0  0  0  0  0  0  0  0  0
   21.3673   -8.1811  -15.2649 C   0  0  2  0  0  0  0  0  0  0  0  0
   21.4813   -8.7422  -16.6189 N   0  0  0  0  0  0  0  0  0  0  0  0
   20.8504   -6.8243  -15.4258 C   0  0  0  0  0  0  0  0  0  0  0  0
   21.0872   -6.1641  -16.4573 O   0  0  0  0  0  0  0  0  0  0  0  0
   20.0764   -6.1956  -14.4574 O   0  0  0  0  0  0  0  0  0  0  0  0
  2  1  1  0
  3  2  1  0
  4  3  2  0
  6  5  1  6
  6  7  1  0
  6  8  1  0
  8  9  1  1
  9  3  1  0
 10  8  1  0
 10 17  1  0
 11 10  2  0
 13 12  1  0
 14 15  1  0
 14 13  1  0
 16 18  1  0
 16 17  1  0
 16 15  1  6
 18 20  1  0
 19 18  2  0
M  END
$$$$
