RMC.pdb
     RDKit          3D

 26 25  0  0  1  0  0  0  0  0999 V2000
    9.3738  -13.1951   18.4639 N   0  0  0  0  0  0  0  0  0  0  0  0
    8.4014  -13.6150   17.5048 C   0  0  0  0  0  0  0  0  0  0  0  0
    8.6380  -13.4576   16.2391 N   0  0  0  0  0  0  0  0  0  0  0  0
    7.1699  -14.2049   17.8892 N   0  0  0  0  0  0  0  0  0  0  0  0
    7.0272  -14.9137   19.1290 C   0  0  0  0  0  0  0  0  0  0  0  0
    7.8005  -16.1779   19.2479 C   0  0  0  0  0  0  0  0  0  0  0  0
    9.1167  -15.9631   19.9182 C   0  0  0  0  0  0  0  0  0  0  0  0
    9.0758  -16.8156   21.2006 C   0  0  2  0  0  0  0  0  0  0  0  0
    7.7594  -17.4072   21.2602 N   0  0  0  0  0  0  0  0  0  0  0  0
    9.3503  -15.9238   22.3337 C   0  0  0  0  0  0  0  0  0  0  0  0
   10.5396  -15.4664   22.4393 O   0  0  0  0  0  0  0  0  0  0  0  0
    8.0203  -13.8000   15.4999 C   0  0  0  0  0  0  0  0  0  0  0  0
    5.3440  -12.5666   27.5502 S   0  0  0  0  0  0  0  0  0  0  0  0
    6.0016  -12.0270   25.9574 C   0  0  0  0  0  0  0  0  0  0  0  0
    7.6585  -12.8221   25.7761 C   0  0  0  0  0  0  0  0  0  0  0  0
    7.5427  -13.7645   24.6437 C   0  0  1  0  0  0  0  0  0  0  0  0
    8.7841  -14.5593   24.3681 N   0  0  0  0  0  0  0  0  0  0  0  0
    8.4121  -15.5337   23.3095 C   0  0  0  0  0  0  0  0  0  0  0  0
    9.2343  -15.2891   25.5505 O   0  0  0  0  0  0  0  0  0  0  0  0
    9.4845  -14.6909   26.6633 N   0  0  0  0  0  0  0  0  0  0  0  0
    9.4283  -16.6957   25.5835 C   0  0  1  0  0  0  0  0  0  0  0  0
    9.9424  -17.3539   26.8001 C   0  0  0  0  0  0  0  0  0  0  0  0
    8.7543  -17.4201   27.7707 S   0  0  0  0  0  0  0  0  0  0  0  0
    7.4054  -18.3870   27.0439 C   0  0  0  0  0  0  0  0  0  0  0  0
   10.3267  -18.7604   26.5492 O   0  0  0  0  0  0  0  0  0  0  0  0
   10.9390  -19.5141   27.5210 O   0  0  0  0  0  0  0  0  0  0  0  0
  2  1  1  0
  3  2  2  0
  4  2  1  0
  5  4  1  0
  6  5  1  0
  6  7  1  0
  7  8  1  0
  8  9  1  1
 10 17  1  0
 10  8  1  0
 11 10  2  0
 12 13  1  0
 13 14  1  0
 16 15  1  6
 15 14  1  0
 16 17  1  0
 18 20  1  0
 18 16  1  0
 19 18  2  0
 21 20  1  0
 21 22  1  1
 22 23  1  0
 24 21  1  0
 25 24  1  0
 26 24  2  0
M  END
$$$$
