RMC.pdb
     RDKit          3D

 26 25  0  0  1  0  0  0  0  0999 V2000
   10.1908  -15.8207   16.7778 N   0  0  0  0  0  0  0  0  0  0  0  0
    9.0521  -15.1254   16.2664 C   0  0  0  0  0  0  0  0  0  0  0  0
    8.4102  -15.6066   15.2470 N   0  0  0  0  0  0  0  0  0  0  0  0
    8.5909  -13.9119   16.8382 N   0  0  0  0  0  0  0  0  0  0  0  0
    8.7347  -13.6353   18.2392 C   0  0  0  0  0  0  0  0  0  0  0  0
    7.4867  -13.6945   19.0450 C   0  0  0  0  0  0  0  0  0  0  0  0
    7.7225  -13.2968   20.4642 C   0  0  0  0  0  0  0  0  0  0  0  0
    8.6685  -14.3647   21.0451 C   0  0  2  0  0  0  0  0  0  0  0  0
    8.1149  -15.6480   20.6798 N   0  0  0  0  0  0  0  0  0  0  0  0
    8.7252  -14.1626   22.4978 C   0  0  0  0  0  0  0  0  0  0  0  0
    9.2065  -13.0530   22.9125 O   0  0  0  0  0  0  0  0  0  0  0  0
    7.5280  -15.2237   14.9002 C   0  0  0  0  0  0  0  0  0  0  0  0
    5.7009  -11.1479   26.4184 S   0  0  0  0  0  0  0  0  0  0  0  0
    6.8347  -12.5483   26.5358 C   0  0  0  0  0  0  0  0  0  0  0  0
    6.1870  -13.8463   25.3931 C   0  0  0  0  0  0  0  0  0  0  0  0
    7.0976  -15.0029   25.5232 C   0  0  2  0  0  0  0  0  0  0  0  0
    8.4530  -14.7974   24.9152 N   0  0  0  0  0  0  0  0  0  0  0  0
    8.2936  -15.0895   23.4669 C   0  0  0  0  0  0  0  0  0  0  0  0
    9.4442  -15.7100   25.4792 O   0  0  0  0  0  0  0  0  0  0  0  0
    9.6986  -16.8525   24.9419 N   0  0  0  0  0  0  0  0  0  0  0  0
   10.2065  -15.4258   26.6434 C   0  0  2  0  0  0  0  0  0  0  0  0
   11.1340  -16.4314   27.1969 C   0  0  0  0  0  0  0  0  0  0  0  0
   11.8952  -15.7189   28.3243 S   0  0  0  0  0  0  0  0  0  0  0  0
   10.7543  -14.7196   29.3157 C   0  0  0  0  0  0  0  0  0  0  0  0
   10.4158  -17.5482   27.8493 O   0  0  0  0  0  0  0  0  0  0  0  0
   11.0891  -18.6534   28.3102 O   0  0  0  0  0  0  0  0  0  0  0  0
  2  1  1  0
  3  2  2  0
  4  2  1  0
  5  4  1  0
  6  5  1  0
  6  7  1  0
  7  8  1  0
  8  9  1  1
 10 17  1  0
 10  8  1  0
 11 10  2  0
 12 13  1  0
 13 14  1  0
 16 15  1  6
 15 14  1  0
 16 17  1  0
 18 20  1  0
 18 16  1  0
 19 18  2  0
 21 20  1  0
 21 22  1  1
 22 23  1  0
 24 21  1  0
 25 24  1  0
 26 24  2  0
M  END
$$$$
