RMC.pdb
     RDKit          3D

 26 25  0  0  1  0  0  0  0  0999 V2000
    8.8945  -14.4974   15.1193 N   0  0  0  0  0  0  0  0  0  0  0  0
    8.3799  -14.5154   16.4522 C   0  0  0  0  0  0  0  0  0  0  0  0
    7.8905  -13.4297   16.9665 N   0  0  0  0  0  0  0  0  0  0  0  0
    8.3847  -15.6912   17.2458 N   0  0  0  0  0  0  0  0  0  0  0  0
    9.6041  -16.2583   17.7469 C   0  0  0  0  0  0  0  0  0  0  0  0
    9.6188  -16.5921   19.1957 C   0  0  0  0  0  0  0  0  0  0  0  0
    9.3246  -15.3994   20.0435 C   0  0  0  0  0  0  0  0  0  0  0  0
    8.2928  -15.8722   21.0850 C   0  0  2  0  0  0  0  0  0  0  0  0
    7.0052  -15.3974   20.6343 N   0  0  0  0  0  0  0  0  0  0  0  0
    8.6841  -15.3092   22.3828 C   0  0  0  0  0  0  0  0  0  0  0  0
    9.7643  -14.6260   22.4188 O   0  0  0  0  0  0  0  0  0  0  0  0
    7.4712  -13.3823   17.8976 C   0  0  0  0  0  0  0  0  0  0  0  0
    6.5276  -11.2597   25.9079 S   0  0  0  0  0  0  0  0  0  0  0  0
    6.1341  -12.5213   27.1383 C   0  0  0  0  0  0  0  0  0  0  0  0
    7.3735  -13.8728   26.9204 C   0  0  0  0  0  0  0  0  0  0  0  0
    7.1521  -14.4220   25.5665 C   0  0  1  0  0  0  0  0  0  0  0  0
    8.4083  -14.7612   24.8210 N   0  0  0  0  0  0  0  0  0  0  0  0
    7.9677  -15.4610   23.5862 C   0  0  0  0  0  0  0  0  0  0  0  0
    9.2720  -15.6522   25.5913 O   0  0  0  0  0  0  0  0  0  0  0  0
    9.1915  -16.9334   25.4873 N   0  0  0  0  0  0  0  0  0  0  0  0
   10.2628  -15.1982   26.5021 C   0  0  2  0  0  0  0  0  0  0  0  0
   11.0613  -16.1619   27.2839 C   0  0  0  0  0  0  0  0  0  0  0  0
   11.7302  -15.3417   28.3965 S   0  0  0  0  0  0  0  0  0  0  0  0
   10.4983  -14.3246   29.2513 C   0  0  0  0  0  0  0  0  0  0  0  0
   10.2099  -17.1516   27.9799 O   0  0  0  0  0  0  0  0  0  0  0  0
    8.8402  -17.0454   27.9661 O   0  0  0  0  0  0  0  0  0  0  0  0
  2  1  1  0
  3  2  2  0
  4  2  1  0
  5  4  1  0
  6  5  1  0
  6  7  1  0
  7  8  1  0
  8  9  1  6
 10 17  1  0
 10  8  1  0
 11 10  2  0
 12 13  1  0
 13 14  1  0
 16 15  1  6
 15 14  1  0
 16 17  1  0
 18 20  1  0
 18 16  1  0
 19 18  2  0
 21 20  1  0
 21 22  1  6
 22 23  1  0
 24 21  1  0
 25 24  1  0
 26 24  2  0
M  END
$$$$
