RMC.pdb
     RDKit          3D

 26 25  0  0  1  0  0  0  0  0999 V2000
    8.8906  -15.6142   15.4763 N   0  0  0  0  0  0  0  0  0  0  0  0
    8.3771  -14.3103   15.7553 C   0  0  0  0  0  0  0  0  0  0  0  0
    7.5621  -13.7481   14.9172 N   0  0  0  0  0  0  0  0  0  0  0  0
    8.7302  -13.5969   16.9295 N   0  0  0  0  0  0  0  0  0  0  0  0
    9.5896  -14.1659   17.9283 C   0  0  0  0  0  0  0  0  0  0  0  0
    9.1408  -15.4569   18.5134 C   0  0  0  0  0  0  0  0  0  0  0  0
   10.1434  -16.0118   19.4697 C   0  0  0  0  0  0  0  0  0  0  0  0
    9.3276  -16.5787   20.6470 C   0  0  2  0  0  0  0  0  0  0  0  0
    7.9778  -16.7573   20.1648 N   0  0  0  0  0  0  0  0  0  0  0  0
    9.4143  -15.6145   21.7503 C   0  0  0  0  0  0  0  0  0  0  0  0
   10.0670  -14.5370   21.5316 O   0  0  0  0  0  0  0  0  0  0  0  0
    7.1737  -12.8112   15.0459 C   0  0  0  0  0  0  0  0  0  0  0  0
    5.6862  -12.0279   27.2125 S   0  0  0  0  0  0  0  0  0  0  0  0
    5.9285  -12.5249   25.4935 C   0  0  0  0  0  0  0  0  0  0  0  0
    7.6835  -13.0810   25.3494 C   0  0  0  0  0  0  0  0  0  0  0  0
    7.6952  -14.1518   24.3310 C   0  0  2  0  0  0  0  0  0  0  0  0
    9.0436  -14.7606   24.0859 N   0  0  0  0  0  0  0  0  0  0  0  0
    8.8383  -15.7809   23.0251 C   0  0  0  0  0  0  0  0  0  0  0  0
    9.5683  -15.4152   25.2815 O   0  0  0  0  0  0  0  0  0  0  0  0
    9.4683  -16.6869   25.4588 N   0  0  0  0  0  0  0  0  0  0  0  0
   10.2281  -14.7258   26.3335 C   0  0  2  0  0  0  0  0  0  0  0  0
   10.7097  -15.4553   27.5225 C   0  0  0  0  0  0  0  0  0  0  0  0
   10.7875  -14.4124   28.6469 S   0  0  0  0  0  0  0  0  0  0  0  0
   11.3052  -15.1985   30.1951 C   0  0  0  0  0  0  0  0  0  0  0  0
    9.7330  -16.4649   27.9867 O   0  0  0  0  0  0  0  0  0  0  0  0
   10.1397  -17.7118   28.3956 O   0  0  0  0  0  0  0  0  0  0  0  0
  2  1  1  0
  3  2  2  0
  4  2  1  0
  5  4  1  0
  6  5  1  0
  6  7  1  0
  7  8  1  0
  8  9  1  6
 10 17  1  0
 10  8  1  0
 11 10  2  0
 12 13  1  0
 13 14  1  0
 16 15  1  6
 15 14  1  0
 16 17  1  0
 18 20  1  0
 18 16  1  0
 19 18  2  0
 21 20  1  0
 21 22  1  1
 22 23  1  0
 24 21  1  0
 25 24  1  0
 26 24  2  0
M  END
$$$$
