RMC.pdb
     RDKit          3D

 26 25  0  0  1  0  0  0  0  0999 V2000
    8.6499  -13.2073   15.8868 N   0  0  0  0  0  0  0  0  0  0  0  0
    8.6206  -13.5754   17.2671 C   0  0  0  0  0  0  0  0  0  0  0  0
    9.2712  -12.8645   18.1355 N   0  0  0  0  0  0  0  0  0  0  0  0
    7.8979  -14.7048   17.7304 N   0  0  0  0  0  0  0  0  0  0  0  0
    8.5120  -15.9965   17.8499 C   0  0  0  0  0  0  0  0  0  0  0  0
    8.3710  -16.6638   19.1710 C   0  0  0  0  0  0  0  0  0  0  0  0
    9.3296  -16.1158   20.1753 C   0  0  0  0  0  0  0  0  0  0  0  0
    9.2145  -17.0345   21.4063 C   0  0  2  0  0  0  0  0  0  0  0  0
    7.8969  -17.6245   21.3584 N   0  0  0  0  0  0  0  0  0  0  0  0
    9.4228  -16.2045   22.5989 C   0  0  0  0  0  0  0  0  0  0  0  0
   10.5717  -15.6603   22.7358 O   0  0  0  0  0  0  0  0  0  0  0  0
    9.3757  -13.1260   19.1183 C   0  0  0  0  0  0  0  0  0  0  0  0
    5.7156  -11.8821   25.3506 S   0  0  0  0  0  0  0  0  0  0  0  0
    5.9061  -13.0138   26.7446 C   0  0  0  0  0  0  0  0  0  0  0  0
    7.5504  -13.8289   26.5392 C   0  0  0  0  0  0  0  0  0  0  0  0
    7.4588  -14.6388   25.3064 C   0  0  1  0  0  0  0  0  0  0  0  0
    8.7811  -15.0821   24.7552 N   0  0  0  0  0  0  0  0  0  0  0  0
    8.4621  -15.9607   23.6000 C   0  0  0  0  0  0  0  0  0  0  0  0
    9.5492  -15.8446   25.7360 O   0  0  0  0  0  0  0  0  0  0  0  0
    9.5971  -17.1313   25.7095 N   0  0  0  0  0  0  0  0  0  0  0  0
   10.3023  -15.2505   26.7835 C   0  0  2  0  0  0  0  0  0  0  0  0
   11.1538  -16.0792   27.6587 C   0  0  0  0  0  0  0  0  0  0  0  0
   11.5444  -15.1744   28.8364 S   0  0  0  0  0  0  0  0  0  0  0  0
   10.6644  -13.5942   28.7304 C   0  0  0  0  0  0  0  0  0  0  0  0
   10.4036  -17.2052   28.2571 O   0  0  0  0  0  0  0  0  0  0  0  0
   11.0286  -18.1294   29.0587 O   0  0  0  0  0  0  0  0  0  0  0  0
  2  1  1  0
  3  2  2  0
  4  2  1  0
  5  4  1  0
  6  5  1  0
  6  7  1  0
  7  8  1  0
  8  9  1  1
 10 17  1  0
 10  8  1  0
 11 10  2  0
 12 13  1  0
 13 14  1  0
 16 15  1  6
 15 14  1  0
 16 17  1  0
 18 20  1  0
 18 16  1  0
 19 18  2  0
 21 20  1  0
 21 22  1  6
 22 23  1  0
 24 21  1  0
 25 24  1  0
 26 24  2  0
M  END
$$$$
