RMC.pdb
     RDKit          3D

 26 25  0  0  1  0  0  0  0  0999 V2000
    7.9646  -14.1457   18.0212 N   0  0  0  0  0  0  0  0  0  0  0  0
    8.1337  -13.1875   19.0676 C   0  0  0  0  0  0  0  0  0  0  0  0
    8.3798  -11.9489   18.7708 N   0  0  0  0  0  0  0  0  0  0  0  0
    8.0424  -13.5441   20.4376 N   0  0  0  0  0  0  0  0  0  0  0  0
    7.6049  -14.8472   20.8505 C   0  0  0  0  0  0  0  0  0  0  0  0
    8.2347  -15.9970   20.1493 C   0  0  0  0  0  0  0  0  0  0  0  0
    9.5961  -16.2954   20.6836 C   0  0  0  0  0  0  0  0  0  0  0  0
    9.3758  -17.2307   21.8876 C   0  0  2  0  0  0  0  0  0  0  0  0
    8.0193  -17.7171   21.7888 N   0  0  0  0  0  0  0  0  0  0  0  0
    9.6114  -16.4466   23.1059 C   0  0  0  0  0  0  0  0  0  0  0  0
   10.7543  -15.8858   23.2251 O   0  0  0  0  0  0  0  0  0  0  0  0
    8.5147  -11.2146   19.4691 C   0  0  0  0  0  0  0  0  0  0  0  0
    6.0565  -12.3343   25.4227 S   0  0  0  0  0  0  0  0  0  0  0  0
    6.5345  -12.8219   27.0943 C   0  0  0  0  0  0  0  0  0  0  0  0
    8.0737  -13.8286   26.9283 C   0  0  0  0  0  0  0  0  0  0  0  0
    7.8771  -14.6920   25.7452 C   0  0  2  0  0  0  0  0  0  0  0  0
    9.0675  -15.5288   25.3825 N   0  0  0  0  0  0  0  0  0  0  0  0
    8.6829  -16.2637   24.1495 C   0  0  0  0  0  0  0  0  0  0  0  0
    9.3917  -16.4931   26.4304 O   0  0  0  0  0  0  0  0  0  0  0  0
    8.5602  -17.4073   26.7931 N   0  0  0  0  0  0  0  0  0  0  0  0
   10.6292  -16.5152   27.1273 C   0  0  1  0  0  0  0  0  0  0  0  0
   10.8429  -17.4519   28.2474 C   0  0  0  0  0  0  0  0  0  0  0  0
   12.1540  -18.1861   27.9310 S   0  0  0  0  0  0  0  0  0  0  0  0
   12.1883  -18.6832   26.1890 C   0  0  0  0  0  0  0  0  0  0  0  0
   11.0846  -16.7439   29.5238 O   0  0  0  0  0  0  0  0  0  0  0  0
   11.0983  -15.3714   29.5837 O   0  0  0  0  0  0  0  0  0  0  0  0
  2  1  1  0
  3  2  2  0
  4  2  1  0
  5  4  1  0
  6  5  1  0
  6  7  1  0
  7  8  1  0
  8  9  1  1
 10 17  1  0
 10  8  1  0
 11 10  2  0
 12 13  1  0
 13 14  1  0
 16 15  1  6
 15 14  1  0
 16 17  1  0
 18 20  1  0
 18 16  1  0
 19 18  2  0
 21 20  1  0
 21 22  1  1
 22 23  1  0
 24 21  1  0
 25 24  1  0
 26 24  2  0
M  END
$$$$
