RMC.pdb
     RDKit          3D

 26 25  0  0  1  0  0  0  0  0999 V2000
    6.9601  -13.6123   20.6082 N   0  0  0  0  0  0  0  0  0  0  0  0
    7.9281  -13.2269   19.6304 C   0  0  0  0  0  0  0  0  0  0  0  0
    8.1836  -11.9694   19.4404 N   0  0  0  0  0  0  0  0  0  0  0  0
    8.6296  -14.1801   18.8483 N   0  0  0  0  0  0  0  0  0  0  0  0
    8.3259  -15.5812   18.9149 C   0  0  0  0  0  0  0  0  0  0  0  0
    8.3621  -16.1905   20.2706 C   0  0  0  0  0  0  0  0  0  0  0  0
    9.7518  -16.5463   20.6829 C   0  0  0  0  0  0  0  0  0  0  0  0
    9.6091  -17.3159   22.0096 C   0  0  2  0  0  0  0  0  0  0  0  0
    8.3717  -18.0564   21.9254 N   0  0  0  0  0  0  0  0  0  0  0  0
    9.6083  -16.3288   23.0959 C   0  0  0  0  0  0  0  0  0  0  0  0
   10.6802  -15.6538   23.2697 O   0  0  0  0  0  0  0  0  0  0  0  0
    8.8333  -11.6237   18.7308 C   0  0  0  0  0  0  0  0  0  0  0  0
    5.8316  -11.6797   25.6364 S   0  0  0  0  0  0  0  0  0  0  0  0
    7.4583  -12.2821   26.1379 C   0  0  0  0  0  0  0  0  0  0  0  0
    7.2085  -13.9936   26.7848 C   0  0  0  0  0  0  0  0  0  0  0  0
    7.2828  -14.8926   25.6143 C   0  0  1  0  0  0  0  0  0  0  0  0
    8.6674  -15.0987   25.0765 N   0  0  0  0  0  0  0  0  0  0  0  0
    8.5255  -16.0671   23.9583 C   0  0  0  0  0  0  0  0  0  0  0  0
    9.5620  -15.6621   26.0842 O   0  0  0  0  0  0  0  0  0  0  0  0
   10.0694  -14.9397   27.0220 N   0  0  0  0  0  0  0  0  0  0  0  0
    9.9425  -17.0299   26.1256 C   0  0  1  0  0  0  0  0  0  0  0  0
   10.7769  -17.5435   27.2292 C   0  0  0  0  0  0  0  0  0  0  0  0
    9.7932  -18.0799   28.2793 S   0  0  0  0  0  0  0  0  0  0  0  0
   10.6913  -18.9425   29.5953 C   0  0  0  0  0  0  0  0  0  0  0  0
   11.5874  -18.7098   26.8148 O   0  0  0  0  0  0  0  0  0  0  0  0
   11.3766  -19.3286   25.6065 O   0  0  0  0  0  0  0  0  0  0  0  0
  2  1  1  0
  3  2  2  0
  4  2  1  0
  5  4  1  0
  6  5  1  0
  6  7  1  0
  7  8  1  0
  8  9  1  6
 10 17  1  0
 10  8  1  0
 11 10  2  0
 12 13  1  0
 13 14  1  0
 16 15  1  6
 15 14  1  0
 16 17  1  0
 18 20  1  0
 18 16  1  0
 19 18  2  0
 21 20  1  0
 21 22  1  6
 22 23  1  0
 24 21  1  0
 25 24  1  0
 26 24  2  0
M  END
$$$$
