RMC.pdb
     RDKit          3D

 26 25  0  0  1  0  0  0  0  0999 V2000
    7.9724  -14.7447   17.6684 N   0  0  0  0  0  0  0  0  0  0  0  0
    7.6912  -13.5685   18.4293 C   0  0  0  0  0  0  0  0  0  0  0  0
    8.0892  -12.4125   17.9956 N   0  0  0  0  0  0  0  0  0  0  0  0
    6.9844  -13.6173   19.6583 N   0  0  0  0  0  0  0  0  0  0  0  0
    6.6223  -14.8635   20.2714 C   0  0  0  0  0  0  0  0  0  0  0  0
    7.5313  -16.0088   20.0025 C   0  0  0  0  0  0  0  0  0  0  0  0
    8.1707  -16.5159   21.2523 C   0  0  0  0  0  0  0  0  0  0  0  0
    9.4130  -15.6324   21.4734 C   0  0  2  0  0  0  0  0  0  0  0  0
   10.4902  -16.2424   20.7290 N   0  0  0  0  0  0  0  0  0  0  0  0
    9.6733  -15.5882   22.9172 C   0  0  0  0  0  0  0  0  0  0  0  0
   10.7632  -16.1153   23.3284 O   0  0  0  0  0  0  0  0  0  0  0  0
    7.8600  -11.5264   18.4511 C   0  0  0  0  0  0  0  0  0  0  0  0
    6.1785  -12.9657   27.5259 S   0  0  0  0  0  0  0  0  0  0  0  0
    7.0298  -11.7215   26.5321 C   0  0  0  0  0  0  0  0  0  0  0  0
    8.2904  -12.6230   25.5280 C   0  0  0  0  0  0  0  0  0  0  0  0
    8.2403  -14.0321   25.9705 C   0  0  2  0  0  0  0  0  0  0  0  0
    9.2416  -14.9280   25.3045 N   0  0  0  0  0  0  0  0  0  0  0  0
    8.8219  -15.0140   23.8815 C   0  0  0  0  0  0  0  0  0  0  0  0
    9.2393  -16.2687   25.8838 O   0  0  0  0  0  0  0  0  0  0  0  0
    8.2141  -17.0437   25.7984 N   0  0  0  0  0  0  0  0  0  0  0  0
   10.3450  -16.8318   26.5749 C   0  0  1  0  0  0  0  0  0  0  0  0
   10.2191  -18.1344   27.2571 C   0  0  0  0  0  0  0  0  0  0  0  0
   11.4909  -18.9164   26.8980 S   0  0  0  0  0  0  0  0  0  0  0  0
   11.7485  -18.9032   25.1046 C   0  0  0  0  0  0  0  0  0  0  0  0
   10.2442  -17.9936   28.7296 O   0  0  0  0  0  0  0  0  0  0  0  0
   10.1685  -19.0929   29.5501 O   0  0  0  0  0  0  0  0  0  0  0  0
  2  1  1  0
  3  2  2  0
  4  2  1  0
  5  4  1  0
  6  5  1  0
  6  7  1  0
  7  8  1  0
  8  9  1  6
 10 17  1  0
 10  8  1  0
 11 10  2  0
 12 13  1  0
 13 14  1  0
 16 15  1  6
 15 14  1  0
 16 17  1  0
 18 20  1  0
 18 16  1  0
 19 18  2  0
 21 20  1  0
 21 22  1  1
 22 23  1  0
 24 21  1  0
 25 24  1  0
 26 24  2  0
M  END
$$$$
