RMC.pdb
     RDKit          3D

 26 25  0  0  1  0  0  0  0  0999 V2000
    7.7696  -14.0486   15.9965 N   0  0  0  0  0  0  0  0  0  0  0  0
    8.1756  -13.6666   17.3122 C   0  0  0  0  0  0  0  0  0  0  0  0
    8.2580  -12.4090   17.6193 N   0  0  0  0  0  0  0  0  0  0  0  0
    8.4974  -14.6235   18.3089 N   0  0  0  0  0  0  0  0  0  0  0  0
    8.5037  -16.0312   18.0293 C   0  0  0  0  0  0  0  0  0  0  0  0
    8.8001  -16.9217   19.1823 C   0  0  0  0  0  0  0  0  0  0  0  0
    9.7754  -16.3017   20.1269 C   0  0  0  0  0  0  0  0  0  0  0  0
    9.8161  -17.2315   21.3543 C   0  0  2  0  0  0  0  0  0  0  0  0
    8.6013  -18.0122   21.3203 N   0  0  0  0  0  0  0  0  0  0  0  0
    9.9139  -16.3837   22.5486 C   0  0  0  0  0  0  0  0  0  0  0  0
   11.0058  -15.7402   22.7175 O   0  0  0  0  0  0  0  0  0  0  0  0
    8.5928  -12.0667   18.5226 C   0  0  0  0  0  0  0  0  0  0  0  0
    5.8900  -12.0353   27.5883 S   0  0  0  0  0  0  0  0  0  0  0  0
    5.9280  -13.2814   26.2820 C   0  0  0  0  0  0  0  0  0  0  0  0
    7.6872  -13.8185   26.1187 C   0  0  0  0  0  0  0  0  0  0  0  0
    7.7227  -14.7820   24.9988 C   0  0  2  0  0  0  0  0  0  0  0  0
    9.0932  -15.2851   24.6559 N   0  0  0  0  0  0  0  0  0  0  0  0
    8.9053  -16.2234   23.5189 C   0  0  0  0  0  0  0  0  0  0  0  0
    9.7016  -16.0045   25.7719 O   0  0  0  0  0  0  0  0  0  0  0  0
    9.8022  -17.2885   25.7781 N   0  0  0  0  0  0  0  0  0  0  0  0
   10.2320  -15.3684   26.9257 C   0  0  2  0  0  0  0  0  0  0  0  0
   10.9561  -16.1496   27.9471 C   0  0  0  0  0  0  0  0  0  0  0  0
   10.8353  -15.3446   29.2492 S   0  0  0  0  0  0  0  0  0  0  0  0
   10.9560  -13.5705   28.9017 C   0  0  0  0  0  0  0  0  0  0  0  0
   10.2992  -17.4465   28.2218 O   0  0  0  0  0  0  0  0  0  0  0  0
   10.9259  -18.4172   28.9651 O   0  0  0  0  0  0  0  0  0  0  0  0
  2  1  1  0
  3  2  2  0
  4  2  1  0
  5  4  1  0
  6  5  1  0
  6  7  1  0
  7  8  1  0
  8  9  1  1
 10 17  1  0
 10  8  1  0
 11 10  2  0
 12 13  1  0
 13 14  1  0
 16 15  1  6
 15 14  1  0
 16 17  1  0
 18 20  1  0
 18 16  1  0
 19 18  2  0
 21 20  1  0
 21 22  1  1
 22 23  1  0
 24 21  1  0
 25 24  1  0
 26 24  2  0
M  END
$$$$
