RMC.pdb
     RDKit          3D

 26 25  0  0  1  0  0  0  0  0999 V2000
    9.4857  -15.2426   15.6435 N   0  0  0  0  0  0  0  0  0  0  0  0
    8.2586  -14.7690   15.0853 C   0  0  0  0  0  0  0  0  0  0  0  0
    8.0789  -14.8102   13.8013 N   0  0  0  0  0  0  0  0  0  0  0  0
    7.2153  -14.2476   15.8928 N   0  0  0  0  0  0  0  0  0  0  0  0
    7.2799  -14.2852   17.3261 C   0  0  0  0  0  0  0  0  0  0  0  0
    8.5506  -13.8077   17.9325 C   0  0  0  0  0  0  0  0  0  0  0  0
    8.4001  -13.5302   19.3913 C   0  0  0  0  0  0  0  0  0  0  0  0
    8.8028  -14.8333   20.1074 C   0  0  2  0  0  0  0  0  0  0  0  0
    7.6617  -15.7155   20.0301 N   0  0  0  0  0  0  0  0  0  0  0  0
    9.1613  -14.4869   21.4880 C   0  0  0  0  0  0  0  0  0  0  0  0
   10.2104  -13.7756   21.6558 O   0  0  0  0  0  0  0  0  0  0  0  0
    7.2383  -14.4620   13.3350 C   0  0  0  0  0  0  0  0  0  0  0  0
    6.1938  -11.8249   27.9871 S   0  0  0  0  0  0  0  0  0  0  0  0
    6.0016  -12.7599   26.4543 C   0  0  0  0  0  0  0  0  0  0  0  0
    7.6999  -13.2544   25.9238 C   0  0  0  0  0  0  0  0  0  0  0  0
    7.5374  -13.9928   24.6540 C   0  0  2  0  0  0  0  0  0  0  0  0
    8.8256  -14.3530   23.9761 N   0  0  0  0  0  0  0  0  0  0  0  0
    8.4447  -14.8739   22.6375 C   0  0  0  0  0  0  0  0  0  0  0  0
    9.5490  -15.3924   24.7037 O   0  0  0  0  0  0  0  0  0  0  0  0
   10.7759  -15.6795   24.4370 N   0  0  0  0  0  0  0  0  0  0  0  0
    8.9808  -16.1620   25.7536 C   0  0  1  0  0  0  0  0  0  0  0  0
    9.8036  -17.1300   26.5044 C   0  0  0  0  0  0  0  0  0  0  0  0
   10.7215  -16.2875   27.4019 S   0  0  0  0  0  0  0  0  0  0  0  0
    9.7337  -15.1994   28.4617 C   0  0  0  0  0  0  0  0  0  0  0  0
    8.9899  -17.9493   27.4294 O   0  0  0  0  0  0  0  0  0  0  0  0
    9.5730  -18.8799   28.2548 O   0  0  0  0  0  0  0  0  0  0  0  0
  2  1  1  0
  3  2  2  0
  4  2  1  0
  5  4  1  0
  6  5  1  0
  6  7  1  0
  7  8  1  0
  8  9  1  1
 10 17  1  0
 10  8  1  0
 11 10  2  0
 12 13  1  0
 13 14  1  0
 16 15  1  6
 15 14  1  0
 16 17  1  0
 18 20  1  0
 18 16  1  0
 19 18  2  0
 21 20  1  0
 21 22  1  1
 22 23  1  0
 24 21  1  0
 25 24  1  0
 26 24  2  0
M  END
$$$$
