RMC.pdb
     RDKit          3D

 26 25  0  0  1  0  0  0  0  0999 V2000
    9.7335  -15.2259   17.2520 N   0  0  0  0  0  0  0  0  0  0  0  0
    8.9563  -14.3067   16.4821 C   0  0  0  0  0  0  0  0  0  0  0  0
    9.0012  -14.3553   15.1866 N   0  0  0  0  0  0  0  0  0  0  0  0
    8.1267  -13.3289   17.0888 N   0  0  0  0  0  0  0  0  0  0  0  0
    7.9775  -13.2450   18.5138 C   0  0  0  0  0  0  0  0  0  0  0  0
    7.2721  -14.3821   19.1617 C   0  0  0  0  0  0  0  0  0  0  0  0
    7.0323  -14.1323   20.6136 C   0  0  0  0  0  0  0  0  0  0  0  0
    7.6428  -15.3391   21.3509 C   0  0  2  0  0  0  0  0  0  0  0  0
    6.5931  -16.3244   21.4683 N   0  0  0  0  0  0  0  0  0  0  0  0
    8.1251  -14.8642   22.6533 C   0  0  0  0  0  0  0  0  0  0  0  0
    9.1752  -14.1346   22.6543 O   0  0  0  0  0  0  0  0  0  0  0  0
    8.5250  -13.6866   14.5772 C   0  0  0  0  0  0  0  0  0  0  0  0
    6.6296  -10.6643   27.2484 S   0  0  0  0  0  0  0  0  0  0  0  0
    5.4567  -11.9059   26.6627 C   0  0  0  0  0  0  0  0  0  0  0  0
    6.2934  -12.8125   25.2885 C   0  0  0  0  0  0  0  0  0  0  0  0
    6.8949  -14.0183   25.8951 C   0  0  2  0  0  0  0  0  0  0  0  0
    8.0751  -14.5657   25.1493 N   0  0  0  0  0  0  0  0  0  0  0  0
    7.5260  -15.1469   23.8966 C   0  0  0  0  0  0  0  0  0  0  0  0
    8.7540  -15.6157   25.9041 O   0  0  0  0  0  0  0  0  0  0  0  0
    8.9337  -15.5294   27.1765 N   0  0  0  0  0  0  0  0  0  0  0  0
    9.2627  -16.8056   25.3187 C   0  0  1  0  0  0  0  0  0  0  0  0
    9.8886  -17.8463   26.1572 C   0  0  0  0  0  0  0  0  0  0  0  0
    8.7344  -18.5220   26.9117 S   0  0  0  0  0  0  0  0  0  0  0  0
    7.4494  -19.0488   25.7481 C   0  0  0  0  0  0  0  0  0  0  0  0
   10.5084  -18.9152   25.3435 O   0  0  0  0  0  0  0  0  0  0  0  0
   11.2187  -19.9340   25.9308 O   0  0  0  0  0  0  0  0  0  0  0  0
  2  1  1  0
  3  2  2  0
  4  2  1  0
  5  4  1  0
  6  5  1  0
  6  7  1  0
  7  8  1  0
  8  9  1  1
 10 17  1  0
 10  8  1  0
 11 10  2  0
 12 13  1  0
 13 14  1  0
 16 15  1  6
 15 14  1  0
 16 17  1  0
 18 20  1  0
 18 16  1  0
 19 18  2  0
 21 20  1  0
 21 22  1  1
 22 23  1  0
 24 21  1  0
 25 24  1  0
 26 24  2  0
M  END
$$$$
