RMC.pdb
     RDKit          3D

 26 25  0  0  1  0  0  0  0  0999 V2000
    8.4752  -13.2181   15.1885 N   0  0  0  0  0  0  0  0  0  0  0  0
    8.0651  -13.2704   16.5563 C   0  0  0  0  0  0  0  0  0  0  0  0
    8.4750  -12.3604   17.3850 N   0  0  0  0  0  0  0  0  0  0  0  0
    7.2159  -14.2940   17.0496 N   0  0  0  0  0  0  0  0  0  0  0  0
    6.8557  -14.3725   18.4367 C   0  0  0  0  0  0  0  0  0  0  0  0
    7.5822  -15.3906   19.2404 C   0  0  0  0  0  0  0  0  0  0  0  0
    8.3275  -14.7730   20.3766 C   0  0  0  0  0  0  0  0  0  0  0  0
    8.9111  -15.9497   21.1814 C   0  0  2  0  0  0  0  0  0  0  0  0
    7.9854  -17.0487   21.0343 N   0  0  0  0  0  0  0  0  0  0  0  0
    9.0516  -15.5070   22.5738 C   0  0  0  0  0  0  0  0  0  0  0  0
    9.4100  -14.2947   22.7656 O   0  0  0  0  0  0  0  0  0  0  0  0
    8.2039  -12.3272   18.3701 C   0  0  0  0  0  0  0  0  0  0  0  0
    7.3905  -11.1946   25.5042 S   0  0  0  0  0  0  0  0  0  0  0  0
    6.5236  -12.6144   26.2064 C   0  0  0  0  0  0  0  0  0  0  0  0
    7.7850  -13.9456   26.4237 C   0  0  0  0  0  0  0  0  0  0  0  0
    7.9001  -14.6231   25.1155 C   0  0  1  0  0  0  0  0  0  0  0  0
    8.9154  -15.7260   25.0747 N   0  0  0  0  0  0  0  0  0  0  0  0
    8.8241  -16.3077   23.7103 C   0  0  0  0  0  0  0  0  0  0  0  0
    8.6247  -16.7671   26.0570 O   0  0  0  0  0  0  0  0  0  0  0  0
    7.6865  -17.6303   25.8743 N   0  0  0  0  0  0  0  0  0  0  0  0
    9.3378  -16.9240   27.2753 C   0  0  1  0  0  0  0  0  0  0  0  0
   10.0770  -18.1698   27.5569 C   0  0  0  0  0  0  0  0  0  0  0  0
   11.2047  -18.2284   26.5162 S   0  0  0  0  0  0  0  0  0  0  0  0
   12.0793  -19.8112   26.6295 C   0  0  0  0  0  0  0  0  0  0  0  0
   10.7543  -18.1274   28.8716 O   0  0  0  0  0  0  0  0  0  0  0  0
   10.9726  -19.2741   29.5960 O   0  0  0  0  0  0  0  0  0  0  0  0
  2  1  1  0
  3  2  2  0
  4  2  1  0
  5  4  1  0
  6  5  1  0
  6  7  1  0
  7  8  1  0
  8  9  1  1
 10 17  1  0
 10  8  1  0
 11 10  2  0
 12 13  1  0
 13 14  1  0
 16 15  1  6
 15 14  1  0
 16 17  1  0
 18 20  1  0
 18 16  1  0
 19 18  2  0
 21 20  1  0
 21 22  1  1
 22 23  1  0
 24 21  1  0
 25 24  1  0
 26 24  2  0
M  END
$$$$
