RMC.pdb
     RDKit          3D

 26 25  0  0  1  0  0  0  0  0999 V2000
    8.0801  -12.6343   16.2765 N   0  0  0  0  0  0  0  0  0  0  0  0
    8.3607  -14.0332   16.1992 C   0  0  0  0  0  0  0  0  0  0  0  0
    8.5854  -14.5804   15.0447 N   0  0  0  0  0  0  0  0  0  0  0  0
    8.4028  -14.8581   17.3526 N   0  0  0  0  0  0  0  0  0  0  0  0
    8.1671  -14.3306   18.6664 C   0  0  0  0  0  0  0  0  0  0  0  0
    8.2503  -15.3078   19.7838 C   0  0  0  0  0  0  0  0  0  0  0  0
    9.6271  -15.8643   19.9337 C   0  0  0  0  0  0  0  0  0  0  0  0
    9.5847  -16.7479   21.1948 C   0  0  2  0  0  0  0  0  0  0  0  0
    8.3339  -17.4691   21.1508 N   0  0  0  0  0  0  0  0  0  0  0  0
    9.6894  -15.8615   22.3600 C   0  0  0  0  0  0  0  0  0  0  0  0
   10.7274  -15.1187   22.4348 O   0  0  0  0  0  0  0  0  0  0  0  0
    8.7990  -15.5723   14.9193 C   0  0  0  0  0  0  0  0  0  0  0  0
    6.0527  -11.5314   27.6397 S   0  0  0  0  0  0  0  0  0  0  0  0
    5.9849  -12.7871   26.3440 C   0  0  0  0  0  0  0  0  0  0  0  0
    7.7145  -13.3876   26.1028 C   0  0  0  0  0  0  0  0  0  0  0  0
    7.6678  -14.3389   24.9729 C   0  0  2  0  0  0  0  0  0  0  0  0
    9.0010  -14.9015   24.5794 N   0  0  0  0  0  0  0  0  0  0  0  0
    8.7415  -15.7643   23.3976 C   0  0  0  0  0  0  0  0  0  0  0  0
    9.5820  -15.7145   25.6446 O   0  0  0  0  0  0  0  0  0  0  0  0
    9.6415  -16.9985   25.5633 N   0  0  0  0  0  0  0  0  0  0  0  0
   10.1284  -15.1759   26.8399 C   0  0  1  0  0  0  0  0  0  0  0  0
   11.0181  -15.9892   27.6913 C   0  0  0  0  0  0  0  0  0  0  0  0
   11.2897  -15.1386   28.9406 S   0  0  0  0  0  0  0  0  0  0  0  0
   11.0059  -13.3861   28.5786 C   0  0  0  0  0  0  0  0  0  0  0  0
   10.3477  -17.2125   28.1841 O   0  0  0  0  0  0  0  0  0  0  0  0
   11.0209  -18.1315   28.9521 O   0  0  0  0  0  0  0  0  0  0  0  0
  2  1  1  0
  3  2  2  0
  4  2  1  0
  5  4  1  0
  6  5  1  0
  6  7  1  0
  7  8  1  0
  8  9  1  1
 10 17  1  0
 10  8  1  0
 11 10  2  0
 12 13  1  0
 13 14  1  0
 16 15  1  6
 15 14  1  0
 16 17  1  0
 18 20  1  0
 18 16  1  0
 19 18  2  0
 21 20  1  0
 21 22  1  1
 22 23  1  0
 24 21  1  0
 25 24  1  0
 26 24  2  0
M  END
$$$$
