TWT.pdb
     RDKit          3D

 29 30  0  0  1  0  0  0  0  0999 V2000
   28.4796  -18.7486  -16.1813 C   0  0  0  0  0  0  0  0  0  0  0  0
   27.6741  -19.2930  -15.0159 C   0  0  1  0  0  0  0  0  0  0  0  0
   26.3433  -19.4596  -15.3940 O   0  0  0  0  0  0  0  0  0  0  0  0
   28.2152  -20.6200  -14.5234 C   0  0  2  0  0  0  0  0  0  0  0  0
   27.8869  -21.6023  -15.5466 N   0  0  0  0  0  0  0  0  0  0  0  0
   27.5441  -21.0266  -13.2488 C   0  0  0  0  0  0  0  0  0  0  0  0
   26.5150  -21.7601  -13.3003 O   0  0  0  0  0  0  0  0  0  0  0  0
   28.0051  -20.6301  -11.9845 N   0  0  0  0  0  0  0  0  0  0  0  0
   27.1913  -20.9271  -10.7838 C   0  0  1  0  0  0  0  0  0  0  0  0
   27.9748  -20.4860   -9.5929 C   0  0  0  0  0  0  0  0  0  0  0  0
   27.2597  -20.5323   -8.3245 C   0  0  0  0  0  0  0  0  0  0  0  0
   25.9505  -20.9912   -8.1837 C   0  0  0  0  0  0  0  0  0  0  0  0
   25.5822  -20.8584   -6.9029 N   0  0  0  0  0  0  0  0  0  0  0  0
   26.5995  -20.3319   -6.2046 C   0  0  0  0  0  0  0  0  0  0  0  0
   26.6651  -20.0424   -4.8529 C   0  0  0  0  0  0  0  0  0  0  0  0
   27.8486  -19.5241   -4.3731 C   0  0  0  0  0  0  0  0  0  0  0  0
   28.9341  -19.3023   -5.2239 C   0  0  0  0  0  0  0  0  0  0  0  0
   28.8402  -19.5976   -6.5599 C   0  0  0  0  0  0  0  0  0  0  0  0
   27.6610  -20.1215   -7.0799 C   0  0  0  0  0  0  0  0  0  0  0  0
   25.8952  -20.2684  -10.9005 C   0  0  0  0  0  0  0  0  0  0  0  0
   25.7567  -19.0229  -10.8237 O   0  0  0  0  0  0  0  0  0  0  0  0
   23.0882  -22.1365  -13.2671 C   0  0  0  0  0  0  0  0  0  0  0  0
   23.2530  -20.6503  -13.0883 C   0  0  1  0  0  0  0  0  0  0  0  0
   22.1164  -19.9604  -13.5314 O   0  0  0  0  0  0  0  0  0  0  0  0
   23.5044  -20.3333  -11.6268 C   0  0  2  0  0  0  0  0  0  0  0  0
   24.6734  -21.0064  -11.1123 N   0  0  0  0  0  0  0  0  0  0  0  0
   22.3186  -20.7639  -10.8123 C   0  0  0  0  0  0  0  0  0  0  0  0
   21.2044  -20.2683  -11.0458 O   0  0  0  0  0  0  0  0  0  0  0  0
   22.4824  -21.7121   -9.8075 O   0  0  0  0  0  0  0  0  0  0  0  0
  2  1  1  6
  2  4  1  0
  3  2  1  0
  4  5  1  6
  6  4  1  0
  6  7  2  0
  8  9  1  0
  8  6  1  0
 10 11  1  0
  9 10  1  1
 11 19  1  0
 12 13  1  0
 12 11  2  0
 13 14  1  0
 14 19  2  0
 14 15  1  0
 15 16  2  0
 16 17  1  0
 18 17  2  0
 19 18  1  0
 20  9  1  0
 21 20  2  0
 23 22  1  1
 23 25  1  0
 24 23  1  0
 25 27  1  0
 25 26  1  1
 26 20  1  0
 27 29  1  0
 28 27  2  0
M  END
$$$$
