TWT.pdb
     RDKit          3D

 29 30  0  0  1  0  0  0  0  0999 V2000
   28.3389  -18.8880  -16.2384 C   0  0  0  0  0  0  0  0  0  0  0  0
   27.5415  -19.3844  -15.0463 C   0  0  1  0  0  0  0  0  0  0  0  0
   26.2132  -19.5890  -15.4143 O   0  0  0  0  0  0  0  0  0  0  0  0
   28.1018  -20.6769  -14.4879 C   0  0  2  0  0  0  0  0  0  0  0  0
   27.7935  -21.7131  -15.4630 N   0  0  0  0  0  0  0  0  0  0  0  0
   27.4321  -21.0317  -13.1971 C   0  0  0  0  0  0  0  0  0  0  0  0
   26.5361  -21.9244  -13.1923 O   0  0  0  0  0  0  0  0  0  0  0  0
   27.7525  -20.4164  -11.9778 N   0  0  0  0  0  0  0  0  0  0  0  0
   26.9792  -20.7572  -10.7619 C   0  0  1  0  0  0  0  0  0  0  0  0
   27.7579  -20.2696   -9.5862 C   0  0  0  0  0  0  0  0  0  0  0  0
   27.1236  -20.4738   -8.2906 C   0  0  0  0  0  0  0  0  0  0  0  0
   25.8649  -21.0491   -8.1207 C   0  0  0  0  0  0  0  0  0  0  0  0
   25.5624  -21.0476   -6.8159 N   0  0  0  0  0  0  0  0  0  0  0  0
   26.5742  -20.4948   -6.1302 C   0  0  0  0  0  0  0  0  0  0  0  0
   26.6955  -20.3072   -4.7644 C   0  0  0  0  0  0  0  0  0  0  0  0
   27.8606  -19.7317   -4.3052 C   0  0  0  0  0  0  0  0  0  0  0  0
   28.8740  -19.3550   -5.1899 C   0  0  0  0  0  0  0  0  0  0  0  0
   28.7260  -19.5519   -6.5390 C   0  0  0  0  0  0  0  0  0  0  0  0
   27.5632  -20.1296   -7.0388 C   0  0  0  0  0  0  0  0  0  0  0  0
   25.6456  -20.1739  -10.8553 C   0  0  0  0  0  0  0  0  0  0  0  0
   25.4395  -18.9368  -10.7966 O   0  0  0  0  0  0  0  0  0  0  0  0
   22.8277  -22.5017  -12.8073 C   0  0  0  0  0  0  0  0  0  0  0  0
   22.9012  -21.0018  -12.9219 C   0  0  1  0  0  0  0  0  0  0  0  0
   21.6819  -20.4698  -13.3627 O   0  0  0  0  0  0  0  0  0  0  0  0
   23.2635  -20.4009  -11.5775 C   0  0  2  0  0  0  0  0  0  0  0  0
   24.4621  -20.9826  -11.0214 N   0  0  0  0  0  0  0  0  0  0  0  0
   22.1383  -20.6298  -10.6099 C   0  0  0  0  0  0  0  0  0  0  0  0
   22.3428  -21.2935   -9.5807 O   0  0  0  0  0  0  0  0  0  0  0  0
   20.8818  -20.0958  -10.8777 O   0  0  0  0  0  0  0  0  0  0  0  0
  2  1  1  6
  2  4  1  0
  3  2  1  0
  4  5  1  6
  6  4  1  0
  6  7  2  0
  8  9  1  0
  8  6  1  0
 10 11  1  0
  9 10  1  1
 11 19  1  0
 12 13  1  0
 12 11  2  0
 13 14  1  0
 14 19  2  0
 14 15  1  0
 15 16  2  0
 16 17  1  0
 18 17  2  0
 19 18  1  0
 20  9  1  0
 21 20  2  0
 23 22  1  1
 23 25  1  0
 24 23  1  0
 25 27  1  0
 25 26  1  1
 26 20  1  0
 27 29  1  0
 28 27  2  0
M  END
$$$$
