TWT.pdb
     RDKit          3D

 29 30  0  0  1  0  0  0  0  0999 V2000
   25.7684  -21.7563  -17.5357 C   0  0  0  0  0  0  0  0  0  0  0  0
   26.5552  -23.0514  -17.4534 C   0  0  1  0  0  0  0  0  0  0  0  0
   27.2385  -23.2698  -18.6480 O   0  0  0  0  0  0  0  0  0  0  0  0
   27.5520  -23.0377  -16.3121 C   0  0  2  0  0  0  0  0  0  0  0  0
   28.0476  -24.4006  -16.1836 N   0  0  0  0  0  0  0  0  0  0  0  0
   26.8833  -22.6576  -15.0280 C   0  0  0  0  0  0  0  0  0  0  0  0
   26.2777  -23.5457  -14.3616 O   0  0  0  0  0  0  0  0  0  0  0  0
   26.8951  -21.3498  -14.5205 N   0  0  0  0  0  0  0  0  0  0  0  0
   26.1452  -21.0399  -13.2819 C   0  0  1  0  0  0  0  0  0  0  0  0
   26.9228  -20.0079  -12.5356 C   0  0  0  0  0  0  0  0  0  0  0  0
   27.7510  -20.5160  -11.4501 C   0  0  0  0  0  0  0  0  0  0  0  0
   29.0306  -21.0413  -11.6259 C   0  0  0  0  0  0  0  0  0  0  0  0
   29.4934  -21.4563  -10.4395 N   0  0  0  0  0  0  0  0  0  0  0  0
   28.5661  -21.2216   -9.4988 C   0  0  0  0  0  0  0  0  0  0  0  0
   28.6276  -21.4726   -8.1392 C   0  0  0  0  0  0  0  0  0  0  0  0
   27.5371  -21.1099   -7.3784 C   0  0  0  0  0  0  0  0  0  0  0  0
   26.4178  -20.5135   -7.9640 C   0  0  0  0  0  0  0  0  0  0  0  0
   26.3841  -20.2777   -9.3146 C   0  0  0  0  0  0  0  0  0  0  0  0
   27.4663  -20.6310  -10.1142 C   0  0  0  0  0  0  0  0  0  0  0  0
   24.7947  -20.6101  -13.6265 C   0  0  0  0  0  0  0  0  0  0  0  0
   24.5641  -19.6263  -14.3716 O   0  0  0  0  0  0  0  0  0  0  0  0
   22.1289  -22.3936  -15.4542 C   0  0  0  0  0  0  0  0  0  0  0  0
   21.4909  -21.9585  -14.1613 C   0  0  1  0  0  0  0  0  0  0  0  0
   21.3879  -23.0304  -13.2644 O   0  0  0  0  0  0  0  0  0  0  0  0
   22.3079  -20.8455  -13.5342 C   0  0  2  0  0  0  0  0  0  0  0  0
   23.6215  -21.2889  -13.1312 N   0  0  0  0  0  0  0  0  0  0  0  0
   21.5943  -20.3275  -12.3187 C   0  0  0  0  0  0  0  0  0  0  0  0
   22.1462  -20.3998  -11.2089 O   0  0  0  0  0  0  0  0  0  0  0  0
   20.3251  -19.7732  -12.4507 O   0  0  0  0  0  0  0  0  0  0  0  0
  2  1  1  6
  2  4  1  0
  3  2  1  0
  4  5  1  1
  6  4  1  0
  6  7  2  0
  8  9  1  0
  8  6  1  0
 10 11  1  0
  9 10  1  6
 11 19  1  0
 12 13  1  0
 12 11  2  0
 13 14  1  0
 14 19  2  0
 14 15  1  0
 15 16  2  0
 16 17  1  0
 18 17  2  0
 19 18  1  0
 20  9  1  0
 21 20  2  0
 23 22  1  6
 23 25  1  0
 24 23  1  0
 25 27  1  0
 25 26  1  1
 26 20  1  0
 27 29  1  0
 28 27  2  0
M  END
$$$$
