TWT.pdb
     RDKit          3D

 29 30  0  0  1  0  0  0  0  0999 V2000
   29.1017  -23.1410  -17.9876 C   0  0  0  0  0  0  0  0  0  0  0  0
   28.2567  -23.1221  -16.7271 C   0  0  1  0  0  0  0  0  0  0  0  0
   28.6584  -22.0746  -15.9007 O   0  0  0  0  0  0  0  0  0  0  0  0
   26.7813  -22.9669  -17.0359 C   0  0  2  0  0  0  0  0  0  0  0  0
   26.6354  -21.6836  -17.7079 N   0  0  0  0  0  0  0  0  0  0  0  0
   25.9760  -22.9313  -15.7747 C   0  0  0  0  0  0  0  0  0  0  0  0
   25.5982  -24.0199  -15.2532 O   0  0  0  0  0  0  0  0  0  0  0  0
   25.6151  -21.7365  -15.1342 N   0  0  0  0  0  0  0  0  0  0  0  0
   24.7302  -21.7817  -13.9479 C   0  0  1  0  0  0  0  0  0  0  0  0
   25.1128  -20.6436  -13.0618 C   0  0  0  0  0  0  0  0  0  0  0  0
   24.5265  -20.6678  -11.7283 C   0  0  0  0  0  0  0  0  0  0  0  0
   25.1414  -21.2423  -10.6166 C   0  0  0  0  0  0  0  0  0  0  0  0
   24.3198  -21.1329   -9.5645 N   0  0  0  0  0  0  0  0  0  0  0  0
   23.1951  -20.5099   -9.9473 C   0  0  0  0  0  0  0  0  0  0  0  0
   22.0895  -20.1717   -9.1866 C   0  0  0  0  0  0  0  0  0  0  0  0
   21.0642  -19.5043   -9.8215 C   0  0  0  0  0  0  0  0  0  0  0  0
   21.1453  -19.1859  -11.1793 C   0  0  0  0  0  0  0  0  0  0  0  0
   22.2530  -19.5346  -11.9088 C   0  0  0  0  0  0  0  0  0  0  0  0
   23.3072  -20.2095  -11.3017 C   0  0  0  0  0  0  0  0  0  0  0  0
   23.3375  -21.7370  -14.3789 C   0  0  0  0  0  0  0  0  0  0  0  0
   22.9012  -20.8733  -15.1787 O   0  0  0  0  0  0  0  0  0  0  0  0
   21.2273  -24.1948  -16.2300 C   0  0  0  0  0  0  0  0  0  0  0  0
   20.4841  -23.8928  -14.9555 C   0  0  1  0  0  0  0  0  0  0  0  0
   20.6409  -24.9276  -14.0234 O   0  0  0  0  0  0  0  0  0  0  0  0
   20.9886  -22.5915  -14.3624 C   0  0  2  0  0  0  0  0  0  0  0  0
   22.3570  -22.6876  -13.9124 N   0  0  0  0  0  0  0  0  0  0  0  0
   20.1335  -22.2149  -13.1870 C   0  0  0  0  0  0  0  0  0  0  0  0
   20.6297  -22.2037  -12.0489 O   0  0  0  0  0  0  0  0  0  0  0  0
   18.7973  -21.8831  -13.3870 O   0  0  0  0  0  0  0  0  0  0  0  0
  2  1  1  6
  2  4  1  0
  3  2  1  0
  4  5  1  1
  6  4  1  0
  6  7  2  0
  8  9  1  0
  8  6  1  0
 10 11  1  0
  9 10  1  1
 11 19  1  0
 12 13  1  0
 12 11  2  0
 13 14  1  0
 14 19  2  0
 14 15  1  0
 15 16  2  0
 16 17  1  0
 18 17  2  0
 19 18  1  0
 20  9  1  0
 21 20  2  0
 23 22  1  6
 23 25  1  0
 24 23  1  0
 25 27  1  0
 25 26  1  1
 26 20  1  0
 27 29  1  0
 28 27  2  0
M  END
$$$$
