TWT.pdb
     RDKit          3D

 29 30  0  0  1  0  0  0  0  0999 V2000
   28.5551  -18.8890  -16.0961 C   0  0  0  0  0  0  0  0  0  0  0  0
   27.4659  -19.5376  -15.2617 C   0  0  1  0  0  0  0  0  0  0  0  0
   26.5848  -20.2332  -16.0873 O   0  0  0  0  0  0  0  0  0  0  0  0
   28.0338  -20.4935  -14.2323 C   0  0  2  0  0  0  0  0  0  0  0  0
   28.5839  -21.6180  -14.9757 N   0  0  0  0  0  0  0  0  0  0  0  0
   26.9536  -21.0080  -13.3328 C   0  0  0  0  0  0  0  0  0  0  0  0
   26.4375  -22.1376  -13.5723 O   0  0  0  0  0  0  0  0  0  0  0  0
   26.4794  -20.2912  -12.2240 N   0  0  0  0  0  0  0  0  0  0  0  0
   25.4040  -20.8689  -11.3860 C   0  0  1  0  0  0  0  0  0  0  0  0
   25.5944  -20.3548   -9.9982 C   0  0  0  0  0  0  0  0  0  0  0  0
   26.8984  -20.6246   -9.4072 C   0  0  0  0  0  0  0  0  0  0  0  0
   27.8857  -21.3981  -10.0164 C   0  0  0  0  0  0  0  0  0  0  0  0
   28.9373  -21.4835   -9.1914 N   0  0  0  0  0  0  0  0  0  0  0  0
   28.6738  -20.7961   -8.0699 C   0  0  0  0  0  0  0  0  0  0  0  0
   29.4808  -20.6015   -6.9625 C   0  0  0  0  0  0  0  0  0  0  0  0
   28.9781  -19.8241   -5.9415 C   0  0  0  0  0  0  0  0  0  0  0  0
   27.7036  -19.2589   -6.0283 C   0  0  0  0  0  0  0  0  0  0  0  0
   26.9252  -19.4696   -7.1376 C   0  0  0  0  0  0  0  0  0  0  0  0
   27.3993  -20.2494   -8.1877 C   0  0  0  0  0  0  0  0  0  0  0  0
   24.1064  -20.5266  -11.9572 C   0  0  0  0  0  0  0  0  0  0  0  0
   23.7318  -19.3409  -12.1305 O   0  0  0  0  0  0  0  0  0  0  0  0
   22.7048  -22.0527  -15.3024 C   0  0  0  0  0  0  0  0  0  0  0  0
   21.6608  -22.1410  -14.2206 C   0  0  1  0  0  0  0  0  0  0  0  0
   21.5927  -23.4366  -13.6906 O   0  0  0  0  0  0  0  0  0  0  0  0
   21.9817  -21.1540  -13.1149 C   0  0  2  0  0  0  0  0  0  0  0  0
   23.1556  -21.5329  -12.3646 N   0  0  0  0  0  0  0  0  0  0  0  0
   20.8221  -21.0762  -12.1641 C   0  0  0  0  0  0  0  0  0  0  0  0
   20.9696  -21.4478  -10.9887 O   0  0  0  0  0  0  0  0  0  0  0  0
   19.5980  -20.5891  -12.6112 O   0  0  0  0  0  0  0  0  0  0  0  0
  2  1  1  6
  2  4  1  0
  3  2  1  0
  4  5  1  6
  6  4  1  0
  6  7  2  0
  8  9  1  0
  8  6  1  0
 10 11  1  0
  9 10  1  1
 11 19  1  0
 12 13  1  0
 12 11  2  0
 13 14  1  0
 14 19  2  0
 14 15  1  0
 15 16  2  0
 16 17  1  0
 18 17  2  0
 19 18  1  0
 20  9  1  0
 21 20  2  0
 23 22  1  6
 23 25  1  0
 24 23  1  0
 25 27  1  0
 25 26  1  1
 26 20  1  0
 27 29  1  0
 28 27  2  0
M  END
$$$$
