TWT.pdb
     RDKit          3D

 29 30  0  0  1  0  0  0  0  0999 V2000
   27.9319  -22.2970  -15.7227 C   0  0  0  0  0  0  0  0  0  0  0  0
   28.5873  -21.0802  -16.3495 C   0  0  1  0  0  0  0  0  0  0  0  0
   29.7010  -21.4689  -17.0915 O   0  0  0  0  0  0  0  0  0  0  0  0
   27.6337  -20.3248  -17.2530 C   0  0  2  0  0  0  0  0  0  0  0  0
   28.3768  -19.1863  -17.7739 N   0  0  0  0  0  0  0  0  0  0  0  0
   26.4641  -19.8069  -16.4757 C   0  0  0  0  0  0  0  0  0  0  0  0
   26.5892  -18.7371  -15.8126 O   0  0  0  0  0  0  0  0  0  0  0  0
   25.2211  -20.4565  -16.4454 N   0  0  0  0  0  0  0  0  0  0  0  0
   24.1269  -19.9022  -15.6161 C   0  0  1  0  0  0  0  0  0  0  0  0
   22.9307  -19.7543  -16.4958 C   0  0  0  0  0  0  0  0  0  0  0  0
   22.7954  -18.4603  -17.1513 C   0  0  0  0  0  0  0  0  0  0  0  0
   23.6602  -17.9930  -18.1402 C   0  0  0  0  0  0  0  0  0  0  0  0
   23.2820  -16.7583  -18.4959 N   0  0  0  0  0  0  0  0  0  0  0  0
   22.2056  -16.4038  -17.7780 C   0  0  0  0  0  0  0  0  0  0  0  0
   21.4772  -15.2283  -17.8308 C   0  0  0  0  0  0  0  0  0  0  0  0
   20.3857  -15.1217  -16.9959 C   0  0  0  0  0  0  0  0  0  0  0  0
   20.0354  -16.1632  -16.1334 C   0  0  0  0  0  0  0  0  0  0  0  0
   20.7764  -17.3168  -16.1017 C   0  0  0  0  0  0  0  0  0  0  0  0
   21.8852  -17.4597  -16.9297 C   0  0  0  0  0  0  0  0  0  0  0  0
   23.8977  -20.7735  -14.4690 C   0  0  0  0  0  0  0  0  0  0  0  0
   23.8286  -22.0231  -14.5681 O   0  0  0  0  0  0  0  0  0  0  0  0
   26.0323  -21.0243  -11.4033 C   0  0  0  0  0  0  0  0  0  0  0  0
   24.6231  -20.8251  -10.9108 C   0  0  1  0  0  0  0  0  0  0  0  0
   24.4186  -19.5042  -10.4895 O   0  0  0  0  0  0  0  0  0  0  0  0
   23.6402  -21.1664  -12.0140 C   0  0  2  0  0  0  0  0  0  0  0  0
   23.7320  -20.2572  -13.1317 N   0  0  0  0  0  0  0  0  0  0  0  0
   22.2412  -21.1037  -11.4719 C   0  0  0  0  0  0  0  0  0  0  0  0
   21.4582  -20.2405  -11.8999 O   0  0  0  0  0  0  0  0  0  0  0  0
   21.8398  -22.0128  -10.4983 O   0  0  0  0  0  0  0  0  0  0  0  0
  2  1  1  6
  2  4  1  0
  3  2  1  0
  4  5  1  1
  6  4  1  0
  6  7  2  0
  8  9  1  0
  8  6  1  0
 10 11  1  0
  9 10  1  6
 11 19  1  0
 12 13  1  0
 12 11  2  0
 13 14  1  0
 14 19  2  0
 14 15  1  0
 15 16  2  0
 16 17  1  0
 18 17  2  0
 19 18  1  0
 20  9  1  0
 21 20  2  0
 23 22  1  6
 23 25  1  0
 24 23  1  0
 25 27  1  0
 25 26  1  6
 26 20  1  0
 27 29  1  0
 28 27  2  0
M  END
$$$$
