TWT.pdb
     RDKit          3D

 29 30  0  0  1  0  0  0  0  0999 V2000
   29.5505  -18.2344  -14.1374 C   0  0  0  0  0  0  0  0  0  0  0  0
   28.4452  -18.9729  -13.4053 C   0  0  1  0  0  0  0  0  0  0  0  0
   27.3253  -19.0885  -14.2265 O   0  0  0  0  0  0  0  0  0  0  0  0
   28.8805  -20.3574  -12.9695 C   0  0  2  0  0  0  0  0  0  0  0  0
   29.2199  -21.0827  -14.1855 N   0  0  0  0  0  0  0  0  0  0  0  0
   27.7577  -21.0776  -12.2906 C   0  0  0  0  0  0  0  0  0  0  0  0
   27.1123  -21.9569  -12.9309 O   0  0  0  0  0  0  0  0  0  0  0  0
   27.3809  -20.8231  -10.9634 N   0  0  0  0  0  0  0  0  0  0  0  0
   26.2139  -21.5290  -10.3869 C   0  0  1  0  0  0  0  0  0  0  0  0
   26.5050  -21.7677   -8.9430 C   0  0  0  0  0  0  0  0  0  0  0  0
   26.7389  -20.5695   -8.1482 C   0  0  0  0  0  0  0  0  0  0  0  0
   26.2746  -19.3011   -8.4944 C   0  0  0  0  0  0  0  0  0  0  0  0
   26.6994  -18.4212   -7.5783 N   0  0  0  0  0  0  0  0  0  0  0  0
   27.4212  -19.0664   -6.6498 C   0  0  0  0  0  0  0  0  0  0  0  0
   28.0330  -18.5559   -5.5182 C   0  0  0  0  0  0  0  0  0  0  0  0
   28.7007  -19.4450   -4.7037 C   0  0  0  0  0  0  0  0  0  0  0  0
   28.7536  -20.8057   -5.0151 C   0  0  0  0  0  0  0  0  0  0  0  0
   28.1388  -21.2835   -6.1441 C   0  0  0  0  0  0  0  0  0  0  0  0
   27.4561  -20.4155   -6.9902 C   0  0  0  0  0  0  0  0  0  0  0  0
   25.0087  -20.7388  -10.6116 C   0  0  0  0  0  0  0  0  0  0  0  0
   24.9840  -19.4891  -10.4942 O   0  0  0  0  0  0  0  0  0  0  0  0
   21.4361  -20.6929  -13.8782 C   0  0  0  0  0  0  0  0  0  0  0  0
   22.5734  -21.3532  -13.1443 C   0  0  1  0  0  0  0  0  0  0  0  0
   23.7391  -21.3593  -13.9222 O   0  0  0  0  0  0  0  0  0  0  0  0
   22.8346  -20.6253  -11.8398 C   0  0  2  0  0  0  0  0  0  0  0  0
   23.7521  -21.3417  -10.9857 N   0  0  0  0  0  0  0  0  0  0  0  0
   21.5407  -20.4524  -11.0978 C   0  0  0  0  0  0  0  0  0  0  0  0
   21.3402  -21.1025  -10.0592 O   0  0  0  0  0  0  0  0  0  0  0  0
   20.5834  -19.5667  -11.5822 O   0  0  0  0  0  0  0  0  0  0  0  0
  2  1  1  6
  2  4  1  0
  3  2  1  0
  4  5  1  6
  6  4  1  0
  6  7  2  0
  8  9  1  0
  8  6  1  0
 10 11  1  0
  9 10  1  1
 11 19  1  0
 12 13  1  0
 12 11  2  0
 13 14  1  0
 14 19  2  0
 14 15  1  0
 15 16  2  0
 16 17  1  0
 18 17  2  0
 19 18  1  0
 20  9  1  0
 21 20  2  0
 23 22  1  6
 23 25  1  0
 24 23  1  0
 25 27  1  0
 25 26  1  1
 26 20  1  0
 27 29  1  0
 28 27  2  0
M  END
$$$$
