TWT.pdb
     RDKit          3D

 29 30  0  0  1  0  0  0  0  0999 V2000
   27.7473  -18.9640  -15.4434 C   0  0  0  0  0  0  0  0  0  0  0  0
   27.9016  -20.3737  -15.9837 C   0  0  1  0  0  0  0  0  0  0  0  0
   28.7102  -20.3624  -17.1186 O   0  0  0  0  0  0  0  0  0  0  0  0
   28.5067  -21.3109  -14.9581 C   0  0  2  0  0  0  0  0  0  0  0  0
   28.5585  -22.6249  -15.5830 N   0  0  0  0  0  0  0  0  0  0  0  0
   27.6364  -21.4019  -13.7437 C   0  0  0  0  0  0  0  0  0  0  0  0
   26.5693  -22.0786  -13.7989 O   0  0  0  0  0  0  0  0  0  0  0  0
   27.9490  -20.7665  -12.5326 N   0  0  0  0  0  0  0  0  0  0  0  0
   27.0932  -20.9939  -11.3459 C   0  0  1  0  0  0  0  0  0  0  0  0
   27.8633  -20.5485  -10.1480 C   0  0  0  0  0  0  0  0  0  0  0  0
   27.1323  -20.5849   -8.8884 C   0  0  0  0  0  0  0  0  0  0  0  0
   25.7742  -20.8831   -8.7833 C   0  0  0  0  0  0  0  0  0  0  0  0
   25.4095  -20.7866   -7.4982 N   0  0  0  0  0  0  0  0  0  0  0  0
   26.4760  -20.4379   -6.7629 C   0  0  0  0  0  0  0  0  0  0  0  0
   26.5605  -20.2455   -5.3950 C   0  0  0  0  0  0  0  0  0  0  0  0
   27.7936  -19.9120   -4.8775 C   0  0  0  0  0  0  0  0  0  0  0  0
   28.9089  -19.7751   -5.7074 C   0  0  0  0  0  0  0  0  0  0  0  0
   28.7954  -19.9707   -7.0601 C   0  0  0  0  0  0  0  0  0  0  0  0
   27.5664  -20.3078   -7.6181 C   0  0  0  0  0  0  0  0  0  0  0  0
   25.8286  -20.2876  -11.5167 C   0  0  0  0  0  0  0  0  0  0  0  0
   25.7452  -19.0349  -11.5209 O   0  0  0  0  0  0  0  0  0  0  0  0
   23.9672  -19.4464  -14.1930 C   0  0  0  0  0  0  0  0  0  0  0  0
   22.9641  -20.2336  -13.3916 C   0  0  1  0  0  0  0  0  0  0  0  0
   22.8704  -21.5521  -13.8571 O   0  0  0  0  0  0  0  0  0  0  0  0
   23.3637  -20.2364  -11.9287 C   0  0  2  0  0  0  0  0  0  0  0  0
   24.5765  -20.9832  -11.6924 N   0  0  0  0  0  0  0  0  0  0  0  0
   22.2652  -20.8554  -11.1132 C   0  0  0  0  0  0  0  0  0  0  0  0
   22.4943  -21.8882  -10.4634 O   0  0  0  0  0  0  0  0  0  0  0  0
   21.0057  -20.2646  -11.0954 O   0  0  0  0  0  0  0  0  0  0  0  0
  2  1  1  1
  2  4  1  0
  3  2  1  0
  4  5  1  6
  6  4  1  0
  6  7  2  0
  8  9  1  0
  8  6  1  0
 10 11  1  0
  9 10  1  1
 11 19  1  0
 12 13  1  0
 12 11  2  0
 13 14  1  0
 14 19  2  0
 14 15  1  0
 15 16  2  0
 16 17  1  0
 18 17  2  0
 19 18  1  0
 20  9  1  0
 21 20  2  0
 23 22  1  6
 23 25  1  0
 24 23  1  0
 25 27  1  0
 25 26  1  6
 26 20  1  0
 27 29  1  0
 28 27  2  0
M  END
$$$$
