TWT.pdb
     RDKit          3D

 29 30  0  0  1  0  0  0  0  0999 V2000
   29.0848  -22.3334  -17.2134 C   0  0  0  0  0  0  0  0  0  0  0  0
   28.3094  -22.5145  -15.9214 C   0  0  1  0  0  0  0  0  0  0  0  0
   29.1232  -23.1054  -14.9569 O   0  0  0  0  0  0  0  0  0  0  0  0
   27.7871  -21.1973  -15.3843 C   0  0  2  0  0  0  0  0  0  0  0  0
   28.9524  -20.3524  -15.1654 N   0  0  0  0  0  0  0  0  0  0  0  0
   27.0971  -21.3959  -14.0710 C   0  0  0  0  0  0  0  0  0  0  0  0
   26.0388  -22.0874  -14.0286 O   0  0  0  0  0  0  0  0  0  0  0  0
   27.5712  -20.8471  -12.8701 N   0  0  0  0  0  0  0  0  0  0  0  0
   26.8085  -21.0584  -11.6187 C   0  0  1  0  0  0  0  0  0  0  0  0
   27.6811  -20.6307  -10.4863 C   0  0  0  0  0  0  0  0  0  0  0  0
   27.0019  -20.4497   -9.2103 C   0  0  0  0  0  0  0  0  0  0  0  0
   25.6167  -20.4794   -9.0531 C   0  0  0  0  0  0  0  0  0  0  0  0
   25.3228  -20.2356   -7.7693 N   0  0  0  0  0  0  0  0  0  0  0  0
   26.4614  -20.0489   -7.0849 C   0  0  0  0  0  0  0  0  0  0  0  0
   26.6294  -19.7906   -5.7357 C   0  0  0  0  0  0  0  0  0  0  0  0
   27.9209  -19.6637   -5.2714 C   0  0  0  0  0  0  0  0  0  0  0  0
   29.0116  -19.7917   -6.1348 C   0  0  0  0  0  0  0  0  0  0  0  0
   28.8150  -20.0467   -7.4679 C   0  0  0  0  0  0  0  0  0  0  0  0
   27.5254  -20.1804   -7.9724 C   0  0  0  0  0  0  0  0  0  0  0  0
   25.5492  -20.3257  -11.6880 C   0  0  0  0  0  0  0  0  0  0  0  0
   25.4890  -19.0725  -11.6428 O   0  0  0  0  0  0  0  0  0  0  0  0
   23.4902  -19.7095  -14.4428 C   0  0  0  0  0  0  0  0  0  0  0  0
   22.5643  -20.3982  -13.4750 C   0  0  1  0  0  0  0  0  0  0  0  0
   22.4505  -21.7633  -13.7713 O   0  0  0  0  0  0  0  0  0  0  0  0
   23.0794  -20.2249  -12.0592 C   0  0  2  0  0  0  0  0  0  0  0  0
   24.2763  -20.9939  -11.8127 N   0  0  0  0  0  0  0  0  0  0  0  0
   22.0259  -20.6723  -11.0873 C   0  0  0  0  0  0  0  0  0  0  0  0
   22.2597  -21.6275  -10.3294 O   0  0  0  0  0  0  0  0  0  0  0  0
   20.8021  -20.0117  -11.0477 O   0  0  0  0  0  0  0  0  0  0  0  0
  2  1  1  6
  2  4  1  0
  3  2  1  0
  4  5  1  1
  6  4  1  0
  6  7  2  0
  8  9  1  0
  8  6  1  0
 10 11  1  0
  9 10  1  1
 11 19  1  0
 12 13  1  0
 12 11  2  0
 13 14  1  0
 14 19  2  0
 14 15  1  0
 15 16  2  0
 16 17  1  0
 18 17  2  0
 19 18  1  0
 20  9  1  0
 21 20  2  0
 23 22  1  6
 23 25  1  0
 24 23  1  0
 25 27  1  0
 25 26  1  6
 26 20  1  0
 27 29  1  0
 28 27  2  0
M  END
$$$$
