ISI.pdb
     RDKit          3D

 23 22  0  0  1  0  0  0  0  0999 V2000
    7.8041  -12.0017   18.6099 C   0  0  0  0  0  0  0  0  0  0  0  0
    8.0678  -13.4901   18.6906 C   0  0  0  0  0  0  0  0  0  0  0  0
    7.9247  -14.0038   20.1050 C   0  0  2  0  0  0  0  0  0  0  0  0
    8.7774  -13.2533   21.0768 C   0  0  0  0  0  0  0  0  0  0  0  0
    8.1838  -15.4892   20.2046 C   0  0  2  0  0  0  0  0  0  0  0  0
    7.1436  -16.1194   19.3763 N   0  0  0  0  0  0  0  0  0  0  0  0
    8.0127  -15.9827   21.6179 C   0  0  0  0  0  0  0  0  0  0  0  0
    6.9177  -15.8833   22.2197 O   0  0  0  0  0  0  0  0  0  0  0  0
   10.9726  -18.0146   23.5452 O   0  0  0  0  0  0  0  0  0  0  0  0
    9.6517  -18.2711   23.8990 C   0  0  0  0  0  0  0  0  0  0  0  0
    8.8840  -16.9583   23.7049 C   0  0  2  0  0  0  0  0  0  0  0  0
    9.0851  -16.5803   22.3251 N   0  0  0  0  0  0  0  0  0  0  0  0
    9.3819  -15.9054   24.5907 C   0  0  0  0  0  0  0  0  0  0  0  0
   10.3583  -15.2154   24.2710 O   0  0  0  0  0  0  0  0  0  0  0  0
    6.1185  -12.4196   26.4824 C   0  0  0  0  0  0  0  0  0  0  0  0
    7.3750  -13.1126   25.9382 C   0  0  0  0  0  0  0  0  0  0  0  0
    8.0235  -13.7852   27.1030 C   0  0  2  0  0  0  0  0  0  0  0  0
    8.4179  -12.7162   28.1001 C   0  0  0  0  0  0  0  0  0  0  0  0
    9.2213  -14.6269   26.7435 C   0  0  2  0  0  0  0  0  0  0  0  0
    8.7499  -15.6559   25.8392 N   0  0  0  0  0  0  0  0  0  0  0  0
    9.8622  -15.2535   27.9038 C   0  0  0  0  0  0  0  0  0  0  0  0
    9.5465  -16.5602   28.2342 O   0  0  0  0  0  0  0  0  0  0  0  0
   10.7001  -14.6741   28.6398 O   0  0  0  0  0  0  0  0  0  0  0  0
  1  2  1  0
  3  2  1  0
  3  4  1  1
  5  6  1  6
  5  3  1  0
  7  8  2  0
  7  5  1  0
  9 10  1  0
 11 10  1  1
 11 13  1  0
 11 12  1  0
 12  7  1  0
 13 20  1  0
 14 13  2  0
 16 15  1  0
 17 19  1  0
 17 18  1  1
 17 16  1  0
 19 20  1  6
 21 19  1  0
 21 22  1  0
 23 21  2  0
M  END
$$$$
