ISI.pdb
     RDKit          3D

 23 22  0  0  1  0  0  0  0  0999 V2000
    7.7822  -12.0772   18.7529 C   0  0  0  0  0  0  0  0  0  0  0  0
    8.2456  -13.5167   18.8202 C   0  0  0  0  0  0  0  0  0  0  0  0
    8.0965  -14.0838   20.2136 C   0  0  2  0  0  0  0  0  0  0  0  0
    8.8643  -13.3067   21.2341 C   0  0  0  0  0  0  0  0  0  0  0  0
    8.4570  -15.5498   20.2777 C   0  0  2  0  0  0  0  0  0  0  0  0
    7.4921  -16.2240   19.3946 N   0  0  0  0  0  0  0  0  0  0  0  0
    8.2747  -16.0995   21.6686 C   0  0  0  0  0  0  0  0  0  0  0  0
    7.1370  -16.2334   22.1776 O   0  0  0  0  0  0  0  0  0  0  0  0
   11.1741  -18.1093   23.6627 O   0  0  0  0  0  0  0  0  0  0  0  0
    9.8231  -18.3026   23.9331 C   0  0  0  0  0  0  0  0  0  0  0  0
    9.1525  -16.9291   23.8152 C   0  0  2  0  0  0  0  0  0  0  0  0
    9.3843  -16.4883   22.4591 N   0  0  0  0  0  0  0  0  0  0  0  0
    9.7223  -15.9671   24.7592 C   0  0  0  0  0  0  0  0  0  0  0  0
   10.7005  -15.2755   24.4487 O   0  0  0  0  0  0  0  0  0  0  0  0
    6.4459  -12.7363   26.9180 C   0  0  0  0  0  0  0  0  0  0  0  0
    7.6991  -13.3684   26.2974 C   0  0  0  0  0  0  0  0  0  0  0  0
    8.4504  -14.0046   27.4201 C   0  0  2  0  0  0  0  0  0  0  0  0
    8.8788  -12.9106   28.3752 C   0  0  0  0  0  0  0  0  0  0  0  0
    9.6471  -14.8116   26.9851 C   0  0  2  0  0  0  0  0  0  0  0  0
    9.1594  -15.8097   26.0550 N   0  0  0  0  0  0  0  0  0  0  0  0
   10.3367  -15.4756   28.0955 C   0  0  0  0  0  0  0  0  0  0  0  0
   11.3831  -14.8304   28.7319 O   0  0  0  0  0  0  0  0  0  0  0  0
   10.0381  -16.6192   28.5229 O   0  0  0  0  0  0  0  0  0  0  0  0
  1  2  1  0
  3  2  1  0
  3  4  1  1
  5  6  1  6
  5  3  1  0
  7  8  2  0
  7  5  1  0
  9 10  1  0
 11 10  1  6
 11 13  1  0
 11 12  1  0
 12  7  1  0
 13 20  1  0
 14 13  2  0
 16 15  1  0
 17 19  1  0
 17 18  1  1
 17 16  1  0
 19 20  1  6
 21 19  1  0
 21 22  1  0
 23 21  2  0
M  END
$$$$
