ISI.pdb
     RDKit          3D

 23 22  0  0  1  0  0  0  0  0999 V2000
    7.8654  -12.1890   18.7327 C   0  0  0  0  0  0  0  0  0  0  0  0
    7.8906  -13.6967   18.8654 C   0  0  0  0  0  0  0  0  0  0  0  0
    7.5782  -14.1354   20.2778 C   0  0  2  0  0  0  0  0  0  0  0  0
    8.4046  -13.4189   21.2969 C   0  0  0  0  0  0  0  0  0  0  0  0
    7.6954  -15.6317   20.4527 C   0  0  2  0  0  0  0  0  0  0  0  0
    6.6975  -16.2072   19.5370 N   0  0  0  0  0  0  0  0  0  0  0  0
    7.3340  -16.0505   21.8542 C   0  0  0  0  0  0  0  0  0  0  0  0
    6.2400  -15.7281   22.3741 O   0  0  0  0  0  0  0  0  0  0  0  0
    9.4663  -18.7666   23.9547 O   0  0  0  0  0  0  0  0  0  0  0  0
    8.1656  -18.4775   24.3549 C   0  0  0  0  0  0  0  0  0  0  0  0
    7.9336  -16.9932   24.0493 C   0  0  2  0  0  0  0  0  0  0  0  0
    8.2183  -16.8275   22.6427 N   0  0  0  0  0  0  0  0  0  0  0  0
    8.8130  -16.1344   24.8433 C   0  0  0  0  0  0  0  0  0  0  0  0
    9.9175  -15.7825   24.4099 O   0  0  0  0  0  0  0  0  0  0  0  0
    6.9120  -11.8641   26.9248 C   0  0  0  0  0  0  0  0  0  0  0  0
    7.8295  -12.9107   26.2784 C   0  0  0  0  0  0  0  0  0  0  0  0
    8.4428  -13.6835   27.3993 C   0  0  2  0  0  0  0  0  0  0  0  0
    9.2885  -12.7300   28.2167 C   0  0  0  0  0  0  0  0  0  0  0  0
    9.2707  -14.8632   26.9574 C   0  0  2  0  0  0  0  0  0  0  0  0
    8.4120  -15.6877   26.1317 N   0  0  0  0  0  0  0  0  0  0  0  0
    9.7881  -15.6620   28.0726 C   0  0  0  0  0  0  0  0  0  0  0  0
   11.0548  -15.4028   28.5672 O   0  0  0  0  0  0  0  0  0  0  0  0
    9.1471  -16.5902   28.6269 O   0  0  0  0  0  0  0  0  0  0  0  0
  1  2  1  0
  3  2  1  0
  3  4  1  1
  5  6  1  6
  5  3  1  0
  7  8  2  0
  7  5  1  0
  9 10  1  0
 11 10  1  1
 11 13  1  0
 11 12  1  0
 12  7  1  0
 13 20  1  0
 14 13  2  0
 16 15  1  0
 17 19  1  0
 17 18  1  6
 17 16  1  0
 19 20  1  6
 21 19  1  0
 21 22  1  0
 23 21  2  0
M  END
$$$$
