ISI.pdb
     RDKit          3D

 23 22  0  0  1  0  0  0  0  0999 V2000
    7.8440  -11.9956   19.4007 C   0  0  0  0  0  0  0  0  0  0  0  0
    7.7955  -13.5086   19.4057 C   0  0  0  0  0  0  0  0  0  0  0  0
    8.0197  -14.0671   20.7924 C   0  0  2  0  0  0  0  0  0  0  0  0
    9.2327  -13.4942   21.4521 C   0  0  0  0  0  0  0  0  0  0  0  0
    8.0712  -15.5772   20.8010 C   0  0  2  0  0  0  0  0  0  0  0  0
    6.7649  -16.0114   20.2809 N   0  0  0  0  0  0  0  0  0  0  0  0
    8.2136  -16.1136   22.2018 C   0  0  0  0  0  0  0  0  0  0  0  0
    7.2914  -16.0034   23.0437 O   0  0  0  0  0  0  0  0  0  0  0  0
   11.5144  -18.2641   23.3557 O   0  0  0  0  0  0  0  0  0  0  0  0
   10.2563  -18.6338   23.8208 C   0  0  0  0  0  0  0  0  0  0  0  0
    9.4404  -17.3422   23.9488 C   0  0  2  0  0  0  0  0  0  0  0  0
    9.3982  -16.7656   22.6249 N   0  0  0  0  0  0  0  0  0  0  0  0
   10.0591  -16.4031   24.8850 C   0  0  0  0  0  0  0  0  0  0  0  0
   10.9035  -15.5848   24.4990 O   0  0  0  0  0  0  0  0  0  0  0  0
    7.4974  -12.9772   27.3474 C   0  0  0  0  0  0  0  0  0  0  0  0
    8.6176  -13.7718   26.6627 C   0  0  0  0  0  0  0  0  0  0  0  0
    9.2547  -14.6042   27.7261 C   0  0  2  0  0  0  0  0  0  0  0  0
    9.8226  -13.6699   28.7737 C   0  0  0  0  0  0  0  0  0  0  0  0
   10.3291  -15.5345   27.2233 C   0  0  2  0  0  0  0  0  0  0  0  0
    9.6993  -16.4146   26.2601 N   0  0  0  0  0  0  0  0  0  0  0  0
   10.9488  -16.3355   28.2834 C   0  0  0  0  0  0  0  0  0  0  0  0
   12.1207  -15.8950   28.8744 O   0  0  0  0  0  0  0  0  0  0  0  0
   10.4802  -17.4225   28.7057 O   0  0  0  0  0  0  0  0  0  0  0  0
  1  2  1  0
  3  2  1  0
  3  4  1  6
  5  6  1  1
  5  3  1  0
  7  8  2  0
  7  5  1  0
  9 10  1  0
 11 10  1  6
 11 13  1  0
 11 12  1  0
 12  7  1  0
 13 20  1  0
 14 13  2  0
 16 15  1  0
 17 19  1  0
 17 18  1  1
 17 16  1  0
 19 20  1  6
 21 19  1  0
 21 22  1  0
 23 21  2  0
M  END
$$$$
