ISI.pdb
     RDKit          3D

 23 22  0  0  1  0  0  0  0  0999 V2000
    8.7540  -12.6433   18.8386 C   0  0  0  0  0  0  0  0  0  0  0  0
    7.4070  -13.1321   19.3266 C   0  0  0  0  0  0  0  0  0  0  0  0
    7.5207  -13.8340   20.6606 C   0  0  2  0  0  0  0  0  0  0  0  0
    8.3251  -13.0556   21.6514 C   0  0  0  0  0  0  0  0  0  0  0  0
    8.0575  -15.2399   20.5250 C   0  0  2  0  0  0  0  0  0  0  0  0
    7.0685  -15.9535   19.7015 N   0  0  0  0  0  0  0  0  0  0  0  0
    8.1316  -15.9305   21.8621 C   0  0  0  0  0  0  0  0  0  0  0  0
    7.1168  -16.0745   22.5836 O   0  0  0  0  0  0  0  0  0  0  0  0
   10.3156  -18.7665   24.9118 O   0  0  0  0  0  0  0  0  0  0  0  0
   10.3223  -18.2000   23.6410 C   0  0  0  0  0  0  0  0  0  0  0  0
    9.3891  -16.9851   23.6988 C   0  0  2  0  0  0  0  0  0  0  0  0
    9.3542  -16.4462   22.3588 N   0  0  0  0  0  0  0  0  0  0  0  0
    9.8790  -15.9717   24.6339 C   0  0  0  0  0  0  0  0  0  0  0  0
   10.8446  -15.2539   24.3442 O   0  0  0  0  0  0  0  0  0  0  0  0
    6.5568  -12.6472   26.5516 C   0  0  0  0  0  0  0  0  0  0  0  0
    7.8379  -13.3039   26.0198 C   0  0  0  0  0  0  0  0  0  0  0  0
    8.4949  -13.9561   27.1914 C   0  0  2  0  0  0  0  0  0  0  0  0
    8.8800  -12.8715   28.1752 C   0  0  0  0  0  0  0  0  0  0  0  0
    9.7007  -14.7898   26.8399 C   0  0  2  0  0  0  0  0  0  0  0  0
    9.2513  -15.7936   25.8968 N   0  0  0  0  0  0  0  0  0  0  0  0
   10.3114  -15.4483   27.9988 C   0  0  0  0  0  0  0  0  0  0  0  0
   10.0128  -16.7733   28.2661 O   0  0  0  0  0  0  0  0  0  0  0  0
   11.1080  -14.8811   28.7883 O   0  0  0  0  0  0  0  0  0  0  0  0
  1  2  1  0
  3  2  1  0
  3  4  1  1
  5  6  1  6
  5  3  1  0
  7  8  2  0
  7  5  1  0
  9 10  1  0
 11 10  1  6
 11 13  1  0
 11 12  1  0
 12  7  1  0
 13 20  1  0
 14 13  2  0
 16 15  1  0
 17 19  1  0
 17 18  1  1
 17 16  1  0
 19 20  1  6
 21 19  1  0
 21 22  1  0
 23 21  2  0
M  END
$$$$
