ISI.pdb
     RDKit          3D

 23 22  0  0  1  0  0  0  0  0999 V2000
    7.5964  -11.9585   20.0199 C   0  0  0  0  0  0  0  0  0  0  0  0
    7.3777  -13.4497   20.1604 C   0  0  0  0  0  0  0  0  0  0  0  0
    8.5813  -14.2345   19.6907 C   0  0  2  0  0  0  0  0  0  0  0  0
    8.9748  -13.8964   18.2887 C   0  0  0  0  0  0  0  0  0  0  0  0
    8.3900  -15.7253   19.8459 C   0  0  2  0  0  0  0  0  0  0  0  0
    7.2455  -16.0600   18.9837 N   0  0  0  0  0  0  0  0  0  0  0  0
    8.0245  -16.0873   21.2621 C   0  0  0  0  0  0  0  0  0  0  0  0
    6.8487  -15.9825   21.6837 O   0  0  0  0  0  0  0  0  0  0  0  0
   10.4069  -18.3008   23.8766 O   0  0  0  0  0  0  0  0  0  0  0  0
    9.0178  -18.3009   23.7987 C   0  0  0  0  0  0  0  0  0  0  0  0
    8.5945  -16.8515   23.5331 C   0  0  2  0  0  0  0  0  0  0  0  0
    8.9973  -16.5618   22.1763 N   0  0  0  0  0  0  0  0  0  0  0  0
    9.2432  -15.9214   24.4580 C   0  0  0  0  0  0  0  0  0  0  0  0
   10.3591  -15.4496   24.2058 O   0  0  0  0  0  0  0  0  0  0  0  0
    6.7867  -11.7970   26.3288 C   0  0  0  0  0  0  0  0  0  0  0  0
    7.8399  -12.7837   25.8072 C   0  0  0  0  0  0  0  0  0  0  0  0
    8.2759  -13.5952   26.9824 C   0  0  2  0  0  0  0  0  0  0  0  0
    8.8835  -12.6539   28.0010 C   0  0  0  0  0  0  0  0  0  0  0  0
    9.2498  -14.6960   26.6474 C   0  0  2  0  0  0  0  0  0  0  0  0
    8.5997  -15.5420   25.6673 N   0  0  0  0  0  0  0  0  0  0  0  0
    9.6378  -15.5035   27.8079 C   0  0  0  0  0  0  0  0  0  0  0  0
   10.8160  -15.2163   28.4755 O   0  0  0  0  0  0  0  0  0  0  0  0
    8.9594  -16.4637   28.2524 O   0  0  0  0  0  0  0  0  0  0  0  0
  1  2  1  0
  3  2  1  0
  3  4  1  6
  5  6  1  6
  5  3  1  0
  7  8  2  0
  7  5  1  0
  9 10  1  0
 11 10  1  1
 11 13  1  0
 11 12  1  0
 12  7  1  0
 13 20  1  0
 14 13  2  0
 16 15  1  0
 17 19  1  0
 17 18  1  1
 17 16  1  0
 19 20  1  6
 21 19  1  0
 21 22  1  0
 23 21  2  0
M  END
$$$$
