ISI.pdb
     RDKit          3D

 23 22  0  0  1  0  0  0  0  0999 V2000
    7.8587  -12.1404   18.9881 C   0  0  0  0  0  0  0  0  0  0  0  0
    7.7869  -13.6480   19.1042 C   0  0  0  0  0  0  0  0  0  0  0  0
    7.8019  -14.0953   20.5481 C   0  0  2  0  0  0  0  0  0  0  0  0
    8.9477  -13.5181   21.3154 C   0  0  0  0  0  0  0  0  0  0  0  0
    7.7743  -15.6001   20.6826 C   0  0  2  0  0  0  0  0  0  0  0  0
    6.5011  -16.0191   20.0755 N   0  0  0  0  0  0  0  0  0  0  0  0
    7.7587  -16.0217   22.1291 C   0  0  0  0  0  0  0  0  0  0  0  0
    6.8231  -15.6967   22.8974 O   0  0  0  0  0  0  0  0  0  0  0  0
   10.7137  -18.3848   23.7437 O   0  0  0  0  0  0  0  0  0  0  0  0
    9.4101  -18.5211   24.2104 C   0  0  0  0  0  0  0  0  0  0  0  0
    8.7539  -17.1413   24.0843 C   0  0  2  0  0  0  0  0  0  0  0  0
    8.8033  -16.8042   22.6803 N   0  0  0  0  0  0  0  0  0  0  0  0
    9.4658  -16.1310   24.8677 C   0  0  0  0  0  0  0  0  0  0  0  0
   10.3419  -15.4268   24.3498 O   0  0  0  0  0  0  0  0  0  0  0  0
    6.7007  -12.7571   27.4825 C   0  0  0  0  0  0  0  0  0  0  0  0
    7.8297  -13.4075   26.6716 C   0  0  0  0  0  0  0  0  0  0  0  0
    8.7185  -14.0898   27.6586 C   0  0  2  0  0  0  0  0  0  0  0  0
    9.3150  -13.0305   28.5612 C   0  0  0  0  0  0  0  0  0  0  0  0
    9.8137  -14.9178   27.0361 C   0  0  2  0  0  0  0  0  0  0  0  0
    9.1621  -15.9403   26.2431 N   0  0  0  0  0  0  0  0  0  0  0  0
   10.6952  -15.5525   28.0209 C   0  0  0  0  0  0  0  0  0  0  0  0
   10.3430  -16.7767   28.5626 O   0  0  0  0  0  0  0  0  0  0  0  0
   11.7769  -15.0515   28.4194 O   0  0  0  0  0  0  0  0  0  0  0  0
  1  2  1  0
  3  2  1  0
  3  4  1  6
  5  6  1  6
  5  3  1  0
  7  8  2  0
  7  5  1  0
  9 10  1  0
 11 10  1  6
 11 13  1  0
 11 12  1  0
 12  7  1  0
 13 20  1  0
 14 13  2  0
 16 15  1  0
 17 19  1  0
 17 18  1  1
 17 16  1  0
 19 20  1  1
 21 19  1  0
 21 22  1  0
 23 21  2  0
M  END
$$$$
