ISI.pdb
     RDKit          3D

 23 22  0  0  1  0  0  0  0  0999 V2000
    7.9530  -12.0977   20.5034 C   0  0  0  0  0  0  0  0  0  0  0  0
    7.3097  -13.4251   20.8435 C   0  0  0  0  0  0  0  0  0  0  0  0
    8.1605  -14.5881   20.3866 C   0  0  2  0  0  0  0  0  0  0  0  0
    8.5487  -14.4837   18.9468 C   0  0  0  0  0  0  0  0  0  0  0  0
    7.5074  -15.9215   20.6673 C   0  0  2  0  0  0  0  0  0  0  0  0
    6.1957  -15.8567   20.0037 N   0  0  0  0  0  0  0  0  0  0  0  0
    7.2711  -16.1171   22.1425 C   0  0  0  0  0  0  0  0  0  0  0  0
    6.4150  -15.4455   22.7648 O   0  0  0  0  0  0  0  0  0  0  0  0
    8.9012  -19.2204   24.3244 O   0  0  0  0  0  0  0  0  0  0  0  0
    7.6787  -18.6385   24.6448 C   0  0  0  0  0  0  0  0  0  0  0  0
    7.8047  -17.1466   24.3155 C   0  0  2  0  0  0  0  0  0  0  0  0
    8.0086  -17.0703   22.8873 N   0  0  0  0  0  0  0  0  0  0  0  0
    8.9328  -16.5322   25.0164 C   0  0  0  0  0  0  0  0  0  0  0  0
   10.0042  -16.3218   24.4337 O   0  0  0  0  0  0  0  0  0  0  0  0
    7.8675  -12.4759   28.1096 C   0  0  0  0  0  0  0  0  0  0  0  0
    8.5746  -13.3981   27.1073 C   0  0  0  0  0  0  0  0  0  0  0  0
    9.3029  -14.4204   27.9161 C   0  0  2  0  0  0  0  0  0  0  0  0
   10.3805  -13.7096   28.7074 C   0  0  0  0  0  0  0  0  0  0  0  0
    9.9071  -15.5370   27.1034 C   0  0  2  0  0  0  0  0  0  0  0  0
    8.8170  -16.1647   26.3846 N   0  0  0  0  0  0  0  0  0  0  0  0
   10.5973  -16.5423   27.9173 C   0  0  0  0  0  0  0  0  0  0  0  0
    9.8822  -17.6081   28.4359 O   0  0  0  0  0  0  0  0  0  0  0  0
   11.8246  -16.5050   28.1854 O   0  0  0  0  0  0  0  0  0  0  0  0
  1  2  1  0
  3  2  1  0
  3  4  1  6
  5  6  1  6
  5  3  1  0
  7  8  2  0
  7  5  1  0
  9 10  1  0
 11 10  1  1
 11 13  1  0
 11 12  1  0
 12  7  1  0
 13 20  1  0
 14 13  2  0
 16 15  1  0
 17 19  1  0
 17 18  1  6
 17 16  1  0
 19 20  1  1
 21 19  1  0
 21 22  1  0
 23 21  2  0
M  END
$$$$
