ISI.pdb
     RDKit          3D

 23 22  0  0  1  0  0  0  0  0999 V2000
    5.5970  -11.5109   26.4464 C   0  0  0  0  0  0  0  0  0  0  0  0
    5.3588  -12.7997   25.6889 C   0  0  0  0  0  0  0  0  0  0  0  0
    6.6487  -13.5517   25.4525 C   0  0  2  0  0  0  0  0  0  0  0  0
    7.6853  -12.7136   24.7760 C   0  0  0  0  0  0  0  0  0  0  0  0
    6.4301  -14.8420   24.6971 C   0  0  2  0  0  0  0  0  0  0  0  0
    5.3365  -15.5246   25.4066 N   0  0  0  0  0  0  0  0  0  0  0  0
    7.6473  -15.7278   24.7600 C   0  0  0  0  0  0  0  0  0  0  0  0
    7.9429  -16.3643   25.7987 O   0  0  0  0  0  0  0  0  0  0  0  0
   10.0261  -15.5859   21.7729 O   0  0  0  0  0  0  0  0  0  0  0  0
   10.2643  -16.8281   22.3524 C   0  0  0  0  0  0  0  0  0  0  0  0
    9.6231  -16.7915   23.7444 C   0  0  2  0  0  0  0  0  0  0  0  0
    8.5086  -15.8776   23.6451 N   0  0  0  0  0  0  0  0  0  0  0  0
   10.5658  -16.3238   24.7612 C   0  0  0  0  0  0  0  0  0  0  0  0
   11.3290  -15.3769   24.5321 O   0  0  0  0  0  0  0  0  0  0  0  0
    9.9079  -13.4272   28.4296 C   0  0  0  0  0  0  0  0  0  0  0  0
   10.6157  -14.2580   27.3508 C   0  0  0  0  0  0  0  0  0  0  0  0
   10.8914  -15.5930   27.9601 C   0  0  2  0  0  0  0  0  0  0  0  0
   11.7171  -15.3748   29.2103 C   0  0  0  0  0  0  0  0  0  0  0  0
   11.5897  -16.5612   27.0394 C   0  0  2  0  0  0  0  0  0  0  0  0
   10.6213  -16.9518   26.0352 N   0  0  0  0  0  0  0  0  0  0  0  0
   12.0919  -17.7566   27.7237 C   0  0  0  0  0  0  0  0  0  0  0  0
   13.3959  -17.7796   28.1877 O   0  0  0  0  0  0  0  0  0  0  0  0
   11.4052  -18.7898   27.9248 O   0  0  0  0  0  0  0  0  0  0  0  0
  1  2  1  0
  3  2  1  0
  3  4  1  6
  5  6  1  1
  5  3  1  0
  7  8  2  0
  7  5  1  0
  9 10  1  0
 11 10  1  6
 11 13  1  0
 11 12  1  0
 12  7  1  0
 13 20  1  0
 14 13  2  0
 16 15  1  0
 17 19  1  0
 17 18  1  1
 17 16  1  0
 19 20  1  6
 21 19  1  0
 21 22  1  0
 23 21  2  0
M  END
$$$$
