ISI.pdb
     RDKit          3D

 23 22  0  0  1  0  0  0  0  0999 V2000
    8.3346  -11.7683   20.3480 C   0  0  0  0  0  0  0  0  0  0  0  0
    8.8892  -13.1664   20.5186 C   0  0  0  0  0  0  0  0  0  0  0  0
    8.0293  -14.1944   19.8193 C   0  0  2  0  0  0  0  0  0  0  0  0
    6.5992  -14.1345   20.2503 C   0  0  0  0  0  0  0  0  0  0  0  0
    8.5736  -15.5958   19.9706 C   0  0  2  0  0  0  0  0  0  0  0  0
    7.8081  -16.4129   19.0157 N   0  0  0  0  0  0  0  0  0  0  0  0
    8.3178  -16.1377   21.3531 C   0  0  0  0  0  0  0  0  0  0  0  0
    7.1581  -16.3965   21.7524 O   0  0  0  0  0  0  0  0  0  0  0  0
   11.0883  -18.0199   23.6275 O   0  0  0  0  0  0  0  0  0  0  0  0
    9.7146  -18.2126   23.7345 C   0  0  0  0  0  0  0  0  0  0  0  0
    9.0668  -16.8301   23.5950 C   0  0  2  0  0  0  0  0  0  0  0  0
    9.3801  -16.3771   22.2594 N   0  0  0  0  0  0  0  0  0  0  0  0
    9.5926  -15.8853   24.5809 C   0  0  0  0  0  0  0  0  0  0  0  0
   10.6562  -15.2849   24.3812 O   0  0  0  0  0  0  0  0  0  0  0  0
    6.5763  -12.1854   26.4629 C   0  0  0  0  0  0  0  0  0  0  0  0
    7.7899  -12.9825   25.9658 C   0  0  0  0  0  0  0  0  0  0  0  0
    8.2756  -13.7809   27.1303 C   0  0  2  0  0  0  0  0  0  0  0  0
    8.7145  -12.8141   28.2098 C   0  0  0  0  0  0  0  0  0  0  0  0
    9.3953  -14.7356   26.8023 C   0  0  2  0  0  0  0  0  0  0  0  0
    8.8875  -15.6398   25.7905 N   0  0  0  0  0  0  0  0  0  0  0  0
    9.8592  -15.5085   27.9585 C   0  0  0  0  0  0  0  0  0  0  0  0
   10.8744  -15.0043   28.7531 O   0  0  0  0  0  0  0  0  0  0  0  0
    9.3889  -16.6261   28.2891 O   0  0  0  0  0  0  0  0  0  0  0  0
  1  2  1  0
  3  2  1  0
  3  4  1  1
  5  6  1  6
  5  3  1  0
  7  8  2  0
  7  5  1  0
  9 10  1  0
 11 10  1  1
 11 13  1  0
 11 12  1  0
 12  7  1  0
 13 20  1  0
 14 13  2  0
 16 15  1  0
 17 19  1  0
 17 18  1  1
 17 16  1  0
 19 20  1  6
 21 19  1  0
 21 22  1  0
 23 21  2  0
M  END
$$$$
