ISI.pdb
     RDKit          3D

 23 22  0  0  1  0  0  0  0  0999 V2000
    7.9806  -11.8954   19.9519 C   0  0  0  0  0  0  0  0  0  0  0  0
    7.6384  -13.3565   20.1500 C   0  0  0  0  0  0  0  0  0  0  0  0
    8.7060  -14.2599   19.5763 C   0  0  2  0  0  0  0  0  0  0  0  0
    8.9781  -13.9813   18.1330 C   0  0  0  0  0  0  0  0  0  0  0  0
    8.3930  -15.7231   19.7870 C   0  0  2  0  0  0  0  0  0  0  0  0
    7.1602  -15.9687   19.0221 N   0  0  0  0  0  0  0  0  0  0  0  0
    8.1060  -16.0199   21.2361 C   0  0  0  0  0  0  0  0  0  0  0  0
    6.9843  -15.7859   21.7443 O   0  0  0  0  0  0  0  0  0  0  0  0
   10.7644  -18.0459   23.7232 O   0  0  0  0  0  0  0  0  0  0  0  0
    9.3872  -18.2398   23.7594 C   0  0  0  0  0  0  0  0  0  0  0  0
    8.7460  -16.8814   23.4531 C   0  0  2  0  0  0  0  0  0  0  0  0
    9.0947  -16.5765   22.0846 N   0  0  0  0  0  0  0  0  0  0  0  0
    9.2479  -15.8342   24.3434 C   0  0  0  0  0  0  0  0  0  0  0  0
   10.1714  -15.0894   23.9908 O   0  0  0  0  0  0  0  0  0  0  0  0
    5.9237  -12.5798   26.4373 C   0  0  0  0  0  0  0  0  0  0  0  0
    7.1868  -13.2039   25.8289 C   0  0  0  0  0  0  0  0  0  0  0  0
    7.9318  -13.8345   26.9589 C   0  0  2  0  0  0  0  0  0  0  0  0
    8.3294  -12.7393   27.9259 C   0  0  0  0  0  0  0  0  0  0  0  0
    9.1470  -14.6206   26.5370 C   0  0  2  0  0  0  0  0  0  0  0  0
    8.6810  -15.6535   25.6343 N   0  0  0  0  0  0  0  0  0  0  0  0
    9.8592  -15.2389   27.6594 C   0  0  0  0  0  0  0  0  0  0  0  0
   10.8612  -14.5332   28.3032 O   0  0  0  0  0  0  0  0  0  0  0  0
    9.6192  -16.3947   28.0908 O   0  0  0  0  0  0  0  0  0  0  0  0
  1  2  1  0
  3  2  1  0
  3  4  1  6
  5  6  1  6
  5  3  1  0
  7  8  2  0
  7  5  1  0
  9 10  1  0
 11 10  1  1
 11 13  1  0
 11 12  1  0
 12  7  1  0
 13 20  1  0
 14 13  2  0
 16 15  1  0
 17 19  1  0
 17 18  1  1
 17 16  1  0
 19 20  1  6
 21 19  1  0
 21 22  1  0
 23 21  2  0
M  END
$$$$
