ISI.pdb
     RDKit          3D

 23 22  0  0  1  0  0  0  0  0999 V2000
    7.5566  -11.8885   18.6934 C   0  0  0  0  0  0  0  0  0  0  0  0
    7.9285  -13.3559   18.7005 C   0  0  0  0  0  0  0  0  0  0  0  0
    7.7228  -13.9746   20.0643 C   0  0  2  0  0  0  0  0  0  0  0  0
    8.4064  -13.2084   21.1507 C   0  0  0  0  0  0  0  0  0  0  0  0
    8.1292  -15.4295   20.1011 C   0  0  2  0  0  0  0  0  0  0  0  0
    7.2264  -16.1070   19.1570 N   0  0  0  0  0  0  0  0  0  0  0  0
    7.9057  -16.0274   21.4660 C   0  0  0  0  0  0  0  0  0  0  0  0
    6.7619  -16.0931   21.9745 O   0  0  0  0  0  0  0  0  0  0  0  0
   10.6858  -18.2045   23.3054 O   0  0  0  0  0  0  0  0  0  0  0  0
    9.3775  -18.3141   23.7661 C   0  0  0  0  0  0  0  0  0  0  0  0
    8.7383  -16.9305   23.6009 C   0  0  2  0  0  0  0  0  0  0  0  0
    8.9819  -16.5408   22.2312 N   0  0  0  0  0  0  0  0  0  0  0  0
    9.3284  -15.9504   24.5133 C   0  0  0  0  0  0  0  0  0  0  0  0
   10.3514  -15.3276   24.2015 O   0  0  0  0  0  0  0  0  0  0  0  0
    6.6254  -12.1009   26.3975 C   0  0  0  0  0  0  0  0  0  0  0  0
    7.7475  -13.0096   25.8775 C   0  0  0  0  0  0  0  0  0  0  0  0
    8.2687  -13.7555   27.0613 C   0  0  2  0  0  0  0  0  0  0  0  0
    8.8116  -12.7445   28.0491 C   0  0  0  0  0  0  0  0  0  0  0  0
    9.3258  -14.7785   26.7318 C   0  0  2  0  0  0  0  0  0  0  0  0
    8.7340  -15.6957   25.7792 N   0  0  0  0  0  0  0  0  0  0  0  0
    9.7967  -15.5268   27.9014 C   0  0  0  0  0  0  0  0  0  0  0  0
   10.8968  -15.0693   28.6062 O   0  0  0  0  0  0  0  0  0  0  0  0
    9.2590  -16.5823   28.3215 O   0  0  0  0  0  0  0  0  0  0  0  0
  1  2  1  0
  3  2  1  0
  3  4  1  1
  5  6  1  6
  5  3  1  0
  7  8  2  0
  7  5  1  0
  9 10  1  0
 11 10  1  1
 11 13  1  0
 11 12  1  0
 12  7  1  0
 13 20  1  0
 14 13  2  0
 16 15  1  0
 17 19  1  0
 17 18  1  1
 17 16  1  0
 19 20  1  6
 21 19  1  0
 21 22  1  0
 23 21  2  0
M  END
$$$$
