ENK.pdb
     RDKit          3D

 27 26  0  0  1  0  0  0  0  0999 V2000
   13.3420  -19.6097   22.3794 N   0  0  0  0  0  0  0  0  0  0  0  0
   13.9528  -18.3113   22.6406 C   0  0  1  0  0  0  0  0  0  0  0  0
   14.4141  -17.7081   21.3041 C   0  0  0  0  0  0  0  0  0  0  0  0
   14.0826  -18.5847   20.1368 C   0  0  0  0  0  0  0  0  0  0  0  0
   14.3498  -17.9687   18.8234 C   0  0  0  0  0  0  0  0  0  0  0  0
   13.5554  -17.1689   18.2547 O   0  0  0  0  0  0  0  0  0  0  0  0
   12.9798  -17.3912   23.2908 C   0  0  0  0  0  0  0  0  0  0  0  0
   13.3111  -16.2514   23.5706 O   0  0  0  0  0  0  0  0  0  0  0  0
   15.5342  -18.2736   18.1622 O   0  0  0  0  0  0  0  0  0  0  0  0
    8.8334  -15.1395   25.2922 N   0  0  0  0  0  0  0  0  0  0  0  0
    8.5398  -15.7896   24.0805 C   0  0  0  0  0  0  0  0  0  0  0  0
    7.4304  -15.4551   23.5329 O   0  0  0  0  0  0  0  0  0  0  0  0
    9.3956  -16.8054   23.4098 C   0  0  0  0  0  0  0  0  0  0  0  0
   10.6381  -17.0261   24.1685 C   0  0  2  0  0  0  0  0  0  0  0  0
   11.6647  -17.8124   23.5941 N   0  0  0  0  0  0  0  0  0  0  0  0
   10.2695  -17.6807   25.4617 C   0  0  0  0  0  0  0  0  0  0  0  0
    9.4015  -17.1499   26.2144 O   0  0  0  0  0  0  0  0  0  0  0  0
   10.8477  -18.9000   25.9155 N   0  0  0  0  0  0  0  0  0  0  0  0
   10.4407  -19.4455   27.2184 C   0  0  1  0  0  0  0  0  0  0  0  0
   10.9402  -20.8768   27.2824 C   0  0  0  0  0  0  0  0  0  0  0  0
   10.3276  -21.6378   26.1489 C   0  0  0  0  0  0  0  0  0  0  0  0
   10.7896  -23.0905   26.1312 C   0  0  0  0  0  0  0  0  0  0  0  0
   10.2461  -23.6938   24.8417 C   0  0  0  0  0  0  0  0  0  0  0  0
   10.7116  -25.0418   24.6543 N   0  0  0  0  0  0  0  0  0  0  0  0
   11.0317  -18.6114   28.2850 C   0  0  0  0  0  0  0  0  0  0  0  0
   11.9025  -17.7430   28.0271 O   0  0  0  0  0  0  0  0  0  0  0  0
   10.6559  -18.7424   29.6293 O   0  0  0  0  0  0  0  0  0  0  0  0
  2  1  1  6
  3  2  1  0
  4  5  1  0
  4  3  1  0
  5  6  2  0
  7  2  1  0
  7  8  2  0
  9  5  1  0
 10 11  1  0
 11 12  2  0
 11 13  1  0
 14 13  1  6
 14 15  1  0
 15  7  1  0
 16 14  1  0
 17 16  2  0
 18 16  1  0
 19 18  1  0
 19 20  1  1
 20 21  1  0
 21 22  1  0
 22 23  1  0
 23 24  1  0
 25 27  1  0
 25 19  1  0
 26 25  2  0
M  END
$$$$
