ENK.pdb
     RDKit          3D

 27 26  0  0  1  0  0  0  0  0999 V2000
   11.3373  -18.1276   19.0576 N   0  0  0  0  0  0  0  0  0  0  0  0
   11.2297  -18.1112   20.5120 C   0  0  1  0  0  0  0  0  0  0  0  0
   12.5895  -17.7016   21.1002 C   0  0  0  0  0  0  0  0  0  0  0  0
   12.6383  -16.2523   21.4716 C   0  0  0  0  0  0  0  0  0  0  0  0
   13.9439  -15.8057   21.9929 C   0  0  0  0  0  0  0  0  0  0  0  0
   14.0705  -15.0159   22.9699 O   0  0  0  0  0  0  0  0  0  0  0  0
   10.1867  -17.1452   20.9535 C   0  0  0  0  0  0  0  0  0  0  0  0
    9.4766  -16.5947   20.1289 O   0  0  0  0  0  0  0  0  0  0  0  0
   15.1073  -16.2690   21.3890 O   0  0  0  0  0  0  0  0  0  0  0  0
    6.7990  -18.4206   25.3557 N   0  0  0  0  0  0  0  0  0  0  0  0
    6.8811  -18.1440   23.9796 C   0  0  0  0  0  0  0  0  0  0  0  0
    5.7849  -17.7747   23.4276 O   0  0  0  0  0  0  0  0  0  0  0  0
    8.1083  -18.2462   23.1445 C   0  0  0  0  0  0  0  0  0  0  0  0
    8.7846  -16.9420   23.0464 C   0  0  2  0  0  0  0  0  0  0  0  0
    9.9969  -16.8482   22.3228 N   0  0  0  0  0  0  0  0  0  0  0  0
    9.0788  -16.4779   24.4374 C   0  0  0  0  0  0  0  0  0  0  0  0
    9.8269  -17.1683   25.1894 O   0  0  0  0  0  0  0  0  0  0  0  0
    8.5576  -15.2730   24.9882 N   0  0  0  0  0  0  0  0  0  0  0  0
    8.8705  -14.9276   26.3824 C   0  0  1  0  0  0  0  0  0  0  0  0
    7.6407  -14.2575   26.9663 C   0  0  0  0  0  0  0  0  0  0  0  0
    7.6329  -12.8274   26.5260 C   0  0  0  0  0  0  0  0  0  0  0  0
    6.3915  -12.0931   27.0197 C   0  0  0  0  0  0  0  0  0  0  0  0
    6.5054  -10.6664   26.4965 C   0  0  0  0  0  0  0  0  0  0  0  0
    5.3833   -9.8647   26.9057 N   0  0  0  0  0  0  0  0  0  0  0  0
    9.2161  -16.1662   27.1095 C   0  0  0  0  0  0  0  0  0  0  0  0
    8.8239  -17.2901   26.7070 O   0  0  0  0  0  0  0  0  0  0  0  0
    9.9934  -16.1545   28.2763 O   0  0  0  0  0  0  0  0  0  0  0  0
  2  1  1  6
  3  2  1  0
  4  5  1  0
  4  3  1  0
  5  6  2  0
  7  2  1  0
  7  8  2  0
  9  5  1  0
 10 11  1  0
 11 12  2  0
 11 13  1  0
 14 13  1  1
 14 15  1  0
 15  7  1  0
 16 14  1  0
 17 16  2  0
 18 16  1  0
 19 18  1  0
 19 20  1  1
 20 21  1  0
 21 22  1  0
 22 23  1  0
 23 24  1  0
 25 27  1  0
 25 19  1  0
 26 25  2  0
M  END
$$$$
