ENK.pdb
     RDKit          3D

 27 26  0  0  1  0  0  0  0  0999 V2000
   12.6443  -17.3382   17.8458 N   0  0  0  0  0  0  0  0  0  0  0  0
   11.9748  -18.1452   18.8596 C   0  0  1  0  0  0  0  0  0  0  0  0
   13.0308  -18.9894   19.5909 C   0  0  0  0  0  0  0  0  0  0  0  0
   14.0188  -18.1479   20.3370 C   0  0  0  0  0  0  0  0  0  0  0  0
   15.1066  -18.9143   20.9735 C   0  0  0  0  0  0  0  0  0  0  0  0
   15.0384  -19.3776   22.1461 O   0  0  0  0  0  0  0  0  0  0  0  0
   11.2655  -17.2789   19.8405 C   0  0  0  0  0  0  0  0  0  0  0  0
   11.7577  -16.2176   20.1850 O   0  0  0  0  0  0  0  0  0  0  0  0
   16.2762  -19.1486   20.2593 O   0  0  0  0  0  0  0  0  0  0  0  0
    6.9322  -14.8237   21.7073 N   0  0  0  0  0  0  0  0  0  0  0  0
    6.9778  -16.1910   22.0318 C   0  0  0  0  0  0  0  0  0  0  0  0
    6.2918  -16.5347   23.0584 O   0  0  0  0  0  0  0  0  0  0  0  0
    7.7406  -17.2342   21.2943 C   0  0  0  0  0  0  0  0  0  0  0  0
    9.1584  -16.8562   21.1705 C   0  0  2  0  0  0  0  0  0  0  0  0
   10.0192  -17.6615   20.3877 N   0  0  0  0  0  0  0  0  0  0  0  0
    9.7401  -16.8201   22.5478 C   0  0  0  0  0  0  0  0  0  0  0  0
   10.6455  -17.6421   22.8737 O   0  0  0  0  0  0  0  0  0  0  0  0
    9.3307  -15.8924   23.5472 N   0  0  0  0  0  0  0  0  0  0  0  0
    9.9735  -15.9317   24.8686 C   0  0  1  0  0  0  0  0  0  0  0  0
    9.3002  -14.8776   25.7276 C   0  0  0  0  0  0  0  0  0  0  0  0
    9.9083  -14.9282   27.0939 C   0  0  0  0  0  0  0  0  0  0  0  0
    9.3093  -13.8726   28.0163 C   0  0  0  0  0  0  0  0  0  0  0  0
   10.0112  -14.0338   29.3592 C   0  0  0  0  0  0  0  0  0  0  0  0
    9.5055  -13.1029   30.3323 N   0  0  0  0  0  0  0  0  0  0  0  0
    9.8078  -17.2863   25.4342 C   0  0  0  0  0  0  0  0  0  0  0  0
   10.7291  -17.8382   26.0866 O   0  0  0  0  0  0  0  0  0  0  0  0
    8.6248  -18.0217   25.2755 O   0  0  0  0  0  0  0  0  0  0  0  0
  2  1  1  6
  3  2  1  0
  4  5  1  0
  4  3  1  0
  5  6  2  0
  7  2  1  0
  7  8  2  0
  9  5  1  0
 10 11  1  0
 11 12  2  0
 11 13  1  0
 14 13  1  1
 14 15  1  0
 15  7  1  0
 16 14  1  0
 17 16  2  0
 18 16  1  0
 19 18  1  0
 19 20  1  1
 20 21  1  0
 21 22  1  0
 22 23  1  0
 23 24  1  0
 25 27  1  0
 25 19  1  0
 26 25  2  0
M  END
$$$$
