ENK.pdb
     RDKit          3D

 27 26  0  0  1  0  0  0  0  0999 V2000
    9.1130  -17.0895   17.8934 N   0  0  0  0  0  0  0  0  0  0  0  0
    8.8923  -18.0267   18.9888 C   0  0  1  0  0  0  0  0  0  0  0  0
   10.2049  -18.7775   19.2644 C   0  0  0  0  0  0  0  0  0  0  0  0
   11.4052  -17.8898   19.1538 C   0  0  0  0  0  0  0  0  0  0  0  0
   12.6905  -18.5824   19.3634 C   0  0  0  0  0  0  0  0  0  0  0  0
   13.2288  -19.3285   18.4986 O   0  0  0  0  0  0  0  0  0  0  0  0
    8.4635  -17.3083   20.2201 C   0  0  0  0  0  0  0  0  0  0  0  0
    8.7397  -16.1295   20.3662 O   0  0  0  0  0  0  0  0  0  0  0  0
   13.3587  -18.4165   20.5713 O   0  0  0  0  0  0  0  0  0  0  0  0
    6.4576  -19.7439   24.9657 N   0  0  0  0  0  0  0  0  0  0  0  0
    6.5096  -19.3684   23.6117 C   0  0  0  0  0  0  0  0  0  0  0  0
    7.0189  -20.2382   22.8200 O   0  0  0  0  0  0  0  0  0  0  0  0
    6.0323  -18.0761   23.0494 C   0  0  0  0  0  0  0  0  0  0  0  0
    7.1262  -17.3680   22.3638 C   0  0  2  0  0  0  0  0  0  0  0  0
    7.7338  -17.9681   21.2357 N   0  0  0  0  0  0  0  0  0  0  0  0
    8.2138  -17.1366   23.3641 C   0  0  0  0  0  0  0  0  0  0  0  0
    9.3114  -17.7580   23.2599 O   0  0  0  0  0  0  0  0  0  0  0  0
    8.0926  -16.2347   24.4590 N   0  0  0  0  0  0  0  0  0  0  0  0
    9.2420  -16.0334   25.3529 C   0  0  1  0  0  0  0  0  0  0  0  0
    8.8116  -15.0483   26.4237 C   0  0  0  0  0  0  0  0  0  0  0  0
    9.9239  -14.9198   27.4164 C   0  0  0  0  0  0  0  0  0  0  0  0
    9.5804  -13.9274   28.5215 C   0  0  0  0  0  0  0  0  0  0  0  0
   10.7799  -13.9057   29.4611 C   0  0  0  0  0  0  0  0  0  0  0  0
   10.6027  -12.9467   30.5185 N   0  0  0  0  0  0  0  0  0  0  0  0
    9.6246  -17.3379   25.9312 C   0  0  0  0  0  0  0  0  0  0  0  0
    8.7563  -18.1699   26.2955 O   0  0  0  0  0  0  0  0  0  0  0  0
   10.9642  -17.7142   26.1025 O   0  0  0  0  0  0  0  0  0  0  0  0
  2  1  1  6
  3  2  1  0
  4  5  1  0
  4  3  1  0
  5  6  2  0
  7  2  1  0
  7  8  2  0
  9  5  1  0
 10 11  1  0
 11 12  2  0
 11 13  1  0
 14 13  1  1
 14 15  1  0
 15  7  1  0
 16 14  1  0
 17 16  2  0
 18 16  1  0
 19 18  1  0
 19 20  1  1
 20 21  1  0
 21 22  1  0
 22 23  1  0
 23 24  1  0
 25 27  1  0
 25 19  1  0
 26 25  2  0
M  END
$$$$
