ENK.pdb
     RDKit          3D

 27 26  0  0  1  0  0  0  0  0999 V2000
   11.1961  -16.6054   18.1237 N   0  0  0  0  0  0  0  0  0  0  0  0
   11.9267  -16.4807   19.3799 C   0  0  1  0  0  0  0  0  0  0  0  0
   13.3394  -15.9567   19.0761 C   0  0  0  0  0  0  0  0  0  0  0  0
   13.3229  -14.7462   18.1954 C   0  0  0  0  0  0  0  0  0  0  0  0
   14.6586  -14.2999   17.7567 C   0  0  0  0  0  0  0  0  0  0  0  0
   15.0976  -14.4643   16.5843 O   0  0  0  0  0  0  0  0  0  0  0  0
   11.2352  -15.5380   20.3015 C   0  0  0  0  0  0  0  0  0  0  0  0
   11.8869  -14.7996   21.0206 O   0  0  0  0  0  0  0  0  0  0  0  0
   15.4919  -13.6626   18.6691 O   0  0  0  0  0  0  0  0  0  0  0  0
    7.9377  -12.0386   19.4059 N   0  0  0  0  0  0  0  0  0  0  0  0
    7.7722  -13.4327   19.4854 C   0  0  0  0  0  0  0  0  0  0  0  0
    7.6749  -14.0389   18.3603 O   0  0  0  0  0  0  0  0  0  0  0  0
    7.7034  -14.2294   20.7401 C   0  0  0  0  0  0  0  0  0  0  0  0
    9.0508  -14.6235   21.1843 C   0  0  2  0  0  0  0  0  0  0  0  0
    9.8239  -15.4772   20.3624 N   0  0  0  0  0  0  0  0  0  0  0  0
    8.9098  -15.3118   22.5045 C   0  0  0  0  0  0  0  0  0  0  0  0
    8.7739  -16.5692   22.5508 O   0  0  0  0  0  0  0  0  0  0  0  0
    8.9200  -14.6248   23.7515 N   0  0  0  0  0  0  0  0  0  0  0  0
    8.8985  -15.4023   24.9988 C   0  0  1  0  0  0  0  0  0  0  0  0
    9.3877  -14.4883   26.1068 C   0  0  0  0  0  0  0  0  0  0  0  0
    9.4969  -15.2928   27.3638 C   0  0  0  0  0  0  0  0  0  0  0  0
    9.9402  -14.4358   28.5440 C   0  0  0  0  0  0  0  0  0  0  0  0
   10.0270  -15.3739   29.7417 C   0  0  0  0  0  0  0  0  0  0  0  0
   10.4868  -14.6848   30.9177 N   0  0  0  0  0  0  0  0  0  0  0  0
    7.5172  -15.8665   25.2421 C   0  0  0  0  0  0  0  0  0  0  0  0
    6.5285  -15.2416   24.7828 O   0  0  0  0  0  0  0  0  0  0  0  0
    7.2380  -17.0184   25.9909 O   0  0  0  0  0  0  0  0  0  0  0  0
  2  1  1  6
  3  2  1  0
  4  5  1  0
  4  3  1  0
  5  6  2  0
  7  2  1  0
  7  8  2  0
  9  5  1  0
 10 11  1  0
 11 12  2  0
 11 13  1  0
 14 13  1  6
 14 15  1  0
 15  7  1  0
 16 14  1  0
 17 16  2  0
 18 16  1  0
 19 18  1  0
 19 20  1  1
 20 21  1  0
 21 22  1  0
 22 23  1  0
 23 24  1  0
 25 27  1  0
 25 19  1  0
 26 25  2  0
M  END
$$$$
