ENK.pdb
     RDKit          3D

 27 26  0  0  1  0  0  0  0  0999 V2000
   12.8685  -17.2581   18.0057 N   0  0  0  0  0  0  0  0  0  0  0  0
   12.8901  -17.7477   19.3794 C   0  0  1  0  0  0  0  0  0  0  0  0
   14.3026  -17.5443   19.9507 C   0  0  0  0  0  0  0  0  0  0  0  0
   15.3535  -18.2300   19.1344 C   0  0  0  0  0  0  0  0  0  0  0  0
   16.7297  -18.0203   19.6219 C   0  0  0  0  0  0  0  0  0  0  0  0
   17.3717  -18.8805   20.2870 O   0  0  0  0  0  0  0  0  0  0  0  0
   11.9048  -17.0114   20.2179 C   0  0  0  0  0  0  0  0  0  0  0  0
   11.9638  -15.7964   20.3036 O   0  0  0  0  0  0  0  0  0  0  0  0
   17.3696  -16.8178   19.3437 O   0  0  0  0  0  0  0  0  0  0  0  0
    9.7830  -19.9440   21.4915 N   0  0  0  0  0  0  0  0  0  0  0  0
    8.6070  -19.1865   21.6328 C   0  0  0  0  0  0  0  0  0  0  0  0
    7.5195  -19.8635   21.6737 O   0  0  0  0  0  0  0  0  0  0  0  0
    8.5354  -17.7037   21.7344 C   0  0  0  0  0  0  0  0  0  0  0  0
    9.8844  -17.1135   21.7328 C   0  0  2  0  0  0  0  0  0  0  0  0
   10.8893  -17.6958   20.9246 N   0  0  0  0  0  0  0  0  0  0  0  0
   10.3942  -17.1434   23.1385 C   0  0  0  0  0  0  0  0  0  0  0  0
   11.1551  -18.0818   23.5154 O   0  0  0  0  0  0  0  0  0  0  0  0
   10.0709  -16.1546   24.1105 N   0  0  0  0  0  0  0  0  0  0  0  0
   10.5542  -16.3191   25.4890 C   0  0  1  0  0  0  0  0  0  0  0  0
   10.0301  -15.1434   26.2923 C   0  0  0  0  0  0  0  0  0  0  0  0
   10.5307  -15.2751   27.6964 C   0  0  0  0  0  0  0  0  0  0  0  0
   10.1091  -14.0902   28.5579 C   0  0  0  0  0  0  0  0  0  0  0  0
   10.6490  -14.3674   29.9557 C   0  0  0  0  0  0  0  0  0  0  0  0
   10.3129  -13.3084   30.8693 N   0  0  0  0  0  0  0  0  0  0  0  0
   10.0549  -17.6066   26.0139 C   0  0  0  0  0  0  0  0  0  0  0  0
   10.7363  -18.2922   26.8167 O   0  0  0  0  0  0  0  0  0  0  0  0
    8.8056  -18.1275   25.6483 O   0  0  0  0  0  0  0  0  0  0  0  0
  2  1  1  6
  3  2  1  0
  4  5  1  0
  4  3  1  0
  5  6  2  0
  7  2  1  0
  7  8  2  0
  9  5  1  0
 10 11  1  0
 11 12  2  0
 11 13  1  0
 14 13  1  1
 14 15  1  0
 15  7  1  0
 16 14  1  0
 17 16  2  0
 18 16  1  0
 19 18  1  0
 19 20  1  1
 20 21  1  0
 21 22  1  0
 22 23  1  0
 23 24  1  0
 25 27  1  0
 25 19  1  0
 26 25  2  0
M  END
$$$$
