ENK.pdb
     RDKit          3D

 27 26  0  0  1  0  0  0  0  0999 V2000
    9.2630  -15.9786   15.2881 N   0  0  0  0  0  0  0  0  0  0  0  0
    8.8908  -16.7141   16.4913 C   0  0  1  0  0  0  0  0  0  0  0  0
    9.4582  -18.1391   16.3907 C   0  0  0  0  0  0  0  0  0  0  0  0
   10.3449  -18.3183   15.1979 C   0  0  0  0  0  0  0  0  0  0  0  0
   10.9767  -19.6483   15.1090 C   0  0  0  0  0  0  0  0  0  0  0  0
   11.6766  -20.0226   14.1271 O   0  0  0  0  0  0  0  0  0  0  0  0
    9.4344  -16.0482   17.7066 C   0  0  0  0  0  0  0  0  0  0  0  0
   10.6394  -15.9239   17.8469 O   0  0  0  0  0  0  0  0  0  0  0  0
   10.8029  -20.5504   16.1526 O   0  0  0  0  0  0  0  0  0  0  0  0
    6.2309  -12.7962   19.1547 N   0  0  0  0  0  0  0  0  0  0  0  0
    7.5215  -12.9230   19.6981 C   0  0  0  0  0  0  0  0  0  0  0  0
    8.3453  -11.9946   19.3786 O   0  0  0  0  0  0  0  0  0  0  0  0
    7.9856  -14.0215   20.5879 C   0  0  0  0  0  0  0  0  0  0  0  0
    8.9645  -14.8769   19.8963 C   0  0  2  0  0  0  0  0  0  0  0  0
    8.5762  -15.5493   18.7134 N   0  0  0  0  0  0  0  0  0  0  0  0
    9.4089  -15.9294   20.8614 C   0  0  0  0  0  0  0  0  0  0  0  0
    8.9124  -17.0920   20.8021 O   0  0  0  0  0  0  0  0  0  0  0  0
   10.3848  -15.7032   21.8730 N   0  0  0  0  0  0  0  0  0  0  0  0
   10.9123  -16.8479   22.6295 C   0  0  1  0  0  0  0  0  0  0  0  0
   11.5671  -17.7835   21.6305 C   0  0  0  0  0  0  0  0  0  0  0  0
   12.1846  -18.9180   22.3862 C   0  0  0  0  0  0  0  0  0  0  0  0
   12.8327  -19.9316   21.4499 C   0  0  0  0  0  0  0  0  0  0  0  0
   13.3801  -21.0418   22.3387 C   0  0  0  0  0  0  0  0  0  0  0  0
   13.9435  -22.1109   21.5585 N   0  0  0  0  0  0  0  0  0  0  0  0
   11.8802  -16.3486   23.6276 C   0  0  0  0  0  0  0  0  0  0  0  0
   12.4211  -15.2211   23.5048 O   0  0  0  0  0  0  0  0  0  0  0  0
   12.2435  -17.0987   24.7550 O   0  0  0  0  0  0  0  0  0  0  0  0
  2  1  1  6
  3  2  1  0
  4  5  1  0
  4  3  1  0
  5  6  2  0
  7  2  1  0
  7  8  2  0
  9  5  1  0
 10 11  1  0
 11 12  2  0
 11 13  1  0
 14 13  1  1
 14 15  1  0
 15  7  1  0
 16 14  1  0
 17 16  2  0
 18 16  1  0
 19 18  1  0
 19 20  1  6
 20 21  1  0
 21 22  1  0
 22 23  1  0
 23 24  1  0
 25 27  1  0
 25 19  1  0
 26 25  2  0
M  END
$$$$
