ENK.pdb
     RDKit          3D

 27 26  0  0  1  0  0  0  0  0999 V2000
    9.2529  -16.8978   16.7072 N   0  0  0  0  0  0  0  0  0  0  0  0
   10.4855  -17.2836   17.3847 C   0  0  1  0  0  0  0  0  0  0  0  0
   11.6105  -17.3765   16.3415 C   0  0  0  0  0  0  0  0  0  0  0  0
   11.7027  -16.1491   15.4895 C   0  0  0  0  0  0  0  0  0  0  0  0
   12.7682  -16.1993   14.4706 C   0  0  0  0  0  0  0  0  0  0  0  0
   13.8254  -15.5119   14.5341 O   0  0  0  0  0  0  0  0  0  0  0  0
   10.8529  -16.2824   18.4232 C   0  0  0  0  0  0  0  0  0  0  0  0
   11.9523  -16.3245   18.9493 O   0  0  0  0  0  0  0  0  0  0  0  0
   12.6173  -17.0426   13.3756 O   0  0  0  0  0  0  0  0  0  0  0  0
    7.0025  -12.5435   18.8705 N   0  0  0  0  0  0  0  0  0  0  0  0
    7.8944  -13.4406   19.4842 C   0  0  0  0  0  0  0  0  0  0  0  0
    7.4347  -14.6199   19.6860 O   0  0  0  0  0  0  0  0  0  0  0  0
    9.2879  -13.1303   19.9035 C   0  0  0  0  0  0  0  0  0  0  0  0
   10.1268  -14.3399   19.8678 C   0  0  2  0  0  0  0  0  0  0  0  0
    9.9471  -15.2711   18.8176 N   0  0  0  0  0  0  0  0  0  0  0  0
    9.9022  -15.0854   21.1447 C   0  0  0  0  0  0  0  0  0  0  0  0
    8.7360  -15.4622   21.4603 O   0  0  0  0  0  0  0  0  0  0  0  0
   10.9463  -15.4103   22.0564 N   0  0  0  0  0  0  0  0  0  0  0  0
   10.6700  -16.3392   23.1617 C   0  0  1  0  0  0  0  0  0  0  0  0
   10.3957  -17.6994   22.5479 C   0  0  0  0  0  0  0  0  0  0  0  0
   10.2725  -18.6973   23.6562 C   0  0  0  0  0  0  0  0  0  0  0  0
   10.2462  -20.1266   23.1266 C   0  0  0  0  0  0  0  0  0  0  0  0
   10.0299  -21.0250   24.3383 C   0  0  0  0  0  0  0  0  0  0  0  0
   10.1011  -22.4165   23.9811 N   0  0  0  0  0  0  0  0  0  0  0  0
   11.8444  -16.3698   24.0575 C   0  0  0  0  0  0  0  0  0  0  0  0
   11.8218  -17.0051   25.1414 O   0  0  0  0  0  0  0  0  0  0  0  0
   13.0359  -15.6984   23.7490 O   0  0  0  0  0  0  0  0  0  0  0  0
  2  1  1  6
  3  2  1  0
  4  5  1  0
  4  3  1  0
  5  6  2  0
  7  2  1  0
  7  8  2  0
  9  5  1  0
 10 11  1  0
 11 12  2  0
 11 13  1  0
 14 13  1  6
 14 15  1  0
 15  7  1  0
 16 14  1  0
 17 16  2  0
 18 16  1  0
 19 18  1  0
 19 20  1  6
 20 21  1  0
 21 22  1  0
 22 23  1  0
 23 24  1  0
 25 27  1  0
 25 19  1  0
 26 25  2  0
M  END
$$$$
