ENK.pdb
     RDKit          3D

 27 26  0  0  1  0  0  0  0  0999 V2000
   11.3405  -19.3717   20.0485 N   0  0  0  0  0  0  0  0  0  0  0  0
   10.9347  -18.1378   19.3854 C   0  0  1  0  0  0  0  0  0  0  0  0
   10.6296  -18.4500   17.9116 C   0  0  0  0  0  0  0  0  0  0  0  0
   11.8529  -18.3939   17.0505 C   0  0  0  0  0  0  0  0  0  0  0  0
   11.6062  -18.7030   15.6294 C   0  0  0  0  0  0  0  0  0  0  0  0
   12.3192  -18.2599   14.6863 O   0  0  0  0  0  0  0  0  0  0  0  0
    9.7228  -17.5646   20.0325 C   0  0  0  0  0  0  0  0  0  0  0  0
    9.2598  -16.5091   19.6340 O   0  0  0  0  0  0  0  0  0  0  0  0
   10.5363  -19.5242   15.2921 O   0  0  0  0  0  0  0  0  0  0  0  0
    7.8511  -21.2883   22.1781 N   0  0  0  0  0  0  0  0  0  0  0  0
    7.1743  -20.1540   21.6961 C   0  0  0  0  0  0  0  0  0  0  0  0
    6.6254  -20.2898   20.5460 O   0  0  0  0  0  0  0  0  0  0  0  0
    7.0535  -18.8494   22.4013 C   0  0  0  0  0  0  0  0  0  0  0  0
    7.8931  -17.8262   21.7562 C   0  0  2  0  0  0  0  0  0  0  0  0
    9.0876  -18.2236   21.1101 N   0  0  0  0  0  0  0  0  0  0  0  0
    8.2827  -16.8326   22.8040 C   0  0  0  0  0  0  0  0  0  0  0  0
    9.4362  -16.8799   23.3225 O   0  0  0  0  0  0  0  0  0  0  0  0
    7.4151  -15.8047   23.2704 N   0  0  0  0  0  0  0  0  0  0  0  0
    7.7831  -15.0477   24.4756 C   0  0  1  0  0  0  0  0  0  0  0  0
    6.6538  -14.0742   24.7571 C   0  0  0  0  0  0  0  0  0  0  0  0
    6.9810  -13.3274   26.0120 C   0  0  0  0  0  0  0  0  0  0  0  0
    5.8996  -12.3109   26.3604 C   0  0  0  0  0  0  0  0  0  0  0  0
    6.3325  -11.6615   27.6692 C   0  0  0  0  0  0  0  0  0  0  0  0
    5.3648  -10.6997   28.1248 N   0  0  0  0  0  0  0  0  0  0  0  0
    7.9765  -15.9985   25.5896 C   0  0  0  0  0  0  0  0  0  0  0  0
    7.2050  -16.9765   25.7541 O   0  0  0  0  0  0  0  0  0  0  0  0
    9.0217  -15.8621   26.5140 O   0  0  0  0  0  0  0  0  0  0  0  0
  2  1  1  1
  3  2  1  0
  4  5  1  0
  4  3  1  0
  5  6  2  0
  7  2  1  0
  7  8  2  0
  9  5  1  0
 10 11  1  0
 11 12  2  0
 11 13  1  0
 14 13  1  1
 14 15  1  0
 15  7  1  0
 16 14  1  0
 17 16  2  0
 18 16  1  0
 19 18  1  0
 19 20  1  1
 20 21  1  0
 21 22  1  0
 22 23  1  0
 23 24  1  0
 25 27  1  0
 25 19  1  0
 26 25  2  0
M  END
$$$$
