ENK.pdb
     RDKit          3D

 27 26  0  0  1  0  0  0  0  0999 V2000
   10.0592  -13.8399   19.6266 N   0  0  0  0  0  0  0  0  0  0  0  0
    8.6432  -13.4936   19.6696 C   0  0  1  0  0  0  0  0  0  0  0  0
    8.0555  -13.6544   18.2584 C   0  0  0  0  0  0  0  0  0  0  0  0
    8.7659  -14.7023   17.4595 C   0  0  0  0  0  0  0  0  0  0  0  0
    8.3523  -14.7675   16.0450 C   0  0  0  0  0  0  0  0  0  0  0  0
    8.9390  -14.1419   15.1184 O   0  0  0  0  0  0  0  0  0  0  0  0
    7.9114  -14.3796   20.6159 C   0  0  0  0  0  0  0  0  0  0  0  0
    6.7009  -14.2839   20.7292 O   0  0  0  0  0  0  0  0  0  0  0  0
    7.2609  -15.5545   15.6954 O   0  0  0  0  0  0  0  0  0  0  0  0
    5.8850  -18.1992   23.7228 N   0  0  0  0  0  0  0  0  0  0  0  0
    7.1719  -18.3327   23.1725 C   0  0  0  0  0  0  0  0  0  0  0  0
    7.9335  -19.1818   23.7570 O   0  0  0  0  0  0  0  0  0  0  0  0
    7.6973  -17.5835   21.9991 C   0  0  0  0  0  0  0  0  0  0  0  0
    8.0268  -16.1968   22.3686 C   0  0  2  0  0  0  0  0  0  0  0  0
    8.5947  -15.3417   21.3947 N   0  0  0  0  0  0  0  0  0  0  0  0
    8.9929  -16.2487   23.5091 C   0  0  0  0  0  0  0  0  0  0  0  0
    9.2644  -17.3562   24.0580 O   0  0  0  0  0  0  0  0  0  0  0  0
    9.6486  -15.0989   24.0336 N   0  0  0  0  0  0  0  0  0  0  0  0
    9.2132  -14.5526   25.3269 C   0  0  1  0  0  0  0  0  0  0  0  0
    7.8667  -13.8893   25.1044 C   0  0  0  0  0  0  0  0  0  0  0  0
    7.3555  -13.4116   26.4272 C   0  0  0  0  0  0  0  0  0  0  0  0
    6.3322  -12.2934   26.2648 C   0  0  0  0  0  0  0  0  0  0  0  0
    5.9344  -11.8732   27.6745 C   0  0  0  0  0  0  0  0  0  0  0  0
    4.9754  -10.8012   27.6532 N   0  0  0  0  0  0  0  0  0  0  0  0
    9.1235  -15.6596   26.3010 C   0  0  0  0  0  0  0  0  0  0  0  0
    9.4594  -15.5013   27.5014 O   0  0  0  0  0  0  0  0  0  0  0  0
    8.6629  -16.9342   25.9419 O   0  0  0  0  0  0  0  0  0  0  0  0
  2  1  1  6
  3  2  1  0
  4  5  1  0
  4  3  1  0
  5  6  2  0
  7  2  1  0
  7  8  2  0
  9  5  1  0
 10 11  1  0
 11 12  2  0
 11 13  1  0
 14 13  1  6
 14 15  1  0
 15  7  1  0
 16 14  1  0
 17 16  2  0
 18 16  1  0
 19 18  1  0
 19 20  1  6
 20 21  1  0
 21 22  1  0
 22 23  1  0
 23 24  1  0
 25 27  1  0
 25 19  1  0
 26 25  2  0
M  END
$$$$
