ENK.pdb
     RDKit          3D

 27 26  0  0  1  0  0  0  0  0999 V2000
   10.1263  -18.5164   18.7833 N   0  0  0  0  0  0  0  0  0  0  0  0
   11.2782  -17.7374   19.2229 C   0  0  1  0  0  0  0  0  0  0  0  0
   12.0592  -17.2736   17.9829 C   0  0  0  0  0  0  0  0  0  0  0  0
   11.2918  -17.4793   16.7142 C   0  0  0  0  0  0  0  0  0  0  0  0
   12.0126  -17.0604   15.4973 C   0  0  0  0  0  0  0  0  0  0  0  0
   11.4340  -16.6936   14.4366 O   0  0  0  0  0  0  0  0  0  0  0  0
   10.8439  -16.5500   20.0087 C   0  0  0  0  0  0  0  0  0  0  0  0
   11.6758  -15.8004   20.4917 O   0  0  0  0  0  0  0  0  0  0  0  0
   13.4029  -17.0634   15.5003 O   0  0  0  0  0  0  0  0  0  0  0  0
    7.9123  -12.5951   19.2633 N   0  0  0  0  0  0  0  0  0  0  0  0
    7.6180  -13.9614   19.4174 C   0  0  0  0  0  0  0  0  0  0  0  0
    7.3467  -14.5900   18.3340 O   0  0  0  0  0  0  0  0  0  0  0  0
    7.5985  -14.7061   20.7054 C   0  0  0  0  0  0  0  0  0  0  0  0
    8.9337  -15.2408   21.0209 C   0  0  2  0  0  0  0  0  0  0  0  0
    9.4733  -16.2668   20.2096 N   0  0  0  0  0  0  0  0  0  0  0  0
    8.8895  -15.7766   22.4165 C   0  0  0  0  0  0  0  0  0  0  0  0
    8.8957  -17.0266   22.6145 O   0  0  0  0  0  0  0  0  0  0  0  0
    8.8406  -14.9476   23.5730 N   0  0  0  0  0  0  0  0  0  0  0  0
    8.8552  -15.5717   24.9038 C   0  0  1  0  0  0  0  0  0  0  0  0
    9.0680  -14.4631   25.9178 C   0  0  0  0  0  0  0  0  0  0  0  0
    9.2588  -15.0894   27.2634 C   0  0  0  0  0  0  0  0  0  0  0  0
    9.4532  -14.0389   28.3509 C   0  0  0  0  0  0  0  0  0  0  0  0
    9.6768  -14.8064   29.6482 C   0  0  0  0  0  0  0  0  0  0  0  0
    9.8272  -13.9155   30.7675 N   0  0  0  0  0  0  0  0  0  0  0  0
    7.5682  -16.2658   25.1139 C   0  0  0  0  0  0  0  0  0  0  0  0
    6.5162  -15.8749   24.5487 O   0  0  0  0  0  0  0  0  0  0  0  0
    7.4526  -17.3877   25.9468 O   0  0  0  0  0  0  0  0  0  0  0  0
  2  1  1  6
  3  2  1  0
  4  5  1  0
  4  3  1  0
  5  6  2  0
  7  2  1  0
  7  8  2  0
  9  5  1  0
 10 11  1  0
 11 12  2  0
 11 13  1  0
 14 13  1  6
 14 15  1  0
 15  7  1  0
 16 14  1  0
 17 16  2  0
 18 16  1  0
 19 18  1  0
 19 20  1  1
 20 21  1  0
 21 22  1  0
 22 23  1  0
 23 24  1  0
 25 27  1  0
 25 19  1  0
 26 25  2  0
M  END
$$$$
