ENK.pdb
     RDKit          3D

 27 26  0  0  1  0  0  0  0  0999 V2000
   13.2153  -16.3977   14.7986 N   0  0  0  0  0  0  0  0  0  0  0  0
   13.1915  -15.5691   15.9986 C   0  0  1  0  0  0  0  0  0  0  0  0
   11.7330  -15.4123   16.4578 C   0  0  0  0  0  0  0  0  0  0  0  0
   11.6169  -14.6542   17.7434 C   0  0  0  0  0  0  0  0  0  0  0  0
   10.2290  -14.4314   18.1904 C   0  0  0  0  0  0  0  0  0  0  0  0
    9.9291  -13.9612   19.3232 O   0  0  0  0  0  0  0  0  0  0  0  0
   13.9903  -16.1944   17.0881 C   0  0  0  0  0  0  0  0  0  0  0  0
   13.7433  -17.3326   17.4496 O   0  0  0  0  0  0  0  0  0  0  0  0
    9.1829  -14.7502   17.3320 O   0  0  0  0  0  0  0  0  0  0  0  0
   19.0396  -15.7584   16.8756 N   0  0  0  0  0  0  0  0  0  0  0  0
   18.0447  -16.3141   17.6992 C   0  0  0  0  0  0  0  0  0  0  0  0
   17.7821  -17.5502   17.4850 O   0  0  0  0  0  0  0  0  0  0  0  0
   17.2983  -15.5945   18.7664 C   0  0  0  0  0  0  0  0  0  0  0  0
   15.8756  -15.9740   18.7567 C   0  0  2  0  0  0  0  0  0  0  0  0
   15.0419  -15.4918   17.7201 N   0  0  0  0  0  0  0  0  0  0  0  0
   15.2730  -15.5074   20.0435 C   0  0  0  0  0  0  0  0  0  0  0  0
   15.2243  -14.2705   20.3071 O   0  0  0  0  0  0  0  0  0  0  0  0
   14.7327  -16.3900   21.0213 N   0  0  0  0  0  0  0  0  0  0  0  0
   14.2365  -15.8376   22.2899 C   0  0  1  0  0  0  0  0  0  0  0  0
   13.1141  -16.7412   22.7652 C   0  0  0  0  0  0  0  0  0  0  0  0
   12.5695  -16.1802   24.0411 C   0  0  0  0  0  0  0  0  0  0  0  0
   11.4451  -17.0440   24.6013 C   0  0  0  0  0  0  0  0  0  0  0  0
   10.9482  -16.3344   25.8549 C   0  0  0  0  0  0  0  0  0  0  0  0
    9.8452  -17.0363   26.4547 N   0  0  0  0  0  0  0  0  0  0  0  0
   15.3532  -15.7975   23.2563 C   0  0  0  0  0  0  0  0  0  0  0  0
   15.3600  -14.9816   24.2120 O   0  0  0  0  0  0  0  0  0  0  0  0
   16.4546  -16.6596   23.1602 O   0  0  0  0  0  0  0  0  0  0  0  0
  2  1  1  6
  3  2  1  0
  4  5  1  0
  4  3  1  0
  5  6  2  0
  7  2  1  0
  7  8  2  0
  9  5  1  0
 10 11  1  0
 11 12  2  0
 11 13  1  0
 14 13  1  6
 14 15  1  0
 15  7  1  0
 16 14  1  0
 17 16  2  0
 18 16  1  0
 19 18  1  0
 19 20  1  1
 20 21  1  0
 21 22  1  0
 22 23  1  0
 23 24  1  0
 25 27  1  0
 25 19  1  0
 26 25  2  0
M  END
$$$$
