SKY.pdb
     RDKit          3D

 28 28  0  0  1  0  0  0  0  0999 V2000
   27.0108  -22.4259  -15.5821 O   0  0  0  0  0  0  0  0  0  0  0  0
   27.6070  -21.1655  -15.3738 C   0  0  0  0  0  0  0  0  0  0  0  0
   26.9750  -20.1853  -16.3257 C   0  0  2  0  0  0  0  0  0  0  0  0
   27.8925  -19.1266  -16.7009 N   0  0  0  0  0  0  0  0  0  0  0  0
   25.7883  -19.5692  -15.6968 C   0  0  0  0  0  0  0  0  0  0  0  0
   25.9557  -18.6586  -14.8565 O   0  0  0  0  0  0  0  0  0  0  0  0
   24.4767  -19.9845  -16.0225 N   0  0  0  0  0  0  0  0  0  0  0  0
   23.3106  -19.4256  -15.4149 C   0  0  1  0  0  0  0  0  0  0  0  0
   22.1904  -19.1891  -16.4017 C   0  0  0  0  0  0  0  0  0  0  0  0
   22.1868  -17.7186  -16.8246 C   0  0  0  0  0  0  0  0  0  0  0  0
   21.0905  -17.4498  -17.8231 C   0  0  0  0  0  0  0  0  0  0  0  0
   21.1573  -16.0242  -18.2691 C   0  0  0  0  0  0  0  0  0  0  0  0
   20.1044  -15.8110  -19.2480 N   0  0  0  0  0  0  0  0  0  0  0  0
   22.7666  -20.2917  -14.3387 C   0  0  0  0  0  0  0  0  0  0  0  0
   22.7467  -21.5324  -14.5249 O   0  0  0  0  0  0  0  0  0  0  0  0
   19.7407  -22.6830   -6.2535 O   0  0  0  0  0  0  0  0  0  0  0  0
   20.2276  -21.9841   -7.3613 C   0  0  0  0  0  0  0  0  0  0  0  0
   21.5792  -21.7810   -7.5444 C   0  0  0  0  0  0  0  0  0  0  0  0
   22.0560  -21.0908   -8.6391 C   0  0  0  0  0  0  0  0  0  0  0  0
   21.2097  -20.5699   -9.6035 C   0  0  0  0  0  0  0  0  0  0  0  0
   21.7379  -19.8256  -10.7744 C   0  0  0  0  0  0  0  0  0  0  0  0
   21.8046  -20.6601  -12.0302 C   0  0  2  0  0  0  0  0  0  0  0  0
   22.2686  -19.7922  -13.1123 N   0  0  0  0  0  0  0  0  0  0  0  0
   20.4842  -21.1900  -12.4524 C   0  0  0  0  0  0  0  0  0  0  0  0
   20.0593  -22.4756  -12.1396 O   0  0  0  0  0  0  0  0  0  0  0  0
   19.8580  -20.7766   -9.4141 C   0  0  0  0  0  0  0  0  0  0  0  0
   19.3769  -21.4689   -8.3167 C   0  0  0  0  0  0  0  0  0  0  0  0
   19.6503  -20.4998  -13.1319 O   0  0  0  0  0  0  0  0  0  0  0  0
  1  2  1  0
  2  3  1  0
  3  4  1  1
  5  3  1  0
  5  6  2  0
  7  5  1  0
  8  7  1  0
  8  9  1  6
 10  9  1  0
 11 10  1  0
 12 11  1  0
 12 13  1  0
 14  8  1  0
 15 14  2  0
 16 17  1  0
 17 18  2  0
 17 27  1  0
 18 19  1  0
 19 20  2  0
 20 21  1  0
 22 21  1  1
 22 24  1  0
 22 23  1  0
 23 14  1  0
 24 25  1  0
 26 20  1  0
 27 26  2  0
 28 24  2  0
M  END
$$$$
