SKY.pdb
     RDKit          3D

 28 28  0  0  1  0  0  0  0  0999 V2000
   11.9557  -12.0140   -9.5330 O   0  0  0  0  0  0  0  0  0  0  0  0
   13.0115  -11.9024  -10.4605 C   0  0  0  0  0  0  0  0  0  0  0  0
   12.5612  -12.5172  -11.7588 C   0  0  2  0  0  0  0  0  0  0  0  0
   12.5446  -13.9661  -11.6946 N   0  0  0  0  0  0  0  0  0  0  0  0
   13.4730  -12.1118  -12.8487 C   0  0  0  0  0  0  0  0  0  0  0  0
   14.4222  -12.8666  -13.1527 O   0  0  0  0  0  0  0  0  0  0  0  0
   13.2960  -10.8972  -13.5503 N   0  0  0  0  0  0  0  0  0  0  0  0
   14.1814  -10.4593  -14.5826 C   0  0  1  0  0  0  0  0  0  0  0  0
   13.4563   -9.8317  -15.7508 C   0  0  0  0  0  0  0  0  0  0  0  0
   14.4671   -9.4632  -16.8388 C   0  0  0  0  0  0  0  0  0  0  0  0
   13.7748   -8.8539  -18.0307 C   0  0  0  0  0  0  0  0  0  0  0  0
   14.7809   -8.5534  -19.0951 C   0  0  0  0  0  0  0  0  0  0  0  0
   15.3257   -9.8157  -19.5663 N   0  0  0  0  0  0  0  0  0  0  0  0
   15.1655   -9.4608  -14.0941 C   0  0  0  0  0  0  0  0  0  0  0  0
   14.7544   -8.5260  -13.3649 O   0  0  0  0  0  0  0  0  0  0  0  0
   22.9915   -5.1707  -13.3068 O   0  0  0  0  0  0  0  0  0  0  0  0
   21.9854   -6.1210  -13.5001 C   0  0  0  0  0  0  0  0  0  0  0  0
   21.4052   -6.3107  -14.7365 C   0  0  0  0  0  0  0  0  0  0  0  0
   20.4126   -7.2497  -14.9234 C   0  0  0  0  0  0  0  0  0  0  0  0
   19.9503   -8.0446  -13.8879 C   0  0  0  0  0  0  0  0  0  0  0  0
   18.8782   -9.0484  -14.1039 C   0  0  0  0  0  0  0  0  0  0  0  0
   17.4888   -8.4697  -13.9924 C   0  0  2  0  0  0  0  0  0  0  0  0
   16.5444   -9.5068  -14.4072 N   0  0  0  0  0  0  0  0  0  0  0  0
   17.2629   -7.3107  -14.8915 C   0  0  0  0  0  0  0  0  0  0  0  0
   17.3433   -5.9952  -14.4507 O   0  0  0  0  0  0  0  0  0  0  0  0
   20.5351   -7.8496  -12.6529 C   0  0  0  0  0  0  0  0  0  0  0  0
   21.5315   -6.9081  -12.4626 C   0  0  0  0  0  0  0  0  0  0  0  0
   16.9792   -7.4451  -16.1304 O   0  0  0  0  0  0  0  0  0  0  0  0
  1  2  1  0
  2  3  1  0
  3  4  1  1
  5  3  1  0
  5  6  2  0
  7  5  1  0
  8  7  1  0
  8  9  1  6
 10  9  1  0
 11 10  1  0
 12 11  1  0
 12 13  1  0
 14  8  1  0
 15 14  2  0
 16 17  1  0
 17 18  2  0
 17 27  1  0
 18 19  1  0
 19 20  2  0
 20 21  1  0
 22 21  1  6
 22 24  1  0
 22 23  1  0
 23 14  1  0
 24 25  1  0
 26 20  1  0
 27 26  2  0
 28 24  2  0
M  END
$$$$
