SKY.pdb
     RDKit          3D

 28 28  0  0  1  0  0  0  0  0999 V2000
   27.4273  -18.7880  -16.7676 O   0  0  0  0  0  0  0  0  0  0  0  0
   27.8126  -19.9585  -17.4525 C   0  0  0  0  0  0  0  0  0  0  0  0
   28.3849  -20.9222  -16.4475 C   0  0  2  0  0  0  0  0  0  0  0  0
   28.9076  -22.1178  -17.0808 N   0  0  0  0  0  0  0  0  0  0  0  0
   27.3373  -21.3265  -15.4871 C   0  0  0  0  0  0  0  0  0  0  0  0
   26.4773  -22.1591  -15.8481 O   0  0  0  0  0  0  0  0  0  0  0  0
   27.2870  -20.7957  -14.1777 N   0  0  0  0  0  0  0  0  0  0  0  0
   26.1958  -21.0291  -13.2853 C   0  0  1  0  0  0  0  0  0  0  0  0
   26.4914  -20.5909  -11.8693 C   0  0  0  0  0  0  0  0  0  0  0  0
   25.3234  -20.9815  -10.9614 C   0  0  0  0  0  0  0  0  0  0  0  0
   25.6590  -20.7254   -9.5147 C   0  0  0  0  0  0  0  0  0  0  0  0
   24.5633  -21.2534   -8.6450 C   0  0  0  0  0  0  0  0  0  0  0  0
   24.9059  -20.9585   -7.2637 N   0  0  0  0  0  0  0  0  0  0  0  0
   24.9605  -20.3239  -13.7101 C   0  0  0  0  0  0  0  0  0  0  0  0
   24.9839  -19.0715  -13.7824 O   0  0  0  0  0  0  0  0  0  0  0  0
   17.4242  -18.3421  -17.8646 O   0  0  0  0  0  0  0  0  0  0  0  0
   18.6240  -18.8726  -17.3833 C   0  0  0  0  0  0  0  0  0  0  0  0
   19.8142  -18.1881  -17.5117 C   0  0  0  0  0  0  0  0  0  0  0  0
   20.9963  -18.7149  -17.0353 C   0  0  0  0  0  0  0  0  0  0  0  0
   21.0497  -19.9485  -16.4083 C   0  0  0  0  0  0  0  0  0  0  0  0
   22.3307  -20.5042  -15.9043 C   0  0  0  0  0  0  0  0  0  0  0  0
   22.5364  -20.2810  -14.4259 C   0  0  2  0  0  0  0  0  0  0  0  0
   23.7560  -20.9895  -14.0383 N   0  0  0  0  0  0  0  0  0  0  0  0
   21.4427  -20.8382  -13.5916 C   0  0  0  0  0  0  0  0  0  0  0  0
   20.3522  -20.0795  -13.1836 O   0  0  0  0  0  0  0  0  0  0  0  0
   19.8550  -20.6286  -16.2831 C   0  0  0  0  0  0  0  0  0  0  0  0
   18.6673  -20.1022  -16.7602 C   0  0  0  0  0  0  0  0  0  0  0  0
   21.4311  -22.0523  -13.1924 O   0  0  0  0  0  0  0  0  0  0  0  0
  1  2  1  0
  2  3  1  0
  3  4  1  6
  5  3  1  0
  5  6  2  0
  7  5  1  0
  8  7  1  0
  8  9  1  1
 10  9  1  0
 11 10  1  0
 12 11  1  0
 12 13  1  0
 14  8  1  0
 15 14  2  0
 16 17  1  0
 17 18  2  0
 17 27  1  0
 18 19  1  0
 19 20  2  0
 20 21  1  0
 22 21  1  6
 22 24  1  0
 22 23  1  0
 23 14  1  0
 24 25  1  0
 26 20  1  0
 27 26  2  0
 28 24  2  0
M  END
$$$$
