SKY.pdb
     RDKit          3D

 28 28  0  0  1  0  0  0  0  0999 V2000
   30.3017  -16.8633  -17.7945 O   0  0  0  0  0  0  0  0  0  0  0  0
   29.1987  -17.7097  -17.5605 C   0  0  0  0  0  0  0  0  0  0  0  0
   29.2890  -18.8710  -18.5141 C   0  0  2  0  0  0  0  0  0  0  0  0
   29.0268  -18.4692  -19.8828 N   0  0  0  0  0  0  0  0  0  0  0  0
   28.3043  -19.9066  -18.1382 C   0  0  0  0  0  0  0  0  0  0  0  0
   27.0986  -19.5879  -18.0488 O   0  0  0  0  0  0  0  0  0  0  0  0
   28.6936  -21.2408  -17.8791 N   0  0  0  0  0  0  0  0  0  0  0  0
   27.7780  -22.2475  -17.4435 C   0  0  1  0  0  0  0  0  0  0  0  0
   28.3384  -23.6454  -17.5705 C   0  0  0  0  0  0  0  0  0  0  0  0
   27.2544  -24.6630  -17.2090 C   0  0  0  0  0  0  0  0  0  0  0  0
   27.7667  -26.0716  -17.3658 C   0  0  0  0  0  0  0  0  0  0  0  0
   26.6364  -26.9777  -17.7360 C   0  0  0  0  0  0  0  0  0  0  0  0
   27.1791  -28.3099  -17.9430 N   0  0  0  0  0  0  0  0  0  0  0  0
   27.3758  -22.0671  -16.0259 C   0  0  0  0  0  0  0  0  0  0  0  0
   28.2684  -22.0973  -15.1445 O   0  0  0  0  0  0  0  0  0  0  0  0
   23.9462  -20.6668   -8.1418 O   0  0  0  0  0  0  0  0  0  0  0  0
   24.4388  -20.6899   -9.4493 C   0  0  0  0  0  0  0  0  0  0  0  0
   23.6747  -20.2558  -10.5119 C   0  0  0  0  0  0  0  0  0  0  0  0
   24.1643  -20.2799  -11.8009 C   0  0  0  0  0  0  0  0  0  0  0  0
   25.4382  -20.7375  -12.0933 C   0  0  0  0  0  0  0  0  0  0  0  0
   25.9497  -20.7611  -13.4867 C   0  0  0  0  0  0  0  0  0  0  0  0
   25.5978  -22.0270  -14.2294 C   0  0  2  0  0  0  0  0  0  0  0  0
   26.0377  -21.8626  -15.6147 N   0  0  0  0  0  0  0  0  0  0  0  0
   24.1380  -22.2902  -14.2797 C   0  0  0  0  0  0  0  0  0  0  0  0
   23.3053  -21.7083  -15.2280 O   0  0  0  0  0  0  0  0  0  0  0  0
   26.1978  -21.1707  -11.0253 C   0  0  0  0  0  0  0  0  0  0  0  0
   25.7089  -21.1475   -9.7308 C   0  0  0  0  0  0  0  0  0  0  0  0
   23.5497  -23.0686  -13.4543 O   0  0  0  0  0  0  0  0  0  0  0  0
  1  2  1  0
  2  3  1  0
  3  4  1  6
  5  3  1  0
  5  6  2  0
  7  5  1  0
  8  7  1  0
  8  9  1  1
 10  9  1  0
 11 10  1  0
 12 11  1  0
 12 13  1  0
 14  8  1  0
 15 14  2  0
 16 17  1  0
 17 18  2  0
 17 27  1  0
 18 19  1  0
 19 20  2  0
 20 21  1  0
 22 21  1  1
 22 24  1  0
 22 23  1  0
 23 14  1  0
 24 25  1  0
 26 20  1  0
 27 26  2  0
 28 24  2  0
M  END
$$$$
