SKY.pdb
     RDKit          3D

 28 28  0  0  1  0  0  0  0  0999 V2000
   28.7050  -16.8387  -18.9365 O   0  0  0  0  0  0  0  0  0  0  0  0
   29.8662  -17.1952  -18.2208 C   0  0  0  0  0  0  0  0  0  0  0  0
   30.6633  -18.1511  -19.0678 C   0  0  2  0  0  0  0  0  0  0  0  0
   30.8534  -17.6507  -20.4158 N   0  0  0  0  0  0  0  0  0  0  0  0
   29.9651  -19.4507  -19.1498 C   0  0  0  0  0  0  0  0  0  0  0  0
   29.2554  -19.6918  -20.1505 O   0  0  0  0  0  0  0  0  0  0  0  0
   30.0816  -20.4208  -18.1279 N   0  0  0  0  0  0  0  0  0  0  0  0
   29.4099  -21.6811  -18.1718 C   0  0  1  0  0  0  0  0  0  0  0  0
   30.3243  -22.8447  -17.8651 C   0  0  0  0  0  0  0  0  0  0  0  0
   29.5928  -24.1570  -18.1549 C   0  0  0  0  0  0  0  0  0  0  0  0
   29.4641  -24.9875  -16.9039 C   0  0  0  0  0  0  0  0  0  0  0  0
   28.8231  -26.2970  -17.2355 C   0  0  0  0  0  0  0  0  0  0  0  0
   28.9129  -27.1499  -16.0621 N   0  0  0  0  0  0  0  0  0  0  0  0
   28.2802  -21.7505  -17.2110 C   0  0  0  0  0  0  0  0  0  0  0  0
   28.5399  -21.7365  -15.9834 O   0  0  0  0  0  0  0  0  0  0  0  0
   20.4029  -20.5255  -13.4305 O   0  0  0  0  0  0  0  0  0  0  0  0
   21.5691  -20.5365  -14.2003 C   0  0  0  0  0  0  0  0  0  0  0  0
   22.8168  -20.5183  -13.6133 C   0  0  0  0  0  0  0  0  0  0  0  0
   23.9655  -20.5293  -14.3763 C   0  0  0  0  0  0  0  0  0  0  0  0
   23.9267  -20.5588  -15.7603 C   0  0  0  0  0  0  0  0  0  0  0  0
   25.1721  -20.5662  -16.5681 C   0  0  0  0  0  0  0  0  0  0  0  0
   25.8218  -21.9260  -16.6491 C   0  0  2  0  0  0  0  0  0  0  0  0
   26.9242  -21.8320  -17.6059 N   0  0  0  0  0  0  0  0  0  0  0  0
   24.9109  -22.9811  -17.1588 C   0  0  0  0  0  0  0  0  0  0  0  0
   24.2256  -23.8485  -16.3167 O   0  0  0  0  0  0  0  0  0  0  0  0
   22.6748  -20.5766  -16.3415 C   0  0  0  0  0  0  0  0  0  0  0  0
   21.5204  -20.5658  -15.5782 C   0  0  0  0  0  0  0  0  0  0  0  0
   24.6964  -23.1624  -18.4056 O   0  0  0  0  0  0  0  0  0  0  0  0
  1  2  1  0
  2  3  1  0
  3  4  1  6
  5  3  1  0
  5  6  2  0
  7  5  1  0
  8  7  1  0
  8  9  1  1
 10  9  1  0
 11 10  1  0
 12 11  1  0
 12 13  1  0
 14  8  1  0
 15 14  2  0
 16 17  1  0
 17 18  2  0
 17 27  1  0
 18 19  1  0
 19 20  2  0
 20 21  1  0
 22 21  1  6
 22 24  1  0
 22 23  1  0
 23 14  1  0
 24 25  1  0
 26 20  1  0
 27 26  2  0
 28 24  2  0
M  END
$$$$
