SKY.pdb
     RDKit          3D

 28 28  0  0  1  0  0  0  0  0999 V2000
   27.8413   -9.8552  -15.4784 O   0  0  0  0  0  0  0  0  0  0  0  0
   27.1265  -11.0569  -15.2979 C   0  0  0  0  0  0  0  0  0  0  0  0
   26.5946  -11.4911  -16.6375 C   0  0  2  0  0  0  0  0  0  0  0  0
   27.6106  -11.4254  -17.6705 N   0  0  0  0  0  0  0  0  0  0  0  0
   25.4701  -10.6199  -17.0372 C   0  0  0  0  0  0  0  0  0  0  0  0
   25.6907   -9.6735  -17.8239 O   0  0  0  0  0  0  0  0  0  0  0  0
   24.1590  -10.8320  -16.5523 N   0  0  0  0  0  0  0  0  0  0  0  0
   23.0349  -10.0660  -16.9892 C   0  0  1  0  0  0  0  0  0  0  0  0
   21.7166  -10.7591  -16.7322 C   0  0  0  0  0  0  0  0  0  0  0  0
   21.5882  -11.9689  -17.6602 C   0  0  0  0  0  0  0  0  0  0  0  0
   20.3681  -12.7833  -17.3148 C   0  0  0  0  0  0  0  0  0  0  0  0
   20.2091  -13.8923  -18.3050 C   0  0  0  0  0  0  0  0  0  0  0  0
   18.9928  -14.6164  -17.9756 N   0  0  0  0  0  0  0  0  0  0  0  0
   22.9656   -8.7395  -16.3261 C   0  0  0  0  0  0  0  0  0  0  0  0
   23.1118   -8.6871  -15.0810 O   0  0  0  0  0  0  0  0  0  0  0  0
   22.9463    0.1996  -15.7356 O   0  0  0  0  0  0  0  0  0  0  0  0
   23.1044   -1.1444  -16.0841 C   0  0  0  0  0  0  0  0  0  0  0  0
   23.0120   -1.5616  -17.3952 C   0  0  0  0  0  0  0  0  0  0  0  0
   23.1687   -2.8889  -17.7353 C   0  0  0  0  0  0  0  0  0  0  0  0
   23.4249   -3.8641  -16.7861 C   0  0  0  0  0  0  0  0  0  0  0  0
   23.5872   -5.2896  -17.1673 C   0  0  0  0  0  0  0  0  0  0  0  0
   22.7161   -6.2242  -16.3638 C   0  0  2  0  0  0  0  0  0  0  0  0
   22.7431   -7.5292  -17.0240 N   0  0  0  0  0  0  0  0  0  0  0  0
   21.2932   -5.8049  -16.3182 C   0  0  0  0  0  0  0  0  0  0  0  0
   20.7652   -5.0631  -15.2683 O   0  0  0  0  0  0  0  0  0  0  0  0
   23.5161   -3.4399  -15.4756 C   0  0  0  0  0  0  0  0  0  0  0  0
   23.3593   -2.1086  -15.1316 C   0  0  0  0  0  0  0  0  0  0  0  0
   20.4588   -6.0983  -17.2408 O   0  0  0  0  0  0  0  0  0  0  0  0
  1  2  1  0
  2  3  1  0
  3  4  1  6
  5  3  1  0
  5  6  2  0
  7  5  1  0
  8  7  1  0
  8  9  1  1
 10  9  1  0
 11 10  1  0
 12 11  1  0
 12 13  1  0
 14  8  1  0
 15 14  2  0
 16 17  1  0
 17 18  2  0
 17 27  1  0
 18 19  1  0
 19 20  2  0
 20 21  1  0
 22 21  1  6
 22 24  1  0
 22 23  1  0
 23 14  1  0
 24 25  1  0
 26 20  1  0
 27 26  2  0
 28 24  2  0
M  END
$$$$
