SKY.pdb
     RDKit          3D

 28 28  0  0  1  0  0  0  0  0999 V2000
   11.0967   -8.7213  -11.4782 O   0  0  0  0  0  0  0  0  0  0  0  0
   12.4706   -9.0354  -11.4414 C   0  0  0  0  0  0  0  0  0  0  0  0
   12.6671  -10.3590  -12.1310 C   0  0  2  0  0  0  0  0  0  0  0  0
   12.2111  -11.4677  -11.3146 N   0  0  0  0  0  0  0  0  0  0  0  0
   14.1000  -10.5615  -12.4293 C   0  0  0  0  0  0  0  0  0  0  0  0
   14.8652  -10.9098  -11.5039 O   0  0  0  0  0  0  0  0  0  0  0  0
   14.6209  -10.3710  -13.7299 N   0  0  0  0  0  0  0  0  0  0  0  0
   15.9878  -10.6182  -14.0641 C   0  0  1  0  0  0  0  0  0  0  0  0
   16.1452  -11.5844  -15.2156 C   0  0  0  0  0  0  0  0  0  0  0  0
   17.6281  -11.9074  -15.4100 C   0  0  0  0  0  0  0  0  0  0  0  0
   17.8235  -12.8621  -16.5595 C   0  0  0  0  0  0  0  0  0  0  0  0
   19.2594  -13.2727  -16.6315 C   0  0  0  0  0  0  0  0  0  0  0  0
   19.3882  -14.2709  -17.6800 N   0  0  0  0  0  0  0  0  0  0  0  0
   16.7096   -9.3756  -14.4370 C   0  0  0  0  0  0  0  0  0  0  0  0
   16.1727   -8.5997  -15.2641 O   0  0  0  0  0  0  0  0  0  0  0  0
   22.6298   -2.6980  -14.2070 O   0  0  0  0  0  0  0  0  0  0  0  0
   21.8694   -3.8400  -13.9420 C   0  0  0  0  0  0  0  0  0  0  0  0
   22.3630   -5.1040  -14.1876 C   0  0  0  0  0  0  0  0  0  0  0  0
   21.6095   -6.2287  -13.9247 C   0  0  0  0  0  0  0  0  0  0  0  0
   20.3285   -6.1486  -13.4047 C   0  0  0  0  0  0  0  0  0  0  0  0
   19.5282   -7.3685  -13.1308 C   0  0  0  0  0  0  0  0  0  0  0  0
   18.6855   -7.8044  -14.3046 C   0  0  2  0  0  0  0  0  0  0  0  0
   17.9727   -9.0189  -13.9090 N   0  0  0  0  0  0  0  0  0  0  0  0
   19.4874   -8.1581  -15.5023 C   0  0  0  0  0  0  0  0  0  0  0  0
   19.7058   -7.2670  -16.5461 O   0  0  0  0  0  0  0  0  0  0  0  0
   19.8403   -4.8806  -13.1613 C   0  0  0  0  0  0  0  0  0  0  0  0
   20.5943   -3.7502  -13.4242 C   0  0  0  0  0  0  0  0  0  0  0  0
   20.0298   -9.3053  -15.6537 O   0  0  0  0  0  0  0  0  0  0  0  0
  1  2  1  0
  2  3  1  0
  3  4  1  1
  5  3  1  0
  5  6  2  0
  7  5  1  0
  8  7  1  0
  8  9  1  6
 10  9  1  0
 11 10  1  0
 12 11  1  0
 12 13  1  0
 14  8  1  0
 15 14  2  0
 16 17  1  0
 17 18  2  0
 17 27  1  0
 18 19  1  0
 19 20  2  0
 20 21  1  0
 22 21  1  1
 22 24  1  0
 22 23  1  0
 23 14  1  0
 24 25  1  0
 26 20  1  0
 27 26  2  0
 28 24  2  0
M  END
$$$$
