SKY.pdb
     RDKit          3D

 28 28  0  0  1  0  0  0  0  0999 V2000
   12.5021  -10.4503  -17.8000 O   0  0  0  0  0  0  0  0  0  0  0  0
   13.2393  -10.2459  -16.6158 C   0  0  0  0  0  0  0  0  0  0  0  0
   14.6738  -10.6124  -16.8881 C   0  0  2  0  0  0  0  0  0  0  0  0
   14.8638  -12.0491  -16.9459 N   0  0  0  0  0  0  0  0  0  0  0  0
   15.5409  -10.0726  -15.8203 C   0  0  0  0  0  0  0  0  0  0  0  0
   15.6904  -10.7368  -14.7717 O   0  0  0  0  0  0  0  0  0  0  0  0
   16.2005   -8.8297  -15.9581 N   0  0  0  0  0  0  0  0  0  0  0  0
   17.0594   -8.2894  -14.9522 C   0  0  1  0  0  0  0  0  0  0  0  0
   18.0446   -7.2828  -15.5003 C   0  0  0  0  0  0  0  0  0  0  0  0
   19.0382   -6.8939  -14.4035 C   0  0  0  0  0  0  0  0  0  0  0  0
   20.0922   -7.9574  -14.2324 C   0  0  0  0  0  0  0  0  0  0  0  0
   21.0121   -7.5763  -13.1169 C   0  0  0  0  0  0  0  0  0  0  0  0
   21.9942   -8.6365  -12.9637 N   0  0  0  0  0  0  0  0  0  0  0  0
   16.3019   -7.6119  -13.8699 C   0  0  0  0  0  0  0  0  0  0  0  0
   15.3719   -6.8330  -14.1906 O   0  0  0  0  0  0  0  0  0  0  0  0
   12.3599   -6.1164   -6.0788 O   0  0  0  0  0  0  0  0  0  0  0  0
   13.1072   -6.6255   -7.1441 C   0  0  0  0  0  0  0  0  0  0  0  0
   14.4858   -6.6369   -7.1131 C   0  0  0  0  0  0  0  0  0  0  0  0
   15.2199   -7.1403   -8.1665 C   0  0  0  0  0  0  0  0  0  0  0  0
   14.6164   -7.6564   -9.3010 C   0  0  0  0  0  0  0  0  0  0  0  0
   15.4205   -8.1912  -10.4285 C   0  0  0  0  0  0  0  0  0  0  0  0
   15.8081   -7.1370  -11.4366 C   0  0  2  0  0  0  0  0  0  0  0  0
   16.5730   -7.7978  -12.4939 N   0  0  0  0  0  0  0  0  0  0  0  0
   16.6902   -6.0844  -10.8739 C   0  0  0  0  0  0  0  0  0  0  0  0
   16.1929   -4.9435  -10.2557 O   0  0  0  0  0  0  0  0  0  0  0  0
   13.2363   -7.6420   -9.3257 C   0  0  0  0  0  0  0  0  0  0  0  0
   12.4972   -7.1375   -8.2700 C   0  0  0  0  0  0  0  0  0  0  0  0
   17.9653   -6.1568  -10.9208 O   0  0  0  0  0  0  0  0  0  0  0  0
  1  2  1  0
  2  3  1  0
  3  4  1  1
  5  3  1  0
  5  6  2  0
  7  5  1  0
  8  7  1  0
  8  9  1  6
 10  9  1  0
 11 10  1  0
 12 11  1  0
 12 13  1  0
 14  8  1  0
 15 14  2  0
 16 17  1  0
 17 18  2  0
 17 27  1  0
 18 19  1  0
 19 20  2  0
 20 21  1  0
 22 21  1  1
 22 24  1  0
 22 23  1  0
 23 14  1  0
 24 25  1  0
 26 20  1  0
 27 26  2  0
 28 24  2  0
M  END
$$$$
