SKY.pdb
     RDKit          3D

 28 28  0  0  1  0  0  0  0  0999 V2000
   20.3960  -11.9971  -16.0688 O   0  0  0  0  0  0  0  0  0  0  0  0
   19.9769  -10.9947  -15.1704 C   0  0  0  0  0  0  0  0  0  0  0  0
   20.9236   -9.8307  -15.2927 C   0  0  2  0  0  0  0  0  0  0  0  0
   22.2588  -10.1688  -14.8380 N   0  0  0  0  0  0  0  0  0  0  0  0
   20.4316   -8.6966  -14.4832 C   0  0  0  0  0  0  0  0  0  0  0  0
   20.6929   -8.6701  -13.2609 O   0  0  0  0  0  0  0  0  0  0  0  0
   19.6767   -7.6481  -15.0575 N   0  0  0  0  0  0  0  0  0  0  0  0
   19.2447   -6.5050  -14.3171 C   0  0  1  0  0  0  0  0  0  0  0  0
   18.9839   -5.3019  -15.1939 C   0  0  0  0  0  0  0  0  0  0  0  0
   20.3151   -4.7452  -15.7032 C   0  0  0  0  0  0  0  0  0  0  0  0
   20.0929   -3.5363  -16.5753 C   0  0  0  0  0  0  0  0  0  0  0  0
   21.4033   -3.0611  -17.1163 C   0  0  0  0  0  0  0  0  0  0  0  0
   21.9975   -4.1504  -17.8730 N   0  0  0  0  0  0  0  0  0  0  0  0
   17.9977   -6.7664  -13.5550 C   0  0  0  0  0  0  0  0  0  0  0  0
   17.0811   -7.4143  -14.1157 O   0  0  0  0  0  0  0  0  0  0  0  0
   12.2836   -8.3566   -7.0044 O   0  0  0  0  0  0  0  0  0  0  0  0
   13.3890   -8.1500   -7.8339 C   0  0  0  0  0  0  0  0  0  0  0  0
   14.4285   -7.3279   -7.4530 C   0  0  0  0  0  0  0  0  0  0  0  0
   15.5179   -7.1265   -8.2743 C   0  0  0  0  0  0  0  0  0  0  0  0
   15.6242   -7.7340   -9.5142 C   0  0  0  0  0  0  0  0  0  0  0  0
   16.8015   -7.5042  -10.3888 C   0  0  0  0  0  0  0  0  0  0  0  0
   16.5297   -6.5316  -11.5104 C   0  0  2  0  0  0  0  0  0  0  0  0
   17.7872   -6.3233  -12.2280 N   0  0  0  0  0  0  0  0  0  0  0  0
   16.0904   -5.1962  -11.0345 C   0  0  0  0  0  0  0  0  0  0  0  0
   14.7560   -4.8874  -10.7999 O   0  0  0  0  0  0  0  0  0  0  0  0
   14.5803   -8.5555   -9.8895 C   0  0  0  0  0  0  0  0  0  0  0  0
   13.4860   -8.7595   -9.0672 C   0  0  0  0  0  0  0  0  0  0  0  0
   16.9098   -4.2416  -10.8092 O   0  0  0  0  0  0  0  0  0  0  0  0
  1  2  1  0
  2  3  1  0
  3  4  1  1
  5  3  1  0
  5  6  2  0
  7  5  1  0
  8  7  1  0
  8  9  1  6
 10  9  1  0
 11 10  1  0
 12 11  1  0
 12 13  1  0
 14  8  1  0
 15 14  2  0
 16 17  1  0
 17 18  2  0
 17 27  1  0
 18 19  1  0
 19 20  2  0
 20 21  1  0
 22 21  1  1
 22 24  1  0
 22 23  1  0
 23 14  1  0
 24 25  1  0
 26 20  1  0
 27 26  2  0
 28 24  2  0
M  END
$$$$
