SKY.pdb
     RDKit          3D

 28 28  0  0  1  0  0  0  0  0999 V2000
   36.7602   -8.2951   -7.4516 O   0  0  0  0  0  0  0  0  0  0  0  0
   37.7231   -8.3466   -8.4801 C   0  0  0  0  0  0  0  0  0  0  0  0
   38.9797   -8.9533   -7.9151 C   0  0  2  0  0  0  0  0  0  0  0  0
   38.7169  -10.2066   -7.2341 N   0  0  0  0  0  0  0  0  0  0  0  0
   39.5964   -8.0210   -6.9487 C   0  0  0  0  0  0  0  0  0  0  0  0
   39.4590   -8.2421   -5.7259 O   0  0  0  0  0  0  0  0  0  0  0  0
   40.3333   -6.8919   -7.3744 N   0  0  0  0  0  0  0  0  0  0  0  0
   40.8749   -5.9297   -6.4676 C   0  0  1  0  0  0  0  0  0  0  0  0
   41.9227   -5.0467   -7.1054 C   0  0  0  0  0  0  0  0  0  0  0  0
   42.5641   -4.1627   -6.0338 C   0  0  0  0  0  0  0  0  0  0  0  0
   43.6747   -3.3292   -6.6196 C   0  0  0  0  0  0  0  0  0  0  0  0
   44.2920   -2.4912   -5.5461 C   0  0  0  0  0  0  0  0  0  0  0  0
   45.1964   -1.5463   -6.1796 N   0  0  0  0  0  0  0  0  0  0  0  0
   39.8317   -5.0332   -5.9091 C   0  0  0  0  0  0  0  0  0  0  0  0
   38.9288   -4.6190   -6.6756 O   0  0  0  0  0  0  0  0  0  0  0  0
   34.6816   -1.0396    0.2019 O   0  0  0  0  0  0  0  0  0  0  0  0
   35.5920   -1.8414   -0.4917 C   0  0  0  0  0  0  0  0  0  0  0  0
   36.9460   -1.7729   -0.2397 C   0  0  0  0  0  0  0  0  0  0  0  0
   37.8414   -2.5659   -0.9262 C   0  0  0  0  0  0  0  0  0  0  0  0
   37.4313   -3.4648   -1.8965 C   0  0  0  0  0  0  0  0  0  0  0  0
   38.4078   -4.3089   -2.6299 C   0  0  0  0  0  0  0  0  0  0  0  0
   38.7367   -3.7814   -4.0052 C   0  0  2  0  0  0  0  0  0  0  0  0
   39.8010   -4.6199   -4.5564 N   0  0  0  0  0  0  0  0  0  0  0  0
   39.2601   -2.3926   -3.9903 C   0  0  0  0  0  0  0  0  0  0  0  0
   38.4384   -1.2820   -4.1406 O   0  0  0  0  0  0  0  0  0  0  0  0
   36.0748   -3.5283   -2.1440 C   0  0  0  0  0  0  0  0  0  0  0  0
   35.1741   -2.7338   -1.4565 C   0  0  0  0  0  0  0  0  0  0  0  0
   40.5007   -2.1258   -3.8390 O   0  0  0  0  0  0  0  0  0  0  0  0
  1  2  1  0
  2  3  1  0
  3  4  1  1
  5  3  1  0
  5  6  2  0
  7  5  1  0
  8  7  1  0
  8  9  1  6
 10  9  1  0
 11 10  1  0
 12 11  1  0
 12 13  1  0
 14  8  1  0
 15 14  2  0
 16 17  1  0
 17 18  2  0
 17 27  1  0
 18 19  1  0
 19 20  2  0
 20 21  1  0
 22 21  1  1
 22 24  1  0
 22 23  1  0
 23 14  1  0
 24 25  1  0
 26 20  1  0
 27 26  2  0
 28 24  2  0
M  END
$$$$
