SKY.pdb
     RDKit          3D

 28 28  0  0  1  0  0  0  0  0999 V2000
   27.7312  -24.3804  -17.1885 O   0  0  0  0  0  0  0  0  0  0  0  0
   28.6561  -23.8960  -18.1359 C   0  0  0  0  0  0  0  0  0  0  0  0
   29.4611  -22.8017  -17.4872 C   0  0  2  0  0  0  0  0  0  0  0  0
   30.0508  -23.2335  -16.2345 N   0  0  0  0  0  0  0  0  0  0  0  0
   28.5950  -21.6360  -17.2145 C   0  0  0  0  0  0  0  0  0  0  0  0
   28.4166  -21.2817  -16.0288 O   0  0  0  0  0  0  0  0  0  0  0  0
   27.9679  -20.9178  -18.2584 N   0  0  0  0  0  0  0  0  0  0  0  0
   27.0800  -19.8229  -18.0251 C   0  0  1  0  0  0  0  0  0  0  0  0
   26.8871  -18.9530  -19.2459 C   0  0  0  0  0  0  0  0  0  0  0  0
   26.0601  -17.7223  -18.8683 C   0  0  0  0  0  0  0  0  0  0  0  0
   25.8072  -16.8547  -20.0743 C   0  0  0  0  0  0  0  0  0  0  0  0
   25.0759  -15.6187  -19.6581 C   0  0  0  0  0  0  0  0  0  0  0  0
   24.8318  -14.8203  -20.8478 N   0  0  0  0  0  0  0  0  0  0  0  0
   25.7325  -20.2730  -17.5942 C   0  0  0  0  0  0  0  0  0  0  0  0
   25.2708  -21.3299  -18.0883 O   0  0  0  0  0  0  0  0  0  0  0  0
   17.9089  -20.3465  -13.2307 O   0  0  0  0  0  0  0  0  0  0  0  0
   19.2073  -20.0753  -13.6705 C   0  0  0  0  0  0  0  0  0  0  0  0
   20.2642  -20.8954  -13.3363 C   0  0  0  0  0  0  0  0  0  0  0  0
   21.5443  -20.6245  -13.7722 C   0  0  0  0  0  0  0  0  0  0  0  0
   21.8329  -19.5240  -14.5618 C   0  0  0  0  0  0  0  0  0  0  0  0
   23.2168  -19.2435  -15.0200 C   0  0  0  0  0  0  0  0  0  0  0  0
   23.5999  -20.0098  -16.2626 C   0  0  2  0  0  0  0  0  0  0  0  0
   24.9396  -19.5728  -16.6547 N   0  0  0  0  0  0  0  0  0  0  0  0
   22.7116  -19.7330  -17.4188 C   0  0  0  0  0  0  0  0  0  0  0  0
   22.8260  -18.5838  -18.1918 O   0  0  0  0  0  0  0  0  0  0  0  0
   20.7705  -18.7072  -14.8926 C   0  0  0  0  0  0  0  0  0  0  0  0
   19.4850  -18.9767  -14.4566 C   0  0  0  0  0  0  0  0  0  0  0  0
   21.7822  -20.5325  -17.7802 O   0  0  0  0  0  0  0  0  0  0  0  0
  1  2  1  0
  2  3  1  0
  3  4  1  1
  5  3  1  0
  5  6  2  0
  7  5  1  0
  8  7  1  0
  8  9  1  6
 10  9  1  0
 11 10  1  0
 12 11  1  0
 12 13  1  0
 14  8  1  0
 15 14  2  0
 16 17  1  0
 17 18  2  0
 17 27  1  0
 18 19  1  0
 19 20  2  0
 20 21  1  0
 22 21  1  1
 22 24  1  0
 22 23  1  0
 23 14  1  0
 24 25  1  0
 26 20  1  0
 27 26  2  0
 28 24  2  0
M  END
$$$$
