SKY.pdb
     RDKit          3D

 28 28  0  0  1  0  0  0  0  0999 V2000
   25.4882  -15.7922  -15.5620 O   0  0  0  0  0  0  0  0  0  0  0  0
   26.8477  -16.0683  -15.8134 C   0  0  0  0  0  0  0  0  0  0  0  0
   26.9282  -16.9631  -17.0214 C   0  0  2  0  0  0  0  0  0  0  0  0
   26.4621  -16.2954  -18.2216 N   0  0  0  0  0  0  0  0  0  0  0  0
   26.0993  -18.1679  -16.8094 C   0  0  0  0  0  0  0  0  0  0  0  0
   24.9689  -18.2231  -17.3406 O   0  0  0  0  0  0  0  0  0  0  0  0
   26.5541  -19.2521  -16.0241 N   0  0  0  0  0  0  0  0  0  0  0  0
   25.7627  -20.4143  -15.7703 C   0  0  1  0  0  0  0  0  0  0  0  0
   26.5579  -21.5432  -15.1558 C   0  0  0  0  0  0  0  0  0  0  0  0
   27.3894  -22.2298  -16.2413 C   0  0  0  0  0  0  0  0  0  0  0  0
   28.1498  -23.4011  -15.6748 C   0  0  0  0  0  0  0  0  0  0  0  0
   29.0652  -23.9564  -16.7185 C   0  0  0  0  0  0  0  0  0  0  0  0
   29.7944  -25.0674  -16.1299 N   0  0  0  0  0  0  0  0  0  0  0  0
   24.6276  -20.1335  -14.8556 C   0  0  0  0  0  0  0  0  0  0  0  0
   24.8314  -19.3949  -13.8619 O   0  0  0  0  0  0  0  0  0  0  0  0
   17.1067  -16.8663  -12.1258 O   0  0  0  0  0  0  0  0  0  0  0  0
   18.3036  -17.3345  -12.6744 C   0  0  0  0  0  0  0  0  0  0  0  0
   18.7023  -16.9707  -13.9433 C   0  0  0  0  0  0  0  0  0  0  0  0
   19.8843  -17.4347  -14.4812 C   0  0  0  0  0  0  0  0  0  0  0  0
   20.7257  -18.2833  -13.7813 C   0  0  0  0  0  0  0  0  0  0  0  0
   21.9931  -18.7776  -14.3756 C   0  0  0  0  0  0  0  0  0  0  0  0
   22.1857  -20.2659  -14.2153 C   0  0  2  0  0  0  0  0  0  0  0  0
   23.3261  -20.6550  -15.0445 N   0  0  0  0  0  0  0  0  0  0  0  0
   21.0273  -21.0614  -14.6928 C   0  0  0  0  0  0  0  0  0  0  0  0
   20.0467  -21.5442  -13.8346 O   0  0  0  0  0  0  0  0  0  0  0  0
   20.3207  -18.6437  -12.5119 C   0  0  0  0  0  0  0  0  0  0  0  0
   19.1351  -18.1794  -11.9696 C   0  0  0  0  0  0  0  0  0  0  0  0
   20.8547  -21.3556  -15.9245 O   0  0  0  0  0  0  0  0  0  0  0  0
  1  2  1  0
  2  3  1  0
  3  4  1  6
  5  3  1  0
  5  6  2  0
  7  5  1  0
  8  7  1  0
  8  9  1  1
 10  9  1  0
 11 10  1  0
 12 11  1  0
 12 13  1  0
 14  8  1  0
 15 14  2  0
 16 17  1  0
 17 18  2  0
 17 27  1  0
 18 19  1  0
 19 20  2  0
 20 21  1  0
 22 21  1  6
 22 24  1  0
 22 23  1  0
 23 14  1  0
 24 25  1  0
 26 20  1  0
 27 26  2  0
 28 24  2  0
M  END
$$$$
