SKY.pdb
     RDKit          3D

 28 28  0  0  1  0  0  0  0  0999 V2000
   20.8570  -12.7742  -19.2005 O   0  0  0  0  0  0  0  0  0  0  0  0
   22.1423  -12.6086  -18.6453 C   0  0  0  0  0  0  0  0  0  0  0  0
   21.9822  -12.2569  -17.1904 C   0  0  2  0  0  0  0  0  0  0  0  0
   21.0347  -13.1294  -16.5236 N   0  0  0  0  0  0  0  0  0  0  0  0
   21.5020  -10.8655  -17.0605 C   0  0  0  0  0  0  0  0  0  0  0  0
   22.3163   -9.9296  -17.2159 O   0  0  0  0  0  0  0  0  0  0  0  0
   20.1507  -10.5719  -16.7662 N   0  0  0  0  0  0  0  0  0  0  0  0
   19.6359   -9.2397  -16.7229 C   0  0  1  0  0  0  0  0  0  0  0  0
   18.1353   -9.1844  -16.8950 C   0  0  0  0  0  0  0  0  0  0  0  0
   17.6715   -7.7269  -16.8516 C   0  0  0  0  0  0  0  0  0  0  0  0
   16.1945   -7.6249  -17.1330 C   0  0  0  0  0  0  0  0  0  0  0  0
   15.7603   -6.1985  -17.0212 C   0  0  0  0  0  0  0  0  0  0  0  0
   14.3741   -6.1169  -17.4502 N   0  0  0  0  0  0  0  0  0  0  0  0
   19.9527   -8.5551  -15.4443 C   0  0  0  0  0  0  0  0  0  0  0  0
   19.6976   -9.1509  -14.3699 O   0  0  0  0  0  0  0  0  0  0  0  0
   26.1543   -5.2042  -17.5941 O   0  0  0  0  0  0  0  0  0  0  0  0
   25.2162   -5.6629  -16.6655 C   0  0  0  0  0  0  0  0  0  0  0  0
   24.5816   -4.7979  -15.7992 C   0  0  0  0  0  0  0  0  0  0  0  0
   23.6563   -5.2543  -14.8842 C   0  0  0  0  0  0  0  0  0  0  0  0
   23.3187   -6.5939  -14.7881 C   0  0  0  0  0  0  0  0  0  0  0  0
   22.3235   -7.0705  -13.7950 C   0  0  0  0  0  0  0  0  0  0  0  0
   20.9128   -6.6353  -14.1090 C   0  0  2  0  0  0  0  0  0  0  0  0
   20.5279   -7.2646  -15.3721 N   0  0  0  0  0  0  0  0  0  0  0  0
   20.7829   -5.1708  -14.3116 C   0  0  0  0  0  0  0  0  0  0  0  0
   20.9132   -4.2575  -13.2723 O   0  0  0  0  0  0  0  0  0  0  0  0
   23.9576   -7.4545  -15.6579 C   0  0  0  0  0  0  0  0  0  0  0  0
   24.8865   -6.9991  -16.5772 C   0  0  0  0  0  0  0  0  0  0  0  0
   20.5422   -4.6523  -15.4547 O   0  0  0  0  0  0  0  0  0  0  0  0
  1  2  1  0
  2  3  1  0
  3  4  1  6
  5  3  1  0
  5  6  2  0
  7  5  1  0
  8  7  1  0
  8  9  1  1
 10  9  1  0
 11 10  1  0
 12 11  1  0
 12 13  1  0
 14  8  1  0
 15 14  2  0
 16 17  1  0
 17 18  2  0
 17 27  1  0
 18 19  1  0
 19 20  2  0
 20 21  1  0
 22 21  1  6
 22 24  1  0
 22 23  1  0
 23 14  1  0
 24 25  1  0
 26 20  1  0
 27 26  2  0
 28 24  2  0
M  END
$$$$
