CPM.pdb
     RDKit          3D

 22 22  0  0  1  0  0  0  0  0999 V2000
   28.8922  -21.3894  -16.0237 N   0  0  0  0  0  0  0  0  0  0  0  0
   27.5585  -21.5975  -16.4805 C   0  0  1  0  0  0  0  0  0  0  0  0
   27.0821  -23.0028  -16.1218 C   0  0  0  0  0  0  0  0  0  0  0  0
   27.7590  -24.2256  -17.2653 S   0  0  0  0  0  0  0  0  0  0  0  0
   26.5652  -20.6553  -15.9418 C   0  0  0  0  0  0  0  0  0  0  0  0
   26.6693  -20.4119  -14.6889 O   0  0  0  0  0  0  0  0  0  0  0  0
   25.5528  -20.0417  -16.7194 N   0  0  0  0  0  0  0  0  0  0  0  0
   25.4167  -20.1979  -18.1503 C   0  0  0  0  0  0  0  0  0  0  0  0
   24.1184  -19.5123  -18.5249 C   0  0  0  0  0  0  0  0  0  0  0  0
   23.9196  -18.4952  -17.4492 C   0  0  0  0  0  0  0  0  0  0  0  0
   24.5115  -19.1768  -16.2259 C   0  0  1  0  0  0  0  0  0  0  0  0
   23.4709  -19.9456  -15.4722 C   0  0  0  0  0  0  0  0  0  0  0  0
   23.1468  -21.0896  -15.8667 O   0  0  0  0  0  0  0  0  0  0  0  0
   25.2659  -19.5659   -9.5833 C   0  0  0  0  0  0  0  0  0  0  0  0
   24.3910  -21.1557   -9.7627 S   0  0  0  0  0  0  0  0  0  0  0  0
   22.9540  -20.9108  -10.8449 C   0  0  0  0  0  0  0  0  0  0  0  0
   23.3918  -20.0983  -12.0326 C   0  0  0  0  0  0  0  0  0  0  0  0
   22.4306  -20.2347  -13.1970 C   0  0  2  0  0  0  0  0  0  0  0  0
   22.8382  -19.4171  -14.3211 N   0  0  0  0  0  0  0  0  0  0  0  0
   21.0439  -19.9759  -12.7863 C   0  0  0  0  0  0  0  0  0  0  0  0
   20.5252  -18.8793  -13.1358 O   0  0  0  0  0  0  0  0  0  0  0  0
   20.2868  -20.8470  -12.0525 O   0  0  0  0  0  0  0  0  0  0  0  0
  2  1  1  1
  3  2  1  0
  4  3  1  0
  5  2  1  0
  5  6  2  0
  7  5  1  0
  8  7  1  0
  9 10  1  0
  9  8  1  0
 10 11  1  0
 11  7  1  0
 11 12  1  6
 12 13  2  0
 12 19  1  0
 15 14  1  0
 16 17  1  0
 16 15  1  0
 18 17  1  1
 19 18  1  0
 20 18  1  0
 20 22  1  0
 21 20  2  0
M  END
$$$$
