CPM.pdb
     RDKit          3D

 22 22  0  0  1  0  0  0  0  0999 V2000
   23.9808  -20.2631  -17.5640 N   0  0  0  0  0  0  0  0  0  0  0  0
   24.8137  -19.4659  -16.7265 C   0  0  1  0  0  0  0  0  0  0  0  0
   24.1044  -18.1696  -16.3430 C   0  0  0  0  0  0  0  0  0  0  0  0
   24.2749  -16.9304  -17.6454 S   0  0  0  0  0  0  0  0  0  0  0  0
   25.2343  -20.1137  -15.4744 C   0  0  0  0  0  0  0  0  0  0  0  0
   24.3071  -20.7310  -14.8426 O   0  0  0  0  0  0  0  0  0  0  0  0
   26.5579  -20.0797  -14.9711 N   0  0  0  0  0  0  0  0  0  0  0  0
   27.6686  -19.4410  -15.6410 C   0  0  0  0  0  0  0  0  0  0  0  0
   28.8337  -19.5053  -14.6745 C   0  0  0  0  0  0  0  0  0  0  0  0
   28.5281  -20.6868  -13.8131 C   0  0  0  0  0  0  0  0  0  0  0  0
   27.0100  -20.6640  -13.7342 C   0  0  1  0  0  0  0  0  0  0  0  0
   26.5366  -19.8783  -12.5508 C   0  0  0  0  0  0  0  0  0  0  0  0
   26.2018  -18.6807  -12.7029 O   0  0  0  0  0  0  0  0  0  0  0  0
   19.9203  -20.4589   -9.8256 C   0  0  0  0  0  0  0  0  0  0  0  0
   21.3427  -20.8657  -10.8916 S   0  0  0  0  0  0  0  0  0  0  0  0
   22.8646  -20.3212  -10.0648 C   0  0  0  0  0  0  0  0  0  0  0  0
   24.0225  -20.5861  -10.9876 C   0  0  0  0  0  0  0  0  0  0  0  0
   25.3478  -20.2089  -10.3553 C   0  0  2  0  0  0  0  0  0  0  0  0
   26.4549  -20.4497  -11.2580 N   0  0  0  0  0  0  0  0  0  0  0  0
   25.5310  -20.8635   -9.0527 C   0  0  0  0  0  0  0  0  0  0  0  0
   25.5706  -22.1251   -9.0324 O   0  0  0  0  0  0  0  0  0  0  0  0
   25.6602  -20.1912   -7.8688 O   0  0  0  0  0  0  0  0  0  0  0  0
  2  1  1  1
  3  2  1  0
  4  3  1  0
  5  2  1  0
  5  6  2  0
  7  5  1  0
  8  7  1  0
  9 10  1  0
  9  8  1  0
 10 11  1  0
 11  7  1  0
 11 12  1  1
 12 13  2  0
 12 19  1  0
 15 14  1  0
 16 17  1  0
 16 15  1  0
 18 17  1  6
 19 18  1  0
 20 18  1  0
 20 22  1  0
 21 20  2  0
M  END
$$$$
