CPM.pdb
     RDKit          3D

 22 22  0  0  1  0  0  0  0  0999 V2000
   28.8955  -21.7635  -17.8132 N   0  0  0  0  0  0  0  0  0  0  0  0
   27.6813  -21.1804  -17.3480 C   0  0  1  0  0  0  0  0  0  0  0  0
   26.5100  -22.1345  -17.5673 C   0  0  0  0  0  0  0  0  0  0  0  0
   24.9417  -21.3353  -17.1637 S   0  0  0  0  0  0  0  0  0  0  0  0
   27.6768  -20.8129  -15.9234 C   0  0  0  0  0  0  0  0  0  0  0  0
   28.1847  -21.6845  -15.1347 O   0  0  0  0  0  0  0  0  0  0  0  0
   27.1580  -19.5940  -15.4218 N   0  0  0  0  0  0  0  0  0  0  0  0
   26.4483  -18.6200  -16.2206 C   0  0  0  0  0  0  0  0  0  0  0  0
   25.9395  -17.5733  -15.2503 C   0  0  0  0  0  0  0  0  0  0  0  0
   26.8860  -17.6540  -14.0976 C   0  0  0  0  0  0  0  0  0  0  0  0
   27.2491  -19.1299  -14.0609 C   0  0  1  0  0  0  0  0  0  0  0  0
   26.3327  -19.8953  -13.1575 C   0  0  0  0  0  0  0  0  0  0  0  0
   25.3014  -20.4237  -13.6337 O   0  0  0  0  0  0  0  0  0  0  0  0
   27.7014  -18.8779   -6.8737 C   0  0  0  0  0  0  0  0  0  0  0  0
   26.5697  -20.3066   -6.9314 S   0  0  0  0  0  0  0  0  0  0  0  0
   25.6524  -20.2600   -8.4975 C   0  0  0  0  0  0  0  0  0  0  0  0
   26.4443  -21.0147   -9.5298 C   0  0  0  0  0  0  0  0  0  0  0  0
   25.8232  -20.9081  -10.9087 C   0  0  2  0  0  0  0  0  0  0  0  0
   26.5965  -20.0414  -11.7742 N   0  0  0  0  0  0  0  0  0  0  0  0
   24.4095  -20.5147  -10.8358 C   0  0  0  0  0  0  0  0  0  0  0  0
   23.6036  -21.3252  -10.2998 O   0  0  0  0  0  0  0  0  0  0  0  0
   23.9183  -19.3302  -11.3112 O   0  0  0  0  0  0  0  0  0  0  0  0
  2  1  1  1
  3  2  1  0
  4  3  1  0
  5  2  1  0
  5  6  2  0
  7  5  1  0
  8  7  1  0
  9 10  1  0
  9  8  1  0
 10 11  1  0
 11  7  1  0
 11 12  1  1
 12 13  2  0
 12 19  1  0
 15 14  1  0
 16 17  1  0
 16 15  1  0
 18 17  1  1
 19 18  1  0
 20 18  1  0
 20 22  1  0
 21 20  2  0
M  END
$$$$
