CPM.pdb
     RDKit          3D

 22 22  0  0  1  0  0  0  0  0999 V2000
   24.6259  -18.5786  -16.4458 N   0  0  0  0  0  0  0  0  0  0  0  0
   25.5972  -18.3817  -15.4219 C   0  0  1  0  0  0  0  0  0  0  0  0
   25.2528  -17.1519  -14.5855 C   0  0  0  0  0  0  0  0  0  0  0  0
   26.1304  -15.6938  -15.1892 S   0  0  0  0  0  0  0  0  0  0  0  0
   25.7503  -19.5085  -14.4885 C   0  0  0  0  0  0  0  0  0  0  0  0
   24.6610  -20.0980  -14.1634 O   0  0  0  0  0  0  0  0  0  0  0  0
   26.9939  -19.9402  -13.9656 N   0  0  0  0  0  0  0  0  0  0  0  0
   28.2697  -19.3502  -14.3043 C   0  0  0  0  0  0  0  0  0  0  0  0
   29.2893  -20.0068  -13.3960 C   0  0  0  0  0  0  0  0  0  0  0  0
   28.6800  -21.3284  -13.0593 C   0  0  0  0  0  0  0  0  0  0  0  0
   27.1922  -21.0170  -13.0291 C   0  0  1  0  0  0  0  0  0  0  0  0
   26.7418  -20.6370  -11.6526 C   0  0  0  0  0  0  0  0  0  0  0  0
   26.7682  -19.4327  -11.3084 O   0  0  0  0  0  0  0  0  0  0  0  0
   28.7518  -19.8340   -5.8008 C   0  0  0  0  0  0  0  0  0  0  0  0
   27.4439  -18.8146   -6.5593 S   0  0  0  0  0  0  0  0  0  0  0  0
   26.2247  -19.9141   -7.3347 C   0  0  0  0  0  0  0  0  0  0  0  0
   26.7413  -20.3079   -8.6913 C   0  0  0  0  0  0  0  0  0  0  0  0
   25.7980  -21.2585   -9.4020 C   0  0  2  0  0  0  0  0  0  0  0  0
   26.2845  -21.6016  -10.7225 N   0  0  0  0  0  0  0  0  0  0  0  0
   24.4238  -20.7392   -9.4257 C   0  0  0  0  0  0  0  0  0  0  0  0
   24.0315  -20.1704  -10.4822 O   0  0  0  0  0  0  0  0  0  0  0  0
   23.5503  -20.8349   -8.3777 O   0  0  0  0  0  0  0  0  0  0  0  0
  2  1  1  6
  3  2  1  0
  4  3  1  0
  5  2  1  0
  5  6  2  0
  7  5  1  0
  8  7  1  0
  9 10  1  0
  9  8  1  0
 10 11  1  0
 11  7  1  0
 11 12  1  1
 12 13  2  0
 12 19  1  0
 15 14  1  0
 16 17  1  0
 16 15  1  0
 18 17  1  6
 19 18  1  0
 20 18  1  0
 20 22  1  0
 21 20  2  0
M  END
$$$$
