CPM.pdb
     RDKit          3D

 22 22  0  0  1  0  0  0  0  0999 V2000
   23.7572  -22.8629  -14.0493 N   0  0  0  0  0  0  0  0  0  0  0  0
   24.3081  -21.6851  -13.4663 C   0  0  1  0  0  0  0  0  0  0  0  0
   23.2114  -20.8449  -12.8170 C   0  0  0  0  0  0  0  0  0  0  0  0
   22.0102  -20.2899  -14.0459 S   0  0  0  0  0  0  0  0  0  0  0  0
   25.3332  -21.9241  -12.4384 C   0  0  0  0  0  0  0  0  0  0  0  0
   25.0359  -22.8173  -11.5703 O   0  0  0  0  0  0  0  0  0  0  0  0
   26.5706  -21.2373  -12.3795 N   0  0  0  0  0  0  0  0  0  0  0  0
   26.9922  -20.2339  -13.3313 C   0  0  0  0  0  0  0  0  0  0  0  0
   28.2849  -19.6589  -12.7889 C   0  0  0  0  0  0  0  0  0  0  0  0
   28.8432  -20.7540  -11.9403 C   0  0  0  0  0  0  0  0  0  0  0  0
   27.5952  -21.4198  -11.3832 C   0  0  1  0  0  0  0  0  0  0  0  0
   27.1967  -20.8208  -10.0701 C   0  0  0  0  0  0  0  0  0  0  0  0
   26.1398  -20.1523   -9.9956 O   0  0  0  0  0  0  0  0  0  0  0  0
   29.9716  -21.7487   -3.5415 C   0  0  0  0  0  0  0  0  0  0  0  0
   29.7605  -20.0502   -4.1706 S   0  0  0  0  0  0  0  0  0  0  0  0
   28.3095  -20.0092   -5.2611 C   0  0  0  0  0  0  0  0  0  0  0  0
   28.7241  -20.5140   -6.6159 C   0  0  0  0  0  0  0  0  0  0  0  0
   27.5699  -20.5101   -7.5989 C   0  0  2  0  0  0  0  0  0  0  0  0
   27.9812  -20.9871   -8.9033 N   0  0  0  0  0  0  0  0  0  0  0  0
   26.9170  -19.1953   -7.6605 C   0  0  0  0  0  0  0  0  0  0  0  0
   27.3879  -18.3454   -8.4664 O   0  0  0  0  0  0  0  0  0  0  0  0
   25.8362  -18.8402   -6.9014 O   0  0  0  0  0  0  0  0  0  0  0  0
  2  1  1  1
  3  2  1  0
  4  3  1  0
  5  2  1  0
  5  6  2  0
  7  5  1  0
  8  7  1  0
  9 10  1  0
  9  8  1  0
 10 11  1  0
 11  7  1  0
 11 12  1  1
 12 13  2  0
 12 19  1  0
 15 14  1  0
 16 17  1  0
 16 15  1  0
 18 17  1  1
 19 18  1  0
 20 18  1  0
 20 22  1  0
 21 20  2  0
M  END
$$$$
