CPM.pdb
     RDKit          3D

 22 22  0  0  1  0  0  0  0  0999 V2000
   25.6919  -21.7788  -12.7608 N   0  0  0  0  0  0  0  0  0  0  0  0
   24.7160  -21.8074  -13.7988 C   0  0  1  0  0  0  0  0  0  0  0  0
   24.4973  -23.2363  -14.2897 C   0  0  0  0  0  0  0  0  0  0  0  0
   26.0467  -23.9673  -14.8606 S   0  0  0  0  0  0  0  0  0  0  0  0
   23.3972  -21.2740  -13.4238 C   0  0  0  0  0  0  0  0  0  0  0  0
   23.0394  -21.5060  -12.2163 O   0  0  0  0  0  0  0  0  0  0  0  0
   22.5555  -20.5518  -14.3049 N   0  0  0  0  0  0  0  0  0  0  0  0
   22.9144  -20.1831  -15.6560 C   0  0  0  0  0  0  0  0  0  0  0  0
   21.6674  -19.5808  -16.2711 C   0  0  0  0  0  0  0  0  0  0  0  0
   20.8940  -19.0691  -15.1001 C   0  0  0  0  0  0  0  0  0  0  0  0
   21.2293  -20.0730  -14.0087 C   0  0  1  0  0  0  0  0  0  0  0  0
   20.2365  -21.1933  -13.9736 C   0  0  0  0  0  0  0  0  0  0  0  0
   20.3519  -22.1416  -14.7840 O   0  0  0  0  0  0  0  0  0  0  0  0
   19.3215  -23.7197   -8.6369 C   0  0  0  0  0  0  0  0  0  0  0  0
   18.4998  -25.0036   -9.6377 S   0  0  0  0  0  0  0  0  0  0  0  0
   17.8928  -24.2462  -11.1721 C   0  0  0  0  0  0  0  0  0  0  0  0
   18.7278  -23.0285  -11.4587 C   0  0  0  0  0  0  0  0  0  0  0  0
   18.3677  -22.3955  -12.7884 C   0  0  2  0  0  0  0  0  0  0  0  0
   19.1653  -21.2145  -13.0481 N   0  0  0  0  0  0  0  0  0  0  0  0
   16.9254  -22.1341  -12.8896 C   0  0  0  0  0  0  0  0  0  0  0  0
   16.5111  -20.9951  -12.5363 O   0  0  0  0  0  0  0  0  0  0  0  0
   16.0113  -23.0457  -13.3409 O   0  0  0  0  0  0  0  0  0  0  0  0
  2  1  1  1
  3  2  1  0
  4  3  1  0
  5  2  1  0
  5  6  2  0
  7  5  1  0
  8  7  1  0
  9 10  1  0
  9  8  1  0
 10 11  1  0
 11  7  1  0
 11 12  1  6
 12 13  2  0
 12 19  1  0
 15 14  1  0
 16 17  1  0
 16 15  1  0
 18 17  1  1
 19 18  1  0
 20 18  1  0
 20 22  1  0
 21 20  2  0
M  END
$$$$
