CPM.pdb
     RDKit          3D

 22 22  0  0  1  0  0  0  0  0999 V2000
   29.5825  -22.4822  -17.1335 N   0  0  0  0  0  0  0  0  0  0  0  0
   28.2965  -21.8957  -16.9525 C   0  0  1  0  0  0  0  0  0  0  0  0
   27.1971  -22.9147  -17.2412 C   0  0  0  0  0  0  0  0  0  0  0  0
   25.5738  -22.1238  -17.2659 S   0  0  0  0  0  0  0  0  0  0  0  0
   28.0442  -21.3596  -15.6059 C   0  0  0  0  0  0  0  0  0  0  0  0
   28.4507  -22.0973  -14.6413 O   0  0  0  0  0  0  0  0  0  0  0  0
   27.4021  -20.1225  -15.3537 N   0  0  0  0  0  0  0  0  0  0  0  0
   26.8177  -19.2839  -16.3762 C   0  0  0  0  0  0  0  0  0  0  0  0
   26.1057  -18.1648  -15.6438 C   0  0  0  0  0  0  0  0  0  0  0  0
   26.8284  -18.0645  -14.3404 C   0  0  0  0  0  0  0  0  0  0  0  0
   27.2280  -19.5050  -14.0636 C   0  0  1  0  0  0  0  0  0  0  0  0
   26.1884  -20.2136  -13.2518 C   0  0  0  0  0  0  0  0  0  0  0  0
   25.3039  -20.8819  -13.8354 O   0  0  0  0  0  0  0  0  0  0  0  0
   28.7265  -20.4064   -6.9269 C   0  0  0  0  0  0  0  0  0  0  0  0
   26.9988  -20.1327   -7.4418 S   0  0  0  0  0  0  0  0  0  0  0  0
   26.7879  -20.7629   -9.1314 C   0  0  0  0  0  0  0  0  0  0  0  0
   25.3652  -20.5154   -9.5523 C   0  0  0  0  0  0  0  0  0  0  0  0
   25.1557  -20.7903  -11.0284 C   0  0  2  0  0  0  0  0  0  0  0  0
   26.1737  -20.1518  -11.8375 N   0  0  0  0  0  0  0  0  0  0  0  0
   23.7947  -20.4389  -11.4558 C   0  0  0  0  0  0  0  0  0  0  0  0
   23.6428  -19.3633  -12.0990 O   0  0  0  0  0  0  0  0  0  0  0  0
   22.6898  -21.2031  -11.1996 O   0  0  0  0  0  0  0  0  0  0  0  0
  2  1  1  1
  3  2  1  0
  4  3  1  0
  5  2  1  0
  5  6  2  0
  7  5  1  0
  8  7  1  0
  9 10  1  0
  9  8  1  0
 10 11  1  0
 11  7  1  0
 11 12  1  6
 12 13  2  0
 12 19  1  0
 15 14  1  0
 16 17  1  0
 16 15  1  0
 18 17  1  1
 19 18  1  0
 20 18  1  0
 20 22  1  0
 21 20  2  0
M  END
$$$$
