CPM.pdb
     RDKit          3D

 22 22  0  0  1  0  0  0  0  0999 V2000
   23.9222  -22.7085  -14.1310 N   0  0  0  0  0  0  0  0  0  0  0  0
   24.4784  -21.5538  -13.5082 C   0  0  1  0  0  0  0  0  0  0  0  0
   23.3740  -20.6691  -12.9354 C   0  0  0  0  0  0  0  0  0  0  0  0
   22.3978  -19.9182  -14.2561 S   0  0  0  0  0  0  0  0  0  0  0  0
   25.4184  -21.8337  -12.4116 C   0  0  0  0  0  0  0  0  0  0  0  0
   25.0072  -22.6824  -11.5453 O   0  0  0  0  0  0  0  0  0  0  0  0
   26.6935  -21.2294  -12.2881 N   0  0  0  0  0  0  0  0  0  0  0  0
   27.2389  -20.2770  -13.2293 C   0  0  0  0  0  0  0  0  0  0  0  0
   28.5322  -19.7775  -12.6179 C   0  0  0  0  0  0  0  0  0  0  0  0
   28.9628  -20.8886  -11.7174 C   0  0  0  0  0  0  0  0  0  0  0  0
   27.6411  -21.4581  -11.2271 C   0  0  1  0  0  0  0  0  0  0  0  0
   27.2050  -20.8057   -9.9519 C   0  0  0  0  0  0  0  0  0  0  0  0
   26.4512  -19.8062  -10.0000 O   0  0  0  0  0  0  0  0  0  0  0  0
   29.2968  -19.5435   -2.5253 C   0  0  0  0  0  0  0  0  0  0  0  0
   29.1223  -20.8461   -3.7894 S   0  0  0  0  0  0  0  0  0  0  0  0
   27.9514  -20.2765   -5.0547 C   0  0  0  0  0  0  0  0  0  0  0  0
   28.2177  -21.0422   -6.3217 C   0  0  0  0  0  0  0  0  0  0  0  0
   27.2836  -20.6266   -7.4411 C   0  0  2  0  0  0  0  0  0  0  0  0
   27.6202  -21.2857   -8.6863 N   0  0  0  0  0  0  0  0  0  0  0  0
   27.2197  -19.1651   -7.5771 C   0  0  0  0  0  0  0  0  0  0  0  0
   26.1301  -18.5975   -7.2866 O   0  0  0  0  0  0  0  0  0  0  0  0
   28.2640  -18.3883   -7.9971 O   0  0  0  0  0  0  0  0  0  0  0  0
  2  1  1  1
  3  2  1  0
  4  3  1  0
  5  2  1  0
  5  6  2  0
  7  5  1  0
  8  7  1  0
  9 10  1  0
  9  8  1  0
 10 11  1  0
 11  7  1  0
 11 12  1  1
 12 13  2  0
 12 19  1  0
 15 14  1  0
 16 17  1  0
 16 15  1  0
 18 17  1  1
 19 18  1  0
 20 18  1  0
 20 22  1  0
 21 20  2  0
M  END
$$$$
