CPM.pdb
     RDKit          3D

 22 22  0  0  1  0  0  0  0  0999 V2000
   23.2168  -20.7102  -16.2751 N   0  0  0  0  0  0  0  0  0  0  0  0
   24.0093  -19.8659  -15.4447 C   0  0  1  0  0  0  0  0  0  0  0  0
   23.1207  -18.9383  -14.6199 C   0  0  0  0  0  0  0  0  0  0  0  0
   22.3452  -17.6876  -15.6666 S   0  0  0  0  0  0  0  0  0  0  0  0
   24.8873  -20.5739  -14.5000 C   0  0  0  0  0  0  0  0  0  0  0  0
   24.4028  -21.6537  -14.0111 O   0  0  0  0  0  0  0  0  0  0  0  0
   26.1800  -20.1261  -14.1328 N   0  0  0  0  0  0  0  0  0  0  0  0
   26.8276  -18.9599  -14.6902 C   0  0  0  0  0  0  0  0  0  0  0  0
   28.1032  -18.7689  -13.8951 C   0  0  0  0  0  0  0  0  0  0  0  0
   28.4234  -20.1361  -13.3857 C   0  0  0  0  0  0  0  0  0  0  0  0
   27.0481  -20.7449  -13.1636 C   0  0  1  0  0  0  0  0  0  0  0  0
   26.5661  -20.5094  -11.7657 C   0  0  0  0  0  0  0  0  0  0  0  0
   25.9762  -19.4387  -11.4918 O   0  0  0  0  0  0  0  0  0  0  0  0
   27.7489  -19.1068   -4.5734 C   0  0  0  0  0  0  0  0  0  0  0  0
   28.0807  -19.1021   -6.3664 S   0  0  0  0  0  0  0  0  0  0  0  0
   26.8459  -20.1477   -7.1899 C   0  0  0  0  0  0  0  0  0  0  0  0
   27.2931  -20.3772   -8.6075 C   0  0  0  0  0  0  0  0  0  0  0  0
   26.3217  -21.2545   -9.3725 C   0  0  2  0  0  0  0  0  0  0  0  0
   26.7571  -21.4643  -10.7380 N   0  0  0  0  0  0  0  0  0  0  0  0
   24.9486  -20.7377   -9.2926 C   0  0  0  0  0  0  0  0  0  0  0  0
   24.1465  -21.3258   -8.5152 O   0  0  0  0  0  0  0  0  0  0  0  0
   24.4913  -19.6642  -10.0059 O   0  0  0  0  0  0  0  0  0  0  0  0
  2  1  1  1
  3  2  1  0
  4  3  1  0
  5  2  1  0
  5  6  2  0
  7  5  1  0
  8  7  1  0
  9 10  1  0
  9  8  1  0
 10 11  1  0
 11  7  1  0
 11 12  1  1
 12 13  2  0
 12 19  1  0
 15 14  1  0
 16 17  1  0
 16 15  1  0
 18 17  1  6
 19 18  1  0
 20 18  1  0
 20 22  1  0
 21 20  2  0
M  END
$$$$
