CPM.pdb
     RDKit          3D

 22 22  0  0  1  0  0  0  0  0999 V2000
   16.9302  -12.3243  -15.0580 N   0  0  0  0  0  0  0  0  0  0  0  0
   17.8557  -11.5147  -15.7781 C   0  0  1  0  0  0  0  0  0  0  0  0
   17.2903  -11.1416  -17.1462 C   0  0  0  0  0  0  0  0  0  0  0  0
   17.2906  -12.5665  -18.2555 S   0  0  0  0  0  0  0  0  0  0  0  0
   18.2306  -10.2587  -15.1099 C   0  0  0  0  0  0  0  0  0  0  0  0
   17.2899   -9.6895  -14.4535 O   0  0  0  0  0  0  0  0  0  0  0  0
   19.5261   -9.6888  -15.1647 N   0  0  0  0  0  0  0  0  0  0  0  0
   20.6593  -10.3017  -15.8210 C   0  0  0  0  0  0  0  0  0  0  0  0
   21.7746   -9.2771  -15.7749 C   0  0  0  0  0  0  0  0  0  0  0  0
   21.4442   -8.4316  -14.5887 C   0  0  0  0  0  0  0  0  0  0  0  0
   19.9239   -8.4301  -14.5874 C   0  0  1  0  0  0  0  0  0  0  0  0
   19.3785   -7.2728  -15.3654 C   0  0  0  0  0  0  0  0  0  0  0  0
   19.3537   -7.3311  -16.6165 O   0  0  0  0  0  0  0  0  0  0  0  0
   14.9272   -2.4580  -13.2418 C   0  0  0  0  0  0  0  0  0  0  0  0
   14.6960   -3.1355  -14.9189 S   0  0  0  0  0  0  0  0  0  0  0  0
   16.3275   -3.4731  -15.6405 C   0  0  0  0  0  0  0  0  0  0  0  0
   16.9231   -4.6550  -14.9259 C   0  0  0  0  0  0  0  0  0  0  0  0
   18.3038   -4.9968  -15.4508 C   0  0  2  0  0  0  0  0  0  0  0  0
   18.8870   -6.1082  -14.7277 N   0  0  0  0  0  0  0  0  0  0  0  0
   19.1804   -3.8180  -15.4737 C   0  0  0  0  0  0  0  0  0  0  0  0
   18.9302   -2.9193  -16.3243 O   0  0  0  0  0  0  0  0  0  0  0  0
   20.2444   -3.6379  -14.6336 O   0  0  0  0  0  0  0  0  0  0  0  0
  2  1  1  1
  3  2  1  0
  4  3  1  0
  5  2  1  0
  5  6  2  0
  7  5  1  0
  8  7  1  0
  9 10  1  0
  9  8  1  0
 10 11  1  0
 11  7  1  0
 11 12  1  6
 12 13  2  0
 12 19  1  0
 15 14  1  0
 16 17  1  0
 16 15  1  0
 18 17  1  1
 19 18  1  0
 20 18  1  0
 20 22  1  0
 21 20  2  0
M  END
$$$$
