CPM.pdb
     RDKit          3D

 22 22  0  0  1  0  0  0  0  0999 V2000
   24.4528  -20.7022  -15.8741 N   0  0  0  0  0  0  0  0  0  0  0  0
   25.2766  -19.9699  -14.9710 C   0  0  1  0  0  0  0  0  0  0  0  0
   24.5069  -18.7926  -14.3777 C   0  0  0  0  0  0  0  0  0  0  0  0
   23.9449  -17.6688  -15.6747 S   0  0  0  0  0  0  0  0  0  0  0  0
   25.8055  -20.7515  -13.8424 C   0  0  0  0  0  0  0  0  0  0  0  0
   25.0137  -21.6461  -13.3812 O   0  0  0  0  0  0  0  0  0  0  0  0
   27.0908  -20.5589  -13.2793 N   0  0  0  0  0  0  0  0  0  0  0  0
   28.0353  -19.5596  -13.7262 C   0  0  0  0  0  0  0  0  0  0  0  0
   29.1880  -19.6035  -12.7438 C   0  0  0  0  0  0  0  0  0  0  0  0
   29.1476  -20.9927  -12.1963 C   0  0  0  0  0  0  0  0  0  0  0  0
   27.6609  -21.3107  -12.1904 C   0  0  1  0  0  0  0  0  0  0  0  0
   27.0299  -20.9465  -10.8824 C   0  0  0  0  0  0  0  0  0  0  0  0
   26.5548  -19.7976  -10.7286 O   0  0  0  0  0  0  0  0  0  0  0  0
   28.5663  -18.3926   -5.9906 C   0  0  0  0  0  0  0  0  0  0  0  0
   27.7591  -19.8044   -5.1659 S   0  0  0  0  0  0  0  0  0  0  0  0
   26.5298  -20.5147   -6.2975 C   0  0  0  0  0  0  0  0  0  0  0  0
   27.2295  -20.8982   -7.5725 C   0  0  0  0  0  0  0  0  0  0  0  0
   26.2879  -21.5645   -8.5564 C   0  0  2  0  0  0  0  0  0  0  0  0
   26.9528  -21.8651   -9.8078 N   0  0  0  0  0  0  0  0  0  0  0  0
   25.0601  -20.7800   -8.7456 C   0  0  0  0  0  0  0  0  0  0  0  0
   25.0024  -20.0167   -9.7493 O   0  0  0  0  0  0  0  0  0  0  0  0
   23.9832  -20.8277   -7.9039 O   0  0  0  0  0  0  0  0  0  0  0  0
  2  1  1  1
  3  2  1  0
  4  3  1  0
  5  2  1  0
  5  6  2  0
  7  5  1  0
  8  7  1  0
  9 10  1  0
  9  8  1  0
 10 11  1  0
 11  7  1  0
 11 12  1  1
 12 13  2  0
 12 19  1  0
 15 14  1  0
 16 17  1  0
 16 15  1  0
 18 17  1  1
 19 18  1  0
 20 18  1  0
 20 22  1  0
 21 20  2  0
M  END
$$$$
