CPM.pdb
     RDKit          3D

 22 22  0  0  1  0  0  0  0  0999 V2000
   18.9819  -28.7272  -10.8278 N   0  0  0  0  0  0  0  0  0  0  0  0
   17.9512  -28.0651  -10.0998 C   0  0  1  0  0  0  0  0  0  0  0  0
   16.7753  -29.0082   -9.8578 C   0  0  0  0  0  0  0  0  0  0  0  0
   15.4310  -28.1580   -9.0028 S   0  0  0  0  0  0  0  0  0  0  0  0
   18.3592  -27.5397   -8.7876 C   0  0  0  0  0  0  0  0  0  0  0  0
   18.9773  -28.3721   -8.0361 O   0  0  0  0  0  0  0  0  0  0  0  0
   18.1055  -26.2163   -8.3510 N   0  0  0  0  0  0  0  0  0  0  0  0
   17.3000  -25.2590   -9.0757 C   0  0  0  0  0  0  0  0  0  0  0  0
   17.1652  -24.0530   -8.1684 C   0  0  0  0  0  0  0  0  0  0  0  0
   18.3732  -24.1190   -7.2923 C   0  0  0  0  0  0  0  0  0  0  0  0
   18.5976  -25.6147   -7.1378 C   0  0  1  0  0  0  0  0  0  0  0  0
   17.8894  -26.1514   -5.9327 C   0  0  0  0  0  0  0  0  0  0  0  0
   16.7446  -26.6435   -6.0616 O   0  0  0  0  0  0  0  0  0  0  0  0
   20.8734  -26.6046   -0.3117 C   0  0  0  0  0  0  0  0  0  0  0  0
   19.3190  -27.3597    0.2703 S   0  0  0  0  0  0  0  0  0  0  0  0
   18.0758  -27.2212   -1.0456 C   0  0  0  0  0  0  0  0  0  0  0  0
   18.7443  -26.6526   -2.2672 C   0  0  0  0  0  0  0  0  0  0  0  0
   17.8070  -26.6123   -3.4582 C   0  0  2  0  0  0  0  0  0  0  0  0
   18.4765  -26.1199   -4.6447 N   0  0  0  0  0  0  0  0  0  0  0  0
   16.5787  -25.8657   -3.1542 C   0  0  0  0  0  0  0  0  0  0  0  0
   16.5716  -24.6270   -3.3974 O   0  0  0  0  0  0  0  0  0  0  0  0
   15.4499  -26.4297   -2.6268 O   0  0  0  0  0  0  0  0  0  0  0  0
  2  1  1  1
  3  2  1  0
  4  3  1  0
  5  2  1  0
  5  6  2  0
  7  5  1  0
  8  7  1  0
  9 10  1  0
  9  8  1  0
 10 11  1  0
 11  7  1  0
 11 12  1  1
 12 13  2  0
 12 19  1  0
 15 14  1  0
 16 17  1  0
 16 15  1  0
 18 17  1  1
 19 18  1  0
 20 18  1  0
 20 22  1  0
 21 20  2  0
M  END
$$$$
