PRS.pdb
     RDKit          3D

 25 25  0  0  1  0  0  0  0  0999 V2000
   26.9180  -19.1644  -14.1954 N   0  0  0  0  0  0  0  0  0  0  0  0
   27.5385  -20.0106  -15.1849 C   0  0  0  0  0  0  0  0  0  0  0  0
   27.5359  -19.2424  -16.4919 C   0  0  0  0  0  0  0  0  0  0  0  0
   27.6054  -17.8230  -15.9269 C   0  0  0  0  0  0  0  0  0  0  0  0
   26.5288  -17.9405  -14.8681 C   0  0  1  0  0  0  0  0  0  0  0  0
   25.1713  -18.1095  -15.4894 C   0  0  0  0  0  0  0  0  0  0  0  0
   24.7903  -17.2378  -16.3169 O   0  0  0  0  0  0  0  0  0  0  0  0
   25.5556  -24.0855  -14.9383 N   0  0  0  0  0  0  0  0  0  0  0  0
   24.1818  -24.3901  -15.1856 C   0  0  0  0  0  0  0  0  0  0  0  0
   23.5674  -25.2414  -14.4446 N   0  0  0  0  0  0  0  0  0  0  0  0
   23.4549  -23.7740  -16.2424 N   0  0  0  0  0  0  0  0  0  0  0  0
   24.1024  -22.7724  -17.0786 C   0  0  0  0  0  0  0  0  0  0  0  0
   24.1771  -21.4733  -16.3586 C   0  0  0  0  0  0  0  0  0  0  0  0
   22.9223  -20.6675  -16.5056 C   0  0  0  0  0  0  0  0  0  0  0  0
   23.0111  -19.3327  -15.8224 C   0  0  2  0  0  0  0  0  0  0  0  0
   24.3238  -19.1799  -15.1918 N   0  0  0  0  0  0  0  0  0  0  0  0
   21.9524  -19.2421  -14.7695 C   0  0  0  0  0  0  0  0  0  0  0  0
   22.1716  -19.6833  -13.6333 O   0  0  0  0  0  0  0  0  0  0  0  0
   22.6057  -25.5664  -14.6656 O   0  0  0  0  0  0  0  0  0  0  0  0
   18.4267  -17.6753  -16.0839 C   0  0  0  0  0  0  0  0  0  0  0  0
   18.6837  -17.4480  -14.7462 C   0  0  1  0  0  0  0  0  0  0  0  0
   19.6313  -18.4961  -14.1575 N   0  0  0  0  0  0  0  0  0  0  0  0
   20.7117  -18.6477  -15.1000 C   0  0  0  0  0  0  0  0  0  0  0  0
   18.8457  -19.7366  -13.9976 O   0  0  0  0  0  0  0  0  0  0  0  0
   19.0871  -20.7211  -14.7314 O   0  0  0  0  0  0  0  0  0  0  0  0
  1  2  1  0
  3  2  1  0
  4  5  1  0
  4  3  1  0
  5  1  1  0
  5  6  1  6
  7  6  2  0
  9  8  1  0
 10  9  2  0
 11  9  1  0
 12 13  1  0
 12 11  1  0
 13 14  1  0
 15 14  1  1
 15 16  1  0
 16  6  1  0
 17 22  1  0
 17 15  1  0
 18 17  2  0
 19 20  1  0
 21 20  1  1
 21 23  1  0
 21 22  1  0
 23 25  1  0
 24 23  2  0
M  END
$$$$
