PRS.pdb
     RDKit          3D

 25 25  0  0  1  0  0  0  0  0999 V2000
   27.6015  -21.0143  -14.9939 N   0  0  0  0  0  0  0  0  0  0  0  0
   28.3926  -19.8607  -15.3454 C   0  0  0  0  0  0  0  0  0  0  0  0
   28.2892  -18.8820  -14.1922 C   0  0  0  0  0  0  0  0  0  0  0  0
   28.0852  -19.8842  -13.0551 C   0  0  0  0  0  0  0  0  0  0  0  0
   27.0174  -20.7476  -13.6940 C   0  0  1  0  0  0  0  0  0  0  0  0
   25.7312  -19.9889  -13.8586 C   0  0  0  0  0  0  0  0  0  0  0  0
   25.1625  -19.5621  -12.8174 O   0  0  0  0  0  0  0  0  0  0  0  0
   23.8236  -14.4592  -16.7995 N   0  0  0  0  0  0  0  0  0  0  0  0
   22.4907  -14.3789  -17.3077 C   0  0  0  0  0  0  0  0  0  0  0  0
   21.8392  -13.2737  -17.2344 N   0  0  0  0  0  0  0  0  0  0  0  0
   21.8456  -15.4989  -17.9029 N   0  0  0  0  0  0  0  0  0  0  0  0
   22.5580  -16.7634  -18.0265 C   0  0  0  0  0  0  0  0  0  0  0  0
   22.6047  -17.4567  -16.7116 C   0  0  0  0  0  0  0  0  0  0  0  0
   23.8626  -18.2505  -16.5306 C   0  0  0  0  0  0  0  0  0  0  0  0
   23.8810  -19.0147  -15.2375 C   0  0  2  0  0  0  0  0  0  0  0  0
   25.1462  -19.7396  -15.1028 N   0  0  0  0  0  0  0  0  0  0  0  0
   22.7536  -19.9977  -15.2253 C   0  0  0  0  0  0  0  0  0  0  0  0
   22.6407  -20.8198  -16.1446 O   0  0  0  0  0  0  0  0  0  0  0  0
   20.9468  -13.1291  -17.7463 O   0  0  0  0  0  0  0  0  0  0  0  0
   20.7081  -20.4120  -11.6642 C   0  0  0  0  0  0  0  0  0  0  0  0
   20.7547  -21.4221  -12.6049 C   0  0  1  0  0  0  0  0  0  0  0  0
   20.7218  -20.8767  -14.0348 N   0  0  0  0  0  0  0  0  0  0  0  0
   21.8325  -19.9652  -14.1518 C   0  0  0  0  0  0  0  0  0  0  0  0
   19.4192  -20.2009  -14.2015 O   0  0  0  0  0  0  0  0  0  0  0  0
   18.3637  -20.8717  -14.1577 O   0  0  0  0  0  0  0  0  0  0  0  0
  1  2  1  0
  3  2  1  0
  4  5  1  0
  4  3  1  0
  5  1  1  0
  5  6  1  6
  7  6  2  0
  9  8  1  0
 10  9  2  0
 11  9  1  0
 12 13  1  0
 12 11  1  0
 13 14  1  0
 15 14  1  6
 15 16  1  0
 16  6  1  0
 17 22  1  0
 17 15  1  0
 18 17  2  0
 19 20  1  0
 21 20  1  6
 21 23  1  0
 21 22  1  0
 23 25  1  0
 24 23  2  0
M  END
$$$$
