PRS.pdb
     RDKit          3D

 25 25  0  0  1  0  0  0  0  0999 V2000
   30.9380  -18.6620  -18.7021 N   0  0  0  0  0  0  0  0  0  0  0  0
   30.5604  -17.9070  -19.8715 C   0  0  0  0  0  0  0  0  0  0  0  0
   29.1735  -17.3515  -19.6139 C   0  0  0  0  0  0  0  0  0  0  0  0
   29.2520  -17.2286  -18.0915 C   0  0  0  0  0  0  0  0  0  0  0  0
   29.8242  -18.5950  -17.7764 C   0  0  1  0  0  0  0  0  0  0  0  0
   28.8362  -19.6832  -18.0877 C   0  0  0  0  0  0  0  0  0  0  0  0
   29.1766  -20.5663  -18.9207 O   0  0  0  0  0  0  0  0  0  0  0  0
   30.8578  -24.9879  -16.3029 N   0  0  0  0  0  0  0  0  0  0  0  0
   29.5500  -25.5595  -16.3662 C   0  0  0  0  0  0  0  0  0  0  0  0
   29.3472  -26.7529  -15.9350 N   0  0  0  0  0  0  0  0  0  0  0  0
   28.4425  -24.8426  -16.8996 N   0  0  0  0  0  0  0  0  0  0  0  0
   28.6635  -23.8139  -17.9069 C   0  0  0  0  0  0  0  0  0  0  0  0
   28.8017  -22.4825  -17.2589 C   0  0  0  0  0  0  0  0  0  0  0  0
   27.5247  -22.0224  -16.6243 C   0  0  0  0  0  0  0  0  0  0  0  0
   26.8023  -21.0019  -17.4568 C   0  0  2  0  0  0  0  0  0  0  0  0
   27.5709  -19.7562  -17.4992 N   0  0  0  0  0  0  0  0  0  0  0  0
   25.4622  -20.7261  -16.8522 C   0  0  0  0  0  0  0  0  0  0  0  0
   25.3841  -20.2890  -15.6960 O   0  0  0  0  0  0  0  0  0  0  0  0
   28.4230  -27.2185  -16.0261 O   0  0  0  0  0  0  0  0  0  0  0  0
   20.8720  -19.9144  -18.0862 C   0  0  0  0  0  0  0  0  0  0  0  0
   22.1337  -20.3744  -18.4083 C   0  0  2  0  0  0  0  0  0  0  0  0
   22.9682  -20.6814  -17.1623 N   0  0  0  0  0  0  0  0  0  0  0  0
   24.3024  -20.9735  -17.6238 C   0  0  0  0  0  0  0  0  0  0  0  0
   22.3346  -21.8409  -16.5022 O   0  0  0  0  0  0  0  0  0  0  0  0
   22.7113  -22.9991  -16.7900 O   0  0  0  0  0  0  0  0  0  0  0  0
  1  2  1  0
  3  2  1  0
  4  5  1  0
  4  3  1  0
  5  1  1  0
  5  6  1  6
  7  6  2  0
  9  8  1  0
 10  9  2  0
 11  9  1  0
 12 13  1  0
 12 11  1  0
 13 14  1  0
 15 14  1  1
 15 16  1  0
 16  6  1  0
 17 22  1  0
 17 15  1  0
 18 17  2  0
 19 20  1  0
 21 20  1  1
 21 23  1  0
 21 22  1  0
 23 25  1  0
 24 23  2  0
M  END
$$$$
