PRS.pdb
     RDKit          3D

 25 25  0  0  1  0  0  0  0  0999 V2000
   27.8144  -22.6675  -16.0443 N   0  0  0  0  0  0  0  0  0  0  0  0
   27.4133  -22.8349  -17.4195 C   0  0  0  0  0  0  0  0  0  0  0  0
   26.7157  -21.5557  -17.8384 C   0  0  0  0  0  0  0  0  0  0  0  0
   27.4561  -20.5779  -16.9247 C   0  0  0  0  0  0  0  0  0  0  0  0
   27.3626  -21.3544  -15.6277 C   0  0  1  0  0  0  0  0  0  0  0  0
   25.9429  -21.4336  -15.1425 C   0  0  0  0  0  0  0  0  0  0  0  0
   25.2237  -22.3730  -15.5785 O   0  0  0  0  0  0  0  0  0  0  0  0
   21.9524  -21.3489   -8.6455 N   0  0  0  0  0  0  0  0  0  0  0  0
   23.3023  -21.3436   -8.1775 C   0  0  0  0  0  0  0  0  0  0  0  0
   23.6240  -22.0178   -7.1318 N   0  0  0  0  0  0  0  0  0  0  0  0
   24.3232  -20.6052   -8.8388 N   0  0  0  0  0  0  0  0  0  0  0  0
   23.9939  -19.8034  -10.0095 C   0  0  0  0  0  0  0  0  0  0  0  0
   24.0596  -20.6383  -11.2384 C   0  0  0  0  0  0  0  0  0  0  0  0
   23.8580  -19.8329  -12.4858 C   0  0  0  0  0  0  0  0  0  0  0  0
   24.0250  -20.6518  -13.7340 C   0  0  2  0  0  0  0  0  0  0  0  0
   25.3933  -20.5204  -14.2390 N   0  0  0  0  0  0  0  0  0  0  0  0
   23.0721  -20.1646  -14.7790 C   0  0  0  0  0  0  0  0  0  0  0  0
   23.3017  -19.1058  -15.3791 O   0  0  0  0  0  0  0  0  0  0  0  0
   24.5928  -22.0175   -6.7566 O   0  0  0  0  0  0  0  0  0  0  0  0
   21.4474  -21.2118  -18.3150 C   0  0  0  0  0  0  0  0  0  0  0  0
   20.9408  -21.6566  -17.1097 C   0  0  2  0  0  0  0  0  0  0  0  0
   20.9372  -20.5549  -16.0470 N   0  0  0  0  0  0  0  0  0  0  0  0
   21.9181  -20.9332  -15.0606 C   0  0  0  0  0  0  0  0  0  0  0  0
   19.5697  -20.5059  -15.4909 O   0  0  0  0  0  0  0  0  0  0  0  0
   19.3483  -20.9707  -14.3503 O   0  0  0  0  0  0  0  0  0  0  0  0
  1  2  1  0
  3  2  1  0
  4  5  1  0
  4  3  1  0
  5  1  1  0
  5  6  1  6
  7  6  2  0
  9  8  1  0
 10  9  2  0
 11  9  1  0
 12 13  1  0
 12 11  1  0
 13 14  1  0
 15 14  1  1
 15 16  1  0
 16  6  1  0
 17 22  1  0
 17 15  1  0
 18 17  2  0
 19 20  1  0
 21 20  1  6
 21 23  1  0
 21 22  1  0
 23 25  1  0
 24 23  2  0
M  END
$$$$
