PRS.pdb
     RDKit          3D

 25 25  0  0  1  0  0  0  0  0999 V2000
   11.4665  -12.3782   -9.4164 N   0  0  0  0  0  0  0  0  0  0  0  0
   10.8447  -11.8451   -8.2293 C   0  0  0  0  0  0  0  0  0  0  0  0
   10.5215  -10.3909   -8.5110 C   0  0  0  0  0  0  0  0  0  0  0  0
   10.3130  -10.4884  -10.0230 C   0  0  0  0  0  0  0  0  0  0  0  0
   11.5452  -11.2949  -10.3767 C   0  0  1  0  0  0  0  0  0  0  0  0
   12.7995  -10.5003  -10.1477 C   0  0  0  0  0  0  0  0  0  0  0  0
   13.4218  -10.6819   -9.0662 O   0  0  0  0  0  0  0  0  0  0  0  0
   19.1422   -9.7314  -15.5905 N   0  0  0  0  0  0  0  0  0  0  0  0
   18.2841  -10.6274  -14.8818 C   0  0  0  0  0  0  0  0  0  0  0  0
   18.1241  -11.8318  -15.3000 N   0  0  0  0  0  0  0  0  0  0  0  0
   17.5865  -10.2276  -13.7077 N   0  0  0  0  0  0  0  0  0  0  0  0
   17.6168   -8.8333  -13.2872 C   0  0  0  0  0  0  0  0  0  0  0  0
   16.8304   -8.6572  -12.0373 C   0  0  0  0  0  0  0  0  0  0  0  0
   15.4354   -9.1897  -12.1621 C   0  0  0  0  0  0  0  0  0  0  0  0
   14.6184   -8.9624  -10.9222 C   0  0  2  0  0  0  0  0  0  0  0  0
   13.2990   -9.5796  -11.0725 N   0  0  0  0  0  0  0  0  0  0  0  0
   14.4457   -7.4928  -10.7035 C   0  0  0  0  0  0  0  0  0  0  0  0
   13.6284   -6.8586  -11.3843 O   0  0  0  0  0  0  0  0  0  0  0  0
   17.3720  -12.4450  -14.9291 O   0  0  0  0  0  0  0  0  0  0  0  0
   14.9808   -6.2152   -7.0522 C   0  0  0  0  0  0  0  0  0  0  0  0
   15.5942   -5.3310   -7.9177 C   0  0  2  0  0  0  0  0  0  0  0  0
   15.0673   -5.4691   -9.3482 N   0  0  0  0  0  0  0  0  0  0  0  0
   15.2287   -6.8545   -9.7128 C   0  0  0  0  0  0  0  0  0  0  0  0
   15.8805   -4.5674  -10.1891 O   0  0  0  0  0  0  0  0  0  0  0  0
   16.6679   -5.0508  -11.0331 O   0  0  0  0  0  0  0  0  0  0  0  0
  1  2  1  0
  3  2  1  0
  4  5  1  0
  4  3  1  0
  5  1  1  0
  5  6  1  1
  7  6  2  0
  9  8  1  0
 10  9  2  0
 11  9  1  0
 12 13  1  0
 12 11  1  0
 13 14  1  0
 15 14  1  6
 15 16  1  0
 16  6  1  0
 17 22  1  0
 17 15  1  0
 18 17  2  0
 19 20  1  0
 21 20  1  1
 21 23  1  0
 21 22  1  0
 23 25  1  0
 24 23  2  0
M  END
$$$$
