PRS.pdb
     RDKit          3D

 25 25  0  0  1  0  0  0  0  0999 V2000
   28.4129  -20.7097  -15.7793 N   0  0  0  0  0  0  0  0  0  0  0  0
   28.7871  -22.1002  -15.6976 C   0  0  0  0  0  0  0  0  0  0  0  0
   28.2684  -22.7750  -16.9522 C   0  0  0  0  0  0  0  0  0  0  0  0
   28.3328  -21.5786  -17.9026 C   0  0  0  0  0  0  0  0  0  0  0  0
   27.6758  -20.5410  -17.0162 C   0  0  1  0  0  0  0  0  0  0  0  0
   26.2244  -20.8577  -16.7924 C   0  0  0  0  0  0  0  0  0  0  0  0
   25.4694  -20.9019  -17.8013 O   0  0  0  0  0  0  0  0  0  0  0  0
   23.8179  -25.8547  -14.4764 N   0  0  0  0  0  0  0  0  0  0  0  0
   22.4459  -25.9472  -14.0890 C   0  0  0  0  0  0  0  0  0  0  0  0
   21.7312  -26.9400  -14.4825 N   0  0  0  0  0  0  0  0  0  0  0  0
   21.8296  -24.9617  -13.2681 N   0  0  0  0  0  0  0  0  0  0  0  0
   22.5945  -23.8013  -12.8321 C   0  0  0  0  0  0  0  0  0  0  0  0
   22.7172  -22.8205  -13.9433 C   0  0  0  0  0  0  0  0  0  0  0  0
   24.1333  -22.3826  -14.1628 C   0  0  0  0  0  0  0  0  0  0  0  0
   24.2752  -21.4586  -15.3386 C   0  0  2  0  0  0  0  0  0  0  0  0
   25.6830  -21.1024  -15.5277 N   0  0  0  0  0  0  0  0  0  0  0  0
   23.4875  -20.2118  -15.0887 C   0  0  0  0  0  0  0  0  0  0  0  0
   23.6926  -19.5462  -14.0646 O   0  0  0  0  0  0  0  0  0  0  0  0
   20.7587  -27.0822  -14.1459 O   0  0  0  0  0  0  0  0  0  0  0  0
   20.5523  -17.0276  -17.2548 C   0  0  0  0  0  0  0  0  0  0  0  0
   21.2756  -18.2039  -17.2775 C   0  0  2  0  0  0  0  0  0  0  0  0
   21.6689  -18.6631  -15.8712 N   0  0  0  0  0  0  0  0  0  0  0  0
   22.5159  -19.8177  -16.0386 C   0  0  0  0  0  0  0  0  0  0  0  0
   20.4134  -18.9841  -15.1628 O   0  0  0  0  0  0  0  0  0  0  0  0
   19.8827  -20.1062  -15.3211 O   0  0  0  0  0  0  0  0  0  0  0  0
  1  2  1  0
  3  2  1  0
  4  5  1  0
  4  3  1  0
  5  1  1  0
  5  6  1  1
  7  6  2  0
  9  8  1  0
 10  9  2  0
 11  9  1  0
 12 13  1  0
 12 11  1  0
 13 14  1  0
 15 14  1  1
 15 16  1  0
 16  6  1  0
 17 22  1  0
 17 15  1  0
 18 17  2  0
 19 20  1  0
 21 20  1  6
 21 23  1  0
 21 22  1  0
 23 25  1  0
 24 23  2  0
M  END
$$$$
