PRS.pdb
     RDKit          3D

 25 25  0  0  1  0  0  0  0  0999 V2000
   27.9970  -21.1100  -14.8496 N   0  0  0  0  0  0  0  0  0  0  0  0
   27.8306  -20.3020  -16.0326 C   0  0  0  0  0  0  0  0  0  0  0  0
   27.1477  -19.0186  -15.6025 C   0  0  0  0  0  0  0  0  0  0  0  0
   27.6830  -18.9392  -14.1720 C   0  0  0  0  0  0  0  0  0  0  0  0
   27.4205  -20.3685  -13.7452 C   0  0  1  0  0  0  0  0  0  0  0  0
   25.9469  -20.6477  -13.6572 C   0  0  0  0  0  0  0  0  0  0  0  0
   25.4247  -21.3447  -14.5690 O   0  0  0  0  0  0  0  0  0  0  0  0
   20.8236  -22.6525   -8.3123 N   0  0  0  0  0  0  0  0  0  0  0  0
   19.7566  -21.8243   -8.7778 C   0  0  0  0  0  0  0  0  0  0  0  0
   18.5456  -22.2525   -8.7403 N   0  0  0  0  0  0  0  0  0  0  0  0
   19.9897  -20.5179   -9.2915 N   0  0  0  0  0  0  0  0  0  0  0  0
   21.3542  -20.0644   -9.5243 C   0  0  0  0  0  0  0  0  0  0  0  0
   21.8360  -20.5444  -10.8469 C   0  0  0  0  0  0  0  0  0  0  0  0
   23.3054  -20.3188  -11.0340 C   0  0  0  0  0  0  0  0  0  0  0  0
   23.7637  -20.6331  -12.4296 C   0  0  2  0  0  0  0  0  0  0  0  0
   25.1409  -20.1729  -12.6193 N   0  0  0  0  0  0  0  0  0  0  0  0
   22.8781  -19.9350  -13.4124 C   0  0  0  0  0  0  0  0  0  0  0  0
   22.9220  -18.7017  -13.5164 O   0  0  0  0  0  0  0  0  0  0  0  0
   17.7531  -21.6866   -9.1021 O   0  0  0  0  0  0  0  0  0  0  0  0
   20.2339  -20.8785  -17.3645 C   0  0  0  0  0  0  0  0  0  0  0  0
   20.8743  -21.3113  -16.2199 C   0  0  2  0  0  0  0  0  0  0  0  0
   21.2030  -20.1539  -15.2736 N   0  0  0  0  0  0  0  0  0  0  0  0
   22.0013  -20.7086  -14.2090 C   0  0  0  0  0  0  0  0  0  0  0  0
   19.9129  -19.6210  -14.7907 O   0  0  0  0  0  0  0  0  0  0  0  0
   19.4615  -19.9988  -13.6864 O   0  0  0  0  0  0  0  0  0  0  0  0
  1  2  1  0
  3  2  1  0
  4  5  1  0
  4  3  1  0
  5  1  1  0
  5  6  1  6
  7  6  2  0
  9  8  1  0
 10  9  2  0
 11  9  1  0
 12 13  1  0
 12 11  1  0
 13 14  1  0
 15 14  1  1
 15 16  1  0
 16  6  1  0
 17 22  1  0
 17 15  1  0
 18 17  2  0
 19 20  1  0
 21 20  1  6
 21 23  1  0
 21 22  1  0
 23 25  1  0
 24 23  2  0
M  END
$$$$
