PRS.pdb
     RDKit          3D

 25 25  0  0  1  0  0  0  0  0999 V2000
   27.3504  -17.9237  -17.0570 N   0  0  0  0  0  0  0  0  0  0  0  0
   28.4553  -18.2326  -16.1830 C   0  0  0  0  0  0  0  0  0  0  0  0
   28.6869  -19.7283  -16.2702 C   0  0  0  0  0  0  0  0  0  0  0  0
   28.2031  -19.9548  -17.7032 C   0  0  0  0  0  0  0  0  0  0  0  0
   26.9059  -19.1758  -17.6372 C   0  0  1  0  0  0  0  0  0  0  0  0
   25.9185  -19.8407  -16.7206 C   0  0  0  0  0  0  0  0  0  0  0  0
   25.4837  -20.9776  -17.0493 O   0  0  0  0  0  0  0  0  0  0  0  0
   25.8928  -22.0302   -9.3124 N   0  0  0  0  0  0  0  0  0  0  0  0
   24.8557  -21.0710   -9.5262 C   0  0  0  0  0  0  0  0  0  0  0  0
   23.7811  -21.1170   -8.8231 N   0  0  0  0  0  0  0  0  0  0  0  0
   24.9708  -20.0473  -10.5078 N   0  0  0  0  0  0  0  0  0  0  0  0
   26.1826  -19.9463  -11.3098 C   0  0  0  0  0  0  0  0  0  0  0  0
   25.8922  -20.2990  -12.7251 C   0  0  0  0  0  0  0  0  0  0  0  0
   24.6875  -19.5825  -13.2550 C   0  0  0  0  0  0  0  0  0  0  0  0
   24.4318  -19.8795  -14.7051 C   0  0  2  0  0  0  0  0  0  0  0  0
   25.4676  -19.2583  -15.5331 N   0  0  0  0  0  0  0  0  0  0  0  0
   23.0986  -19.3265  -15.0979 C   0  0  0  0  0  0  0  0  0  0  0  0
   22.9396  -18.1015  -15.1862 O   0  0  0  0  0  0  0  0  0  0  0  0
   22.9720  -20.4952   -9.0181 O   0  0  0  0  0  0  0  0  0  0  0  0
   21.0955  -20.5431  -18.0331 C   0  0  0  0  0  0  0  0  0  0  0  0
   20.3007  -20.7156  -16.9169 C   0  0  2  0  0  0  0  0  0  0  0  0
   20.7218  -19.7995  -15.7652 N   0  0  0  0  0  0  0  0  0  0  0  0
   22.0389  -20.2257  -15.3626 C   0  0  0  0  0  0  0  0  0  0  0  0
   19.7208  -19.9771  -14.6938 O   0  0  0  0  0  0  0  0  0  0  0  0
   18.5398  -19.6092  -14.8829 O   0  0  0  0  0  0  0  0  0  0  0  0
  1  2  1  0
  3  2  1  0
  4  5  1  0
  4  3  1  0
  5  1  1  0
  5  6  1  1
  7  6  2  0
  9  8  1  0
 10  9  2  0
 11  9  1  0
 12 13  1  0
 12 11  1  0
 13 14  1  0
 15 14  1  1
 15 16  1  0
 16  6  1  0
 17 22  1  0
 17 15  1  0
 18 17  2  0
 19 20  1  0
 21 20  1  6
 21 23  1  0
 21 22  1  0
 23 25  1  0
 24 23  2  0
M  END
$$$$
