PRS.pdb
     RDKit          3D

 25 25  0  0  1  0  0  0  0  0999 V2000
   15.9890  -10.1496  -15.8028 N   0  0  0  0  0  0  0  0  0  0  0  0
   17.1875  -10.6808  -16.4040 C   0  0  0  0  0  0  0  0  0  0  0  0
   17.6848  -11.7910  -15.4992 C   0  0  0  0  0  0  0  0  0  0  0  0
   16.3410  -12.2411  -14.9242 C   0  0  0  0  0  0  0  0  0  0  0  0
   15.7718  -10.8828  -14.5710 C   0  0  1  0  0  0  0  0  0  0  0  0
   16.5455  -10.2429  -13.4534 C   0  0  0  0  0  0  0  0  0  0  0  0
   16.6207  -10.8643  -12.3588 O   0  0  0  0  0  0  0  0  0  0  0  0
   21.9364   -5.2059  -12.8493 N   0  0  0  0  0  0  0  0  0  0  0  0
   21.5298   -5.6598  -14.1416 C   0  0  0  0  0  0  0  0  0  0  0  0
   21.3973   -4.8214  -15.1064 N   0  0  0  0  0  0  0  0  0  0  0  0
   21.2606   -7.0321  -14.4047 N   0  0  0  0  0  0  0  0  0  0  0  0
   21.5341   -8.0325  -13.3819 C   0  0  0  0  0  0  0  0  0  0  0  0
   20.2677   -8.6764  -12.9423 C   0  0  0  0  0  0  0  0  0  0  0  0
   19.1223   -7.7113  -12.9013 C   0  0  0  0  0  0  0  0  0  0  0  0
   17.8435   -8.3533  -12.4442 C   0  0  2  0  0  0  0  0  0  0  0  0
   17.1778   -9.0028  -13.5753 N   0  0  0  0  0  0  0  0  0  0  0  0
   16.9354   -7.3064  -11.8813 C   0  0  0  0  0  0  0  0  0  0  0  0
   16.1627   -6.6918  -12.6290 O   0  0  0  0  0  0  0  0  0  0  0  0
   21.1817   -5.1303  -16.0746 O   0  0  0  0  0  0  0  0  0  0  0  0
   14.1203   -5.5370   -8.8518 C   0  0  0  0  0  0  0  0  0  0  0  0
   14.8955   -6.4933   -9.4778 C   0  0  1  0  0  0  0  0  0  0  0  0
   16.2706   -5.9491   -9.8729 N   0  0  0  0  0  0  0  0  0  0  0  0
   16.9809   -7.0399  -10.4925 C   0  0  0  0  0  0  0  0  0  0  0  0
   16.9192   -5.4902   -8.6278 O   0  0  0  0  0  0  0  0  0  0  0  0
   17.8053   -6.1953   -8.0952 O   0  0  0  0  0  0  0  0  0  0  0  0
  1  2  1  0
  3  2  1  0
  4  5  1  0
  4  3  1  0
  5  1  1  0
  5  6  1  1
  7  6  2  0
  9  8  1  0
 10  9  2  0
 11  9  1  0
 12 13  1  0
 12 11  1  0
 13 14  1  0
 15 14  1  6
 15 16  1  0
 16  6  1  0
 17 22  1  0
 17 15  1  0
 18 17  2  0
 19 20  1  0
 21 20  1  6
 21 23  1  0
 21 22  1  0
 23 25  1  0
 24 23  2  0
M  END
$$$$
