PRS.pdb
     RDKit          3D

 25 25  0  0  1  0  0  0  0  0999 V2000
   28.0236  -16.1823  -17.3148 N   0  0  0  0  0  0  0  0  0  0  0  0
   26.9590  -15.4063  -17.9019 C   0  0  0  0  0  0  0  0  0  0  0  0
   26.0006  -15.0477  -16.7833 C   0  0  0  0  0  0  0  0  0  0  0  0
   26.9983  -15.0151  -15.6246 C   0  0  0  0  0  0  0  0  0  0  0  0
   27.7216  -16.3163  -15.9031 C   0  0  1  0  0  0  0  0  0  0  0  0
   26.8194  -17.4975  -15.6844 C   0  0  0  0  0  0  0  0  0  0  0  0
   26.2789  -18.0204  -16.6965 O   0  0  0  0  0  0  0  0  0  0  0  0
   24.0557  -21.9382   -9.1653 N   0  0  0  0  0  0  0  0  0  0  0  0
   25.1618  -21.0346   -9.2035 C   0  0  0  0  0  0  0  0  0  0  0  0
   25.4562  -20.3331   -8.1679 N   0  0  0  0  0  0  0  0  0  0  0  0
   25.9646  -20.8797  -10.3681 N   0  0  0  0  0  0  0  0  0  0  0  0
   25.8955  -21.8719  -11.4323 C   0  0  0  0  0  0  0  0  0  0  0  0
   25.4914  -21.2269  -12.7099 C   0  0  0  0  0  0  0  0  0  0  0  0
   26.2472  -19.9600  -12.9724 C   0  0  0  0  0  0  0  0  0  0  0  0
   25.8183  -19.2859  -14.2444 C   0  0  2  0  0  0  0  0  0  0  0  0
   26.5577  -18.0342  -14.4211 N   0  0  0  0  0  0  0  0  0  0  0  0
   24.3554  -18.9810  -14.1763 C   0  0  0  0  0  0  0  0  0  0  0  0
   23.9549  -18.0216  -13.5033 O   0  0  0  0  0  0  0  0  0  0  0  0
   26.2507  -19.6637   -8.1677 O   0  0  0  0  0  0  0  0  0  0  0  0
   22.0866  -21.3500  -16.5837 C   0  0  0  0  0  0  0  0  0  0  0  0
   21.5994  -20.0770  -16.3618 C   0  0  1  0  0  0  0  0  0  0  0  0
   22.0453  -19.5198  -15.0076 N   0  0  0  0  0  0  0  0  0  0  0  0
   23.4536  -19.8048  -14.8903 C   0  0  0  0  0  0  0  0  0  0  0  0
   21.2433  -20.2125  -13.9787 O   0  0  0  0  0  0  0  0  0  0  0  0
   21.8008  -21.0121  -13.1940 O   0  0  0  0  0  0  0  0  0  0  0  0
  1  2  1  0
  3  2  1  0
  4  5  1  0
  4  3  1  0
  5  1  1  0
  5  6  1  6
  7  6  2  0
  9  8  1  0
 10  9  2  0
 11  9  1  0
 12 13  1  0
 12 11  1  0
 13 14  1  0
 15 14  1  1
 15 16  1  0
 16  6  1  0
 17 22  1  0
 17 15  1  0
 18 17  2  0
 19 20  1  0
 21 20  1  6
 21 23  1  0
 21 22  1  0
 23 25  1  0
 24 23  2  0
M  END
$$$$
