PRS.pdb
     RDKit          3D

 25 25  0  0  1  0  0  0  0  0999 V2000
   28.2226  -20.9229   -7.0694 N   0  0  0  0  0  0  0  0  0  0  0  0
   29.2008  -19.8646   -7.0128 C   0  0  0  0  0  0  0  0  0  0  0  0
   28.4376  -18.5561   -6.9522 C   0  0  0  0  0  0  0  0  0  0  0  0
   27.1797  -19.0540   -6.2390 C   0  0  0  0  0  0  0  0  0  0  0  0
   26.9166  -20.2935   -7.0687 C   0  0  1  0  0  0  0  0  0  0  0  0
   26.5228  -19.9341   -8.4733 C   0  0  0  0  0  0  0  0  0  0  0  0
   25.7038  -18.9885   -8.6310 O   0  0  0  0  0  0  0  0  0  0  0  0
   27.6736  -22.0952  -16.2869 N   0  0  0  0  0  0  0  0  0  0  0  0
   27.5726  -20.6898  -16.5235 C   0  0  0  0  0  0  0  0  0  0  0  0
   27.0168  -20.2560  -17.5979 N   0  0  0  0  0  0  0  0  0  0  0  0
   28.0743  -19.7345  -15.5959 N   0  0  0  0  0  0  0  0  0  0  0  0
   28.4822  -20.1629  -14.2648 C   0  0  0  0  0  0  0  0  0  0  0  0
   27.3274  -20.1017  -13.3297 C   0  0  0  0  0  0  0  0  0  0  0  0
   27.7192  -20.4204  -11.9189 C   0  0  0  0  0  0  0  0  0  0  0  0
   26.5772  -20.2683  -10.9551 C   0  0  2  0  0  0  0  0  0  0  0  0
   27.0205  -20.5964   -9.5985 N   0  0  0  0  0  0  0  0  0  0  0  0
   25.4719  -21.1981  -11.3437 C   0  0  0  0  0  0  0  0  0  0  0  0
   25.6127  -22.4200  -11.1988 O   0  0  0  0  0  0  0  0  0  0  0  0
   26.9976  -19.2446  -17.8346 O   0  0  0  0  0  0  0  0  0  0  0  0
   21.8529  -19.6903  -11.4069 C   0  0  0  0  0  0  0  0  0  0  0  0
   21.9520  -21.0599  -11.5539 C   0  0  1  0  0  0  0  0  0  0  0  0
   23.1887  -21.4625  -12.3612 N   0  0  0  0  0  0  0  0  0  0  0  0
   24.2781  -20.6541  -11.8734 C   0  0  0  0  0  0  0  0  0  0  0  0
   22.8771  -21.1907  -13.7791 O   0  0  0  0  0  0  0  0  0  0  0  0
   23.4984  -20.2912  -14.3880 O   0  0  0  0  0  0  0  0  0  0  0  0
  1  2  1  0
  3  2  1  0
  4  5  1  0
  4  3  1  0
  5  1  1  0
  5  6  1  6
  7  6  2  0
  9  8  1  0
 10  9  2  0
 11  9  1  0
 12 13  1  0
 12 11  1  0
 13 14  1  0
 15 14  1  6
 15 16  1  0
 16  6  1  0
 17 22  1  0
 17 15  1  0
 18 17  2  0
 19 20  1  0
 21 20  1  1
 21 23  1  0
 21 22  1  0
 23 25  1  0
 24 23  2  0
M  END
$$$$
