PRS.pdb
     RDKit          3D

 25 25  0  0  1  0  0  0  0  0999 V2000
   25.2880  -22.5511  -15.4713 N   0  0  0  0  0  0  0  0  0  0  0  0
   25.4371  -23.5450  -14.4368 C   0  0  0  0  0  0  0  0  0  0  0  0
   24.7581  -24.8071  -14.9311 C   0  0  0  0  0  0  0  0  0  0  0  0
   24.9691  -24.6111  -16.4330 C   0  0  0  0  0  0  0  0  0  0  0  0
   24.5301  -23.1658  -16.5435 C   0  0  1  0  0  0  0  0  0  0  0  0
   23.0588  -23.0224  -16.2753 C   0  0  0  0  0  0  0  0  0  0  0  0
   22.2579  -23.5728  -17.0788 O   0  0  0  0  0  0  0  0  0  0  0  0
   18.3416  -25.4051  -10.5834 N   0  0  0  0  0  0  0  0  0  0  0  0
   19.0967  -24.2646  -10.1706 C   0  0  0  0  0  0  0  0  0  0  0  0
   19.5576  -24.1966   -8.9729 N   0  0  0  0  0  0  0  0  0  0  0  0
   19.3621  -23.1805  -11.0532 N   0  0  0  0  0  0  0  0  0  0  0  0
   18.8234  -23.2003  -12.4064 C   0  0  0  0  0  0  0  0  0  0  0  0
   19.3541  -22.0509  -13.1868 C   0  0  0  0  0  0  0  0  0  0  0  0
   20.8157  -22.1913  -13.4854 C   0  0  0  0  0  0  0  0  0  0  0  0
   21.1082  -22.1650  -14.9586 C   0  0  2  0  0  0  0  0  0  0  0  0
   22.5473  -22.3132  -15.1855 N   0  0  0  0  0  0  0  0  0  0  0  0
   20.6576  -20.8587  -15.5313 C   0  0  0  0  0  0  0  0  0  0  0  0
   21.1492  -19.8000  -15.1172 O   0  0  0  0  0  0  0  0  0  0  0  0
   20.1412  -23.3980   -8.6552 O   0  0  0  0  0  0  0  0  0  0  0  0
   17.8789  -19.0216  -19.1002 C   0  0  0  0  0  0  0  0  0  0  0  0
   18.3908  -20.0985  -18.4034 C   0  0  2  0  0  0  0  0  0  0  0  0
   19.1527  -19.6613  -17.1498 N   0  0  0  0  0  0  0  0  0  0  0  0
   19.6696  -20.8630  -16.5439 C   0  0  0  0  0  0  0  0  0  0  0  0
   18.1797  -18.9672  -16.2821 O   0  0  0  0  0  0  0  0  0  0  0  0
   17.5109  -19.6240  -15.4530 O   0  0  0  0  0  0  0  0  0  0  0  0
  1  2  1  0
  3  2  1  0
  4  5  1  0
  4  3  1  0
  5  1  1  0
  5  6  1  1
  7  6  2  0
  9  8  1  0
 10  9  2  0
 11  9  1  0
 12 13  1  0
 12 11  1  0
 13 14  1  0
 15 14  1  1
 15 16  1  0
 16  6  1  0
 17 22  1  0
 17 15  1  0
 18 17  2  0
 19 20  1  0
 21 20  1  6
 21 23  1  0
 21 22  1  0
 23 25  1  0
 24 23  2  0
M  END
$$$$
