PRS.pdb
     RDKit          3D

 25 25  0  0  1  0  0  0  0  0999 V2000
   18.5312  -12.0686  -14.5045 N   0  0  0  0  0  0  0  0  0  0  0  0
   17.3914  -12.9468  -14.4063 C   0  0  0  0  0  0  0  0  0  0  0  0
   16.4479  -12.5791  -15.5346 C   0  0  0  0  0  0  0  0  0  0  0  0
   17.4797  -12.0761  -16.5452 C   0  0  0  0  0  0  0  0  0  0  0  0
   18.2892  -11.1839  -15.6273 C   0  0  1  0  0  0  0  0  0  0  0  0
   17.4870   -9.9961  -15.1771 C   0  0  0  0  0  0  0  0  0  0  0  0
   16.8769   -9.3304  -16.0571 O   0  0  0  0  0  0  0  0  0  0  0  0
   14.7351   -7.3423   -7.2196 N   0  0  0  0  0  0  0  0  0  0  0  0
   14.1145   -8.1591   -8.2141 C   0  0  0  0  0  0  0  0  0  0  0  0
   13.1696   -8.9660   -7.8868 N   0  0  0  0  0  0  0  0  0  0  0  0
   14.5119   -8.1114   -9.5796 N   0  0  0  0  0  0  0  0  0  0  0  0
   15.5352   -7.1652  -10.0031 C   0  0  0  0  0  0  0  0  0  0  0  0
   15.6844   -7.1986  -11.4824 C   0  0  0  0  0  0  0  0  0  0  0  0
   16.4885   -8.3744  -11.9474 C   0  0  0  0  0  0  0  0  0  0  0  0
   16.6938   -8.3801  -13.4355 C   0  0  2  0  0  0  0  0  0  0  0  0
   17.3901   -9.6033  -13.8396 N   0  0  0  0  0  0  0  0  0  0  0  0
   17.5214   -7.1974  -13.8274 C   0  0  0  0  0  0  0  0  0  0  0  0
   18.7344   -7.1821  -13.5780 O   0  0  0  0  0  0  0  0  0  0  0  0
   12.6481   -9.5159   -8.5975 O   0  0  0  0  0  0  0  0  0  0  0  0
   18.1682   -3.7963  -16.9593 C   0  0  0  0  0  0  0  0  0  0  0  0
   17.5696   -4.9240  -16.4326 C   0  0  1  0  0  0  0  0  0  0  0  0
   17.5964   -4.9263  -14.9021 N   0  0  0  0  0  0  0  0  0  0  0  0
   16.8922   -6.1118  -14.4813 C   0  0  0  0  0  0  0  0  0  0  0  0
   16.9234   -3.6867  -14.4639 O   0  0  0  0  0  0  0  0  0  0  0  0
   15.6745   -3.6523  -14.3928 O   0  0  0  0  0  0  0  0  0  0  0  0
  1  2  1  0
  3  2  1  0
  4  5  1  0
  4  3  1  0
  5  1  1  0
  5  6  1  1
  7  6  2  0
  9  8  1  0
 10  9  2  0
 11  9  1  0
 12 13  1  0
 12 11  1  0
 13 14  1  0
 15 14  1  1
 15 16  1  0
 16  6  1  0
 17 22  1  0
 17 15  1  0
 18 17  2  0
 19 20  1  0
 21 20  1  6
 21 23  1  0
 21 22  1  0
 23 25  1  0
 24 23  2  0
M  END
$$$$
