PRS.pdb
     RDKit          3D

 25 25  0  0  1  0  0  0  0  0999 V2000
   28.5664  -21.3983  -17.1334 N   0  0  0  0  0  0  0  0  0  0  0  0
   29.3241  -22.4791  -16.5522 C   0  0  0  0  0  0  0  0  0  0  0  0
   28.5133  -23.7454  -16.7457 C   0  0  0  0  0  0  0  0  0  0  0  0
   27.7852  -23.3600  -18.0342 C   0  0  0  0  0  0  0  0  0  0  0  0
   27.3337  -21.9691  -17.6398 C   0  0  1  0  0  0  0  0  0  0  0  0
   26.3075  -22.0210  -16.5437 C   0  0  0  0  0  0  0  0  0  0  0  0
   25.2339  -22.6416  -16.7718 O   0  0  0  0  0  0  0  0  0  0  0  0
   26.1542  -20.2826   -7.7252 N   0  0  0  0  0  0  0  0  0  0  0  0
   24.8974  -20.8438   -8.1081 C   0  0  0  0  0  0  0  0  0  0  0  0
   24.0254  -21.1416   -7.2123 N   0  0  0  0  0  0  0  0  0  0  0  0
   24.5693  -21.0903   -9.4706 N   0  0  0  0  0  0  0  0  0  0  0  0
   25.5667  -20.8640  -10.5078 C   0  0  0  0  0  0  0  0  0  0  0  0
   24.9818  -21.1301  -11.8490 C   0  0  0  0  0  0  0  0  0  0  0  0
   26.0128  -21.1016  -12.9359 C   0  0  0  0  0  0  0  0  0  0  0  0
   25.4259  -21.3608  -14.2941 C   0  0  2  0  0  0  0  0  0  0  0  0
   26.4915  -21.4175  -15.2969 N   0  0  0  0  0  0  0  0  0  0  0  0
   24.4838  -20.2540  -14.6477 C   0  0  0  0  0  0  0  0  0  0  0  0
   24.9274  -19.1694  -15.0485 O   0  0  0  0  0  0  0  0  0  0  0  0
   23.1006  -21.5445   -7.4608 O   0  0  0  0  0  0  0  0  0  0  0  0
   21.2114  -19.2865  -17.3745 C   0  0  0  0  0  0  0  0  0  0  0  0
   22.0899  -20.0534  -16.6346 C   0  0  2  0  0  0  0  0  0  0  0  0
   22.0967  -19.6537  -15.1570 N   0  0  0  0  0  0  0  0  0  0  0  0
   23.0926  -20.4745  -14.5146 C   0  0  0  0  0  0  0  0  0  0  0  0
   20.7369  -19.9115  -14.6413 O   0  0  0  0  0  0  0  0  0  0  0  0
   20.4787  -21.0088  -14.0980 O   0  0  0  0  0  0  0  0  0  0  0  0
  1  2  1  0
  3  2  1  0
  4  5  1  0
  4  3  1  0
  5  1  1  0
  5  6  1  1
  7  6  2  0
  9  8  1  0
 10  9  2  0
 11  9  1  0
 12 13  1  0
 12 11  1  0
 13 14  1  0
 15 14  1  1
 15 16  1  0
 16  6  1  0
 17 22  1  0
 17 15  1  0
 18 17  2  0
 19 20  1  0
 21 20  1  6
 21 23  1  0
 21 22  1  0
 23 25  1  0
 24 23  2  0
M  END
$$$$
