YHF.pdb
     RDKit          3D

 34 36  0  0  1  0  0  0  0  0999 V2000
    0.2745  -18.9333   20.7764 O   0  0  0  0  0  0  0  0  0  0  0  0
    1.6081  -18.7791   21.1352 C   0  0  0  0  0  0  0  0  0  0  0  0
    2.5944  -18.5644   20.1984 C   0  0  0  0  0  0  0  0  0  0  0  0
    3.9240  -18.4075   20.5198 C   0  0  0  0  0  0  0  0  0  0  0  0
    4.3256  -18.4632   21.8485 C   0  0  0  0  0  0  0  0  0  0  0  0
    5.7191  -18.3187   22.2697 C   0  0  0  0  0  0  0  0  0  0  0  0
    6.6807  -19.2637   21.6270 C   0  0  2  0  0  0  0  0  0  0  0  0
    6.1628  -20.6102   21.8340 N   0  0  0  0  0  0  0  0  0  0  0  0
    8.0166  -19.0957   22.2178 C   0  0  0  0  0  0  0  0  0  0  0  0
    8.2879  -19.7270   23.2804 O   0  0  0  0  0  0  0  0  0  0  0  0
    3.3440  -18.6778   22.7915 C   0  0  0  0  0  0  0  0  0  0  0  0
    2.0183  -18.8325   22.4509 C   0  0  0  0  0  0  0  0  0  0  0  0
    9.0257  -18.2842   21.6940 N   0  0  0  0  0  0  0  0  0  0  0  0
   10.4282  -18.2888   22.1780 C   0  0  1  0  0  0  0  0  0  0  0  0
   11.2287  -17.8351   21.0192 C   0  0  0  0  0  0  0  0  0  0  0  0
   11.4830  -18.7921   19.9472 C   0  0  0  0  0  0  0  0  0  0  0  0
   11.5186  -20.1433   19.8664 C   0  0  0  0  0  0  0  0  0  0  0  0
   11.7658  -20.4707   18.5696 N   0  0  0  0  0  0  0  0  0  0  0  0
   11.8817  -19.3428   17.8519 C   0  0  0  0  0  0  0  0  0  0  0  0
   11.7114  -18.3290   18.6800 N   0  0  0  0  0  0  0  0  0  0  0  0
   10.4355  -17.2213   23.2069 C   0  0  0  0  0  0  0  0  0  0  0  0
   10.2535  -16.0406   22.8841 O   0  0  0  0  0  0  0  0  0  0  0  0
   10.6477  -17.5171   24.5634 N   0  0  0  0  0  0  0  0  0  0  0  0
   10.7631  -16.4237   25.5278 C   0  0  1  0  0  0  0  0  0  0  0  0
    9.4467  -16.2827   26.2663 C   0  0  0  0  0  0  0  0  0  0  0  0
    9.4977  -15.2767   27.3300 C   0  0  0  0  0  0  0  0  0  0  0  0
   10.0402  -15.6015   28.5732 C   0  0  0  0  0  0  0  0  0  0  0  0
   10.1088  -14.6718   29.5799 C   0  0  0  0  0  0  0  0  0  0  0  0
    9.6402  -13.4005   29.3729 C   0  0  0  0  0  0  0  0  0  0  0  0
    9.1045  -13.0581   28.1640 C   0  0  0  0  0  0  0  0  0  0  0  0
    9.0399  -13.9939   27.1632 C   0  0  0  0  0  0  0  0  0  0  0  0
   11.9167  -16.5987   26.4117 C   0  0  0  0  0  0  0  0  0  0  0  0
   12.6327  -15.6087   26.6975 O   0  0  0  0  0  0  0  0  0  0  0  0
   12.2805  -17.8230   26.9703 O   0  0  0  0  0  0  0  0  0  0  0  0
  2  1  1  0
  3  2  2  0
  4  3  1  0
  5 11  1  0
  5  4  2  0
  6  5  1  0
  7  6  1  0
  7  8  1  1
  9  7  1  0
  9 13  1  0
 10  9  2  0
 11 12  2  0
 12  2  1  0
 14 15  1  6
 14 13  1  0
 14 21  1  0
 16 15  1  0
 17 16  2  0
 18 17  1  0
 19 18  1  0
 19 20  2  0
 20 16  1  0
 21 22  2  0
 23 21  1  0
 23 24  1  0
 24 32  1  0
 24 25  1  1
 26 31  1  0
 26 25  1  0
 27 26  2  0
 28 29  2  0
 28 27  1  0
 29 30  1  0
 30 31  2  0
 32 34  1  0
 33 32  2  0
M  END
$$$$
