YHF.pdb
     RDKit          3D

 34 36  0  0  1  0  0  0  0  0999 V2000
    8.8764  -25.0566   21.7180 O   0  0  0  0  0  0  0  0  0  0  0  0
    9.1956  -23.7043   21.7325 C   0  0  0  0  0  0  0  0  0  0  0  0
    8.2271  -22.7266   21.6812 C   0  0  0  0  0  0  0  0  0  0  0  0
    8.5089  -21.3789   21.6938 C   0  0  0  0  0  0  0  0  0  0  0  0
    9.8282  -20.9488   21.7612 C   0  0  0  0  0  0  0  0  0  0  0  0
   10.2098  -19.5366   21.7662 C   0  0  0  0  0  0  0  0  0  0  0  0
    9.4791  -18.6752   20.7890 C   0  0  2  0  0  0  0  0  0  0  0  0
    9.8843  -19.1003   19.4551 N   0  0  0  0  0  0  0  0  0  0  0  0
    9.7997  -17.2610   21.0322 C   0  0  0  0  0  0  0  0  0  0  0  0
   10.7452  -16.7370   20.3745 O   0  0  0  0  0  0  0  0  0  0  0  0
   10.8027  -21.9217   21.8127 C   0  0  0  0  0  0  0  0  0  0  0  0
   10.5015  -23.2657   21.7991 C   0  0  0  0  0  0  0  0  0  0  0  0
    9.1358  -16.4365   21.9436 N   0  0  0  0  0  0  0  0  0  0  0  0
    9.4667  -15.0068   22.1618 C   0  0  1  0  0  0  0  0  0  0  0  0
    8.3005  -14.2648   21.6337 C   0  0  0  0  0  0  0  0  0  0  0  0
    8.2947  -13.9197   20.2157 C   0  0  0  0  0  0  0  0  0  0  0  0
    9.1463  -14.1241   19.1830 C   0  0  0  0  0  0  0  0  0  0  0  0
    8.5699  -13.6041   18.0662 N   0  0  0  0  0  0  0  0  0  0  0  0
    7.3773  -13.0843   18.3955 C   0  0  0  0  0  0  0  0  0  0  0  0
    7.2087  -13.2734   19.6910 N   0  0  0  0  0  0  0  0  0  0  0  0
    9.4786  -14.8829   23.6392 C   0  0  0  0  0  0  0  0  0  0  0  0
    9.6121  -13.7742   24.1726 O   0  0  0  0  0  0  0  0  0  0  0  0
    9.3407  -16.0092   24.4667 N   0  0  0  0  0  0  0  0  0  0  0  0
    9.2619  -15.8307   25.9162 C   0  0  1  0  0  0  0  0  0  0  0  0
    7.8113  -15.6234   26.3047 C   0  0  0  0  0  0  0  0  0  0  0  0
    7.4490  -14.2079   26.4106 C   0  0  0  0  0  0  0  0  0  0  0  0
    6.2744  -13.7415   25.8207 C   0  0  0  0  0  0  0  0  0  0  0  0
    5.9095  -12.4224   25.9173 C   0  0  0  0  0  0  0  0  0  0  0  0
    6.7035  -11.5392   26.6017 C   0  0  0  0  0  0  0  0  0  0  0  0
    7.8588  -11.9718   27.1881 C   0  0  0  0  0  0  0  0  0  0  0  0
    8.2157  -13.2923   27.0864 C   0  0  0  0  0  0  0  0  0  0  0  0
    9.9114  -16.9283   26.6347 C   0  0  0  0  0  0  0  0  0  0  0  0
   10.3873  -17.8937   25.9897 O   0  0  0  0  0  0  0  0  0  0  0  0
   10.0387  -16.9721   28.0221 O   0  0  0  0  0  0  0  0  0  0  0  0
  2  1  1  0
  3  2  2  0
  4  3  1  0
  5 11  1  0
  5  4  2  0
  6  5  1  0
  7  6  1  0
  7  8  1  6
  9  7  1  0
  9 13  1  0
 10  9  2  0
 11 12  2  0
 12  2  1  0
 14 15  1  6
 14 13  1  0
 14 21  1  0
 16 15  1  0
 17 16  2  0
 18 17  1  0
 19 18  1  0
 19 20  2  0
 20 16  1  0
 21 22  2  0
 23 21  1  0
 23 24  1  0
 24 32  1  0
 24 25  1  1
 26 31  1  0
 26 25  1  0
 27 26  2  0
 28 29  2  0
 28 27  1  0
 29 30  1  0
 30 31  2  0
 32 34  1  0
 33 32  2  0
M  END
$$$$
