YHF.pdb
     RDKit          3D

 34 36  0  0  1  0  0  0  0  0999 V2000
    8.2797  -13.0284   15.8897 O   0  0  0  0  0  0  0  0  0  0  0  0
    8.0017  -13.4192   17.1939 C   0  0  0  0  0  0  0  0  0  0  0  0
    7.1746  -12.6845   18.0140 C   0  0  0  0  0  0  0  0  0  0  0  0
    6.8786  -13.0432   19.3100 C   0  0  0  0  0  0  0  0  0  0  0  0
    7.4261  -14.2005   19.8495 C   0  0  0  0  0  0  0  0  0  0  0  0
    7.1707  -14.6424   21.2204 C   0  0  0  0  0  0  0  0  0  0  0  0
    7.8796  -15.8915   21.6303 C   0  0  2  0  0  0  0  0  0  0  0  0
    7.5934  -16.8996   20.6174 N   0  0  0  0  0  0  0  0  0  0  0  0
    7.4220  -16.3113   22.9630 C   0  0  0  0  0  0  0  0  0  0  0  0
    6.4015  -15.7467   23.4540 O   0  0  0  0  0  0  0  0  0  0  0  0
    8.2549  -14.9407   19.0345 C   0  0  0  0  0  0  0  0  0  0  0  0
    8.5395  -14.5659   17.7400 C   0  0  0  0  0  0  0  0  0  0  0  0
    8.0310  -17.2972   23.7431 N   0  0  0  0  0  0  0  0  0  0  0  0
    7.5561  -17.6995   25.0898 C   0  0  1  0  0  0  0  0  0  0  0  0
    7.6402  -19.1768   25.0937 C   0  0  0  0  0  0  0  0  0  0  0  0
    6.7176  -19.9164   24.2384 C   0  0  0  0  0  0  0  0  0  0  0  0
    5.7539  -19.5683   23.3531 C   0  0  0  0  0  0  0  0  0  0  0  0
    5.2542  -20.7146   22.8182 N   0  0  0  0  0  0  0  0  0  0  0  0
    5.8958  -21.7616   23.3595 C   0  0  0  0  0  0  0  0  0  0  0  0
    6.7790  -21.2832   24.2161 N   0  0  0  0  0  0  0  0  0  0  0  0
    8.6020  -17.1623   25.9930 C   0  0  0  0  0  0  0  0  0  0  0  0
    9.7597  -17.0048   25.5849 O   0  0  0  0  0  0  0  0  0  0  0  0
    8.3114  -16.8210   27.3240 N   0  0  0  0  0  0  0  0  0  0  0  0
    9.3833  -16.3334   28.1913 C   0  0  1  0  0  0  0  0  0  0  0  0
    8.9290  -15.0478   28.8538 C   0  0  0  0  0  0  0  0  0  0  0  0
    8.5171  -14.0264   27.8876 C   0  0  0  0  0  0  0  0  0  0  0  0
    7.1747  -13.9050   27.5292 C   0  0  0  0  0  0  0  0  0  0  0  0
    6.7649  -12.9480   26.6354 C   0  0  0  0  0  0  0  0  0  0  0  0
    7.6796  -12.0921   26.0792 C   0  0  0  0  0  0  0  0  0  0  0  0
    9.0000  -12.1911   26.4144 C   0  0  0  0  0  0  0  0  0  0  0  0
    9.4007  -13.1507   27.3088 C   0  0  0  0  0  0  0  0  0  0  0  0
    9.8240  -17.3585   29.1387 C   0  0  0  0  0  0  0  0  0  0  0  0
    9.1588  -18.4154   29.2601 O   0  0  0  0  0  0  0  0  0  0  0  0
   10.9621  -17.2341   29.9341 O   0  0  0  0  0  0  0  0  0  0  0  0
  2  1  1  0
  3  2  2  0
  4  3  1  0
  5 11  1  0
  5  4  2  0
  6  5  1  0
  7  6  1  0
  7  8  1  6
  9  7  1  0
  9 13  1  0
 10  9  2  0
 11 12  2  0
 12  2  1  0
 14 15  1  6
 14 13  1  0
 14 21  1  0
 16 15  1  0
 17 16  2  0
 18 17  1  0
 19 18  1  0
 19 20  2  0
 20 16  1  0
 21 22  2  0
 23 21  1  0
 23 24  1  0
 24 32  1  0
 24 25  1  1
 26 31  1  0
 26 25  1  0
 27 26  2  0
 28 29  2  0
 28 27  1  0
 29 30  1  0
 30 31  2  0
 32 34  1  0
 33 32  2  0
M  END
$$$$
