YHF.pdb
     RDKit          3D

 34 36  0  0  1  0  0  0  0  0999 V2000
    9.1557  -13.8802   15.5845 O   0  0  0  0  0  0  0  0  0  0  0  0
    8.4451  -14.0395   16.7681 C   0  0  0  0  0  0  0  0  0  0  0  0
    7.7582  -15.1980   17.0551 C   0  0  0  0  0  0  0  0  0  0  0  0
    7.0449  -15.3882   18.2173 C   0  0  0  0  0  0  0  0  0  0  0  0
    6.9949  -14.3794   19.1711 C   0  0  0  0  0  0  0  0  0  0  0  0
    6.2494  -14.4995   20.4241 C   0  0  0  0  0  0  0  0  0  0  0  0
    7.0263  -14.1865   21.6608 C   0  0  2  0  0  0  0  0  0  0  0  0
    8.0605  -13.2298   21.2875 N   0  0  0  0  0  0  0  0  0  0  0  0
    7.5996  -15.4211   22.2165 C   0  0  0  0  0  0  0  0  0  0  0  0
    6.8216  -16.3889   22.4603 O   0  0  0  0  0  0  0  0  0  0  0  0
    7.6800  -13.2171   18.8906 C   0  0  0  0  0  0  0  0  0  0  0  0
    8.3885  -13.0449   17.7219 C   0  0  0  0  0  0  0  0  0  0  0  0
    8.9532  -15.6158   22.5016 N   0  0  0  0  0  0  0  0  0  0  0  0
    9.4891  -16.8071   23.2050 C   0  0  1  0  0  0  0  0  0  0  0  0
   10.7379  -17.1404   22.4846 C   0  0  0  0  0  0  0  0  0  0  0  0
   10.6399  -17.9951   21.3058 C   0  0  0  0  0  0  0  0  0  0  0  0
    9.6376  -18.6836   20.7102 C   0  0  0  0  0  0  0  0  0  0  0  0
   10.1484  -19.2693   19.5940 N   0  0  0  0  0  0  0  0  0  0  0  0
   11.4481  -18.9511   19.4932 C   0  0  0  0  0  0  0  0  0  0  0  0
   11.7472  -18.1826   20.5240 N   0  0  0  0  0  0  0  0  0  0  0  0
    9.8408  -16.2800   24.5454 C   0  0  0  0  0  0  0  0  0  0  0  0
   10.5071  -15.2428   24.6543 O   0  0  0  0  0  0  0  0  0  0  0  0
    9.4322  -16.9368   25.7177 N   0  0  0  0  0  0  0  0  0  0  0  0
    9.7311  -16.3382   27.0182 C   0  0  1  0  0  0  0  0  0  0  0  0
    8.4334  -15.8835   27.6565 C   0  0  0  0  0  0  0  0  0  0  0  0
    7.9367  -14.6239   27.0971 C   0  0  0  0  0  0  0  0  0  0  0  0
    6.7015  -14.5858   26.4506 C   0  0  0  0  0  0  0  0  0  0  0  0
    6.2115  -13.4148   25.9297 C   0  0  0  0  0  0  0  0  0  0  0  0
    6.9379  -12.2577   26.0400 C   0  0  0  0  0  0  0  0  0  0  0  0
    8.1504  -12.2696   26.6689 C   0  0  0  0  0  0  0  0  0  0  0  0
    8.6325  -13.4447   27.1867 C   0  0  0  0  0  0  0  0  0  0  0  0
   10.5172  -17.2389   27.8628 C   0  0  0  0  0  0  0  0  0  0  0  0
   10.6323  -18.4460   27.5403 O   0  0  0  0  0  0  0  0  0  0  0  0
   11.1618  -16.8333   29.0304 O   0  0  0  0  0  0  0  0  0  0  0  0
  2  1  1  0
  3  2  2  0
  4  3  1  0
  5 11  1  0
  5  4  2  0
  6  5  1  0
  7  6  1  0
  7  8  1  6
  9  7  1  0
  9 13  1  0
 10  9  2  0
 11 12  2  0
 12  2  1  0
 14 15  1  6
 14 13  1  0
 14 21  1  0
 16 15  1  0
 17 16  2  0
 18 17  1  0
 19 18  1  0
 19 20  2  0
 20 16  1  0
 21 22  2  0
 23 21  1  0
 23 24  1  0
 24 32  1  0
 24 25  1  1
 26 31  1  0
 26 25  1  0
 27 26  2  0
 28 29  2  0
 28 27  1  0
 29 30  1  0
 30 31  2  0
 32 34  1  0
 33 32  2  0
M  END
$$$$
