YHF.pdb
     RDKit          3D

 34 36  0  0  1  0  0  0  0  0999 V2000
    3.5674  -24.1063   24.5234 O   0  0  0  0  0  0  0  0  0  0  0  0
    4.2369  -22.9001   24.3568 C   0  0  0  0  0  0  0  0  0  0  0  0
    5.4287  -22.6344   24.9936 C   0  0  0  0  0  0  0  0  0  0  0  0
    6.1173  -21.4507   24.8504 C   0  0  0  0  0  0  0  0  0  0  0  0
    5.6115  -20.4513   24.0284 C   0  0  0  0  0  0  0  0  0  0  0  0
    6.2762  -19.1628   23.8342 C   0  0  0  0  0  0  0  0  0  0  0  0
    6.6164  -18.8277   22.4190 C   0  0  2  0  0  0  0  0  0  0  0  0
    6.8781  -20.0856   21.7310 N   0  0  0  0  0  0  0  0  0  0  0  0
    7.7828  -17.9332   22.3838 C   0  0  0  0  0  0  0  0  0  0  0  0
    8.9255  -18.4422   22.1932 O   0  0  0  0  0  0  0  0  0  0  0  0
    4.4191  -20.7103   23.3881 C   0  0  0  0  0  0  0  0  0  0  0  0
    3.7443  -21.9010   23.5436 C   0  0  0  0  0  0  0  0  0  0  0  0
    7.7316  -16.5467   22.5461 N   0  0  0  0  0  0  0  0  0  0  0  0
    8.9220  -15.6624   22.5015 C   0  0  1  0  0  0  0  0  0  0  0  0
    8.4258  -14.3900   21.9321 C   0  0  0  0  0  0  0  0  0  0  0  0
    8.2100  -14.3244   20.4902 C   0  0  0  0  0  0  0  0  0  0  0  0
    8.4061  -15.1794   19.4587 C   0  0  0  0  0  0  0  0  0  0  0  0
    7.9658  -14.5660   18.3275 N   0  0  0  0  0  0  0  0  0  0  0  0
    7.5014  -13.3482   18.6470 C   0  0  0  0  0  0  0  0  0  0  0  0
    7.6472  -13.1999   19.9506 N   0  0  0  0  0  0  0  0  0  0  0  0
    9.2400  -15.4491   23.9339 C   0  0  0  0  0  0  0  0  0  0  0  0
   10.1778  -14.7118   24.2631 O   0  0  0  0  0  0  0  0  0  0  0  0
    8.4936  -16.0723   24.9474 N   0  0  0  0  0  0  0  0  0  0  0  0
    8.9065  -15.9183   26.3420 C   0  0  1  0  0  0  0  0  0  0  0  0
    7.7412  -15.3645   27.1381 C   0  0  0  0  0  0  0  0  0  0  0  0
    7.4545  -13.9627   26.8239 C   0  0  0  0  0  0  0  0  0  0  0  0
    8.4059  -12.9783   27.0907 C   0  0  0  0  0  0  0  0  0  0  0  0
    8.1633  -11.6609   26.7938 C   0  0  0  0  0  0  0  0  0  0  0  0
    6.9711  -11.2939   26.2258 C   0  0  0  0  0  0  0  0  0  0  0  0
    6.0235  -12.2395   25.9549 C   0  0  0  0  0  0  0  0  0  0  0  0
    6.2745  -13.5542   26.2551 C   0  0  0  0  0  0  0  0  0  0  0  0
    9.4522  -17.1622   26.8873 C   0  0  0  0  0  0  0  0  0  0  0  0
    9.8056  -17.2075   28.0904 O   0  0  0  0  0  0  0  0  0  0  0  0
    9.6085  -18.3280   26.1392 O   0  0  0  0  0  0  0  0  0  0  0  0
  2  1  1  0
  3  2  2  0
  4  3  1  0
  5 11  1  0
  5  4  2  0
  6  5  1  0
  7  6  1  0
  7  8  1  6
  9  7  1  0
  9 13  1  0
 10  9  2  0
 11 12  2  0
 12  2  1  0
 14 15  1  1
 14 13  1  0
 14 21  1  0
 16 15  1  0
 17 16  2  0
 18 17  1  0
 19 18  1  0
 19 20  2  0
 20 16  1  0
 21 22  2  0
 23 21  1  0
 23 24  1  0
 24 32  1  0
 24 25  1  1
 26 31  1  0
 26 25  1  0
 27 26  2  0
 28 29  2  0
 28 27  1  0
 29 30  1  0
 30 31  2  0
 32 34  1  0
 33 32  2  0
M  END
$$$$
