YHF.pdb
     RDKit          3D

 34 36  0  0  1  0  0  0  0  0999 V2000
    8.3277  -11.6921   17.4679 O   0  0  0  0  0  0  0  0  0  0  0  0
    8.1543  -12.5286   18.5639 C   0  0  0  0  0  0  0  0  0  0  0  0
    6.9181  -12.7355   19.1342 C   0  0  0  0  0  0  0  0  0  0  0  0
    6.7118  -13.5572   20.2196 C   0  0  0  0  0  0  0  0  0  0  0  0
    7.7849  -14.2274   20.7935 C   0  0  0  0  0  0  0  0  0  0  0  0
    7.6500  -15.1070   21.9546 C   0  0  0  0  0  0  0  0  0  0  0  0
    8.2844  -16.4517   21.8129 C   0  0  2  0  0  0  0  0  0  0  0  0
    7.6317  -17.1185   20.6932 N   0  0  0  0  0  0  0  0  0  0  0  0
    8.1329  -17.2100   23.0634 C   0  0  0  0  0  0  0  0  0  0  0  0
    7.1662  -18.0206   23.1619 O   0  0  0  0  0  0  0  0  0  0  0  0
    9.0251  -14.0250   20.2280 C   0  0  0  0  0  0  0  0  0  0  0  0
    9.2121  -13.1989   19.1418 C   0  0  0  0  0  0  0  0  0  0  0  0
    8.9815  -17.1070   24.1681 N   0  0  0  0  0  0  0  0  0  0  0  0
    8.8651  -17.9489   25.3842 C   0  0  1  0  0  0  0  0  0  0  0  0
    9.1446  -19.3253   24.9184 C   0  0  0  0  0  0  0  0  0  0  0  0
   10.1726  -19.5063   23.8985 C   0  0  0  0  0  0  0  0  0  0  0  0
   11.0088  -18.6755   23.2321 C   0  0  0  0  0  0  0  0  0  0  0  0
   11.7884  -19.4408   22.4219 N   0  0  0  0  0  0  0  0  0  0  0  0
   11.4458  -20.7286   22.5802 C   0  0  0  0  0  0  0  0  0  0  0  0
   10.4718  -20.7711   23.4703 N   0  0  0  0  0  0  0  0  0  0  0  0
    9.9993  -17.4923   26.2229 C   0  0  0  0  0  0  0  0  0  0  0  0
   10.7265  -18.3156   26.7930 O   0  0  0  0  0  0  0  0  0  0  0  0
   10.2772  -16.1261   26.3927 N   0  0  0  0  0  0  0  0  0  0  0  0
   10.3047  -15.5606   27.7412 C   0  0  1  0  0  0  0  0  0  0  0  0
    8.8800  -15.3106   28.1952 C   0  0  0  0  0  0  0  0  0  0  0  0
    8.2617  -14.1670   27.5199 C   0  0  0  0  0  0  0  0  0  0  0  0
    9.0429  -13.0784   27.1328 C   0  0  0  0  0  0  0  0  0  0  0  0
    8.4869  -12.0020   26.4887 C   0  0  0  0  0  0  0  0  0  0  0  0
    7.1439  -11.9845   26.2157 C   0  0  0  0  0  0  0  0  0  0  0  0
    6.3578  -13.0389   26.5847 C   0  0  0  0  0  0  0  0  0  0  0  0
    6.9221  -14.1107   27.2282 C   0  0  0  0  0  0  0  0  0  0  0  0
   11.0775  -16.3936   28.6639 C   0  0  0  0  0  0  0  0  0  0  0  0
   11.4012  -15.9365   29.7867 O   0  0  0  0  0  0  0  0  0  0  0  0
   11.4874  -17.6931   28.3694 O   0  0  0  0  0  0  0  0  0  0  0  0
  2  1  1  0
  3  2  2  0
  4  3  1  0
  5 11  1  0
  5  4  2  0
  6  5  1  0
  7  6  1  0
  7  8  1  6
  9  7  1  0
  9 13  1  0
 10  9  2  0
 11 12  2  0
 12  2  1  0
 14 15  1  6
 14 13  1  0
 14 21  1  0
 16 15  1  0
 17 16  2  0
 18 17  1  0
 19 18  1  0
 19 20  2  0
 20 16  1  0
 21 22  2  0
 23 21  1  0
 23 24  1  0
 24 32  1  0
 24 25  1  1
 26 31  1  0
 26 25  1  0
 27 26  2  0
 28 29  2  0
 28 27  1  0
 29 30  1  0
 30 31  2  0
 32 34  1  0
 33 32  2  0
M  END
$$$$
