YHF.pdb
     RDKit          3D

 34 36  0  0  1  0  0  0  0  0999 V2000
    8.5264  -11.9013   17.2912 O   0  0  0  0  0  0  0  0  0  0  0  0
    8.2302  -12.6939   18.3935 C   0  0  0  0  0  0  0  0  0  0  0  0
    8.2513  -14.0694   18.3286 C   0  0  0  0  0  0  0  0  0  0  0  0
    7.9633  -14.8835   19.4010 C   0  0  0  0  0  0  0  0  0  0  0  0
    7.6302  -14.3207   20.6267 C   0  0  0  0  0  0  0  0  0  0  0  0
    7.2993  -15.1165   21.8087 C   0  0  0  0  0  0  0  0  0  0  0  0
    7.2959  -16.5956   21.6011 C   0  0  2  0  0  0  0  0  0  0  0  0
    5.9854  -16.9519   21.0719 N   0  0  0  0  0  0  0  0  0  0  0  0
    7.5756  -17.2793   22.8724 C   0  0  0  0  0  0  0  0  0  0  0  0
    6.6091  -17.5121   23.6553 O   0  0  0  0  0  0  0  0  0  0  0  0
    7.6069  -12.9448   20.6990 C   0  0  0  0  0  0  0  0  0  0  0  0
    7.8982  -12.1464   19.6150 C   0  0  0  0  0  0  0  0  0  0  0  0
    8.8399  -17.6990   23.2926 N   0  0  0  0  0  0  0  0  0  0  0  0
    9.0992  -18.3856   24.5820 C   0  0  1  0  0  0  0  0  0  0  0  0
    9.8220  -19.6226   24.2120 C   0  0  0  0  0  0  0  0  0  0  0  0
    9.0408  -20.7434   23.6989 C   0  0  0  0  0  0  0  0  0  0  0  0
    7.7214  -20.9700   23.4959 C   0  0  0  0  0  0  0  0  0  0  0  0
    7.5975  -22.2055   22.9409 N   0  0  0  0  0  0  0  0  0  0  0  0
    8.8194  -22.7417   22.7985 C   0  0  0  0  0  0  0  0  0  0  0  0
    9.6917  -21.8621   23.2546 N   0  0  0  0  0  0  0  0  0  0  0  0
   10.0433  -17.4719   25.2691 C   0  0  0  0  0  0  0  0  0  0  0  0
   11.0603  -17.0717   24.6885 O   0  0  0  0  0  0  0  0  0  0  0  0
    9.8126  -17.0397   26.5853 N   0  0  0  0  0  0  0  0  0  0  0  0
   10.8140  -16.2108   27.2555 C   0  0  1  0  0  0  0  0  0  0  0  0
   10.7913  -14.8250   26.6414 C   0  0  0  0  0  0  0  0  0  0  0  0
    9.4909  -14.1646   26.7790 C   0  0  0  0  0  0  0  0  0  0  0  0
    9.2985  -13.2001   27.7680 C   0  0  0  0  0  0  0  0  0  0  0  0
    8.0927  -12.5604   27.9073 C   0  0  0  0  0  0  0  0  0  0  0  0
    7.0532  -12.8654   27.0676 C   0  0  0  0  0  0  0  0  0  0  0  0
    7.2170  -13.8064   26.0912 C   0  0  0  0  0  0  0  0  0  0  0  0
    8.4259  -14.4408   25.9591 C   0  0  0  0  0  0  0  0  0  0  0  0
   10.6362  -16.2126   28.7084 C   0  0  0  0  0  0  0  0  0  0  0  0
   11.4525  -15.5926   29.4321 O   0  0  0  0  0  0  0  0  0  0  0  0
    9.5940  -16.8740   29.3562 O   0  0  0  0  0  0  0  0  0  0  0  0
  2  1  1  0
  3  2  2  0
  4  3  1  0
  5 11  1  0
  5  4  2  0
  6  5  1  0
  7  6  1  0
  7  8  1  1
  9  7  1  0
  9 13  1  0
 10  9  2  0
 11 12  2  0
 12  2  1  0
 14 15  1  6
 14 13  1  0
 14 21  1  0
 16 15  1  0
 17 16  2  0
 18 17  1  0
 19 18  1  0
 19 20  2  0
 20 16  1  0
 21 22  2  0
 23 21  1  0
 23 24  1  0
 24 32  1  0
 24 25  1  6
 26 31  1  0
 26 25  1  0
 27 26  2  0
 28 29  2  0
 28 27  1  0
 29 30  1  0
 30 31  2  0
 32 34  1  0
 33 32  2  0
M  END
$$$$
