YHF.pdb
     RDKit          3D

 34 36  0  0  1  0  0  0  0  0999 V2000
    7.6412  -13.5805   15.1773 O   0  0  0  0  0  0  0  0  0  0  0  0
    7.4643  -13.9078   16.5161 C   0  0  0  0  0  0  0  0  0  0  0  0
    6.7627  -15.0269   16.9059 C   0  0  0  0  0  0  0  0  0  0  0  0
    6.5691  -15.3798   18.2227 C   0  0  0  0  0  0  0  0  0  0  0  0
    7.0955  -14.5879   19.2355 C   0  0  0  0  0  0  0  0  0  0  0  0
    6.9229  -14.8879   20.6569 C   0  0  0  0  0  0  0  0  0  0  0  0
    8.1827  -15.1785   21.4048 C   0  0  2  0  0  0  0  0  0  0  0  0
    8.9629  -16.1009   20.5895 N   0  0  0  0  0  0  0  0  0  0  0  0
    7.8618  -15.7503   22.7208 C   0  0  0  0  0  0  0  0  0  0  0  0
    7.0630  -15.1191   23.4722 O   0  0  0  0  0  0  0  0  0  0  0  0
    7.7987  -13.4663   18.8528 C   0  0  0  0  0  0  0  0  0  0  0  0
    7.9822  -13.1292   17.5299 C   0  0  0  0  0  0  0  0  0  0  0  0
    8.3745  -16.9514   23.2166 N   0  0  0  0  0  0  0  0  0  0  0  0
    8.0417  -17.5064   24.5517 C   0  0  1  0  0  0  0  0  0  0  0  0
    8.0714  -18.9744   24.3681 C   0  0  0  0  0  0  0  0  0  0  0  0
    7.0004  -19.5877   23.5893 C   0  0  0  0  0  0  0  0  0  0  0  0
    5.7185  -19.2554   23.3071 C   0  0  0  0  0  0  0  0  0  0  0  0
    5.2199  -20.2103   22.4767 N   0  0  0  0  0  0  0  0  0  0  0  0
    6.1749  -21.1236   22.2431 C   0  0  0  0  0  0  0  0  0  0  0  0
    7.2498  -20.7506   22.9126 N   0  0  0  0  0  0  0  0  0  0  0  0
    9.2029  -17.1087   25.3835 C   0  0  0  0  0  0  0  0  0  0  0  0
   10.3321  -17.0291   24.8834 O   0  0  0  0  0  0  0  0  0  0  0  0
    9.0555  -16.8146   26.7489 N   0  0  0  0  0  0  0  0  0  0  0  0
   10.1961  -16.2883   27.4979 C   0  0  1  0  0  0  0  0  0  0  0  0
   10.4275  -14.8476   27.0869 C   0  0  0  0  0  0  0  0  0  0  0  0
    9.2107  -14.0348   27.1578 C   0  0  0  0  0  0  0  0  0  0  0  0
    8.9300  -13.2963   28.3071 C   0  0  0  0  0  0  0  0  0  0  0  0
    7.8024  -12.5191   28.3908 C   0  0  0  0  0  0  0  0  0  0  0  0
    6.9304  -12.4592   27.3350 C   0  0  0  0  0  0  0  0  0  0  0  0
    7.1834  -13.1734   26.1985 C   0  0  0  0  0  0  0  0  0  0  0  0
    8.3131  -13.9477   26.1236 C   0  0  0  0  0  0  0  0  0  0  0  0
   10.0277  -16.4678   28.9408 C   0  0  0  0  0  0  0  0  0  0  0  0
   10.9199  -16.0599   29.7231 O   0  0  0  0  0  0  0  0  0  0  0  0
    8.9138  -17.0769   29.5165 O   0  0  0  0  0  0  0  0  0  0  0  0
  2  1  1  0
  3  2  2  0
  4  3  1  0
  5 11  1  0
  5  4  2  0
  6  5  1  0
  7  6  1  0
  7  8  1  6
  9  7  1  0
  9 13  1  0
 10  9  2  0
 11 12  2  0
 12  2  1  0
 14 15  1  6
 14 13  1  0
 14 21  1  0
 16 15  1  0
 17 16  2  0
 18 17  1  0
 19 18  1  0
 19 20  2  0
 20 16  1  0
 21 22  2  0
 23 21  1  0
 23 24  1  0
 24 32  1  0
 24 25  1  1
 26 31  1  0
 26 25  1  0
 27 26  2  0
 28 29  2  0
 28 27  1  0
 29 30  1  0
 30 31  2  0
 32 34  1  0
 33 32  2  0
M  END
$$$$
