YHF.pdb
     RDKit          3D

 34 36  0  0  1  0  0  0  0  0999 V2000
    8.4023  -13.2430   15.5323 O   0  0  0  0  0  0  0  0  0  0  0  0
    8.0957  -13.6690   16.8190 C   0  0  0  0  0  0  0  0  0  0  0  0
    7.5463  -12.8218   17.7554 C   0  0  0  0  0  0  0  0  0  0  0  0
    7.2308  -13.2115   19.0378 C   0  0  0  0  0  0  0  0  0  0  0  0
    7.4661  -14.5201   19.4406 C   0  0  0  0  0  0  0  0  0  0  0  0
    7.1705  -15.0076   20.7878 C   0  0  0  0  0  0  0  0  0  0  0  0
    7.4648  -16.4531   21.0217 C   0  0  2  0  0  0  0  0  0  0  0  0
    6.6704  -17.2132   20.0649 N   0  0  0  0  0  0  0  0  0  0  0  0
    7.1377  -16.8114   22.4097 C   0  0  0  0  0  0  0  0  0  0  0  0
    6.3255  -16.0777   23.0447 O   0  0  0  0  0  0  0  0  0  0  0  0
    8.0158  -15.3735   18.5087 C   0  0  0  0  0  0  0  0  0  0  0  0
    8.3249  -14.9655   17.2299 C   0  0  0  0  0  0  0  0  0  0  0  0
    7.6580  -17.9120   23.0946 N   0  0  0  0  0  0  0  0  0  0  0  0
    7.3472  -18.2302   24.5100 C   0  0  1  0  0  0  0  0  0  0  0  0
    7.2544  -19.7063   24.5533 C   0  0  0  0  0  0  0  0  0  0  0  0
    6.0965  -20.3372   23.9279 C   0  0  0  0  0  0  0  0  0  0  0  0
    5.0176  -19.8835   23.2470 C   0  0  0  0  0  0  0  0  0  0  0  0
    4.2899  -20.9661   22.8620 N   0  0  0  0  0  0  0  0  0  0  0  0
    4.9045  -22.0779   23.2943 C   0  0  0  0  0  0  0  0  0  0  0  0
    5.9943  -21.7017   23.9372 N   0  0  0  0  0  0  0  0  0  0  0  0
    8.5739  -17.8106   25.2293 C   0  0  0  0  0  0  0  0  0  0  0  0
    9.6909  -18.0636   24.7606 O   0  0  0  0  0  0  0  0  0  0  0  0
    8.5034  -17.1216   26.4511 N   0  0  0  0  0  0  0  0  0  0  0  0
    9.7352  -16.6463   27.0802 C   0  0  1  0  0  0  0  0  0  0  0  0
    9.9899  -15.2186   26.6386 C   0  0  0  0  0  0  0  0  0  0  0  0
    8.8384  -14.3412   26.8631 C   0  0  0  0  0  0  0  0  0  0  0  0
    7.8063  -14.2897   25.9265 C   0  0  0  0  0  0  0  0  0  0  0  0
    6.7130  -13.4840   26.1220 C   0  0  0  0  0  0  0  0  0  0  0  0
    6.6221  -12.7130   27.2516 C   0  0  0  0  0  0  0  0  0  0  0  0
    7.6201  -12.7461   28.1836 C   0  0  0  0  0  0  0  0  0  0  0  0
    8.7094  -13.5545   27.9799 C   0  0  0  0  0  0  0  0  0  0  0  0
    9.7024  -16.8144   28.5340 C   0  0  0  0  0  0  0  0  0  0  0  0
   10.7081  -16.5009   29.2157 O   0  0  0  0  0  0  0  0  0  0  0  0
    8.6002  -17.3123   29.2272 O   0  0  0  0  0  0  0  0  0  0  0  0
  2  1  1  0
  3  2  2  0
  4  3  1  0
  5 11  1  0
  5  4  2  0
  6  5  1  0
  7  6  1  0
  7  8  1  6
  9  7  1  0
  9 13  1  0
 10  9  2  0
 11 12  2  0
 12  2  1  0
 14 15  1  6
 14 13  1  0
 14 21  1  0
 16 15  1  0
 17 16  2  0
 18 17  1  0
 19 18  1  0
 19 20  2  0
 20 16  1  0
 21 22  2  0
 23 21  1  0
 23 24  1  0
 24 32  1  0
 24 25  1  1
 26 31  1  0
 26 25  1  0
 27 26  2  0
 28 29  2  0
 28 27  1  0
 29 30  1  0
 30 31  2  0
 32 34  1  0
 33 32  2  0
M  END
$$$$
