YHF.pdb
     RDKit          3D

 34 36  0  0  1  0  0  0  0  0999 V2000
    8.6963  -13.0090   16.5249 O   0  0  0  0  0  0  0  0  0  0  0  0
    8.2448  -13.5673   17.7146 C   0  0  0  0  0  0  0  0  0  0  0  0
    8.2765  -14.9254   17.9403 C   0  0  0  0  0  0  0  0  0  0  0  0
    7.8374  -15.5106   19.1068 C   0  0  0  0  0  0  0  0  0  0  0  0
    7.3303  -14.7188   20.1294 C   0  0  0  0  0  0  0  0  0  0  0  0
    6.8330  -15.2649   21.3922 C   0  0  0  0  0  0  0  0  0  0  0  0
    6.8335  -16.7555   21.4864 C   0  0  2  0  0  0  0  0  0  0  0  0
    5.6675  -17.2324   20.7534 N   0  0  0  0  0  0  0  0  0  0  0  0
    6.7972  -17.1670   22.8975 C   0  0  0  0  0  0  0  0  0  0  0  0
    5.7096  -17.0427   23.5324 O   0  0  0  0  0  0  0  0  0  0  0  0
    7.2955  -13.3587   19.9106 C   0  0  0  0  0  0  0  0  0  0  0  0
    7.7394  -12.7912   18.7366 C   0  0  0  0  0  0  0  0  0  0  0  0
    7.8814  -17.6916   23.6050 N   0  0  0  0  0  0  0  0  0  0  0  0
    7.8318  -18.0665   25.0396 C   0  0  1  0  0  0  0  0  0  0  0  0
    8.0867  -19.5240   25.0577 C   0  0  0  0  0  0  0  0  0  0  0  0
    7.0257  -20.4095   24.5887 C   0  0  0  0  0  0  0  0  0  0  0  0
    5.7466  -20.2301   24.1825 C   0  0  0  0  0  0  0  0  0  0  0  0
    5.2591  -21.4447   23.8122 N   0  0  0  0  0  0  0  0  0  0  0  0
    6.2182  -22.3676   23.9833 C   0  0  0  0  0  0  0  0  0  0  0  0
    7.2847  -21.7461   24.4512 N   0  0  0  0  0  0  0  0  0  0  0  0
    9.0095  -17.3717   25.6128 C   0  0  0  0  0  0  0  0  0  0  0  0
   10.0373  -17.2243   24.9395 O   0  0  0  0  0  0  0  0  0  0  0  0
    8.9920  -16.8667   26.9232 N   0  0  0  0  0  0  0  0  0  0  0  0
   10.2071  -16.2740   27.4812 C   0  0  1  0  0  0  0  0  0  0  0  0
   10.4508  -14.9366   26.8103 C   0  0  0  0  0  0  0  0  0  0  0  0
    9.3073  -14.0280   26.9238 C   0  0  0  0  0  0  0  0  0  0  0  0
    9.3154  -13.0108   27.8781 C   0  0  0  0  0  0  0  0  0  0  0  0
    8.2604  -12.1413   27.9942 C   0  0  0  0  0  0  0  0  0  0  0  0
    7.1758  -12.2639   27.1652 C   0  0  0  0  0  0  0  0  0  0  0  0
    7.1443  -13.2519   26.2227 C   0  0  0  0  0  0  0  0  0  0  0  0
    8.2034  -14.1168   26.1136 C   0  0  0  0  0  0  0  0  0  0  0  0
   10.1525  -16.1971   28.9419 C   0  0  0  0  0  0  0  0  0  0  0  0
    9.1201  -16.5803   29.5433 O   0  0  0  0  0  0  0  0  0  0  0  0
   11.1980  -15.7143   29.7275 O   0  0  0  0  0  0  0  0  0  0  0  0
  2  1  1  0
  3  2  2  0
  4  3  1  0
  5 11  1  0
  5  4  2  0
  6  5  1  0
  7  6  1  0
  7  8  1  6
  9  7  1  0
  9 13  1  0
 10  9  2  0
 11 12  2  0
 12  2  1  0
 14 15  1  6
 14 13  1  0
 14 21  1  0
 16 15  1  0
 17 16  2  0
 18 17  1  0
 19 18  1  0
 19 20  2  0
 20 16  1  0
 21 22  2  0
 23 21  1  0
 23 24  1  0
 24 32  1  0
 24 25  1  6
 26 31  1  0
 26 25  1  0
 27 26  2  0
 28 29  2  0
 28 27  1  0
 29 30  1  0
 30 31  2  0
 32 34  1  0
 33 32  2  0
M  END
$$$$
