YHF.pdb
     RDKit          3D

 34 36  0  0  1  0  0  0  0  0999 V2000
    7.3506  -11.8334   18.0475 O   0  0  0  0  0  0  0  0  0  0  0  0
    7.7295  -12.7720   18.9996 C   0  0  0  0  0  0  0  0  0  0  0  0
    7.5020  -12.5787   20.3440 C   0  0  0  0  0  0  0  0  0  0  0  0
    7.8644  -13.4877   21.3126 C   0  0  0  0  0  0  0  0  0  0  0  0
    8.4941  -14.6715   20.9491 C   0  0  0  0  0  0  0  0  0  0  0  0
    8.9209  -15.6807   21.9184 C   0  0  0  0  0  0  0  0  0  0  0  0
    9.4899  -16.9299   21.3297 C   0  0  2  0  0  0  0  0  0  0  0  0
    8.4129  -17.5919   20.6043 N   0  0  0  0  0  0  0  0  0  0  0  0
   10.0340  -17.7824   22.3969 C   0  0  0  0  0  0  0  0  0  0  0  0
    9.3036  -18.7062   22.8599 O   0  0  0  0  0  0  0  0  0  0  0  0
    8.7251  -14.8716   19.6054 C   0  0  0  0  0  0  0  0  0  0  0  0
    8.3552  -13.9505   18.6505 C   0  0  0  0  0  0  0  0  0  0  0  0
   11.3104  -17.6539   22.9495 N   0  0  0  0  0  0  0  0  0  0  0  0
   11.8428  -18.5329   24.0196 C   0  0  1  0  0  0  0  0  0  0  0  0
   13.1128  -19.0626   23.4757 C   0  0  0  0  0  0  0  0  0  0  0  0
   13.0404  -20.1540   22.5096 C   0  0  0  0  0  0  0  0  0  0  0  0
   12.1435  -21.1335   22.2457 C   0  0  0  0  0  0  0  0  0  0  0  0
   12.6063  -21.8373   21.1779 N   0  0  0  0  0  0  0  0  0  0  0  0
   13.7726  -21.3058   20.7804 C   0  0  0  0  0  0  0  0  0  0  0  0
   14.0367  -20.2904   21.5816 N   0  0  0  0  0  0  0  0  0  0  0  0
   12.1550  -17.5834   25.1147 C   0  0  0  0  0  0  0  0  0  0  0  0
   12.9244  -16.6342   24.9188 O   0  0  0  0  0  0  0  0  0  0  0  0
   11.5923  -17.7334   26.3928 N   0  0  0  0  0  0  0  0  0  0  0  0
   11.0712  -16.5587   27.0910 C   0  0  1  0  0  0  0  0  0  0  0  0
   10.2110  -15.7613   26.1307 C   0  0  0  0  0  0  0  0  0  0  0  0
    9.5374  -14.6318   26.7762 C   0  0  0  0  0  0  0  0  0  0  0  0
   10.1171  -14.0130   27.8836 C   0  0  0  0  0  0  0  0  0  0  0  0
    9.5097  -12.9462   28.4965 C   0  0  0  0  0  0  0  0  0  0  0  0
    8.3144  -12.4719   28.0224 C   0  0  0  0  0  0  0  0  0  0  0  0
    7.7268  -13.0610   26.9391 C   0  0  0  0  0  0  0  0  0  0  0  0
    8.3411  -14.1270   26.3326 C   0  0  0  0  0  0  0  0  0  0  0  0
   10.3839  -16.9242   28.3306 C   0  0  0  0  0  0  0  0  0  0  0  0
    9.4886  -17.8030   28.3054 O   0  0  0  0  0  0  0  0  0  0  0  0
   10.6658  -16.3457   29.5672 O   0  0  0  0  0  0  0  0  0  0  0  0
  2  1  1  0
  3  2  2  0
  4  3  1  0
  5 11  1  0
  5  4  2  0
  6  5  1  0
  7  6  1  0
  7  8  1  1
  9  7  1  0
  9 13  1  0
 10  9  2  0
 11 12  2  0
 12  2  1  0
 14 15  1  6
 14 13  1  0
 14 21  1  0
 16 15  1  0
 17 16  2  0
 18 17  1  0
 19 18  1  0
 19 20  2  0
 20 16  1  0
 21 22  2  0
 23 21  1  0
 23 24  1  0
 24 32  1  0
 24 25  1  6
 26 31  1  0
 26 25  1  0
 27 26  2  0
 28 29  2  0
 28 27  1  0
 29 30  1  0
 30 31  2  0
 32 34  1  0
 33 32  2  0
M  END
$$$$
