YHF.pdb
     RDKit          3D

 34 36  0  0  1  0  0  0  0  0999 V2000
    9.8401  -24.5007   19.9903 O   0  0  0  0  0  0  0  0  0  0  0  0
    9.8808  -23.1578   20.3451 C   0  0  0  0  0  0  0  0  0  0  0  0
    8.8254  -22.3074   20.1009 C   0  0  0  0  0  0  0  0  0  0  0  0
    8.8332  -20.9728   20.4394 C   0  0  0  0  0  0  0  0  0  0  0  0
    9.9477  -20.4233   21.0606 C   0  0  0  0  0  0  0  0  0  0  0  0
   10.0381  -19.0133   21.4397 C   0  0  0  0  0  0  0  0  0  0  0  0
    9.6514  -18.0405   20.3744 C   0  0  2  0  0  0  0  0  0  0  0  0
   10.4805  -18.3265   19.2103 N   0  0  0  0  0  0  0  0  0  0  0  0
    9.8455  -16.6659   20.8586 C   0  0  0  0  0  0  0  0  0  0  0  0
   10.9424  -16.0882   20.6048 O   0  0  0  0  0  0  0  0  0  0  0  0
   11.0077  -21.2684   21.3081 C   0  0  0  0  0  0  0  0  0  0  0  0
   10.9817  -22.6014   20.9622 C   0  0  0  0  0  0  0  0  0  0  0  0
    8.9040  -15.9348   21.5868 N   0  0  0  0  0  0  0  0  0  0  0  0
    9.0717  -14.5094   21.9627 C   0  0  1  0  0  0  0  0  0  0  0  0
    7.9155  -13.8190   21.3496 C   0  0  0  0  0  0  0  0  0  0  0  0
    7.9175  -13.6359   19.9018 C   0  0  0  0  0  0  0  0  0  0  0  0
    8.2439  -12.6171   19.0718 C   0  0  0  0  0  0  0  0  0  0  0  0
    8.0826  -13.0592   17.7957 N   0  0  0  0  0  0  0  0  0  0  0  0
    7.6634  -14.3336   17.8278 C   0  0  0  0  0  0  0  0  0  0  0  0
    7.5632  -14.6841   19.0966 N   0  0  0  0  0  0  0  0  0  0  0  0
    8.8907  -14.5230   23.4342 C   0  0  0  0  0  0  0  0  0  0  0  0
    8.4995  -13.5086   24.0254 O   0  0  0  0  0  0  0  0  0  0  0  0
    9.1560  -15.6759   24.1911 N   0  0  0  0  0  0  0  0  0  0  0  0
    8.8757  -15.6734   25.6266 C   0  0  1  0  0  0  0  0  0  0  0  0
    7.4051  -15.3707   25.8366 C   0  0  0  0  0  0  0  0  0  0  0  0
    7.1578  -13.9680   26.1792 C   0  0  0  0  0  0  0  0  0  0  0  0
    8.0036  -13.3068   27.0697 C   0  0  0  0  0  0  0  0  0  0  0  0
    7.7977  -11.9901   27.3956 C   0  0  0  0  0  0  0  0  0  0  0  0
    6.7478  -11.3028   26.8442 C   0  0  0  0  0  0  0  0  0  0  0  0
    5.9057  -11.9283   25.9695 C   0  0  0  0  0  0  0  0  0  0  0  0
    6.1190  -13.2449   25.6493 C   0  0  0  0  0  0  0  0  0  0  0  0
    9.3179  -16.9124   26.2684 C   0  0  0  0  0  0  0  0  0  0  0  0
    9.6978  -17.8750   25.5589 O   0  0  0  0  0  0  0  0  0  0  0  0
    9.3453  -17.0970   27.6499 O   0  0  0  0  0  0  0  0  0  0  0  0
  2  1  1  0
  3  2  2  0
  4  3  1  0
  5 11  1  0
  5  4  2  0
  6  5  1  0
  7  6  1  0
  7  8  1  6
  9  7  1  0
  9 13  1  0
 10  9  2  0
 11 12  2  0
 12  2  1  0
 14 15  1  6
 14 13  1  0
 14 21  1  0
 16 15  1  0
 17 16  2  0
 18 17  1  0
 19 18  1  0
 19 20  2  0
 20 16  1  0
 21 22  2  0
 23 21  1  0
 23 24  1  0
 24 32  1  0
 24 25  1  6
 26 31  1  0
 26 25  1  0
 27 26  2  0
 28 29  2  0
 28 27  1  0
 29 30  1  0
 30 31  2  0
 32 34  1  0
 33 32  2  0
M  END
$$$$
