YHF.pdb
     RDKit          3D

 34 36  0  0  1  0  0  0  0  0999 V2000
    8.0100  -13.3897   15.6997 O   0  0  0  0  0  0  0  0  0  0  0  0
    7.7017  -13.7837   16.9961 C   0  0  0  0  0  0  0  0  0  0  0  0
    7.0251  -14.9536   17.2606 C   0  0  0  0  0  0  0  0  0  0  0  0
    6.7042  -15.3730   18.5322 C   0  0  0  0  0  0  0  0  0  0  0  0
    7.0668  -14.5995   19.6277 C   0  0  0  0  0  0  0  0  0  0  0  0
    6.7519  -14.9695   21.0075 C   0  0  0  0  0  0  0  0  0  0  0  0
    7.9226  -15.0377   21.9325 C   0  0  2  0  0  0  0  0  0  0  0  0
    8.9835  -15.7489   21.2305 N   0  0  0  0  0  0  0  0  0  0  0  0
    7.5376  -15.7207   23.1763 C   0  0  0  0  0  0  0  0  0  0  0  0
    6.4575  -15.3793   23.7404 O   0  0  0  0  0  0  0  0  0  0  0  0
    7.7441  -13.4272   19.3706 C   0  0  0  0  0  0  0  0  0  0  0  0
    8.0565  -13.0239   18.0911 C   0  0  0  0  0  0  0  0  0  0  0  0
    8.2777  -16.7308   23.7952 N   0  0  0  0  0  0  0  0  0  0  0  0
    7.9070  -17.3563   25.0885 C   0  0  1  0  0  0  0  0  0  0  0  0
    8.1199  -18.8059   24.8811 C   0  0  0  0  0  0  0  0  0  0  0  0
    7.1419  -19.5325   24.0779 C   0  0  0  0  0  0  0  0  0  0  0  0
    5.9241  -19.2374   23.5647 C   0  0  0  0  0  0  0  0  0  0  0  0
    5.5065  -20.3174   22.8511 N   0  0  0  0  0  0  0  0  0  0  0  0
    6.4483  -21.2711   22.9164 C   0  0  0  0  0  0  0  0  0  0  0  0
    7.4357  -20.8004   23.6554 N   0  0  0  0  0  0  0  0  0  0  0  0
    8.9455  -16.8526   26.0191 C   0  0  0  0  0  0  0  0  0  0  0  0
   10.1117  -16.7031   25.6329 O   0  0  0  0  0  0  0  0  0  0  0  0
    8.6380  -16.5346   27.3521 N   0  0  0  0  0  0  0  0  0  0  0  0
    9.6952  -16.0452   28.2363 C   0  0  1  0  0  0  0  0  0  0  0  0
    9.1828  -14.8301   28.9843 C   0  0  0  0  0  0  0  0  0  0  0  0
    8.4973  -13.8739   28.1115 C   0  0  0  0  0  0  0  0  0  0  0  0
    9.2015  -13.2236   27.0983 C   0  0  0  0  0  0  0  0  0  0  0  0
    8.5770  -12.3333   26.2618 C   0  0  0  0  0  0  0  0  0  0  0  0
    7.2405  -12.0703   26.4141 C   0  0  0  0  0  0  0  0  0  0  0  0
    6.5291  -12.6946   27.3989 C   0  0  0  0  0  0  0  0  0  0  0  0
    7.1616  -13.5833   28.2306 C   0  0  0  0  0  0  0  0  0  0  0  0
   10.2039  -17.1024   29.1116 C   0  0  0  0  0  0  0  0  0  0  0  0
    9.6244  -18.2149   29.1389 O   0  0  0  0  0  0  0  0  0  0  0  0
   11.3171  -16.9501   29.9367 O   0  0  0  0  0  0  0  0  0  0  0  0
  2  1  1  0
  3  2  2  0
  4  3  1  0
  5 11  1  0
  5  4  2  0
  6  5  1  0
  7  6  1  0
  7  8  1  6
  9  7  1  0
  9 13  1  0
 10  9  2  0
 11 12  2  0
 12  2  1  0
 14 15  1  6
 14 13  1  0
 14 21  1  0
 16 15  1  0
 17 16  2  0
 18 17  1  0
 19 18  1  0
 19 20  2  0
 20 16  1  0
 21 22  2  0
 23 21  1  0
 23 24  1  0
 24 32  1  0
 24 25  1  1
 26 31  1  0
 26 25  1  0
 27 26  2  0
 28 29  2  0
 28 27  1  0
 29 30  1  0
 30 31  2  0
 32 34  1  0
 33 32  2  0
M  END
$$$$
