YHF.pdb
     RDKit          3D

 34 36  0  0  1  0  0  0  0  0999 V2000
    7.4632  -11.8638   17.2820 O   0  0  0  0  0  0  0  0  0  0  0  0
    7.8279  -12.7821   18.2591 C   0  0  0  0  0  0  0  0  0  0  0  0
    8.8888  -13.6437   18.0895 C   0  0  0  0  0  0  0  0  0  0  0  0
    9.2763  -14.5648   19.0366 C   0  0  0  0  0  0  0  0  0  0  0  0
    8.5828  -14.6561   20.2369 C   0  0  0  0  0  0  0  0  0  0  0  0
    8.9242  -15.6158   21.2869 C   0  0  0  0  0  0  0  0  0  0  0  0
    9.3714  -16.9567   20.8043 C   0  0  2  0  0  0  0  0  0  0  0  0
    8.2839  -17.5110   20.0079 N   0  0  0  0  0  0  0  0  0  0  0  0
    9.7014  -17.8159   21.9509 C   0  0  0  0  0  0  0  0  0  0  0  0
    8.7988  -18.5710   22.4160 O   0  0  0  0  0  0  0  0  0  0  0  0
    7.5199  -13.7971   20.4135 C   0  0  0  0  0  0  0  0  0  0  0  0
    7.1468  -12.8818   19.4542 C   0  0  0  0  0  0  0  0  0  0  0  0
   10.9485  -17.8673   22.5781 N   0  0  0  0  0  0  0  0  0  0  0  0
   11.2835  -18.8006   23.6817 C   0  0  1  0  0  0  0  0  0  0  0  0
   12.4260  -19.5916   23.1731 C   0  0  0  0  0  0  0  0  0  0  0  0
   12.1395  -20.7118   22.2826 C   0  0  0  0  0  0  0  0  0  0  0  0
   11.0100  -21.2575   21.7728 C   0  0  0  0  0  0  0  0  0  0  0  0
   11.3807  -22.2754   20.9505 N   0  0  0  0  0  0  0  0  0  0  0  0
   12.7197  -22.3637   20.9458 C   0  0  0  0  0  0  0  0  0  0  0  0
   13.1800  -21.4218   21.7481 N   0  0  0  0  0  0  0  0  0  0  0  0
   11.7704  -17.8985   24.7529 C   0  0  0  0  0  0  0  0  0  0  0  0
   12.4911  -16.9313   24.4762 O   0  0  0  0  0  0  0  0  0  0  0  0
   11.4312  -18.1146   26.0986 N   0  0  0  0  0  0  0  0  0  0  0  0
   11.0873  -16.9728   26.9453 C   0  0  1  0  0  0  0  0  0  0  0  0
   10.0543  -16.1263   26.2279 C   0  0  0  0  0  0  0  0  0  0  0  0
    9.5804  -15.0016   27.0382 C   0  0  0  0  0  0  0  0  0  0  0  0
   10.4606  -14.3346   27.8900 C   0  0  0  0  0  0  0  0  0  0  0  0
   10.0413  -13.2714   28.6491 C   0  0  0  0  0  0  0  0  0  0  0  0
    8.7394  -12.8486   28.5780 C   0  0  0  0  0  0  0  0  0  0  0  0
    7.8583  -13.4856   27.7512 C   0  0  0  0  0  0  0  0  0  0  0  0
    8.2862  -14.5476   26.9959 C   0  0  0  0  0  0  0  0  0  0  0  0
   10.6735  -17.3948   28.2844 C   0  0  0  0  0  0  0  0  0  0  0  0
    9.7809  -18.2676   28.4096 O   0  0  0  0  0  0  0  0  0  0  0  0
   11.2197  -16.8777   29.4581 O   0  0  0  0  0  0  0  0  0  0  0  0
  2  1  1  0
  3  2  2  0
  4  3  1  0
  5 11  1  0
  5  4  2  0
  6  5  1  0
  7  6  1  0
  7  8  1  1
  9  7  1  0
  9 13  1  0
 10  9  2  0
 11 12  2  0
 12  2  1  0
 14 15  1  6
 14 13  1  0
 14 21  1  0
 16 15  1  0
 17 16  2  0
 18 17  1  0
 19 18  1  0
 19 20  2  0
 20 16  1  0
 21 22  2  0
 23 21  1  0
 23 24  1  0
 24 32  1  0
 24 25  1  6
 26 31  1  0
 26 25  1  0
 27 26  2  0
 28 29  2  0
 28 27  1  0
 29 30  1  0
 30 31  2  0
 32 34  1  0
 33 32  2  0
M  END
$$$$
