YHF.pdb
     RDKit          3D

 34 36  0  0  1  0  0  0  0  0999 V2000
   16.9305  -13.3829   19.0555 O   0  0  0  0  0  0  0  0  0  0  0  0
   15.8813  -14.2420   19.3589 C   0  0  0  0  0  0  0  0  0  0  0  0
   15.0404  -14.7368   18.3870 C   0  0  0  0  0  0  0  0  0  0  0  0
   13.9924  -15.5891   18.6534 C   0  0  0  0  0  0  0  0  0  0  0  0
   13.7423  -15.9906   19.9597 C   0  0  0  0  0  0  0  0  0  0  0  0
   12.6423  -16.8828   20.3255 C   0  0  0  0  0  0  0  0  0  0  0  0
   11.3388  -16.5960   19.6551 C   0  0  2  0  0  0  0  0  0  0  0  0
   11.6161  -16.4177   18.2355 N   0  0  0  0  0  0  0  0  0  0  0  0
   10.7259  -15.3974   20.2464 C   0  0  0  0  0  0  0  0  0  0  0  0
   11.0450  -14.2658   19.7786 O   0  0  0  0  0  0  0  0  0  0  0  0
   14.5797  -15.4992   20.9376 C   0  0  0  0  0  0  0  0  0  0  0  0
   15.6236  -14.6471   20.6518 C   0  0  0  0  0  0  0  0  0  0  0  0
    9.8066  -15.4061   21.2981 N   0  0  0  0  0  0  0  0  0  0  0  0
    9.0519  -14.2110   21.7493 C   0  0  1  0  0  0  0  0  0  0  0  0
    7.7106  -14.3607   21.1426 C   0  0  0  0  0  0  0  0  0  0  0  0
    7.5853  -14.1595   19.7026 C   0  0  0  0  0  0  0  0  0  0  0  0
    7.5960  -13.0777   18.8883 C   0  0  0  0  0  0  0  0  0  0  0  0
    7.4809  -13.5253   17.6092 N   0  0  0  0  0  0  0  0  0  0  0  0
    7.4005  -14.8647   17.6239 C   0  0  0  0  0  0  0  0  0  0  0  0
    7.4634  -15.2499   18.8849 N   0  0  0  0  0  0  0  0  0  0  0  0
    8.9361  -14.4157   23.2132 C   0  0  0  0  0  0  0  0  0  0  0  0
    8.5087  -13.5092   23.9393 O   0  0  0  0  0  0  0  0  0  0  0  0
    9.3051  -15.6317   23.8111 N   0  0  0  0  0  0  0  0  0  0  0  0
    9.0970  -15.8189   25.2467 C   0  0  1  0  0  0  0  0  0  0  0  0
    7.6803  -15.4050   25.5930 C   0  0  0  0  0  0  0  0  0  0  0  0
    7.6008  -14.0408   26.1209 C   0  0  0  0  0  0  0  0  0  0  0  0
    6.3668  -13.5051   26.4890 C   0  0  0  0  0  0  0  0  0  0  0  0
    6.2704  -12.2341   26.9967 C   0  0  0  0  0  0  0  0  0  0  0  0
    7.3973  -11.4689   27.1493 C   0  0  0  0  0  0  0  0  0  0  0  0
    8.6173  -11.9712   26.7961 C   0  0  0  0  0  0  0  0  0  0  0  0
    8.7043  -13.2429   26.2894 C   0  0  0  0  0  0  0  0  0  0  0  0
    9.4319  -17.1792   25.6711 C   0  0  0  0  0  0  0  0  0  0  0  0
    9.4155  -18.1109   24.8309 O   0  0  0  0  0  0  0  0  0  0  0  0
    9.7763  -17.5150   26.9795 O   0  0  0  0  0  0  0  0  0  0  0  0
  2  1  1  0
  3  2  2  0
  4  3  1  0
  5 11  1  0
  5  4  2  0
  6  5  1  0
  7  6  1  0
  7  8  1  6
  9  7  1  0
  9 13  1  0
 10  9  2  0
 11 12  2  0
 12  2  1  0
 14 15  1  6
 14 13  1  0
 14 21  1  0
 16 15  1  0
 17 16  2  0
 18 17  1  0
 19 18  1  0
 19 20  2  0
 20 16  1  0
 21 22  2  0
 23 21  1  0
 23 24  1  0
 24 32  1  0
 24 25  1  6
 26 31  1  0
 26 25  1  0
 27 26  2  0
 28 29  2  0
 28 27  1  0
 29 30  1  0
 30 31  2  0
 32 34  1  0
 33 32  2  0
M  END
$$$$
