PLT.pdb
     RDKit          3D

 23 23  0  0  1  0  0  0  0  0999 V2000
    8.6913  -14.6623   20.3703 N   0  0  0  0  0  0  0  0  0  0  0  0
    8.7130  -15.8046   19.4815 C   0  0  0  0  0  0  0  0  0  0  0  0
    7.3362  -16.4311   19.6081 C   0  0  0  0  0  0  0  0  0  0  0  0
    7.0714  -16.2419   21.1000 C   0  0  0  0  0  0  0  0  0  0  0  0
    7.6721  -14.8857   21.3485 C   0  0  1  0  0  0  0  0  0  0  0  0
    8.2538  -14.7671   22.6998 C   0  0  0  0  0  0  0  0  0  0  0  0
    9.5010  -14.7468   22.8546 O   0  0  0  0  0  0  0  0  0  0  0  0
    5.4411  -12.1712   26.8672 C   0  0  0  0  0  0  0  0  0  0  0  0
    6.5678  -12.6413   25.9872 C   0  0  1  0  0  0  0  0  0  0  0  0
    7.7655  -11.7447   26.3405 C   0  0  0  0  0  0  0  0  0  0  0  0
    6.9771  -14.0561   26.1609 C   0  0  0  0  0  0  0  0  0  0  0  0
    8.0130  -14.5809   25.2242 C   0  0  2  0  0  0  0  0  0  0  0  0
    7.4718  -14.6714   23.8744 N   0  0  0  0  0  0  0  0  0  0  0  0
    8.7144  -15.7952   25.6223 C   0  0  0  0  0  0  0  0  0  0  0  0
    8.7533  -16.1396   26.8584 O   0  0  0  0  0  0  0  0  0  0  0  0
    8.6981  -19.5107   23.9275 C   0  0  0  0  0  0  0  0  0  0  0  0
   10.0528  -18.9349   24.1553 C   0  0  1  0  0  0  0  0  0  0  0  0
   10.6401  -18.4021   23.0152 O   0  0  0  0  0  0  0  0  0  0  0  0
   10.0712  -17.8807   25.2590 C   0  0  2  0  0  0  0  0  0  0  0  0
    9.3924  -16.6898   24.7479 N   0  0  0  0  0  0  0  0  0  0  0  0
   11.4905  -17.6583   25.5765 C   0  0  0  0  0  0  0  0  0  0  0  0
   12.2270  -18.6436   26.2099 O   0  0  0  0  0  0  0  0  0  0  0  0
   12.0610  -16.5890   25.2870 O   0  0  0  0  0  0  0  0  0  0  0  0
  2  3  1  0
  2  1  1  0
  3  4  1  0
  4  5  1  0
  5  1  1  0
  5  6  1  1
  6 13  1  0
  6  7  2  0
  9  8  1  1
  9 10  1  0
 12 11  1  1
 11  9  1  0
 12 14  1  0
 13 12  1  0
 14 15  2  0
 17 16  1  6
 17 18  1  0
 17 19  1  0
 19 20  1  6
 20 14  1  0
 21 19  1  0
 21 22  1  0
 23 21  2  0
M  END
$$$$
