PLT.pdb
     RDKit          3D

 23 23  0  0  1  0  0  0  0  0999 V2000
    7.2718  -14.9801   20.3955 N   0  0  0  0  0  0  0  0  0  0  0  0
    6.4216  -14.1392   19.5797 C   0  0  0  0  0  0  0  0  0  0  0  0
    7.3738  -13.2456   18.8058 C   0  0  0  0  0  0  0  0  0  0  0  0
    8.4417  -12.9799   19.8645 C   0  0  0  0  0  0  0  0  0  0  0  0
    8.5266  -14.3128   20.5558 C   0  0  1  0  0  0  0  0  0  0  0  0
    8.8333  -14.1822   21.9936 C   0  0  0  0  0  0  0  0  0  0  0  0
   10.0197  -14.0258   22.3780 O   0  0  0  0  0  0  0  0  0  0  0  0
    8.3495  -12.3026   26.9969 C   0  0  0  0  0  0  0  0  0  0  0  0
    7.2345  -13.2357   26.6082 C   0  0  1  0  0  0  0  0  0  0  0  0
    5.9532  -12.6011   27.1727 C   0  0  0  0  0  0  0  0  0  0  0  0
    7.0472  -13.4487   25.1526 C   0  0  0  0  0  0  0  0  0  0  0  0
    8.1202  -14.1961   24.4343 C   0  0  2  0  0  0  0  0  0  0  0  0
    7.8442  -14.2228   23.0038 N   0  0  0  0  0  0  0  0  0  0  0  0
    8.4762  -15.5107   24.9543 C   0  0  0  0  0  0  0  0  0  0  0  0
    7.5680  -16.4012   25.1280 O   0  0  0  0  0  0  0  0  0  0  0  0
   11.7042  -19.1598   25.6292 C   0  0  0  0  0  0  0  0  0  0  0  0
   11.3017  -17.8124   25.1382 C   0  0  1  0  0  0  0  0  0  0  0  0
   11.1478  -17.7351   23.7602 O   0  0  0  0  0  0  0  0  0  0  0  0
   10.0318  -17.2926   25.8069 C   0  0  2  0  0  0  0  0  0  0  0  0
    9.7865  -15.9404   25.3051 N   0  0  0  0  0  0  0  0  0  0  0  0
   10.2914  -17.3451   27.2542 C   0  0  0  0  0  0  0  0  0  0  0  0
   10.2398  -18.5516   27.9295 O   0  0  0  0  0  0  0  0  0  0  0  0
   10.5616  -16.3162   27.9033 O   0  0  0  0  0  0  0  0  0  0  0  0
  2  3  1  0
  2  1  1  0
  3  4  1  0
  4  5  1  0
  5  1  1  0
  5  6  1  1
  6 13  1  0
  6  7  2  0
  9  8  1  6
  9 10  1  0
 12 11  1  1
 11  9  1  0
 12 14  1  0
 13 12  1  0
 14 15  2  0
 17 16  1  6
 17 18  1  0
 17 19  1  0
 19 20  1  6
 20 14  1  0
 21 19  1  0
 21 22  1  0
 23 21  2  0
M  END
$$$$
