PLT.pdb
     RDKit          3D

 23 23  0  0  1  0  0  0  0  0999 V2000
    8.3834  -14.6958   20.1334 N   0  0  0  0  0  0  0  0  0  0  0  0
    8.4103  -15.8370   19.2432 C   0  0  0  0  0  0  0  0  0  0  0  0
    7.0449  -16.4841   19.3876 C   0  0  0  0  0  0  0  0  0  0  0  0
    6.7973  -16.3001   20.8831 C   0  0  0  0  0  0  0  0  0  0  0  0
    7.3809  -14.9352   21.1249 C   0  0  1  0  0  0  0  0  0  0  0  0
    7.9788  -14.8091   22.4684 C   0  0  0  0  0  0  0  0  0  0  0  0
    9.2252  -14.8728   22.6172 O   0  0  0  0  0  0  0  0  0  0  0  0
    5.5528  -11.8571   26.6164 C   0  0  0  0  0  0  0  0  0  0  0  0
    6.6164  -12.4851   25.7566 C   0  0  1  0  0  0  0  0  0  0  0  0
    7.9248  -11.7741   26.1383 C   0  0  0  0  0  0  0  0  0  0  0  0
    6.8108  -13.9449   25.9313 C   0  0  0  0  0  0  0  0  0  0  0  0
    7.7562  -14.6186   24.9942 C   0  0  2  0  0  0  0  0  0  0  0  0
    7.2137  -14.6142   23.6419 N   0  0  0  0  0  0  0  0  0  0  0  0
    8.2575  -15.9304   25.3856 C   0  0  0  0  0  0  0  0  0  0  0  0
    7.4542  -16.9288   25.4635 O   0  0  0  0  0  0  0  0  0  0  0  0
   11.8845  -19.2392   25.6271 C   0  0  0  0  0  0  0  0  0  0  0  0
   11.3583  -17.8718   25.3590 C   0  0  1  0  0  0  0  0  0  0  0  0
   11.2558  -17.5595   24.0097 O   0  0  0  0  0  0  0  0  0  0  0  0
   10.0117  -17.6127   26.0295 C   0  0  2  0  0  0  0  0  0  0  0  0
    9.6083  -16.2448   25.7032 N   0  0  0  0  0  0  0  0  0  0  0  0
   10.2313  -17.8343   27.4673 C   0  0  0  0  0  0  0  0  0  0  0  0
   10.3293  -16.7591   28.3325 O   0  0  0  0  0  0  0  0  0  0  0  0
   10.3337  -18.9831   27.9393 O   0  0  0  0  0  0  0  0  0  0  0  0
  2  3  1  0
  2  1  1  0
  3  4  1  0
  4  5  1  0
  5  1  1  0
  5  6  1  1
  6 13  1  0
  6  7  2  0
  9  8  1  1
  9 10  1  0
 12 11  1  1
 11  9  1  0
 12 14  1  0
 13 12  1  0
 14 15  2  0
 17 16  1  6
 17 18  1  0
 17 19  1  0
 19 20  1  1
 20 14  1  0
 21 19  1  0
 21 22  1  0
 23 21  2  0
M  END
$$$$
