PLT.pdb
     RDKit          3D

 23 23  0  0  1  0  0  0  0  0999 V2000
    7.1166  -14.8803   20.1467 N   0  0  0  0  0  0  0  0  0  0  0  0
    6.4393  -13.8955   19.3300 C   0  0  0  0  0  0  0  0  0  0  0  0
    7.5476  -13.1440   18.6151 C   0  0  0  0  0  0  0  0  0  0  0  0
    8.6042  -13.0768   19.7155 C   0  0  0  0  0  0  0  0  0  0  0  0
    8.4536  -14.4234   20.3680 C   0  0  1  0  0  0  0  0  0  0  0  0
    8.7239  -14.3792   21.8183 C   0  0  0  0  0  0  0  0  0  0  0  0
    9.9066  -14.3651   22.2435 O   0  0  0  0  0  0  0  0  0  0  0  0
    8.0580  -12.2159   26.7049 C   0  0  0  0  0  0  0  0  0  0  0  0
    6.9644  -13.1754   26.3199 C   0  0  1  0  0  0  0  0  0  0  0  0
    5.6588  -12.5252   26.8054 C   0  0  0  0  0  0  0  0  0  0  0  0
    6.8333  -13.4588   24.8702 C   0  0  0  0  0  0  0  0  0  0  0  0
    7.9329  -14.2384   24.2308 C   0  0  2  0  0  0  0  0  0  0  0  0
    7.7027  -14.3504   22.7963 N   0  0  0  0  0  0  0  0  0  0  0  0
    8.2801  -15.5177   24.8375 C   0  0  0  0  0  0  0  0  0  0  0  0
    7.3894  -16.4340   24.9603 O   0  0  0  0  0  0  0  0  0  0  0  0
   11.4634  -19.1122   25.6707 C   0  0  0  0  0  0  0  0  0  0  0  0
   11.0439  -17.7824   25.1470 C   0  0  1  0  0  0  0  0  0  0  0  0
   10.8144  -17.7605   23.7775 O   0  0  0  0  0  0  0  0  0  0  0  0
    9.8169  -17.2235   25.8624 C   0  0  2  0  0  0  0  0  0  0  0  0
    9.5634  -15.8844   25.3305 N   0  0  0  0  0  0  0  0  0  0  0  0
   10.1497  -17.2342   27.2956 C   0  0  0  0  0  0  0  0  0  0  0  0
   10.0190  -18.3969   28.0340 O   0  0  0  0  0  0  0  0  0  0  0  0
   10.5536  -16.2082   27.8762 O   0  0  0  0  0  0  0  0  0  0  0  0
  2  3  1  0
  2  1  1  0
  3  4  1  0
  4  5  1  0
  5  1  1  0
  5  6  1  1
  6 13  1  0
  6  7  2  0
  9  8  1  6
  9 10  1  0
 12 11  1  1
 11  9  1  0
 12 14  1  0
 13 12  1  0
 14 15  2  0
 17 16  1  1
 17 18  1  0
 17 19  1  0
 19 20  1  6
 20 14  1  0
 21 19  1  0
 21 22  1  0
 23 21  2  0
M  END
$$$$
