PLT.pdb
     RDKit          3D

 23 23  0  0  1  0  0  0  0  0999 V2000
    7.2284  -14.8288   21.0005 N   0  0  0  0  0  0  0  0  0  0  0  0
    6.5326  -13.8643   20.1751 C   0  0  0  0  0  0  0  0  0  0  0  0
    7.6267  -13.0951   19.4571 C   0  0  0  0  0  0  0  0  0  0  0  0
    8.6790  -12.9978   20.5593 C   0  0  0  0  0  0  0  0  0  0  0  0
    8.5551  -14.3425   21.2213 C   0  0  1  0  0  0  0  0  0  0  0  0
    8.8210  -14.2819   22.6719 C   0  0  0  0  0  0  0  0  0  0  0  0
    9.9921  -14.1137   23.0961 O   0  0  0  0  0  0  0  0  0  0  0  0
    5.4526  -11.6626   26.1015 C   0  0  0  0  0  0  0  0  0  0  0  0
    6.6940  -12.2733   25.5092 C   0  0  1  0  0  0  0  0  0  0  0  0
    7.8676  -11.4919   26.1218 C   0  0  0  0  0  0  0  0  0  0  0  0
    6.8998  -13.7158   25.7846 C   0  0  0  0  0  0  0  0  0  0  0  0
    8.0398  -14.3816   25.0896 C   0  0  2  0  0  0  0  0  0  0  0  0
    7.8081  -14.4052   23.6512 N   0  0  0  0  0  0  0  0  0  0  0  0
    8.4654  -15.6778   25.6033 C   0  0  0  0  0  0  0  0  0  0  0  0
    8.5724  -15.8643   26.8690 O   0  0  0  0  0  0  0  0  0  0  0  0
    7.1677  -19.3174   24.6222 C   0  0  0  0  0  0  0  0  0  0  0  0
    8.6534  -19.2185   24.5832 C   0  0  1  0  0  0  0  0  0  0  0  0
    9.1795  -19.1050   23.3030 O   0  0  0  0  0  0  0  0  0  0  0  0
    9.1945  -18.0788   25.4423 C   0  0  2  0  0  0  0  0  0  0  0  0
    8.7881  -16.8196   24.8180 N   0  0  0  0  0  0  0  0  0  0  0  0
   10.6528  -18.2693   25.4877 C   0  0  0  0  0  0  0  0  0  0  0  0
   11.1993  -19.3011   26.2298 O   0  0  0  0  0  0  0  0  0  0  0  0
   11.4260  -17.5151   24.8661 O   0  0  0  0  0  0  0  0  0  0  0  0
  2  3  1  0
  2  1  1  0
  3  4  1  0
  4  5  1  0
  5  1  1  0
  5  6  1  1
  6 13  1  0
  6  7  2  0
  9  8  1  1
  9 10  1  0
 12 11  1  1
 11  9  1  0
 12 14  1  0
 13 12  1  0
 14 15  2  0
 17 16  1  6
 17 18  1  0
 17 19  1  0
 19 20  1  6
 20 14  1  0
 21 19  1  0
 21 22  1  0
 23 21  2  0
M  END
$$$$
