PLT.pdb
     RDKit          3D

 23 23  0  0  1  0  0  0  0  0999 V2000
    7.1270  -14.6484   20.8319 N   0  0  0  0  0  0  0  0  0  0  0  0
    6.4484  -13.5895   20.1151 C   0  0  0  0  0  0  0  0  0  0  0  0
    7.5502  -12.8193   19.4101 C   0  0  0  0  0  0  0  0  0  0  0  0
    8.6504  -12.8599   20.4683 C   0  0  0  0  0  0  0  0  0  0  0  0
    8.4848  -14.2453   21.0298 C   0  0  1  0  0  0  0  0  0  0  0  0
    8.8126  -14.3123   22.4673 C   0  0  0  0  0  0  0  0  0  0  0  0
   10.0023  -14.1889   22.8537 O   0  0  0  0  0  0  0  0  0  0  0  0
    5.8025  -12.0114   26.4489 C   0  0  0  0  0  0  0  0  0  0  0  0
    6.9630  -12.6009   25.6936 C   0  0  1  0  0  0  0  0  0  0  0  0
    8.2215  -12.0077   26.3475 C   0  0  0  0  0  0  0  0  0  0  0  0
    7.0727  -14.0794   25.7275 C   0  0  0  0  0  0  0  0  0  0  0  0
    8.1405  -14.6982   24.8891 C   0  0  2  0  0  0  0  0  0  0  0  0
    7.8409  -14.5137   23.4751 N   0  0  0  0  0  0  0  0  0  0  0  0
    8.5175  -16.0715   25.2007 C   0  0  0  0  0  0  0  0  0  0  0  0
    7.6169  -16.9290   25.5196 O   0  0  0  0  0  0  0  0  0  0  0  0
   12.2507  -17.7203   24.1540 C   0  0  0  0  0  0  0  0  0  0  0  0
   10.9952  -18.5119   24.2796 C   0  0  1  0  0  0  0  0  0  0  0  0
   11.1999  -19.8771   24.4313 O   0  0  0  0  0  0  0  0  0  0  0  0
   10.0941  -18.0192   25.4088 C   0  0  2  0  0  0  0  0  0  0  0  0
    9.8402  -16.5956   25.1862 N   0  0  0  0  0  0  0  0  0  0  0  0
   10.8246  -18.2988   26.6549 C   0  0  0  0  0  0  0  0  0  0  0  0
   11.1841  -17.2645   27.5006 O   0  0  0  0  0  0  0  0  0  0  0  0
   11.1356  -19.4613   26.9786 O   0  0  0  0  0  0  0  0  0  0  0  0
  2  3  1  0
  2  1  1  0
  3  4  1  0
  4  5  1  0
  5  1  1  0
  5  6  1  1
  6 13  1  0
  6  7  2  0
  9  8  1  1
  9 10  1  0
 12 11  1  1
 11  9  1  0
 12 14  1  0
 13 12  1  0
 14 15  2  0
 17 16  1  1
 17 18  1  0
 17 19  1  0
 19 20  1  6
 20 14  1  0
 21 19  1  0
 21 22  1  0
 23 21  2  0
M  END
$$$$
