PLT.pdb
     RDKit          3D

 23 23  0  0  1  0  0  0  0  0999 V2000
    8.6903  -14.8630   20.4110 N   0  0  0  0  0  0  0  0  0  0  0  0
    8.8488  -15.9274   19.4428 C   0  0  0  0  0  0  0  0  0  0  0  0
    7.5453  -16.7038   19.4910 C   0  0  0  0  0  0  0  0  0  0  0  0
    7.2378  -16.6550   20.9859 C   0  0  0  0  0  0  0  0  0  0  0  0
    7.6854  -15.2650   21.3458 C   0  0  1  0  0  0  0  0  0  0  0  0
    8.2292  -15.1863   22.7157 C   0  0  0  0  0  0  0  0  0  0  0  0
    9.4664  -15.2854   22.9143 O   0  0  0  0  0  0  0  0  0  0  0  0
    5.7436  -12.0137   26.5528 C   0  0  0  0  0  0  0  0  0  0  0  0
    6.8296  -12.7287   25.7950 C   0  0  1  0  0  0  0  0  0  0  0  0
    8.1360  -12.0159   26.1804 C   0  0  0  0  0  0  0  0  0  0  0  0
    6.9817  -14.1737   26.0918 C   0  0  0  0  0  0  0  0  0  0  0  0
    7.9212  -14.9468   25.2283 C   0  0  2  0  0  0  0  0  0  0  0  0
    7.4205  -14.9999   23.8609 N   0  0  0  0  0  0  0  0  0  0  0  0
    8.3463  -16.2540   25.7136 C   0  0  0  0  0  0  0  0  0  0  0  0
    7.4801  -17.1820   25.9046 O   0  0  0  0  0  0  0  0  0  0  0  0
   10.5723  -18.8361   24.2254 C   0  0  0  0  0  0  0  0  0  0  0  0
   11.0652  -18.5756   25.6066 C   0  0  1  0  0  0  0  0  0  0  0  0
   12.2004  -17.7777   25.6612 O   0  0  0  0  0  0  0  0  0  0  0  0
    9.9952  -17.9750   26.5146 C   0  0  2  0  0  0  0  0  0  0  0  0
    9.6840  -16.6372   26.0106 N   0  0  0  0  0  0  0  0  0  0  0  0
   10.5729  -17.9744   27.8678 C   0  0  0  0  0  0  0  0  0  0  0  0
   10.7977  -19.1674   28.5315 O   0  0  0  0  0  0  0  0  0  0  0  0
   10.8717  -16.9117   28.4459 O   0  0  0  0  0  0  0  0  0  0  0  0
  2  3  1  0
  2  1  1  0
  3  4  1  0
  4  5  1  0
  5  1  1  0
  5  6  1  1
  6 13  1  0
  6  7  2  0
  9  8  1  1
  9 10  1  0
 12 11  1  1
 11  9  1  0
 12 14  1  0
 13 12  1  0
 14 15  2  0
 17 16  1  6
 17 18  1  0
 17 19  1  0
 19 20  1  6
 20 14  1  0
 21 19  1  0
 21 22  1  0
 23 21  2  0
M  END
$$$$
