PLT.pdb
     RDKit          3D

 23 23  0  0  1  0  0  0  0  0999 V2000
    7.1336  -14.9163   20.1827 N   0  0  0  0  0  0  0  0  0  0  0  0
    6.4061  -13.9854   19.3462 C   0  0  0  0  0  0  0  0  0  0  0  0
    7.4738  -13.1993   18.6071 C   0  0  0  0  0  0  0  0  0  0  0  0
    8.5307  -13.0545   19.6997 C   0  0  0  0  0  0  0  0  0  0  0  0
    8.4481  -14.3905   20.3854 C   0  0  1  0  0  0  0  0  0  0  0  0
    8.7223  -14.2977   21.8327 C   0  0  0  0  0  0  0  0  0  0  0  0
    9.8956  -14.1184   22.2463 O   0  0  0  0  0  0  0  0  0  0  0  0
    8.0301  -12.2697   26.7311 C   0  0  0  0  0  0  0  0  0  0  0  0
    6.9704  -13.2705   26.3565 C   0  0  1  0  0  0  0  0  0  0  0  0
    5.6463  -12.6733   26.8599 C   0  0  0  0  0  0  0  0  0  0  0  0
    6.8327  -13.5550   24.9076 C   0  0  0  0  0  0  0  0  0  0  0  0
    7.9490  -14.2991   24.2550 C   0  0  2  0  0  0  0  0  0  0  0  0
    7.7153  -14.4012   22.8203 N   0  0  0  0  0  0  0  0  0  0  0  0
    8.3314  -15.5757   24.8460 C   0  0  0  0  0  0  0  0  0  0  0  0
    7.4479  -16.4882   25.0328 O   0  0  0  0  0  0  0  0  0  0  0  0
   11.6616  -19.0921   25.6589 C   0  0  0  0  0  0  0  0  0  0  0  0
   11.2273  -17.7622   25.1479 C   0  0  1  0  0  0  0  0  0  0  0  0
   11.1031  -17.7001   23.7661 O   0  0  0  0  0  0  0  0  0  0  0  0
    9.9261  -17.2790   25.7829 C   0  0  2  0  0  0  0  0  0  0  0  0
    9.6431  -15.9437   25.2562 N   0  0  0  0  0  0  0  0  0  0  0  0
   10.1572  -17.3017   27.2358 C   0  0  0  0  0  0  0  0  0  0  0  0
   10.3359  -16.1199   27.9328 O   0  0  0  0  0  0  0  0  0  0  0  0
   10.1978  -18.3734   27.8704 O   0  0  0  0  0  0  0  0  0  0  0  0
  2  3  1  0
  2  1  1  0
  3  4  1  0
  4  5  1  0
  5  1  1  0
  5  6  1  1
  6 13  1  0
  6  7  2  0
  9  8  1  6
  9 10  1  0
 12 11  1  1
 11  9  1  0
 12 14  1  0
 13 12  1  0
 14 15  2  0
 17 16  1  6
 17 18  1  0
 17 19  1  0
 19 20  1  6
 20 14  1  0
 21 19  1  0
 21 22  1  0
 23 21  2  0
M  END
$$$$
