PLT.pdb
     RDKit          3D

 23 23  0  0  1  0  0  0  0  0999 V2000
    7.2469  -14.9956   20.2041 N   0  0  0  0  0  0  0  0  0  0  0  0
    6.4490  -14.1540   19.3377 C   0  0  0  0  0  0  0  0  0  0  0  0
    7.4489  -13.2719   18.6123 C   0  0  0  0  0  0  0  0  0  0  0  0
    8.4587  -13.0069   19.7267 C   0  0  0  0  0  0  0  0  0  0  0  0
    8.4957  -14.3360   20.4295 C   0  0  1  0  0  0  0  0  0  0  0  0
    8.7236  -14.1985   21.8812 C   0  0  0  0  0  0  0  0  0  0  0  0
    9.8851  -14.0208   22.3274 O   0  0  0  0  0  0  0  0  0  0  0  0
    7.9713  -12.3265   26.8466 C   0  0  0  0  0  0  0  0  0  0  0  0
    6.8795  -13.2621   26.4020 C   0  0  1  0  0  0  0  0  0  0  0  0
    5.5693  -12.6271   26.8954 C   0  0  0  0  0  0  0  0  0  0  0  0
    6.7702  -13.4799   24.9392 C   0  0  0  0  0  0  0  0  0  0  0  0
    7.8830  -14.2244   24.2808 C   0  0  2  0  0  0  0  0  0  0  0  0
    7.6834  -14.2557   22.8378 N   0  0  0  0  0  0  0  0  0  0  0  0
    8.2165  -15.5361   24.8224 C   0  0  0  0  0  0  0  0  0  0  0  0
    7.2820  -16.3540   25.1479 O   0  0  0  0  0  0  0  0  0  0  0  0
   10.0669  -18.3528   23.2169 C   0  0  0  0  0  0  0  0  0  0  0  0
   10.6951  -18.0942   24.5424 C   0  0  1  0  0  0  0  0  0  0  0  0
   11.8804  -17.3737   24.4759 O   0  0  0  0  0  0  0  0  0  0  0  0
    9.7505  -17.4017   25.5213 C   0  0  2  0  0  0  0  0  0  0  0  0
    9.5301  -16.0386   25.0378 N   0  0  0  0  0  0  0  0  0  0  0  0
   10.4179  -17.4607   26.8312 C   0  0  0  0  0  0  0  0  0  0  0  0
   10.8680  -16.3017   27.4383 O   0  0  0  0  0  0  0  0  0  0  0  0
   10.5937  -18.5435   27.4224 O   0  0  0  0  0  0  0  0  0  0  0  0
  2  3  1  0
  2  1  1  0
  3  4  1  0
  4  5  1  0
  5  1  1  0
  5  6  1  1
  6 13  1  0
  6  7  2  0
  9  8  1  6
  9 10  1  0
 12 11  1  1
 11  9  1  0
 12 14  1  0
 13 12  1  0
 14 15  2  0
 17 16  1  6
 17 18  1  0
 17 19  1  0
 19 20  1  6
 20 14  1  0
 21 19  1  0
 21 22  1  0
 23 21  2  0
M  END
$$$$
