PLT.pdb
     RDKit          3D

 23 23  0  0  1  0  0  0  0  0999 V2000
    7.3646  -14.7634   20.8971 N   0  0  0  0  0  0  0  0  0  0  0  0
    6.6124  -13.7672   20.1641 C   0  0  0  0  0  0  0  0  0  0  0  0
    7.6586  -12.8896   19.5012 C   0  0  0  0  0  0  0  0  0  0  0  0
    8.7221  -12.8352   20.5955 C   0  0  0  0  0  0  0  0  0  0  0  0
    8.6707  -14.2350   21.1430 C   0  0  1  0  0  0  0  0  0  0  0  0
    8.9558  -14.2837   22.5903 C   0  0  0  0  0  0  0  0  0  0  0  0
   10.1116  -14.0371   23.0184 O   0  0  0  0  0  0  0  0  0  0  0  0
    5.8921  -12.0603   26.4785 C   0  0  0  0  0  0  0  0  0  0  0  0
    7.0425  -12.6625   25.7176 C   0  0  1  0  0  0  0  0  0  0  0  0
    8.3085  -12.0394   26.3277 C   0  0  0  0  0  0  0  0  0  0  0  0
    7.1661  -14.1383   25.7933 C   0  0  0  0  0  0  0  0  0  0  0  0
    8.2493  -14.7691   24.9843 C   0  0  2  0  0  0  0  0  0  0  0  0
    7.9787  -14.6012   23.5624 N   0  0  0  0  0  0  0  0  0  0  0  0
    8.6171  -16.1392   25.3200 C   0  0  0  0  0  0  0  0  0  0  0  0
    7.7212  -16.9648   25.7248 O   0  0  0  0  0  0  0  0  0  0  0  0
   10.5986  -18.7438   23.2267 C   0  0  0  0  0  0  0  0  0  0  0  0
   11.1663  -18.6629   24.6014 C   0  0  1  0  0  0  0  0  0  0  0  0
   12.3603  -17.9581   24.6799 O   0  0  0  0  0  0  0  0  0  0  0  0
   10.1834  -18.0839   25.6156 C   0  0  2  0  0  0  0  0  0  0  0  0
    9.9252  -16.6934   25.2410 N   0  0  0  0  0  0  0  0  0  0  0  0
   10.8313  -18.2289   26.9287 C   0  0  0  0  0  0  0  0  0  0  0  0
   11.0262  -19.4846   27.4761 O   0  0  0  0  0  0  0  0  0  0  0  0
   11.2174  -17.2363   27.5756 O   0  0  0  0  0  0  0  0  0  0  0  0
  2  3  1  0
  2  1  1  0
  3  4  1  0
  4  5  1  0
  5  1  1  0
  5  6  1  1
  6 13  1  0
  6  7  2  0
  9  8  1  1
  9 10  1  0
 12 11  1  1
 11  9  1  0
 12 14  1  0
 13 12  1  0
 14 15  2  0
 17 16  1  6
 17 18  1  0
 17 19  1  0
 19 20  1  6
 20 14  1  0
 21 19  1  0
 21 22  1  0
 23 21  2  0
M  END
$$$$
