PLT.pdb
     RDKit          3D

 23 23  0  0  1  0  0  0  0  0999 V2000
    7.3669  -15.1338   20.2593 N   0  0  0  0  0  0  0  0  0  0  0  0
    6.5527  -14.3584   19.3474 C   0  0  0  0  0  0  0  0  0  0  0  0
    7.5309  -13.4687   18.6019 C   0  0  0  0  0  0  0  0  0  0  0  0
    8.5114  -13.1212   19.7197 C   0  0  0  0  0  0  0  0  0  0  0  0
    8.5863  -14.4187   20.4764 C   0  0  1  0  0  0  0  0  0  0  0  0
    8.7848  -14.2147   21.9247 C   0  0  0  0  0  0  0  0  0  0  0  0
    9.9225  -13.9275   22.3752 O   0  0  0  0  0  0  0  0  0  0  0  0
    8.0090  -12.2555   26.8426 C   0  0  0  0  0  0  0  0  0  0  0  0
    6.9014  -13.1627   26.3787 C   0  0  1  0  0  0  0  0  0  0  0  0
    5.5979  -12.4755   26.8168 C   0  0  0  0  0  0  0  0  0  0  0  0
    6.8327  -13.4046   24.9172 C   0  0  0  0  0  0  0  0  0  0  0  0
    7.9204  -14.2299   24.3159 C   0  0  2  0  0  0  0  0  0  0  0  0
    7.7413  -14.3250   22.8730 N   0  0  0  0  0  0  0  0  0  0  0  0
    8.1861  -15.5262   24.9276 C   0  0  0  0  0  0  0  0  0  0  0  0
    7.2171  -16.3306   25.1764 O   0  0  0  0  0  0  0  0  0  0  0  0
    9.9816  -18.4302   23.5758 C   0  0  0  0  0  0  0  0  0  0  0  0
   10.5795  -18.1337   24.9073 C   0  0  1  0  0  0  0  0  0  0  0  0
   11.7844  -17.4460   24.8460 O   0  0  0  0  0  0  0  0  0  0  0  0
    9.6265  -17.3789   25.8304 C   0  0  2  0  0  0  0  0  0  0  0  0
    9.4663  -16.0268   25.2949 N   0  0  0  0  0  0  0  0  0  0  0  0
   10.2486  -17.4140   27.1633 C   0  0  0  0  0  0  0  0  0  0  0  0
   10.2986  -18.5968   27.8794 O   0  0  0  0  0  0  0  0  0  0  0  0
   10.7415  -16.3913   27.6772 O   0  0  0  0  0  0  0  0  0  0  0  0
  2  3  1  0
  2  1  1  0
  3  4  1  0
  4  5  1  0
  5  1  1  0
  5  6  1  1
  6 13  1  0
  6  7  2  0
  9  8  1  6
  9 10  1  0
 12 11  1  1
 11  9  1  0
 12 14  1  0
 13 12  1  0
 14 15  2  0
 17 16  1  6
 17 18  1  0
 17 19  1  0
 19 20  1  6
 20 14  1  0
 21 19  1  0
 21 22  1  0
 23 21  2  0
M  END
$$$$
