PLT.pdb
     RDKit          3D

 23 23  0  0  1  0  0  0  0  0999 V2000
    7.4288  -15.0367   20.7647 N   0  0  0  0  0  0  0  0  0  0  0  0
    6.7174  -14.1258   19.8931 C   0  0  0  0  0  0  0  0  0  0  0  0
    7.7922  -13.2543   19.2691 C   0  0  0  0  0  0  0  0  0  0  0  0
    8.7424  -13.0802   20.4517 C   0  0  0  0  0  0  0  0  0  0  0  0
    8.6861  -14.4394   21.0930 C   0  0  1  0  0  0  0  0  0  0  0  0
    8.8312  -14.3753   22.5604 C   0  0  0  0  0  0  0  0  0  0  0  0
    9.9409  -14.0891   23.0767 O   0  0  0  0  0  0  0  0  0  0  0  0
    5.6308  -11.8706   26.2127 C   0  0  0  0  0  0  0  0  0  0  0  0
    6.8027  -12.5531   25.5603 C   0  0  1  0  0  0  0  0  0  0  0  0
    8.0408  -12.0694   26.3326 C   0  0  0  0  0  0  0  0  0  0  0  0
    6.7855  -14.0357   25.5882 C   0  0  0  0  0  0  0  0  0  0  0  0
    7.9081  -14.7386   24.9017 C   0  0  2  0  0  0  0  0  0  0  0  0
    7.7653  -14.6239   23.4561 N   0  0  0  0  0  0  0  0  0  0  0  0
    8.1934  -16.1047   25.3233 C   0  0  0  0  0  0  0  0  0  0  0  0
    7.2377  -16.9534   25.4433 O   0  0  0  0  0  0  0  0  0  0  0  0
    9.7778  -19.0256   23.8280 C   0  0  0  0  0  0  0  0  0  0  0  0
   10.4969  -18.7562   25.1043 C   0  0  1  0  0  0  0  0  0  0  0  0
   11.7027  -18.0862   24.9438 O   0  0  0  0  0  0  0  0  0  0  0  0
    9.6426  -17.9995   26.1179 C   0  0  2  0  0  0  0  0  0  0  0  0
    9.4798  -16.6304   25.6284 N   0  0  0  0  0  0  0  0  0  0  0  0
   10.3672  -18.0854   27.3955 C   0  0  0  0  0  0  0  0  0  0  0  0
   10.4229  -19.2821   28.0876 O   0  0  0  0  0  0  0  0  0  0  0  0
   10.9438  -17.0940   27.8831 O   0  0  0  0  0  0  0  0  0  0  0  0
  2  3  1  0
  2  1  1  0
  3  4  1  0
  4  5  1  0
  5  1  1  0
  5  6  1  1
  6 13  1  0
  6  7  2  0
  9  8  1  1
  9 10  1  0
 12 11  1  1
 11  9  1  0
 12 14  1  0
 13 12  1  0
 14 15  2  0
 17 16  1  6
 17 18  1  0
 17 19  1  0
 19 20  1  6
 20 14  1  0
 21 19  1  0
 21 22  1  0
 23 21  2  0
M  END
$$$$
