PLT.pdb
     RDKit          3D

 23 23  0  0  1  0  0  0  0  0999 V2000
    7.1858  -14.6721   20.7608 N   0  0  0  0  0  0  0  0  0  0  0  0
    6.4624  -13.6320   20.0605 C   0  0  0  0  0  0  0  0  0  0  0  0
    7.5331  -12.7688   19.4181 C   0  0  0  0  0  0  0  0  0  0  0  0
    8.6022  -12.7796   20.5083 C   0  0  0  0  0  0  0  0  0  0  0  0
    8.5089  -14.1924   21.0154 C   0  0  1  0  0  0  0  0  0  0  0  0
    8.7981  -14.2919   22.4593 C   0  0  0  0  0  0  0  0  0  0  0  0
    9.9676  -14.1186   22.8860 O   0  0  0  0  0  0  0  0  0  0  0  0
    5.7163  -12.0392   26.3664 C   0  0  0  0  0  0  0  0  0  0  0  0
    6.8817  -12.6370   25.6252 C   0  0  1  0  0  0  0  0  0  0  0  0
    8.1365  -12.0611   26.3012 C   0  0  0  0  0  0  0  0  0  0  0  0
    6.9750  -14.1168   25.6521 C   0  0  0  0  0  0  0  0  0  0  0  0
    8.0705  -14.7405   24.8541 C   0  0  2  0  0  0  0  0  0  0  0  0
    7.8100  -14.5799   23.4295 N   0  0  0  0  0  0  0  0  0  0  0  0
    8.4479  -16.1060   25.1976 C   0  0  0  0  0  0  0  0  0  0  0  0
    7.5429  -16.9716   25.4801 O   0  0  0  0  0  0  0  0  0  0  0  0
    9.9356  -18.9050   23.2889 C   0  0  0  0  0  0  0  0  0  0  0  0
   10.7962  -18.6602   24.4797 C   0  0  1  0  0  0  0  0  0  0  0  0
   11.9388  -17.9186   24.2092 O   0  0  0  0  0  0  0  0  0  0  0  0
   10.0414  -18.0020   25.6316 C   0  0  2  0  0  0  0  0  0  0  0  0
    9.7759  -16.6137   25.2537 N   0  0  0  0  0  0  0  0  0  0  0  0
   10.9133  -18.1348   26.8092 C   0  0  0  0  0  0  0  0  0  0  0  0
   11.1654  -19.3813   27.3543 O   0  0  0  0  0  0  0  0  0  0  0  0
   11.4422  -17.1398   27.3414 O   0  0  0  0  0  0  0  0  0  0  0  0
  2  3  1  0
  2  1  1  0
  3  4  1  0
  4  5  1  0
  5  1  1  0
  5  6  1  1
  6 13  1  0
  6  7  2  0
  9  8  1  1
  9 10  1  0
 12 11  1  1
 11  9  1  0
 12 14  1  0
 13 12  1  0
 14 15  2  0
 17 16  1  6
 17 18  1  0
 17 19  1  0
 19 20  1  6
 20 14  1  0
 21 19  1  0
 21 22  1  0
 23 21  2  0
M  END
$$$$
