PLT.pdb
     RDKit          3D

 23 23  0  0  1  0  0  0  0  0999 V2000
    7.2818  -14.7740   20.6204 N   0  0  0  0  0  0  0  0  0  0  0  0
    6.5045  -13.7477   19.9585 C   0  0  0  0  0  0  0  0  0  0  0  0
    7.5272  -12.7751   19.3994 C   0  0  0  0  0  0  0  0  0  0  0  0
    8.5648  -12.7751   20.5197 C   0  0  0  0  0  0  0  0  0  0  0  0
    8.5597  -14.2184   20.9425 C   0  0  1  0  0  0  0  0  0  0  0  0
    8.8167  -14.3824   22.3866 C   0  0  0  0  0  0  0  0  0  0  0  0
    9.9936  -14.3675   22.8277 O   0  0  0  0  0  0  0  0  0  0  0  0
    5.5124  -12.0275   26.1500 C   0  0  0  0  0  0  0  0  0  0  0  0
    6.7256  -12.6011   25.4689 C   0  0  1  0  0  0  0  0  0  0  0  0
    7.9328  -11.9799   26.1899 C   0  0  0  0  0  0  0  0  0  0  0  0
    6.8597  -14.0771   25.5216 C   0  0  0  0  0  0  0  0  0  0  0  0
    8.0038  -14.6797   24.7775 C   0  0  2  0  0  0  0  0  0  0  0  0
    7.7886  -14.5616   23.3412 N   0  0  0  0  0  0  0  0  0  0  0  0
    8.4160  -16.0226   25.1671 C   0  0  0  0  0  0  0  0  0  0  0  0
    7.5337  -16.8996   25.4841 O   0  0  0  0  0  0  0  0  0  0  0  0
   10.4951  -18.6536   23.2978 C   0  0  0  0  0  0  0  0  0  0  0  0
   11.0702  -18.4359   24.6544 C   0  0  1  0  0  0  0  0  0  0  0  0
   12.2058  -17.6367   24.6659 O   0  0  0  0  0  0  0  0  0  0  0  0
   10.0564  -17.8677   25.6440 C   0  0  2  0  0  0  0  0  0  0  0  0
    9.7563  -16.4955   25.2347 N   0  0  0  0  0  0  0  0  0  0  0  0
   10.6928  -17.9613   26.9672 C   0  0  0  0  0  0  0  0  0  0  0  0
   10.9266  -19.1971   27.5436 O   0  0  0  0  0  0  0  0  0  0  0  0
   11.0345  -16.9418   27.5971 O   0  0  0  0  0  0  0  0  0  0  0  0
  2  3  1  0
  2  1  1  0
  3  4  1  0
  4  5  1  0
  5  1  1  0
  5  6  1  1
  6 13  1  0
  6  7  2  0
  9  8  1  1
  9 10  1  0
 12 11  1  1
 11  9  1  0
 12 14  1  0
 13 12  1  0
 14 15  2  0
 17 16  1  6
 17 18  1  0
 17 19  1  0
 19 20  1  6
 20 14  1  0
 21 19  1  0
 21 22  1  0
 23 21  2  0
M  END
$$$$
