PLT.pdb
     RDKit          3D

 23 23  0  0  1  0  0  0  0  0999 V2000
    7.3244  -15.0540   20.1264 N   0  0  0  0  0  0  0  0  0  0  0  0
    6.4358  -14.1900   19.3786 C   0  0  0  0  0  0  0  0  0  0  0  0
    7.3360  -13.1349   18.7615 C   0  0  0  0  0  0  0  0  0  0  0  0
    8.3386  -12.9167   19.8923 C   0  0  0  0  0  0  0  0  0  0  0  0
    8.5114  -14.3134   20.4227 C   0  0  1  0  0  0  0  0  0  0  0  0
    8.7541  -14.3362   21.8784 C   0  0  0  0  0  0  0  0  0  0  0  0
    9.9284  -14.3545   22.3261 O   0  0  0  0  0  0  0  0  0  0  0  0
    8.0412  -12.3096   26.8003 C   0  0  0  0  0  0  0  0  0  0  0  0
    6.9347  -13.2368   26.3753 C   0  0  1  0  0  0  0  0  0  0  0  0
    5.6347  -12.5701   26.8535 C   0  0  0  0  0  0  0  0  0  0  0  0
    6.8227  -13.4847   24.9175 C   0  0  0  0  0  0  0  0  0  0  0  0
    7.9174  -14.2717   24.2787 C   0  0  2  0  0  0  0  0  0  0  0  0
    7.7145  -14.3388   22.8374 N   0  0  0  0  0  0  0  0  0  0  0  0
    8.2230  -15.5748   24.8563 C   0  0  0  0  0  0  0  0  0  0  0  0
    7.2974  -16.4555   24.9820 O   0  0  0  0  0  0  0  0  0  0  0  0
   10.0600  -18.3816   23.6232 C   0  0  0  0  0  0  0  0  0  0  0  0
   10.6483  -18.0967   24.9616 C   0  0  1  0  0  0  0  0  0  0  0  0
   11.8590  -17.4181   24.9147 O   0  0  0  0  0  0  0  0  0  0  0  0
    9.6930  -17.3393   25.8801 C   0  0  2  0  0  0  0  0  0  0  0  0
    9.4995  -16.0032   25.3162 N   0  0  0  0  0  0  0  0  0  0  0  0
   10.3330  -17.3318   27.2049 C   0  0  0  0  0  0  0  0  0  0  0  0
   10.4543  -18.5050   27.9282 O   0  0  0  0  0  0  0  0  0  0  0  0
   10.7779  -16.2809   27.7054 O   0  0  0  0  0  0  0  0  0  0  0  0
  2  3  1  0
  2  1  1  0
  3  4  1  0
  4  5  1  0
  5  1  1  0
  5  6  1  1
  6 13  1  0
  6  7  2  0
  9  8  1  6
  9 10  1  0
 12 11  1  1
 11  9  1  0
 12 14  1  0
 13 12  1  0
 14 15  2  0
 17 16  1  6
 17 18  1  0
 17 19  1  0
 19 20  1  6
 20 14  1  0
 21 19  1  0
 21 22  1  0
 23 21  2  0
M  END
$$$$
