PLT.pdb
     RDKit          3D

 23 23  0  0  1  0  0  0  0  0999 V2000
    7.3179  -14.9961   20.1396 N   0  0  0  0  0  0  0  0  0  0  0  0
    6.5414  -14.0514   19.3649 C   0  0  0  0  0  0  0  0  0  0  0  0
    7.5617  -13.1135   18.7458 C   0  0  0  0  0  0  0  0  0  0  0  0
    8.5668  -12.9889   19.8885 C   0  0  0  0  0  0  0  0  0  0  0  0
    8.5758  -14.3869   20.4429 C   0  0  1  0  0  0  0  0  0  0  0  0
    8.7944  -14.4118   21.9024 C   0  0  0  0  0  0  0  0  0  0  0  0
    9.9611  -14.4385   22.3692 O   0  0  0  0  0  0  0  0  0  0  0  0
    8.0302  -12.1399   26.6348 C   0  0  0  0  0  0  0  0  0  0  0  0
    6.9449  -13.1324   26.3155 C   0  0  1  0  0  0  0  0  0  0  0  0
    5.6350  -12.4674   26.7685 C   0  0  0  0  0  0  0  0  0  0  0  0
    6.8088  -13.5047   24.8865 C   0  0  0  0  0  0  0  0  0  0  0  0
    7.9173  -14.3029   24.2866 C   0  0  2  0  0  0  0  0  0  0  0  0
    7.7393  -14.4075   22.8442 N   0  0  0  0  0  0  0  0  0  0  0  0
    8.2179  -15.5897   24.9022 C   0  0  0  0  0  0  0  0  0  0  0  0
    7.2806  -16.4460   25.0928 O   0  0  0  0  0  0  0  0  0  0  0  0
   10.1220  -18.4443   23.6727 C   0  0  0  0  0  0  0  0  0  0  0  0
   10.6881  -18.1035   25.0076 C   0  0  1  0  0  0  0  0  0  0  0  0
   11.8719  -17.3795   24.9521 O   0  0  0  0  0  0  0  0  0  0  0  0
    9.6968  -17.3615   25.9002 C   0  0  2  0  0  0  0  0  0  0  0  0
    9.5013  -16.0267   25.3340 N   0  0  0  0  0  0  0  0  0  0  0  0
   10.2987  -17.3488   27.2427 C   0  0  0  0  0  0  0  0  0  0  0  0
   10.4000  -18.5193   27.9734 O   0  0  0  0  0  0  0  0  0  0  0  0
   10.7285  -16.2958   27.7519 O   0  0  0  0  0  0  0  0  0  0  0  0
  2  3  1  0
  2  1  1  0
  3  4  1  0
  4  5  1  0
  5  1  1  0
  5  6  1  1
  6 13  1  0
  6  7  2  0
  9  8  1  6
  9 10  1  0
 12 11  1  1
 11  9  1  0
 12 14  1  0
 13 12  1  0
 14 15  2  0
 17 16  1  6
 17 18  1  0
 17 19  1  0
 19 20  1  6
 20 14  1  0
 21 19  1  0
 21 22  1  0
 23 21  2  0
M  END
$$$$
