IFA.pdb
     RDKit          3D

 25 25  0  0  1  0  0  0  0  0999 V2000
    7.5057  -23.0832   21.7057 C   0  0  0  0  0  0  0  0  0  0  0  0
    6.5433  -21.9989   22.0699 C   0  0  0  0  0  0  0  0  0  0  0  0
    7.2305  -20.6410   22.2898 C   0  0  2  0  0  0  0  0  0  0  0  0
    8.1678  -20.8844   23.4550 C   0  0  0  0  0  0  0  0  0  0  0  0
    6.2641  -19.5699   22.5600 C   0  0  2  0  0  0  0  0  0  0  0  0
    5.2782  -19.4777   21.4714 N   0  0  0  0  0  0  0  0  0  0  0  0
    6.7164  -18.2457   22.9248 C   0  0  0  0  0  0  0  0  0  0  0  0
    7.2056  -17.5127   21.9799 O   0  0  0  0  0  0  0  0  0  0  0  0
    6.7057  -17.6167   24.1709 N   0  0  0  0  0  0  0  0  0  0  0  0
    7.3161  -16.2985   24.4127 C   0  0  1  0  0  0  0  0  0  0  0  0
    6.5342  -15.6916   25.5213 C   0  0  0  0  0  0  0  0  0  0  0  0
    6.9215  -14.3560   25.9423 C   0  0  0  0  0  0  0  0  0  0  0  0
    6.4858  -13.1738   25.3807 C   0  0  0  0  0  0  0  0  0  0  0  0
    6.9110  -11.9412   25.8541 C   0  0  0  0  0  0  0  0  0  0  0  0
    7.7961  -11.8634   26.9173 C   0  0  0  0  0  0  0  0  0  0  0  0
    8.2321  -13.0447   27.4792 C   0  0  0  0  0  0  0  0  0  0  0  0
    7.8031  -14.2505   27.0005 C   0  0  0  0  0  0  0  0  0  0  0  0
    8.7364  -16.5411   24.7553 C   0  0  0  0  0  0  0  0  0  0  0  0
    9.0799  -17.3805   25.6414 O   0  0  0  0  0  0  0  0  0  0  0  0
   11.9627  -15.7326   23.0381 C   0  0  0  0  0  0  0  0  0  0  0  0
   11.1749  -16.2852   24.1845 C   0  0  2  0  0  0  0  0  0  0  0  0
    9.7925  -15.8450   24.1090 N   0  0  0  0  0  0  0  0  0  0  0  0
   11.7715  -15.9073   25.4922 C   0  0  0  0  0  0  0  0  0  0  0  0
   11.0480  -15.2240   26.4465 O   0  0  0  0  0  0  0  0  0  0  0  0
   12.9555  -16.2192   25.7244 O   0  0  0  0  0  0  0  0  0  0  0  0
  2  3  1  0
  2  1  1  0
  3  5  1  0
  3  4  1  1
  5  7  1  0
  5  6  1  6
  7  8  2  0
  9 10  1  0
  9  7  1  0
 10 11  1  1
 11 12  1  0
 12 17  2  0
 13 14  2  0
 13 12  1  0
 14 15  1  0
 15 16  2  0
 17 16  1  0
 18 10  1  0
 19 18  2  0
 21 20  1  6
 21 22  1  0
 22 18  1  0
 23 21  1  0
 23 24  1  0
 25 23  2  0
M  END
$$$$
