IFA.pdb
     RDKit          3D

 25 25  0  0  1  0  0  0  0  0999 V2000
    9.5769  -20.6258   20.5237 C   0  0  0  0  0  0  0  0  0  0  0  0
    9.7165  -19.1445   20.3797 C   0  0  0  0  0  0  0  0  0  0  0  0
    8.4135  -18.4641   19.9283 C   0  0  2  0  0  0  0  0  0  0  0  0
    8.0980  -19.1143   18.5967 C   0  0  0  0  0  0  0  0  0  0  0  0
    8.5587  -17.0074   19.8222 C   0  0  2  0  0  0  0  0  0  0  0  0
    9.5531  -16.6615   18.7940 N   0  0  0  0  0  0  0  0  0  0  0  0
    8.7746  -16.2016   21.0034 C   0  0  0  0  0  0  0  0  0  0  0  0
    9.9949  -15.8752   21.2749 O   0  0  0  0  0  0  0  0  0  0  0  0
    7.8465  -15.7056   21.9206 N   0  0  0  0  0  0  0  0  0  0  0  0
    8.2289  -14.9383   23.1180 C   0  0  1  0  0  0  0  0  0  0  0  0
    7.0511  -14.0932   23.4459 C   0  0  0  0  0  0  0  0  0  0  0  0
    7.1130  -13.3341   24.6832 C   0  0  0  0  0  0  0  0  0  0  0  0
    7.8581  -12.1927   24.8943 C   0  0  0  0  0  0  0  0  0  0  0  0
    7.8518  -11.5327   26.1144 C   0  0  0  0  0  0  0  0  0  0  0  0
    7.0871  -12.0085   27.1674 C   0  0  0  0  0  0  0  0  0  0  0  0
    6.3420  -13.1494   26.9572 C   0  0  0  0  0  0  0  0  0  0  0  0
    6.3596  -13.7872   25.7488 C   0  0  0  0  0  0  0  0  0  0  0  0
    8.5592  -15.9257   24.1713 C   0  0  0  0  0  0  0  0  0  0  0  0
    7.7441  -16.8310   24.5230 O   0  0  0  0  0  0  0  0  0  0  0  0
   11.5380  -17.4989   25.4460 C   0  0  0  0  0  0  0  0  0  0  0  0
   10.1927  -16.9430   25.7943 C   0  0  2  0  0  0  0  0  0  0  0  0
    9.8090  -15.9114   24.8461 N   0  0  0  0  0  0  0  0  0  0  0  0
   10.1615  -16.4126   27.1823 C   0  0  0  0  0  0  0  0  0  0  0  0
   10.4017  -17.2230   28.2716 O   0  0  0  0  0  0  0  0  0  0  0  0
    9.9113  -15.2044   27.3578 O   0  0  0  0  0  0  0  0  0  0  0  0
  2  3  1  0
  2  1  1  0
  3  5  1  0
  3  4  1  6
  5  7  1  0
  5  6  1  6
  7  8  2  0
  9 10  1  0
  9  7  1  0
 10 11  1  1
 11 12  1  0
 12 17  2  0
 13 14  2  0
 13 12  1  0
 14 15  1  0
 15 16  2  0
 17 16  1  0
 18 10  1  0
 19 18  2  0
 21 20  1  6
 21 22  1  0
 22 18  1  0
 23 21  1  0
 23 24  1  0
 25 23  2  0
M  END
$$$$
