IFA.pdb
     RDKit          3D

 25 25  0  0  1  0  0  0  0  0999 V2000
   10.5084  -19.8187   18.5496 C   0  0  0  0  0  0  0  0  0  0  0  0
    9.3847  -18.9129   18.9385 C   0  0  0  0  0  0  0  0  0  0  0  0
    9.7840  -17.9001   20.0244 C   0  0  2  0  0  0  0  0  0  0  0  0
   10.3927  -18.7518   21.1197 C   0  0  0  0  0  0  0  0  0  0  0  0
    8.6376  -17.1139   20.4952 C   0  0  2  0  0  0  0  0  0  0  0  0
    7.9641  -16.4555   19.3645 N   0  0  0  0  0  0  0  0  0  0  0  0
    8.7856  -16.1794   21.5889 C   0  0  0  0  0  0  0  0  0  0  0  0
    9.8183  -15.4034   21.5607 O   0  0  0  0  0  0  0  0  0  0  0  0
    7.9650  -15.9769   22.6998 N   0  0  0  0  0  0  0  0  0  0  0  0
    8.2940  -15.0347   23.7827 C   0  0  1  0  0  0  0  0  0  0  0  0
    6.9933  -14.4809   24.2415 C   0  0  0  0  0  0  0  0  0  0  0  0
    7.0395  -13.5011   25.3134 C   0  0  0  0  0  0  0  0  0  0  0  0
    7.1279  -12.1338   25.1548 C   0  0  0  0  0  0  0  0  0  0  0  0
    7.1639  -11.2741   26.2429 C   0  0  0  0  0  0  0  0  0  0  0  0
    7.1113  -11.7722   27.5348 C   0  0  0  0  0  0  0  0  0  0  0  0
    7.0228  -13.1389   27.6942 C   0  0  0  0  0  0  0  0  0  0  0  0
    6.9884  -13.9716   26.6112 C   0  0  0  0  0  0  0  0  0  0  0  0
    9.0056  -15.8113   24.8239 C   0  0  0  0  0  0  0  0  0  0  0  0
    8.5657  -16.9203   25.2531 O   0  0  0  0  0  0  0  0  0  0  0  0
   12.4570  -15.8849   26.1670 C   0  0  0  0  0  0  0  0  0  0  0  0
   10.9949  -16.1626   26.3261 C   0  0  2  0  0  0  0  0  0  0  0  0
   10.2212  -15.3545   25.3994 N   0  0  0  0  0  0  0  0  0  0  0  0
   10.5419  -15.9314   27.7226 C   0  0  0  0  0  0  0  0  0  0  0  0
    9.5576  -15.0132   28.0208 O   0  0  0  0  0  0  0  0  0  0  0  0
   11.0697  -16.5877   28.6413 O   0  0  0  0  0  0  0  0  0  0  0  0
  2  3  1  0
  2  1  1  0
  3  5  1  0
  3  4  1  1
  5  7  1  0
  5  6  1  6
  7  8  2  0
  9 10  1  0
  9  7  1  0
 10 11  1  1
 11 12  1  0
 12 17  2  0
 13 14  2  0
 13 12  1  0
 14 15  1  0
 15 16  2  0
 17 16  1  0
 18 10  1  0
 19 18  2  0
 21 20  1  1
 21 22  1  0
 22 18  1  0
 23 21  1  0
 23 24  1  0
 25 23  2  0
M  END
$$$$
