IFA.pdb
     RDKit          3D

 25 25  0  0  1  0  0  0  0  0999 V2000
    7.7989  -12.8277   18.2216 C   0  0  0  0  0  0  0  0  0  0  0  0
    7.2768  -13.7247   19.2973 C   0  0  0  0  0  0  0  0  0  0  0  0
    8.1241  -13.6735   20.5795 C   0  0  2  0  0  0  0  0  0  0  0  0
    9.5153  -14.0591   20.1200 C   0  0  0  0  0  0  0  0  0  0  0  0
    7.6069  -14.5703   21.6199 C   0  0  2  0  0  0  0  0  0  0  0  0
    6.1382  -14.4996   21.6787 N   0  0  0  0  0  0  0  0  0  0  0  0
    8.1531  -14.5367   22.9584 C   0  0  0  0  0  0  0  0  0  0  0  0
    8.4011  -13.3724   23.4609 O   0  0  0  0  0  0  0  0  0  0  0  0
    8.4613  -15.5929   23.8175 N   0  0  0  0  0  0  0  0  0  0  0  0
    9.1977  -15.4150   25.0803 C   0  0  1  0  0  0  0  0  0  0  0  0
    8.1631  -15.3821   26.1467 C   0  0  0  0  0  0  0  0  0  0  0  0
    7.4507  -14.1293   26.3307 C   0  0  0  0  0  0  0  0  0  0  0  0
    6.0969  -13.9357   26.1501 C   0  0  0  0  0  0  0  0  0  0  0  0
    5.5037  -12.6983   26.3527 C   0  0  0  0  0  0  0  0  0  0  0  0
    6.2646  -11.6096   26.7469 C   0  0  0  0  0  0  0  0  0  0  0  0
    7.6179  -11.8023   26.9277 C   0  0  0  0  0  0  0  0  0  0  0  0
    8.1862  -13.0280   26.7238 C   0  0  0  0  0  0  0  0  0  0  0  0
   10.1301  -16.5598   25.1967 C   0  0  0  0  0  0  0  0  0  0  0  0
   10.8555  -16.7339   26.2220 O   0  0  0  0  0  0  0  0  0  0  0  0
   12.1013  -18.7015   23.1117 C   0  0  0  0  0  0  0  0  0  0  0  0
   11.1591  -18.6639   24.2741 C   0  0  2  0  0  0  0  0  0  0  0  0
   10.2627  -17.5260   24.1641 N   0  0  0  0  0  0  0  0  0  0  0  0
   11.8876  -18.6301   25.5691 C   0  0  0  0  0  0  0  0  0  0  0  0
   11.7101  -17.6032   26.4719 O   0  0  0  0  0  0  0  0  0  0  0  0
   12.6765  -19.5564   25.8384 O   0  0  0  0  0  0  0  0  0  0  0  0
  2  3  1  0
  2  1  1  0
  3  5  1  0
  3  4  1  6
  5  7  1  0
  5  6  1  1
  7  8  2  0
  9 10  1  0
  9  7  1  0
 10 11  1  1
 11 12  1  0
 12 17  2  0
 13 14  2  0
 13 12  1  0
 14 15  1  0
 15 16  2  0
 17 16  1  0
 18 10  1  0
 19 18  2  0
 21 20  1  6
 21 22  1  0
 22 18  1  0
 23 21  1  0
 23 24  1  0
 25 23  2  0
M  END
$$$$
