IFA.pdb
     RDKit          3D

 25 25  0  0  1  0  0  0  0  0999 V2000
    7.7225  -15.1699   17.0234 C   0  0  0  0  0  0  0  0  0  0  0  0
    7.6372  -14.1921   18.1507 C   0  0  0  0  0  0  0  0  0  0  0  0
    8.2296  -14.7388   19.4602 C   0  0  2  0  0  0  0  0  0  0  0  0
    7.4583  -16.0187   19.7099 C   0  0  0  0  0  0  0  0  0  0  0  0
    8.1036  -13.7817   20.5657 C   0  0  2  0  0  0  0  0  0  0  0  0
    8.5802  -12.4518   20.1538 N   0  0  0  0  0  0  0  0  0  0  0  0
    8.6188  -14.1019   21.8784 C   0  0  0  0  0  0  0  0  0  0  0  0
    9.8037  -13.6729   22.1634 O   0  0  0  0  0  0  0  0  0  0  0  0
    8.0203  -14.8197   22.9154 N   0  0  0  0  0  0  0  0  0  0  0  0
    8.6344  -14.9774   24.2446 C   0  0  1  0  0  0  0  0  0  0  0  0
    7.5067  -14.9572   25.2124 C   0  0  0  0  0  0  0  0  0  0  0  0
    7.1072  -13.6583   25.7266 C   0  0  0  0  0  0  0  0  0  0  0  0
    5.8150  -13.1818   25.8017 C   0  0  0  0  0  0  0  0  0  0  0  0
    5.5299  -11.9239   26.3122 C   0  0  0  0  0  0  0  0  0  0  0  0
    6.5486  -11.1018   26.7663 C   0  0  0  0  0  0  0  0  0  0  0  0
    7.8407  -11.5774   26.6916 C   0  0  0  0  0  0  0  0  0  0  0  0
    8.1039  -12.8192   26.1858 C   0  0  0  0  0  0  0  0  0  0  0  0
    9.3732  -16.2609   24.2249 C   0  0  0  0  0  0  0  0  0  0  0  0
    9.8279  -16.7906   25.2833 O   0  0  0  0  0  0  0  0  0  0  0  0
   10.2358  -18.8552   21.6303 C   0  0  0  0  0  0  0  0  0  0  0  0
   10.3435  -18.2241   22.9832 C   0  0  2  0  0  0  0  0  0  0  0  0
    9.6131  -16.9687   23.0170 N   0  0  0  0  0  0  0  0  0  0  0  0
   11.7606  -18.0132   23.3784 C   0  0  0  0  0  0  0  0  0  0  0  0
   12.6420  -19.0666   23.4988 O   0  0  0  0  0  0  0  0  0  0  0  0
   12.1543  -16.8527   23.6049 O   0  0  0  0  0  0  0  0  0  0  0  0
  2  3  1  0
  2  1  1  0
  3  5  1  0
  3  4  1  1
  5  7  1  0
  5  6  1  6
  7  8  2  0
  9 10  1  0
  9  7  1  0
 10 11  1  1
 11 12  1  0
 12 17  2  0
 13 14  2  0
 13 12  1  0
 14 15  1  0
 15 16  2  0
 17 16  1  0
 18 10  1  0
 19 18  2  0
 21 20  1  6
 21 22  1  0
 22 18  1  0
 23 21  1  0
 23 24  1  0
 25 23  2  0
M  END
$$$$
