IFA.pdb
     RDKit          3D

 25 25  0  0  1  0  0  0  0  0999 V2000
    8.2902  -11.9159   19.6870 C   0  0  0  0  0  0  0  0  0  0  0  0
    7.7698  -12.8781   20.7056 C   0  0  0  0  0  0  0  0  0  0  0  0
    8.2753  -14.3132   20.4830 C   0  0  2  0  0  0  0  0  0  0  0  0
    7.7656  -14.6758   19.1032 C   0  0  0  0  0  0  0  0  0  0  0  0
    7.7959  -15.2350   21.5196 C   0  0  2  0  0  0  0  0  0  0  0  0
    6.3325  -15.3740   21.4499 N   0  0  0  0  0  0  0  0  0  0  0  0
    8.2076  -15.0725   22.8963 C   0  0  0  0  0  0  0  0  0  0  0  0
    7.9265  -13.9459   23.4628 O   0  0  0  0  0  0  0  0  0  0  0  0
    8.8778  -15.9666   23.7331 N   0  0  0  0  0  0  0  0  0  0  0  0
    9.1669  -15.6819   25.1488 C   0  0  1  0  0  0  0  0  0  0  0  0
    7.8426  -15.5279   25.8055 C   0  0  0  0  0  0  0  0  0  0  0  0
    7.4010  -14.1713   26.0805 C   0  0  0  0  0  0  0  0  0  0  0  0
    8.1843  -13.1528   26.5823 C   0  0  0  0  0  0  0  0  0  0  0  0
    7.6725  -11.8839   26.8109 C   0  0  0  0  0  0  0  0  0  0  0  0
    6.3437  -11.6018   26.5378 C   0  0  0  0  0  0  0  0  0  0  0  0
    5.5600  -12.6194   26.0362 C   0  0  0  0  0  0  0  0  0  0  0  0
    6.0803  -13.8637   25.8169 C   0  0  0  0  0  0  0  0  0  0  0  0
    9.9521  -16.8273   25.6637 C   0  0  0  0  0  0  0  0  0  0  0  0
   10.2112  -16.9637   26.8974 O   0  0  0  0  0  0  0  0  0  0  0  0
   10.8071  -20.2258   24.6069 C   0  0  0  0  0  0  0  0  0  0  0  0
   11.2291  -18.9650   25.2944 C   0  0  2  0  0  0  0  0  0  0  0  0
   10.4586  -17.8362   24.8018 N   0  0  0  0  0  0  0  0  0  0  0  0
   12.6848  -18.7130   25.1318 C   0  0  0  0  0  0  0  0  0  0  0  0
   13.1568  -17.5741   24.5145 O   0  0  0  0  0  0  0  0  0  0  0  0
   13.4923  -19.5566   25.5668 O   0  0  0  0  0  0  0  0  0  0  0  0
  2  3  1  0
  2  1  1  0
  3  5  1  0
  3  4  1  6
  5  7  1  0
  5  6  1  1
  7  8  2  0
  9 10  1  0
  9  7  1  0
 10 11  1  1
 11 12  1  0
 12 17  2  0
 13 14  2  0
 13 12  1  0
 14 15  1  0
 15 16  2  0
 17 16  1  0
 18 10  1  0
 19 18  2  0
 21 20  1  6
 21 22  1  0
 22 18  1  0
 23 21  1  0
 23 24  1  0
 25 23  2  0
M  END
$$$$
