IFA.pdb
     RDKit          3D

 25 25  0  0  1  0  0  0  0  0999 V2000
   10.6442  -18.3910   18.5615 C   0  0  0  0  0  0  0  0  0  0  0  0
   10.0749  -18.3601   19.9433 C   0  0  0  0  0  0  0  0  0  0  0  0
   11.1454  -18.5369   21.0330 C   0  0  2  0  0  0  0  0  0  0  0  0
   11.6745  -19.9388   20.8086 C   0  0  0  0  0  0  0  0  0  0  0  0
   10.5968  -18.3523   22.3817 C   0  0  2  0  0  0  0  0  0  0  0  0
    9.4626  -19.2627   22.6066 N   0  0  0  0  0  0  0  0  0  0  0  0
   10.2679  -17.0306   22.8677 C   0  0  0  0  0  0  0  0  0  0  0  0
   11.0985  -16.0808   22.5896 O   0  0  0  0  0  0  0  0  0  0  0  0
    9.1631  -16.6074   23.6086 N   0  0  0  0  0  0  0  0  0  0  0  0
    9.0230  -15.2392   24.1350 C   0  0  1  0  0  0  0  0  0  0  0  0
    7.6018  -15.1129   24.5508 C   0  0  0  0  0  0  0  0  0  0  0  0
    7.1891  -13.8302   25.0941 C   0  0  0  0  0  0  0  0  0  0  0  0
    7.5727  -12.5920   24.6225 C   0  0  0  0  0  0  0  0  0  0  0  0
    7.1232  -11.4173   25.2076 C   0  0  0  0  0  0  0  0  0  0  0  0
    6.2659  -11.4566   26.2953 C   0  0  0  0  0  0  0  0  0  0  0  0
    5.8819  -12.6940   26.7674 C   0  0  0  0  0  0  0  0  0  0  0  0
    6.3342  -13.8414   26.1791 C   0  0  0  0  0  0  0  0  0  0  0  0
    9.9805  -15.1129   25.2580 C   0  0  0  0  0  0  0  0  0  0  0  0
   11.0350  -14.4147   25.1665 O   0  0  0  0  0  0  0  0  0  0  0  0
   10.1986  -14.2718   28.3560 C   0  0  0  0  0  0  0  0  0  0  0  0
   10.6122  -15.5300   27.6588 C   0  0  2  0  0  0  0  0  0  0  0  0
    9.7691  -15.7686   26.5001 N   0  0  0  0  0  0  0  0  0  0  0  0
   10.5815  -16.6997   28.5752 C   0  0  0  0  0  0  0  0  0  0  0  0
    9.8065  -17.8081   28.3071 O   0  0  0  0  0  0  0  0  0  0  0  0
   11.2763  -16.6704   29.6094 O   0  0  0  0  0  0  0  0  0  0  0  0
  2  3  1  0
  2  1  1  0
  3  5  1  0
  3  4  1  1
  5  7  1  0
  5  6  1  6
  7  8  2  0
  9 10  1  0
  9  7  1  0
 10 11  1  1
 11 12  1  0
 12 17  2  0
 13 14  2  0
 13 12  1  0
 14 15  1  0
 15 16  2  0
 17 16  1  0
 18 10  1  0
 19 18  2  0
 21 20  1  1
 21 22  1  0
 22 18  1  0
 23 21  1  0
 23 24  1  0
 25 23  2  0
M  END
$$$$
