IFA.pdb
     RDKit          3D

 25 25  0  0  1  0  0  0  0  0999 V2000
   11.0223  -20.7029   19.9329 C   0  0  0  0  0  0  0  0  0  0  0  0
   10.0586  -19.5687   19.7940 C   0  0  0  0  0  0  0  0  0  0  0  0
   10.2464  -18.4913   20.8750 C   0  0  2  0  0  0  0  0  0  0  0  0
   10.0525  -19.2372   22.1793 C   0  0  0  0  0  0  0  0  0  0  0  0
    9.3012  -17.3796   20.7172 C   0  0  2  0  0  0  0  0  0  0  0  0
    9.3407  -16.8599   19.3410 N   0  0  0  0  0  0  0  0  0  0  0  0
    9.2954  -16.2799   21.6563 C   0  0  0  0  0  0  0  0  0  0  0  0
   10.3075  -15.4773   21.6248 O   0  0  0  0  0  0  0  0  0  0  0  0
    8.3414  -15.9384   22.6165 N   0  0  0  0  0  0  0  0  0  0  0  0
    8.5219  -14.8336   23.5733 C   0  0  1  0  0  0  0  0  0  0  0  0
    7.1570  -14.3131   23.8471 C   0  0  0  0  0  0  0  0  0  0  0  0
    7.0375  -13.2976   24.8794 C   0  0  0  0  0  0  0  0  0  0  0  0
    7.5413  -12.0152   24.8133 C   0  0  0  0  0  0  0  0  0  0  0  0
    7.3746  -11.1116   25.8524 C   0  0  0  0  0  0  0  0  0  0  0  0
    6.6887  -11.4775   26.9994 C   0  0  0  0  0  0  0  0  0  0  0  0
    6.1848  -12.7592   27.0663 C   0  0  0  0  0  0  0  0  0  0  0  0
    6.3580  -13.6368   26.0333 C   0  0  0  0  0  0  0  0  0  0  0  0
    9.1864  -15.4058   24.7669 C   0  0  0  0  0  0  0  0  0  0  0  0
    9.7200  -14.6741   25.6543 O   0  0  0  0  0  0  0  0  0  0  0  0
    8.9730  -18.4217   26.7655 C   0  0  0  0  0  0  0  0  0  0  0  0
    9.8690  -17.3803   26.1716 C   0  0  2  0  0  0  0  0  0  0  0  0
    9.2626  -16.8078   24.9820 N   0  0  0  0  0  0  0  0  0  0  0  0
   11.2143  -17.9287   25.8581 C   0  0  0  0  0  0  0  0  0  0  0  0
   11.7381  -17.8749   24.5839 O   0  0  0  0  0  0  0  0  0  0  0  0
   11.8791  -18.4486   26.7751 O   0  0  0  0  0  0  0  0  0  0  0  0
  2  3  1  0
  2  1  1  0
  3  5  1  0
  3  4  1  1
  5  7  1  0
  5  6  1  6
  7  8  2  0
  9 10  1  0
  9  7  1  0
 10 11  1  1
 11 12  1  0
 12 17  2  0
 13 14  2  0
 13 12  1  0
 14 15  1  0
 15 16  2  0
 17 16  1  0
 18 10  1  0
 19 18  2  0
 21 20  1  6
 21 22  1  0
 22 18  1  0
 23 21  1  0
 23 24  1  0
 25 23  2  0
M  END
$$$$
