IFA.pdb
     RDKit          3D

 25 25  0  0  1  0  0  0  0  0999 V2000
    9.6346  -20.2784   19.1701 C   0  0  0  0  0  0  0  0  0  0  0  0
    9.5057  -18.7892   19.1615 C   0  0  0  0  0  0  0  0  0  0  0  0
    9.5785  -18.1765   20.5699 C   0  0  2  0  0  0  0  0  0  0  0  0
    8.4486  -18.8468   21.3245 C   0  0  0  0  0  0  0  0  0  0  0  0
    9.4478  -16.7148   20.5441 C   0  0  2  0  0  0  0  0  0  0  0  0
   10.4310  -16.1250   19.6215 N   0  0  0  0  0  0  0  0  0  0  0  0
    9.4154  -15.9572   21.7754 C   0  0  0  0  0  0  0  0  0  0  0  0
   10.5525  -15.6803   22.3230 O   0  0  0  0  0  0  0  0  0  0  0  0
    8.3190  -15.4626   22.4840 N   0  0  0  0  0  0  0  0  0  0  0  0
    8.4497  -14.6548   23.7084 C   0  0  1  0  0  0  0  0  0  0  0  0
    7.2001  -13.8551   23.7965 C   0  0  0  0  0  0  0  0  0  0  0  0
    7.0214  -13.0476   24.9911 C   0  0  0  0  0  0  0  0  0  0  0  0
    6.0367  -13.2183   25.9418 C   0  0  0  0  0  0  0  0  0  0  0  0
    5.9470  -12.3954   27.0549 C   0  0  0  0  0  0  0  0  0  0  0  0
    6.8557  -11.3667   27.2441 C   0  0  0  0  0  0  0  0  0  0  0  0
    7.8403  -11.1953   26.2942 C   0  0  0  0  0  0  0  0  0  0  0  0
    7.9143  -12.0151   25.2035 C   0  0  0  0  0  0  0  0  0  0  0  0
    8.6235  -15.6049   24.8312 C   0  0  0  0  0  0  0  0  0  0  0  0
    8.7597  -15.2118   26.0290 O   0  0  0  0  0  0  0  0  0  0  0  0
    8.0988  -19.2529   25.3605 C   0  0  0  0  0  0  0  0  0  0  0  0
    8.7480  -17.9547   25.7258 C   0  0  2  0  0  0  0  0  0  0  0  0
    8.6477  -17.0102   24.6265 N   0  0  0  0  0  0  0  0  0  0  0  0
   10.1679  -18.1443   26.1219 C   0  0  0  0  0  0  0  0  0  0  0  0
   11.1947  -17.5045   25.4605 O   0  0  0  0  0  0  0  0  0  0  0  0
   10.4288  -18.9019   27.0764 O   0  0  0  0  0  0  0  0  0  0  0  0
  2  3  1  0
  2  1  1  0
  3  5  1  0
  3  4  1  1
  5  7  1  0
  5  6  1  6
  7  8  2  0
  9 10  1  0
  9  7  1  0
 10 11  1  1
 11 12  1  0
 12 17  2  0
 13 14  2  0
 13 12  1  0
 14 15  1  0
 15 16  2  0
 17 16  1  0
 18 10  1  0
 19 18  2  0
 21 20  1  6
 21 22  1  0
 22 18  1  0
 23 21  1  0
 23 24  1  0
 25 23  2  0
M  END
$$$$
