IFA.pdb
     RDKit          3D

 25 25  0  0  1  0  0  0  0  0999 V2000
    7.9870  -11.7019   19.8013 C   0  0  0  0  0  0  0  0  0  0  0  0
    7.5285  -12.7850   20.7239 C   0  0  0  0  0  0  0  0  0  0  0  0
    8.2212  -14.1310   20.4536 C   0  0  2  0  0  0  0  0  0  0  0  0
    7.8171  -14.4775   19.0351 C   0  0  0  0  0  0  0  0  0  0  0  0
    7.8221  -15.1616   21.4194 C   0  0  2  0  0  0  0  0  0  0  0  0
    6.3824  -15.4448   21.3065 N   0  0  0  0  0  0  0  0  0  0  0  0
    8.1911  -15.0464   22.8129 C   0  0  0  0  0  0  0  0  0  0  0  0
    7.9300  -13.9240   23.3971 O   0  0  0  0  0  0  0  0  0  0  0  0
    8.7999  -15.9833   23.6496 N   0  0  0  0  0  0  0  0  0  0  0  0
    9.1120  -15.7169   25.0640 C   0  0  1  0  0  0  0  0  0  0  0  0
    7.7991  -15.6308   25.7551 C   0  0  0  0  0  0  0  0  0  0  0  0
    7.2980  -14.2986   26.0469 C   0  0  0  0  0  0  0  0  0  0  0  0
    5.9769  -13.9597   26.2535 C   0  0  0  0  0  0  0  0  0  0  0  0
    5.5931  -12.6557   26.5297 C   0  0  0  0  0  0  0  0  0  0  0  0
    6.5383  -11.6455   26.6063 C   0  0  0  0  0  0  0  0  0  0  0  0
    7.8591  -11.9834   26.3999 C   0  0  0  0  0  0  0  0  0  0  0  0
    8.2200  -13.2731   26.1289 C   0  0  0  0  0  0  0  0  0  0  0  0
    9.9550  -16.8399   25.5348 C   0  0  0  0  0  0  0  0  0  0  0  0
   10.3415  -16.9310   26.7390 O   0  0  0  0  0  0  0  0  0  0  0  0
   11.0011  -20.1732   24.2044 C   0  0  0  0  0  0  0  0  0  0  0  0
   11.1780  -19.0003   25.1173 C   0  0  2  0  0  0  0  0  0  0  0  0
   10.3774  -17.8771   24.6612 N   0  0  0  0  0  0  0  0  0  0  0  0
   12.6067  -18.6081   25.2352 C   0  0  0  0  0  0  0  0  0  0  0  0
   13.0710  -17.4096   24.7362 O   0  0  0  0  0  0  0  0  0  0  0  0
   13.3984  -19.3872   25.8003 O   0  0  0  0  0  0  0  0  0  0  0  0
  2  3  1  0
  2  1  1  0
  3  5  1  0
  3  4  1  6
  5  7  1  0
  5  6  1  1
  7  8  2  0
  9 10  1  0
  9  7  1  0
 10 11  1  1
 11 12  1  0
 12 17  2  0
 13 14  2  0
 13 12  1  0
 14 15  1  0
 15 16  2  0
 17 16  1  0
 18 10  1  0
 19 18  2  0
 21 20  1  6
 21 22  1  0
 22 18  1  0
 23 21  1  0
 23 24  1  0
 25 23  2  0
M  END
$$$$
