IFA.pdb
     RDKit          3D

 25 25  0  0  1  0  0  0  0  0999 V2000
    7.6741  -18.6855   16.9085 C   0  0  0  0  0  0  0  0  0  0  0  0
    7.3675  -17.3040   17.3900 C   0  0  0  0  0  0  0  0  0  0  0  0
    8.0062  -16.9926   18.7537 C   0  0  2  0  0  0  0  0  0  0  0  0
    7.5818  -18.1499   19.6346 C   0  0  0  0  0  0  0  0  0  0  0  0
    7.5726  -15.6944   19.2835 C   0  0  2  0  0  0  0  0  0  0  0  0
    7.8156  -14.6280   18.2988 N   0  0  0  0  0  0  0  0  0  0  0  0
    7.9963  -15.2562   20.5949 C   0  0  0  0  0  0  0  0  0  0  0  0
    9.2189  -14.8552   20.7119 O   0  0  0  0  0  0  0  0  0  0  0  0
    7.2719  -15.1949   21.7865 N   0  0  0  0  0  0  0  0  0  0  0  0
    7.8431  -14.7027   23.0515 C   0  0  1  0  0  0  0  0  0  0  0  0
    6.6913  -14.1923   23.8400 C   0  0  0  0  0  0  0  0  0  0  0  0
    6.9861  -13.6495   25.1551 C   0  0  0  0  0  0  0  0  0  0  0  0
    7.3282  -14.3816   26.2730 C   0  0  0  0  0  0  0  0  0  0  0  0
    7.5953  -13.7724   27.4902 C   0  0  0  0  0  0  0  0  0  0  0  0
    7.5248  -12.3945   27.6175 C   0  0  0  0  0  0  0  0  0  0  0  0
    7.1830  -11.6619   26.5005 C   0  0  0  0  0  0  0  0  0  0  0  0
    6.9230  -12.2782   25.3089 C   0  0  0  0  0  0  0  0  0  0  0  0
    8.5307  -15.8510   23.6858 C   0  0  0  0  0  0  0  0  0  0  0  0
    8.0182  -17.0104   23.7111 O   0  0  0  0  0  0  0  0  0  0  0  0
   11.6521  -17.2350   23.9259 C   0  0  0  0  0  0  0  0  0  0  0  0
   10.5318  -16.8504   24.8408 C   0  0  2  0  0  0  0  0  0  0  0  0
    9.8034  -15.7150   24.3015 N   0  0  0  0  0  0  0  0  0  0  0  0
   11.0217  -16.5516   26.2118 C   0  0  0  0  0  0  0  0  0  0  0  0
   11.6444  -17.5108   26.9821 O   0  0  0  0  0  0  0  0  0  0  0  0
   10.8621  -15.4035   26.6694 O   0  0  0  0  0  0  0  0  0  0  0  0
  2  3  1  0
  2  1  1  0
  3  5  1  0
  3  4  1  1
  5  7  1  0
  5  6  1  6
  7  8  2  0
  9 10  1  0
  9  7  1  0
 10 11  1  1
 11 12  1  0
 12 17  2  0
 13 14  2  0
 13 12  1  0
 14 15  1  0
 15 16  2  0
 17 16  1  0
 18 10  1  0
 19 18  2  0
 21 20  1  6
 21 22  1  0
 22 18  1  0
 23 21  1  0
 23 24  1  0
 25 23  2  0
M  END
$$$$
