IFA.pdb
     RDKit          3D

 25 25  0  0  1  0  0  0  0  0999 V2000
    9.7626  -21.3611   20.7426 C   0  0  0  0  0  0  0  0  0  0  0  0
    9.4400  -19.9380   20.4182 C   0  0  0  0  0  0  0  0  0  0  0  0
    9.5664  -19.0060   21.6347 C   0  0  2  0  0  0  0  0  0  0  0  0
    8.5951  -19.5815   22.6450 C   0  0  0  0  0  0  0  0  0  0  0  0
    9.2635  -17.6105   21.2955 C   0  0  2  0  0  0  0  0  0  0  0  0
   10.0806  -17.1678   20.1544 N   0  0  0  0  0  0  0  0  0  0  0  0
    9.2573  -16.5892   22.3192 C   0  0  0  0  0  0  0  0  0  0  0  0
   10.4028  -16.1073   22.6729 O   0  0  0  0  0  0  0  0  0  0  0  0
    8.1789  -16.0250   23.0028 N   0  0  0  0  0  0  0  0  0  0  0  0
    8.3361  -15.0027   24.0510 C   0  0  1  0  0  0  0  0  0  0  0  0
    7.0627  -14.2364   24.0581 C   0  0  0  0  0  0  0  0  0  0  0  0
    6.9004  -13.2442   25.1071 C   0  0  0  0  0  0  0  0  0  0  0  0
    7.7195  -12.1556   25.3232 C   0  0  0  0  0  0  0  0  0  0  0  0
    7.4824  -11.2576   26.3534 C   0  0  0  0  0  0  0  0  0  0  0  0
    6.4027  -11.4321   27.2041 C   0  0  0  0  0  0  0  0  0  0  0  0
    5.5834  -12.5200   26.9887 C   0  0  0  0  0  0  0  0  0  0  0  0
    5.8314  -13.3951   25.9689 C   0  0  0  0  0  0  0  0  0  0  0  0
    8.5980  -15.7250   25.3172 C   0  0  0  0  0  0  0  0  0  0  0  0
    9.0879  -15.1449   26.3327 O   0  0  0  0  0  0  0  0  0  0  0  0
    7.7493  -19.0856   26.7446 C   0  0  0  0  0  0  0  0  0  0  0  0
    8.5583  -17.8271   26.7017 C   0  0  2  0  0  0  0  0  0  0  0  0
    8.3144  -17.1092   25.4625 N   0  0  0  0  0  0  0  0  0  0  0  0
   10.0094  -18.1026   26.8674 C   0  0  0  0  0  0  0  0  0  0  0  0
   10.9324  -17.7104   25.9212 O   0  0  0  0  0  0  0  0  0  0  0  0
   10.3935  -18.7033   27.8895 O   0  0  0  0  0  0  0  0  0  0  0  0
  2  3  1  0
  2  1  1  0
  3  5  1  0
  3  4  1  1
  5  7  1  0
  5  6  1  6
  7  8  2  0
  9 10  1  0
  9  7  1  0
 10 11  1  1
 11 12  1  0
 12 17  2  0
 13 14  2  0
 13 12  1  0
 14 15  1  0
 15 16  2  0
 17 16  1  0
 18 10  1  0
 19 18  2  0
 21 20  1  6
 21 22  1  0
 22 18  1  0
 23 21  1  0
 23 24  1  0
 25 23  2  0
M  END
$$$$
