IFA.pdb
     RDKit          3D

 25 25  0  0  1  0  0  0  0  0999 V2000
    7.5682  -12.2996   19.4301 C   0  0  0  0  0  0  0  0  0  0  0  0
    7.6688  -13.4942   20.3231 C   0  0  0  0  0  0  0  0  0  0  0  0
    8.7617  -14.4803   19.8785 C   0  0  2  0  0  0  0  0  0  0  0  0
    8.2585  -15.0192   18.5550 C   0  0  0  0  0  0  0  0  0  0  0  0
    8.9854  -15.5404   20.8686 C   0  0  2  0  0  0  0  0  0  0  0  0
    7.8909  -16.5234   20.8283 N   0  0  0  0  0  0  0  0  0  0  0  0
    9.2977  -15.2109   22.2416 C   0  0  0  0  0  0  0  0  0  0  0  0
   10.3172  -14.4430   22.4423 O   0  0  0  0  0  0  0  0  0  0  0  0
    8.6524  -15.6011   23.4163 N   0  0  0  0  0  0  0  0  0  0  0  0
    9.0231  -15.0895   24.7466 C   0  0  1  0  0  0  0  0  0  0  0  0
    7.7929  -15.1943   25.5737 C   0  0  0  0  0  0  0  0  0  0  0  0
    7.2900  -13.9635   26.1596 C   0  0  0  0  0  0  0  0  0  0  0  0
    7.8098  -13.3240   27.2657 C   0  0  0  0  0  0  0  0  0  0  0  0
    7.2610  -12.1467   27.7525 C   0  0  0  0  0  0  0  0  0  0  0  0
    6.1618  -11.5742   27.1330 C   0  0  0  0  0  0  0  0  0  0  0  0
    5.6416  -12.2129   26.0272 C   0  0  0  0  0  0  0  0  0  0  0  0
    6.1946  -13.3721   25.5607 C   0  0  0  0  0  0  0  0  0  0  0  0
   10.1371  -15.9348   25.2347 C   0  0  0  0  0  0  0  0  0  0  0  0
   11.2423  -16.0116   24.6181 O   0  0  0  0  0  0  0  0  0  0  0  0
   11.4283  -15.4425   27.9408 C   0  0  0  0  0  0  0  0  0  0  0  0
   11.1032  -16.7971   27.3935 C   0  0  2  0  0  0  0  0  0  0  0  0
   10.0270  -16.7069   26.4218 N   0  0  0  0  0  0  0  0  0  0  0  0
   10.7507  -17.7546   28.4741 C   0  0  0  0  0  0  0  0  0  0  0  0
   11.6802  -18.1693   29.4043 O   0  0  0  0  0  0  0  0  0  0  0  0
    9.5842  -18.1890   28.5343 O   0  0  0  0  0  0  0  0  0  0  0  0
  2  3  1  0
  2  1  1  0
  3  5  1  0
  3  4  1  6
  5  7  1  0
  5  6  1  1
  7  8  2  0
  9 10  1  0
  9  7  1  0
 10 11  1  1
 11 12  1  0
 12 17  2  0
 13 14  2  0
 13 12  1  0
 14 15  1  0
 15 16  2  0
 17 16  1  0
 18 10  1  0
 19 18  2  0
 21 20  1  1
 21 22  1  0
 22 18  1  0
 23 21  1  0
 23 24  1  0
 25 23  2  0
M  END
$$$$
