IFA.pdb
     RDKit          3D

 25 25  0  0  1  0  0  0  0  0999 V2000
    7.8198  -13.0066   16.8389 C   0  0  0  0  0  0  0  0  0  0  0  0
    8.2630  -14.0965   17.7610 C   0  0  0  0  0  0  0  0  0  0  0  0
    8.2747  -13.6616   19.2358 C   0  0  2  0  0  0  0  0  0  0  0  0
    9.1975  -12.4603   19.2606 C   0  0  0  0  0  0  0  0  0  0  0  0
    8.7281  -14.7372   20.1256 C   0  0  2  0  0  0  0  0  0  0  0  0
    7.9710  -15.9727   19.8691 N   0  0  0  0  0  0  0  0  0  0  0  0
    8.8374  -14.5163   21.5505 C   0  0  0  0  0  0  0  0  0  0  0  0
    9.7591  -13.7029   21.9483 O   0  0  0  0  0  0  0  0  0  0  0  0
    8.0819  -15.0569   22.5925 N   0  0  0  0  0  0  0  0  0  0  0  0
    8.2191  -14.6263   23.9941 C   0  0  1  0  0  0  0  0  0  0  0  0
    6.8468  -14.2720   24.4411 C   0  0  0  0  0  0  0  0  0  0  0  0
    6.7374  -13.4559   25.6382 C   0  0  0  0  0  0  0  0  0  0  0  0
    6.0481  -13.7918   26.7847 C   0  0  0  0  0  0  0  0  0  0  0  0
    6.0020  -12.9452   27.8825 C   0  0  0  0  0  0  0  0  0  0  0  0
    6.6555  -11.7237   27.8567 C   0  0  0  0  0  0  0  0  0  0  0  0
    7.3449  -11.3872   26.7109 C   0  0  0  0  0  0  0  0  0  0  0  0
    7.3801  -12.2331   25.6384 C   0  0  0  0  0  0  0  0  0  0  0  0
    8.8064  -15.7658   24.7360 C   0  0  0  0  0  0  0  0  0  0  0  0
    8.7659  -15.8360   26.0013 O   0  0  0  0  0  0  0  0  0  0  0  0
    9.9137  -19.2134   23.8848 C   0  0  0  0  0  0  0  0  0  0  0  0
    9.9433  -18.0114   24.7762 C   0  0  2  0  0  0  0  0  0  0  0  0
    9.4484  -16.8430   24.0690 N   0  0  0  0  0  0  0  0  0  0  0  0
   11.3071  -17.7585   25.3101 C   0  0  0  0  0  0  0  0  0  0  0  0
   11.9809  -16.5850   25.0456 O   0  0  0  0  0  0  0  0  0  0  0  0
   11.8483  -18.6335   26.0133 O   0  0  0  0  0  0  0  0  0  0  0  0
  2  3  1  0
  2  1  1  0
  3  5  1  0
  3  4  1  6
  5  7  1  0
  5  6  1  1
  7  8  2  0
  9 10  1  0
  9  7  1  0
 10 11  1  1
 11 12  1  0
 12 17  2  0
 13 14  2  0
 13 12  1  0
 14 15  1  0
 15 16  2  0
 17 16  1  0
 18 10  1  0
 19 18  2  0
 21 20  1  6
 21 22  1  0
 22 18  1  0
 23 21  1  0
 23 24  1  0
 25 23  2  0
M  END
$$$$
