IFA.pdb
     RDKit          3D

 25 25  0  0  1  0  0  0  0  0999 V2000
   10.4903  -21.0388   21.8971 C   0  0  0  0  0  0  0  0  0  0  0  0
   10.3141  -19.6294   21.4313 C   0  0  0  0  0  0  0  0  0  0  0  0
    8.8447  -19.2738   21.1501 C   0  0  2  0  0  0  0  0  0  0  0  0
    8.4394  -20.2232   20.0412 C   0  0  0  0  0  0  0  0  0  0  0  0
    8.6796  -17.8651   20.7724 C   0  0  2  0  0  0  0  0  0  0  0  0
    9.4486  -17.5638   19.5545 N   0  0  0  0  0  0  0  0  0  0  0  0
    8.8737  -16.8145   21.7469 C   0  0  0  0  0  0  0  0  0  0  0  0
   10.0386  -16.2565   21.7826 O   0  0  0  0  0  0  0  0  0  0  0  0
    7.9756  -16.2926   22.6795 N   0  0  0  0  0  0  0  0  0  0  0  0
    8.3595  -15.3036   23.7009 C   0  0  1  0  0  0  0  0  0  0  0  0
    7.1140  -14.5621   24.0293 C   0  0  0  0  0  0  0  0  0  0  0  0
    7.2008  -13.5716   25.0887 C   0  0  0  0  0  0  0  0  0  0  0  0
    8.0633  -12.4956   25.1199 C   0  0  0  0  0  0  0  0  0  0  0  0
    8.0717  -11.5979   26.1774 C   0  0  0  0  0  0  0  0  0  0  0  0
    7.2028  -11.7600   27.2445 C   0  0  0  0  0  0  0  0  0  0  0  0
    6.3402  -12.8354   27.2140 C   0  0  0  0  0  0  0  0  0  0  0  0
    6.3452  -13.7102   26.1643 C   0  0  0  0  0  0  0  0  0  0  0  0
    8.9138  -16.0635   24.8450 C   0  0  0  0  0  0  0  0  0  0  0  0
    8.2391  -16.9470   25.4548 O   0  0  0  0  0  0  0  0  0  0  0  0
   12.3211  -16.7168   26.1862 C   0  0  0  0  0  0  0  0  0  0  0  0
   10.8348  -16.6677   26.3556 C   0  0  2  0  0  0  0  0  0  0  0  0
   10.2333  -15.8428   25.3221 N   0  0  0  0  0  0  0  0  0  0  0  0
   10.4529  -16.1741   27.7044 C   0  0  0  0  0  0  0  0  0  0  0  0
    9.7221  -15.0167   27.8706 O   0  0  0  0  0  0  0  0  0  0  0  0
   10.8056  -16.8279   28.7050 O   0  0  0  0  0  0  0  0  0  0  0  0
  2  3  1  0
  2  1  1  0
  3  5  1  0
  3  4  1  6
  5  7  1  0
  5  6  1  6
  7  8  2  0
  9 10  1  0
  9  7  1  0
 10 11  1  1
 11 12  1  0
 12 17  2  0
 13 14  2  0
 13 12  1  0
 14 15  1  0
 15 16  2  0
 17 16  1  0
 18 10  1  0
 19 18  2  0
 21 20  1  1
 21 22  1  0
 22 18  1  0
 23 21  1  0
 23 24  1  0
 25 23  2  0
M  END
$$$$
