IFA.pdb
     RDKit          3D

 25 25  0  0  1  0  0  0  0  0999 V2000
    7.8615  -11.8806   20.1132 C   0  0  0  0  0  0  0  0  0  0  0  0
    7.6670  -13.1533   20.8728 C   0  0  0  0  0  0  0  0  0  0  0  0
    8.5308  -14.3063   20.3351 C   0  0  2  0  0  0  0  0  0  0  0  0
    7.9866  -14.5595   18.9441 C   0  0  0  0  0  0  0  0  0  0  0  0
    8.4598  -15.4959   21.1917 C   0  0  2  0  0  0  0  0  0  0  0  0
    7.1206  -16.1020   21.1231 N   0  0  0  0  0  0  0  0  0  0  0  0
    8.9022  -15.4396   22.5673 C   0  0  0  0  0  0  0  0  0  0  0  0
   10.0927  -14.9853   22.7817 O   0  0  0  0  0  0  0  0  0  0  0  0
    8.2265  -15.8070   23.7322 N   0  0  0  0  0  0  0  0  0  0  0  0
    8.7846  -15.6148   25.0814 C   0  0  1  0  0  0  0  0  0  0  0  0
    7.6136  -15.4223   25.9762 C   0  0  0  0  0  0  0  0  0  0  0  0
    7.1090  -14.0667   26.1131 C   0  0  0  0  0  0  0  0  0  0  0  0
    5.8133  -13.6590   25.8733 C   0  0  0  0  0  0  0  0  0  0  0  0
    5.4228  -12.3377   26.0341 C   0  0  0  0  0  0  0  0  0  0  0  0
    6.3355  -11.3796   26.4451 C   0  0  0  0  0  0  0  0  0  0  0  0
    7.6310  -11.7864   26.6850 C   0  0  0  0  0  0  0  0  0  0  0  0
    7.9988  -13.0922   26.5217 C   0  0  0  0  0  0  0  0  0  0  0  0
    9.5742  -16.8281   25.3945 C   0  0  0  0  0  0  0  0  0  0  0  0
    9.9933  -17.0732   26.5658 O   0  0  0  0  0  0  0  0  0  0  0  0
   10.6304  -19.9436   23.5728 C   0  0  0  0  0  0  0  0  0  0  0  0
   10.7455  -18.9368   24.6742 C   0  0  2  0  0  0  0  0  0  0  0  0
    9.9058  -17.7840   24.3976 N   0  0  0  0  0  0  0  0  0  0  0  0
   12.1549  -18.5158   24.8869 C   0  0  0  0  0  0  0  0  0  0  0  0
   12.5931  -17.2553   24.5402 O   0  0  0  0  0  0  0  0  0  0  0  0
   12.9543  -19.3278   25.3915 O   0  0  0  0  0  0  0  0  0  0  0  0
  2  3  1  0
  2  1  1  0
  3  5  1  0
  3  4  1  6
  5  7  1  0
  5  6  1  1
  7  8  2  0
  9 10  1  0
  9  7  1  0
 10 11  1  1
 11 12  1  0
 12 17  2  0
 13 14  2  0
 13 12  1  0
 14 15  1  0
 15 16  2  0
 17 16  1  0
 18 10  1  0
 19 18  2  0
 21 20  1  6
 21 22  1  0
 22 18  1  0
 23 21  1  0
 23 24  1  0
 25 23  2  0
M  END
$$$$
