PET.pdb
     RDKit          3D

 24 24  0  0  1  0  0  0  0  0999 V2000
   20.6285  -12.6462  -15.8438 N   0  0  0  0  0  0  0  0  0  0  0  0
   20.9884  -13.9061  -16.5316 C   0  0  0  0  0  0  0  0  0  0  0  0
   20.5749  -13.5911  -17.9488 C   0  0  0  0  0  0  0  0  0  0  0  0
   21.0073  -12.1589  -18.1142 C   0  0  0  0  0  0  0  0  0  0  0  0
   21.2639  -11.6684  -16.7017 C   0  0  1  0  0  0  0  0  0  0  0  0
   20.6815  -10.3354  -16.5547 C   0  0  0  0  0  0  0  0  0  0  0  0
   21.1683   -9.3918  -17.2569 O   0  0  0  0  0  0  0  0  0  0  0  0
   19.6137  -10.0226  -15.6845 N   0  0  0  0  0  0  0  0  0  0  0  0
   19.0416   -8.6814  -15.6713 C   0  0  1  0  0  0  0  0  0  0  0  0
   17.5712   -8.7317  -15.3218 C   0  0  0  0  0  0  0  0  0  0  0  0
   16.7366   -9.2894  -16.4479 C   0  0  0  0  0  0  0  0  0  0  0  0
   15.3254   -9.3271  -15.9824 C   0  0  0  0  0  0  0  0  0  0  0  0
   14.4201   -8.6098  -16.5259 O   0  0  0  0  0  0  0  0  0  0  0  0
   19.7989   -7.7798  -14.7813 C   0  0  0  0  0  0  0  0  0  0  0  0
   20.1915   -8.1207  -13.6376 O   0  0  0  0  0  0  0  0  0  0  0  0
   14.8970  -10.1356  -14.9357 O   0  0  0  0  0  0  0  0  0  0  0  0
   22.9070   -4.2732  -14.0443 C   0  0  0  0  0  0  0  0  0  0  0  0
   22.1776   -5.3405  -14.8036 C   0  0  1  0  0  0  0  0  0  0  0  0
   22.7892   -6.5669  -14.6177 O   0  0  0  0  0  0  0  0  0  0  0  0
   20.7334   -5.4815  -14.3646 C   0  0  2  0  0  0  0  0  0  0  0  0
   20.1155   -6.4613  -15.2036 N   0  0  0  0  0  0  0  0  0  0  0  0
   20.0287   -4.2051  -14.3095 C   0  0  0  0  0  0  0  0  0  0  0  0
   19.0164   -3.9207  -15.2055 O   0  0  0  0  0  0  0  0  0  0  0  0
   20.3374   -3.3541  -13.4460 O   0  0  0  0  0  0  0  0  0  0  0  0
  1  2  1  0
  3  2  1  0
  4  3  1  0
  5  4  1  0
  5  1  1  0
  5  6  1  6
  7  6  2  0
  8  6  1  0
  9 14  1  0
  9  8  1  0
  9 10  1  1
 11 10  1  0
 12 11  1  0
 13 12  2  0
 14 15  2  0
 16 12  1  0
 18 17  1  1
 18 19  1  0
 18 20  1  0
 20 21  1  6
 21 14  1  0
 22 20  1  0
 22 23  1  0
 24 22  2  0
M  END
$$$$
