PET.pdb
     RDKit          3D

 24 24  0  0  1  0  0  0  0  0999 V2000
   22.7347  -12.1625  -15.4983 N   0  0  0  0  0  0  0  0  0  0  0  0
   23.1989  -13.4561  -16.0471 C   0  0  0  0  0  0  0  0  0  0  0  0
   22.2380  -13.6452  -17.1959 C   0  0  0  0  0  0  0  0  0  0  0  0
   22.1213  -12.2577  -17.7678 C   0  0  0  0  0  0  0  0  0  0  0  0
   22.6938  -11.3499  -16.6957 C   0  0  1  0  0  0  0  0  0  0  0  0
   21.8203  -10.1864  -16.5504 C   0  0  0  0  0  0  0  0  0  0  0  0
   21.8012   -9.3339  -17.4955 O   0  0  0  0  0  0  0  0  0  0  0  0
   20.9949   -9.9431  -15.4302 N   0  0  0  0  0  0  0  0  0  0  0  0
   20.1193   -8.7776  -15.3983 C   0  0  1  0  0  0  0  0  0  0  0  0
   18.7684   -9.1402  -14.8235 C   0  0  0  0  0  0  0  0  0  0  0  0
   17.9282   -9.9292  -15.7969 C   0  0  0  0  0  0  0  0  0  0  0  0
   16.6410  -10.2441  -15.1236 C   0  0  0  0  0  0  0  0  0  0  0  0
   15.7349  -10.9358  -15.6979 O   0  0  0  0  0  0  0  0  0  0  0  0
   20.7477   -7.6490  -14.6842 C   0  0  0  0  0  0  0  0  0  0  0  0
   21.4972   -7.8039  -13.6877 O   0  0  0  0  0  0  0  0  0  0  0  0
   16.3365   -9.8131  -13.8373 O   0  0  0  0  0  0  0  0  0  0  0  0
   22.9665   -3.5168  -14.8130 C   0  0  0  0  0  0  0  0  0  0  0  0
   22.3215   -4.7747  -15.3125 C   0  0  1  0  0  0  0  0  0  0  0  0
   23.2146   -5.8291  -15.2552 O   0  0  0  0  0  0  0  0  0  0  0  0
   21.1036   -5.1656  -14.4986 C   0  0  2  0  0  0  0  0  0  0  0  0
   20.5172   -6.3154  -15.1147 N   0  0  0  0  0  0  0  0  0  0  0  0
   20.1790   -4.0563  -14.2905 C   0  0  0  0  0  0  0  0  0  0  0  0
   20.2264   -3.3088  -13.1297 O   0  0  0  0  0  0  0  0  0  0  0  0
   19.3319   -3.7720  -15.1661 O   0  0  0  0  0  0  0  0  0  0  0  0
  1  2  1  0
  3  2  1  0
  4  3  1  0
  5  4  1  0
  5  1  1  0
  5  6  1  1
  7  6  2  0
  8  6  1  0
  9 14  1  0
  9  8  1  0
  9 10  1  1
 11 10  1  0
 12 11  1  0
 13 12  2  0
 14 15  2  0
 16 12  1  0
 18 17  1  1
 18 19  1  0
 18 20  1  0
 20 21  1  6
 21 14  1  0
 22 20  1  0
 22 23  1  0
 24 22  2  0
M  END
$$$$
