PET.pdb
     RDKit          3D

 24 24  0  0  1  0  0  0  0  0999 V2000
   27.2510  -21.6693  -16.2787 N   0  0  0  0  0  0  0  0  0  0  0  0
   28.5995  -21.5584  -16.8782 C   0  0  0  0  0  0  0  0  0  0  0  0
   28.6999  -20.0675  -17.0922 C   0  0  0  0  0  0  0  0  0  0  0  0
   28.0694  -19.5062  -15.8459 C   0  0  0  0  0  0  0  0  0  0  0  0
   27.3307  -20.6778  -15.2269 C   0  0  1  0  0  0  0  0  0  0  0  0
   26.0122  -20.2225  -14.7885 C   0  0  0  0  0  0  0  0  0  0  0  0
   25.9580  -19.4006  -13.8180 O   0  0  0  0  0  0  0  0  0  0  0  0
   24.7922  -20.6339  -15.3694 N   0  0  0  0  0  0  0  0  0  0  0  0
   23.5258  -20.1016  -14.8803 C   0  0  1  0  0  0  0  0  0  0  0  0
   22.5343  -19.9573  -16.0129 C   0  0  0  0  0  0  0  0  0  0  0  0
   21.2114  -19.4034  -15.5451 C   0  0  0  0  0  0  0  0  0  0  0  0
   20.2717  -19.4582  -16.6954 C   0  0  0  0  0  0  0  0  0  0  0  0
   19.0932  -18.9730  -16.6230 O   0  0  0  0  0  0  0  0  0  0  0  0
   22.9924  -20.9123  -13.7682 C   0  0  0  0  0  0  0  0  0  0  0  0
   22.9495  -22.1676  -13.7976 O   0  0  0  0  0  0  0  0  0  0  0  0
   20.6052  -20.0342  -17.9160 O   0  0  0  0  0  0  0  0  0  0  0  0
   24.1749  -21.3070  -10.5015 C   0  0  0  0  0  0  0  0  0  0  0  0
   22.7858  -20.7845  -10.2888 C   0  0  1  0  0  0  0  0  0  0  0  0
   22.8182  -19.4298  -10.0124 O   0  0  0  0  0  0  0  0  0  0  0  0
   21.8996  -20.9797  -11.5033 C   0  0  2  0  0  0  0  0  0  0  0  0
   22.4974  -20.2789  -12.5974 N   0  0  0  0  0  0  0  0  0  0  0  0
   20.5059  -20.6285  -11.2523 C   0  0  0  0  0  0  0  0  0  0  0  0
   19.9034  -19.5985  -11.9483 O   0  0  0  0  0  0  0  0  0  0  0  0
   19.8424  -21.2606  -10.4007 O   0  0  0  0  0  0  0  0  0  0  0  0
  1  2  1  0
  3  2  1  0
  4  3  1  0
  5  4  1  0
  5  1  1  0
  5  6  1  6
  7  6  2  0
  8  6  1  0
  9 14  1  0
  9  8  1  0
  9 10  1  6
 11 10  1  0
 12 11  1  0
 13 12  2  0
 14 15  2  0
 16 12  1  0
 18 17  1  6
 18 19  1  0
 18 20  1  0
 20 21  1  6
 21 14  1  0
 22 20  1  0
 22 23  1  0
 24 22  2  0
M  END
$$$$
