PET.pdb
     RDKit          3D

 24 24  0  0  1  0  0  0  0  0999 V2000
   24.8053  -12.8431  -15.5708 N   0  0  0  0  0  0  0  0  0  0  0  0
   25.5235  -14.0471  -16.0446 C   0  0  0  0  0  0  0  0  0  0  0  0
   24.8212  -14.3067  -17.3553 C   0  0  0  0  0  0  0  0  0  0  0  0
   24.6348  -12.9223  -17.9161 C   0  0  0  0  0  0  0  0  0  0  0  0
   24.8806  -11.9945  -16.7414 C   0  0  1  0  0  0  0  0  0  0  0  0
   23.8538  -10.9536  -16.7425 C   0  0  0  0  0  0  0  0  0  0  0  0
   23.9048  -10.0674  -17.6549 O   0  0  0  0  0  0  0  0  0  0  0  0
   22.8074  -10.8639  -15.7979 N   0  0  0  0  0  0  0  0  0  0  0  0
   21.8328   -9.7822  -15.8773 C   0  0  1  0  0  0  0  0  0  0  0  0
   20.4850  -10.2394  -15.3664 C   0  0  0  0  0  0  0  0  0  0  0  0
   19.4059   -9.2134  -15.6085 C   0  0  0  0  0  0  0  0  0  0  0  0
   18.1279   -9.7811  -15.1045 C   0  0  0  0  0  0  0  0  0  0  0  0
   17.9233  -11.0404  -15.0622 O   0  0  0  0  0  0  0  0  0  0  0  0
   22.3131   -8.5704  -15.1849 C   0  0  0  0  0  0  0  0  0  0  0  0
   23.0409   -8.6118  -14.1616 O   0  0  0  0  0  0  0  0  0  0  0  0
   17.0783   -8.9911  -14.6493 O   0  0  0  0  0  0  0  0  0  0  0  0
   22.7381   -3.6342  -15.6791 C   0  0  0  0  0  0  0  0  0  0  0  0
   22.2325   -4.9671  -16.1434 C   0  0  1  0  0  0  0  0  0  0  0  0
   22.8874   -5.3546  -17.2983 O   0  0  0  0  0  0  0  0  0  0  0  0
   22.4430   -6.0591  -15.1131 C   0  0  2  0  0  0  0  0  0  0  0  0
   21.9564   -7.2838  -15.6689 N   0  0  0  0  0  0  0  0  0  0  0  0
   21.8823   -5.7251  -13.8082 C   0  0  0  0  0  0  0  0  0  0  0  0
   22.6893   -5.2337  -12.8003 O   0  0  0  0  0  0  0  0  0  0  0  0
   20.6604   -5.8819  -13.5908 O   0  0  0  0  0  0  0  0  0  0  0  0
  1  2  1  0
  3  2  1  0
  4  3  1  0
  5  4  1  0
  5  1  1  0
  5  6  1  1
  7  6  2  0
  8  6  1  0
  9 14  1  0
  9  8  1  0
  9 10  1  1
 11 10  1  0
 12 11  1  0
 13 12  2  0
 14 15  2  0
 16 12  1  0
 18 17  1  1
 18 19  1  0
 18 20  1  0
 20 21  1  6
 21 14  1  0
 22 20  1  0
 22 23  1  0
 24 22  2  0
M  END
$$$$
