PET.pdb
     RDKit          3D

 24 24  0  0  1  0  0  0  0  0999 V2000
   23.8057  -12.0792  -15.1703 N   0  0  0  0  0  0  0  0  0  0  0  0
   24.2257  -13.4599  -15.4975 C   0  0  0  0  0  0  0  0  0  0  0  0
   23.0775  -13.9141  -16.3658 C   0  0  0  0  0  0  0  0  0  0  0  0
   22.7830  -12.6948  -17.1978 C   0  0  0  0  0  0  0  0  0  0  0  0
   23.4982  -11.5615  -16.4868 C   0  0  1  0  0  0  0  0  0  0  0  0
   22.6078  -10.4029  -16.4365 C   0  0  0  0  0  0  0  0  0  0  0  0
   22.5136   -9.6781  -17.4787 O   0  0  0  0  0  0  0  0  0  0  0  0
   21.8439  -10.0320  -15.3077 N   0  0  0  0  0  0  0  0  0  0  0  0
   20.9331   -8.8952  -15.3745 C   0  0  1  0  0  0  0  0  0  0  0  0
   19.5309   -9.3113  -14.9906 C   0  0  0  0  0  0  0  0  0  0  0  0
   18.5518   -8.1674  -15.0825 C   0  0  0  0  0  0  0  0  0  0  0  0
   17.2178   -8.6872  -14.6826 C   0  0  0  0  0  0  0  0  0  0  0  0
   16.1838   -7.9390  -14.6646 O   0  0  0  0  0  0  0  0  0  0  0  0
   21.4230   -7.7622  -14.5654 C   0  0  0  0  0  0  0  0  0  0  0  0
   21.9657   -7.9096  -13.4419 O   0  0  0  0  0  0  0  0  0  0  0  0
   17.0046  -10.0081  -14.3045 O   0  0  0  0  0  0  0  0  0  0  0  0
   22.4302   -4.2268  -16.5849 C   0  0  0  0  0  0  0  0  0  0  0  0
   22.9456   -4.7350  -15.2719 C   0  0  1  0  0  0  0  0  0  0  0  0
   23.5656   -3.7163  -14.5713 O   0  0  0  0  0  0  0  0  0  0  0  0
   21.8434   -5.2880  -14.3901 C   0  0  2  0  0  0  0  0  0  0  0  0
   21.2915   -6.4325  -15.0468 N   0  0  0  0  0  0  0  0  0  0  0  0
   20.8602   -4.2796  -14.0094 C   0  0  0  0  0  0  0  0  0  0  0  0
   21.2155   -3.2228  -13.1936 O   0  0  0  0  0  0  0  0  0  0  0  0
   19.6818   -4.3646  -14.4207 O   0  0  0  0  0  0  0  0  0  0  0  0
  1  2  1  0
  3  2  1  0
  4  3  1  0
  5  4  1  0
  5  1  1  0
  5  6  1  1
  7  6  2  0
  8  6  1  0
  9 14  1  0
  9  8  1  0
  9 10  1  1
 11 10  1  0
 12 11  1  0
 13 12  2  0
 14 15  2  0
 16 12  1  0
 18 17  1  6
 18 19  1  0
 18 20  1  0
 20 21  1  6
 21 14  1  0
 22 20  1  0
 22 23  1  0
 24 22  2  0
M  END
$$$$
