PET.pdb
     RDKit          3D

 24 24  0  0  1  0  0  0  0  0999 V2000
   18.7045  -12.4155  -15.3992 N   0  0  0  0  0  0  0  0  0  0  0  0
   18.4431  -13.7614  -15.9561 C   0  0  0  0  0  0  0  0  0  0  0  0
   17.8569  -13.4094  -17.3019 C   0  0  0  0  0  0  0  0  0  0  0  0
   18.7083  -12.2504  -17.7462 C   0  0  0  0  0  0  0  0  0  0  0  0
   19.4284  -11.7977  -16.4900 C   0  0  1  0  0  0  0  0  0  0  0  0
   19.3910  -10.3374  -16.4280 C   0  0  0  0  0  0  0  0  0  0  0  0
   20.1334   -9.6877  -17.2323 O   0  0  0  0  0  0  0  0  0  0  0  0
   18.5860   -9.5971  -15.5340 N   0  0  0  0  0  0  0  0  0  0  0  0
   18.5917   -8.1394  -15.5705 C   0  0  1  0  0  0  0  0  0  0  0  0
   17.2060   -7.5933  -15.3091 C   0  0  0  0  0  0  0  0  0  0  0  0
   17.1685   -6.0861  -15.3603 C   0  0  0  0  0  0  0  0  0  0  0  0
   15.7817   -5.6619  -15.0339 C   0  0  0  0  0  0  0  0  0  0  0  0
   14.7653   -6.3084  -15.4560 O   0  0  0  0  0  0  0  0  0  0  0  0
   19.5982   -7.5798  -14.6472 C   0  0  0  0  0  0  0  0  0  0  0  0
   19.7420   -7.9852  -13.4667 O   0  0  0  0  0  0  0  0  0  0  0  0
   15.4972   -4.5455  -14.2556 O   0  0  0  0  0  0  0  0  0  0  0  0
   23.0737   -7.7761  -14.7509 C   0  0  0  0  0  0  0  0  0  0  0  0
   22.8131   -6.3009  -14.8089 C   0  0  1  0  0  0  0  0  0  0  0  0
   22.8592   -5.8549  -16.1172 O   0  0  0  0  0  0  0  0  0  0  0  0
   21.4541   -5.9288  -14.2493 C   0  0  2  0  0  0  0  0  0  0  0  0
   20.4592   -6.5360  -15.0783 N   0  0  0  0  0  0  0  0  0  0  0  0
   21.2893   -4.4908  -14.0656 C   0  0  0  0  0  0  0  0  0  0  0  0
   22.0191   -3.8156  -13.1064 O   0  0  0  0  0  0  0  0  0  0  0  0
   20.4818   -3.8549  -14.7788 O   0  0  0  0  0  0  0  0  0  0  0  0
  1  2  1  0
  3  2  1  0
  4  3  1  0
  5  4  1  0
  5  1  1  0
  5  6  1  1
  7  6  2  0
  8  6  1  0
  9 14  1  0
  9  8  1  0
  9 10  1  1
 11 10  1  0
 12 11  1  0
 13 12  2  0
 14 15  2  0
 16 12  1  0
 18 17  1  6
 18 19  1  0
 18 20  1  0
 20 21  1  6
 21 14  1  0
 22 20  1  0
 22 23  1  0
 24 22  2  0
M  END
$$$$
