PET.pdb
     RDKit          3D

 24 24  0  0  1  0  0  0  0  0999 V2000
   21.1468  -12.7530  -17.5894 N   0  0  0  0  0  0  0  0  0  0  0  0
   21.4369  -13.9736  -18.3743 C   0  0  0  0  0  0  0  0  0  0  0  0
   20.8609  -13.5980  -19.7181 C   0  0  0  0  0  0  0  0  0  0  0  0
   21.2586  -12.1533  -19.8618 C   0  0  0  0  0  0  0  0  0  0  0  0
   21.6708  -11.7266  -18.4656 C   0  0  1  0  0  0  0  0  0  0  0  0
   21.0971  -10.4106  -18.1885 C   0  0  0  0  0  0  0  0  0  0  0  0
   20.3451   -9.8901  -19.0739 O   0  0  0  0  0  0  0  0  0  0  0  0
   21.3213   -9.6758  -17.0031 N   0  0  0  0  0  0  0  0  0  0  0  0
   20.6699   -8.3872  -16.7997 C   0  0  1  0  0  0  0  0  0  0  0  0
   19.2271   -8.5774  -16.3890 C   0  0  0  0  0  0  0  0  0  0  0  0
   18.5094   -7.2634  -16.2038 C   0  0  0  0  0  0  0  0  0  0  0  0
   17.1136   -7.5699  -15.7948 C   0  0  0  0  0  0  0  0  0  0  0  0
   16.1681   -7.6574  -16.6479 O   0  0  0  0  0  0  0  0  0  0  0  0
   21.4189   -7.5482  -15.8439 C   0  0  0  0  0  0  0  0  0  0  0  0
   21.8469   -7.9810  -14.7448 O   0  0  0  0  0  0  0  0  0  0  0  0
   16.7437   -7.7803  -14.4712 O   0  0  0  0  0  0  0  0  0  0  0  0
   24.2317   -5.1516  -17.0532 C   0  0  0  0  0  0  0  0  0  0  0  0
   23.2588   -4.3999  -16.1953 C   0  0  1  0  0  0  0  0  0  0  0  0
   22.3710   -3.6899  -16.9830 O   0  0  0  0  0  0  0  0  0  0  0  0
   22.4435   -5.3152  -15.3031 C   0  0  2  0  0  0  0  0  0  0  0  0
   21.6860   -6.1867  -16.1470 N   0  0  0  0  0  0  0  0  0  0  0  0
   21.6484   -4.5889  -14.3186 C   0  0  0  0  0  0  0  0  0  0  0  0
   20.2682   -4.6156  -14.3706 O   0  0  0  0  0  0  0  0  0  0  0  0
   22.2133   -3.9330  -13.4154 O   0  0  0  0  0  0  0  0  0  0  0  0
  1  2  1  0
  3  2  1  0
  4  3  1  0
  5  4  1  0
  5  1  1  0
  5  6  1  1
  7  6  2  0
  8  6  1  0
  9 14  1  0
  9  8  1  0
  9 10  1  1
 11 10  1  0
 12 11  1  0
 13 12  2  0
 14 15  2  0
 16 12  1  0
 18 17  1  6
 18 19  1  0
 18 20  1  0
 20 21  1  6
 21 14  1  0
 22 20  1  0
 22 23  1  0
 24 22  2  0
M  END
$$$$
