PET.pdb
     RDKit          3D

 24 24  0  0  1  0  0  0  0  0999 V2000
   33.3333  -35.9545   -4.5953 N   0  0  0  0  0  0  0  0  0  0  0  0
   34.6472  -35.8883   -5.2729 C   0  0  0  0  0  0  0  0  0  0  0  0
   34.2947  -36.4190   -6.6414 C   0  0  0  0  0  0  0  0  0  0  0  0
   32.9552  -35.7877   -6.9115 C   0  0  0  0  0  0  0  0  0  0  0  0
   32.4877  -35.2830   -5.5595 C   0  0  1  0  0  0  0  0  0  0  0  0
   31.0751  -35.6226   -5.3946 C   0  0  0  0  0  0  0  0  0  0  0  0
   30.2333  -35.0615   -6.1672 O   0  0  0  0  0  0  0  0  0  0  0  0
   30.5800  -36.5323   -4.4341 N   0  0  0  0  0  0  0  0  0  0  0  0
   29.1550  -36.8346   -4.3702 C   0  0  1  0  0  0  0  0  0  0  0  0
   28.9230  -38.1774   -3.7147 C   0  0  0  0  0  0  0  0  0  0  0  0
   27.4886  -38.6292   -3.8335 C   0  0  0  0  0  0  0  0  0  0  0  0
   27.3626  -39.9156   -3.0995 C   0  0  0  0  0  0  0  0  0  0  0  0
   26.2379  -40.5041   -2.9646 O   0  0  0  0  0  0  0  0  0  0  0  0
   28.4019  -35.7506   -3.7096 C   0  0  0  0  0  0  0  0  0  0  0  0
   28.9600  -34.8083   -3.0938 O   0  0  0  0  0  0  0  0  0  0  0  0
   28.4468  -40.5608   -2.5153 O   0  0  0  0  0  0  0  0  0  0  0  0
   26.4816  -33.4643   -5.4319 C   0  0  0  0  0  0  0  0  0  0  0  0
   26.6262  -33.3939   -3.9414 C   0  0  1  0  0  0  0  0  0  0  0  0
   25.8650  -32.3574   -3.4324 O   0  0  0  0  0  0  0  0  0  0  0  0
   26.1773  -34.6681   -3.2535 C   0  0  2  0  0  0  0  0  0  0  0  0
   26.9823  -35.7402   -3.7515 N   0  0  0  0  0  0  0  0  0  0  0  0
   24.7399  -34.8949   -3.3588 C   0  0  0  0  0  0  0  0  0  0  0  0
   23.8442  -34.0115   -2.7879 O   0  0  0  0  0  0  0  0  0  0  0  0
   24.3051  -35.8961   -3.9700 O   0  0  0  0  0  0  0  0  0  0  0  0
  1  2  1  0
  3  2  1  0
  4  3  1  0
  5  4  1  0
  5  1  1  0
  5  6  1  1
  7  6  2  0
  8  6  1  0
  9 14  1  0
  9  8  1  0
  9 10  1  1
 11 10  1  0
 12 11  1  0
 13 12  2  0
 14 15  2  0
 16 12  1  0
 18 17  1  6
 18 19  1  0
 18 20  1  0
 20 21  1  6
 21 14  1  0
 22 20  1  0
 22 23  1  0
 24 22  2  0
M  END
$$$$
