PET.pdb
     RDKit          3D

 24 24  0  0  1  0  0  0  0  0999 V2000
   18.6138   -9.6985  -15.9545 N   0  0  0  0  0  0  0  0  0  0  0  0
   18.7705  -10.7779  -16.9545 C   0  0  0  0  0  0  0  0  0  0  0  0
   19.2951  -11.8994  -16.0909 C   0  0  0  0  0  0  0  0  0  0  0  0
   18.4818  -11.7619  -14.8317 C   0  0  0  0  0  0  0  0  0  0  0  0
   17.8612  -10.3807  -14.9230 C   0  0  1  0  0  0  0  0  0  0  0  0
   17.9796   -9.7260  -13.6209 C   0  0  0  0  0  0  0  0  0  0  0  0
   17.3629  -10.2442  -12.6353 O   0  0  0  0  0  0  0  0  0  0  0  0
   18.7327   -8.5551  -13.3820 N   0  0  0  0  0  0  0  0  0  0  0  0
   18.8271   -8.0005  -12.0368 C   0  0  1  0  0  0  0  0  0  0  0  0
   20.0959   -7.1929  -11.8802 C   0  0  0  0  0  0  0  0  0  0  0  0
   20.1373   -6.0096  -12.8151 C   0  0  0  0  0  0  0  0  0  0  0  0
   21.4644   -5.3594  -12.6551 C   0  0  0  0  0  0  0  0  0  0  0  0
   21.7833   -4.3140  -13.3144 O   0  0  0  0  0  0  0  0  0  0  0  0
   17.6216   -7.2241  -11.6866 C   0  0  0  0  0  0  0  0  0  0  0  0
   16.9474   -6.5897  -12.5361 O   0  0  0  0  0  0  0  0  0  0  0  0
   22.4397   -5.8376  -11.7873 O   0  0  0  0  0  0  0  0  0  0  0  0
   14.3168   -6.4408   -8.0632 C   0  0  0  0  0  0  0  0  0  0  0  0
   15.6494   -6.9494   -8.5250 C   0  0  1  0  0  0  0  0  0  0  0  0
   15.6515   -8.3320   -8.5590 O   0  0  0  0  0  0  0  0  0  0  0  0
   16.0082   -6.4598   -9.9142 C   0  0  2  0  0  0  0  0  0  0  0  0
   17.1748   -7.1695  -10.3397 N   0  0  0  0  0  0  0  0  0  0  0  0
   16.1244   -5.0076   -9.9928 C   0  0  0  0  0  0  0  0  0  0  0  0
   15.0369   -4.2325  -10.3464 O   0  0  0  0  0  0  0  0  0  0  0  0
   17.2154   -4.4502   -9.7394 O   0  0  0  0  0  0  0  0  0  0  0  0
  1  2  1  0
  3  2  1  0
  4  3  1  0
  5  4  1  0
  5  1  1  0
  5  6  1  1
  7  6  2  0
  8  6  1  0
  9 14  1  0
  9  8  1  0
  9 10  1  6
 11 10  1  0
 12 11  1  0
 13 12  2  0
 14 15  2  0
 16 12  1  0
 18 17  1  6
 18 19  1  0
 18 20  1  0
 20 21  1  1
 21 14  1  0
 22 20  1  0
 22 23  1  0
 24 22  2  0
M  END
$$$$
