PET.pdb
     RDKit          3D

 24 24  0  0  1  0  0  0  0  0999 V2000
   19.0450  -11.2556  -14.7274 N   0  0  0  0  0  0  0  0  0  0  0  0
   18.4931  -12.4323  -15.4350 C   0  0  0  0  0  0  0  0  0  0  0  0
   17.0785  -11.9755  -15.6977 C   0  0  0  0  0  0  0  0  0  0  0  0
   17.2572  -10.5289  -16.0733 C   0  0  0  0  0  0  0  0  0  0  0  0
   18.6657  -10.1861  -15.6264 C   0  0  1  0  0  0  0  0  0  0  0  0
   18.6439   -8.8825  -14.9644 C   0  0  0  0  0  0  0  0  0  0  0  0
   18.4428   -7.8521  -15.6841 O   0  0  0  0  0  0  0  0  0  0  0  0
   18.8316   -8.6884  -13.5779 N   0  0  0  0  0  0  0  0  0  0  0  0
   18.8033   -7.3455  -13.0106 C   0  0  1  0  0  0  0  0  0  0  0  0
   18.3211   -7.3812  -11.5778 C   0  0  0  0  0  0  0  0  0  0  0  0
   18.1765   -5.9992  -10.9906 C   0  0  0  0  0  0  0  0  0  0  0  0
   17.7022   -6.1555   -9.5906 C   0  0  0  0  0  0  0  0  0  0  0  0
   17.4781   -5.1466   -8.8413 O   0  0  0  0  0  0  0  0  0  0  0  0
   20.1110   -6.6744  -13.1454 C   0  0  0  0  0  0  0  0  0  0  0  0
   21.2039   -7.2921  -13.0947 O   0  0  0  0  0  0  0  0  0  0  0  0
   17.4721   -7.3955   -9.0054 O   0  0  0  0  0  0  0  0  0  0  0  0
   20.8818   -5.1462  -16.1557 C   0  0  0  0  0  0  0  0  0  0  0  0
   21.8600   -5.2419  -15.0236 C   0  0  1  0  0  0  0  0  0  0  0  0
   23.0529   -4.6312  -15.3652 O   0  0  0  0  0  0  0  0  0  0  0  0
   21.3531   -4.5749  -13.7601 C   0  0  2  0  0  0  0  0  0  0  0  0
   20.1747   -5.2694  -13.3421 N   0  0  0  0  0  0  0  0  0  0  0  0
   21.1823   -3.1334  -13.9076 C   0  0  0  0  0  0  0  0  0  0  0  0
   22.2733   -2.3138  -14.1233 O   0  0  0  0  0  0  0  0  0  0  0  0
   20.0409   -2.6259  -13.8395 O   0  0  0  0  0  0  0  0  0  0  0  0
  1  2  1  0
  3  2  1  0
  4  3  1  0
  5  4  1  0
  5  1  1  0
  5  6  1  1
  7  6  2  0
  8  6  1  0
  9 14  1  0
  9  8  1  0
  9 10  1  1
 11 10  1  0
 12 11  1  0
 13 12  2  0
 14 15  2  0
 16 12  1  0
 18 17  1  6
 18 19  1  0
 18 20  1  0
 20 21  1  6
 21 14  1  0
 22 20  1  0
 22 23  1  0
 24 22  2  0
M  END
$$$$
