PET.pdb
     RDKit          3D

 24 24  0  0  1  0  0  0  0  0999 V2000
   26.7238  -17.8178  -17.9986 N   0  0  0  0  0  0  0  0  0  0  0  0
   27.9691  -17.9793  -18.7815 C   0  0  0  0  0  0  0  0  0  0  0  0
   28.9084  -18.5104  -17.7259 C   0  0  0  0  0  0  0  0  0  0  0  0
   28.0386  -19.4644  -16.9519 C   0  0  0  0  0  0  0  0  0  0  0  0
   26.6214  -19.1159  -17.3659 C   0  0  1  0  0  0  0  0  0  0  0  0
   25.7768  -19.0896  -16.1727 C   0  0  0  0  0  0  0  0  0  0  0  0
   25.9673  -18.1562  -15.3284 O   0  0  0  0  0  0  0  0  0  0  0  0
   24.7624  -20.0317  -15.8921 N   0  0  0  0  0  0  0  0  0  0  0  0
   24.0320  -19.9757  -14.6313 C   0  0  1  0  0  0  0  0  0  0  0  0
   22.5911  -20.3891  -14.8303 C   0  0  0  0  0  0  0  0  0  0  0  0
   21.7987  -20.3285  -13.5480 C   0  0  0  0  0  0  0  0  0  0  0  0
   20.4377  -20.8510  -13.8383 C   0  0  0  0  0  0  0  0  0  0  0  0
   20.1977  -22.1034  -13.8957 O   0  0  0  0  0  0  0  0  0  0  0  0
   24.7029  -20.7685  -13.5826 C   0  0  0  0  0  0  0  0  0  0  0  0
   25.0514  -21.9642  -13.7484 O   0  0  0  0  0  0  0  0  0  0  0  0
   19.3437  -20.0234  -14.0649 O   0  0  0  0  0  0  0  0  0  0  0  0
   27.6605  -21.0501   -9.8688 C   0  0  0  0  0  0  0  0  0  0  0  0
   26.9963  -20.4625  -11.0777 C   0  0  1  0  0  0  0  0  0  0  0  0
   27.6614  -20.8480  -12.2274 O   0  0  0  0  0  0  0  0  0  0  0  0
   25.5524  -20.9023  -11.2184 C   0  0  2  0  0  0  0  0  0  0  0  0
   24.9828  -20.1863  -12.3178 N   0  0  0  0  0  0  0  0  0  0  0  0
   24.8004  -20.7915   -9.9731 C   0  0  0  0  0  0  0  0  0  0  0  0
   25.1300  -21.5696   -8.8802 O   0  0  0  0  0  0  0  0  0  0  0  0
   23.8465  -19.9870   -9.8848 O   0  0  0  0  0  0  0  0  0  0  0  0
  1  2  1  0
  3  2  1  0
  4  3  1  0
  5  4  1  0
  5  1  1  0
  5  6  1  1
  7  6  2  0
  8  6  1  0
  9 14  1  0
  9  8  1  0
  9 10  1  6
 11 10  1  0
 12 11  1  0
 13 12  2  0
 14 15  2  0
 16 12  1  0
 18 17  1  1
 18 19  1  0
 18 20  1  0
 20 21  1  6
 21 14  1  0
 22 20  1  0
 22 23  1  0
 24 22  2  0
M  END
$$$$
