PET.pdb
     RDKit          3D

 24 24  0  0  1  0  0  0  0  0999 V2000
   17.8087  -10.4720  -16.3975 N   0  0  0  0  0  0  0  0  0  0  0  0
   17.9081  -11.6664  -17.2655 C   0  0  0  0  0  0  0  0  0  0  0  0
   19.1078  -12.3605  -16.6673 C   0  0  0  0  0  0  0  0  0  0  0  0
   18.9048  -12.1669  -15.1885 C   0  0  0  0  0  0  0  0  0  0  0  0
   17.8544  -11.0774  -15.0833 C   0  0  1  0  0  0  0  0  0  0  0  0
   18.2627  -10.1303  -14.0469 C   0  0  0  0  0  0  0  0  0  0  0  0
   18.3746  -10.5631  -12.8550 O   0  0  0  0  0  0  0  0  0  0  0  0
   18.5414   -8.7651  -14.2785 N   0  0  0  0  0  0  0  0  0  0  0  0
   18.9124   -7.8900  -13.1727 C   0  0  1  0  0  0  0  0  0  0  0  0
   20.0028   -6.9306  -13.5937 C   0  0  0  0  0  0  0  0  0  0  0  0
   20.4476   -6.0405  -12.4599 C   0  0  0  0  0  0  0  0  0  0  0  0
   21.3987   -5.0447  -13.0198 C   0  0  0  0  0  0  0  0  0  0  0  0
   21.1987   -3.7890  -12.9079 O   0  0  0  0  0  0  0  0  0  0  0  0
   17.7359   -7.1928  -12.6173 C   0  0  0  0  0  0  0  0  0  0  0  0
   16.9671   -6.4872  -13.3170 O   0  0  0  0  0  0  0  0  0  0  0  0
   22.5585   -5.4057  -13.6962 O   0  0  0  0  0  0  0  0  0  0  0  0
   14.8489   -8.6109  -10.9529 C   0  0  0  0  0  0  0  0  0  0  0  0
   15.4564   -7.6722   -9.9542 C   0  0  1  0  0  0  0  0  0  0  0  0
   16.2374   -8.3699   -9.0508 O   0  0  0  0  0  0  0  0  0  0  0  0
   16.3388   -6.6245  -10.6039 C   0  0  2  0  0  0  0  0  0  0  0  0
   17.4290   -7.3020  -11.2350 N   0  0  0  0  0  0  0  0  0  0  0  0
   16.7395   -5.5674   -9.6816 C   0  0  0  0  0  0  0  0  0  0  0  0
   18.0713   -5.3722   -9.3705 O   0  0  0  0  0  0  0  0  0  0  0  0
   15.8758   -4.8259   -9.1627 O   0  0  0  0  0  0  0  0  0  0  0  0
  1  2  1  0
  3  2  1  0
  4  3  1  0
  5  4  1  0
  5  1  1  0
  5  6  1  1
  7  6  2  0
  8  6  1  0
  9 14  1  0
  9  8  1  0
  9 10  1  6
 11 10  1  0
 12 11  1  0
 13 12  2  0
 14 15  2  0
 16 12  1  0
 18 17  1  6
 18 19  1  0
 18 20  1  0
 20 21  1  1
 21 14  1  0
 22 20  1  0
 22 23  1  0
 24 22  2  0
M  END
$$$$
