PET.pdb
     RDKit          3D

 24 24  0  0  1  0  0  0  0  0999 V2000
   26.7823  -19.1089  -16.4350 N   0  0  0  0  0  0  0  0  0  0  0  0
   28.0827  -18.4572  -16.7074 C   0  0  0  0  0  0  0  0  0  0  0  0
   27.6412  -17.0471  -17.0162 C   0  0  0  0  0  0  0  0  0  0  0  0
   26.5524  -16.8072  -16.0049 C   0  0  0  0  0  0  0  0  0  0  0  0
   26.2025  -18.1872  -15.4810 C   0  0  1  0  0  0  0  0  0  0  0  0
   24.7472  -18.3054  -15.4050 C   0  0  0  0  0  0  0  0  0  0  0  0
   24.1270  -17.5282  -14.6102 O   0  0  0  0  0  0  0  0  0  0  0  0
   23.9811  -19.2255  -16.1545 N   0  0  0  0  0  0  0  0  0  0  0  0
   22.5301  -19.2631  -16.0154 C   0  0  1  0  0  0  0  0  0  0  0  0
   21.8834  -19.7440  -17.2950 C   0  0  0  0  0  0  0  0  0  0  0  0
   22.0982  -18.7833  -18.4380 C   0  0  0  0  0  0  0  0  0  0  0  0
   21.5070  -19.3976  -19.6557 C   0  0  0  0  0  0  0  0  0  0  0  0
   22.2104  -19.6445  -20.6919 O   0  0  0  0  0  0  0  0  0  0  0  0
   22.1201  -20.0633  -14.8449 C   0  0  0  0  0  0  0  0  0  0  0  0
   22.9266  -20.7546  -14.1740 O   0  0  0  0  0  0  0  0  0  0  0  0
   20.1635  -19.7423  -19.7511 O   0  0  0  0  0  0  0  0  0  0  0  0
   20.4243  -20.2468  -10.7376 C   0  0  0  0  0  0  0  0  0  0  0  0
   21.0705  -20.0137  -12.0701 C   0  0  1  0  0  0  0  0  0  0  0  0
   22.3520  -20.5338  -12.0813 O   0  0  0  0  0  0  0  0  0  0  0  0
   20.3066  -20.6624  -13.2076 C   0  0  2  0  0  0  0  0  0  0  0  0
   20.7619  -20.0760  -14.4300 N   0  0  0  0  0  0  0  0  0  0  0  0
   18.8604  -20.6171  -13.0197 C   0  0  0  0  0  0  0  0  0  0  0  0
   18.0946  -19.6733  -13.6765 O   0  0  0  0  0  0  0  0  0  0  0  0
   18.2999  -21.4367  -12.2588 O   0  0  0  0  0  0  0  0  0  0  0  0
  1  2  1  0
  3  2  1  0
  4  3  1  0
  5  4  1  0
  5  1  1  0
  5  6  1  6
  7  6  2  0
  8  6  1  0
  9 14  1  0
  9  8  1  0
  9 10  1  6
 11 10  1  0
 12 11  1  0
 13 12  2  0
 14 15  2  0
 16 12  1  0
 18 17  1  1
 18 19  1  0
 18 20  1  0
 20 21  1  6
 21 14  1  0
 22 20  1  0
 22 23  1  0
 24 22  2  0
M  END
$$$$
