PET.pdb
     RDKit          3D

 24 24  0  0  1  0  0  0  0  0999 V2000
   27.3245  -20.9114  -16.5223 N   0  0  0  0  0  0  0  0  0  0  0  0
   28.2484  -20.4404  -17.5779 C   0  0  0  0  0  0  0  0  0  0  0  0
   28.0023  -18.9516  -17.5355 C   0  0  0  0  0  0  0  0  0  0  0  0
   27.8833  -18.6730  -16.0610 C   0  0  0  0  0  0  0  0  0  0  0  0
   27.6833  -20.0362  -15.4263 C   0  0  1  0  0  0  0  0  0  0  0  0
   26.6244  -19.9360  -14.4230 C   0  0  0  0  0  0  0  0  0  0  0  0
   26.8431  -19.2168  -13.3958 O   0  0  0  0  0  0  0  0  0  0  0  0
   25.3730  -20.5845  -14.5161 N   0  0  0  0  0  0  0  0  0  0  0  0
   24.2856  -20.2221  -13.6147 C   0  0  1  0  0  0  0  0  0  0  0  0
   22.9490  -20.3588  -14.3087 C   0  0  0  0  0  0  0  0  0  0  0  0
   21.8012  -19.9463  -13.4209 C   0  0  0  0  0  0  0  0  0  0  0  0
   20.5450  -20.1574  -14.1870 C   0  0  0  0  0  0  0  0  0  0  0  0
   20.5562  -20.5832  -15.3902 O   0  0  0  0  0  0  0  0  0  0  0  0
   24.3460  -20.9933  -12.3577 C   0  0  0  0  0  0  0  0  0  0  0  0
   24.5055  -22.2392  -12.3279 O   0  0  0  0  0  0  0  0  0  0  0  0
   19.2850  -19.9092  -13.6542 O   0  0  0  0  0  0  0  0  0  0  0  0
   26.7007  -20.6824   -9.6815 C   0  0  0  0  0  0  0  0  0  0  0  0
   25.3715  -20.4549   -9.0264 C   0  0  1  0  0  0  0  0  0  0  0  0
   25.1477  -19.1017   -8.8487 O   0  0  0  0  0  0  0  0  0  0  0  0
   24.2192  -21.0026   -9.8452 C   0  0  2  0  0  0  0  0  0  0  0  0
   24.2221  -20.3306  -11.1077 N   0  0  0  0  0  0  0  0  0  0  0  0
   22.9440  -20.9505   -9.1381 C   0  0  0  0  0  0  0  0  0  0  0  0
   22.7794  -21.6080   -7.9343 O   0  0  0  0  0  0  0  0  0  0  0  0
   21.9851  -20.3067   -9.6187 O   0  0  0  0  0  0  0  0  0  0  0  0
  1  2  1  0
  3  2  1  0
  4  3  1  0
  5  4  1  0
  5  1  1  0
  5  6  1  1
  7  6  2  0
  8  6  1  0
  9 14  1  0
  9  8  1  0
  9 10  1  6
 11 10  1  0
 12 11  1  0
 13 12  2  0
 14 15  2  0
 16 12  1  0
 18 17  1  6
 18 19  1  0
 18 20  1  0
 20 21  1  6
 21 14  1  0
 22 20  1  0
 22 23  1  0
 24 22  2  0
M  END
$$$$
