PET.pdb
     RDKit          3D

 24 24  0  0  1  0  0  0  0  0999 V2000
   18.7358  -12.4519  -15.5482 N   0  0  0  0  0  0  0  0  0  0  0  0
   18.7353  -13.8229  -16.1054 C   0  0  0  0  0  0  0  0  0  0  0  0
   18.6457  -13.5346  -17.5845 C   0  0  0  0  0  0  0  0  0  0  0  0
   19.5562  -12.3476  -17.7508 C   0  0  0  0  0  0  0  0  0  0  0  0
   19.7733  -11.8283  -16.3421 C   0  0  1  0  0  0  0  0  0  0  0  0
   19.6635  -10.3703  -16.3572 C   0  0  0  0  0  0  0  0  0  0  0  0
   20.6243   -9.7057  -16.8626 O   0  0  0  0  0  0  0  0  0  0  0  0
   18.5619   -9.6477  -15.8476 N   0  0  0  0  0  0  0  0  0  0  0  0
   18.5550   -8.1901  -15.8849 C   0  0  1  0  0  0  0  0  0  0  0  0
   17.1446   -7.6595  -15.7585 C   0  0  0  0  0  0  0  0  0  0  0  0
   17.0962   -6.1525  -15.8076 C   0  0  0  0  0  0  0  0  0  0  0  0
   15.6794   -5.7442  -15.6188 C   0  0  0  0  0  0  0  0  0  0  0  0
   15.2779   -5.1932  -14.5396 O   0  0  0  0  0  0  0  0  0  0  0  0
   19.4617   -7.6193  -14.8697 C   0  0  0  0  0  0  0  0  0  0  0  0
   19.4364   -7.9626  -13.6614 O   0  0  0  0  0  0  0  0  0  0  0  0
   14.7038   -5.9311  -16.5915 O   0  0  0  0  0  0  0  0  0  0  0  0
   22.8823   -7.8202  -14.1624 C   0  0  0  0  0  0  0  0  0  0  0  0
   22.6720   -6.3790  -14.5179 C   0  0  1  0  0  0  0  0  0  0  0  0
   22.9811   -6.1613  -15.8482 O   0  0  0  0  0  0  0  0  0  0  0  0
   21.2394   -5.9313  -14.3047 C   0  0  2  0  0  0  0  0  0  0  0  0
   20.4178   -6.6364  -15.2394 N   0  0  0  0  0  0  0  0  0  0  0  0
   21.0855   -4.4809  -14.3419 C   0  0  0  0  0  0  0  0  0  0  0  0
   21.6491   -3.6880  -13.3610 O   0  0  0  0  0  0  0  0  0  0  0  0
   20.4388   -3.9414  -15.2669 O   0  0  0  0  0  0  0  0  0  0  0  0
  1  2  1  0
  3  2  1  0
  4  3  1  0
  5  4  1  0
  5  1  1  0
  5  6  1  6
  7  6  2  0
  8  6  1  0
  9 14  1  0
  9  8  1  0
  9 10  1  1
 11 10  1  0
 12 11  1  0
 13 12  2  0
 14 15  2  0
 16 12  1  0
 18 17  1  6
 18 19  1  0
 18 20  1  0
 20 21  1  6
 21 14  1  0
 22 20  1  0
 22 23  1  0
 24 22  2  0
M  END
$$$$
