PET.pdb
     RDKit          3D

 24 24  0  0  1  0  0  0  0  0999 V2000
   24.3744  -12.2950  -15.8271 N   0  0  0  0  0  0  0  0  0  0  0  0
   24.9088  -13.5744  -16.3444 C   0  0  0  0  0  0  0  0  0  0  0  0
   23.8301  -13.9633  -17.3262 C   0  0  0  0  0  0  0  0  0  0  0  0
   23.4747  -12.6509  -17.9718 C   0  0  0  0  0  0  0  0  0  0  0  0
   24.0763  -11.5979  -17.0604 C   0  0  1  0  0  0  0  0  0  0  0  0
   23.0998  -10.5259  -16.8731 C   0  0  0  0  0  0  0  0  0  0  0  0
   22.8279   -9.7863  -17.8728 O   0  0  0  0  0  0  0  0  0  0  0  0
   22.4367  -10.2542  -15.6559 N   0  0  0  0  0  0  0  0  0  0  0  0
   21.4148   -9.2162  -15.5882 C   0  0  1  0  0  0  0  0  0  0  0  0
   20.1453   -9.7565  -14.9692 C   0  0  0  0  0  0  0  0  0  0  0  0
   19.4635  -10.7671  -15.8577 C   0  0  0  0  0  0  0  0  0  0  0  0
   18.2241  -11.2073  -15.1651 C   0  0  0  0  0  0  0  0  0  0  0  0
   18.2633  -11.9335  -14.1161 O   0  0  0  0  0  0  0  0  0  0  0  0
   21.9112   -8.0140  -14.8905 C   0  0  0  0  0  0  0  0  0  0  0  0
   22.5266   -8.0648  -13.7963 O   0  0  0  0  0  0  0  0  0  0  0  0
   16.9507  -10.8638  -15.6052 O   0  0  0  0  0  0  0  0  0  0  0  0
   24.1447   -5.3735  -16.3432 C   0  0  0  0  0  0  0  0  0  0  0  0
   22.8804   -4.7053  -15.8932 C   0  0  1  0  0  0  0  0  0  0  0  0
   22.0209   -4.5312  -16.9628 O   0  0  0  0  0  0  0  0  0  0  0  0
   22.1410   -5.5093  -14.8420 C   0  0  2  0  0  0  0  0  0  0  0  0
   21.7018   -6.7263  -15.4517 N   0  0  0  0  0  0  0  0  0  0  0  0
   21.0833   -4.7490  -14.1847 C   0  0  0  0  0  0  0  0  0  0  0  0
   21.3916   -3.7090  -13.3293 O   0  0  0  0  0  0  0  0  0  0  0  0
   19.8830   -5.0346  -14.3916 O   0  0  0  0  0  0  0  0  0  0  0  0
  1  2  1  0
  3  2  1  0
  4  3  1  0
  5  4  1  0
  5  1  1  0
  5  6  1  1
  7  6  2  0
  8  6  1  0
  9 14  1  0
  9  8  1  0
  9 10  1  1
 11 10  1  0
 12 11  1  0
 13 12  2  0
 14 15  2  0
 16 12  1  0
 18 17  1  6
 18 19  1  0
 18 20  1  0
 20 21  1  6
 21 14  1  0
 22 20  1  0
 22 23  1  0
 24 22  2  0
M  END
$$$$
