PET.pdb
     RDKit          3D

 24 24  0  0  1  0  0  0  0  0999 V2000
   18.4378  -12.4522  -17.1002 N   0  0  0  0  0  0  0  0  0  0  0  0
   19.1153  -13.7678  -17.0921 C   0  0  0  0  0  0  0  0  0  0  0  0
   20.5629  -13.3479  -17.0101 C   0  0  0  0  0  0  0  0  0  0  0  0
   20.5238  -12.1953  -16.0428 C   0  0  0  0  0  0  0  0  0  0  0  0
   19.0585  -11.8115  -15.9600 C   0  0  1  0  0  0  0  0  0  0  0  0
   18.9513  -10.3542  -16.0124 C   0  0  0  0  0  0  0  0  0  0  0  0
   19.3578   -9.7644  -17.0647 O   0  0  0  0  0  0  0  0  0  0  0  0
   18.4268   -9.5548  -14.9727 N   0  0  0  0  0  0  0  0  0  0  0  0
   18.4162   -8.1017  -15.0933 C   0  0  1  0  0  0  0  0  0  0  0  0
   17.0463   -7.5491  -14.7695 C   0  0  0  0  0  0  0  0  0  0  0  0
   15.9796   -8.0984  -15.6839 C   0  0  0  0  0  0  0  0  0  0  0  0
   14.7117   -8.1527  -14.9100 C   0  0  0  0  0  0  0  0  0  0  0  0
   14.5816   -7.5508  -13.7919 O   0  0  0  0  0  0  0  0  0  0  0  0
   19.4777   -7.4838  -14.2748 C   0  0  0  0  0  0  0  0  0  0  0  0
   19.7029   -7.8165  -13.0844 O   0  0  0  0  0  0  0  0  0  0  0  0
   13.5921   -8.8540  -15.3433 O   0  0  0  0  0  0  0  0  0  0  0  0
   22.9381   -7.7485  -14.7759 C   0  0  0  0  0  0  0  0  0  0  0  0
   22.6733   -6.2752  -14.8588 C   0  0  1  0  0  0  0  0  0  0  0  0
   22.5406   -5.8835  -16.1786 O   0  0  0  0  0  0  0  0  0  0  0  0
   21.4039   -5.8717  -14.1349 C   0  0  2  0  0  0  0  0  0  0  0  0
   20.3003   -6.4650  -14.8246 N   0  0  0  0  0  0  0  0  0  0  0  0
   21.2912   -4.4293  -13.9461 C   0  0  0  0  0  0  0  0  0  0  0  0
   20.3289   -3.7042  -14.6219 O   0  0  0  0  0  0  0  0  0  0  0  0
   22.0689   -3.8351  -13.1670 O   0  0  0  0  0  0  0  0  0  0  0  0
  1  2  1  0
  3  2  1  0
  4  3  1  0
  5  4  1  0
  5  1  1  0
  5  6  1  6
  7  6  2  0
  8  6  1  0
  9 14  1  0
  9  8  1  0
  9 10  1  1
 11 10  1  0
 12 11  1  0
 13 12  2  0
 14 15  2  0
 16 12  1  0
 18 17  1  6
 18 19  1  0
 18 20  1  0
 20 21  1  6
 21 14  1  0
 22 20  1  0
 22 23  1  0
 24 22  2  0
M  END
$$$$
