KDL.pdb
     RDKit          3D

 26 25  0  0  1  0  0  0  0  0999 V2000
    9.7013  -13.3961   19.3125 N   0  0  0  0  0  0  0  0  0  0  0  0
    8.4234  -13.1747   19.9577 C   0  0  1  0  0  0  0  0  0  0  0  0
    7.2660  -13.2397   18.9885 C   0  0  0  0  0  0  0  0  0  0  0  0
    7.4703  -14.1845   17.8560 C   0  0  0  0  0  0  0  0  0  0  0  0
    8.4813  -13.7828   16.8302 C   0  0  0  0  0  0  0  0  0  0  0  0
    8.4719  -14.7816   15.6791 C   0  0  0  0  0  0  0  0  0  0  0  0
    9.5361  -14.4997   14.7380 N   0  0  0  0  0  0  0  0  0  0  0  0
    8.1983  -14.2479   20.9482 C   0  0  0  0  0  0  0  0  0  0  0  0
    7.0638  -14.4152   21.4198 O   0  0  0  0  0  0  0  0  0  0  0  0
    9.2424  -15.0854   21.3695 N   0  0  0  0  0  0  0  0  0  0  0  0
    9.1456  -16.1203   22.3380 C   0  0  1  0  0  0  0  0  0  0  0  0
   10.0227  -17.3040   22.1112 C   0  0  0  0  0  0  0  0  0  0  0  0
    9.8177  -18.3544   23.1081 C   0  0  0  0  0  0  0  0  0  0  0  0
    8.6500  -18.7663   23.3903 O   0  0  0  0  0  0  0  0  0  0  0  0
    9.4172  -15.5665   23.6733 C   0  0  0  0  0  0  0  0  0  0  0  0
   10.5348  -14.9869   23.9067 O   0  0  0  0  0  0  0  0  0  0  0  0
   10.8589  -18.9554   23.7949 O   0  0  0  0  0  0  0  0  0  0  0  0
    8.2753  -11.9869   26.0111 C   0  0  0  0  0  0  0  0  0  0  0  0
    7.2048  -13.0580   25.8783 C   0  0  2  0  0  0  0  0  0  0  0  0
    5.8403  -12.5662   26.1446 C   0  0  0  0  0  0  0  0  0  0  0  0
    7.5909  -14.3282   26.5221 C   0  0  0  0  0  0  0  0  0  0  0  0
    8.8298  -15.0229   26.0799 C   0  0  2  0  0  0  0  0  0  0  0  0
    8.5152  -15.6239   24.7568 N   0  0  0  0  0  0  0  0  0  0  0  0
    9.2460  -16.1509   26.9268 C   0  0  0  0  0  0  0  0  0  0  0  0
    9.0209  -17.3654   26.6910 O   0  0  0  0  0  0  0  0  0  0  0  0
    9.9651  -15.9325   28.1255 O   0  0  0  0  0  0  0  0  0  0  0  0
  2  1  1  6
  2  3  1  0
  3  4  1  0
  5  4  1  0
  6  7  1  0
  6  5  1  0
  8  2  1  0
  8  9  2  0
 10  8  1  0
 11 10  1  0
 11 12  1  6
 13 12  1  0
 13 17  1  0
 14 13  2  0
 15 11  1  0
 16 15  2  0
 19 18  1  1
 19 21  1  0
 20 19  1  0
 22 21  1  1
 22 23  1  0
 23 15  1  0
 24 22  1  0
 25 24  2  0
 26 24  1  0
M  END
$$$$
