KDL.pdb
     RDKit          3D

 26 25  0  0  1  0  0  0  0  0999 V2000
   10.0083  -13.5287   19.3912 N   0  0  0  0  0  0  0  0  0  0  0  0
    8.6358  -13.4329   19.8444 C   0  0  1  0  0  0  0  0  0  0  0  0
    7.6405  -13.6815   18.7349 C   0  0  0  0  0  0  0  0  0  0  0  0
    8.2598  -14.0219   17.4242 C   0  0  0  0  0  0  0  0  0  0  0  0
    7.3650  -13.9503   16.2285 C   0  0  0  0  0  0  0  0  0  0  0  0
    8.1710  -14.2261   14.9647 C   0  0  0  0  0  0  0  0  0  0  0  0
    7.3178  -14.2281   13.7944 N   0  0  0  0  0  0  0  0  0  0  0  0
    8.3963  -14.4780   20.8610 C   0  0  0  0  0  0  0  0  0  0  0  0
    7.2587  -14.6213   21.3331 O   0  0  0  0  0  0  0  0  0  0  0  0
    9.4302  -15.3155   21.3069 N   0  0  0  0  0  0  0  0  0  0  0  0
    9.3318  -16.2912   22.3349 C   0  0  1  0  0  0  0  0  0  0  0  0
   10.2844  -17.4336   22.2372 C   0  0  0  0  0  0  0  0  0  0  0  0
   10.0196  -18.4724   23.2321 C   0  0  0  0  0  0  0  0  0  0  0  0
   10.5697  -18.4347   24.3762 O   0  0  0  0  0  0  0  0  0  0  0  0
    9.4918  -15.6394   23.6437 C   0  0  0  0  0  0  0  0  0  0  0  0
   10.6032  -15.0789   23.9441 O   0  0  0  0  0  0  0  0  0  0  0  0
    9.1716  -19.5417   22.9982 O   0  0  0  0  0  0  0  0  0  0  0  0
    6.1078  -12.1737   26.7441 C   0  0  0  0  0  0  0  0  0  0  0  0
    7.4929  -12.7751   26.5688 C   0  0  2  0  0  0  0  0  0  0  0  0
    8.3894  -11.9597   25.7285 C   0  0  0  0  0  0  0  0  0  0  0  0
    7.4507  -14.2224   26.2855 C   0  0  0  0  0  0  0  0  0  0  0  0
    8.7119  -14.9376   25.9528 C   0  0  2  0  0  0  0  0  0  0  0  0
    8.4852  -15.5792   24.6307 N   0  0  0  0  0  0  0  0  0  0  0  0
    9.0598  -16.0401   26.8619 C   0  0  0  0  0  0  0  0  0  0  0  0
    8.7050  -17.2390   26.7279 O   0  0  0  0  0  0  0  0  0  0  0  0
    9.8587  -15.8125   28.0070 O   0  0  0  0  0  0  0  0  0  0  0  0
  2  1  1  6
  2  3  1  0
  3  4  1  0
  5  4  1  0
  6  7  1  0
  6  5  1  0
  8  2  1  0
  8  9  2  0
 10  8  1  0
 11 10  1  0
 11 12  1  6
 13 12  1  0
 13 17  1  0
 14 13  2  0
 15 11  1  0
 16 15  2  0
 19 18  1  6
 19 21  1  0
 20 19  1  0
 22 21  1  1
 22 23  1  0
 23 15  1  0
 24 22  1  0
 25 24  2  0
 26 24  1  0
M  END
$$$$
