KDL.pdb
     RDKit          3D

 26 25  0  0  1  0  0  0  0  0999 V2000
    9.5408  -13.1832   19.4576 N   0  0  0  0  0  0  0  0  0  0  0  0
    8.2178  -13.1134   20.0434 C   0  0  1  0  0  0  0  0  0  0  0  0
    7.1202  -13.2361   19.0122 C   0  0  0  0  0  0  0  0  0  0  0  0
    7.6072  -13.2935   17.6062 C   0  0  0  0  0  0  0  0  0  0  0  0
    7.9353  -14.6510   17.0721 C   0  0  0  0  0  0  0  0  0  0  0  0
    8.2330  -14.5593   15.5802 C   0  0  0  0  0  0  0  0  0  0  0  0
    8.7799  -15.8045   15.0820 N   0  0  0  0  0  0  0  0  0  0  0  0
    8.0475  -14.2511   20.9707 C   0  0  0  0  0  0  0  0  0  0  0  0
    6.9203  -14.5115   21.4170 O   0  0  0  0  0  0  0  0  0  0  0  0
    9.1357  -15.0469   21.3599 N   0  0  0  0  0  0  0  0  0  0  0  0
    9.0966  -16.1208   22.2894 C   0  0  1  0  0  0  0  0  0  0  0  0
    9.9853  -17.2771   21.9812 C   0  0  0  0  0  0  0  0  0  0  0  0
    9.5240  -18.5203   22.5983 C   0  0  0  0  0  0  0  0  0  0  0  0
    8.8601  -18.5035   23.6809 O   0  0  0  0  0  0  0  0  0  0  0  0
    9.4113  -15.6145   23.6340 C   0  0  0  0  0  0  0  0  0  0  0  0
   10.5539  -15.0839   23.8630 O   0  0  0  0  0  0  0  0  0  0  0  0
    9.7749  -19.7694   22.0562 O   0  0  0  0  0  0  0  0  0  0  0  0
    8.4580  -12.1024   26.1305 C   0  0  0  0  0  0  0  0  0  0  0  0
    7.3387  -13.1240   26.0098 C   0  0  2  0  0  0  0  0  0  0  0  0
    6.0098  -12.5888   26.3593 C   0  0  0  0  0  0  0  0  0  0  0  0
    7.7010  -14.4326   26.5870 C   0  0  0  0  0  0  0  0  0  0  0  0
    8.8993  -15.1494   26.0741 C   0  0  2  0  0  0  0  0  0  0  0  0
    8.5259  -15.6676   24.7314 N   0  0  0  0  0  0  0  0  0  0  0  0
    9.2935  -16.3353   26.8494 C   0  0  0  0  0  0  0  0  0  0  0  0
    9.7192  -16.3281   28.0325 O   0  0  0  0  0  0  0  0  0  0  0  0
    9.2152  -17.6305   26.2855 O   0  0  0  0  0  0  0  0  0  0  0  0
  2  1  1  6
  2  3  1  0
  3  4  1  0
  5  4  1  0
  6  7  1  0
  6  5  1  0
  8  2  1  0
  8  9  2  0
 10  8  1  0
 11 10  1  0
 11 12  1  6
 13 12  1  0
 13 17  1  0
 14 13  2  0
 15 11  1  0
 16 15  2  0
 19 18  1  1
 19 21  1  0
 20 19  1  0
 22 21  1  1
 22 23  1  0
 23 15  1  0
 24 22  1  0
 25 24  2  0
 26 24  1  0
M  END
$$$$
