KDL.pdb
     RDKit          3D

 26 25  0  0  1  0  0  0  0  0999 V2000
   10.3400  -14.1303   19.2590 N   0  0  0  0  0  0  0  0  0  0  0  0
    9.1435  -13.5476   19.8313 C   0  0  1  0  0  0  0  0  0  0  0  0
    8.0111  -13.4542   18.8353 C   0  0  0  0  0  0  0  0  0  0  0  0
    8.3598  -13.9298   17.4680 C   0  0  0  0  0  0  0  0  0  0  0  0
    7.3274  -13.7172   16.4076 C   0  0  0  0  0  0  0  0  0  0  0  0
    7.8452  -14.2395   15.0726 C   0  0  0  0  0  0  0  0  0  0  0  0
    6.8170  -14.1732   14.0547 N   0  0  0  0  0  0  0  0  0  0  0  0
    8.6660  -14.4193   20.9247 C   0  0  0  0  0  0  0  0  0  0  0  0
    7.5837  -14.1697   21.4760 O   0  0  0  0  0  0  0  0  0  0  0  0
    9.4116  -15.5271   21.3558 N   0  0  0  0  0  0  0  0  0  0  0  0
    9.0413  -16.4361   22.3830 C   0  0  1  0  0  0  0  0  0  0  0  0
    9.7110  -17.7672   22.3426 C   0  0  0  0  0  0  0  0  0  0  0  0
    9.3407  -18.5468   21.1618 C   0  0  0  0  0  0  0  0  0  0  0  0
    8.1217  -18.7709   20.8846 O   0  0  0  0  0  0  0  0  0  0  0  0
    9.2802  -15.8146   23.6945 C   0  0  0  0  0  0  0  0  0  0  0  0
   10.4705  -15.4911   24.0382 O   0  0  0  0  0  0  0  0  0  0  0  0
   10.2728  -19.0804   20.2880 O   0  0  0  0  0  0  0  0  0  0  0  0
    7.9256  -11.9362   25.9116 C   0  0  0  0  0  0  0  0  0  0  0  0
    6.8733  -13.0282   25.8065 C   0  0  2  0  0  0  0  0  0  0  0  0
    5.5093  -12.5674   26.1259 C   0  0  0  0  0  0  0  0  0  0  0  0
    7.3082  -14.2957   26.4239 C   0  0  0  0  0  0  0  0  0  0  0  0
    8.5705  -14.9351   25.9650 C   0  0  2  0  0  0  0  0  0  0  0  0
    8.2693  -15.5360   24.6387 N   0  0  0  0  0  0  0  0  0  0  0  0
    9.0395  -16.0530   26.7975 C   0  0  0  0  0  0  0  0  0  0  0  0
    8.7788  -17.2681   26.6057 O   0  0  0  0  0  0  0  0  0  0  0  0
    9.8581  -15.8230   27.9282 O   0  0  0  0  0  0  0  0  0  0  0  0
  2  1  1  6
  2  3  1  0
  3  4  1  0
  5  4  1  0
  6  7  1  0
  6  5  1  0
  8  2  1  0
  8  9  2  0
 10  8  1  0
 11 10  1  0
 11 12  1  1
 13 12  1  0
 13 17  1  0
 14 13  2  0
 15 11  1  0
 16 15  2  0
 19 18  1  1
 19 21  1  0
 20 19  1  0
 22 21  1  1
 22 23  1  0
 23 15  1  0
 24 22  1  0
 25 24  2  0
 26 24  1  0
M  END
$$$$
