KDL.pdb
     RDKit          3D

 26 25  0  0  1  0  0  0  0  0999 V2000
    7.9180  -16.1936   19.0635 N   0  0  0  0  0  0  0  0  0  0  0  0
    8.6187  -15.3733   20.0303 C   0  0  1  0  0  0  0  0  0  0  0  0
    8.0510  -13.9762   20.1245 C   0  0  0  0  0  0  0  0  0  0  0  0
    8.2774  -13.1421   18.9120 C   0  0  0  0  0  0  0  0  0  0  0  0
    7.3733  -13.4010   17.7496 C   0  0  0  0  0  0  0  0  0  0  0  0
    7.8569  -12.6160   16.5360 C   0  0  0  0  0  0  0  0  0  0  0  0
    8.3339  -13.5061   15.4979 N   0  0  0  0  0  0  0  0  0  0  0  0
    8.4623  -15.9779   21.3694 C   0  0  0  0  0  0  0  0  0  0  0  0
    7.3352  -16.3201   21.7569 O   0  0  0  0  0  0  0  0  0  0  0  0
    9.5636  -16.1746   22.2165 N   0  0  0  0  0  0  0  0  0  0  0  0
    9.5544  -16.8780   23.4508 C   0  0  1  0  0  0  0  0  0  0  0  0
   10.5848  -17.9454   23.5959 C   0  0  0  0  0  0  0  0  0  0  0  0
   11.9334  -17.4697   23.2889 C   0  0  0  0  0  0  0  0  0  0  0  0
   12.8691  -17.5676   24.1420 O   0  0  0  0  0  0  0  0  0  0  0  0
    9.6908  -15.9209   24.5593 C   0  0  0  0  0  0  0  0  0  0  0  0
   10.4728  -14.9143   24.4385 O   0  0  0  0  0  0  0  0  0  0  0  0
   12.2718  -16.8941   22.0760 O   0  0  0  0  0  0  0  0  0  0  0  0
    8.6047  -12.1651   25.8643 C   0  0  0  0  0  0  0  0  0  0  0  0
    7.5448  -13.2532   25.9233 C   0  0  2  0  0  0  0  0  0  0  0  0
    6.1642  -12.7353   25.9022 C   0  0  0  0  0  0  0  0  0  0  0  0
    7.8508  -14.2887   26.9287 C   0  0  0  0  0  0  0  0  0  0  0  0
    9.1517  -15.0072   26.8630 C   0  0  2  0  0  0  0  0  0  0  0  0
    9.0063  -16.0250   25.7888 N   0  0  0  0  0  0  0  0  0  0  0  0
    9.5029  -15.7689   28.0710 C   0  0  0  0  0  0  0  0  0  0  0  0
    9.8390  -15.2735   29.1769 O   0  0  0  0  0  0  0  0  0  0  0  0
    9.4845  -17.1835   28.0686 O   0  0  0  0  0  0  0  0  0  0  0  0
  2  1  1  6
  2  3  1  0
  3  4  1  0
  5  4  1  0
  6  7  1  0
  6  5  1  0
  8  2  1  0
  8  9  2  0
 10  8  1  0
 11 10  1  0
 11 12  1  6
 13 12  1  0
 13 17  1  0
 14 13  2  0
 15 11  1  0
 16 15  2  0
 19 18  1  1
 19 21  1  0
 20 19  1  0
 22 21  1  1
 22 23  1  0
 23 15  1  0
 24 22  1  0
 25 24  2  0
 26 24  1  0
M  END
$$$$
