KDL.pdb
     RDKit          3D

 26 25  0  0  1  0  0  0  0  0999 V2000
    9.5211  -15.1509   19.2354 N   0  0  0  0  0  0  0  0  0  0  0  0
    8.7475  -14.3670   20.1765 C   0  0  1  0  0  0  0  0  0  0  0  0
    7.3240  -14.1509   19.7183 C   0  0  0  0  0  0  0  0  0  0  0  0
    7.1141  -14.3594   18.2589 C   0  0  0  0  0  0  0  0  0  0  0  0
    8.1299  -13.7480   17.3479 C   0  0  0  0  0  0  0  0  0  0  0  0
    7.6883  -13.9142   15.8987 C   0  0  0  0  0  0  0  0  0  0  0  0
    8.7350  -13.5027   14.9861 N   0  0  0  0  0  0  0  0  0  0  0  0
    8.6665  -15.1030   21.4552 C   0  0  0  0  0  0  0  0  0  0  0  0
    7.7591  -14.8358   22.2570 O   0  0  0  0  0  0  0  0  0  0  0  0
    9.5961  -16.1009   21.7851 N   0  0  0  0  0  0  0  0  0  0  0  0
    9.6474  -16.8256   23.0061 C   0  0  1  0  0  0  0  0  0  0  0  0
   10.5966  -17.9745   23.0382 C   0  0  0  0  0  0  0  0  0  0  0  0
   10.6889  -18.5901   24.3617 C   0  0  0  0  0  0  0  0  0  0  0  0
    9.6556  -19.0471   24.9417 O   0  0  0  0  0  0  0  0  0  0  0  0
    9.9663  -15.9046   24.1076 C   0  0  0  0  0  0  0  0  0  0  0  0
   11.0827  -15.2775   24.1100 O   0  0  0  0  0  0  0  0  0  0  0  0
   11.8814  -18.7125   25.0546 O   0  0  0  0  0  0  0  0  0  0  0  0
    6.7274  -12.4661   24.6785 C   0  0  0  0  0  0  0  0  0  0  0  0
    7.2573  -13.3894   25.7637 C   0  0  2  0  0  0  0  0  0  0  0  0
    6.5271  -13.2811   27.0404 C   0  0  0  0  0  0  0  0  0  0  0  0
    8.7308  -13.3888   25.8388 C   0  0  0  0  0  0  0  0  0  0  0  0
    9.4412  -14.6331   26.2384 C   0  0  2  0  0  0  0  0  0  0  0  0
    9.1125  -15.6464   25.2010 N   0  0  0  0  0  0  0  0  0  0  0  0
    8.9944  -15.2233   27.5092 C   0  0  0  0  0  0  0  0  0  0  0  0
    9.1331  -14.7043   28.6461 O   0  0  0  0  0  0  0  0  0  0  0  0
    8.3446  -16.4797   27.5377 O   0  0  0  0  0  0  0  0  0  0  0  0
  2  1  1  6
  2  3  1  0
  3  4  1  0
  5  4  1  0
  6  7  1  0
  6  5  1  0
  8  2  1  0
  8  9  2  0
 10  8  1  0
 11 10  1  0
 11 12  1  6
 13 12  1  0
 13 17  1  0
 14 13  2  0
 15 11  1  0
 16 15  2  0
 19 18  1  6
 19 21  1  0
 20 19  1  0
 22 21  1  6
 22 23  1  0
 23 15  1  0
 24 22  1  0
 25 24  2  0
 26 24  1  0
M  END
$$$$
