KDL.pdb
     RDKit          3D

 26 25  0  0  1  0  0  0  0  0999 V2000
    7.4469  -16.9316   20.2141 N   0  0  0  0  0  0  0  0  0  0  0  0
    8.4543  -16.1497   20.9014 C   0  0  1  0  0  0  0  0  0  0  0  0
    8.0747  -14.6920   21.0208 C   0  0  0  0  0  0  0  0  0  0  0  0
    7.8909  -14.0001   19.7152 C   0  0  0  0  0  0  0  0  0  0  0  0
    7.5665  -12.5418   19.7763 C   0  0  0  0  0  0  0  0  0  0  0  0
    7.3138  -12.0110   18.3701 C   0  0  0  0  0  0  0  0  0  0  0  0
    8.4516  -12.2590   17.5089 N   0  0  0  0  0  0  0  0  0  0  0  0
    8.5919  -16.6589   22.2817 C   0  0  0  0  0  0  0  0  0  0  0  0
    7.6007  -17.1269   22.8614 O   0  0  0  0  0  0  0  0  0  0  0  0
    9.8227  -16.6249   22.9547 N   0  0  0  0  0  0  0  0  0  0  0  0
   10.0786  -17.1335   24.2564 C   0  0  1  0  0  0  0  0  0  0  0  0
   11.2093  -18.0989   24.3640 C   0  0  0  0  0  0  0  0  0  0  0  0
   11.3574  -18.6424   25.7137 C   0  0  0  0  0  0  0  0  0  0  0  0
   10.3391  -18.9358   26.4137 O   0  0  0  0  0  0  0  0  0  0  0  0
   10.3098  -16.0137   25.1815 C   0  0  0  0  0  0  0  0  0  0  0  0
   11.3737  -15.3093   25.0750 O   0  0  0  0  0  0  0  0  0  0  0  0
   12.5891  -18.8676   26.3048 O   0  0  0  0  0  0  0  0  0  0  0  0
    8.4709  -12.1864   25.5312 C   0  0  0  0  0  0  0  0  0  0  0  0
    7.6933  -13.2678   26.2640 C   0  0  2  0  0  0  0  0  0  0  0  0
    6.2805  -12.9200   26.5041 C   0  0  0  0  0  0  0  0  0  0  0  0
    8.4421  -13.8307   27.4038 C   0  0  0  0  0  0  0  0  0  0  0  0
    9.7313  -14.5300   27.1555 C   0  0  2  0  0  0  0  0  0  0  0  0
    9.4238  -15.6388   26.2137 N   0  0  0  0  0  0  0  0  0  0  0  0
   10.3238  -15.1789   28.3348 C   0  0  0  0  0  0  0  0  0  0  0  0
   10.8364  -14.5845   29.3172 O   0  0  0  0  0  0  0  0  0  0  0  0
   10.3575  -16.5888   28.4478 O   0  0  0  0  0  0  0  0  0  0  0  0
  2  1  1  1
  2  3  1  0
  3  4  1  0
  5  4  1  0
  6  7  1  0
  6  5  1  0
  8  2  1  0
  8  9  2  0
 10  8  1  0
 11 10  1  0
 11 12  1  6
 13 12  1  0
 13 17  1  0
 14 13  2  0
 15 11  1  0
 16 15  2  0
 19 18  1  1
 19 21  1  0
 20 19  1  0
 22 21  1  1
 22 23  1  0
 23 15  1  0
 24 22  1  0
 25 24  2  0
 26 24  1  0
M  END
$$$$
