KDL.pdb
     RDKit          3D

 26 25  0  0  1  0  0  0  0  0999 V2000
    6.4465  -15.8818   20.3479 N   0  0  0  0  0  0  0  0  0  0  0  0
    7.7189  -15.2935   20.7133 C   0  0  1  0  0  0  0  0  0  0  0  0
    7.6425  -13.7914   20.8580 C   0  0  0  0  0  0  0  0  0  0  0  0
    7.3901  -13.0671   19.5817 C   0  0  0  0  0  0  0  0  0  0  0  0
    8.2753  -13.4226   18.4302 C   0  0  0  0  0  0  0  0  0  0  0  0
    7.8279  -12.6672   17.1844 C   0  0  0  0  0  0  0  0  0  0  0  0
    8.6801  -12.9770   16.0550 N   0  0  0  0  0  0  0  0  0  0  0  0
    8.1246  -15.8193   22.0332 C   0  0  0  0  0  0  0  0  0  0  0  0
    7.2783  -15.9298   22.9327 O   0  0  0  0  0  0  0  0  0  0  0  0
    9.4504  -16.1977   22.2939 N   0  0  0  0  0  0  0  0  0  0  0  0
    9.9247  -16.8211   23.4792 C   0  0  1  0  0  0  0  0  0  0  0  0
   11.2040  -17.5748   23.3475 C   0  0  0  0  0  0  0  0  0  0  0  0
   11.0797  -18.7449   22.4788 C   0  0  0  0  0  0  0  0  0  0  0  0
   11.9603  -19.0011   21.6002 O   0  0  0  0  0  0  0  0  0  0  0  0
   10.0659  -15.8112   24.5392 C   0  0  0  0  0  0  0  0  0  0  0  0
   10.9733  -14.9127   24.4455 O   0  0  0  0  0  0  0  0  0  0  0  0
   10.0181  -19.6305   22.5544 O   0  0  0  0  0  0  0  0  0  0  0  0
    8.7679  -12.0630   25.8290 C   0  0  0  0  0  0  0  0  0  0  0  0
    7.7563  -13.1420   26.1801 C   0  0  2  0  0  0  0  0  0  0  0  0
    6.4037  -12.6194   26.4484 C   0  0  0  0  0  0  0  0  0  0  0  0
    8.2898  -14.1288   27.1385 C   0  0  0  0  0  0  0  0  0  0  0  0
    9.5602  -14.8366   26.8254 C   0  0  2  0  0  0  0  0  0  0  0  0
    9.2547  -15.7493   25.6920 N   0  0  0  0  0  0  0  0  0  0  0  0
   10.0666  -15.7078   27.8965 C   0  0  0  0  0  0  0  0  0  0  0  0
    9.9366  -16.9575   27.9466 O   0  0  0  0  0  0  0  0  0  0  0  0
   10.7709  -15.1690   28.9989 O   0  0  0  0  0  0  0  0  0  0  0  0
  2  1  1  1
  2  3  1  0
  3  4  1  0
  5  4  1  0
  6  7  1  0
  6  5  1  0
  8  2  1  0
  8  9  2  0
 10  8  1  0
 11 10  1  0
 11 12  1  6
 13 12  1  0
 13 17  1  0
 14 13  2  0
 15 11  1  0
 16 15  2  0
 19 18  1  1
 19 21  1  0
 20 19  1  0
 22 21  1  1
 22 23  1  0
 23 15  1  0
 24 22  1  0
 25 24  2  0
 26 24  1  0
M  END
$$$$
