KDL.pdb
     RDKit          3D

 26 25  0  0  1  0  0  0  0  0999 V2000
   10.2257  -13.3963   19.8026 N   0  0  0  0  0  0  0  0  0  0  0  0
    8.8521  -13.2853   20.2490 C   0  0  1  0  0  0  0  0  0  0  0  0
    7.8621  -13.4121   19.1145 C   0  0  0  0  0  0  0  0  0  0  0  0
    8.4660  -13.8388   17.8221 C   0  0  0  0  0  0  0  0  0  0  0  0
    7.5494  -13.8770   16.6414 C   0  0  0  0  0  0  0  0  0  0  0  0
    8.3269  -14.2954   15.3991 C   0  0  0  0  0  0  0  0  0  0  0  0
    7.4550  -14.3846   14.2460 N   0  0  0  0  0  0  0  0  0  0  0  0
    8.5633  -14.3956   21.1802 C   0  0  0  0  0  0  0  0  0  0  0  0
    7.4025  -14.5717   21.5790 O   0  0  0  0  0  0  0  0  0  0  0  0
    9.5759  -15.2587   21.6259 N   0  0  0  0  0  0  0  0  0  0  0  0
    9.4323  -16.2854   22.5974 C   0  0  1  0  0  0  0  0  0  0  0  0
   10.3390  -17.4580   22.4397 C   0  0  0  0  0  0  0  0  0  0  0  0
   10.1267  -18.1665   21.1778 C   0  0  0  0  0  0  0  0  0  0  0  0
    9.0527  -18.8097   20.9640 O   0  0  0  0  0  0  0  0  0  0  0  0
    9.6101  -15.7146   23.9412 C   0  0  0  0  0  0  0  0  0  0  0  0
   10.7651  -15.3033   24.3104 O   0  0  0  0  0  0  0  0  0  0  0  0
   11.0611  -18.1832   20.1563 O   0  0  0  0  0  0  0  0  0  0  0  0
    7.9179  -12.0922   26.0898 C   0  0  0  0  0  0  0  0  0  0  0  0
    6.9815  -13.2882   26.0289 C   0  0  2  0  0  0  0  0  0  0  0  0
    5.5732  -12.9509   26.3073 C   0  0  0  0  0  0  0  0  0  0  0  0
    7.5297  -14.4728   26.7167 C   0  0  0  0  0  0  0  0  0  0  0  0
    8.8222  -15.0492   26.2583 C   0  0  2  0  0  0  0  0  0  0  0  0
    8.5754  -15.5783   24.8909 N   0  0  0  0  0  0  0  0  0  0  0  0
    9.3001  -16.2014   27.0373 C   0  0  0  0  0  0  0  0  0  0  0  0
    9.1462  -17.4100   26.7261 O   0  0  0  0  0  0  0  0  0  0  0  0
   10.0017  -16.0162   28.2519 O   0  0  0  0  0  0  0  0  0  0  0  0
  2  1  1  6
  2  3  1  0
  3  4  1  0
  5  4  1  0
  6  7  1  0
  6  5  1  0
  8  2  1  0
  8  9  2  0
 10  8  1  0
 11 10  1  0
 11 12  1  6
 13 12  1  0
 13 17  1  0
 14 13  2  0
 15 11  1  0
 16 15  2  0
 19 18  1  1
 19 21  1  0
 20 19  1  0
 22 21  1  1
 22 23  1  0
 23 15  1  0
 24 22  1  0
 25 24  2  0
 26 24  1  0
M  END
$$$$
