KDL.pdb
     RDKit          3D

 26 25  0  0  1  0  0  0  0  0999 V2000
   10.2026  -14.3255   19.0636 N   0  0  0  0  0  0  0  0  0  0  0  0
    9.0366  -13.7446   19.6972 C   0  0  1  0  0  0  0  0  0  0  0  0
    7.8196  -13.7660   18.8019 C   0  0  0  0  0  0  0  0  0  0  0  0
    8.1297  -13.9197   17.3536 C   0  0  0  0  0  0  0  0  0  0  0  0
    6.9724  -13.8193   16.4124 C   0  0  0  0  0  0  0  0  0  0  0  0
    7.4495  -14.0482   14.9831 C   0  0  0  0  0  0  0  0  0  0  0  0
    6.3369  -14.0373   14.0559 N   0  0  0  0  0  0  0  0  0  0  0  0
    8.6921  -14.5486   20.8881 C   0  0  0  0  0  0  0  0  0  0  0  0
    7.6309  -14.3252   21.4894 O   0  0  0  0  0  0  0  0  0  0  0  0
    9.5410  -15.5629   21.3566 N   0  0  0  0  0  0  0  0  0  0  0  0
    9.2774  -16.4383   22.4441 C   0  0  1  0  0  0  0  0  0  0  0  0
   10.1069  -17.6758   22.4954 C   0  0  0  0  0  0  0  0  0  0  0  0
    9.7586  -18.6296   21.4427 C   0  0  0  0  0  0  0  0  0  0  0  0
   10.4509  -19.6781   21.2579 O   0  0  0  0  0  0  0  0  0  0  0  0
    9.4268  -15.7038   23.7096 C   0  0  0  0  0  0  0  0  0  0  0  0
   10.5036  -15.0517   23.9438 O   0  0  0  0  0  0  0  0  0  0  0  0
    8.6761  -18.4566   20.5968 O   0  0  0  0  0  0  0  0  0  0  0  0
    5.9512  -12.1353   26.4994 C   0  0  0  0  0  0  0  0  0  0  0  0
    7.3484  -12.7008   26.3013 C   0  0  2  0  0  0  0  0  0  0  0  0
    8.1393  -11.9802   25.2865 C   0  0  0  0  0  0  0  0  0  0  0  0
    7.3583  -14.1743   26.2286 C   0  0  0  0  0  0  0  0  0  0  0  0
    8.6417  -14.8835   25.9774 C   0  0  2  0  0  0  0  0  0  0  0  0
    8.4460  -15.6573   24.7229 N   0  0  0  0  0  0  0  0  0  0  0  0
    9.0094  -15.8816   26.9929 C   0  0  0  0  0  0  0  0  0  0  0  0
    9.4747  -15.6285   28.1334 O   0  0  0  0  0  0  0  0  0  0  0  0
    8.8555  -17.2652   26.7405 O   0  0  0  0  0  0  0  0  0  0  0  0
  2  1  1  6
  2  3  1  0
  3  4  1  0
  5  4  1  0
  6  7  1  0
  6  5  1  0
  8  2  1  0
  8  9  2  0
 10  8  1  0
 11 10  1  0
 11 12  1  1
 13 12  1  0
 13 17  1  0
 14 13  2  0
 15 11  1  0
 16 15  2  0
 19 18  1  6
 19 21  1  0
 20 19  1  0
 22 21  1  1
 22 23  1  0
 23 15  1  0
 24 22  1  0
 25 24  2  0
 26 24  1  0
M  END
$$$$
