EWD.pdb
     RDKit          3D

 32 33  0  0  1  0  0  0  0  0999 V2000
   10.1349  -16.5949   20.6315 N   0  0  0  0  0  0  0  0  0  0  0  0
   10.7163  -17.3207   21.7019 C   0  0  1  0  0  0  0  0  0  0  0  0
   12.1998  -17.4584   21.6214 C   0  0  0  0  0  0  0  0  0  0  0  0
   12.6583  -18.0625   20.3532 C   0  0  0  0  0  0  0  0  0  0  0  0
   14.1049  -18.2734   20.2902 C   0  0  0  0  0  0  0  0  0  0  0  0
   14.9904  -17.4922   19.9146 O   0  0  0  0  0  0  0  0  0  0  0  0
   10.4049  -16.6470   23.0051 C   0  0  0  0  0  0  0  0  0  0  0  0
   10.9748  -15.5590   23.2806 O   0  0  0  0  0  0  0  0  0  0  0  0
   14.5593  -19.5518   20.7180 O   0  0  0  0  0  0  0  0  0  0  0  0
    9.4710  -17.2862   23.8625 N   0  0  0  0  0  0  0  0  0  0  0  0
    9.0854  -16.6486   25.0910 C   0  0  1  0  0  0  0  0  0  0  0  0
    7.6642  -16.1875   25.1091 C   0  0  0  0  0  0  0  0  0  0  0  0
    7.3956  -14.8873   24.4952 C   0  0  0  0  0  0  0  0  0  0  0  0
    7.2687  -14.5544   23.1822 C   0  0  0  0  0  0  0  0  0  0  0  0
    7.0129  -13.2273   23.0963 N   0  0  0  0  0  0  0  0  0  0  0  0
    6.9737  -12.7050   24.3243 C   0  0  0  0  0  0  0  0  0  0  0  0
    6.7467  -11.3932   24.7481 C   0  0  0  0  0  0  0  0  0  0  0  0
    6.7554  -11.0888   26.0893 C   0  0  0  0  0  0  0  0  0  0  0  0
    6.9922  -12.1097   26.9826 C   0  0  0  0  0  0  0  0  0  0  0  0
    7.2175  -13.4090   26.5652 C   0  0  0  0  0  0  0  0  0  0  0  0
    7.2098  -13.7195   25.2187 C   0  0  0  0  0  0  0  0  0  0  0  0
    9.5155  -17.4039   26.2782 C   0  0  0  0  0  0  0  0  0  0  0  0
    9.0957  -17.1273   27.4432 O   0  0  0  0  0  0  0  0  0  0  0  0
   10.4248  -18.4730   26.1362 N   0  0  0  0  0  0  0  0  0  0  0  0
   10.9406  -19.2350   27.2935 C   0  0  1  0  0  0  0  0  0  0  0  0
   11.0762  -20.6665   26.8421 C   0  0  0  0  0  0  0  0  0  0  0  0
   11.6592  -21.5073   27.8891 C   0  0  0  0  0  0  0  0  0  0  0  0
   12.7784  -22.0329   27.7226 O   0  0  0  0  0  0  0  0  0  0  0  0
   12.1952  -18.6238   27.7588 C   0  0  0  0  0  0  0  0  0  0  0  0
   12.9482  -17.8354   26.8665 O   0  0  0  0  0  0  0  0  0  0  0  0
   10.9796  -21.7320   29.0676 O   0  0  0  0  0  0  0  0  0  0  0  0
   12.6299  -18.7656   28.9024 O   0  0  0  0  0  0  0  0  0  0  0  0
  2  1  1  6
  3  4  1  0
  3  2  1  0
  5  6  2  0
  5  4  1  0
  7  2  1  0
  7  8  2  0
  9  5  1  0
 10  7  1  0
 11 10  1  0
 11 12  1  6
 13 12  1  0
 13 14  2  0
 15 14  1  0
 16 15  1  0
 17 16  2  0
 18 17  1  0
 19 18  2  0
 19 20  1  0
 20 21  2  0
 21 16  1  0
 21 13  1  0
 22 11  1  0
 23 22  2  0
 24 22  1  0
 25 29  1  0
 25 24  1  0
 25 26  1  6
 27 26  1  0
 27 28  2  0
 29 30  1  0
 31 27  1  0
 32 29  2  0
M  END
$$$$
