EWD.pdb
     RDKit          3D

 32 33  0  0  1  0  0  0  0  0999 V2000
    6.7874  -14.7838   20.6632 N   0  0  0  0  0  0  0  0  0  0  0  0
    7.6592  -15.8464   21.0115 C   0  0  1  0  0  0  0  0  0  0  0  0
    8.6862  -16.1672   19.9779 C   0  0  0  0  0  0  0  0  0  0  0  0
    8.1000  -16.6011   18.6927 C   0  0  0  0  0  0  0  0  0  0  0  0
    8.7879  -17.7414   18.0865 C   0  0  0  0  0  0  0  0  0  0  0  0
    8.6290  -18.2396   16.9632 O   0  0  0  0  0  0  0  0  0  0  0  0
    8.3937  -15.5116   22.2755 C   0  0  0  0  0  0  0  0  0  0  0  0
    8.8436  -14.3461   22.4289 O   0  0  0  0  0  0  0  0  0  0  0  0
    9.7754  -18.3663   18.8979 O   0  0  0  0  0  0  0  0  0  0  0  0
    8.5387  -16.5450   23.2383 N   0  0  0  0  0  0  0  0  0  0  0  0
    9.2948  -16.2975   24.4347 C   0  0  1  0  0  0  0  0  0  0  0  0
    8.4545  -16.1875   25.6654 C   0  0  0  0  0  0  0  0  0  0  0  0
    7.3418  -15.2398   25.6093 C   0  0  0  0  0  0  0  0  0  0  0  0
    6.0404  -15.4449   25.2701 C   0  0  0  0  0  0  0  0  0  0  0  0
    5.3771  -14.2687   25.3731 N   0  0  0  0  0  0  0  0  0  0  0  0
    6.2252  -13.3171   25.7700 C   0  0  0  0  0  0  0  0  0  0  0  0
    6.0171  -11.9573   26.0145 C   0  0  0  0  0  0  0  0  0  0  0  0
    7.0616  -11.1605   26.4216 C   0  0  0  0  0  0  0  0  0  0  0  0
    8.2987  -11.7450   26.5764 C   0  0  0  0  0  0  0  0  0  0  0  0
    8.5070  -13.0909   26.3346 C   0  0  0  0  0  0  0  0  0  0  0  0
    7.4607  -13.8954   25.9253 C   0  0  0  0  0  0  0  0  0  0  0  0
   10.4688  -17.1767   24.5526 C   0  0  0  0  0  0  0  0  0  0  0  0
   10.4281  -18.4039   24.2326 O   0  0  0  0  0  0  0  0  0  0  0  0
   11.6874  -16.6563   25.0362 N   0  0  0  0  0  0  0  0  0  0  0  0
   12.8148  -17.5226   25.4421 C   0  0  1  0  0  0  0  0  0  0  0  0
   14.0714  -16.7119   25.2548 C   0  0  0  0  0  0  0  0  0  0  0  0
   14.2922  -16.3804   23.8461 C   0  0  0  0  0  0  0  0  0  0  0  0
   14.1725  -15.2029   23.4514 O   0  0  0  0  0  0  0  0  0  0  0  0
   12.5959  -17.9937   26.8184 C   0  0  0  0  0  0  0  0  0  0  0  0
   13.4998  -18.9162   27.3811 O   0  0  0  0  0  0  0  0  0  0  0  0
   14.6302  -17.3624   22.9392 O   0  0  0  0  0  0  0  0  0  0  0  0
   11.6521  -17.6204   27.5160 O   0  0  0  0  0  0  0  0  0  0  0  0
  2  1  1  6
  3  4  1  0
  3  2  1  0
  5  6  2  0
  5  4  1  0
  7  2  1  0
  7  8  2  0
  9  5  1  0
 10  7  1  0
 11 10  1  0
 11 12  1  1
 13 12  1  0
 13 14  2  0
 15 14  1  0
 16 15  1  0
 17 16  2  0
 18 17  1  0
 19 18  2  0
 19 20  1  0
 20 21  2  0
 21 16  1  0
 21 13  1  0
 22 11  1  0
 23 22  2  0
 24 22  1  0
 25 29  1  0
 25 24  1  0
 25 26  1  1
 27 26  1  0
 27 28  2  0
 29 30  1  0
 31 27  1  0
 32 29  2  0
M  END
$$$$
