EWD.pdb
     RDKit          3D

 32 33  0  0  1  0  0  0  0  0999 V2000
    7.2403  -17.6903   21.1674 N   0  0  0  0  0  0  0  0  0  0  0  0
    8.0908  -16.5848   20.9123 C   0  0  1  0  0  0  0  0  0  0  0  0
    7.7603  -15.8241   19.6720 C   0  0  0  0  0  0  0  0  0  0  0  0
    8.6130  -16.1906   18.5222 C   0  0  0  0  0  0  0  0  0  0  0  0
    8.2016  -15.5705   17.2623 C   0  0  0  0  0  0  0  0  0  0  0  0
    7.2517  -14.8053   17.0444 O   0  0  0  0  0  0  0  0  0  0  0  0
    8.0267  -15.6160   22.0553 C   0  0  0  0  0  0  0  0  0  0  0  0
    6.9685  -14.9598   22.2400 O   0  0  0  0  0  0  0  0  0  0  0  0
    9.0010  -15.8900   16.1296 O   0  0  0  0  0  0  0  0  0  0  0  0
    9.1808  -15.4962   22.8737 N   0  0  0  0  0  0  0  0  0  0  0  0
    9.1635  -16.0340   24.2059 C   0  0  1  0  0  0  0  0  0  0  0  0
    7.8043  -16.4452   24.6709 C   0  0  0  0  0  0  0  0  0  0  0  0
    6.9291  -15.3741   25.1463 C   0  0  0  0  0  0  0  0  0  0  0  0
    5.5896  -15.3857   25.3840 C   0  0  0  0  0  0  0  0  0  0  0  0
    5.2186  -14.1598   25.8238 N   0  0  0  0  0  0  0  0  0  0  0  0
    6.2905  -13.3654   25.8723 C   0  0  0  0  0  0  0  0  0  0  0  0
    6.4148  -12.0276   26.2557 C   0  0  0  0  0  0  0  0  0  0  0  0
    7.6432  -11.4099   26.2211 C   0  0  0  0  0  0  0  0  0  0  0  0
    8.7269  -12.1487   25.8014 C   0  0  0  0  0  0  0  0  0  0  0  0
    8.6060  -13.4730   25.4211 C   0  0  0  0  0  0  0  0  0  0  0  0
    7.3739  -14.0978   25.4541 C   0  0  0  0  0  0  0  0  0  0  0  0
   10.2294  -17.0234   24.4291 C   0  0  0  0  0  0  0  0  0  0  0  0
    9.9858  -18.1946   24.8521 O   0  0  0  0  0  0  0  0  0  0  0  0
   11.5721  -16.6762   24.1711 N   0  0  0  0  0  0  0  0  0  0  0  0
   12.6891  -17.6243   24.3694 C   0  0  1  0  0  0  0  0  0  0  0  0
   13.9292  -16.9460   23.8466 C   0  0  0  0  0  0  0  0  0  0  0  0
   13.8973  -16.8171   22.3888 C   0  0  0  0  0  0  0  0  0  0  0  0
   14.6970  -16.0560   21.8075 O   0  0  0  0  0  0  0  0  0  0  0  0
   12.7582  -18.0054   25.7886 C   0  0  0  0  0  0  0  0  0  0  0  0
   12.0483  -17.2462   26.7396 O   0  0  0  0  0  0  0  0  0  0  0  0
   12.9837  -17.5298   21.6415 O   0  0  0  0  0  0  0  0  0  0  0  0
   13.4121  -18.9659   26.1970 O   0  0  0  0  0  0  0  0  0  0  0  0
  2  1  1  1
  3  4  1  0
  3  2  1  0
  5  6  2  0
  5  4  1  0
  7  2  1  0
  7  8  2  0
  9  5  1  0
 10  7  1  0
 11 10  1  0
 11 12  1  6
 13 12  1  0
 13 14  2  0
 15 14  1  0
 16 15  1  0
 17 16  2  0
 18 17  1  0
 19 18  2  0
 19 20  1  0
 20 21  2  0
 21 16  1  0
 21 13  1  0
 22 11  1  0
 23 22  2  0
 24 22  1  0
 25 29  1  0
 25 24  1  0
 25 26  1  1
 27 26  1  0
 27 28  2  0
 29 30  1  0
 31 27  1  0
 32 29  2  0
M  END
$$$$
