EWD.pdb
     RDKit          3D

 32 33  0  0  1  0  0  0  0  0999 V2000
    7.8886  -16.3812   18.1012 N   0  0  0  0  0  0  0  0  0  0  0  0
    8.7456  -17.1839   18.8961 C   0  0  1  0  0  0  0  0  0  0  0  0
   10.0971  -17.4151   18.3078 C   0  0  0  0  0  0  0  0  0  0  0  0
   10.1056  -17.3519   16.8315 C   0  0  0  0  0  0  0  0  0  0  0  0
   10.7376  -18.5085   16.1959 C   0  0  0  0  0  0  0  0  0  0  0  0
   11.2876  -19.4844   16.7254 O   0  0  0  0  0  0  0  0  0  0  0  0
    8.9506  -16.5415   20.2358 C   0  0  0  0  0  0  0  0  0  0  0  0
   10.0135  -15.9019   20.4491 O   0  0  0  0  0  0  0  0  0  0  0  0
   10.7198  -18.5147   14.7734 O   0  0  0  0  0  0  0  0  0  0  0  0
    7.9171  -16.6949   21.1971 N   0  0  0  0  0  0  0  0  0  0  0  0
    8.0848  -16.1404   22.5120 C   0  0  1  0  0  0  0  0  0  0  0  0
    6.7972  -15.8063   23.1926 C   0  0  0  0  0  0  0  0  0  0  0  0
    6.8973  -15.3174   24.5675 C   0  0  0  0  0  0  0  0  0  0  0  0
    6.8089  -15.9983   25.7419 C   0  0  0  0  0  0  0  0  0  0  0  0
    6.9732  -15.1228   26.7619 N   0  0  0  0  0  0  0  0  0  0  0  0
    7.1643  -13.8982   26.2658 C   0  0  0  0  0  0  0  0  0  0  0  0
    7.3766  -12.6778   26.9120 C   0  0  0  0  0  0  0  0  0  0  0  0
    7.5496  -11.5277   26.1777 C   0  0  0  0  0  0  0  0  0  0  0  0
    7.5065  -11.6245   24.8048 C   0  0  0  0  0  0  0  0  0  0  0  0
    7.2960  -12.8316   24.1630 C   0  0  0  0  0  0  0  0  0  0  0  0
    7.1216  -13.9896   24.8965 C   0  0  0  0  0  0  0  0  0  0  0  0
    9.0468  -16.8997   23.3263 C   0  0  0  0  0  0  0  0  0  0  0  0
    9.0050  -18.1647   23.4163 O   0  0  0  0  0  0  0  0  0  0  0  0
   10.0545  -16.2160   24.0382 N   0  0  0  0  0  0  0  0  0  0  0  0
   11.1281  -16.9224   24.7693 C   0  0  1  0  0  0  0  0  0  0  0  0
   12.4003  -16.1554   24.5154 C   0  0  0  0  0  0  0  0  0  0  0  0
   13.5461  -16.7800   25.1788 C   0  0  0  0  0  0  0  0  0  0  0  0
   14.1712  -17.7025   24.6176 O   0  0  0  0  0  0  0  0  0  0  0  0
   10.7592  -17.0331   26.1890 C   0  0  0  0  0  0  0  0  0  0  0  0
   11.4736  -17.9205   27.0178 O   0  0  0  0  0  0  0  0  0  0  0  0
   13.9458  -16.3612   26.4302 O   0  0  0  0  0  0  0  0  0  0  0  0
    9.8467  -16.3829   26.7005 O   0  0  0  0  0  0  0  0  0  0  0  0
  2  1  1  6
  3  4  1  0
  3  2  1  0
  5  6  2  0
  5  4  1  0
  7  2  1  0
  7  8  2  0
  9  5  1  0
 10  7  1  0
 11 10  1  0
 11 12  1  1
 13 12  1  0
 13 14  2  0
 15 14  1  0
 16 15  1  0
 17 16  2  0
 18 17  1  0
 19 18  2  0
 19 20  1  0
 20 21  2  0
 21 16  1  0
 21 13  1  0
 22 11  1  0
 23 22  2  0
 24 22  1  0
 25 29  1  0
 25 24  1  0
 25 26  1  1
 27 26  1  0
 27 28  2  0
 29 30  1  0
 31 27  1  0
 32 29  2  0
M  END
$$$$
