EWD.pdb
     RDKit          3D

 32 33  0  0  1  0  0  0  0  0999 V2000
    8.2022  -16.7128   21.2817 N   0  0  0  0  0  0  0  0  0  0  0  0
    9.0133  -17.6921   21.9090 C   0  0  1  0  0  0  0  0  0  0  0  0
   10.2415  -18.0587   21.1452 C   0  0  0  0  0  0  0  0  0  0  0  0
   10.9077  -16.8948   20.5248 C   0  0  0  0  0  0  0  0  0  0  0  0
   12.0648  -17.2479   19.7016 C   0  0  0  0  0  0  0  0  0  0  0  0
   13.0890  -17.8673   20.0222 O   0  0  0  0  0  0  0  0  0  0  0  0
    9.4593  -17.2014   23.2542 C   0  0  0  0  0  0  0  0  0  0  0  0
   10.2955  -16.2625   23.3143 O   0  0  0  0  0  0  0  0  0  0  0  0
   12.0082  -16.8210   18.3456 O   0  0  0  0  0  0  0  0  0  0  0  0
    8.9021  -17.8343   24.3965 N   0  0  0  0  0  0  0  0  0  0  0  0
    9.3122  -17.4164   25.7085 C   0  0  1  0  0  0  0  0  0  0  0  0
    8.2002  -16.8610   26.5378 C   0  0  0  0  0  0  0  0  0  0  0  0
    7.4058  -15.7947   25.9283 C   0  0  0  0  0  0  0  0  0  0  0  0
    6.3252  -15.8762   25.1058 C   0  0  0  0  0  0  0  0  0  0  0  0
    5.9186  -14.6207   24.8018 N   0  0  0  0  0  0  0  0  0  0  0  0
    6.7149  -13.7393   25.4111 C   0  0  0  0  0  0  0  0  0  0  0  0
    6.6994  -12.3422   25.4037 C   0  0  0  0  0  0  0  0  0  0  0  0
    7.6383  -11.6367   26.1195 C   0  0  0  0  0  0  0  0  0  0  0  0
    8.5777  -12.3486   26.8316 C   0  0  0  0  0  0  0  0  0  0  0  0
    8.5951  -13.7317   26.8399 C   0  0  0  0  0  0  0  0  0  0  0  0
    7.6539  -14.4447   26.1223 C   0  0  0  0  0  0  0  0  0  0  0  0
   10.1579  -18.4155   26.3806 C   0  0  0  0  0  0  0  0  0  0  0  0
    9.8045  -19.6282   26.5010 O   0  0  0  0  0  0  0  0  0  0  0  0
   11.4051  -18.0308   26.9157 N   0  0  0  0  0  0  0  0  0  0  0  0
   12.1502  -18.8725   27.8760 C   0  0  1  0  0  0  0  0  0  0  0  0
   13.5620  -18.3460   27.9069 C   0  0  0  0  0  0  0  0  0  0  0  0
   14.3060  -18.7319   26.7067 C   0  0  0  0  0  0  0  0  0  0  0  0
   13.7583  -19.4204   25.8220 O   0  0  0  0  0  0  0  0  0  0  0  0
   11.4652  -18.8493   29.1777 C   0  0  0  0  0  0  0  0  0  0  0  0
   11.8817  -19.7366   30.1896 O   0  0  0  0  0  0  0  0  0  0  0  0
   15.6187  -18.3444   26.5404 O   0  0  0  0  0  0  0  0  0  0  0  0
   10.5339  -18.0856   29.4351 O   0  0  0  0  0  0  0  0  0  0  0  0
  2  1  1  6
  3  4  1  0
  3  2  1  0
  5  6  2  0
  5  4  1  0
  7  2  1  0
  7  8  2  0
  9  5  1  0
 10  7  1  0
 11 10  1  0
 11 12  1  1
 13 12  1  0
 13 14  2  0
 15 14  1  0
 16 15  1  0
 17 16  2  0
 18 17  1  0
 19 18  2  0
 19 20  1  0
 20 21  2  0
 21 16  1  0
 21 13  1  0
 22 11  1  0
 23 22  2  0
 24 22  1  0
 25 29  1  0
 25 24  1  0
 25 26  1  1
 27 26  1  0
 27 28  2  0
 29 30  1  0
 31 27  1  0
 32 29  2  0
M  END
$$$$
