EWD.pdb
     RDKit          3D

 32 33  0  0  1  0  0  0  0  0999 V2000
    9.1942  -16.5669   18.9929 N   0  0  0  0  0  0  0  0  0  0  0  0
    9.1921  -17.6111   19.9523 C   0  0  1  0  0  0  0  0  0  0  0  0
   10.0458  -18.7812   19.5940 C   0  0  0  0  0  0  0  0  0  0  0  0
    9.8138  -19.2689   18.2185 C   0  0  0  0  0  0  0  0  0  0  0  0
   10.9284  -20.0440   17.6724 C   0  0  0  0  0  0  0  0  0  0  0  0
   11.0368  -20.5728   16.5571 O   0  0  0  0  0  0  0  0  0  0  0  0
    9.6823  -17.0939   21.2719 C   0  0  0  0  0  0  0  0  0  0  0  0
   10.7822  -17.5110   21.7199 O   0  0  0  0  0  0  0  0  0  0  0  0
   12.0418  -20.2161   18.5411 O   0  0  0  0  0  0  0  0  0  0  0  0
    8.8643  -16.1496   21.9464 N   0  0  0  0  0  0  0  0  0  0  0  0
    9.2602  -15.6654   23.2399 C   0  0  1  0  0  0  0  0  0  0  0  0
    8.7499  -14.2960   23.5516 C   0  0  0  0  0  0  0  0  0  0  0  0
    8.8468  -13.8691   24.9473 C   0  0  0  0  0  0  0  0  0  0  0  0
    9.8752  -14.0006   25.8281 C   0  0  0  0  0  0  0  0  0  0  0  0
    9.5077  -13.4440   27.0067 N   0  0  0  0  0  0  0  0  0  0  0  0
    8.2681  -12.9603   26.8989 C   0  0  0  0  0  0  0  0  0  0  0  0
    7.4630  -12.3044   27.8336 C   0  0  0  0  0  0  0  0  0  0  0  0
    6.1973  -11.8923   27.4873 C   0  0  0  0  0  0  0  0  0  0  0  0
    5.7623  -12.1466   26.2058 C   0  0  0  0  0  0  0  0  0  0  0  0
    6.5576  -12.7961   25.2790 C   0  0  0  0  0  0  0  0  0  0  0  0
    7.8298  -13.2120   25.6223 C   0  0  0  0  0  0  0  0  0  0  0  0
    9.0638  -16.6653   24.3014 C   0  0  0  0  0  0  0  0  0  0  0  0
    7.9534  -17.2534   24.4780 O   0  0  0  0  0  0  0  0  0  0  0  0
   10.1331  -16.9928   25.1612 N   0  0  0  0  0  0  0  0  0  0  0  0
   10.0343  -18.0602   26.1794 C   0  0  1  0  0  0  0  0  0  0  0  0
   10.5763  -19.3146   25.5440 C   0  0  0  0  0  0  0  0  0  0  0  0
   11.9681  -19.1457   25.1228 C   0  0  0  0  0  0  0  0  0  0  0  0
   12.7190  -18.3598   25.7352 O   0  0  0  0  0  0  0  0  0  0  0  0
   10.7460  -17.6398   27.3963 C   0  0  0  0  0  0  0  0  0  0  0  0
   11.4177  -16.4015   27.4066 O   0  0  0  0  0  0  0  0  0  0  0  0
   12.4647  -19.8476   24.0449 O   0  0  0  0  0  0  0  0  0  0  0  0
   10.7876  -18.3210   28.4215 O   0  0  0  0  0  0  0  0  0  0  0  0
  2  1  1  6
  3  4  1  0
  3  2  1  0
  5  6  2  0
  5  4  1  0
  7  2  1  0
  7  8  2  0
  9  5  1  0
 10  7  1  0
 11 10  1  0
 11 12  1  1
 13 12  1  0
 13 14  2  0
 15 14  1  0
 16 15  1  0
 17 16  2  0
 18 17  1  0
 19 18  2  0
 19 20  1  0
 20 21  2  0
 21 16  1  0
 21 13  1  0
 22 11  1  0
 23 22  2  0
 24 22  1  0
 25 29  1  0
 25 24  1  0
 25 26  1  6
 27 26  1  0
 27 28  2  0
 29 30  1  0
 31 27  1  0
 32 29  2  0
M  END
$$$$
