EWD.pdb
     RDKit          3D

 32 33  0  0  1  0  0  0  0  0999 V2000
    6.2271  -15.5896   20.4490 N   0  0  0  0  0  0  0  0  0  0  0  0
    7.2866  -16.4978   20.7004 C   0  0  1  0  0  0  0  0  0  0  0  0
    8.1415  -16.7937   19.5140 C   0  0  0  0  0  0  0  0  0  0  0  0
    7.5190  -16.3915   18.2356 C   0  0  0  0  0  0  0  0  0  0  0  0
    8.3007  -16.7649   17.0564 C   0  0  0  0  0  0  0  0  0  0  0  0
    9.3681  -17.3913   16.9958 O   0  0  0  0  0  0  0  0  0  0  0  0
    8.1864  -15.9507   21.7683 C   0  0  0  0  0  0  0  0  0  0  0  0
    8.7386  -14.8342   21.5874 O   0  0  0  0  0  0  0  0  0  0  0  0
    7.7630  -16.3517   15.8058 O   0  0  0  0  0  0  0  0  0  0  0  0
    8.3632  -16.7367   22.9374 N   0  0  0  0  0  0  0  0  0  0  0  0
    9.3138  -16.3230   23.9322 C   0  0  1  0  0  0  0  0  0  0  0  0
    8.7723  -16.3385   25.3248 C   0  0  0  0  0  0  0  0  0  0  0  0
    7.6132  -15.4838   25.5803 C   0  0  0  0  0  0  0  0  0  0  0  0
    6.2880  -15.7912   25.5785 C   0  0  0  0  0  0  0  0  0  0  0  0
    5.5852  -14.6734   25.8796 N   0  0  0  0  0  0  0  0  0  0  0  0
    6.4313  -13.6591   26.0734 C   0  0  0  0  0  0  0  0  0  0  0  0
    6.1894  -12.3224   26.4003 C   0  0  0  0  0  0  0  0  0  0  0  0
    7.2392  -11.4464   26.5496 C   0  0  0  0  0  0  0  0  0  0  0  0
    8.5157  -11.9298   26.3677 C   0  0  0  0  0  0  0  0  0  0  0  0
    8.7574  -13.2526   26.0437 C   0  0  0  0  0  0  0  0  0  0  0  0
    7.7059  -14.1364   25.8926 C   0  0  0  0  0  0  0  0  0  0  0  0
   10.6258  -16.9668   23.7615 C   0  0  0  0  0  0  0  0  0  0  0  0
   10.7420  -18.1966   23.4716 O   0  0  0  0  0  0  0  0  0  0  0  0
   11.8041  -16.2081   23.9226 N   0  0  0  0  0  0  0  0  0  0  0  0
   13.1512  -16.8162   23.8822 C   0  0  1  0  0  0  0  0  0  0  0  0
   14.1139  -15.7102   23.5343 C   0  0  0  0  0  0  0  0  0  0  0  0
   15.4866  -16.2069   23.4252 C   0  0  0  0  0  0  0  0  0  0  0  0
   16.2977  -16.0220   24.3550 O   0  0  0  0  0  0  0  0  0  0  0  0
   13.4255  -17.4779   25.1671 C   0  0  0  0  0  0  0  0  0  0  0  0
   14.3922  -18.5013   25.2206 O   0  0  0  0  0  0  0  0  0  0  0  0
   15.9011  -16.8800   22.2955 O   0  0  0  0  0  0  0  0  0  0  0  0
   12.8480  -17.1821   26.2139 O   0  0  0  0  0  0  0  0  0  0  0  0
  2  1  1  6
  3  4  1  0
  3  2  1  0
  5  6  2  0
  5  4  1  0
  7  2  1  0
  7  8  2  0
  9  5  1  0
 10  7  1  0
 11 10  1  0
 11 12  1  1
 13 12  1  0
 13 14  2  0
 15 14  1  0
 16 15  1  0
 17 16  2  0
 18 17  1  0
 19 18  2  0
 19 20  1  0
 20 21  2  0
 21 16  1  0
 21 13  1  0
 22 11  1  0
 23 22  2  0
 24 22  1  0
 25 29  1  0
 25 24  1  0
 25 26  1  1
 27 26  1  0
 27 28  2  0
 29 30  1  0
 31 27  1  0
 32 29  2  0
M  END
$$$$
