EWD.pdb
     RDKit          3D

 32 33  0  0  1  0  0  0  0  0999 V2000
    8.2984  -16.6272   21.0606 N   0  0  0  0  0  0  0  0  0  0  0  0
    9.5791  -17.1015   21.4422 C   0  0  1  0  0  0  0  0  0  0  0  0
   10.6913  -16.6644   20.5489 C   0  0  0  0  0  0  0  0  0  0  0  0
   10.6174  -17.2580   19.1977 C   0  0  0  0  0  0  0  0  0  0  0  0
   11.7199  -16.8641   18.3200 C   0  0  0  0  0  0  0  0  0  0  0  0
   12.7195  -16.1809   18.5836 O   0  0  0  0  0  0  0  0  0  0  0  0
    9.9096  -16.6247   22.8252 C   0  0  0  0  0  0  0  0  0  0  0  0
   10.9698  -15.9712   23.0079 O   0  0  0  0  0  0  0  0  0  0  0  0
   11.6336  -17.3280   16.9779 O   0  0  0  0  0  0  0  0  0  0  0  0
    8.9921  -16.9430   23.8610 N   0  0  0  0  0  0  0  0  0  0  0  0
    9.4052  -16.8303   25.2325 C   0  0  1  0  0  0  0  0  0  0  0  0
    8.2878  -16.5151   26.1733 C   0  0  0  0  0  0  0  0  0  0  0  0
    7.3127  -15.5259   25.7149 C   0  0  0  0  0  0  0  0  0  0  0  0
    6.1588  -15.7005   25.0158 C   0  0  0  0  0  0  0  0  0  0  0  0
    5.5811  -14.4903   24.8272 N   0  0  0  0  0  0  0  0  0  0  0  0
    6.3398  -13.5467   25.3896 C   0  0  0  0  0  0  0  0  0  0  0  0
    6.1671  -12.1620   25.4589 C   0  0  0  0  0  0  0  0  0  0  0  0
    7.0988  -11.3805   26.1015 C   0  0  0  0  0  0  0  0  0  0  0  0
    8.1893  -12.0052   26.6643 C   0  0  0  0  0  0  0  0  0  0  0  0
    8.3625  -13.3758   26.5964 C   0  0  0  0  0  0  0  0  0  0  0  0
    7.4291  -14.1650   25.9519 C   0  0  0  0  0  0  0  0  0  0  0  0
   10.2846  -17.9338   25.6497 C   0  0  0  0  0  0  0  0  0  0  0  0
   10.6668  -18.8349   24.8422 O   0  0  0  0  0  0  0  0  0  0  0  0
   10.7265  -18.0095   26.9872 N   0  0  0  0  0  0  0  0  0  0  0  0
   11.8509  -18.8744   27.4037 C   0  0  1  0  0  0  0  0  0  0  0  0
   13.0555  -18.4252   26.6173 C   0  0  0  0  0  0  0  0  0  0  0  0
   14.2133  -19.2848   26.8695 C   0  0  0  0  0  0  0  0  0  0  0  0
   14.9311  -19.0941   27.8720 O   0  0  0  0  0  0  0  0  0  0  0  0
   12.0138  -18.7922   28.8634 C   0  0  0  0  0  0  0  0  0  0  0  0
   12.5044  -19.9114   29.5644 O   0  0  0  0  0  0  0  0  0  0  0  0
   14.5271  -20.3106   26.0033 O   0  0  0  0  0  0  0  0  0  0  0  0
   11.7409  -17.7840   29.5159 O   0  0  0  0  0  0  0  0  0  0  0  0
  2  1  1  6
  3  4  1  0
  3  2  1  0
  5  6  2  0
  5  4  1  0
  7  2  1  0
  7  8  2  0
  9  5  1  0
 10  7  1  0
 11 10  1  0
 11 12  1  1
 13 12  1  0
 13 14  2  0
 15 14  1  0
 16 15  1  0
 17 16  2  0
 18 17  1  0
 19 18  2  0
 19 20  1  0
 20 21  2  0
 21 16  1  0
 21 13  1  0
 22 11  1  0
 23 22  2  0
 24 22  1  0
 25 29  1  0
 25 24  1  0
 25 26  1  6
 27 26  1  0
 27 28  2  0
 29 30  1  0
 31 27  1  0
 32 29  2  0
M  END
$$$$
