EWD.pdb
     RDKit          3D

 32 33  0  0  1  0  0  0  0  0999 V2000
    9.3902  -18.7158   21.4337 N   0  0  0  0  0  0  0  0  0  0  0  0
   10.5355  -17.8964   21.5999 C   0  0  1  0  0  0  0  0  0  0  0  0
   10.7228  -16.8721   20.5313 C   0  0  0  0  0  0  0  0  0  0  0  0
   10.5558  -17.4183   19.1685 C   0  0  0  0  0  0  0  0  0  0  0  0
   10.8988  -16.4704   18.1078 C   0  0  0  0  0  0  0  0  0  0  0  0
   10.2471  -16.1585   17.1012 O   0  0  0  0  0  0  0  0  0  0  0  0
   10.4545  -17.1633   22.9057 C   0  0  0  0  0  0  0  0  0  0  0  0
   11.3433  -16.3173   23.1862 O   0  0  0  0  0  0  0  0  0  0  0  0
   12.1543  -15.8164   18.2497 O   0  0  0  0  0  0  0  0  0  0  0  0
    9.3629  -17.4716   23.7597 N   0  0  0  0  0  0  0  0  0  0  0  0
    9.3348  -16.9391   25.0938 C   0  0  1  0  0  0  0  0  0  0  0  0
    8.0149  -16.3551   25.4807 C   0  0  0  0  0  0  0  0  0  0  0  0
    7.5761  -15.1837   24.7226 C   0  0  0  0  0  0  0  0  0  0  0  0
    7.2408  -15.0729   23.4088 C   0  0  0  0  0  0  0  0  0  0  0  0
    6.8883  -13.7892   23.1602 N   0  0  0  0  0  0  0  0  0  0  0  0
    6.9909  -13.0776   24.2850 C   0  0  0  0  0  0  0  0  0  0  0  0
    6.7410  -11.7254   24.5321 C   0  0  0  0  0  0  0  0  0  0  0  0
    6.9214  -11.2083   25.7937 C   0  0  0  0  0  0  0  0  0  0  0  0
    7.3504  -12.0606   26.7866 C   0  0  0  0  0  0  0  0  0  0  0  0
    7.5989  -13.3995   26.5441 C   0  0  0  0  0  0  0  0  0  0  0  0
    7.4190  -13.9234   25.2782 C   0  0  0  0  0  0  0  0  0  0  0  0
    9.9292  -17.8553   26.0799 C   0  0  0  0  0  0  0  0  0  0  0  0
    9.4685  -19.0200   26.2832 O   0  0  0  0  0  0  0  0  0  0  0  0
   11.0474  -17.4423   26.8342 N   0  0  0  0  0  0  0  0  0  0  0  0
   11.6925  -18.3139   27.8393 C   0  0  1  0  0  0  0  0  0  0  0  0
   13.1578  -17.9618   27.8394 C   0  0  0  0  0  0  0  0  0  0  0  0
   13.8291  -18.4545   26.6354 C   0  0  0  0  0  0  0  0  0  0  0  0
   13.3300  -19.3879   25.9749 O   0  0  0  0  0  0  0  0  0  0  0  0
   11.0253  -18.1359   29.1382 C   0  0  0  0  0  0  0  0  0  0  0  0
   11.3417  -19.0078   30.1987 O   0  0  0  0  0  0  0  0  0  0  0  0
   15.0200  -17.8981   26.2190 O   0  0  0  0  0  0  0  0  0  0  0  0
   10.1933  -17.2536   29.3528 O   0  0  0  0  0  0  0  0  0  0  0  0
  2  1  1  6
  3  4  1  0
  3  2  1  0
  5  6  2  0
  5  4  1  0
  7  2  1  0
  7  8  2  0
  9  5  1  0
 10  7  1  0
 11 10  1  0
 11 12  1  1
 13 12  1  0
 13 14  2  0
 15 14  1  0
 16 15  1  0
 17 16  2  0
 18 17  1  0
 19 18  2  0
 19 20  1  0
 20 21  2  0
 21 16  1  0
 21 13  1  0
 22 11  1  0
 23 22  2  0
 24 22  1  0
 25 29  1  0
 25 24  1  0
 25 26  1  1
 27 26  1  0
 27 28  2  0
 29 30  1  0
 31 27  1  0
 32 29  2  0
M  END
$$$$
