EWD.pdb
     RDKit          3D

 32 33  0  0  1  0  0  0  0  0999 V2000
    7.8618  -16.2139   19.8402 N   0  0  0  0  0  0  0  0  0  0  0  0
    8.7799  -17.1030   20.4544 C   0  0  1  0  0  0  0  0  0  0  0  0
   10.0300  -17.3367   19.6742 C   0  0  0  0  0  0  0  0  0  0  0  0
    9.7794  -17.9080   18.3346 C   0  0  0  0  0  0  0  0  0  0  0  0
   10.9990  -18.2585   17.6060 C   0  0  0  0  0  0  0  0  0  0  0  0
   12.0226  -17.5828   17.4300 O   0  0  0  0  0  0  0  0  0  0  0  0
    9.1889  -16.5699   21.7952 C   0  0  0  0  0  0  0  0  0  0  0  0
    9.8870  -15.5238   21.8485 O   0  0  0  0  0  0  0  0  0  0  0  0
   11.0128  -19.5533   17.0166 O   0  0  0  0  0  0  0  0  0  0  0  0
    8.7565  -17.2875   22.9415 N   0  0  0  0  0  0  0  0  0  0  0  0
    9.1724  -16.8545   24.2469 C   0  0  1  0  0  0  0  0  0  0  0  0
    8.0392  -16.4784   25.1453 C   0  0  0  0  0  0  0  0  0  0  0  0
    7.2824  -15.2841   24.7706 C   0  0  0  0  0  0  0  0  0  0  0  0
    6.4140  -15.0915   23.7413 C   0  0  0  0  0  0  0  0  0  0  0  0
    5.9498  -13.8208   23.8003 N   0  0  0  0  0  0  0  0  0  0  0  0
    6.5020  -13.1972   24.8436 C   0  0  0  0  0  0  0  0  0  0  0  0
    6.3405  -11.8911   25.3127 C   0  0  0  0  0  0  0  0  0  0  0  0
    7.0275  -11.4664   26.4259 C   0  0  0  0  0  0  0  0  0  0  0  0
    7.8661  -12.3633   27.0494 C   0  0  0  0  0  0  0  0  0  0  0  0
    8.0278  -13.6567   26.5865 C   0  0  0  0  0  0  0  0  0  0  0  0
    7.3397  -14.0877   25.4684 C   0  0  0  0  0  0  0  0  0  0  0  0
   10.1773  -17.7480   24.8443 C   0  0  0  0  0  0  0  0  0  0  0  0
    9.9900  -18.9982   24.9529 O   0  0  0  0  0  0  0  0  0  0  0  0
   11.3943  -17.2150   25.3186 N   0  0  0  0  0  0  0  0  0  0  0  0
   12.3836  -18.0295   26.0560 C   0  0  1  0  0  0  0  0  0  0  0  0
   13.7139  -17.3389   25.8998 C   0  0  0  0  0  0  0  0  0  0  0  0
   14.2121  -17.4360   24.5267 C   0  0  0  0  0  0  0  0  0  0  0  0
   13.6106  -18.1371   23.6880 O   0  0  0  0  0  0  0  0  0  0  0  0
   11.9418  -18.1878   27.4502 C   0  0  0  0  0  0  0  0  0  0  0  0
   10.8138  -17.4731   27.8992 O   0  0  0  0  0  0  0  0  0  0  0  0
   15.3510  -16.7594   24.1443 O   0  0  0  0  0  0  0  0  0  0  0  0
   12.5122  -18.9215   28.2583 O   0  0  0  0  0  0  0  0  0  0  0  0
  2  1  1  6
  3  4  1  0
  3  2  1  0
  5  6  2  0
  5  4  1  0
  7  2  1  0
  7  8  2  0
  9  5  1  0
 10  7  1  0
 11 10  1  0
 11 12  1  1
 13 12  1  0
 13 14  2  0
 15 14  1  0
 16 15  1  0
 17 16  2  0
 18 17  1  0
 19 18  2  0
 19 20  1  0
 20 21  2  0
 21 16  1  0
 21 13  1  0
 22 11  1  0
 23 22  2  0
 24 22  1  0
 25 29  1  0
 25 24  1  0
 25 26  1  1
 27 26  1  0
 27 28  2  0
 29 30  1  0
 31 27  1  0
 32 29  2  0
M  END
$$$$
