EWD.pdb
     RDKit          3D

 32 33  0  0  1  0  0  0  0  0999 V2000
    9.9276  -18.6515   21.6867 N   0  0  0  0  0  0  0  0  0  0  0  0
   10.8567  -17.6190   21.9720 C   0  0  1  0  0  0  0  0  0  0  0  0
   10.9357  -16.5537   20.9305 C   0  0  0  0  0  0  0  0  0  0  0  0
   10.6474  -17.0508   19.5691 C   0  0  0  0  0  0  0  0  0  0  0  0
   11.4188  -16.3809   18.5216 C   0  0  0  0  0  0  0  0  0  0  0  0
   12.6377  -16.1645   18.4695 O   0  0  0  0  0  0  0  0  0  0  0  0
   10.4950  -16.9484   23.2638 C   0  0  0  0  0  0  0  0  0  0  0  0
   11.1639  -15.9511   23.6413 O   0  0  0  0  0  0  0  0  0  0  0  0
   10.6669  -15.9116   17.4088 O   0  0  0  0  0  0  0  0  0  0  0  0
    9.4025  -17.4863   23.9939 N   0  0  0  0  0  0  0  0  0  0  0  0
    9.0302  -16.8955   25.2496 C   0  0  1  0  0  0  0  0  0  0  0  0
    7.6326  -16.3672   25.2748 C   0  0  0  0  0  0  0  0  0  0  0  0
    7.4179  -15.0685   24.6372 C   0  0  0  0  0  0  0  0  0  0  0  0
    7.3677  -14.7449   23.3167 C   0  0  0  0  0  0  0  0  0  0  0  0
    7.1374  -13.4150   23.2067 N   0  0  0  0  0  0  0  0  0  0  0  0
    7.0395  -12.8817   24.4267 C   0  0  0  0  0  0  0  0  0  0  0  0
    6.8100  -11.5630   24.8273 C   0  0  0  0  0  0  0  0  0  0  0  0
    6.7504  -11.2473   26.1647 C   0  0  0  0  0  0  0  0  0  0  0  0
    6.9224  -12.2640   27.0774 C   0  0  0  0  0  0  0  0  0  0  0  0
    7.1501  -13.5700   26.6829 C   0  0  0  0  0  0  0  0  0  0  0  0
    7.2109  -13.8919   25.3404 C   0  0  0  0  0  0  0  0  0  0  0  0
    9.4061  -17.7317   26.4004 C   0  0  0  0  0  0  0  0  0  0  0  0
    8.6211  -17.9276   27.3779 O   0  0  0  0  0  0  0  0  0  0  0  0
   10.6770  -18.3427   26.4363 N   0  0  0  0  0  0  0  0  0  0  0  0
   11.1708  -19.0781   27.6202 C   0  0  1  0  0  0  0  0  0  0  0  0
   12.4481  -19.7604   27.2028 C   0  0  0  0  0  0  0  0  0  0  0  0
   12.2292  -20.6673   26.0747 C   0  0  0  0  0  0  0  0  0  0  0  0
   11.0847  -20.8160   25.6007 O   0  0  0  0  0  0  0  0  0  0  0  0
   11.3219  -18.1433   28.7460 C   0  0  0  0  0  0  0  0  0  0  0  0
   11.3111  -16.7571   28.4947 O   0  0  0  0  0  0  0  0  0  0  0  0
   13.2808  -21.3698   25.5253 O   0  0  0  0  0  0  0  0  0  0  0  0
   11.4593  -18.5113   29.9132 O   0  0  0  0  0  0  0  0  0  0  0  0
  2  1  1  6
  3  4  1  0
  3  2  1  0
  5  6  2  0
  5  4  1  0
  7  2  1  0
  7  8  2  0
  9  5  1  0
 10  7  1  0
 11 10  1  0
 11 12  1  6
 13 12  1  0
 13 14  2  0
 15 14  1  0
 16 15  1  0
 17 16  2  0
 18 17  1  0
 19 18  2  0
 19 20  1  0
 20 21  2  0
 21 16  1  0
 21 13  1  0
 22 11  1  0
 23 22  2  0
 24 22  1  0
 25 29  1  0
 25 24  1  0
 25 26  1  6
 27 26  1  0
 27 28  2  0
 29 30  1  0
 31 27  1  0
 32 29  2  0
M  END
$$$$
