EWD.pdb
     RDKit          3D

 32 33  0  0  1  0  0  0  0  0999 V2000
    9.2079  -17.1832   18.7282 N   0  0  0  0  0  0  0  0  0  0  0  0
   10.1221  -17.6571   19.7031 C   0  0  1  0  0  0  0  0  0  0  0  0
   11.5551  -17.5816   19.2948 C   0  0  0  0  0  0  0  0  0  0  0  0
   11.8044  -18.1354   17.9477 C   0  0  0  0  0  0  0  0  0  0  0  0
   13.1935  -18.0072   17.5058 C   0  0  0  0  0  0  0  0  0  0  0  0
   13.6376  -17.4840   16.4741 O   0  0  0  0  0  0  0  0  0  0  0  0
    9.9799  -16.8618   20.9666 C   0  0  0  0  0  0  0  0  0  0  0  0
   10.9345  -16.1298   21.3371 O   0  0  0  0  0  0  0  0  0  0  0  0
   14.1705  -18.5600   18.3797 O   0  0  0  0  0  0  0  0  0  0  0  0
    8.7580  -16.9834   21.6793 N   0  0  0  0  0  0  0  0  0  0  0  0
    8.6304  -16.3765   22.9754 C   0  0  1  0  0  0  0  0  0  0  0  0
    7.2838  -15.7812   23.2309 C   0  0  0  0  0  0  0  0  0  0  0  0
    7.0499  -15.2582   24.5767 C   0  0  0  0  0  0  0  0  0  0  0  0
    6.6040  -15.8958   25.6927 C   0  0  0  0  0  0  0  0  0  0  0  0
    6.5538  -15.0024   26.7091 N   0  0  0  0  0  0  0  0  0  0  0  0
    6.9571  -13.8087   26.2678 C   0  0  0  0  0  0  0  0  0  0  0  0
    7.0770  -12.5858   26.9328 C   0  0  0  0  0  0  0  0  0  0  0  0
    7.5210  -11.4726   26.2580 C   0  0  0  0  0  0  0  0  0  0  0  0
    7.8373  -11.6081   24.9246 C   0  0  0  0  0  0  0  0  0  0  0  0
    7.7189  -12.8177   24.2642 C   0  0  0  0  0  0  0  0  0  0  0  0
    7.2734  -13.9388   24.9381 C   0  0  0  0  0  0  0  0  0  0  0  0
    9.1537  -17.2310   24.0529 C   0  0  0  0  0  0  0  0  0  0  0  0
    8.7438  -18.4184   24.2324 O   0  0  0  0  0  0  0  0  0  0  0  0
   10.1428  -16.7307   24.9253 N   0  0  0  0  0  0  0  0  0  0  0  0
   10.7054  -17.5344   26.0314 C   0  0  1  0  0  0  0  0  0  0  0  0
   12.2005  -17.3511   25.9813 C   0  0  0  0  0  0  0  0  0  0  0  0
   12.7374  -17.6732   24.6580 C   0  0  0  0  0  0  0  0  0  0  0  0
   12.6394  -18.8315   24.2049 O   0  0  0  0  0  0  0  0  0  0  0  0
   10.0852  -17.1196   27.2992 C   0  0  0  0  0  0  0  0  0  0  0  0
   10.3996  -17.8208   28.4800 O   0  0  0  0  0  0  0  0  0  0  0  0
   13.3601  -16.7050   23.8992 O   0  0  0  0  0  0  0  0  0  0  0  0
    9.2948  -16.1792   27.3864 O   0  0  0  0  0  0  0  0  0  0  0  0
  2  1  1  6
  3  4  1  0
  3  2  1  0
  5  6  2  0
  5  4  1  0
  7  2  1  0
  7  8  2  0
  9  5  1  0
 10  7  1  0
 11 10  1  0
 11 12  1  1
 13 12  1  0
 13 14  2  0
 15 14  1  0
 16 15  1  0
 17 16  2  0
 18 17  1  0
 19 18  2  0
 19 20  1  0
 20 21  2  0
 21 16  1  0
 21 13  1  0
 22 11  1  0
 23 22  2  0
 24 22  1  0
 25 29  1  0
 25 24  1  0
 25 26  1  1
 27 26  1  0
 27 28  2  0
 29 30  1  0
 31 27  1  0
 32 29  2  0
M  END
$$$$
