EWD.pdb
     RDKit          3D

 32 33  0  0  1  0  0  0  0  0999 V2000
    7.1568  -14.4864   19.6114 N   0  0  0  0  0  0  0  0  0  0  0  0
    7.2280  -15.6526   20.4149 C   0  0  1  0  0  0  0  0  0  0  0  0
    7.5857  -16.8951   19.6704 C   0  0  0  0  0  0  0  0  0  0  0  0
    8.1324  -16.6274   18.3239 C   0  0  0  0  0  0  0  0  0  0  0  0
    8.6266  -17.8231   17.6403 C   0  0  0  0  0  0  0  0  0  0  0  0
    9.7394  -18.0278   17.1353 O   0  0  0  0  0  0  0  0  0  0  0  0
    8.2568  -15.4702   21.4908 C   0  0  0  0  0  0  0  0  0  0  0  0
    9.2746  -14.7703   21.2488 O   0  0  0  0  0  0  0  0  0  0  0  0
    7.7025  -18.9001   17.5396 O   0  0  0  0  0  0  0  0  0  0  0  0
    8.0166  -16.1068   22.7369 N   0  0  0  0  0  0  0  0  0  0  0  0
    8.9082  -15.8677   23.8380 C   0  0  1  0  0  0  0  0  0  0  0  0
    8.2431  -15.9290   25.1747 C   0  0  0  0  0  0  0  0  0  0  0  0
    7.1298  -15.0049   25.3889 C   0  0  0  0  0  0  0  0  0  0  0  0
    5.7896  -15.2383   25.3726 C   0  0  0  0  0  0  0  0  0  0  0  0
    5.1458  -14.0758   25.6334 N   0  0  0  0  0  0  0  0  0  0  0  0
    6.0442  -13.1052   25.8157 C   0  0  0  0  0  0  0  0  0  0  0  0
    5.8723  -11.7491   26.1045 C   0  0  0  0  0  0  0  0  0  0  0  0
    6.9669  -10.9290   26.2492 C   0  0  0  0  0  0  0  0  0  0  0  0
    8.2171  -11.4871   26.1012 C   0  0  0  0  0  0  0  0  0  0  0  0
    8.3895  -12.8293   25.8149 C   0  0  0  0  0  0  0  0  0  0  0  0
    7.2927  -13.6570   25.6686 C   0  0  0  0  0  0  0  0  0  0  0  0
   10.1618  -16.6297   23.7250 C   0  0  0  0  0  0  0  0  0  0  0  0
   10.1893  -17.8257   23.3020 O   0  0  0  0  0  0  0  0  0  0  0  0
   11.3826  -16.0279   24.0954 N   0  0  0  0  0  0  0  0  0  0  0  0
   12.6755  -16.7407   24.0146 C   0  0  1  0  0  0  0  0  0  0  0  0
   13.7461  -15.6841   23.9228 C   0  0  0  0  0  0  0  0  0  0  0  0
   15.0734  -16.2772   23.7509 C   0  0  0  0  0  0  0  0  0  0  0  0
   15.6557  -16.8062   24.7193 O   0  0  0  0  0  0  0  0  0  0  0  0
   12.8085  -17.6407   25.1706 C   0  0  0  0  0  0  0  0  0  0  0  0
   13.4979  -18.8597   25.0171 O   0  0  0  0  0  0  0  0  0  0  0  0
   15.6973  -16.2556   22.5215 O   0  0  0  0  0  0  0  0  0  0  0  0
   12.3434  -17.3834   26.2816 O   0  0  0  0  0  0  0  0  0  0  0  0
  2  1  1  6
  3  4  1  0
  3  2  1  0
  5  6  2  0
  5  4  1  0
  7  2  1  0
  7  8  2  0
  9  5  1  0
 10  7  1  0
 11 10  1  0
 11 12  1  1
 13 12  1  0
 13 14  2  0
 15 14  1  0
 16 15  1  0
 17 16  2  0
 18 17  1  0
 19 18  2  0
 19 20  1  0
 20 21  2  0
 21 16  1  0
 21 13  1  0
 22 11  1  0
 23 22  2  0
 24 22  1  0
 25 29  1  0
 25 24  1  0
 25 26  1  1
 27 26  1  0
 27 28  2  0
 29 30  1  0
 31 27  1  0
 32 29  2  0
M  END
$$$$
