EWD.pdb
     RDKit          3D

 32 33  0  0  1  0  0  0  0  0999 V2000
    9.2291  -18.1889   21.3249 N   0  0  0  0  0  0  0  0  0  0  0  0
    9.5817  -16.9500   20.7320 C   0  0  1  0  0  0  0  0  0  0  0  0
    8.8793  -16.6569   19.4488 C   0  0  0  0  0  0  0  0  0  0  0  0
    9.7120  -16.9238   18.2576 C   0  0  0  0  0  0  0  0  0  0  0  0
    9.0320  -16.6526   16.9906 C   0  0  0  0  0  0  0  0  0  0  0  0
    7.8992  -16.9970   16.6252 O   0  0  0  0  0  0  0  0  0  0  0  0
    9.2694  -15.8253   21.6738 C   0  0  0  0  0  0  0  0  0  0  0  0
    8.2231  -15.1499   21.4913 O   0  0  0  0  0  0  0  0  0  0  0  0
    9.7728  -15.8889   16.0461 O   0  0  0  0  0  0  0  0  0  0  0  0
   10.1864  -15.5871   22.7313 N   0  0  0  0  0  0  0  0  0  0  0  0
    9.7747  -15.8105   24.0896 C   0  0  1  0  0  0  0  0  0  0  0  0
    8.3096  -16.0627   24.2404 C   0  0  0  0  0  0  0  0  0  0  0  0
    7.4448  -14.8831   24.2444 C   0  0  0  0  0  0  0  0  0  0  0  0
    6.5350  -14.4679   23.3221 C   0  0  0  0  0  0  0  0  0  0  0  0
    5.9672  -13.3200   23.7623 N   0  0  0  0  0  0  0  0  0  0  0  0
    6.4937  -12.9924   24.9446 C   0  0  0  0  0  0  0  0  0  0  0  0
    6.2358  -11.9073   25.7861 C   0  0  0  0  0  0  0  0  0  0  0  0
    6.9152  -11.7777   26.9749 C   0  0  0  0  0  0  0  0  0  0  0  0
    7.8433  -12.7424   27.2978 C   0  0  0  0  0  0  0  0  0  0  0  0
    8.1006  -13.8171   26.4660 C   0  0  0  0  0  0  0  0  0  0  0  0
    7.4204  -13.9515   25.2707 C   0  0  0  0  0  0  0  0  0  0  0  0
   10.6508  -16.7581   24.7964 C   0  0  0  0  0  0  0  0  0  0  0  0
   10.6107  -18.0072   24.5772 O   0  0  0  0  0  0  0  0  0  0  0  0
   11.5708  -16.2808   25.7533 N   0  0  0  0  0  0  0  0  0  0  0  0
   12.4245  -17.1848   26.5533 C   0  0  1  0  0  0  0  0  0  0  0  0
   13.8444  -16.7156   26.3663 C   0  0  0  0  0  0  0  0  0  0  0  0
   14.2206  -16.6914   24.9518 C   0  0  0  0  0  0  0  0  0  0  0  0
   13.9236  -17.6465   24.2060 O   0  0  0  0  0  0  0  0  0  0  0  0
   11.9630  -17.1810   27.9501 C   0  0  0  0  0  0  0  0  0  0  0  0
   12.5484  -18.0731   28.8700 O   0  0  0  0  0  0  0  0  0  0  0  0
   14.9094  -15.6181   24.4276 O   0  0  0  0  0  0  0  0  0  0  0  0
   11.0800  -16.4296   28.3657 O   0  0  0  0  0  0  0  0  0  0  0  0
  2  1  1  1
  3  4  1  0
  3  2  1  0
  5  6  2  0
  5  4  1  0
  7  2  1  0
  7  8  2  0
  9  5  1  0
 10  7  1  0
 11 10  1  0
 11 12  1  6
 13 12  1  0
 13 14  2  0
 15 14  1  0
 16 15  1  0
 17 16  2  0
 18 17  1  0
 19 18  2  0
 19 20  1  0
 20 21  2  0
 21 16  1  0
 21 13  1  0
 22 11  1  0
 23 22  2  0
 24 22  1  0
 25 29  1  0
 25 24  1  0
 25 26  1  1
 27 26  1  0
 27 28  2  0
 29 30  1  0
 31 27  1  0
 32 29  2  0
M  END
$$$$
