QGG.pdb
     RDKit          3D

 18 17  0  0  1  0  0  0  0  0999 V2000
    9.7948  -13.5252   28.5071 N   0  0  0  0  0  0  0  0  0  0  0  0
    9.9554  -14.9216   28.6158 C   0  0  0  0  0  0  0  0  0  0  0  0
   10.8148  -15.3525   29.4230 O   0  0  0  0  0  0  0  0  0  0  0  0
    9.1504  -15.8406   27.8182 C   0  0  0  0  0  0  0  0  0  0  0  0
    8.1018  -15.2324   26.9621 C   0  0  0  0  0  0  0  0  0  0  0  0
    7.3215  -16.1832   26.1212 C   0  0  2  0  0  0  0  0  0  0  0  0
    8.1804  -17.2708   25.7255 N   0  0  0  0  0  0  0  0  0  0  0  0
    6.7417  -15.4973   24.9089 C   0  0  0  0  0  0  0  0  0  0  0  0
    6.0270  -14.4788   25.0352 O   0  0  0  0  0  0  0  0  0  0  0  0
    6.9934  -15.9904   23.6042 N   0  0  0  0  0  0  0  0  0  0  0  0
    7.2702  -15.1399   22.5061 C   0  0  0  0  0  0  0  0  0  0  0  0
    8.6297  -15.1434   21.9796 C   0  0  0  0  0  0  0  0  0  0  0  0
    8.8710  -14.3707   21.0055 O   0  0  0  0  0  0  0  0  0  0  0  0
    9.7204  -15.9214   22.4429 N   0  0  0  0  0  0  0  0  0  0  0  0
   11.0460  -15.3205   22.6203 C   0  0  0  0  0  0  0  0  0  0  0  0
   12.0635  -16.1791   21.9768 C   0  0  0  0  0  0  0  0  0  0  0  0
   11.7714  -16.8554   20.9631 O   0  0  0  0  0  0  0  0  0  0  0  0
   13.3528  -16.2347   22.5025 O   0  0  0  0  0  0  0  0  0  0  0  0
  2  1  1  0
  3  2  2  0
  4  2  1  0
  5  4  1  0
  6  5  1  0
  6  7  1  6
  8 10  1  0
  8  6  1  0
  9  8  2  0
 11 12  1  0
 11 10  1  0
 12 14  1  0
 13 12  2  0
 14 15  1  0
 15 16  1  0
 16 17  2  0
 16 18  1  0
M  END
$$$$
