QGG.pdb
     RDKit          3D

 18 17  0  0  1  0  0  0  0  0999 V2000
    5.3362  -27.2106   35.8671 N   0  0  0  0  0  0  0  0  0  0  0  0
    6.2740  -27.2059   34.8145 C   0  0  0  0  0  0  0  0  0  0  0  0
    7.3627  -27.8040   34.9958 O   0  0  0  0  0  0  0  0  0  0  0  0
    5.9927  -26.5294   33.5529 C   0  0  0  0  0  0  0  0  0  0  0  0
    7.1030  -26.4698   32.5700 C   0  0  0  0  0  0  0  0  0  0  0  0
    6.8280  -25.6909   31.3299 C   0  0  2  0  0  0  0  0  0  0  0  0
    5.6672  -26.2435   30.6785 N   0  0  0  0  0  0  0  0  0  0  0  0
    8.0148  -25.7025   30.3984 C   0  0  0  0  0  0  0  0  0  0  0  0
    8.1300  -26.5908   29.5258 O   0  0  0  0  0  0  0  0  0  0  0  0
    9.0221  -24.7099   30.4915 N   0  0  0  0  0  0  0  0  0  0  0  0
   10.1895  -24.7285   29.6897 C   0  0  0  0  0  0  0  0  0  0  0  0
   11.1802  -23.6843   29.9214 C   0  0  0  0  0  0  0  0  0  0  0  0
   12.2455  -23.7409   29.2386 O   0  0  0  0  0  0  0  0  0  0  0  0
   11.0808  -22.6030   30.8326 N   0  0  0  0  0  0  0  0  0  0  0  0
   12.1101  -21.5596   30.8705 C   0  0  0  0  0  0  0  0  0  0  0  0
   13.1823  -21.9624   31.8060 C   0  0  0  0  0  0  0  0  0  0  0  0
   13.1624  -23.0954   32.3411 O   0  0  0  0  0  0  0  0  0  0  0  0
   14.2185  -21.0758   32.0921 O   0  0  0  0  0  0  0  0  0  0  0  0
  2  1  1  0
  3  2  2  0
  4  2  1  0
  5  4  1  0
  6  5  1  0
  6  7  1  6
  8 10  1  0
  8  6  1  0
  9  8  2  0
 11 12  1  0
 11 10  1  0
 12 14  1  0
 13 12  2  0
 14 15  1  0
 15 16  1  0
 16 17  2  0
 16 18  1  0
M  END
$$$$
