QGG.pdb
     RDKit          3D

 18 17  0  0  1  0  0  0  0  0999 V2000
    7.3983  -14.6801   17.8766 N   0  0  0  0  0  0  0  0  0  0  0  0
    8.2286  -13.5727   18.1448 C   0  0  0  0  0  0  0  0  0  0  0  0
    8.9087  -13.1063   17.1983 O   0  0  0  0  0  0  0  0  0  0  0  0
    8.2981  -12.9838   19.4777 C   0  0  0  0  0  0  0  0  0  0  0  0
    7.3934  -13.5576   20.5046 C   0  0  0  0  0  0  0  0  0  0  0  0
    8.0329  -13.9189   21.8010 C   0  0  2  0  0  0  0  0  0  0  0  0
    9.3756  -14.3775   21.5482 N   0  0  0  0  0  0  0  0  0  0  0  0
    7.2400  -14.9754   22.5300 C   0  0  0  0  0  0  0  0  0  0  0  0
    6.1050  -14.7169   22.9868 O   0  0  0  0  0  0  0  0  0  0  0  0
    7.7625  -16.2801   22.7127 N   0  0  0  0  0  0  0  0  0  0  0  0
    7.1102  -17.2613   23.4986 C   0  0  0  0  0  0  0  0  0  0  0  0
    7.8302  -17.7849   24.6530 C   0  0  0  0  0  0  0  0  0  0  0  0
    9.0365  -18.1260   24.4719 O   0  0  0  0  0  0  0  0  0  0  0  0
    7.3254  -17.9539   25.9668 N   0  0  0  0  0  0  0  0  0  0  0  0
    7.8578  -17.1626   27.0804 C   0  0  0  0  0  0  0  0  0  0  0  0
    9.2091  -17.6526   27.4279 C   0  0  0  0  0  0  0  0  0  0  0  0
    9.7646  -17.2790   28.4872 O   0  0  0  0  0  0  0  0  0  0  0  0
    9.8657  -18.5340   26.5713 O   0  0  0  0  0  0  0  0  0  0  0  0
  2  1  1  0
  3  2  2  0
  4  2  1  0
  5  4  1  0
  6  5  1  0
  6  7  1  6
  8 10  1  0
  8  6  1  0
  9  8  2  0
 11 12  1  0
 11 10  1  0
 12 14  1  0
 13 12  2  0
 14 15  1  0
 15 16  1  0
 16 17  2  0
 16 18  1  0
M  END
$$$$
