QGG.pdb
     RDKit          3D

 18 17  0  0  1  0  0  0  0  0999 V2000
    7.1458  -12.6685   18.7146 N   0  0  0  0  0  0  0  0  0  0  0  0
    7.3501  -13.8085   17.9108 C   0  0  0  0  0  0  0  0  0  0  0  0
    6.8526  -13.8108   16.7583 O   0  0  0  0  0  0  0  0  0  0  0  0
    8.1150  -14.9513   18.3982 C   0  0  0  0  0  0  0  0  0  0  0  0
    8.7194  -14.8184   19.7471 C   0  0  0  0  0  0  0  0  0  0  0  0
    9.2831  -16.0688   20.3292 C   0  0  2  0  0  0  0  0  0  0  0  0
    8.2012  -16.9676   20.6431 N   0  0  0  0  0  0  0  0  0  0  0  0
   10.1067  -15.7800   21.5600 C   0  0  0  0  0  0  0  0  0  0  0  0
    9.5591  -15.6587   22.6778 O   0  0  0  0  0  0  0  0  0  0  0  0
   11.5145  -15.6402   21.4768 N   0  0  0  0  0  0  0  0  0  0  0  0
   12.3245  -15.3770   22.6084 C   0  0  0  0  0  0  0  0  0  0  0  0
   13.7701  -15.4182   22.4241 C   0  0  0  0  0  0  0  0  0  0  0  0
   14.2110  -15.1326   21.2715 O   0  0  0  0  0  0  0  0  0  0  0  0
   14.7443  -15.7435   23.4010 N   0  0  0  0  0  0  0  0  0  0  0  0
   16.1722  -15.5584   23.1242 C   0  0  0  0  0  0  0  0  0  0  0  0
   16.9624  -16.0562   24.2707 C   0  0  0  0  0  0  0  0  0  0  0  0
   16.9881  -15.4154   25.3473 O   0  0  0  0  0  0  0  0  0  0  0  0
   17.6810  -17.2440   24.1506 O   0  0  0  0  0  0  0  0  0  0  0  0
  2  1  1  0
  3  2  2  0
  4  2  1  0
  5  4  1  0
  6  5  1  0
  6  7  1  1
  8 10  1  0
  8  6  1  0
  9  8  2  0
 11 12  1  0
 11 10  1  0
 12 14  1  0
 13 12  2  0
 14 15  1  0
 15 16  1  0
 16 17  2  0
 16 18  1  0
M  END
$$$$
