QGG.pdb
     RDKit          3D

 18 17  0  0  1  0  0  0  0  0999 V2000
    8.1466  -21.3102   25.4639 N   0  0  0  0  0  0  0  0  0  0  0  0
    7.3847  -22.4860   25.6205 C   0  0  0  0  0  0  0  0  0  0  0  0
    7.9149  -23.4535   26.2195 O   0  0  0  0  0  0  0  0  0  0  0  0
    6.0230  -22.5800   25.1053 C   0  0  0  0  0  0  0  0  0  0  0  0
    5.4771  -21.3665   24.4481 C   0  0  0  0  0  0  0  0  0  0  0  0
    5.1381  -21.5099   23.0043 C   0  0  2  0  0  0  0  0  0  0  0  0
    5.1771  -22.9066   22.6514 N   0  0  0  0  0  0  0  0  0  0  0  0
    6.0833  -20.7168   22.1359 C   0  0  0  0  0  0  0  0  0  0  0  0
    6.4234  -19.5577   22.4594 O   0  0  0  0  0  0  0  0  0  0  0  0
    6.6048  -21.2662   20.9382 N   0  0  0  0  0  0  0  0  0  0  0  0
    7.9888  -21.4940   20.7412 C   0  0  0  0  0  0  0  0  0  0  0  0
    8.9202  -20.6358   21.4634 C   0  0  0  0  0  0  0  0  0  0  0  0
    8.9067  -19.4024   21.1758 O   0  0  0  0  0  0  0  0  0  0  0  0
    9.8453  -21.0330   22.4613 N   0  0  0  0  0  0  0  0  0  0  0  0
   10.6036  -20.0327   23.2190 C   0  0  0  0  0  0  0  0  0  0  0  0
   11.4697  -20.7164   24.2036 C   0  0  0  0  0  0  0  0  0  0  0  0
   11.4943  -21.9679   24.2632 O   0  0  0  0  0  0  0  0  0  0  0  0
   12.2613  -19.9629   25.0680 O   0  0  0  0  0  0  0  0  0  0  0  0
  2  1  1  0
  3  2  2  0
  4  2  1  0
  5  4  1  0
  6  5  1  0
  6  7  1  6
  8 10  1  0
  8  6  1  0
  9  8  2  0
 11 12  1  0
 11 10  1  0
 12 14  1  0
 13 12  2  0
 14 15  1  0
 15 16  1  0
 16 17  2  0
 16 18  1  0
M  END
$$$$
