QGG.pdb
     RDKit          3D

 18 17  0  0  1  0  0  0  0  0999 V2000
    6.1951  -20.4478   25.4639 N   0  0  0  0  0  0  0  0  0  0  0  0
    5.6719  -21.2123   24.4012 C   0  0  0  0  0  0  0  0  0  0  0  0
    5.2047  -22.3464   24.6686 O   0  0  0  0  0  0  0  0  0  0  0  0
    5.6709  -20.7058   23.0330 C   0  0  0  0  0  0  0  0  0  0  0  0
    6.2174  -19.3410   22.8304 C   0  0  0  0  0  0  0  0  0  0  0  0
    5.2387  -18.3131   22.3771 C   0  0  2  0  0  0  0  0  0  0  0  0
    4.7899  -18.6482   21.0493 N   0  0  0  0  0  0  0  0  0  0  0  0
    5.8428  -16.9307   22.3996 C   0  0  0  0  0  0  0  0  0  0  0  0
    6.1920  -16.4065   23.4799 O   0  0  0  0  0  0  0  0  0  0  0  0
    6.0273  -16.1980   21.2005 N   0  0  0  0  0  0  0  0  0  0  0  0
    6.5490  -14.8814   21.1821 C   0  0  0  0  0  0  0  0  0  0  0  0
    7.9983  -14.7339   21.1236 C   0  0  0  0  0  0  0  0  0  0  0  0
    8.4551  -13.8522   20.3374 O   0  0  0  0  0  0  0  0  0  0  0  0
    8.9599  -15.4734   21.8569 N   0  0  0  0  0  0  0  0  0  0  0  0
   10.3931  -15.2920   21.6065 C   0  0  0  0  0  0  0  0  0  0  0  0
   11.1665  -16.0479   22.6151 C   0  0  0  0  0  0  0  0  0  0  0  0
   11.1090  -15.7293   23.8257 O   0  0  0  0  0  0  0  0  0  0  0  0
   11.9624  -17.1193   22.2146 O   0  0  0  0  0  0  0  0  0  0  0  0
  2  1  1  0
  3  2  2  0
  4  2  1  0
  5  4  1  0
  6  5  1  0
  6  7  1  6
  8 10  1  0
  8  6  1  0
  9  8  2  0
 11 12  1  0
 11 10  1  0
 12 14  1  0
 13 12  2  0
 14 15  1  0
 15 16  1  0
 16 17  2  0
 16 18  1  0
M  END
$$$$
