QGG.pdb
     RDKit          3D

 18 17  0  0  1  0  0  0  0  0999 V2000
    9.2237  -14.0283   16.4122 N   0  0  0  0  0  0  0  0  0  0  0  0
    7.8504  -13.7312   16.2958 C   0  0  0  0  0  0  0  0  0  0  0  0
    7.3118  -13.8768   15.1713 O   0  0  0  0  0  0  0  0  0  0  0  0
    7.0758  -13.2696   17.4427 C   0  0  0  0  0  0  0  0  0  0  0  0
    7.7585  -13.3001   18.7601 C   0  0  0  0  0  0  0  0  0  0  0  0
    7.9119  -14.6472   19.3780 C   0  0  2  0  0  0  0  0  0  0  0  0
    6.6051  -15.2192   19.5828 N   0  0  0  0  0  0  0  0  0  0  0  0
    8.6681  -14.5717   20.6814 C   0  0  0  0  0  0  0  0  0  0  0  0
    9.8582  -14.1883   20.7052 O   0  0  0  0  0  0  0  0  0  0  0  0
    8.0482  -14.9325   21.9038 N   0  0  0  0  0  0  0  0  0  0  0  0
    8.7324  -14.9089   23.1436 C   0  0  0  0  0  0  0  0  0  0  0  0
    9.7812  -15.9001   23.3511 C   0  0  0  0  0  0  0  0  0  0  0  0
    9.5394  -17.0821   22.9654 O   0  0  0  0  0  0  0  0  0  0  0  0
   11.0525  -15.6845   23.9399 N   0  0  0  0  0  0  0  0  0  0  0  0
   12.0432  -16.7638   23.9972 C   0  0  0  0  0  0  0  0  0  0  0  0
   11.8835  -17.5091   25.2644 C   0  0  0  0  0  0  0  0  0  0  0  0
   10.7495  -17.6443   25.7804 O   0  0  0  0  0  0  0  0  0  0  0  0
   13.0011  -18.0628   25.8857 O   0  0  0  0  0  0  0  0  0  0  0  0
  2  1  1  0
  3  2  2  0
  4  2  1  0
  5  4  1  0
  6  5  1  0
  6  7  1  1
  8 10  1  0
  8  6  1  0
  9  8  2  0
 11 12  1  0
 11 10  1  0
 12 14  1  0
 13 12  2  0
 14 15  1  0
 15 16  1  0
 16 17  2  0
 16 18  1  0
M  END
$$$$
