QGG.pdb
     RDKit          3D

 18 17  0  0  1  0  0  0  0  0999 V2000
    7.1974  -20.4156   24.9719 N   0  0  0  0  0  0  0  0  0  0  0  0
    8.2281  -19.5609   24.5308 C   0  0  0  0  0  0  0  0  0  0  0  0
    9.4006  -20.0093   24.5261 O   0  0  0  0  0  0  0  0  0  0  0  0
    7.9460  -18.1983   24.0922 C   0  0  0  0  0  0  0  0  0  0  0  0
    6.5183  -17.7949   24.0568 C   0  0  0  0  0  0  0  0  0  0  0  0
    5.9854  -17.4191   22.7171 C   0  0  2  0  0  0  0  0  0  0  0  0
    6.1683  -18.5268   21.8136 N   0  0  0  0  0  0  0  0  0  0  0  0
    6.6631  -16.1814   22.1829 C   0  0  0  0  0  0  0  0  0  0  0  0
    6.5629  -15.0906   22.7862 O   0  0  0  0  0  0  0  0  0  0  0  0
    7.4259  -16.2277   20.9894 N   0  0  0  0  0  0  0  0  0  0  0  0
    8.1058  -15.0977   20.4728 C   0  0  0  0  0  0  0  0  0  0  0  0
    9.4251  -14.8005   21.0175 C   0  0  0  0  0  0  0  0  0  0  0  0
    9.4654  -14.2375   22.1514 O   0  0  0  0  0  0  0  0  0  0  0  0
   10.6776  -15.0763   20.4137 N   0  0  0  0  0  0  0  0  0  0  0  0
   11.9290  -14.7520   21.1055 C   0  0  0  0  0  0  0  0  0  0  0  0
   13.0734  -15.2164   20.2920 C   0  0  0  0  0  0  0  0  0  0  0  0
   13.2497  -16.4403   20.0884 O   0  0  0  0  0  0  0  0  0  0  0  0
   13.9584  -14.2863   19.7504 O   0  0  0  0  0  0  0  0  0  0  0  0
  2  1  1  0
  3  2  2  0
  4  2  1  0
  5  4  1  0
  6  5  1  0
  6  7  1  6
  8 10  1  0
  8  6  1  0
  9  8  2  0
 11 12  1  0
 11 10  1  0
 12 14  1  0
 13 12  2  0
 14 15  1  0
 15 16  1  0
 16 17  2  0
 16 18  1  0
M  END
$$$$
