QGG.pdb
     RDKit          3D

 18 17  0  0  1  0  0  0  0  0999 V2000
    8.4120  -21.1294   22.3179 N   0  0  0  0  0  0  0  0  0  0  0  0
    7.3088  -21.1255   23.1957 C   0  0  0  0  0  0  0  0  0  0  0  0
    6.6741  -22.1982   23.3453 O   0  0  0  0  0  0  0  0  0  0  0  0
    6.9140  -19.9162   23.9100 C   0  0  0  0  0  0  0  0  0  0  0  0
    5.5367  -19.4209   23.6652 C   0  0  0  0  0  0  0  0  0  0  0  0
    5.3755  -18.5072   22.4993 C   0  0  2  0  0  0  0  0  0  0  0  0
    5.8561  -19.1721   21.3144 N   0  0  0  0  0  0  0  0  0  0  0  0
    6.1110  -17.2073   22.7133 C   0  0  0  0  0  0  0  0  0  0  0  0
    5.8458  -16.4807   23.6959 O   0  0  0  0  0  0  0  0  0  0  0  0
    7.1154  -16.7824   21.8082 N   0  0  0  0  0  0  0  0  0  0  0  0
    7.7723  -15.5333   21.9271 C   0  0  0  0  0  0  0  0  0  0  0  0
    8.7305  -15.3791   23.0150 C   0  0  0  0  0  0  0  0  0  0  0  0
    9.9289  -15.1246   22.6938 O   0  0  0  0  0  0  0  0  0  0  0  0
    8.4659  -15.4817   24.4039 N   0  0  0  0  0  0  0  0  0  0  0  0
    9.5252  -15.2359   25.3874 C   0  0  0  0  0  0  0  0  0  0  0  0
   10.1815  -16.5157   25.7313 C   0  0  0  0  0  0  0  0  0  0  0  0
    9.9163  -17.5563   25.0855 O   0  0  0  0  0  0  0  0  0  0  0  0
   11.0988  -16.5618   26.7792 O   0  0  0  0  0  0  0  0  0  0  0  0
  2  1  1  0
  3  2  2  0
  4  2  1  0
  5  4  1  0
  6  5  1  0
  6  7  1  6
  8 10  1  0
  8  6  1  0
  9  8  2  0
 11 12  1  0
 11 10  1  0
 12 14  1  0
 13 12  2  0
 14 15  1  0
 15 16  1  0
 16 17  2  0
 16 18  1  0
M  END
$$$$
