QGG.pdb
     RDKit          3D

 18 17  0  0  1  0  0  0  0  0999 V2000
    6.1284  -11.3404   26.3499 N   0  0  0  0  0  0  0  0  0  0  0  0
    6.5343  -12.3757   27.2164 C   0  0  0  0  0  0  0  0  0  0  0  0
    6.4598  -12.1696   28.4524 O   0  0  0  0  0  0  0  0  0  0  0  0
    7.0255  -13.6479   26.6979 C   0  0  0  0  0  0  0  0  0  0  0  0
    7.1183  -13.7715   25.2220 C   0  0  0  0  0  0  0  0  0  0  0  0
    7.5621  -15.0987   24.7106 C   0  0  2  0  0  0  0  0  0  0  0  0
    8.6353  -15.5845   25.5408 N   0  0  0  0  0  0  0  0  0  0  0  0
    8.0025  -15.0140   23.2700 C   0  0  0  0  0  0  0  0  0  0  0  0
    8.0217  -13.9147   22.6743 O   0  0  0  0  0  0  0  0  0  0  0  0
    8.4030  -16.1749   22.5625 N   0  0  0  0  0  0  0  0  0  0  0  0
    9.6873  -16.7537   22.7086 C   0  0  0  0  0  0  0  0  0  0  0  0
   10.8074  -16.0733   22.0699 C   0  0  0  0  0  0  0  0  0  0  0  0
   10.8628  -16.1199   20.8054 O   0  0  0  0  0  0  0  0  0  0  0  0
   11.8484  -15.3582   22.7134 N   0  0  0  0  0  0  0  0  0  0  0  0
   12.2056  -15.6480   24.1056 C   0  0  0  0  0  0  0  0  0  0  0  0
   13.4327  -16.4727   24.1353 C   0  0  0  0  0  0  0  0  0  0  0  0
   13.3559  -17.7170   24.2621 O   0  0  0  0  0  0  0  0  0  0  0  0
   14.6793  -15.8605   24.0217 O   0  0  0  0  0  0  0  0  0  0  0  0
  2  1  1  0
  3  2  2  0
  4  2  1  0
  5  4  1  0
  6  5  1  0
  6  7  1  1
  8 10  1  0
  8  6  1  0
  9  8  2  0
 11 12  1  0
 11 10  1  0
 12 14  1  0
 13 12  2  0
 14 15  1  0
 15 16  1  0
 16 17  2  0
 16 18  1  0
M  END
$$$$
