QGG.pdb
     RDKit          3D

 18 17  0  0  1  0  0  0  0  0999 V2000
    6.6931  -11.9444   26.3682 N   0  0  0  0  0  0  0  0  0  0  0  0
    6.6451  -13.2835   25.9300 C   0  0  0  0  0  0  0  0  0  0  0  0
    5.7535  -14.0262   26.4088 O   0  0  0  0  0  0  0  0  0  0  0  0
    7.5987  -13.7943   24.9510 C   0  0  0  0  0  0  0  0  0  0  0  0
    7.0369  -14.5833   23.8266 C   0  0  0  0  0  0  0  0  0  0  0  0
    8.0155  -15.0233   22.7928 C   0  0  2  0  0  0  0  0  0  0  0  0
    9.3150  -14.4960   23.1245 N   0  0  0  0  0  0  0  0  0  0  0  0
    7.5976  -14.5755   21.4139 C   0  0  0  0  0  0  0  0  0  0  0  0
    6.5908  -15.0710   20.8619 O   0  0  0  0  0  0  0  0  0  0  0  0
    8.3347  -13.5864   20.7159 N   0  0  0  0  0  0  0  0  0  0  0  0
    7.9616  -13.1196   19.4319 C   0  0  0  0  0  0  0  0  0  0  0  0
    8.5122  -13.8185   18.2769 C   0  0  0  0  0  0  0  0  0  0  0  0
    8.2831  -13.3152   17.1375 O   0  0  0  0  0  0  0  0  0  0  0  0
    9.2834  -15.0079   18.2892 N   0  0  0  0  0  0  0  0  0  0  0  0
    9.8928  -15.5171   17.0567 C   0  0  0  0  0  0  0  0  0  0  0  0
   10.9622  -16.4791   17.3997 C   0  0  0  0  0  0  0  0  0  0  0  0
   11.3792  -16.5680   18.5781 O   0  0  0  0  0  0  0  0  0  0  0  0
   11.5071  -17.2895   16.4058 O   0  0  0  0  0  0  0  0  0  0  0  0
  2  1  1  0
  3  2  2  0
  4  2  1  0
  5  4  1  0
  6  5  1  0
  6  7  1  1
  8 10  1  0
  8  6  1  0
  9  8  2  0
 11 12  1  0
 11 10  1  0
 12 14  1  0
 13 12  2  0
 14 15  1  0
 15 16  1  0
 16 17  2  0
 16 18  1  0
M  END
$$$$
