QGG.pdb
     RDKit          3D

 18 17  0  0  1  0  0  0  0  0999 V2000
    4.6598  -22.3972   24.6692 N   0  0  0  0  0  0  0  0  0  0  0  0
    3.6499  -22.4498   23.6869 C   0  0  0  0  0  0  0  0  0  0  0  0
    2.5566  -22.9830   23.9972 O   0  0  0  0  0  0  0  0  0  0  0  0
    3.8637  -21.9031   22.3513 C   0  0  0  0  0  0  0  0  0  0  0  0
    5.2212  -21.3801   22.0580 C   0  0  0  0  0  0  0  0  0  0  0  0
    5.6057  -20.1362   22.7824 C   0  0  2  0  0  0  0  0  0  0  0  0
    4.4575  -19.2690   22.8642 N   0  0  0  0  0  0  0  0  0  0  0  0
    6.7531  -19.4340   22.0991 C   0  0  0  0  0  0  0  0  0  0  0  0
    7.8724  -19.9842   22.0084 O   0  0  0  0  0  0  0  0  0  0  0  0
    6.5881  -18.1393   21.5468 N   0  0  0  0  0  0  0  0  0  0  0  0
    7.6541  -17.4206   20.9526 C   0  0  0  0  0  0  0  0  0  0  0  0
    8.5535  -16.6955   21.8419 C   0  0  0  0  0  0  0  0  0  0  0  0
    9.4195  -15.9477   21.2988 O   0  0  0  0  0  0  0  0  0  0  0  0
    8.5641  -16.7341   23.2589 N   0  0  0  0  0  0  0  0  0  0  0  0
    9.4702  -15.8720   24.0240 C   0  0  0  0  0  0  0  0  0  0  0  0
   10.7772  -16.5470   24.1761 C   0  0  0  0  0  0  0  0  0  0  0  0
   11.7042  -16.3211   23.3638 O   0  0  0  0  0  0  0  0  0  0  0  0
   10.9760  -17.4379   25.2289 O   0  0  0  0  0  0  0  0  0  0  0  0
  2  1  1  0
  3  2  2  0
  4  2  1  0
  5  4  1  0
  6  5  1  0
  6  7  1  6
  8 10  1  0
  8  6  1  0
  9  8  2  0
 11 12  1  0
 11 10  1  0
 12 14  1  0
 13 12  2  0
 14 15  1  0
 15 16  1  0
 16 17  2  0
 16 18  1  0
M  END
$$$$
