QGG.pdb
     RDKit          3D

 18 17  0  0  1  0  0  0  0  0999 V2000
    8.1995  -11.8449   20.1953 N   0  0  0  0  0  0  0  0  0  0  0  0
    7.8037  -13.0215   19.5271 C   0  0  0  0  0  0  0  0  0  0  0  0
    7.3878  -12.9148   18.3475 O   0  0  0  0  0  0  0  0  0  0  0  0
    7.8738  -14.3236   20.1813 C   0  0  0  0  0  0  0  0  0  0  0  0
    7.2802  -15.4682   19.4463 C   0  0  0  0  0  0  0  0  0  0  0  0
    7.4463  -16.8036   20.0859 C   0  0  2  0  0  0  0  0  0  0  0  0
    7.4084  -16.6442   21.5177 N   0  0  0  0  0  0  0  0  0  0  0  0
    8.7354  -17.4614   19.6594 C   0  0  0  0  0  0  0  0  0  0  0  0
    8.9908  -17.6343   18.4475 O   0  0  0  0  0  0  0  0  0  0  0  0
    9.6825  -17.8964   20.6198 N   0  0  0  0  0  0  0  0  0  0  0  0
   10.9131  -17.2295   20.8359 C   0  0  0  0  0  0  0  0  0  0  0  0
   11.3119  -16.9863   22.2169 C   0  0  0  0  0  0  0  0  0  0  0  0
   12.3381  -16.2670   22.4008 O   0  0  0  0  0  0  0  0  0  0  0  0
   10.6715  -17.4687   23.3859 N   0  0  0  0  0  0  0  0  0  0  0  0
   10.6600  -16.6709   24.6160 C   0  0  0  0  0  0  0  0  0  0  0  0
   11.5711  -17.2839   25.6064 C   0  0  0  0  0  0  0  0  0  0  0  0
   12.3107  -18.2409   25.2784 O   0  0  0  0  0  0  0  0  0  0  0  0
   11.6053  -16.7930   26.9101 O   0  0  0  0  0  0  0  0  0  0  0  0
  2  1  1  0
  3  2  2  0
  4  2  1  0
  5  4  1  0
  6  5  1  0
  6  7  1  1
  8 10  1  0
  8  6  1  0
  9  8  2  0
 11 12  1  0
 11 10  1  0
 12 14  1  0
 13 12  2  0
 14 15  1  0
 15 16  1  0
 16 17  2  0
 16 18  1  0
M  END
$$$$
