VLT.pdb
     RDKit          3D

 23 22  0  0  1  0  0  0  0  0999 V2000
   17.5334  -11.4258  -19.3002 C   0  0  0  0  0  0  0  0  0  0  0  0
   18.9380  -11.7030  -19.7175 C   0  0  2  0  0  0  0  0  0  0  0  0
   18.9146  -12.7786  -20.7909 C   0  0  0  0  0  0  0  0  0  0  0  0
   19.8137  -12.1907  -18.6049 C   0  0  2  0  0  0  0  0  0  0  0  0
   19.4379  -13.5278  -18.2070 N   0  0  0  0  0  0  0  0  0  0  0  0
   19.8789  -11.2848  -17.4540 C   0  0  0  0  0  0  0  0  0  0  0  0
   19.0090  -11.3260  -16.5592 O   0  0  0  0  0  0  0  0  0  0  0  0
   24.1146  -10.6805  -14.2455 C   0  0  0  0  0  0  0  0  0  0  0  0
   22.6992  -10.6379  -14.7670 C   0  0  1  0  0  0  0  0  0  0  0  0
   21.8256  -10.5089  -13.4910 C   0  0  0  0  0  0  0  0  0  0  0  0
   22.4223   -9.5079  -15.6732 C   0  0  0  0  0  0  0  0  0  0  0  0
   21.0576   -9.3759  -16.2509 C   0  0  2  0  0  0  0  0  0  0  0  0
   20.9380  -10.3552  -17.3567 N   0  0  0  0  0  0  0  0  0  0  0  0
   20.6973   -8.0372  -16.7639 C   0  0  0  0  0  0  0  0  0  0  0  0
   21.3712   -7.6004  -17.7612 O   0  0  0  0  0  0  0  0  0  0  0  0
   17.2696   -5.7684  -15.4767 C   0  0  0  0  0  0  0  0  0  0  0  0
   17.7843   -5.7439  -16.9052 C   0  0  1  0  0  0  0  0  0  0  0  0
   17.3937   -4.5441  -17.4889 O   0  0  0  0  0  0  0  0  0  0  0  0
   19.2743   -5.9657  -16.9597 C   0  0  2  0  0  0  0  0  0  0  0  0
   19.6983   -7.1836  -16.2899 N   0  0  0  0  0  0  0  0  0  0  0  0
   20.0109   -4.7647  -16.5115 C   0  0  0  0  0  0  0  0  0  0  0  0
   20.7835   -4.7794  -15.3822 O   0  0  0  0  0  0  0  0  0  0  0  0
   19.9214   -3.7156  -17.1868 O   0  0  0  0  0  0  0  0  0  0  0  0
  2  1  1  1
  2  3  1  0
  4  2  1  0
  4  6  1  0
  4  5  1  1
  6  7  2  0
  6 13  1  0
  9  8  1  1
  9 11  1  0
  9 10  1  0
 12 11  1  6
 13 12  1  0
 14 12  1  0
 14 20  1  0
 15 14  2  0
 17 16  1  1
 18 17  1  0
 19 20  1  1
 19 17  1  0
 19 21  1  0
 21 22  1  0
 23 21  2  0
M  END
$$$$
