VLT.pdb
     RDKit          3D

 23 22  0  0  1  0  0  0  0  0999 V2000
   19.7405  -14.0079  -15.5993 C   0  0  0  0  0  0  0  0  0  0  0  0
   18.3779  -13.6903  -16.1154 C   0  0  2  0  0  0  0  0  0  0  0  0
   17.9800  -14.7682  -17.1100 C   0  0  0  0  0  0  0  0  0  0  0  0
   18.2904  -12.3702  -16.8171 C   0  0  2  0  0  0  0  0  0  0  0  0
   18.8810  -12.4505  -18.1332 N   0  0  0  0  0  0  0  0  0  0  0  0
   18.8369  -11.2472  -16.0493 C   0  0  0  0  0  0  0  0  0  0  0  0
   18.3833  -10.9648  -14.9207 O   0  0  0  0  0  0  0  0  0  0  0  0
   24.1308  -10.8090  -15.2265 C   0  0  0  0  0  0  0  0  0  0  0  0
   22.6382  -10.6585  -15.0637 C   0  0  1  0  0  0  0  0  0  0  0  0
   22.4549  -10.2536  -13.5770 C   0  0  0  0  0  0  0  0  0  0  0  0
   22.0353   -9.6322  -15.9345 C   0  0  0  0  0  0  0  0  0  0  0  0
   20.5696   -9.3934  -15.8447 C   0  0  2  0  0  0  0  0  0  0  0  0
   19.8883  -10.4762  -16.5928 N   0  0  0  0  0  0  0  0  0  0  0  0
   20.0920   -8.0917  -16.3574 C   0  0  0  0  0  0  0  0  0  0  0  0
   20.3229   -7.8372  -17.5909 O   0  0  0  0  0  0  0  0  0  0  0  0
   16.9015   -5.8411  -14.7868 C   0  0  0  0  0  0  0  0  0  0  0  0
   17.4382   -5.7085  -16.2012 C   0  0  1  0  0  0  0  0  0  0  0  0
   16.9981   -4.4973  -16.7228 O   0  0  0  0  0  0  0  0  0  0  0  0
   18.9382   -5.8537  -16.2391 C   0  0  2  0  0  0  0  0  0  0  0  0
   19.4096   -7.0970  -15.6530 N   0  0  0  0  0  0  0  0  0  0  0  0
   19.6059   -4.6560  -15.6861 C   0  0  0  0  0  0  0  0  0  0  0  0
   19.4906   -3.4317  -16.2864 O   0  0  0  0  0  0  0  0  0  0  0  0
   20.2887   -4.7731  -14.6447 O   0  0  0  0  0  0  0  0  0  0  0  0
  2  1  1  6
  2  3  1  0
  4  2  1  0
  4  6  1  0
  4  5  1  6
  6  7  2  0
  6 13  1  0
  9  8  1  6
  9 11  1  0
  9 10  1  0
 12 11  1  6
 13 12  1  0
 14 12  1  0
 14 20  1  0
 15 14  2  0
 17 16  1  1
 18 17  1  0
 19 20  1  1
 19 17  1  0
 19 21  1  0
 21 22  1  0
 23 21  2  0
M  END
$$$$
