VLT.pdb
     RDKit          3D

 23 22  0  0  1  0  0  0  0  0999 V2000
   22.0941  -13.3799  -17.5744 C   0  0  0  0  0  0  0  0  0  0  0  0
   20.7028  -12.8479  -17.6457 C   0  0  2  0  0  0  0  0  0  0  0  0
   20.0213  -13.4523  -18.8621 C   0  0  0  0  0  0  0  0  0  0  0  0
   20.6320  -11.3579  -17.7790 C   0  0  2  0  0  0  0  0  0  0  0  0
   21.0794  -10.9398  -19.0875 N   0  0  0  0  0  0  0  0  0  0  0  0
   21.3267  -10.6283  -16.7138 C   0  0  0  0  0  0  0  0  0  0  0  0
   21.0112  -10.7927  -15.5169 O   0  0  0  0  0  0  0  0  0  0  0  0
   26.6514  -10.5688  -16.1317 C   0  0  0  0  0  0  0  0  0  0  0  0
   25.1772  -10.4477  -15.8331 C   0  0  1  0  0  0  0  0  0  0  0  0
   25.0911  -10.5476  -14.2870 C   0  0  0  0  0  0  0  0  0  0  0  0
   24.5714   -9.1803  -16.2820 C   0  0  0  0  0  0  0  0  0  0  0  0
   23.1217   -8.9563  -16.0334 C   0  0  2  0  0  0  0  0  0  0  0  0
   22.3646   -9.7295  -17.0459 N   0  0  0  0  0  0  0  0  0  0  0  0
   22.6664   -7.5505  -16.0744 C   0  0  0  0  0  0  0  0  0  0  0  0
   22.8857   -6.9039  -17.1576 O   0  0  0  0  0  0  0  0  0  0  0  0
   19.5669   -5.8584  -16.5095 C   0  0  0  0  0  0  0  0  0  0  0  0
   20.1441   -5.2311  -15.2527 C   0  0  1  0  0  0  0  0  0  0  0  0
   19.4621   -5.7454  -14.1559 O   0  0  0  0  0  0  0  0  0  0  0  0
   21.6349   -5.4372  -15.1667 C   0  0  2  0  0  0  0  0  0  0  0  0
   22.0162   -6.8358  -15.0656 N   0  0  0  0  0  0  0  0  0  0  0  0
   22.2322   -4.5902  -14.1123 C   0  0  0  0  0  0  0  0  0  0  0  0
   22.1483   -3.2251  -14.1584 O   0  0  0  0  0  0  0  0  0  0  0  0
   22.8248   -5.1421  -13.1591 O   0  0  0  0  0  0  0  0  0  0  0  0
  2  1  1  6
  2  3  1  0
  4  2  1  0
  4  6  1  0
  4  5  1  6
  6  7  2  0
  6 13  1  0
  9  8  1  1
  9 11  1  0
  9 10  1  0
 12 11  1  6
 13 12  1  0
 14 12  1  0
 14 20  1  0
 15 14  2  0
 17 16  1  6
 18 17  1  0
 19 20  1  1
 19 17  1  0
 19 21  1  0
 21 22  1  0
 23 21  2  0
M  END
$$$$
