VLT.pdb
     RDKit          3D

 23 22  0  0  1  0  0  0  0  0999 V2000
   29.2783  -19.2754  -14.5249 C   0  0  0  0  0  0  0  0  0  0  0  0
   28.7690  -19.8882  -15.7856 C   0  0  2  0  0  0  0  0  0  0  0  0
   29.2256  -19.0294  -16.9532 C   0  0  0  0  0  0  0  0  0  0  0  0
   27.2760  -19.9855  -15.8497 C   0  0  2  0  0  0  0  0  0  0  0  0
   26.6835  -18.6746  -15.9834 N   0  0  0  0  0  0  0  0  0  0  0  0
   26.6773  -20.7365  -14.7421 C   0  0  0  0  0  0  0  0  0  0  0  0
   26.6811  -21.9852  -14.7418 O   0  0  0  0  0  0  0  0  0  0  0  0
   25.4711  -22.0432   -9.6465 C   0  0  0  0  0  0  0  0  0  0  0  0
   25.1928  -20.6113  -10.0330 C   0  0  1  0  0  0  0  0  0  0  0  0
   25.7400  -19.7808   -8.8419 C   0  0  0  0  0  0  0  0  0  0  0  0
   25.8524  -20.1824  -11.2803 C   0  0  0  0  0  0  0  0  0  0  0  0
   25.3433  -20.7121  -12.5740 C   0  0  2  0  0  0  0  0  0  0  0  0
   26.0896  -20.0393  -13.6632 N   0  0  0  0  0  0  0  0  0  0  0  0
   23.8952  -20.5436  -12.8189 C   0  0  0  0  0  0  0  0  0  0  0  0
   23.4595  -19.3424  -12.9010 O   0  0  0  0  0  0  0  0  0  0  0  0
   21.4157  -23.5656  -14.4967 C   0  0  0  0  0  0  0  0  0  0  0  0
   21.2148  -22.0708  -14.6733 C   0  0  1  0  0  0  0  0  0  0  0  0
   19.9047  -21.8524  -15.0839 O   0  0  0  0  0  0  0  0  0  0  0  0
   21.5713  -21.3133  -13.4197 C   0  0  2  0  0  0  0  0  0  0  0  0
   22.9355  -21.5463  -12.9765 N   0  0  0  0  0  0  0  0  0  0  0  0
   20.5658  -21.5321  -12.3581 C   0  0  0  0  0  0  0  0  0  0  0  0
   19.2636  -21.1417  -12.5149 O   0  0  0  0  0  0  0  0  0  0  0  0
   20.9216  -22.0887  -11.2959 O   0  0  0  0  0  0  0  0  0  0  0  0
  2  1  1  1
  2  3  1  0
  4  2  1  0
  4  6  1  0
  4  5  1  1
  6  7  2  0
  6 13  1  0
  9  8  1  1
  9 11  1  0
  9 10  1  0
 12 11  1  1
 13 12  1  0
 14 12  1  0
 14 20  1  0
 15 14  2  0
 17 16  1  1
 18 17  1  0
 19 20  1  1
 19 17  1  0
 19 21  1  0
 21 22  1  0
 23 21  2  0
M  END
$$$$
