VLT.pdb
     RDKit          3D

 23 22  0  0  1  0  0  0  0  0999 V2000
   17.1661  -12.9040  -19.1144 C   0  0  0  0  0  0  0  0  0  0  0  0
   17.4082  -11.8802  -18.0574 C   0  0  2  0  0  0  0  0  0  0  0  0
   17.6384  -10.5392  -18.7342 C   0  0  0  0  0  0  0  0  0  0  0  0
   18.6024  -12.1675  -17.2006 C   0  0  2  0  0  0  0  0  0  0  0  0
   18.4759  -13.4579  -16.5632 N   0  0  0  0  0  0  0  0  0  0  0  0
   18.9079  -11.1140  -16.2277 C   0  0  0  0  0  0  0  0  0  0  0  0
   18.1898  -10.9484  -15.2196 O   0  0  0  0  0  0  0  0  0  0  0  0
   23.9845  -10.3150  -14.3908 C   0  0  0  0  0  0  0  0  0  0  0  0
   22.4760  -10.2860  -14.4164 C   0  0  1  0  0  0  0  0  0  0  0  0
   22.0754   -9.9542  -12.9544 C   0  0  0  0  0  0  0  0  0  0  0  0
   21.9059   -9.2762  -15.3275 C   0  0  0  0  0  0  0  0  0  0  0  0
   20.4279   -9.2119  -15.4845 C   0  0  2  0  0  0  0  0  0  0  0  0
   20.0272  -10.2773  -16.4335 N   0  0  0  0  0  0  0  0  0  0  0  0
   19.8818   -7.9238  -15.9619 C   0  0  0  0  0  0  0  0  0  0  0  0
   20.1188   -7.6126  -17.1811 O   0  0  0  0  0  0  0  0  0  0  0  0
   16.7219   -4.1240  -15.9205 C   0  0  0  0  0  0  0  0  0  0  0  0
   17.2142   -5.4341  -15.3312 C   0  0  1  0  0  0  0  0  0  0  0  0
   16.3019   -6.4303  -15.6600 O   0  0  0  0  0  0  0  0  0  0  0  0
   18.6172   -5.7506  -15.7825 C   0  0  2  0  0  0  0  0  0  0  0  0
   19.1282   -6.9971  -15.2377 N   0  0  0  0  0  0  0  0  0  0  0  0
   19.5218   -4.6019  -15.5632 C   0  0  0  0  0  0  0  0  0  0  0  0
   19.6356   -3.5953  -16.4832 O   0  0  0  0  0  0  0  0  0  0  0  0
   20.1939   -4.5562  -14.5093 O   0  0  0  0  0  0  0  0  0  0  0  0
  2  1  1  6
  2  3  1  0
  4  2  1  0
  4  6  1  0
  4  5  1  1
  6  7  2  0
  6 13  1  0
  9  8  1  1
  9 11  1  0
  9 10  1  0
 12 11  1  6
 13 12  1  0
 14 12  1  0
 14 20  1  0
 15 14  2  0
 17 16  1  6
 18 17  1  0
 19 20  1  1
 19 17  1  0
 19 21  1  0
 21 22  1  0
 23 21  2  0
M  END
$$$$
