VLT.pdb
     RDKit          3D

 23 22  0  0  1  0  0  0  0  0999 V2000
   18.7323  -13.0955  -16.2801 C   0  0  0  0  0  0  0  0  0  0  0  0
   17.6445  -12.0783  -16.2015 C   0  0  2  0  0  0  0  0  0  0  0  0
   16.5500  -12.4720  -17.1794 C   0  0  0  0  0  0  0  0  0  0  0  0
   18.0882  -10.6912  -16.5506 C   0  0  2  0  0  0  0  0  0  0  0  0
   18.4186  -10.5982  -17.9540 N   0  0  0  0  0  0  0  0  0  0  0  0
   19.1728  -10.1799  -15.7070 C   0  0  0  0  0  0  0  0  0  0  0  0
   19.0460  -10.1284  -14.4659 O   0  0  0  0  0  0  0  0  0  0  0  0
   24.4142  -11.6570  -16.1767 C   0  0  0  0  0  0  0  0  0  0  0  0
   23.1073  -11.1481  -15.6197 C   0  0  1  0  0  0  0  0  0  0  0  0
   23.3103  -11.1774  -14.0816 C   0  0  0  0  0  0  0  0  0  0  0  0
   22.7594   -9.7803  -16.0475 C   0  0  0  0  0  0  0  0  0  0  0  0
   21.5035   -9.1708  -15.5329 C   0  0  2  0  0  0  0  0  0  0  0  0
   20.3746   -9.7409  -16.3055 N   0  0  0  0  0  0  0  0  0  0  0  0
   21.4241   -7.6961  -15.5983 C   0  0  0  0  0  0  0  0  0  0  0  0
   21.5667   -7.1608  -16.7526 O   0  0  0  0  0  0  0  0  0  0  0  0
   18.9302   -5.2481  -13.6140 C   0  0  0  0  0  0  0  0  0  0  0  0
   19.7996   -4.7865  -14.7704 C   0  0  1  0  0  0  0  0  0  0  0  0
   19.7878   -3.3966  -14.7970 O   0  0  0  0  0  0  0  0  0  0  0  0
   21.1905   -5.3604  -14.6797 C   0  0  2  0  0  0  0  0  0  0  0  0
   21.2070   -6.8070  -14.5430 N   0  0  0  0  0  0  0  0  0  0  0  0
   21.9896   -4.6660  -13.6475 C   0  0  0  0  0  0  0  0  0  0  0  0
   22.4516   -3.3921  -13.8377 O   0  0  0  0  0  0  0  0  0  0  0  0
   22.2433   -5.2634  -12.5783 O   0  0  0  0  0  0  0  0  0  0  0  0
  2  1  1  6
  2  3  1  0
  4  2  1  0
  4  6  1  0
  4  5  1  6
  6  7  2  0
  6 13  1  0
  9  8  1  6
  9 11  1  0
  9 10  1  0
 12 11  1  6
 13 12  1  0
 14 12  1  0
 14 20  1  0
 15 14  2  0
 17 16  1  1
 18 17  1  0
 19 20  1  1
 19 17  1  0
 19 21  1  0
 21 22  1  0
 23 21  2  0
M  END
$$$$
