VLT.pdb
     RDKit          3D

 23 22  0  0  1  0  0  0  0  0999 V2000
   28.3055  -18.5429  -14.2933 C   0  0  0  0  0  0  0  0  0  0  0  0
   27.6757  -18.4777  -15.6435 C   0  0  2  0  0  0  0  0  0  0  0  0
   28.2138  -17.2523  -16.3636 C   0  0  0  0  0  0  0  0  0  0  0  0
   26.1828  -18.3651  -15.6089 C   0  0  2  0  0  0  0  0  0  0  0  0
   25.7789  -17.0809  -15.0845 N   0  0  0  0  0  0  0  0  0  0  0  0
   25.5159  -19.4668  -14.9081 C   0  0  0  0  0  0  0  0  0  0  0  0
   25.6167  -20.6406  -15.3221 O   0  0  0  0  0  0  0  0  0  0  0  0
   26.0659  -20.0909   -9.5652 C   0  0  0  0  0  0  0  0  0  0  0  0
   25.8133  -20.4046  -11.0195 C   0  0  1  0  0  0  0  0  0  0  0  0
   25.9450  -21.9484  -11.1058 C   0  0  0  0  0  0  0  0  0  0  0  0
   24.4829  -19.9931  -11.5047 C   0  0  0  0  0  0  0  0  0  0  0  0
   24.1293  -20.2584  -12.9253 C   0  0  2  0  0  0  0  0  0  0  0  0
   24.7508  -19.1968  -13.7518 N   0  0  0  0  0  0  0  0  0  0  0  0
   22.6849  -20.3135  -13.2347 C   0  0  0  0  0  0  0  0  0  0  0  0
   22.0123  -19.2406  -13.0446 O   0  0  0  0  0  0  0  0  0  0  0  0
   20.5735  -23.6090  -15.1920 C   0  0  0  0  0  0  0  0  0  0  0  0
   20.2817  -22.1311  -15.3838 C   0  0  1  0  0  0  0  0  0  0  0  0
   18.9684  -21.9989  -15.8202 O   0  0  0  0  0  0  0  0  0  0  0  0
   20.5658  -21.3444  -14.1297 C   0  0  2  0  0  0  0  0  0  0  0  0
   21.9579  -21.4043  -13.7173 N   0  0  0  0  0  0  0  0  0  0  0  0
   19.6200  -21.6986  -13.0500 C   0  0  0  0  0  0  0  0  0  0  0  0
   18.2751  -21.4796  -13.1768 O   0  0  0  0  0  0  0  0  0  0  0  0
   20.0674  -22.2111  -12.0004 O   0  0  0  0  0  0  0  0  0  0  0  0
  2  1  1  1
  2  3  1  0
  4  2  1  0
  4  6  1  0
  4  5  1  1
  6  7  2  0
  6 13  1  0
  9  8  1  1
  9 11  1  0
  9 10  1  0
 12 11  1  1
 13 12  1  0
 14 12  1  0
 14 20  1  0
 15 14  2  0
 17 16  1  1
 18 17  1  0
 19 20  1  1
 19 17  1  0
 19 21  1  0
 21 22  1  0
 23 21  2  0
M  END
$$$$
