VLT.pdb
     RDKit          3D

 23 22  0  0  1  0  0  0  0  0999 V2000
   18.5919   -9.3692  -19.1803 C   0  0  0  0  0  0  0  0  0  0  0  0
   19.7334   -9.8760  -19.9952 C   0  0  2  0  0  0  0  0  0  0  0  0
   19.1814  -10.4353  -21.2960 C   0  0  0  0  0  0  0  0  0  0  0  0
   20.5153  -10.9652  -19.3280 C   0  0  2  0  0  0  0  0  0  0  0  0
   19.7738  -12.2052  -19.3358 N   0  0  0  0  0  0  0  0  0  0  0  0
   20.9835  -10.6263  -17.9806 C   0  0  0  0  0  0  0  0  0  0  0  0
   20.3261  -10.9615  -16.9733 O   0  0  0  0  0  0  0  0  0  0  0  0
   24.4297  -10.1327  -13.9045 C   0  0  0  0  0  0  0  0  0  0  0  0
   24.8495   -9.4279  -15.1710 C   0  0  1  0  0  0  0  0  0  0  0  0
   26.3480   -9.7962  -15.3344 C   0  0  0  0  0  0  0  0  0  0  0  0
   24.1028   -9.8463  -16.3719 C   0  0  0  0  0  0  0  0  0  0  0  0
   22.6807   -9.4307  -16.5073 C   0  0  2  0  0  0  0  0  0  0  0  0
   22.1919   -9.9125  -17.8208 N   0  0  0  0  0  0  0  0  0  0  0  0
   22.4170   -7.9795  -16.4081 C   0  0  0  0  0  0  0  0  0  0  0  0
   22.8199   -7.2516  -17.3814 O   0  0  0  0  0  0  0  0  0  0  0  0
   19.8309   -4.0356  -15.0750 C   0  0  0  0  0  0  0  0  0  0  0  0
   20.0610   -5.5365  -15.0919 C   0  0  1  0  0  0  0  0  0  0  0  0
   19.1863   -6.1014  -16.0131 O   0  0  0  0  0  0  0  0  0  0  0  0
   21.5041   -5.8715  -15.3705 C   0  0  2  0  0  0  0  0  0  0  0  0
   21.7719   -7.2997  -15.3722 N   0  0  0  0  0  0  0  0  0  0  0  0
   22.4109   -5.1072  -14.4876 C   0  0  0  0  0  0  0  0  0  0  0  0
   23.0240   -3.9600  -14.9126 O   0  0  0  0  0  0  0  0  0  0  0  0
   22.6157   -5.5249  -13.3265 O   0  0  0  0  0  0  0  0  0  0  0  0
  2  1  1  1
  2  3  1  0
  4  2  1  0
  4  6  1  0
  4  5  1  1
  6  7  2  0
  6 13  1  0
  9  8  1  1
  9 11  1  0
  9 10  1  0
 12 11  1  6
 13 12  1  0
 14 12  1  0
 14 20  1  0
 15 14  2  0
 17 16  1  6
 18 17  1  0
 19 20  1  1
 19 17  1  0
 19 21  1  0
 21 22  1  0
 23 21  2  0
M  END
$$$$
