VLT.pdb
     RDKit          3D

 23 22  0  0  1  0  0  0  0  0999 V2000
   18.8085  -15.3650  -16.8420 C   0  0  0  0  0  0  0  0  0  0  0  0
   17.6343  -14.5582  -17.2829 C   0  0  2  0  0  0  0  0  0  0  0  0
   16.9856  -15.2629  -18.4627 C   0  0  0  0  0  0  0  0  0  0  0  0
   17.9854  -13.1696  -17.7203 C   0  0  2  0  0  0  0  0  0  0  0  0
   18.6430  -13.1896  -19.0066 N   0  0  0  0  0  0  0  0  0  0  0  0
   18.7569  -12.4085  -16.7329 C   0  0  0  0  0  0  0  0  0  0  0  0
   18.3243  -12.2452  -15.5730 O   0  0  0  0  0  0  0  0  0  0  0  0
   24.5032  -12.2762  -15.3706 C   0  0  0  0  0  0  0  0  0  0  0  0
   23.1274  -11.7152  -15.1070 C   0  0  1  0  0  0  0  0  0  0  0  0
   23.3937  -10.2747  -14.5952 C   0  0  0  0  0  0  0  0  0  0  0  0
   22.2566  -11.6653  -16.2961 C   0  0  0  0  0  0  0  0  0  0  0  0
   20.8774  -11.1275  -16.1471 C   0  0  2  0  0  0  0  0  0  0  0  0
   20.0036  -11.8539  -17.0984 N   0  0  0  0  0  0  0  0  0  0  0  0
   20.7195   -9.6754  -16.3744 C   0  0  0  0  0  0  0  0  0  0  0  0
   21.1928   -9.2074  -17.4682 O   0  0  0  0  0  0  0  0  0  0  0  0
   17.7835   -7.4806  -17.0176 C   0  0  0  0  0  0  0  0  0  0  0  0
   18.5517   -6.8504  -15.8692 C   0  0  1  0  0  0  0  0  0  0  0  0
   17.8640   -7.1113  -14.6894 O   0  0  0  0  0  0  0  0  0  0  0  0
   19.9814   -7.3267  -15.8332 C   0  0  2  0  0  0  0  0  0  0  0  0
   20.1073   -8.7430  -15.5334 N   0  0  0  0  0  0  0  0  0  0  0  0
   20.8097   -6.4680  -14.9600 C   0  0  0  0  0  0  0  0  0  0  0  0
   20.9972   -5.1402  -15.2326 O   0  0  0  0  0  0  0  0  0  0  0  0
   21.3465   -6.9744  -13.9501 O   0  0  0  0  0  0  0  0  0  0  0  0
  2  1  1  6
  2  3  1  0
  4  2  1  0
  4  6  1  0
  4  5  1  6
  6  7  2  0
  6 13  1  0
  9  8  1  6
  9 11  1  0
  9 10  1  0
 12 11  1  6
 13 12  1  0
 14 12  1  0
 14 20  1  0
 15 14  2  0
 17 16  1  6
 18 17  1  0
 19 20  1  1
 19 17  1  0
 19 21  1  0
 21 22  1  0
 23 21  2  0
M  END
$$$$
