VLT.pdb
     RDKit          3D

 23 22  0  0  1  0  0  0  0  0999 V2000
   28.3781  -19.9985  -13.1051 C   0  0  0  0  0  0  0  0  0  0  0  0
   27.2407  -20.6850  -13.7826 C   0  0  2  0  0  0  0  0  0  0  0  0
   27.0400  -20.0454  -15.1465 C   0  0  0  0  0  0  0  0  0  0  0  0
   25.9449  -20.5846  -13.0387 C   0  0  2  0  0  0  0  0  0  0  0  0
   25.4014  -19.2496  -13.1364 N   0  0  0  0  0  0  0  0  0  0  0  0
   26.0185  -21.0353  -11.6455 C   0  0  0  0  0  0  0  0  0  0  0  0
   26.2884  -22.2235  -11.3724 O   0  0  0  0  0  0  0  0  0  0  0  0
   28.1406  -18.9128   -6.4918 C   0  0  0  0  0  0  0  0  0  0  0  0
   27.2661  -19.9561   -7.1429 C   0  0  1  0  0  0  0  0  0  0  0  0
   26.0638  -20.1060   -6.1734 C   0  0  0  0  0  0  0  0  0  0  0  0
   26.7777  -19.5845   -8.4839 C   0  0  0  0  0  0  0  0  0  0  0  0
   25.8147  -20.4895   -9.1674 C   0  0  2  0  0  0  0  0  0  0  0  0
   25.7813  -20.1147  -10.6007 N   0  0  0  0  0  0  0  0  0  0  0  0
   24.4323  -20.4799   -8.6439 C   0  0  0  0  0  0  0  0  0  0  0  0
   23.8164  -19.3575   -8.6603 O   0  0  0  0  0  0  0  0  0  0  0  0
   21.3427  -21.1753   -9.9169 C   0  0  0  0  0  0  0  0  0  0  0  0
   21.3230  -21.9812   -8.6299 C   0  0  1  0  0  0  0  0  0  0  0  0
   21.5041  -23.3214   -8.9519 O   0  0  0  0  0  0  0  0  0  0  0  0
   22.3421  -21.4715   -7.6429 C   0  0  2  0  0  0  0  0  0  0  0  0
   23.7079  -21.5588   -8.1312 N   0  0  0  0  0  0  0  0  0  0  0  0
   22.1554  -22.0905   -6.3133 C   0  0  0  0  0  0  0  0  0  0  0  0
   20.9773  -21.9705   -5.6275 O   0  0  0  0  0  0  0  0  0  0  0  0
   23.1005  -22.7383   -5.8116 O   0  0  0  0  0  0  0  0  0  0  0  0
  2  1  1  1
  2  3  1  0
  4  2  1  0
  4  6  1  0
  4  5  1  1
  6  7  2  0
  6 13  1  0
  9  8  1  1
  9 11  1  0
  9 10  1  0
 12 11  1  1
 13 12  1  0
 14 12  1  0
 14 20  1  0
 15 14  2  0
 17 16  1  6
 18 17  1  0
 19 20  1  6
 19 17  1  0
 19 21  1  0
 21 22  1  0
 23 21  2  0
M  END
$$$$
