VLT.pdb
     RDKit          3D

 23 22  0  0  1  0  0  0  0  0999 V2000
   21.1893  -14.1280  -17.0449 C   0  0  0  0  0  0  0  0  0  0  0  0
   19.7162  -14.0192  -17.2501 C   0  0  2  0  0  0  0  0  0  0  0  0
   19.3457  -14.8167  -18.4896 C   0  0  0  0  0  0  0  0  0  0  0  0
   19.2367  -12.6151  -17.4534 C   0  0  2  0  0  0  0  0  0  0  0  0
   19.5805  -12.1437  -18.7751 N   0  0  0  0  0  0  0  0  0  0  0  0
   19.6759  -11.6769  -16.4159 C   0  0  0  0  0  0  0  0  0  0  0  0
   19.3973  -11.8767  -15.2152 O   0  0  0  0  0  0  0  0  0  0  0  0
   24.5658  -10.0981  -14.9955 C   0  0  0  0  0  0  0  0  0  0  0  0
   23.0866  -10.3890  -15.0628 C   0  0  1  0  0  0  0  0  0  0  0  0
   22.6273  -10.3786  -13.5806 C   0  0  0  0  0  0  0  0  0  0  0  0
   22.3094   -9.3972  -15.8291 C   0  0  0  0  0  0  0  0  0  0  0  0
   20.8245   -9.4872  -15.8105 C   0  0  2  0  0  0  0  0  0  0  0  0
   20.4228  -10.5343  -16.7792 N   0  0  0  0  0  0  0  0  0  0  0  0
   20.0953   -8.2419  -16.1310 C   0  0  0  0  0  0  0  0  0  0  0  0
   20.1259   -7.8524  -17.3503 O   0  0  0  0  0  0  0  0  0  0  0  0
   16.6140   -4.8165  -15.5392 C   0  0  0  0  0  0  0  0  0  0  0  0
   17.3291   -6.0512  -15.0194 C   0  0  1  0  0  0  0  0  0  0  0  0
   16.5081   -7.1527  -15.2324 O   0  0  0  0  0  0  0  0  0  0  0  0
   18.6920   -6.2051  -15.6449 C   0  0  2  0  0  0  0  0  0  0  0  0
   19.3668   -7.4320  -15.2565 N   0  0  0  0  0  0  0  0  0  0  0  0
   19.5150   -4.9942  -15.4390 C   0  0  0  0  0  0  0  0  0  0  0  0
   19.5090   -3.9637  -16.3392 O   0  0  0  0  0  0  0  0  0  0  0  0
   20.2293   -4.9176  -14.4150 O   0  0  0  0  0  0  0  0  0  0  0  0
  2  1  1  6
  2  3  1  0
  4  2  1  0
  4  6  1  0
  4  5  1  6
  6  7  2  0
  6 13  1  0
  9  8  1  1
  9 11  1  0
  9 10  1  0
 12 11  1  6
 13 12  1  0
 14 12  1  0
 14 20  1  0
 15 14  2  0
 17 16  1  6
 18 17  1  0
 19 20  1  1
 19 17  1  0
 19 21  1  0
 21 22  1  0
 23 21  2  0
M  END
$$$$
