VLT.pdb
     RDKit          3D

 23 22  0  0  1  0  0  0  0  0999 V2000
   25.2234  -16.3601  -16.7982 C   0  0  0  0  0  0  0  0  0  0  0  0
   26.3213  -16.2089  -15.8003 C   0  0  2  0  0  0  0  0  0  0  0  0
   27.1897  -15.0341  -16.2189 C   0  0  0  0  0  0  0  0  0  0  0  0
   27.2068  -17.4116  -15.6897 C   0  0  2  0  0  0  0  0  0  0  0  0
   27.8409  -17.6978  -16.9560 N   0  0  0  0  0  0  0  0  0  0  0  0
   26.5404  -18.5967  -15.1412 C   0  0  0  0  0  0  0  0  0  0  0  0
   26.2747  -19.5746  -15.8708 O   0  0  0  0  0  0  0  0  0  0  0  0
   25.9899  -22.2244  -11.0360 C   0  0  0  0  0  0  0  0  0  0  0  0
   25.4535  -20.8361  -10.7875 C   0  0  1  0  0  0  0  0  0  0  0  0
   25.8662  -20.5231   -9.3248 C   0  0  0  0  0  0  0  0  0  0  0  0
   26.0024  -19.8055  -11.6883 C   0  0  0  0  0  0  0  0  0  0  0  0
   25.5930  -19.8183  -13.1186 C   0  0  2  0  0  0  0  0  0  0  0  0
   26.1954  -18.6323  -13.7719 N   0  0  0  0  0  0  0  0  0  0  0  0
   24.1375  -19.8119  -13.3767 C   0  0  0  0  0  0  0  0  0  0  0  0
   23.5115  -18.7233  -13.1267 O   0  0  0  0  0  0  0  0  0  0  0  0
   20.0244  -21.4351  -15.6254 C   0  0  0  0  0  0  0  0  0  0  0  0
   21.5166  -21.5537  -15.3695 C   0  0  1  0  0  0  0  0  0  0  0  0
   22.1887  -21.1782  -16.5271 O   0  0  0  0  0  0  0  0  0  0  0  0
   21.9355  -20.7547  -14.1618 C   0  0  2  0  0  0  0  0  0  0  0  0
   23.3549  -20.8593  -13.8684 N   0  0  0  0  0  0  0  0  0  0  0  0
   21.0739  -21.0527  -12.9979 C   0  0  0  0  0  0  0  0  0  0  0  0
   19.9640  -20.3024  -12.7189 O   0  0  0  0  0  0  0  0  0  0  0  0
   21.3727  -22.0152  -12.2571 O   0  0  0  0  0  0  0  0  0  0  0  0
  2  1  1  6
  2  3  1  0
  4  2  1  0
  4  6  1  0
  4  5  1  6
  6  7  2  0
  6 13  1  0
  9  8  1  6
  9 11  1  0
  9 10  1  0
 12 11  1  1
 13 12  1  0
 14 12  1  0
 14 20  1  0
 15 14  2  0
 17 16  1  6
 18 17  1  0
 19 20  1  1
 19 17  1  0
 19 21  1  0
 21 22  1  0
 23 21  2  0
M  END
$$$$
