ENW.pdb
     RDKit          3D

 32 33  0  0  1  0  0  0  0  0999 V2000
   28.8806  -21.4898  -16.7052 N   0  0  0  0  0  0  0  0  0  0  0  0
   28.3921  -20.2872  -16.0571 C   0  0  1  0  0  0  0  0  0  0  0  0
   27.8330  -19.3435  -17.1102 C   0  0  0  0  0  0  0  0  0  0  0  0
   29.0254  -18.8416  -17.9346 C   0  0  0  0  0  0  0  0  0  0  0  0
   28.9692  -19.3532  -19.3062 C   0  0  0  0  0  0  0  0  0  0  0  0
   29.8241  -19.0230  -20.1404 O   0  0  0  0  0  0  0  0  0  0  0  0
   27.2968  -20.6806  -15.1068 C   0  0  0  0  0  0  0  0  0  0  0  0
   26.3734  -21.4497  -15.4830 O   0  0  0  0  0  0  0  0  0  0  0  0
   27.9519  -20.2336  -19.7097 O   0  0  0  0  0  0  0  0  0  0  0  0
   24.8094  -21.5925  -10.4804 N   0  0  0  0  0  0  0  0  0  0  0  0
   25.8585  -20.6043  -10.3764 C   0  0  0  0  0  0  0  0  0  0  0  0
   26.1842  -20.2977   -9.2130 O   0  0  0  0  0  0  0  0  0  0  0  0
   26.4592  -20.0397  -11.5604 C   0  0  0  0  0  0  0  0  0  0  0  0
   26.0655  -20.5308  -12.9159 C   0  0  2  0  0  0  0  0  0  0  0  0
   27.2407  -20.2213  -13.7774 N   0  0  0  0  0  0  0  0  0  0  0  0
   24.8697  -19.9367  -13.5080 C   0  0  0  0  0  0  0  0  0  0  0  0
   24.9161  -18.7964  -14.1036 O   0  0  0  0  0  0  0  0  0  0  0  0
   23.6067  -20.5365  -13.4937 N   0  0  0  0  0  0  0  0  0  0  0  0
   22.3972  -19.9771  -14.1129 C   0  0  1  0  0  0  0  0  0  0  0  0
   22.6887  -19.4718  -15.4735 C   0  0  0  0  0  0  0  0  0  0  0  0
   21.5152  -18.8773  -16.1216 C   0  0  0  0  0  0  0  0  0  0  0  0
   20.9638  -17.6219  -15.8237 C   0  0  0  0  0  0  0  0  0  0  0  0
   19.8738  -17.4163  -16.5776 N   0  0  0  0  0  0  0  0  0  0  0  0
   19.6526  -18.4659  -17.3728 C   0  0  0  0  0  0  0  0  0  0  0  0
   18.6797  -18.7221  -18.3249 C   0  0  0  0  0  0  0  0  0  0  0  0
   18.7126  -19.9095  -19.0210 C   0  0  0  0  0  0  0  0  0  0  0  0
   19.7117  -20.8172  -18.7549 C   0  0  0  0  0  0  0  0  0  0  0  0
   20.6846  -20.5629  -17.8032 C   0  0  0  0  0  0  0  0  0  0  0  0
   20.6551  -19.3749  -17.1036 C   0  0  0  0  0  0  0  0  0  0  0  0
   21.2696  -20.8539  -13.9820 C   0  0  0  0  0  0  0  0  0  0  0  0
   19.9558  -20.4662  -13.8645 O   0  0  0  0  0  0  0  0  0  0  0  0
   21.4618  -22.1221  -13.9621 O   0  0  0  0  0  0  0  0  0  0  0  0
  2  1  1  6
  2  3  1  0
  3  4  1  0
  4  5  1  0
  5  9  1  0
  6  5  2  0
  7  2  1  0
  8  7  2  0
 10 11  1  0
 11 12  2  0
 13 11  1  0
 14 13  1  1
 14 15  1  0
 15  7  1  0
 16 18  1  0
 16 14  1  0
 17 16  2  0
 19 18  1  0
 19 20  1  6
 20 21  1  0
 21 29  1  0
 21 22  2  0
 22 23  1  0
 24 23  1  0
 24 25  2  0
 26 25  1  0
 27 26  2  0
 28 29  2  0
 28 27  1  0
 29 24  1  0
 30 31  1  0
 30 19  1  0
 32 30  2  0
M  END
$$$$
