ENW.pdb
     RDKit          3D

 32 33  0  0  1  0  0  0  0  0999 V2000
   27.7382  -22.7263  -18.3147 N   0  0  0  0  0  0  0  0  0  0  0  0
   28.7888  -22.9242  -17.3337 C   0  0  1  0  0  0  0  0  0  0  0  0
   30.1337  -22.6142  -17.9720 C   0  0  0  0  0  0  0  0  0  0  0  0
   29.8434  -21.8533  -19.2721 C   0  0  0  0  0  0  0  0  0  0  0  0
   30.7088  -22.3190  -20.3586 C   0  0  0  0  0  0  0  0  0  0  0  0
   31.6013  -21.5896  -20.8137 O   0  0  0  0  0  0  0  0  0  0  0  0
   28.5471  -21.9771  -16.1927 C   0  0  0  0  0  0  0  0  0  0  0  0
   29.3370  -21.9465  -15.2126 O   0  0  0  0  0  0  0  0  0  0  0  0
   30.5548  -23.6026  -20.9076 O   0  0  0  0  0  0  0  0  0  0  0  0
   27.7541  -17.6906  -17.6704 N   0  0  0  0  0  0  0  0  0  0  0  0
   27.8800  -18.0490  -16.2762 C   0  0  0  0  0  0  0  0  0  0  0  0
   28.8926  -17.6016  -15.7034 O   0  0  0  0  0  0  0  0  0  0  0  0
   26.8814  -18.8674  -15.6325 C   0  0  0  0  0  0  0  0  0  0  0  0
   27.2611  -20.1688  -15.0032 C   0  0  2  0  0  0  0  0  0  0  0  0
   27.4507  -21.0951  -16.1543 N   0  0  0  0  0  0  0  0  0  0  0  0
   26.2989  -20.7540  -14.0730 C   0  0  0  0  0  0  0  0  0  0  0  0
   25.1237  -21.1066  -14.4625 O   0  0  0  0  0  0  0  0  0  0  0  0
   26.5597  -20.9886  -12.7194 N   0  0  0  0  0  0  0  0  0  0  0  0
   25.5988  -21.5437  -11.7562 C   0  0  1  0  0  0  0  0  0  0  0  0
   26.2966  -22.0711  -10.5619 C   0  0  0  0  0  0  0  0  0  0  0  0
   26.6232  -21.0251   -9.5873 C   0  0  0  0  0  0  0  0  0  0  0  0
   25.8423  -19.8931   -9.3090 C   0  0  0  0  0  0  0  0  0  0  0  0
   26.4617  -19.1296   -8.3968 N   0  0  0  0  0  0  0  0  0  0  0  0
   27.6241  -19.6810   -8.0395 C   0  0  0  0  0  0  0  0  0  0  0  0
   28.5998  -19.2906   -7.1372 C   0  0  0  0  0  0  0  0  0  0  0  0
   29.7092  -20.0857   -6.9567 C   0  0  0  0  0  0  0  0  0  0  0  0
   29.8252  -21.2516   -7.6778 C   0  0  0  0  0  0  0  0  0  0  0  0
   28.8511  -21.6431   -8.5806 C   0  0  0  0  0  0  0  0  0  0  0  0
   27.7384  -20.8494   -8.7645 C   0  0  0  0  0  0  0  0  0  0  0  0
   24.5002  -20.6532  -11.5165 C   0  0  0  0  0  0  0  0  0  0  0  0
   23.2099  -21.0252  -11.2218 O   0  0  0  0  0  0  0  0  0  0  0  0
   24.6957  -19.3869  -11.5794 O   0  0  0  0  0  0  0  0  0  0  0  0
  2  1  1  6
  2  3  1  0
  3  4  1  0
  4  5  1  0
  5  9  1  0
  6  5  2  0
  7  2  1  0
  8  7  2  0
 10 11  1  0
 11 12  2  0
 13 11  1  0
 14 13  1  6
 14 15  1  0
 15  7  1  0
 16 18  1  0
 16 14  1  0
 17 16  2  0
 19 18  1  0
 19 20  1  1
 20 21  1  0
 21 29  1  0
 21 22  2  0
 22 23  1  0
 24 23  1  0
 24 25  2  0
 26 25  1  0
 27 26  2  0
 28 29  2  0
 28 27  1  0
 29 24  1  0
 30 31  1  0
 30 19  1  0
 32 30  2  0
M  END
$$$$
