ENW.pdb
     RDKit          3D

 32 33  0  0  1  0  0  0  0  0999 V2000
   22.6364  -38.2637   -7.1154 N   0  0  0  0  0  0  0  0  0  0  0  0
   22.7106  -37.2540   -8.1547 C   0  0  1  0  0  0  0  0  0  0  0  0
   21.8315  -37.6731   -9.3226 C   0  0  0  0  0  0  0  0  0  0  0  0
   22.6827  -38.5871  -10.2134 C   0  0  0  0  0  0  0  0  0  0  0  0
   23.4840  -37.8039  -11.1573 C   0  0  0  0  0  0  0  0  0  0  0  0
   23.0277  -37.4888  -12.2655 O   0  0  0  0  0  0  0  0  0  0  0  0
   22.2021  -35.9597   -7.5859 C   0  0  0  0  0  0  0  0  0  0  0  0
   21.1235  -35.9298   -6.9367 O   0  0  0  0  0  0  0  0  0  0  0  0
   24.7842  -37.3853  -10.8302 O   0  0  0  0  0  0  0  0  0  0  0  0
   23.6624  -33.8731   -4.6787 N   0  0  0  0  0  0  0  0  0  0  0  0
   24.1505  -32.8778   -5.6057 C   0  0  0  0  0  0  0  0  0  0  0  0
   25.1770  -32.2723   -5.2410 O   0  0  0  0  0  0  0  0  0  0  0  0
   23.4681  -32.6353   -6.8535 C   0  0  0  0  0  0  0  0  0  0  0  0
   22.2896  -33.4668   -7.2450 C   0  0  2  0  0  0  0  0  0  0  0  0
   22.8834  -34.7383   -7.7448 N   0  0  0  0  0  0  0  0  0  0  0  0
   21.4086  -32.9154   -8.2714 C   0  0  0  0  0  0  0  0  0  0  0  0
   21.6967  -33.0153   -9.5220 O   0  0  0  0  0  0  0  0  0  0  0  0
   20.2040  -32.2589   -8.0008 N   0  0  0  0  0  0  0  0  0  0  0  0
   19.2079  -31.8689   -9.0082 C   0  0  1  0  0  0  0  0  0  0  0  0
   18.9638  -32.9747   -9.9618 C   0  0  0  0  0  0  0  0  0  0  0  0
   18.0146  -32.6128  -11.0195 C   0  0  0  0  0  0  0  0  0  0  0  0
   18.2815  -31.7620  -12.1028 C   0  0  0  0  0  0  0  0  0  0  0  0
   17.1766  -31.6206  -12.8497 N   0  0  0  0  0  0  0  0  0  0  0  0
   16.1704  -32.3294  -12.3319 C   0  0  0  0  0  0  0  0  0  0  0  0
   14.8592  -32.5158  -12.7379 C   0  0  0  0  0  0  0  0  0  0  0  0
   14.0348  -33.3364  -12.0013 C   0  0  0  0  0  0  0  0  0  0  0  0
   14.5314  -33.9532  -10.8762 C   0  0  0  0  0  0  0  0  0  0  0  0
   15.8415  -33.7675  -10.4687 C   0  0  0  0  0  0  0  0  0  0  0  0
   16.6705  -32.9463  -11.2036 C   0  0  0  0  0  0  0  0  0  0  0  0
   18.0496  -31.2651   -8.4157 C   0  0  0  0  0  0  0  0  0  0  0  0
   17.3284  -30.2185   -8.9397 O   0  0  0  0  0  0  0  0  0  0  0  0
   17.6184  -31.7082   -7.2917 O   0  0  0  0  0  0  0  0  0  0  0  0
  2  1  1  1
  2  3  1  0
  3  4  1  0
  4  5  1  0
  5  9  1  0
  6  5  2  0
  7  2  1  0
  8  7  2  0
 10 11  1  0
 11 12  2  0
 13 11  1  0
 14 13  1  6
 14 15  1  0
 15  7  1  0
 16 18  1  0
 16 14  1  0
 17 16  2  0
 19 18  1  0
 19 20  1  1
 20 21  1  0
 21 29  1  0
 21 22  2  0
 22 23  1  0
 24 23  1  0
 24 25  2  0
 26 25  1  0
 27 26  2  0
 28 29  2  0
 28 27  1  0
 29 24  1  0
 30 31  1  0
 30 19  1  0
 32 30  2  0
M  END
$$$$
