ENW.pdb
     RDKit          3D

 32 33  0  0  1  0  0  0  0  0999 V2000
   28.2246  -17.0927  -15.2484 N   0  0  0  0  0  0  0  0  0  0  0  0
   27.2181  -17.3675  -14.2403 C   0  0  1  0  0  0  0  0  0  0  0  0
   26.0312  -16.4411  -14.4532 C   0  0  0  0  0  0  0  0  0  0  0  0
   26.3249  -15.6270  -15.7198 C   0  0  0  0  0  0  0  0  0  0  0  0
   25.8394  -16.3207  -16.9154 C   0  0  0  0  0  0  0  0  0  0  0  0
   24.7274  -16.8676  -16.9219 O   0  0  0  0  0  0  0  0  0  0  0  0
   26.7736  -18.7937  -14.4004 C   0  0  0  0  0  0  0  0  0  0  0  0
   26.7953  -19.3440  -15.5328 O   0  0  0  0  0  0  0  0  0  0  0  0
   26.6160  -16.3792  -18.0843 O   0  0  0  0  0  0  0  0  0  0  0  0
   29.3742  -21.5648  -15.4718 N   0  0  0  0  0  0  0  0  0  0  0  0
   27.9655  -21.6255  -15.1557 C   0  0  0  0  0  0  0  0  0  0  0  0
   27.2067  -21.7435  -16.1375 O   0  0  0  0  0  0  0  0  0  0  0  0
   27.5133  -21.5522  -13.7877 C   0  0  0  0  0  0  0  0  0  0  0  0
   26.1431  -21.0467  -13.4702 C   0  0  2  0  0  0  0  0  0  0  0  0
   26.3169  -19.5746  -13.3220 N   0  0  0  0  0  0  0  0  0  0  0  0
   25.5105  -21.5765  -12.2649 C   0  0  0  0  0  0  0  0  0  0  0  0
   25.5579  -22.8316  -11.9830 O   0  0  0  0  0  0  0  0  0  0  0  0
   24.8265  -20.7939  -11.3295 N   0  0  0  0  0  0  0  0  0  0  0  0
   24.8994  -20.9609   -9.8715 C   0  0  1  0  0  0  0  0  0  0  0  0
   26.2061  -20.4960   -9.3537 C   0  0  0  0  0  0  0  0  0  0  0  0
   26.3242  -20.6409   -7.8992 C   0  0  0  0  0  0  0  0  0  0  0  0
   25.4173  -21.3151   -7.0675 C   0  0  0  0  0  0  0  0  0  0  0  0
   25.8142  -21.2144   -5.7903 N   0  0  0  0  0  0  0  0  0  0  0  0
   26.9431  -20.5062   -5.7076 C   0  0  0  0  0  0  0  0  0  0  0  0
   27.7378  -20.1458   -4.6318 C   0  0  0  0  0  0  0  0  0  0  0  0
   28.8815  -19.4122   -4.8534 C   0  0  0  0  0  0  0  0  0  0  0  0
   29.2103  -19.0517   -6.1398 C   0  0  0  0  0  0  0  0  0  0  0  0
   28.4168  -19.4106   -7.2162 C   0  0  0  0  0  0  0  0  0  0  0  0
   27.2702  -20.1453   -6.9986 C   0  0  0  0  0  0  0  0  0  0  0  0
   23.7308  -20.4545   -9.2116 C   0  0  0  0  0  0  0  0  0  0  0  0
   23.0568  -21.0672   -8.1819 O   0  0  0  0  0  0  0  0  0  0  0  0
   23.2339  -19.3342   -9.5907 O   0  0  0  0  0  0  0  0  0  0  0  0
  2  1  1  6
  2  3  1  0
  3  4  1  0
  4  5  1  0
  5  9  1  0
  6  5  2  0
  7  2  1  0
  8  7  2  0
 10 11  1  0
 11 12  2  0
 13 11  1  0
 14 13  1  1
 14 15  1  0
 15  7  1  0
 16 18  1  0
 16 14  1  0
 17 16  2  0
 19 18  1  0
 19 20  1  1
 20 21  1  0
 21 29  1  0
 21 22  2  0
 22 23  1  0
 24 23  1  0
 24 25  2  0
 26 25  1  0
 27 26  2  0
 28 29  2  0
 28 27  1  0
 29 24  1  0
 30 31  1  0
 30 19  1  0
 32 30  2  0
M  END
$$$$
