ENW.pdb
     RDKit          3D

 32 33  0  0  1  0  0  0  0  0999 V2000
   28.3221  -22.7859  -16.7411 N   0  0  0  0  0  0  0  0  0  0  0  0
   29.1953  -21.6314  -16.8391 C   0  0  1  0  0  0  0  0  0  0  0  0
   28.9348  -20.9177  -18.1563 C   0  0  0  0  0  0  0  0  0  0  0  0
   27.4124  -20.7967  -18.3022 C   0  0  0  0  0  0  0  0  0  0  0  0
   26.9018  -21.7473  -19.2931 C   0  0  0  0  0  0  0  0  0  0  0  0
   27.1129  -21.5758  -20.5021 O   0  0  0  0  0  0  0  0  0  0  0  0
   28.8770  -20.7067  -15.6985 C   0  0  0  0  0  0  0  0  0  0  0  0
   29.3526  -19.5410  -15.6722 O   0  0  0  0  0  0  0  0  0  0  0  0
   26.1670  -22.8781  -18.9004 O   0  0  0  0  0  0  0  0  0  0  0  0
   26.8695  -16.7116  -13.3122 N   0  0  0  0  0  0  0  0  0  0  0  0
   26.2482  -17.9611  -13.6876 C   0  0  0  0  0  0  0  0  0  0  0  0
   25.0440  -18.0664  -13.3839 O   0  0  0  0  0  0  0  0  0  0  0  0
   27.0045  -18.9860  -14.3651 C   0  0  0  0  0  0  0  0  0  0  0  0
   27.6520  -20.0863  -13.5882 C   0  0  2  0  0  0  0  0  0  0  0  0
   28.0529  -21.0823  -14.6209 N   0  0  0  0  0  0  0  0  0  0  0  0
   26.8303  -20.7494  -12.5790 C   0  0  0  0  0  0  0  0  0  0  0  0
   25.9060  -21.5811  -12.9122 O   0  0  0  0  0  0  0  0  0  0  0  0
   26.9737  -20.5577  -11.2013 N   0  0  0  0  0  0  0  0  0  0  0  0
   26.2834  -21.3346  -10.1624 C   0  0  1  0  0  0  0  0  0  0  0  0
   27.2097  -21.6775   -9.0597 C   0  0  0  0  0  0  0  0  0  0  0  0
   27.3499  -20.5959   -8.0793 C   0  0  0  0  0  0  0  0  0  0  0  0
   26.7204  -19.3437   -8.1464 C   0  0  0  0  0  0  0  0  0  0  0  0
   27.1056  -18.5877   -7.1078 N   0  0  0  0  0  0  0  0  0  0  0  0
   27.9653  -19.2582   -6.3369 C   0  0  0  0  0  0  0  0  0  0  0  0
   28.6213  -18.9205   -5.1646 C   0  0  0  0  0  0  0  0  0  0  0  0
   29.4523  -19.8412   -4.5670 C   0  0  0  0  0  0  0  0  0  0  0  0
   29.6141  -21.0777   -5.1482 C   0  0  0  0  0  0  0  0  0  0  0  0
   28.9596  -21.4167   -6.3203 C   0  0  0  0  0  0  0  0  0  0  0  0
   28.1264  -20.4972   -6.9222 C   0  0  0  0  0  0  0  0  0  0  0  0
   25.0318  -20.7423   -9.7884 C   0  0  0  0  0  0  0  0  0  0  0  0
   24.0494  -21.3406   -9.0355 O   0  0  0  0  0  0  0  0  0  0  0  0
   24.7630  -19.5495  -10.1765 O   0  0  0  0  0  0  0  0  0  0  0  0
  2  1  1  1
  2  3  1  0
  3  4  1  0
  4  5  1  0
  5  9  1  0
  6  5  2  0
  7  2  1  0
  8  7  2  0
 10 11  1  0
 11 12  2  0
 13 11  1  0
 14 13  1  6
 14 15  1  0
 15  7  1  0
 16 18  1  0
 16 14  1  0
 17 16  2  0
 19 18  1  0
 19 20  1  1
 20 21  1  0
 21 29  1  0
 21 22  2  0
 22 23  1  0
 24 23  1  0
 24 25  2  0
 26 25  1  0
 27 26  2  0
 28 29  2  0
 28 27  1  0
 29 24  1  0
 30 31  1  0
 30 19  1  0
 32 30  2  0
M  END
$$$$
