ENW.pdb
     RDKit          3D

 32 33  0  0  1  0  0  0  0  0999 V2000
   27.6289  -17.2650  -16.6782 N   0  0  0  0  0  0  0  0  0  0  0  0
   27.2384  -18.4970  -16.0189 C   0  0  1  0  0  0  0  0  0  0  0  0
   28.0745  -18.6781  -14.7617 C   0  0  0  0  0  0  0  0  0  0  0  0
   29.4274  -19.2484  -15.2066 C   0  0  0  0  0  0  0  0  0  0  0  0
   29.2476  -20.4411  -16.0382 C   0  0  0  0  0  0  0  0  0  0  0  0
   29.1031  -20.3414  -17.2648 O   0  0  0  0  0  0  0  0  0  0  0  0
   25.7881  -18.3861  -15.6426 C   0  0  0  0  0  0  0  0  0  0  0  0
   25.3762  -17.3981  -14.9793 O   0  0  0  0  0  0  0  0  0  0  0  0
   29.2403  -21.7257  -15.4701 O   0  0  0  0  0  0  0  0  0  0  0  0
   22.8890  -17.1133  -17.6219 N   0  0  0  0  0  0  0  0  0  0  0  0
   22.4249  -18.4628  -17.8489 C   0  0  0  0  0  0  0  0  0  0  0  0
   21.8413  -18.6468  -18.9348 O   0  0  0  0  0  0  0  0  0  0  0  0
   22.6434  -19.4930  -16.8629 C   0  0  0  0  0  0  0  0  0  0  0  0
   23.4035  -19.1932  -15.6115 C   0  0  2  0  0  0  0  0  0  0  0  0
   24.8327  -19.3566  -15.9985 N   0  0  0  0  0  0  0  0  0  0  0  0
   23.1226  -20.0386  -14.4539 C   0  0  0  0  0  0  0  0  0  0  0  0
   21.9152  -20.2591  -14.0659 O   0  0  0  0  0  0  0  0  0  0  0  0
   24.1062  -20.6756  -13.6910 N   0  0  0  0  0  0  0  0  0  0  0  0
   23.8486  -21.5562  -12.5432 C   0  0  1  0  0  0  0  0  0  0  0  0
   25.1156  -22.0941  -11.9984 C   0  0  0  0  0  0  0  0  0  0  0  0
   25.5920  -21.3492  -10.8285 C   0  0  0  0  0  0  0  0  0  0  0  0
   24.7801  -20.7209   -9.8720 C   0  0  0  0  0  0  0  0  0  0  0  0
   25.5481  -20.0993   -8.9651 N   0  0  0  0  0  0  0  0  0  0  0  0
   26.8406  -20.2698   -9.2537 C   0  0  0  0  0  0  0  0  0  0  0  0
   27.9980  -19.8439   -8.6230 C   0  0  0  0  0  0  0  0  0  0  0  0
   29.2212  -20.1949   -9.1484 C   0  0  0  0  0  0  0  0  0  0  0  0
   29.2675  -20.9610  -10.2903 C   0  0  0  0  0  0  0  0  0  0  0  0
   28.1116  -21.3871  -10.9223 C   0  0  0  0  0  0  0  0  0  0  0  0
   26.8844  -21.0376  -10.3993 C   0  0  0  0  0  0  0  0  0  0  0  0
   22.9454  -20.9626  -11.6001 C   0  0  0  0  0  0  0  0  0  0  0  0
   22.8634  -19.6248  -11.2940 O   0  0  0  0  0  0  0  0  0  0  0  0
   22.1277  -21.7142  -10.9582 O   0  0  0  0  0  0  0  0  0  0  0  0
  2  1  1  1
  2  3  1  0
  3  4  1  0
  4  5  1  0
  5  9  1  0
  6  5  2  0
  7  2  1  0
  8  7  2  0
 10 11  1  0
 11 12  2  0
 13 11  1  0
 14 13  1  6
 14 15  1  0
 15  7  1  0
 16 18  1  0
 16 14  1  0
 17 16  2  0
 19 18  1  0
 19 20  1  1
 20 21  1  0
 21 29  1  0
 21 22  2  0
 22 23  1  0
 24 23  1  0
 24 25  2  0
 26 25  1  0
 27 26  2  0
 28 29  2  0
 28 27  1  0
 29 24  1  0
 30 31  1  0
 30 19  1  0
 32 30  2  0
M  END
$$$$
