ENW.pdb
     RDKit          3D

 32 33  0  0  1  0  0  0  0  0999 V2000
   21.9714  -19.4425  -17.0742 N   0  0  0  0  0  0  0  0  0  0  0  0
   23.2656  -19.0946  -16.5184 C   0  0  1  0  0  0  0  0  0  0  0  0
   23.0770  -18.0552  -15.4246 C   0  0  0  0  0  0  0  0  0  0  0  0
   21.5939  -17.6631  -15.4357 C   0  0  0  0  0  0  0  0  0  0  0  0
   21.3917  -16.3894  -16.1308 C   0  0  0  0  0  0  0  0  0  0  0  0
   22.0790  -15.3979  -15.8477 O   0  0  0  0  0  0  0  0  0  0  0  0
   23.8699  -20.3370  -15.9280 C   0  0  0  0  0  0  0  0  0  0  0  0
   23.1788  -21.3819  -15.7995 O   0  0  0  0  0  0  0  0  0  0  0  0
   20.4208  -16.2599  -17.1375 O   0  0  0  0  0  0  0  0  0  0  0  0
   26.9914  -24.2980  -14.9865 N   0  0  0  0  0  0  0  0  0  0  0  0
   27.6901  -23.1486  -15.5145 C   0  0  0  0  0  0  0  0  0  0  0  0
   28.8338  -23.3791  -15.9531 O   0  0  0  0  0  0  0  0  0  0  0  0
   27.0705  -21.8457  -15.5152 C   0  0  0  0  0  0  0  0  0  0  0  0
   25.7422  -21.6396  -14.8619 C   0  0  2  0  0  0  0  0  0  0  0  0
   25.2073  -20.4011  -15.4937 N   0  0  0  0  0  0  0  0  0  0  0  0
   25.7426  -21.4734  -13.4108 C   0  0  0  0  0  0  0  0  0  0  0  0
   26.8304  -21.5666  -12.7287 O   0  0  0  0  0  0  0  0  0  0  0  0
   24.6008  -21.1956  -12.6529 N   0  0  0  0  0  0  0  0  0  0  0  0
   24.5788  -20.9987  -11.1969 C   0  0  1  0  0  0  0  0  0  0  0  0
   25.4966  -19.9071  -10.8000 C   0  0  0  0  0  0  0  0  0  0  0  0
   26.7333  -20.4007  -10.1855 C   0  0  0  0  0  0  0  0  0  0  0  0
   27.6953  -21.2054  -10.8147 C   0  0  0  0  0  0  0  0  0  0  0  0
   28.6737  -21.5026   -9.9469 N   0  0  0  0  0  0  0  0  0  0  0  0
   28.4287  -20.9440   -8.7592 C   0  0  0  0  0  0  0  0  0  0  0  0
   29.1348  -20.9459   -7.5675 C   0  0  0  0  0  0  0  0  0  0  0  0
   28.6386  -20.2507   -6.4878 C   0  0  0  0  0  0  0  0  0  0  0  0
   27.4504  -19.5690   -6.6156 C   0  0  0  0  0  0  0  0  0  0  0  0
   26.7430  -19.5664   -7.8059 C   0  0  0  0  0  0  0  0  0  0  0  0
   27.2365  -20.2617   -8.8897 C   0  0  0  0  0  0  0  0  0  0  0  0
   23.2418  -20.9320  -10.6819 C   0  0  0  0  0  0  0  0  0  0  0  0
   22.8929  -20.7791   -9.3610 O   0  0  0  0  0  0  0  0  0  0  0  0
   22.2529  -21.0258  -11.4938 O   0  0  0  0  0  0  0  0  0  0  0  0
  2  1  1  1
  2  3  1  0
  3  4  1  0
  4  5  1  0
  5  9  1  0
  6  5  2  0
  7  2  1  0
  8  7  2  0
 10 11  1  0
 11 12  2  0
 13 11  1  0
 14 13  1  6
 14 15  1  0
 15  7  1  0
 16 18  1  0
 16 14  1  0
 17 16  2  0
 19 18  1  0
 19 20  1  6
 20 21  1  0
 21 29  1  0
 21 22  2  0
 22 23  1  0
 24 23  1  0
 24 25  2  0
 26 25  1  0
 27 26  2  0
 28 29  2  0
 28 27  1  0
 29 24  1  0
 30 31  1  0
 30 19  1  0
 32 30  2  0
M  END
$$$$
