ENW.pdb
     RDKit          3D

 32 33  0  0  1  0  0  0  0  0999 V2000
   23.1604  -19.6865  -16.5541 N   0  0  0  0  0  0  0  0  0  0  0  0
   24.0697  -19.4504  -15.4484 C   0  0  1  0  0  0  0  0  0  0  0  0
   23.5722  -18.2651  -14.6361 C   0  0  0  0  0  0  0  0  0  0  0  0
   23.4397  -17.0852  -15.6076 C   0  0  0  0  0  0  0  0  0  0  0  0
   24.7526  -16.5233  -15.9347 C   0  0  0  0  0  0  0  0  0  0  0  0
   25.3044  -15.7182  -15.1712 O   0  0  0  0  0  0  0  0  0  0  0  0
   24.0825  -20.6788  -14.5835 C   0  0  0  0  0  0  0  0  0  0  0  0
   23.4328  -21.7029  -14.9226 O   0  0  0  0  0  0  0  0  0  0  0  0
   25.4215  -16.8854  -17.1155 O   0  0  0  0  0  0  0  0  0  0  0  0
   27.9910  -20.5086  -13.3254 N   0  0  0  0  0  0  0  0  0  0  0  0
   27.6750  -21.6018  -14.2160 C   0  0  0  0  0  0  0  0  0  0  0  0
   28.5556  -21.8729  -15.0554 O   0  0  0  0  0  0  0  0  0  0  0  0
   26.4188  -22.3027  -14.1059 C   0  0  0  0  0  0  0  0  0  0  0  0
   25.4870  -22.0115  -12.9742 C   0  0  2  0  0  0  0  0  0  0  0  0
   24.8004  -20.7518  -13.3749 N   0  0  0  0  0  0  0  0  0  0  0  0
   26.0907  -21.8281  -11.6569 C   0  0  0  0  0  0  0  0  0  0  0  0
   26.7466  -22.7769  -11.0854 O   0  0  0  0  0  0  0  0  0  0  0  0
   26.0244  -20.6400  -10.9224 N   0  0  0  0  0  0  0  0  0  0  0  0
   25.5426  -20.5261   -9.5389 C   0  0  1  0  0  0  0  0  0  0  0  0
   26.2546  -19.4444   -8.8216 C   0  0  0  0  0  0  0  0  0  0  0  0
   27.4922  -19.9052   -8.1838 C   0  0  0  0  0  0  0  0  0  0  0  0
   28.4918  -20.6751   -8.7978 C   0  0  0  0  0  0  0  0  0  0  0  0
   29.4597  -20.9496   -7.9109 N   0  0  0  0  0  0  0  0  0  0  0  0
   29.1719  -20.4085   -6.7246 C   0  0  0  0  0  0  0  0  0  0  0  0
   29.8516  -20.3989   -5.5178 C   0  0  0  0  0  0  0  0  0  0  0  0
   29.3110  -19.7280   -4.4440 C   0  0  0  0  0  0  0  0  0  0  0  0
   28.1056  -19.0817   -4.5928 C   0  0  0  0  0  0  0  0  0  0  0  0
   27.4245  -19.0908   -5.7983 C   0  0  0  0  0  0  0  0  0  0  0  0
   27.9626  -19.7618   -6.8762 C   0  0  0  0  0  0  0  0  0  0  0  0
   24.1102  -20.5096   -9.4664 C   0  0  0  0  0  0  0  0  0  0  0  0
   23.3448  -21.1114   -8.4959 O   0  0  0  0  0  0  0  0  0  0  0  0
   23.4446  -19.8933  -10.3736 O   0  0  0  0  0  0  0  0  0  0  0  0
  2  1  1  6
  2  3  1  0
  3  4  1  0
  4  5  1  0
  5  9  1  0
  6  5  2  0
  7  2  1  0
  8  7  2  0
 10 11  1  0
 11 12  2  0
 13 11  1  0
 14 13  1  6
 14 15  1  0
 15  7  1  0
 16 18  1  0
 16 14  1  0
 17 16  2  0
 19 18  1  0
 19 20  1  6
 20 21  1  0
 21 29  1  0
 21 22  2  0
 22 23  1  0
 24 23  1  0
 24 25  2  0
 26 25  1  0
 27 26  2  0
 28 29  2  0
 28 27  1  0
 29 24  1  0
 30 31  1  0
 30 19  1  0
 32 30  2  0
M  END
$$$$
