ENW.pdb
     RDKit          3D

 32 33  0  0  1  0  0  0  0  0999 V2000
   27.0594  -23.4707  -16.4756 N   0  0  0  0  0  0  0  0  0  0  0  0
   26.6017  -22.1751  -16.0099 C   0  0  1  0  0  0  0  0  0  0  0  0
   27.2358  -21.0855  -16.8601 C   0  0  0  0  0  0  0  0  0  0  0  0
   28.7504  -21.1680  -16.6302 C   0  0  0  0  0  0  0  0  0  0  0  0
   29.4144  -21.8544  -17.7411 C   0  0  0  0  0  0  0  0  0  0  0  0
   29.4125  -21.3647  -18.8794 O   0  0  0  0  0  0  0  0  0  0  0  0
   25.1081  -22.1239  -16.1648 C   0  0  0  0  0  0  0  0  0  0  0  0
   24.5914  -21.9530  -17.3004 O   0  0  0  0  0  0  0  0  0  0  0  0
   30.0741  -23.0789  -17.5452 O   0  0  0  0  0  0  0  0  0  0  0  0
   22.2223  -25.6183  -16.6315 N   0  0  0  0  0  0  0  0  0  0  0  0
   23.4624  -25.7089  -15.8953 C   0  0  0  0  0  0  0  0  0  0  0  0
   24.0643  -26.7950  -16.0028 O   0  0  0  0  0  0  0  0  0  0  0  0
   23.9336  -24.5973  -15.1056 C   0  0  0  0  0  0  0  0  0  0  0  0
   23.1719  -23.3117  -15.0790 C   0  0  2  0  0  0  0  0  0  0  0  0
   24.2246  -22.2578  -15.0772 N   0  0  0  0  0  0  0  0  0  0  0  0
   22.2816  -23.0991  -13.9408 C   0  0  0  0  0  0  0  0  0  0  0  0
   21.0834  -23.5697  -13.9339 O   0  0  0  0  0  0  0  0  0  0  0  0
   22.6395  -22.3974  -12.7855 N   0  0  0  0  0  0  0  0  0  0  0  0
   22.0956  -21.0923  -12.3855 C   0  0  1  0  0  0  0  0  0  0  0  0
   23.0699  -20.0112  -12.6571 C   0  0  0  0  0  0  0  0  0  0  0  0
   24.4275  -20.3465  -12.2153 C   0  0  0  0  0  0  0  0  0  0  0  0
   24.7544  -21.1380  -11.1038 C   0  0  0  0  0  0  0  0  0  0  0  0
   26.0874  -21.2024  -10.9710 N   0  0  0  0  0  0  0  0  0  0  0  0
   26.6862  -20.4956  -11.9327 C   0  0  0  0  0  0  0  0  0  0  0  0
   28.0209  -20.2702  -12.2268 C   0  0  0  0  0  0  0  0  0  0  0  0
   28.3505  -19.4976  -13.3176 C   0  0  0  0  0  0  0  0  0  0  0  0
   27.3460  -18.9647  -14.0922 C   0  0  0  0  0  0  0  0  0  0  0  0
   26.0114  -19.1885  -13.7993 C   0  0  0  0  0  0  0  0  0  0  0  0
   25.6770  -19.9617  -12.7074 C   0  0  0  0  0  0  0  0  0  0  0  0
   20.7618  -20.8915  -12.8732 C   0  0  0  0  0  0  0  0  0  0  0  0
   19.7814  -20.1493  -12.2584 O   0  0  0  0  0  0  0  0  0  0  0  0
   20.4094  -21.4423  -13.9769 O   0  0  0  0  0  0  0  0  0  0  0  0
  2  1  1  6
  2  3  1  0
  3  4  1  0
  4  5  1  0
  5  9  1  0
  6  5  2  0
  7  2  1  0
  8  7  2  0
 10 11  1  0
 11 12  2  0
 13 11  1  0
 14 13  1  1
 14 15  1  0
 15  7  1  0
 16 18  1  0
 16 14  1  0
 17 16  2  0
 19 18  1  0
 19 20  1  6
 20 21  1  0
 21 29  1  0
 21 22  2  0
 22 23  1  0
 24 23  1  0
 24 25  2  0
 26 25  1  0
 27 26  2  0
 28 29  2  0
 28 27  1  0
 29 24  1  0
 30 31  1  0
 30 19  1  0
 32 30  2  0
M  END
$$$$
