ENW.pdb
     RDKit          3D

 32 33  0  0  1  0  0  0  0  0999 V2000
   21.3783  -19.8526  -14.2404 N   0  0  0  0  0  0  0  0  0  0  0  0
   20.9178  -20.9120  -13.3626 C   0  0  1  0  0  0  0  0  0  0  0  0
   20.0885  -21.9018  -14.1658 C   0  0  0  0  0  0  0  0  0  0  0  0
   19.3836  -21.0996  -15.2672 C   0  0  0  0  0  0  0  0  0  0  0  0
   18.2243  -20.3801  -14.7338 C   0  0  0  0  0  0  0  0  0  0  0  0
   17.1732  -20.9809  -14.4696 O   0  0  0  0  0  0  0  0  0  0  0  0
   22.1235  -21.6106  -12.8008 C   0  0  0  0  0  0  0  0  0  0  0  0
   22.0050  -22.4030  -11.8294 O   0  0  0  0  0  0  0  0  0  0  0  0
   18.2748  -18.9956  -14.5025 O   0  0  0  0  0  0  0  0  0  0  0  0
   23.9113  -24.6491  -13.9896 N   0  0  0  0  0  0  0  0  0  0  0  0
   25.0234  -23.8671  -14.4792 C   0  0  0  0  0  0  0  0  0  0  0  0
   25.6224  -24.3529  -15.4583 O   0  0  0  0  0  0  0  0  0  0  0  0
   25.3798  -22.6185  -13.8505 C   0  0  0  0  0  0  0  0  0  0  0  0
   24.5901  -22.1030  -12.6911 C   0  0  2  0  0  0  0  0  0  0  0  0
   23.4208  -21.4216  -13.3134 N   0  0  0  0  0  0  0  0  0  0  0  0
   25.2687  -21.1669  -11.7984 C   0  0  0  0  0  0  0  0  0  0  0  0
   25.4519  -19.9379  -12.1345 O   0  0  0  0  0  0  0  0  0  0  0  0
   25.7567  -21.5045  -10.5322 N   0  0  0  0  0  0  0  0  0  0  0  0
   26.6130  -20.6486   -9.6995 C   0  0  1  0  0  0  0  0  0  0  0  0
   26.4463  -20.9746   -8.2652 C   0  0  0  0  0  0  0  0  0  0  0  0
   27.2219  -20.0912   -7.3885 C   0  0  0  0  0  0  0  0  0  0  0  0
   27.3814  -18.7071   -7.5552 C   0  0  0  0  0  0  0  0  0  0  0  0
   28.1861  -18.2260   -6.5962 N   0  0  0  0  0  0  0  0  0  0  0  0
   28.5844  -19.2093   -5.7854 C   0  0  0  0  0  0  0  0  0  0  0  0
   29.3935  -19.2169   -4.6611 C   0  0  0  0  0  0  0  0  0  0  0  0
   29.6190  -20.4032   -3.9999 C   0  0  0  0  0  0  0  0  0  0  0  0
   29.0360  -21.5568   -4.4711 C   0  0  0  0  0  0  0  0  0  0  0  0
   28.2274  -21.5511   -5.5950 C   0  0  0  0  0  0  0  0  0  0  0  0
   27.9991  -20.3649   -6.2604 C   0  0  0  0  0  0  0  0  0  0  0  0
   27.9589  -20.5902  -10.1921 C   0  0  0  0  0  0  0  0  0  0  0  0
   28.7293  -19.4568  -10.3014 O   0  0  0  0  0  0  0  0  0  0  0  0
   28.5302  -21.6706  -10.5820 O   0  0  0  0  0  0  0  0  0  0  0  0
  2  1  1  6
  2  3  1  0
  3  4  1  0
  4  5  1  0
  5  9  1  0
  6  5  2  0
  7  2  1  0
  8  7  2  0
 10 11  1  0
 11 12  2  0
 13 11  1  0
 14 13  1  6
 14 15  1  0
 15  7  1  0
 16 18  1  0
 16 14  1  0
 17 16  2  0
 19 18  1  0
 19 20  1  1
 20 21  1  0
 21 29  1  0
 21 22  2  0
 22 23  1  0
 24 23  1  0
 24 25  2  0
 26 25  1  0
 27 26  2  0
 28 29  2  0
 28 27  1  0
 29 24  1  0
 30 31  1  0
 30 19  1  0
 32 30  2  0
M  END
$$$$
