KRA.pdb
     RDKit          3D

 26 25  0  0  1  0  0  0  0  0999 V2000
    6.5672  -22.0571   22.5339 N   0  0  0  0  0  0  0  0  0  0  0  0
    5.8179  -21.0394   23.1992 C   0  0  1  0  0  0  0  0  0  0  0  0
    5.3691  -21.4214   24.5771 C   0  0  0  0  0  0  0  0  0  0  0  0
    4.4570  -22.5924   24.6574 C   0  0  0  0  0  0  0  0  0  0  0  0
    3.1754  -22.4830   23.9092 C   0  0  0  0  0  0  0  0  0  0  0  0
    2.2845  -23.6911   24.0751 C   0  0  0  0  0  0  0  0  0  0  0  0
    0.9842  -23.4863   23.4598 N   0  0  0  0  0  0  0  0  0  0  0  0
    6.5529  -19.7609   23.1855 C   0  0  0  0  0  0  0  0  0  0  0  0
    7.7410  -19.7859   23.6382 O   0  0  0  0  0  0  0  0  0  0  0  0
    7.7643  -11.7959   19.7874 N   0  0  0  0  0  0  0  0  0  0  0  0
    8.6045  -12.9170   19.6083 C   0  0  0  0  0  0  0  0  0  0  0  0
    9.8405  -12.7362   19.2421 N   0  0  0  0  0  0  0  0  0  0  0  0
    8.1780  -14.2580   19.8064 N   0  0  0  0  0  0  0  0  0  0  0  0
    6.8349  -14.5306   20.2767 C   0  0  0  0  0  0  0  0  0  0  0  0
    6.8849  -14.9887   21.7352 C   0  0  0  0  0  0  0  0  0  0  0  0
    6.1682  -16.2805   21.9334 C   0  0  0  0  0  0  0  0  0  0  0  0
    6.8773  -17.3082   22.7310 C   0  0  2  0  0  0  0  0  0  0  0  0
    6.0649  -18.5178   22.7190 N   0  0  0  0  0  0  0  0  0  0  0  0
    7.2061  -16.9581   24.1031 C   0  0  0  0  0  0  0  0  0  0  0  0
    6.3701  -16.8195   25.0333 O   0  0  0  0  0  0  0  0  0  0  0  0
   10.4982  -13.5093   19.0755 C   0  0  0  0  0  0  0  0  0  0  0  0
    8.3694  -17.3833   26.7231 C   0  0  1  0  0  0  0  0  0  0  0  0
    8.9211  -16.3295   25.7807 N   0  0  0  0  0  0  0  0  0  0  0  0
    8.5668  -16.7512   24.4466 C   0  0  0  0  0  0  0  0  0  0  0  0
   10.3556  -16.1185   25.9470 O   0  0  0  0  0  0  0  0  0  0  0  0
   11.1462  -16.3838   25.0173 O   0  0  0  0  0  0  0  0  0  0  0  0
  2  1  1  1
  3  2  1  0
  4  5  1  0
  4  3  1  0
  5  6  1  0
  6  7  1  0
  8  2  1  0
  8  9  2  0
 10 11  1  0
 11 12  2  0
 13 11  1  0
 13 14  1  0
 14 15  1  0
 15 16  1  0
 17 18  1  0
 17 16  1  1
 18  8  1  0
 19 17  1  0
 20 19  2  0
 22 21  1  1
 22 23  1  0
 23 19  1  0
 24 22  1  0
 24 26  1  0
 25 24  2  0
M  END
$$$$
