KRA.pdb
     RDKit          3D

 26 25  0  0  1  0  0  0  0  0999 V2000
    6.6757  -16.0819   19.8082 N   0  0  0  0  0  0  0  0  0  0  0  0
    7.5856  -15.1943   20.4593 C   0  0  1  0  0  0  0  0  0  0  0  0
    7.3926  -13.7540   20.0930 C   0  0  0  0  0  0  0  0  0  0  0  0
    8.1903  -13.2697   18.9360 C   0  0  0  0  0  0  0  0  0  0  0  0
    8.0938  -14.0716   17.6862 C   0  0  0  0  0  0  0  0  0  0  0  0
    8.9899  -13.5629   16.5821 C   0  0  0  0  0  0  0  0  0  0  0  0
    8.7894  -14.3008   15.3466 N   0  0  0  0  0  0  0  0  0  0  0  0
    7.5639  -15.4073   21.9185 C   0  0  0  0  0  0  0  0  0  0  0  0
    6.4185  -15.4314   22.4702 O   0  0  0  0  0  0  0  0  0  0  0  0
   13.1655  -17.3555   28.0881 N   0  0  0  0  0  0  0  0  0  0  0  0
   12.0132  -17.9957   28.5953 C   0  0  0  0  0  0  0  0  0  0  0  0
   11.9903  -18.3763   29.8400 N   0  0  0  0  0  0  0  0  0  0  0  0
   10.8528  -18.2564   27.8175 N   0  0  0  0  0  0  0  0  0  0  0  0
   10.8521  -17.9715   26.3969 C   0  0  0  0  0  0  0  0  0  0  0  0
    9.7772  -16.9296   26.0829 C   0  0  0  0  0  0  0  0  0  0  0  0
    9.5787  -16.7657   24.6148 C   0  0  0  0  0  0  0  0  0  0  0  0
    8.5661  -15.7679   24.1973 C   0  0  2  0  0  0  0  0  0  0  0  0
    8.6892  -15.5868   22.7567 N   0  0  0  0  0  0  0  0  0  0  0  0
    8.6155  -14.4726   24.8552 C   0  0  0  0  0  0  0  0  0  0  0  0
    9.5968  -13.6854   24.8276 O   0  0  0  0  0  0  0  0  0  0  0  0
   11.1796  -18.8375   30.2738 C   0  0  0  0  0  0  0  0  0  0  0  0
    6.1202  -12.3898   26.6140 C   0  0  1  0  0  0  0  0  0  0  0  0
    7.5531  -12.8334   26.3833 N   0  0  0  0  0  0  0  0  0  0  0  0
    7.4836  -14.0383   25.5918 C   0  0  0  0  0  0  0  0  0  0  0  0
    8.2958  -13.0132   27.6267 O   0  0  0  0  0  0  0  0  0  0  0  0
    8.6077  -14.1576   28.0176 O   0  0  0  0  0  0  0  0  0  0  0  0
  2  1  1  6
  3  2  1  0
  4  5  1  0
  4  3  1  0
  5  6  1  0
  6  7  1  0
  8  2  1  0
  8  9  2  0
 10 11  1  0
 11 12  2  0
 13 11  1  0
 13 14  1  0
 14 15  1  0
 15 16  1  0
 17 18  1  0
 17 16  1  1
 18  8  1  0
 19 17  1  0
 20 19  2  0
 22 21  1  6
 22 23  1  0
 23 19  1  0
 24 22  1  0
 24 26  1  0
 25 24  2  0
M  END
$$$$
