KRA.pdb
     RDKit          3D

 26 25  0  0  1  0  0  0  0  0999 V2000
    5.9192  -15.2445   21.8415 N   0  0  0  0  0  0  0  0  0  0  0  0
    7.2554  -14.7409   21.8148 C   0  0  1  0  0  0  0  0  0  0  0  0
    7.4879  -13.5922   22.7488 C   0  0  0  0  0  0  0  0  0  0  0  0
    7.0510  -13.8041   24.1538 C   0  0  0  0  0  0  0  0  0  0  0  0
    7.1402  -12.6253   25.0574 C   0  0  0  0  0  0  0  0  0  0  0  0
    6.5652  -12.8828   26.4299 C   0  0  0  0  0  0  0  0  0  0  0  0
    6.6935  -11.7196   27.2913 N   0  0  0  0  0  0  0  0  0  0  0  0
    8.2257  -15.8325   22.0194 C   0  0  0  0  0  0  0  0  0  0  0  0
    7.9657  -16.6532   22.9553 O   0  0  0  0  0  0  0  0  0  0  0  0
   14.3302  -19.6672   18.0198 N   0  0  0  0  0  0  0  0  0  0  0  0
   13.7736  -20.7731   18.6995 C   0  0  0  0  0  0  0  0  0  0  0  0
   14.2823  -21.9572   18.5155 N   0  0  0  0  0  0  0  0  0  0  0  0
   12.6706  -20.6740   19.5900 N   0  0  0  0  0  0  0  0  0  0  0  0
   11.7512  -19.5589   19.4854 C   0  0  0  0  0  0  0  0  0  0  0  0
   12.1763  -18.4510   20.4506 C   0  0  0  0  0  0  0  0  0  0  0  0
   11.2377  -17.2939   20.4111 C   0  0  0  0  0  0  0  0  0  0  0  0
   10.3114  -17.1614   21.5600 C   0  0  2  0  0  0  0  0  0  0  0  0
    9.4100  -16.0519   21.2776 N   0  0  0  0  0  0  0  0  0  0  0  0
   10.9163  -16.9742   22.8685 C   0  0  0  0  0  0  0  0  0  0  0  0
   11.5176  -15.9347   23.2443 O   0  0  0  0  0  0  0  0  0  0  0  0
   13.8883  -22.8111   18.9322 C   0  0  0  0  0  0  0  0  0  0  0  0
   10.6518  -18.2469   26.1672 C   0  0  1  0  0  0  0  0  0  0  0  0
   11.6160  -17.9745   25.0273 N   0  0  0  0  0  0  0  0  0  0  0  0
   10.8370  -18.0292   23.8136 C   0  0  0  0  0  0  0  0  0  0  0  0
   12.7503  -18.8928   25.0155 O   0  0  0  0  0  0  0  0  0  0  0  0
   12.7174  -19.9301   24.3208 O   0  0  0  0  0  0  0  0  0  0  0  0
  2  1  1  1
  3  2  1  0
  4  5  1  0
  4  3  1  0
  5  6  1  0
  6  7  1  0
  8  2  1  0
  8  9  2  0
 10 11  1  0
 11 12  2  0
 13 11  1  0
 13 14  1  0
 14 15  1  0
 15 16  1  0
 17 18  1  0
 17 16  1  6
 18  8  1  0
 19 17  1  0
 20 19  2  0
 22 21  1  1
 22 23  1  0
 23 19  1  0
 24 22  1  0
 24 26  1  0
 25 24  2  0
M  END
$$$$
