KRA.pdb
     RDKit          3D

 26 25  0  0  1  0  0  0  0  0999 V2000
   10.4886  -19.2966   17.5492 N   0  0  0  0  0  0  0  0  0  0  0  0
    9.7347  -19.5349   18.7386 C   0  0  1  0  0  0  0  0  0  0  0  0
    9.7539  -20.9634   19.1912 C   0  0  0  0  0  0  0  0  0  0  0  0
    8.7162  -21.8439   18.5932 C   0  0  0  0  0  0  0  0  0  0  0  0
    9.1317  -22.6429   17.4087 C   0  0  0  0  0  0  0  0  0  0  0  0
    8.0491  -23.5675   16.9051 C   0  0  0  0  0  0  0  0  0  0  0  0
    8.4345  -24.2180   15.6643 N   0  0  0  0  0  0  0  0  0  0  0  0
   10.1438  -18.6047   19.8074 C   0  0  0  0  0  0  0  0  0  0  0  0
   11.3704  -18.2698   19.8278 O   0  0  0  0  0  0  0  0  0  0  0  0
    9.3272  -12.0834   20.3972 N   0  0  0  0  0  0  0  0  0  0  0  0
    8.2329  -12.5635   19.6443 C   0  0  0  0  0  0  0  0  0  0  0  0
    8.1796  -12.3167   18.3673 N   0  0  0  0  0  0  0  0  0  0  0  0
    7.1638  -13.3145   20.2034 N   0  0  0  0  0  0  0  0  0  0  0  0
    7.4048  -14.1913   21.3315 C   0  0  0  0  0  0  0  0  0  0  0  0
    8.5519  -15.1480   21.0021 C   0  0  0  0  0  0  0  0  0  0  0  0
    8.7822  -16.1323   22.0974 C   0  0  0  0  0  0  0  0  0  0  0  0
    9.8132  -17.1658   21.8441 C   0  0  2  0  0  0  0  0  0  0  0  0
    9.3063  -18.0530   20.8051 N   0  0  0  0  0  0  0  0  0  0  0  0
   10.2430  -17.9537   22.9877 C   0  0  0  0  0  0  0  0  0  0  0  0
    9.5409  -18.8172   23.5749 O   0  0  0  0  0  0  0  0  0  0  0  0
    7.4223  -12.6548   17.7587 C   0  0  0  0  0  0  0  0  0  0  0  0
   13.5660  -18.5131   24.4911 C   0  0  1  0  0  0  0  0  0  0  0  0
   12.0524  -18.6020   24.5550 N   0  0  0  0  0  0  0  0  0  0  0  0
   11.5501  -17.7533   23.5012 C   0  0  0  0  0  0  0  0  0  0  0  0
   11.5209  -18.2511   25.8682 O   0  0  0  0  0  0  0  0  0  0  0  0
   11.8285  -18.9225   26.8753 O   0  0  0  0  0  0  0  0  0  0  0  0
  2  1  1  6
  3  2  1  0
  4  5  1  0
  4  3  1  0
  5  6  1  0
  6  7  1  0
  8  2  1  0
  8  9  2  0
 10 11  1  0
 11 12  2  0
 13 11  1  0
 13 14  1  0
 14 15  1  0
 15 16  1  0
 17 18  1  0
 17 16  1  1
 18  8  1  0
 19 17  1  0
 20 19  2  0
 22 21  1  6
 22 23  1  0
 23 19  1  0
 24 22  1  0
 24 26  1  0
 25 24  2  0
M  END
$$$$
