KRA.pdb
     RDKit          3D

 26 25  0  0  1  0  0  0  0  0999 V2000
   11.0122  -14.8994   18.6470 N   0  0  0  0  0  0  0  0  0  0  0  0
   11.1254  -16.1963   19.2344 C   0  0  1  0  0  0  0  0  0  0  0  0
   12.5400  -16.6453   19.4417 C   0  0  0  0  0  0  0  0  0  0  0  0
   13.5854  -15.7975   18.8107 C   0  0  0  0  0  0  0  0  0  0  0  0
   14.9916  -16.2581   18.9672 C   0  0  0  0  0  0  0  0  0  0  0  0
   15.9980  -15.3191   18.3459 C   0  0  0  0  0  0  0  0  0  0  0  0
   17.3610  -15.7694   18.5710 N   0  0  0  0  0  0  0  0  0  0  0  0
   10.3266  -16.2773   20.4715 C   0  0  0  0  0  0  0  0  0  0  0  0
   10.1901  -15.1975   21.1291 O   0  0  0  0  0  0  0  0  0  0  0  0
    7.6552  -21.9768   24.4977 N   0  0  0  0  0  0  0  0  0  0  0  0
    6.3842  -21.5295   24.9212 C   0  0  0  0  0  0  0  0  0  0  0  0
    5.8604  -22.0281   26.0036 N   0  0  0  0  0  0  0  0  0  0  0  0
    5.6247  -20.5495   24.2269 N   0  0  0  0  0  0  0  0  0  0  0  0
    6.1160  -20.0001   22.9794 C   0  0  0  0  0  0  0  0  0  0  0  0
    7.2562  -19.0209   23.2636 C   0  0  0  0  0  0  0  0  0  0  0  0
    7.8012  -18.4284   22.0092 C   0  0  0  0  0  0  0  0  0  0  0  0
    8.8502  -17.3951   22.1739 C   0  0  2  0  0  0  0  0  0  0  0  0
    9.7014  -17.4346   20.9919 N   0  0  0  0  0  0  0  0  0  0  0  0
    9.6738  -17.4850   23.3683 C   0  0  0  0  0  0  0  0  0  0  0  0
   10.7328  -18.1575   23.4666 O   0  0  0  0  0  0  0  0  0  0  0  0
    4.9675  -21.7044   26.3988 C   0  0  0  0  0  0  0  0  0  0  0  0
    9.4445  -15.8720   26.7147 C   0  0  1  0  0  0  0  0  0  0  0  0
   10.0556  -16.8594   25.7377 N   0  0  0  0  0  0  0  0  0  0  0  0
    9.2757  -16.7691   24.5266 C   0  0  0  0  0  0  0  0  0  0  0  0
   10.1195  -18.2162   26.2716 O   0  0  0  0  0  0  0  0  0  0  0  0
    9.2702  -19.0685   25.9372 O   0  0  0  0  0  0  0  0  0  0  0  0
  2  1  1  1
  3  2  1  0
  4  5  1  0
  4  3  1  0
  5  6  1  0
  6  7  1  0
  8  2  1  0
  8  9  2  0
 10 11  1  0
 11 12  2  0
 13 11  1  0
 13 14  1  0
 14 15  1  0
 15 16  1  0
 17 18  1  0
 17 16  1  6
 18  8  1  0
 19 17  1  0
 20 19  2  0
 22 21  1  6
 22 23  1  0
 23 19  1  0
 24 22  1  0
 24 26  1  0
 25 24  2  0
M  END
$$$$
