KRA.pdb
     RDKit          3D

 26 25  0  0  1  0  0  0  0  0999 V2000
    8.2577  -21.5766   20.4810 N   0  0  0  0  0  0  0  0  0  0  0  0
    8.1177  -20.8752   21.7173 C   0  0  1  0  0  0  0  0  0  0  0  0
    8.5968  -21.6477   22.9088 C   0  0  0  0  0  0  0  0  0  0  0  0
    8.5439  -23.1279   22.7823 C   0  0  0  0  0  0  0  0  0  0  0  0
    9.7719  -23.8683   23.1796 C   0  0  0  0  0  0  0  0  0  0  0  0
    9.6378  -25.3653   23.0326 C   0  0  0  0  0  0  0  0  0  0  0  0
   10.8415  -26.0558   23.4635 N   0  0  0  0  0  0  0  0  0  0  0  0
    8.7390  -19.5406   21.6302 C   0  0  0  0  0  0  0  0  0  0  0  0
    9.9447  -19.5025   21.2276 O   0  0  0  0  0  0  0  0  0  0  0  0
    6.4695  -12.5008   19.0944 N   0  0  0  0  0  0  0  0  0  0  0  0
    7.7491  -13.0058   18.7740 C   0  0  0  0  0  0  0  0  0  0  0  0
    8.0168  -13.3307   17.5423 N   0  0  0  0  0  0  0  0  0  0  0  0
    8.7847  -13.1855   19.7304 N   0  0  0  0  0  0  0  0  0  0  0  0
    9.0225  -14.4940   20.3055 C   0  0  0  0  0  0  0  0  0  0  0  0
    8.3605  -14.5777   21.6818 C   0  0  0  0  0  0  0  0  0  0  0  0
    7.8519  -15.9492   21.9677 C   0  0  0  0  0  0  0  0  0  0  0  0
    8.8494  -17.0434   21.9118 C   0  0  2  0  0  0  0  0  0  0  0  0
    8.1246  -18.3069   21.9492 N   0  0  0  0  0  0  0  0  0  0  0  0
    9.8775  -17.0431   22.9395 C   0  0  0  0  0  0  0  0  0  0  0  0
    9.6838  -17.3043   24.1551 O   0  0  0  0  0  0  0  0  0  0  0  0
    8.9348  -13.6812   17.2383 C   0  0  0  0  0  0  0  0  0  0  0  0
   12.3486  -18.0624   24.1652 C   0  0  1  0  0  0  0  0  0  0  0  0
   12.2454  -16.6683   23.5747 N   0  0  0  0  0  0  0  0  0  0  0  0
   11.2104  -16.7274   22.5705 C   0  0  0  0  0  0  0  0  0  0  0  0
   13.5175  -16.1813   23.0506 O   0  0  0  0  0  0  0  0  0  0  0  0
   13.6754  -16.0194   21.8223 O   0  0  0  0  0  0  0  0  0  0  0  0
  2  1  1  6
  3  2  1  0
  4  5  1  0
  4  3  1  0
  5  6  1  0
  6  7  1  0
  8  2  1  0
  8  9  2  0
 10 11  1  0
 11 12  2  0
 13 11  1  0
 13 14  1  0
 14 15  1  0
 15 16  1  0
 17 18  1  0
 17 16  1  1
 18  8  1  0
 19 17  1  0
 20 19  2  0
 22 21  1  1
 22 23  1  0
 23 19  1  0
 24 22  1  0
 24 26  1  0
 25 24  2  0
M  END
$$$$
