KRA.pdb
     RDKit          3D

 26 25  0  0  1  0  0  0  0  0999 V2000
   12.4363  -19.9198   17.3013 N   0  0  0  0  0  0  0  0  0  0  0  0
   12.3647  -21.3425   17.1990 C   0  0  1  0  0  0  0  0  0  0  0  0
   13.3262  -21.9272   16.2093 C   0  0  0  0  0  0  0  0  0  0  0  0
   14.6775  -21.3085   16.1793 C   0  0  0  0  0  0  0  0  0  0  0  0
   15.6505  -21.8949   15.2182 C   0  0  0  0  0  0  0  0  0  0  0  0
   16.7384  -20.9304   14.8099 C   0  0  0  0  0  0  0  0  0  0  0  0
   17.7348  -21.5716   13.9689 N   0  0  0  0  0  0  0  0  0  0  0  0
   12.4855  -21.9654   18.5303 C   0  0  0  0  0  0  0  0  0  0  0  0
   12.2923  -21.2049   19.5309 O   0  0  0  0  0  0  0  0  0  0  0  0
    7.6628  -24.1354   20.4290 N   0  0  0  0  0  0  0  0  0  0  0  0
    8.4043  -24.4038   21.6007 C   0  0  0  0  0  0  0  0  0  0  0  0
    8.1554  -23.7247   22.6831 N   0  0  0  0  0  0  0  0  0  0  0  0
    9.4262  -25.3885   21.6753 N   0  0  0  0  0  0  0  0  0  0  0  0
    9.8280  -26.1094   20.4844 C   0  0  0  0  0  0  0  0  0  0  0  0
   10.7080  -25.2113   19.6133 C   0  0  0  0  0  0  0  0  0  0  0  0
   12.1214  -25.1966   20.0862 C   0  0  0  0  0  0  0  0  0  0  0  0
   12.7788  -23.8702   20.1469 C   0  0  2  0  0  0  0  0  0  0  0  0
   12.7933  -23.3200   18.7977 N   0  0  0  0  0  0  0  0  0  0  0  0
   14.1221  -23.8318   20.7011 C   0  0  0  0  0  0  0  0  0  0  0  0
   14.4893  -24.4269   21.7472 O   0  0  0  0  0  0  0  0  0  0  0  0
    8.6771  -23.8512   23.5605 C   0  0  0  0  0  0  0  0  0  0  0  0
   17.3671  -22.8755   19.3161 C   0  0  2  0  0  0  0  0  0  0  0  0
   16.4698  -23.0513   20.5274 N   0  0  0  0  0  0  0  0  0  0  0  0
   15.1149  -23.0721   20.0304 C   0  0  0  0  0  0  0  0  0  0  0  0
   16.6858  -22.0264   21.5437 O   0  0  0  0  0  0  0  0  0  0  0  0
   17.8041  -21.8971   22.0843 O   0  0  0  0  0  0  0  0  0  0  0  0
  2  1  1  1
  3  2  1  0
  4  5  1  0
  4  3  1  0
  5  6  1  0
  6  7  1  0
  8  2  1  0
  8  9  2  0
 10 11  1  0
 11 12  2  0
 13 11  1  0
 13 14  1  0
 14 15  1  0
 15 16  1  0
 17 18  1  0
 17 16  1  6
 18  8  1  0
 19 17  1  0
 20 19  2  0
 22 21  1  6
 22 23  1  0
 23 19  1  0
 24 22  1  0
 24 26  1  0
 25 24  2  0
M  END
$$$$
