KRA.pdb
     RDKit          3D

 26 25  0  0  1  0  0  0  0  0999 V2000
    7.3522  -21.2660   18.9693 N   0  0  0  0  0  0  0  0  0  0  0  0
    7.3138  -21.0986   20.3872 C   0  0  1  0  0  0  0  0  0  0  0  0
    7.6628  -22.3389   21.1526 C   0  0  0  0  0  0  0  0  0  0  0  0
    6.5358  -22.9965   21.8646 C   0  0  0  0  0  0  0  0  0  0  0  0
    6.8461  -24.2829   22.5451 C   0  0  0  0  0  0  0  0  0  0  0  0
    5.6399  -24.9190   23.1940 C   0  0  0  0  0  0  0  0  0  0  0  0
    5.9828  -26.1663   23.8555 N   0  0  0  0  0  0  0  0  0  0  0  0
    8.1318  -19.9414   20.7955 C   0  0  0  0  0  0  0  0  0  0  0  0
    9.3673  -19.9882   20.4981 O   0  0  0  0  0  0  0  0  0  0  0  0
    8.5219  -11.5877   20.0886 N   0  0  0  0  0  0  0  0  0  0  0  0
    8.0677  -12.7946   19.5125 C   0  0  0  0  0  0  0  0  0  0  0  0
    8.1081  -12.9394   18.2195 N   0  0  0  0  0  0  0  0  0  0  0  0
    7.5587  -13.8839   20.2700 N   0  0  0  0  0  0  0  0  0  0  0  0
    7.7716  -13.9343   21.7024 C   0  0  0  0  0  0  0  0  0  0  0  0
    8.5646  -15.1926   22.0594 C   0  0  0  0  0  0  0  0  0  0  0  0
    7.8810  -16.4294   21.5855 C   0  0  0  0  0  0  0  0  0  0  0  0
    8.5705  -17.7097   21.8700 C   0  0  2  0  0  0  0  0  0  0  0  0
    7.6751  -18.7917   21.4815 N   0  0  0  0  0  0  0  0  0  0  0  0
    9.0209  -17.9194   23.2361 C   0  0  0  0  0  0  0  0  0  0  0  0
    8.2775  -17.9101   24.2513 O   0  0  0  0  0  0  0  0  0  0  0  0
    7.7881  -13.7896   17.7370 C   0  0  0  0  0  0  0  0  0  0  0  0
   11.7760  -19.6136   24.7357 C   0  0  1  0  0  0  0  0  0  0  0  0
   10.8761  -18.3940   24.8121 N   0  0  0  0  0  0  0  0  0  0  0  0
   10.4001  -18.1549   23.4708 C   0  0  0  0  0  0  0  0  0  0  0  0
   11.5453  -17.2339   25.3920 O   0  0  0  0  0  0  0  0  0  0  0  0
   11.9369  -17.2564   26.5777 O   0  0  0  0  0  0  0  0  0  0  0  0
  2  1  1  6
  3  2  1  0
  4  5  1  0
  4  3  1  0
  5  6  1  0
  6  7  1  0
  8  2  1  0
  8  9  2  0
 10 11  1  0
 11 12  2  0
 13 11  1  0
 13 14  1  0
 14 15  1  0
 15 16  1  0
 17 18  1  0
 17 16  1  1
 18  8  1  0
 19 17  1  0
 20 19  2  0
 22 21  1  1
 22 23  1  0
 23 19  1  0
 24 22  1  0
 24 26  1  0
 25 24  2  0
M  END
$$$$
