KRA.pdb
     RDKit          3D

 26 25  0  0  1  0  0  0  0  0999 V2000
    6.3491  -20.0172   19.9772 N   0  0  0  0  0  0  0  0  0  0  0  0
    6.4789  -18.8767   20.8270 C   0  0  1  0  0  0  0  0  0  0  0  0
    5.4543  -18.8161   21.9191 C   0  0  0  0  0  0  0  0  0  0  0  0
    4.0574  -19.1189   21.5110 C   0  0  0  0  0  0  0  0  0  0  0  0
    3.0365  -19.1070   22.5935 C   0  0  0  0  0  0  0  0  0  0  0  0
    1.6241  -19.2595   22.0812 C   0  0  0  0  0  0  0  0  0  0  0  0
    0.6631  -19.3197   23.1693 N   0  0  0  0  0  0  0  0  0  0  0  0
    7.8552  -18.7698   21.3458 C   0  0  0  0  0  0  0  0  0  0  0  0
    8.2991  -19.7755   21.9851 O   0  0  0  0  0  0  0  0  0  0  0  0
   13.8444  -19.8320   19.1395 N   0  0  0  0  0  0  0  0  0  0  0  0
   13.2492  -19.6426   17.8727 C   0  0  0  0  0  0  0  0  0  0  0  0
   13.3750  -20.5662   16.9640 N   0  0  0  0  0  0  0  0  0  0  0  0
   12.5062  -18.4840   17.5192 N   0  0  0  0  0  0  0  0  0  0  0  0
   12.1822  -17.4942   18.5265 C   0  0  0  0  0  0  0  0  0  0  0  0
   11.3239  -18.1350   19.6184 C   0  0  0  0  0  0  0  0  0  0  0  0
   10.9889  -17.1644   20.6988 C   0  0  0  0  0  0  0  0  0  0  0  0
   10.0702  -17.6500   21.7549 C   0  0  2  0  0  0  0  0  0  0  0  0
    8.7229  -17.6621   21.1999 N   0  0  0  0  0  0  0  0  0  0  0  0
   10.0715  -16.9161   23.0098 C   0  0  0  0  0  0  0  0  0  0  0  0
   11.0690  -16.7766   23.7640 O   0  0  0  0  0  0  0  0  0  0  0  0
   12.9643  -20.4919   16.0239 C   0  0  0  0  0  0  0  0  0  0  0  0
    7.5946  -14.7009   24.6411 C   0  0  2  0  0  0  0  0  0  0  0  0
    8.8307  -15.5799   24.6908 N   0  0  0  0  0  0  0  0  0  0  0  0
    8.8684  -16.2999   23.4405 C   0  0  0  0  0  0  0  0  0  0  0  0
    8.8507  -16.4611   25.8540 O   0  0  0  0  0  0  0  0  0  0  0  0
    8.7522  -17.6980   25.7125 O   0  0  0  0  0  0  0  0  0  0  0  0
  2  1  1  1
  3  2  1  0
  4  5  1  0
  4  3  1  0
  5  6  1  0
  6  7  1  0
  8  2  1  0
  8  9  2  0
 10 11  1  0
 11 12  2  0
 13 11  1  0
 13 14  1  0
 14 15  1  0
 15 16  1  0
 17 18  1  0
 17 16  1  6
 18  8  1  0
 19 17  1  0
 20 19  2  0
 22 21  1  6
 22 23  1  0
 23 19  1  0
 24 22  1  0
 24 26  1  0
 25 24  2  0
M  END
$$$$
