KRA.pdb
     RDKit          3D

 26 25  0  0  1  0  0  0  0  0999 V2000
    9.1942  -17.5173   20.5652 N   0  0  0  0  0  0  0  0  0  0  0  0
   10.2807  -17.1637   21.4220 C   0  0  1  0  0  0  0  0  0  0  0  0
   11.0637  -15.9770   20.9481 C   0  0  0  0  0  0  0  0  0  0  0  0
   12.2187  -16.2779   20.0620 C   0  0  0  0  0  0  0  0  0  0  0  0
   13.5534  -15.8286   20.5424 C   0  0  0  0  0  0  0  0  0  0  0  0
   14.6704  -16.1422   19.5757 C   0  0  0  0  0  0  0  0  0  0  0  0
   15.9503  -15.6530   20.0589 N   0  0  0  0  0  0  0  0  0  0  0  0
    9.8153  -17.0067   22.8126 C   0  0  0  0  0  0  0  0  0  0  0  0
    8.7948  -16.2685   22.9882 O   0  0  0  0  0  0  0  0  0  0  0  0
   11.1690  -21.6651   30.3618 N   0  0  0  0  0  0  0  0  0  0  0  0
   10.6986  -20.3885   30.7411 C   0  0  0  0  0  0  0  0  0  0  0  0
   10.5535  -20.1113   32.0046 N   0  0  0  0  0  0  0  0  0  0  0  0
   10.3665  -19.3658   29.8120 N   0  0  0  0  0  0  0  0  0  0  0  0
   10.5376  -19.5924   28.3911 C   0  0  0  0  0  0  0  0  0  0  0  0
   10.0502  -18.3685   27.6138 C   0  0  0  0  0  0  0  0  0  0  0  0
   10.2967  -18.5091   26.1507 C   0  0  0  0  0  0  0  0  0  0  0  0
    9.8591  -17.3775   25.3002 C   0  0  2  0  0  0  0  0  0  0  0  0
   10.3923  -17.5962   23.9618 N   0  0  0  0  0  0  0  0  0  0  0  0
   10.2171  -16.0434   25.7532 C   0  0  0  0  0  0  0  0  0  0  0  0
   11.3772  -15.5570   25.7218 O   0  0  0  0  0  0  0  0  0  0  0  0
   10.2282  -19.1979   32.3478 C   0  0  0  0  0  0  0  0  0  0  0  0
    8.2659  -13.0987   26.8368 C   0  0  1  0  0  0  0  0  0  0  0  0
    9.5388  -13.9248   26.8496 N   0  0  0  0  0  0  0  0  0  0  0  0
    9.1992  -15.2045   26.2752 C   0  0  0  0  0  0  0  0  0  0  0  0
   10.1253  -14.0381   28.1812 O   0  0  0  0  0  0  0  0  0  0  0  0
   10.5464  -13.0236   28.7755 O   0  0  0  0  0  0  0  0  0  0  0  0
  2  1  1  6
  3  2  1  0
  4  5  1  0
  4  3  1  0
  5  6  1  0
  6  7  1  0
  8  2  1  0
  8  9  2  0
 10 11  1  0
 11 12  2  0
 13 11  1  0
 13 14  1  0
 14 15  1  0
 15 16  1  0
 17 18  1  0
 17 16  1  1
 18  8  1  0
 19 17  1  0
 20 19  2  0
 22 21  1  6
 22 23  1  0
 23 19  1  0
 24 22  1  0
 24 26  1  0
 25 24  2  0
M  END
$$$$
