KRA.pdb
     RDKit          3D

 26 25  0  0  1  0  0  0  0  0999 V2000
    3.1022  -23.9736   26.7318 N   0  0  0  0  0  0  0  0  0  0  0  0
    4.2932  -24.7616   26.7173 C   0  0  1  0  0  0  0  0  0  0  0  0
    5.0628  -24.6713   25.4346 C   0  0  0  0  0  0  0  0  0  0  0  0
    4.2693  -24.8567   24.1913 C   0  0  0  0  0  0  0  0  0  0  0  0
    4.9966  -24.6576   22.9085 C   0  0  0  0  0  0  0  0  0  0  0  0
    4.1094  -24.7940   21.6941 C   0  0  0  0  0  0  0  0  0  0  0  0
    4.8347  -24.5137   20.4666 N   0  0  0  0  0  0  0  0  0  0  0  0
    5.1301  -24.4591   27.8933 C   0  0  0  0  0  0  0  0  0  0  0  0
    5.0732  -23.2690   28.3378 O   0  0  0  0  0  0  0  0  0  0  0  0
    5.6438  -26.4165   35.6234 N   0  0  0  0  0  0  0  0  0  0  0  0
    7.0458  -26.4563   35.4567 C   0  0  0  0  0  0  0  0  0  0  0  0
    7.8162  -26.0977   36.4428 N   0  0  0  0  0  0  0  0  0  0  0  0
    7.6826  -26.8714   34.2560 N   0  0  0  0  0  0  0  0  0  0  0  0
    6.9078  -27.0358   33.0427 C   0  0  0  0  0  0  0  0  0  0  0  0
    7.2441  -25.9107   32.0626 C   0  0  0  0  0  0  0  0  0  0  0  0
    6.4814  -26.0414   30.7887 C   0  0  0  0  0  0  0  0  0  0  0  0
    6.7155  -24.9881   29.7733 C   0  0  2  0  0  0  0  0  0  0  0  0
    5.9839  -25.3616   28.5697 N   0  0  0  0  0  0  0  0  0  0  0  0
    8.1002  -24.7064   29.4317 C   0  0  0  0  0  0  0  0  0  0  0  0
    8.8505  -25.4694   28.7698 O   0  0  0  0  0  0  0  0  0  0  0  0
    8.8415  -26.0575   36.3716 C   0  0  0  0  0  0  0  0  0  0  0  0
   10.0978  -21.6888   29.2555 C   0  0  1  0  0  0  0  0  0  0  0  0
   10.0487  -23.1767   29.5499 N   0  0  0  0  0  0  0  0  0  0  0  0
    8.6743  -23.4839   29.8657 C   0  0  0  0  0  0  0  0  0  0  0  0
   10.9759  -23.5747   30.6044 O   0  0  0  0  0  0  0  0  0  0  0  0
   10.5465  -23.9724   31.7076 O   0  0  0  0  0  0  0  0  0  0  0  0
  2  1  1  6
  3  2  1  0
  4  5  1  0
  4  3  1  0
  5  6  1  0
  6  7  1  0
  8  2  1  0
  8  9  2  0
 10 11  1  0
 11 12  2  0
 13 11  1  0
 13 14  1  0
 14 15  1  0
 15 16  1  0
 17 18  1  0
 17 16  1  1
 18  8  1  0
 19 17  1  0
 20 19  2  0
 22 21  1  6
 22 23  1  0
 23 19  1  0
 24 22  1  0
 24 26  1  0
 25 24  2  0
M  END
$$$$
