CAM.pdb
     RDKit          3D

 20 19  0  0  1  0  0  0  0  0999 V2000
   20.0574  -20.5944  -12.9425 N   0  0  0  0  0  0  0  0  0  0  0  0
   21.1760  -19.8006  -12.4781 C   0  0  1  0  0  0  0  0  0  0  0  0
   20.6358  -18.9705  -11.3063 C   0  0  0  0  0  0  0  0  0  0  0  0
   19.8449  -17.4641  -11.9908 S   0  0  0  0  0  0  0  0  0  0  0  0
   22.2683  -20.6339  -11.9341 C   0  0  0  0  0  0  0  0  0  0  0  0
   21.9962  -21.4210  -10.9914 O   0  0  0  0  0  0  0  0  0  0  0  0
   25.4578  -21.8868  -13.1518 C   0  0  0  0  0  0  0  0  0  0  0  0
   24.6637  -21.4587  -11.9092 C   0  0  2  0  0  0  0  0  0  0  0  0
   23.5986  -20.6067  -12.4013 N   0  0  0  0  0  0  0  0  0  0  0  0
   25.5388  -20.6241  -11.0315 C   0  0  0  0  0  0  0  0  0  0  0  0
   25.6974  -19.3793  -11.2380 O   0  0  0  0  0  0  0  0  0  0  0  0
   28.0155  -18.4660   -4.5924 C   0  0  0  0  0  0  0  0  0  0  0  0
   28.3489  -20.0820   -5.3337 S   0  0  0  0  0  0  0  0  0  0  0  0
   28.4785  -19.9661   -7.1534 C   0  0  0  0  0  0  0  0  0  0  0  0
   27.3179  -20.6558   -7.8161 C   0  0  0  0  0  0  0  0  0  0  0  0
   27.3622  -20.4667   -9.2974 C   0  0  2  0  0  0  0  0  0  0  0  0
   26.2332  -21.1769   -9.9289 N   0  0  0  0  0  0  0  0  0  0  0  0
   28.5943  -21.0485   -9.8532 C   0  0  0  0  0  0  0  0  0  0  0  0
   29.7885  -20.3075   -9.7315 O   0  0  0  0  0  0  0  0  0  0  0  0
   28.6788  -22.1626  -10.4348 O   0  0  0  0  0  0  0  0  0  0  0  0
  2  1  1  1
  3  2  1  0
  4  3  1  0
  5  2  1  0
  6  5  2  0
  8  7  1  6
  8 10  1  0
  8  9  1  0
  9  5  1  0
 10 11  2  0
 13 12  1  0
 13 14  1  0
 14 15  1  0
 16 15  1  1
 17 16  1  0
 17 10  1  0
 18 19  1  0
 18 16  1  0
 20 18  2  0
M  END
$$$$
