CAM.pdb
     RDKit          3D

 20 19  0  0  1  0  0  0  0  0999 V2000
   21.7349    3.3784  -10.3676 N   0  0  0  0  0  0  0  0  0  0  0  0
   22.0997    3.7589   -9.0189 C   0  0  1  0  0  0  0  0  0  0  0  0
   20.7846    3.7943   -8.2293 C   0  0  0  0  0  0  0  0  0  0  0  0
   21.1696    4.2696   -6.5004 S   0  0  0  0  0  0  0  0  0  0  0  0
   22.9563    2.7493   -8.3629 C   0  0  0  0  0  0  0  0  0  0  0  0
   22.5070    1.5801   -8.2470 O   0  0  0  0  0  0  0  0  0  0  0  0
   26.5187    2.3076   -7.7733 C   0  0  0  0  0  0  0  0  0  0  0  0
   25.1074    2.0150   -7.2437 C   0  0  2  0  0  0  0  0  0  0  0  0
   24.2469    3.0080   -7.8569 N   0  0  0  0  0  0  0  0  0  0  0  0
   25.0800    2.2451   -5.7676 C   0  0  0  0  0  0  0  0  0  0  0  0
   24.7878    3.3807   -5.2751 O   0  0  0  0  0  0  0  0  0  0  0  0
   24.2553   -2.2724   -0.6593 C   0  0  0  0  0  0  0  0  0  0  0  0
   25.6276   -1.1649   -0.2560 S   0  0  0  0  0  0  0  0  0  0  0  0
   25.4974    0.4154   -1.1655 C   0  0  0  0  0  0  0  0  0  0  0  0
   25.5444    0.1819   -2.6505 C   0  0  0  0  0  0  0  0  0  0  0  0
   25.4440    1.4730   -3.3953 C   0  0  2  0  0  0  0  0  0  0  0  0
   25.3776    1.2126   -4.8464 N   0  0  0  0  0  0  0  0  0  0  0  0
   26.6439    2.2935   -3.1656 C   0  0  0  0  0  0  0  0  0  0  0  0
   26.5870    3.2803   -2.1590 O   0  0  0  0  0  0  0  0  0  0  0  0
   27.7303    2.1920   -3.7950 O   0  0  0  0  0  0  0  0  0  0  0  0
  2  1  1  6
  3  2  1  0
  4  3  1  0
  5  2  1  0
  6  5  2  0
  8  7  1  6
  8 10  1  0
  8  9  1  0
  9  5  1  0
 10 11  2  0
 13 12  1  0
 13 14  1  0
 14 15  1  0
 16 15  1  1
 17 16  1  0
 17 10  1  0
 18 19  1  0
 18 16  1  0
 20 18  2  0
M  END
$$$$
