CAM.pdb
     RDKit          3D

 20 19  0  0  1  0  0  0  0  0999 V2000
   16.1051  -11.6730  -17.1195 N   0  0  0  0  0  0  0  0  0  0  0  0
   16.1279  -10.6225  -16.1230 C   0  0  1  0  0  0  0  0  0  0  0  0
   16.4922  -11.3132  -14.8024 C   0  0  0  0  0  0  0  0  0  0  0  0
   14.9701  -12.0722  -14.1164 S   0  0  0  0  0  0  0  0  0  0  0  0
   17.1877   -9.6260  -16.3821 C   0  0  0  0  0  0  0  0  0  0  0  0
   18.3135  -10.0455  -16.7550 O   0  0  0  0  0  0  0  0  0  0  0  0
   17.3339   -5.8819  -16.4262 C   0  0  0  0  0  0  0  0  0  0  0  0
   18.0275   -7.2436  -16.5769 C   0  0  2  0  0  0  0  0  0  0  0  0
   17.0225   -8.2328  -16.2393 N   0  0  0  0  0  0  0  0  0  0  0  0
   19.1223   -7.3508  -15.5658 C   0  0  0  0  0  0  0  0  0  0  0  0
   18.9113   -7.8157  -14.4011 O   0  0  0  0  0  0  0  0  0  0  0  0
   25.9783  -10.3530  -14.1324 C   0  0  0  0  0  0  0  0  0  0  0  0
   24.5977   -9.9697  -15.2367 S   0  0  0  0  0  0  0  0  0  0  0  0
   23.5891   -8.5902  -14.5878 C   0  0  0  0  0  0  0  0  0  0  0  0
   22.3931   -8.3445  -15.4661 C   0  0  0  0  0  0  0  0  0  0  0  0
   21.5585   -7.2284  -14.9279 C   0  0  2  0  0  0  0  0  0  0  0  0
   20.4461   -6.9407  -15.8540 N   0  0  0  0  0  0  0  0  0  0  0  0
   22.3545   -5.9951  -14.8241 C   0  0  0  0  0  0  0  0  0  0  0  0
   23.0338   -5.7468  -13.6129 O   0  0  0  0  0  0  0  0  0  0  0  0
   22.4851   -5.1309  -15.7312 O   0  0  0  0  0  0  0  0  0  0  0  0
  2  1  1  6
  3  2  1  0
  4  3  1  0
  5  2  1  0
  6  5  2  0
  8  7  1  1
  8 10  1  0
  8  9  1  0
  9  5  1  0
 10 11  2  0
 13 12  1  0
 13 14  1  0
 14 15  1  0
 16 15  1  6
 17 16  1  0
 17 10  1  0
 18 19  1  0
 18 16  1  0
 20 18  2  0
M  END
$$$$
