CAM.pdb
     RDKit          3D

 20 19  0  0  1  0  0  0  0  0999 V2000
   20.5917  -20.3595  -14.2928 N   0  0  0  0  0  0  0  0  0  0  0  0
   21.4788  -19.5586  -13.4751 C   0  0  1  0  0  0  0  0  0  0  0  0
   20.5656  -18.7448  -12.5491 C   0  0  0  0  0  0  0  0  0  0  0  0
   20.2113  -17.1400  -13.3631 S   0  0  0  0  0  0  0  0  0  0  0  0
   22.3350  -20.3856  -12.5997 C   0  0  0  0  0  0  0  0  0  0  0  0
   21.7935  -20.9692  -11.6258 O   0  0  0  0  0  0  0  0  0  0  0  0
   25.3840  -22.2589  -12.9517 C   0  0  0  0  0  0  0  0  0  0  0  0
   24.5576  -21.4225  -11.9640 C   0  0  2  0  0  0  0  0  0  0  0  0
   23.7217  -20.5657  -12.7824 N   0  0  0  0  0  0  0  0  0  0  0  0
   25.4750  -20.5412  -11.1804 C   0  0  0  0  0  0  0  0  0  0  0  0
   25.9630  -19.4769  -11.6771 O   0  0  0  0  0  0  0  0  0  0  0  0
   29.1568  -18.7565   -4.4078 C   0  0  0  0  0  0  0  0  0  0  0  0
   27.9769  -19.8475   -5.2384 S   0  0  0  0  0  0  0  0  0  0  0  0
   28.1092  -19.7108   -7.0565 C   0  0  0  0  0  0  0  0  0  0  0  0
   26.9209  -20.3435   -7.7270 C   0  0  0  0  0  0  0  0  0  0  0  0
   27.0159  -20.2119   -9.2121 C   0  0  2  0  0  0  0  0  0  0  0  0
   25.8457  -20.8468   -9.8490 N   0  0  0  0  0  0  0  0  0  0  0  0
   28.2068  -20.9150   -9.7153 C   0  0  0  0  0  0  0  0  0  0  0  0
   29.3347  -20.1411  -10.0601 O   0  0  0  0  0  0  0  0  0  0  0  0
   28.3101  -22.1611   -9.8673 O   0  0  0  0  0  0  0  0  0  0  0  0
  2  1  1  6
  3  2  1  0
  4  3  1  0
  5  2  1  0
  6  5  2  0
  8  7  1  6
  8 10  1  0
  8  9  1  0
  9  5  1  0
 10 11  2  0
 13 12  1  0
 13 14  1  0
 14 15  1  0
 16 15  1  1
 17 16  1  0
 17 10  1  0
 18 19  1  0
 18 16  1  0
 20 18  2  0
M  END
$$$$
