CAM.pdb
     RDKit          3D

 20 19  0  0  1  0  0  0  0  0999 V2000
   18.5754  -12.7072  -18.9347 N   0  0  0  0  0  0  0  0  0  0  0  0
   17.6472  -11.7060  -18.4519 C   0  0  1  0  0  0  0  0  0  0  0  0
   17.1580  -12.2177  -17.0908 C   0  0  0  0  0  0  0  0  0  0  0  0
   15.8663  -13.4852  -17.3882 S   0  0  0  0  0  0  0  0  0  0  0  0
   18.3040  -10.4064  -18.2006 C   0  0  0  0  0  0  0  0  0  0  0  0
   19.4968  -10.4157  -17.8013 O   0  0  0  0  0  0  0  0  0  0  0  0
   17.3099   -6.8179  -18.6381 C   0  0  0  0  0  0  0  0  0  0  0  0
   18.3493   -7.8734  -18.2336 C   0  0  2  0  0  0  0  0  0  0  0  0
   17.6827   -9.1529  -18.3786 N   0  0  0  0  0  0  0  0  0  0  0  0
   18.6853   -7.7019  -16.7879 C   0  0  0  0  0  0  0  0  0  0  0  0
   18.0277   -8.2955  -15.8754 O   0  0  0  0  0  0  0  0  0  0  0  0
   22.8519   -9.1168  -10.8530 C   0  0  0  0  0  0  0  0  0  0  0  0
   22.6134   -9.0559  -12.6451 S   0  0  0  0  0  0  0  0  0  0  0  0
   21.4844   -7.6993  -13.1209 C   0  0  0  0  0  0  0  0  0  0  0  0
   21.0410   -7.8506  -14.5501 C   0  0  0  0  0  0  0  0  0  0  0  0
   20.1078   -6.7499  -14.9367 C   0  0  2  0  0  0  0  0  0  0  0  0
   19.7502   -6.8717  -16.3633 N   0  0  0  0  0  0  0  0  0  0  0  0
   20.7607   -5.4413  -14.7728 C   0  0  0  0  0  0  0  0  0  0  0  0
   21.1596   -4.7512  -15.9368 O   0  0  0  0  0  0  0  0  0  0  0  0
   20.9980   -4.8754  -13.6727 O   0  0  0  0  0  0  0  0  0  0  0  0
  2  1  1  1
  3  2  1  0
  4  3  1  0
  5  2  1  0
  6  5  2  0
  8  7  1  1
  8 10  1  0
  8  9  1  0
  9  5  1  0
 10 11  2  0
 13 12  1  0
 13 14  1  0
 14 15  1  0
 16 15  1  6
 17 16  1  0
 17 10  1  0
 18 19  1  0
 18 16  1  0
 20 18  2  0
M  END
$$$$
