CAM.pdb
     RDKit          3D

 20 19  0  0  1  0  0  0  0  0999 V2000
   35.2397  -25.3743  -16.8742 N   0  0  0  0  0  0  0  0  0  0  0  0
   34.5728  -26.6090  -16.5167 C   0  0  1  0  0  0  0  0  0  0  0  0
   34.2271  -26.4762  -15.0278 C   0  0  0  0  0  0  0  0  0  0  0  0
   35.7842  -26.6005  -14.0670 S   0  0  0  0  0  0  0  0  0  0  0  0
   33.2913  -26.7822  -17.2316 C   0  0  0  0  0  0  0  0  0  0  0  0
   32.5891  -25.7595  -17.4398 O   0  0  0  0  0  0  0  0  0  0  0  0
   31.5425  -29.6730  -18.8559 C   0  0  0  0  0  0  0  0  0  0  0  0
   31.5861  -28.1868  -18.4720 C   0  0  2  0  0  0  0  0  0  0  0  0
   32.8007  -28.0194  -17.6978 N   0  0  0  0  0  0  0  0  0  0  0  0
   30.4331  -27.8785  -17.5731 C   0  0  0  0  0  0  0  0  0  0  0  0
   30.4165  -28.2524  -16.3577 O   0  0  0  0  0  0  0  0  0  0  0  0
   24.7628  -22.7992  -15.6709 C   0  0  0  0  0  0  0  0  0  0  0  0
   26.1898  -23.2527  -16.6860 S   0  0  0  0  0  0  0  0  0  0  0  0
   26.6663  -24.9978  -16.4234 C   0  0  0  0  0  0  0  0  0  0  0  0
   27.8662  -25.3546  -17.2569 C   0  0  0  0  0  0  0  0  0  0  0  0
   28.1977  -26.8047  -17.1186 C   0  0  2  0  0  0  0  0  0  0  0  0
   29.3043  -27.1566  -18.0293 N   0  0  0  0  0  0  0  0  0  0  0  0
   27.0466  -27.6345  -17.5084 C   0  0  0  0  0  0  0  0  0  0  0  0
   26.1354  -28.0157  -16.5011 O   0  0  0  0  0  0  0  0  0  0  0  0
   26.7993  -28.0396  -18.6751 O   0  0  0  0  0  0  0  0  0  0  0  0
  2  1  1  6
  3  2  1  0
  4  3  1  0
  5  2  1  0
  6  5  2  0
  8  7  1  1
  8 10  1  0
  8  9  1  0
  9  5  1  0
 10 11  2  0
 13 12  1  0
 13 14  1  0
 14 15  1  0
 16 15  1  6
 17 16  1  0
 17 10  1  0
 18 19  1  0
 18 16  1  0
 20 18  2  0
M  END
$$$$
