CAM.pdb
     RDKit          3D

 20 19  0  0  1  0  0  0  0  0999 V2000
   22.9256  -19.8449  -15.6239 N   0  0  0  0  0  0  0  0  0  0  0  0
   23.3726  -19.6405  -14.2618 C   0  0  1  0  0  0  0  0  0  0  0  0
   22.3680  -20.3933  -13.3796 C   0  0  0  0  0  0  0  0  0  0  0  0
   22.0284  -19.3671  -11.8981 S   0  0  0  0  0  0  0  0  0  0  0  0
   24.6943  -20.2501  -14.0072 C   0  0  0  0  0  0  0  0  0  0  0  0
   24.7924  -21.5015  -14.0893 O   0  0  0  0  0  0  0  0  0  0  0  0
   28.1486  -18.9380  -13.4269 C   0  0  0  0  0  0  0  0  0  0  0  0
   27.1591  -20.1121  -13.4371 C   0  0  2  0  0  0  0  0  0  0  0  0
   25.8565  -19.5224  -13.6778 N   0  0  0  0  0  0  0  0  0  0  0  0
   27.1265  -20.7378  -12.0807 C   0  0  0  0  0  0  0  0  0  0  0  0
   28.1275  -21.3672  -11.6125 O   0  0  0  0  0  0  0  0  0  0  0  0
   28.0345  -19.5447   -4.9506 C   0  0  0  0  0  0  0  0  0  0  0  0
   27.8647  -19.0892   -6.6930 S   0  0  0  0  0  0  0  0  0  0  0  0
   26.8293  -20.2932   -7.5984 C   0  0  0  0  0  0  0  0  0  0  0  0
   26.8478  -20.0088   -9.0751 C   0  0  0  0  0  0  0  0  0  0  0  0
   26.0432  -21.0221   -9.8219 C   0  0  2  0  0  0  0  0  0  0  0  0
   25.9819  -20.6612  -11.2516 N   0  0  0  0  0  0  0  0  0  0  0  0
   24.6567  -21.0421   -9.3292 C   0  0  0  0  0  0  0  0  0  0  0  0
   24.4179  -21.5850   -8.0492 O   0  0  0  0  0  0  0  0  0  0  0  0
   23.6520  -20.6126   -9.9559 O   0  0  0  0  0  0  0  0  0  0  0  0
  2  1  1  6
  3  2  1  0
  4  3  1  0
  5  2  1  0
  6  5  2  0
  8  7  1  1
  8 10  1  0
  8  9  1  0
  9  5  1  0
 10 11  2  0
 13 12  1  0
 13 14  1  0
 14 15  1  0
 16 15  1  1
 17 16  1  0
 17 10  1  0
 18 19  1  0
 18 16  1  0
 20 18  2  0
M  END
$$$$
