CAM.pdb
     RDKit          3D

 20 19  0  0  1  0  0  0  0  0999 V2000
   17.7882  -12.2141  -16.5883 N   0  0  0  0  0  0  0  0  0  0  0  0
   17.5375  -11.0790  -15.7248 C   0  0  1  0  0  0  0  0  0  0  0  0
   17.9038  -11.5466  -14.3102 C   0  0  0  0  0  0  0  0  0  0  0  0
   16.5284  -12.5813  -13.6771 S   0  0  0  0  0  0  0  0  0  0  0  0
   18.4212   -9.9349  -16.0309 C   0  0  0  0  0  0  0  0  0  0  0  0
   19.6233  -10.1766  -16.3116 O   0  0  0  0  0  0  0  0  0  0  0  0
   17.8394   -6.3092  -16.6954 C   0  0  0  0  0  0  0  0  0  0  0  0
   18.8176   -7.4743  -16.4862 C   0  0  2  0  0  0  0  0  0  0  0  0
   18.0073   -8.5868  -16.0298 N   0  0  0  0  0  0  0  0  0  0  0  0
   19.7662   -7.1266  -15.3855 C   0  0  0  0  0  0  0  0  0  0  0  0
   19.4479   -7.2657  -14.1620 O   0  0  0  0  0  0  0  0  0  0  0  0
   25.3588  -10.6232  -15.1040 C   0  0  0  0  0  0  0  0  0  0  0  0
   25.2007   -8.8255  -15.2284 S   0  0  0  0  0  0  0  0  0  0  0  0
   23.5309   -8.2681  -14.7358 C   0  0  0  0  0  0  0  0  0  0  0  0
   23.3826   -6.7850  -14.9364 C   0  0  0  0  0  0  0  0  0  0  0  0
   22.0107   -6.3315  -14.5568 C   0  0  2  0  0  0  0  0  0  0  0  0
   21.0635   -6.6259  -15.6495 N   0  0  0  0  0  0  0  0  0  0  0  0
   21.9882   -4.8738  -14.3565 C   0  0  0  0  0  0  0  0  0  0  0  0
   22.5485   -4.3613  -13.1676 O   0  0  0  0  0  0  0  0  0  0  0  0
   21.5077   -4.0327  -15.1616 O   0  0  0  0  0  0  0  0  0  0  0  0
  2  1  1  6
  3  2  1  0
  4  3  1  0
  5  2  1  0
  6  5  2  0
  8  7  1  1
  8 10  1  0
  8  9  1  0
  9  5  1  0
 10 11  2  0
 13 12  1  0
 13 14  1  0
 14 15  1  0
 16 15  1  6
 17 16  1  0
 17 10  1  0
 18 19  1  0
 18 16  1  0
 20 18  2  0
M  END
$$$$
