CAM.pdb
     RDKit          3D

 20 19  0  0  1  0  0  0  0  0999 V2000
   18.7854  -10.7732  -16.2238 N   0  0  0  0  0  0  0  0  0  0  0  0
   20.0489  -10.1513  -15.8862 C   0  0  1  0  0  0  0  0  0  0  0  0
   20.7520   -9.8901  -17.2246 C   0  0  0  0  0  0  0  0  0  0  0  0
   21.4932  -11.4668  -17.7971 S   0  0  0  0  0  0  0  0  0  0  0  0
   19.8715   -8.8339  -15.2409 C   0  0  0  0  0  0  0  0  0  0  0  0
   19.0669   -8.0228  -15.7673 O   0  0  0  0  0  0  0  0  0  0  0  0
   20.9748   -7.3509  -11.9923 C   0  0  0  0  0  0  0  0  0  0  0  0
   20.2660   -7.1990  -13.3460 C   0  0  2  0  0  0  0  0  0  0  0  0
   20.5445   -8.4231  -14.0717 N   0  0  0  0  0  0  0  0  0  0  0  0
   20.8921   -6.0738  -14.1038 C   0  0  0  0  0  0  0  0  0  0  0  0
   21.9301   -6.2468  -14.8179 O   0  0  0  0  0  0  0  0  0  0  0  0
   21.9117   -3.3183  -20.2446 C   0  0  0  0  0  0  0  0  0  0  0  0
   20.6493   -3.4789  -18.9590 S   0  0  0  0  0  0  0  0  0  0  0  0
   21.3980   -3.5216  -17.2920 C   0  0  0  0  0  0  0  0  0  0  0  0
   20.3383   -3.6660  -16.2346 C   0  0  0  0  0  0  0  0  0  0  0  0
   20.9461   -3.6723  -14.8699 C   0  0  2  0  0  0  0  0  0  0  0  0
   20.3618   -4.7620  -14.0643 N   0  0  0  0  0  0  0  0  0  0  0  0
   20.6439   -2.4154  -14.1668 C   0  0  0  0  0  0  0  0  0  0  0  0
   21.6058   -1.3845  -14.2129 O   0  0  0  0  0  0  0  0  0  0  0  0
   19.5902   -2.1748  -13.5198 O   0  0  0  0  0  0  0  0  0  0  0  0
  2  1  1  6
  3  2  1  0
  4  3  1  0
  5  2  1  0
  6  5  2  0
  8  7  1  1
  8 10  1  0
  8  9  1  0
  9  5  1  0
 10 11  2  0
 13 12  1  0
 13 14  1  0
 14 15  1  0
 16 15  1  6
 17 16  1  0
 17 10  1  0
 18 19  1  0
 18 16  1  0
 20 18  2  0
M  END
$$$$
