CAM.pdb
     RDKit          3D

 20 19  0  0  1  0  0  0  0  0999 V2000
   22.8056  -21.7859  -13.5542 N   0  0  0  0  0  0  0  0  0  0  0  0
   23.7119  -20.7174  -13.1881 C   0  0  1  0  0  0  0  0  0  0  0  0
   22.8271  -19.6026  -12.6153 C   0  0  0  0  0  0  0  0  0  0  0  0
   21.9911  -20.2504  -11.1171 S   0  0  0  0  0  0  0  0  0  0  0  0
   24.6398  -21.1136  -12.1085 C   0  0  0  0  0  0  0  0  0  0  0  0
   24.1882  -21.8239  -11.1737 O   0  0  0  0  0  0  0  0  0  0  0  0
   28.3394  -20.9727  -11.6811 C   0  0  0  0  0  0  0  0  0  0  0  0
   26.9527  -21.2517  -11.0835 C   0  0  2  0  0  0  0  0  0  0  0  0
   26.0009  -20.7486  -12.0549 N   0  0  0  0  0  0  0  0  0  0  0  0
   26.7870  -20.4500   -9.8337 C   0  0  0  0  0  0  0  0  0  0  0  0
   26.3278  -19.2643   -9.8579 O   0  0  0  0  0  0  0  0  0  0  0  0
   26.7349  -22.7052   -3.5400 C   0  0  0  0  0  0  0  0  0  0  0  0
   27.6473  -21.1482   -3.4152 S   0  0  0  0  0  0  0  0  0  0  0  0
   27.4063  -20.1139   -4.9029 C   0  0  0  0  0  0  0  0  0  0  0  0
   27.3782  -20.9628   -6.1442 C   0  0  0  0  0  0  0  0  0  0  0  0
   27.0713  -20.1338   -7.3485 C   0  0  2  0  0  0  0  0  0  0  0  0
   27.1324  -20.9697   -8.5632 N   0  0  0  0  0  0  0  0  0  0  0  0
   28.0777  -19.0726   -7.5121 C   0  0  0  0  0  0  0  0  0  0  0  0
   29.2733  -19.3942   -8.1884 O   0  0  0  0  0  0  0  0  0  0  0  0
   27.9655  -17.8886   -7.0973 O   0  0  0  0  0  0  0  0  0  0  0  0
  2  1  1  1
  3  2  1  0
  4  3  1  0
  5  2  1  0
  6  5  2  0
  8  7  1  6
  8 10  1  0
  8  9  1  0
  9  5  1  0
 10 11  2  0
 13 12  1  0
 13 14  1  0
 14 15  1  0
 16 15  1  1
 17 16  1  0
 17 10  1  0
 18 19  1  0
 18 16  1  0
 20 18  2  0
M  END
$$$$
