CAM.pdb
     RDKit          3D

 20 19  0  0  1  0  0  0  0  0999 V2000
   32.7557  -20.9869  -12.3526 N   0  0  0  0  0  0  0  0  0  0  0  0
   31.5295  -21.7544  -12.2852 C   0  0  1  0  0  0  0  0  0  0  0  0
   31.7227  -22.7414  -11.1266 C   0  0  0  0  0  0  0  0  0  0  0  0
   33.0730  -23.8966  -11.5801 S   0  0  0  0  0  0  0  0  0  0  0  0
   30.3626  -20.9184  -11.9346 C   0  0  0  0  0  0  0  0  0  0  0  0
   30.4366  -20.2062  -10.9004 O   0  0  0  0  0  0  0  0  0  0  0  0
   27.1536  -20.0151  -13.6195 C   0  0  0  0  0  0  0  0  0  0  0  0
   28.0270  -20.0319  -12.3566 C   0  0  2  0  0  0  0  0  0  0  0  0
   29.1684  -20.8645  -12.6828 N   0  0  0  0  0  0  0  0  0  0  0  0
   27.2792  -20.7054  -11.2522 C   0  0  0  0  0  0  0  0  0  0  0  0
   27.1435  -21.9693  -11.2126 O   0  0  0  0  0  0  0  0  0  0  0  0
   28.4464  -18.8577   -5.4542 C   0  0  0  0  0  0  0  0  0  0  0  0
   26.9316  -19.7513   -5.0311 S   0  0  0  0  0  0  0  0  0  0  0  0
   26.1867  -20.5347   -6.5052 C   0  0  0  0  0  0  0  0  0  0  0  0
   26.7490  -19.9402   -7.7671 C   0  0  0  0  0  0  0  0  0  0  0  0
   26.2067  -20.6382   -8.9714 C   0  0  2  0  0  0  0  0  0  0  0  0
   26.6859  -19.9712  -10.1975 N   0  0  0  0  0  0  0  0  0  0  0  0
   24.7373  -20.5607   -8.9923 C   0  0  0  0  0  0  0  0  0  0  0  0
   24.0204  -21.3548   -8.0727 O   0  0  0  0  0  0  0  0  0  0  0  0
   24.0543  -19.8398   -9.7673 O   0  0  0  0  0  0  0  0  0  0  0  0
  2  1  1  1
  3  2  1  0
  4  3  1  0
  5  2  1  0
  6  5  2  0
  8  7  1  6
  8 10  1  0
  8  9  1  0
  9  5  1  0
 10 11  2  0
 13 12  1  0
 13 14  1  0
 14 15  1  0
 16 15  1  1
 17 16  1  0
 17 10  1  0
 18 19  1  0
 18 16  1  0
 20 18  2  0
M  END
$$$$
