CAM.pdb
     RDKit          3D

 20 19  0  0  1  0  0  0  0  0999 V2000
   19.2936  -19.5526  -14.0176 N   0  0  0  0  0  0  0  0  0  0  0  0
   20.4847  -18.7425  -14.1660 C   0  0  1  0  0  0  0  0  0  0  0  0
   20.7169  -18.0936  -12.7953 C   0  0  0  0  0  0  0  0  0  0  0  0
   19.4866  -16.7501  -12.5841 S   0  0  0  0  0  0  0  0  0  0  0  0
   21.6844  -19.5557  -14.4543 C   0  0  0  0  0  0  0  0  0  0  0  0
   22.0928  -20.3417  -13.5611 O   0  0  0  0  0  0  0  0  0  0  0  0
   23.7097  -20.2650  -17.5059 C   0  0  0  0  0  0  0  0  0  0  0  0
   23.5419  -20.3523  -15.9820 C   0  0  2  0  0  0  0  0  0  0  0  0
   22.4044  -19.5104  -15.6660 N   0  0  0  0  0  0  0  0  0  0  0  0
   24.7416  -19.7549  -15.3216 C   0  0  0  0  0  0  0  0  0  0  0  0
   24.8479  -18.5005  -15.1407 O   0  0  0  0  0  0  0  0  0  0  0  0
   30.5401  -20.6235  -10.0859 C   0  0  0  0  0  0  0  0  0  0  0  0
   29.1595  -21.3570  -10.9959 S   0  0  0  0  0  0  0  0  0  0  0  0
   28.6835  -20.3262  -12.4285 C   0  0  0  0  0  0  0  0  0  0  0  0
   27.4577  -20.8806  -13.1010 C   0  0  0  0  0  0  0  0  0  0  0  0
   26.9775  -19.9593  -14.1745 C   0  0  2  0  0  0  0  0  0  0  0  0
   25.8172  -20.5541  -14.8657 N   0  0  0  0  0  0  0  0  0  0  0  0
   28.0236  -19.7651  -15.1911 C   0  0  0  0  0  0  0  0  0  0  0  0
   28.8739  -18.6472  -15.0593 O   0  0  0  0  0  0  0  0  0  0  0  0
   28.2302  -20.5171  -16.1803 O   0  0  0  0  0  0  0  0  0  0  0  0
  2  1  1  1
  3  2  1  0
  4  3  1  0
  5  2  1  0
  6  5  2  0
  8  7  1  6
  8 10  1  0
  8  9  1  0
  9  5  1  0
 10 11  2  0
 13 12  1  0
 13 14  1  0
 14 15  1  0
 16 15  1  1
 17 16  1  0
 17 10  1  0
 18 19  1  0
 18 16  1  0
 20 18  2  0
M  END
$$$$
