CAM.pdb
     RDKit          3D

 20 19  0  0  1  0  0  0  0  0999 V2000
   26.5582  -16.9481  -16.6486 N   0  0  0  0  0  0  0  0  0  0  0  0
   27.0287  -17.1613  -15.2957 C   0  0  1  0  0  0  0  0  0  0  0  0
   26.3654  -16.0666  -14.4498 C   0  0  0  0  0  0  0  0  0  0  0  0
   27.2692  -14.4970  -14.7373 S   0  0  0  0  0  0  0  0  0  0  0  0
   26.5751  -18.4535  -14.7408 C   0  0  0  0  0  0  0  0  0  0  0  0
   25.3670  -18.7691  -14.8924 O   0  0  0  0  0  0  0  0  0  0  0  0
   28.0988  -21.6355  -14.0564 C   0  0  0  0  0  0  0  0  0  0  0  0
   26.9963  -20.6725  -13.5927 C   0  0  2  0  0  0  0  0  0  0  0  0
   27.4070  -19.3595  -14.0509 N   0  0  0  0  0  0  0  0  0  0  0  0
   26.9696  -20.6403  -12.0991 C   0  0  0  0  0  0  0  0  0  0  0  0
   28.0174  -20.4030  -11.4185 O   0  0  0  0  0  0  0  0  0  0  0  0
   29.0555  -19.0547   -7.2804 C   0  0  0  0  0  0  0  0  0  0  0  0
   27.3208  -19.0834   -6.7682 S   0  0  0  0  0  0  0  0  0  0  0  0
   26.3736  -20.3428   -7.6945 C   0  0  0  0  0  0  0  0  0  0  0  0
   26.5551  -20.1636   -9.1767 C   0  0  0  0  0  0  0  0  0  0  0  0
   25.8117  -21.2149   -9.9345 C   0  0  2  0  0  0  0  0  0  0  0  0
   25.7791  -20.8720  -11.3695 N   0  0  0  0  0  0  0  0  0  0  0  0
   24.4131  -21.2824   -9.4820 C   0  0  0  0  0  0  0  0  0  0  0  0
   24.1618  -21.7673   -8.1813 O   0  0  0  0  0  0  0  0  0  0  0  0
   23.4081  -20.9416  -10.1607 O   0  0  0  0  0  0  0  0  0  0  0  0
  2  1  1  6
  3  2  1  0
  4  3  1  0
  5  2  1  0
  6  5  2  0
  8  7  1  1
  8 10  1  0
  8  9  1  0
  9  5  1  0
 10 11  2  0
 13 12  1  0
 13 14  1  0
 14 15  1  0
 16 15  1  1
 17 16  1  0
 17 10  1  0
 18 19  1  0
 18 16  1  0
 20 18  2  0
M  END
$$$$
