CAM.pdb
     RDKit          3D

 20 19  0  0  1  0  0  0  0  0999 V2000
   22.1894  -34.8488   -5.5642 N   0  0  0  0  0  0  0  0  0  0  0  0
   22.9093  -33.8512   -4.8003 C   0  0  1  0  0  0  0  0  0  0  0  0
   21.9363  -33.3835   -3.7101 C   0  0  0  0  0  0  0  0  0  0  0  0
   20.6245  -32.3805   -4.5079 S   0  0  0  0  0  0  0  0  0  0  0  0
   24.0819  -34.4173   -4.1019 C   0  0  0  0  0  0  0  0  0  0  0  0
   23.9970  -35.5938   -3.6649 O   0  0  0  0  0  0  0  0  0  0  0  0
   27.5473  -33.2036   -3.3397 C   0  0  0  0  0  0  0  0  0  0  0  0
   26.4728  -34.2985   -3.2719 C   0  0  2  0  0  0  0  0  0  0  0  0
   25.2932  -33.7264   -3.8915 N   0  0  0  0  0  0  0  0  0  0  0  0
   26.1418  -34.5728   -1.8410 C   0  0  0  0  0  0  0  0  0  0  0  0
   25.3636  -33.8150   -1.1795 O   0  0  0  0  0  0  0  0  0  0  0  0
   26.6364  -39.5759    4.3346 C   0  0  0  0  0  0  0  0  0  0  0  0
   27.0092  -39.2423    2.5962 S   0  0  0  0  0  0  0  0  0  0  0  0
   26.5287  -37.5423    2.1264 C   0  0  0  0  0  0  0  0  0  0  0  0
   26.7868  -37.2994    0.6648 C   0  0  0  0  0  0  0  0  0  0  0  0
   26.4090  -35.9055    0.2825 C   0  0  2  0  0  0  0  0  0  0  0  0
   26.6771  -35.6875   -1.1523 N   0  0  0  0  0  0  0  0  0  0  0  0
   27.2276  -34.9304    1.0204 C   0  0  0  0  0  0  0  0  0  0  0  0
   26.6953  -34.3841    2.2071 O   0  0  0  0  0  0  0  0  0  0  0  0
   28.3751  -34.5353    0.6830 O   0  0  0  0  0  0  0  0  0  0  0  0
  2  1  1  6
  3  2  1  0
  4  3  1  0
  5  2  1  0
  6  5  2  0
  8  7  1  1
  8 10  1  0
  8  9  1  0
  9  5  1  0
 10 11  2  0
 13 12  1  0
 13 14  1  0
 14 15  1  0
 16 15  1  1
 17 16  1  0
 17 10  1  0
 18 19  1  0
 18 16  1  0
 20 18  2  0
M  END
$$$$
