VMT.pdb
     RDKit          3D

 23 22  0  0  1  0  0  0  0  0999 V2000
    8.1780  -16.9951   20.3159 C   0  0  0  0  0  0  0  0  0  0  0  0
    7.0491  -16.0001   20.4068 C   0  0  2  0  0  0  0  0  0  0  0  0
    6.4260  -15.8974   19.0217 C   0  0  0  0  0  0  0  0  0  0  0  0
    7.5269  -14.6254   20.7751 C   0  0  2  0  0  0  0  0  0  0  0  0
    8.4437  -14.1804   19.7532 N   0  0  0  0  0  0  0  0  0  0  0  0
    8.1803  -14.5757   22.1089 C   0  0  0  0  0  0  0  0  0  0  0  0
    9.4381  -14.6789   22.2446 O   0  0  0  0  0  0  0  0  0  0  0  0
    7.3268  -11.4282   27.9706 C   0  0  0  0  0  0  0  0  0  0  0  0
    6.0170  -11.6011   26.7247 S   0  0  0  0  0  0  0  0  0  0  0  0
    6.7318  -12.4492   25.2990 C   0  0  0  0  0  0  0  0  0  0  0  0
    7.0253  -13.8878   25.6762 C   0  0  0  0  0  0  0  0  0  0  0  0
    7.9707  -14.4471   24.6290 C   0  0  2  0  0  0  0  0  0  0  0  0
    7.4331  -14.4097   23.3061 N   0  0  0  0  0  0  0  0  0  0  0  0
    8.3506  -15.8101   25.0777 C   0  0  0  0  0  0  0  0  0  0  0  0
    7.4322  -16.6767   25.0732 O   0  0  0  0  0  0  0  0  0  0  0  0
   10.2789  -18.4230   23.5741 C   0  0  0  0  0  0  0  0  0  0  0  0
   10.8437  -18.2514   24.9664 C   0  0  1  0  0  0  0  0  0  0  0  0
   12.0677  -17.6323   24.9063 O   0  0  0  0  0  0  0  0  0  0  0  0
    9.8634  -17.5745   25.8970 C   0  0  2  0  0  0  0  0  0  0  0  0
    9.6332  -16.1864   25.4960 N   0  0  0  0  0  0  0  0  0  0  0  0
   10.3607  -17.6413   27.2824 C   0  0  0  0  0  0  0  0  0  0  0  0
   10.5538  -18.8591   27.8912 O   0  0  0  0  0  0  0  0  0  0  0  0
   10.6074  -16.5926   27.9055 O   0  0  0  0  0  0  0  0  0  0  0  0
  2  1  1  6
  2  4  1  0
  2  3  1  0
  4  6  1  0
  4  5  1  6
  6 13  1  0
  6  7  2  0
  8  9  1  0
 10  9  1  0
 11 10  1  0
 12 14  1  0
 12 11  1  1
 13 12  1  0
 14 15  2  0
 17 16  1  6
 17 18  1  0
 17 19  1  0
 19 20  1  6
 20 14  1  0
 21 19  1  0
 22 21  1  0
 23 21  2  0
M  END
$$$$
