VMT.pdb
     RDKit          3D

 23 22  0  0  1  0  0  0  0  0999 V2000
    7.2462  -21.2012   23.3934 C   0  0  0  0  0  0  0  0  0  0  0  0
    6.1175  -20.9007   24.3465 C   0  0  2  0  0  0  0  0  0  0  0  0
    5.2134  -22.1251   24.3751 C   0  0  0  0  0  0  0  0  0  0  0  0
    5.2755  -19.7451   23.8893 C   0  0  2  0  0  0  0  0  0  0  0  0
    4.6434  -20.1150   22.6457 N   0  0  0  0  0  0  0  0  0  0  0  0
    6.0544  -18.4913   23.7169 C   0  0  0  0  0  0  0  0  0  0  0  0
    6.6227  -18.1994   22.6202 O   0  0  0  0  0  0  0  0  0  0  0  0
    7.9317  -11.3292   26.3088 C   0  0  0  0  0  0  0  0  0  0  0  0
    6.9906  -12.8286   26.7137 S   0  0  0  0  0  0  0  0  0  0  0  0
    7.4613  -14.1034   25.5238 C   0  0  0  0  0  0  0  0  0  0  0  0
    6.6404  -15.3506   25.7856 C   0  0  0  0  0  0  0  0  0  0  0  0
    6.9961  -16.3613   24.7108 C   0  0  2  0  0  0  0  0  0  0  0  0
    6.2060  -17.5499   24.7705 N   0  0  0  0  0  0  0  0  0  0  0  0
    8.4550  -16.6114   24.8224 C   0  0  0  0  0  0  0  0  0  0  0  0
    8.8320  -17.2860   25.8211 O   0  0  0  0  0  0  0  0  0  0  0  0
   10.6345  -17.9187   21.8240 C   0  0  0  0  0  0  0  0  0  0  0  0
   11.3782  -16.8764   22.6287 C   0  0  1  0  0  0  0  0  0  0  0  0
   11.4893  -15.7136   21.9071 O   0  0  0  0  0  0  0  0  0  0  0  0
   10.7779  -16.6858   24.0030 C   0  0  2  0  0  0  0  0  0  0  0  0
    9.4169  -16.1568   23.9114 N   0  0  0  0  0  0  0  0  0  0  0  0
   11.6325  -15.7907   24.8026 C   0  0  0  0  0  0  0  0  0  0  0  0
   12.9192  -16.1598   25.1174 O   0  0  0  0  0  0  0  0  0  0  0  0
   11.1897  -14.6958   25.1955 O   0  0  0  0  0  0  0  0  0  0  0  0
  2  1  1  6
  2  4  1  0
  2  3  1  0
  4  6  1  0
  4  5  1  6
  6 13  1  0
  6  7  2  0
  8  9  1  0
 10  9  1  0
 11 10  1  0
 12 14  1  0
 12 11  1  1
 13 12  1  0
 14 15  2  0
 17 16  1  6
 17 18  1  0
 17 19  1  0
 19 20  1  6
 20 14  1  0
 21 19  1  0
 22 21  1  0
 23 21  2  0
M  END
$$$$
