VMT.pdb
     RDKit          3D

 23 22  0  0  1  0  0  0  0  0999 V2000
    7.4484  -14.8228   18.0875 C   0  0  0  0  0  0  0  0  0  0  0  0
    7.9360  -14.9252   19.5103 C   0  0  2  0  0  0  0  0  0  0  0  0
    7.1788  -16.0721   20.1649 C   0  0  0  0  0  0  0  0  0  0  0  0
    7.6351  -13.6897   20.3081 C   0  0  2  0  0  0  0  0  0  0  0  0
    8.1976  -12.5578   19.6113 N   0  0  0  0  0  0  0  0  0  0  0  0
    8.1619  -13.7522   21.6963 C   0  0  0  0  0  0  0  0  0  0  0  0
    9.4039  -13.6786   21.9471 O   0  0  0  0  0  0  0  0  0  0  0  0
    6.5644  -10.0828   27.0431 C   0  0  0  0  0  0  0  0  0  0  0  0
    6.6728  -11.8950   27.0005 S   0  0  0  0  0  0  0  0  0  0  0  0
    6.4418  -12.4130   25.2856 C   0  0  0  0  0  0  0  0  0  0  0  0
    6.6456  -13.9121   25.1909 C   0  0  0  0  0  0  0  0  0  0  0  0
    7.7302  -14.1577   24.1581 C   0  0  2  0  0  0  0  0  0  0  0  0
    7.3040  -13.8978   22.8197 N   0  0  0  0  0  0  0  0  0  0  0  0
    8.2169  -15.5443   24.3681 C   0  0  0  0  0  0  0  0  0  0  0  0
    7.3772  -16.4672   24.1739 O   0  0  0  0  0  0  0  0  0  0  0  0
   12.0830  -16.6858   23.8266 C   0  0  0  0  0  0  0  0  0  0  0  0
   10.9259  -17.6595   23.8212 C   0  0  1  0  0  0  0  0  0  0  0  0
   11.3914  -18.9465   23.9314 O   0  0  0  0  0  0  0  0  0  0  0  0
    9.8774  -17.3005   24.8492 C   0  0  2  0  0  0  0  0  0  0  0  0
    9.5180  -15.8851   24.7589 N   0  0  0  0  0  0  0  0  0  0  0  0
   10.3673  -17.6289   26.1994 C   0  0  0  0  0  0  0  0  0  0  0  0
   10.7132  -18.9216   26.5157 O   0  0  0  0  0  0  0  0  0  0  0  0
   10.4691  -16.7340   27.0584 O   0  0  0  0  0  0  0  0  0  0  0  0
  2  1  1  6
  2  4  1  0
  2  3  1  0
  4  6  1  0
  4  5  1  6
  6 13  1  0
  6  7  2  0
  8  9  1  0
 10  9  1  0
 11 10  1  0
 12 14  1  0
 12 11  1  1
 13 12  1  0
 14 15  2  0
 17 16  1  1
 17 18  1  0
 17 19  1  0
 19 20  1  1
 20 14  1  0
 21 19  1  0
 22 21  1  0
 23 21  2  0
M  END
$$$$
