VMT.pdb
     RDKit          3D

 23 22  0  0  1  0  0  0  0  0999 V2000
    7.5075  -17.4033   18.6011 C   0  0  0  0  0  0  0  0  0  0  0  0
    8.0337  -17.1028   19.9814 C   0  0  2  0  0  0  0  0  0  0  0  0
    7.0412  -17.6840   20.9786 C   0  0  0  0  0  0  0  0  0  0  0  0
    8.1158  -15.6288   20.2536 C   0  0  2  0  0  0  0  0  0  0  0  0
    8.9625  -15.0334   19.2478 N   0  0  0  0  0  0  0  0  0  0  0  0
    8.6333  -15.3168   21.6113 C   0  0  0  0  0  0  0  0  0  0  0  0
    9.8508  -15.4942   21.9229 O   0  0  0  0  0  0  0  0  0  0  0  0
    6.4256  -10.8354   26.3879 C   0  0  0  0  0  0  0  0  0  0  0  0
    6.5481  -12.5039   27.0942 S   0  0  0  0  0  0  0  0  0  0  0  0
    7.7604  -13.4198   26.1174 C   0  0  0  0  0  0  0  0  0  0  0  0
    7.2087  -13.6360   24.7221 C   0  0  0  0  0  0  0  0  0  0  0  0
    8.2069  -14.4952   23.9681 C   0  0  2  0  0  0  0  0  0  0  0  0
    7.7935  -14.8026   22.6358 N   0  0  0  0  0  0  0  0  0  0  0  0
    8.4579  -15.6958   24.8043 C   0  0  0  0  0  0  0  0  0  0  0  0
    7.4522  -16.4107   25.0725 O   0  0  0  0  0  0  0  0  0  0  0  0
   10.4565  -18.5942   23.8565 C   0  0  0  0  0  0  0  0  0  0  0  0
   10.8729  -18.2341   25.2650 C   0  0  1  0  0  0  0  0  0  0  0  0
   12.1328  -17.6884   25.2599 O   0  0  0  0  0  0  0  0  0  0  0  0
    9.8402  -17.3767   25.9604 C   0  0  2  0  0  0  0  0  0  0  0  0
    9.7103  -16.0762   25.3028 N   0  0  0  0  0  0  0  0  0  0  0  0
   10.2014  -17.2098   27.3790 C   0  0  0  0  0  0  0  0  0  0  0  0
   10.2387  -18.2992   28.2173 O   0  0  0  0  0  0  0  0  0  0  0  0
   10.4742  -16.0791   27.8221 O   0  0  0  0  0  0  0  0  0  0  0  0
  2  1  1  6
  2  4  1  0
  2  3  1  0
  4  6  1  0
  4  5  1  6
  6 13  1  0
  6  7  2  0
  8  9  1  0
 10  9  1  0
 11 10  1  0
 12 14  1  0
 12 11  1  1
 13 12  1  0
 14 15  2  0
 17 16  1  6
 17 18  1  0
 17 19  1  0
 19 20  1  6
 20 14  1  0
 21 19  1  0
 22 21  1  0
 23 21  2  0
M  END
$$$$
