VMT.pdb
     RDKit          3D

 23 22  0  0  1  0  0  0  0  0999 V2000
    6.6589  -19.0791   21.9122 C   0  0  0  0  0  0  0  0  0  0  0  0
    5.5763  -18.0459   22.0941 C   0  0  2  0  0  0  0  0  0  0  0  0
    4.3984  -18.4699   21.2280 C   0  0  0  0  0  0  0  0  0  0  0  0
    5.9995  -16.6851   21.6224 C   0  0  2  0  0  0  0  0  0  0  0  0
    6.2933  -16.7706   20.2119 N   0  0  0  0  0  0  0  0  0  0  0  0
    7.1746  -16.1539   22.3609 C   0  0  0  0  0  0  0  0  0  0  0  0
    8.3526  -16.2341   21.8951 O   0  0  0  0  0  0  0  0  0  0  0  0
    5.6614  -12.3815   27.2934 C   0  0  0  0  0  0  0  0  0  0  0  0
    7.0420  -11.6671   26.3547 S   0  0  0  0  0  0  0  0  0  0  0  0
    7.4333  -12.8082   25.0104 C   0  0  0  0  0  0  0  0  0  0  0  0
    7.6872  -14.1857   25.5900 C   0  0  0  0  0  0  0  0  0  0  0  0
    8.1275  -15.0837   24.4485 C   0  0  2  0  0  0  0  0  0  0  0  0
    7.0443  -15.5267   23.6293 N   0  0  0  0  0  0  0  0  0  0  0  0
    8.9087  -16.1926   25.0513 C   0  0  0  0  0  0  0  0  0  0  0  0
    8.2576  -17.0229   25.7450 O   0  0  0  0  0  0  0  0  0  0  0  0
   11.0539  -18.6685   23.1563 C   0  0  0  0  0  0  0  0  0  0  0  0
   11.8110  -18.2239   24.3876 C   0  0  1  0  0  0  0  0  0  0  0  0
   12.8705  -17.4279   24.0285 O   0  0  0  0  0  0  0  0  0  0  0  0
   10.8999  -17.5974   25.4184 C   0  0  2  0  0  0  0  0  0  0  0  0
   10.2898  -16.3716   24.9026 N   0  0  0  0  0  0  0  0  0  0  0  0
   11.6552  -17.3240   26.6537 C   0  0  0  0  0  0  0  0  0  0  0  0
   12.1647  -18.3617   27.3983 O   0  0  0  0  0  0  0  0  0  0  0  0
   11.8336  -16.1499   27.0261 O   0  0  0  0  0  0  0  0  0  0  0  0
  2  1  1  6
  2  4  1  0
  2  3  1  0
  4  6  1  0
  4  5  1  6
  6 13  1  0
  6  7  2  0
  8  9  1  0
 10  9  1  0
 11 10  1  0
 12 14  1  0
 12 11  1  1
 13 12  1  0
 14 15  2  0
 17 16  1  6
 17 18  1  0
 17 19  1  0
 19 20  1  6
 20 14  1  0
 21 19  1  0
 22 21  1  0
 23 21  2  0
M  END
$$$$
