VMT.pdb
     RDKit          3D

 23 22  0  0  1  0  0  0  0  0999 V2000
    7.5031  -18.5445   19.7506 C   0  0  0  0  0  0  0  0  0  0  0  0
    7.9372  -17.8114   20.9943 C   0  0  2  0  0  0  0  0  0  0  0  0
    6.7512  -17.8006   21.9484 C   0  0  0  0  0  0  0  0  0  0  0  0
    8.2912  -16.3787   20.7193 C   0  0  2  0  0  0  0  0  0  0  0  0
    9.2603  -16.3534   19.6501 N   0  0  0  0  0  0  0  0  0  0  0  0
    8.8246  -15.6727   21.9132 C   0  0  0  0  0  0  0  0  0  0  0  0
   10.0447  -15.7560   22.2530 O   0  0  0  0  0  0  0  0  0  0  0  0
    5.3480  -12.2062   27.0097 C   0  0  0  0  0  0  0  0  0  0  0  0
    6.8298  -11.3737   26.3703 S   0  0  0  0  0  0  0  0  0  0  0  0
    7.9518  -12.6522   25.7627 C   0  0  0  0  0  0  0  0  0  0  0  0
    7.4033  -13.2156   24.4667 C   0  0  0  0  0  0  0  0  0  0  0  0
    8.4099  -14.2271   23.9502 C   0  0  2  0  0  0  0  0  0  0  0  0
    7.9982  -14.8654   22.7404 N   0  0  0  0  0  0  0  0  0  0  0  0
    8.6751  -15.1748   25.0615 C   0  0  0  0  0  0  0  0  0  0  0  0
    9.1954  -14.6845   26.1025 O   0  0  0  0  0  0  0  0  0  0  0  0
    6.6762  -18.7693   26.0577 C   0  0  0  0  0  0  0  0  0  0  0  0
    8.1885  -18.7635   26.0542 C   0  0  1  0  0  0  0  0  0  0  0  0
    8.6607  -19.4498   24.9628 O   0  0  0  0  0  0  0  0  0  0  0  0
    8.7508  -17.3665   26.1857 C   0  0  2  0  0  0  0  0  0  0  0  0
    8.3915  -16.5460   25.0289 N   0  0  0  0  0  0  0  0  0  0  0  0
   10.2141  -17.4291   26.3462 C   0  0  0  0  0  0  0  0  0  0  0  0
   10.7651  -18.0548   27.4397 O   0  0  0  0  0  0  0  0  0  0  0  0
   10.9559  -16.9141   25.4897 O   0  0  0  0  0  0  0  0  0  0  0  0
  2  1  1  6
  2  4  1  0
  2  3  1  0
  4  6  1  0
  4  5  1  6
  6 13  1  0
  6  7  2  0
  8  9  1  0
 10  9  1  0
 11 10  1  0
 12 14  1  0
 12 11  1  1
 13 12  1  0
 14 15  2  0
 17 16  1  6
 17 18  1  0
 17 19  1  0
 19 20  1  6
 20 14  1  0
 21 19  1  0
 22 21  1  0
 23 21  2  0
M  END
$$$$
