VMT.pdb
     RDKit          3D

 23 22  0  0  1  0  0  0  0  0999 V2000
    8.5925  -18.4270   20.2963 C   0  0  0  0  0  0  0  0  0  0  0  0
    7.4482  -17.4752   20.0566 C   0  0  2  0  0  0  0  0  0  0  0  0
    6.8601  -17.8115   18.6934 C   0  0  0  0  0  0  0  0  0  0  0  0
    7.8976  -16.0440   19.9989 C   0  0  2  0  0  0  0  0  0  0  0  0
    8.8860  -15.9260   18.9539 N   0  0  0  0  0  0  0  0  0  0  0  0
    8.4525  -15.5571   21.2886 C   0  0  0  0  0  0  0  0  0  0  0  0
    9.6959  -15.5935   21.5409 O   0  0  0  0  0  0  0  0  0  0  0  0
    7.3831  -11.5813   27.9728 C   0  0  0  0  0  0  0  0  0  0  0  0
    6.5045  -12.2736   26.5422 S   0  0  0  0  0  0  0  0  0  0  0  0
    7.6635  -13.3382   25.6558 C   0  0  0  0  0  0  0  0  0  0  0  0
    7.0387  -13.7619   24.3413 C   0  0  0  0  0  0  0  0  0  0  0  0
    8.0658  -14.5973   23.5996 C   0  0  2  0  0  0  0  0  0  0  0  0
    7.6218  -15.0236   22.3106 N   0  0  0  0  0  0  0  0  0  0  0  0
    8.4395  -15.7170   24.4997 C   0  0  0  0  0  0  0  0  0  0  0  0
    7.5064  -16.4976   24.8383 O   0  0  0  0  0  0  0  0  0  0  0  0
   10.7036  -18.4196   23.5870 C   0  0  0  0  0  0  0  0  0  0  0  0
   11.1026  -17.9884   24.9805 C   0  0  1  0  0  0  0  0  0  0  0  0
   12.3033  -17.3236   24.9432 O   0  0  0  0  0  0  0  0  0  0  0  0
   10.0012  -17.2190   25.6735 C   0  0  2  0  0  0  0  0  0  0  0  0
    9.7311  -15.9563   24.9855 N   0  0  0  0  0  0  0  0  0  0  0  0
   10.3677  -16.9783   27.0802 C   0  0  0  0  0  0  0  0  0  0  0  0
   10.4790  -18.0315   27.9572 O   0  0  0  0  0  0  0  0  0  0  0  0
   10.5775  -15.8177   27.4780 O   0  0  0  0  0  0  0  0  0  0  0  0
  2  1  1  6
  2  4  1  0
  2  3  1  0
  4  6  1  0
  4  5  1  6
  6 13  1  0
  6  7  2  0
  8  9  1  0
 10  9  1  0
 11 10  1  0
 12 14  1  0
 12 11  1  1
 13 12  1  0
 14 15  2  0
 17 16  1  6
 17 18  1  0
 17 19  1  0
 19 20  1  6
 20 14  1  0
 21 19  1  0
 22 21  1  0
 23 21  2  0
M  END
$$$$
