VMT.pdb
     RDKit          3D

 23 22  0  0  1  0  0  0  0  0999 V2000
    7.2900  -21.0085   23.5626 C   0  0  0  0  0  0  0  0  0  0  0  0
    5.9820  -20.6341   24.2121 C   0  0  2  0  0  0  0  0  0  0  0  0
    5.0261  -21.8007   24.0057 C   0  0  0  0  0  0  0  0  0  0  0  0
    5.3500  -19.4316   23.5734 C   0  0  2  0  0  0  0  0  0  0  0  0
    4.9834  -19.7821   22.2222 N   0  0  0  0  0  0  0  0  0  0  0  0
    6.2384  -18.2403   23.5723 C   0  0  0  0  0  0  0  0  0  0  0  0
    7.0600  -18.0163   22.6311 O   0  0  0  0  0  0  0  0  0  0  0  0
    7.9954  -11.1999   26.5775 C   0  0  0  0  0  0  0  0  0  0  0  0
    6.9144  -12.6455   26.7754 S   0  0  0  0  0  0  0  0  0  0  0  0
    7.5193  -13.9328   25.6620 C   0  0  0  0  0  0  0  0  0  0  0  0
    6.6141  -15.1440   25.7695 C   0  0  0  0  0  0  0  0  0  0  0  0
    7.0722  -16.1462   24.7260 C   0  0  2  0  0  0  0  0  0  0  0  0
    6.2171  -17.2860   24.6249 N   0  0  0  0  0  0  0  0  0  0  0  0
    8.4809  -16.4868   25.0469 C   0  0  0  0  0  0  0  0  0  0  0  0
    8.6550  -17.3657   25.9367 O   0  0  0  0  0  0  0  0  0  0  0  0
   13.0962  -16.9380   23.3593 C   0  0  0  0  0  0  0  0  0  0  0  0
   11.7482  -16.2546   23.3056 C   0  0  1  0  0  0  0  0  0  0  0  0
   11.1565  -16.4730   22.0860 O   0  0  0  0  0  0  0  0  0  0  0  0
   10.8755  -16.6281   24.4820 C   0  0  2  0  0  0  0  0  0  0  0  0
    9.6024  -15.9082   24.4394 N   0  0  0  0  0  0  0  0  0  0  0  0
   11.5884  -16.3522   25.7416 C   0  0  0  0  0  0  0  0  0  0  0  0
   12.4460  -17.2875   26.2714 O   0  0  0  0  0  0  0  0  0  0  0  0
   11.4150  -15.2691   26.3297 O   0  0  0  0  0  0  0  0  0  0  0  0
  2  1  1  6
  2  4  1  0
  2  3  1  0
  4  6  1  0
  4  5  1  6
  6 13  1  0
  6  7  2  0
  8  9  1  0
 10  9  1  0
 11 10  1  0
 12 14  1  0
 12 11  1  1
 13 12  1  0
 14 15  2  0
 17 16  1  6
 17 18  1  0
 17 19  1  0
 19 20  1  1
 20 14  1  0
 21 19  1  0
 22 21  1  0
 23 21  2  0
M  END
$$$$
