VMT.pdb
     RDKit          3D

 23 22  0  0  1  0  0  0  0  0999 V2000
    8.4394  -18.4240   20.2388 C   0  0  0  0  0  0  0  0  0  0  0  0
    7.3544  -17.4053   19.9988 C   0  0  2  0  0  0  0  0  0  0  0  0
    6.7433  -17.7095   18.6382 C   0  0  0  0  0  0  0  0  0  0  0  0
    7.8896  -16.0042   19.9352 C   0  0  2  0  0  0  0  0  0  0  0  0
    8.8919  -15.9536   18.8980 N   0  0  0  0  0  0  0  0  0  0  0  0
    8.4623  -15.5421   21.2263 C   0  0  0  0  0  0  0  0  0  0  0  0
    9.7007  -15.6423   21.4856 O   0  0  0  0  0  0  0  0  0  0  0  0
    7.4437  -11.7321   28.0275 C   0  0  0  0  0  0  0  0  0  0  0  0
    6.5636  -12.3381   26.5592 S   0  0  0  0  0  0  0  0  0  0  0  0
    7.6948  -13.4175   25.6547 C   0  0  0  0  0  0  0  0  0  0  0  0
    7.0812  -13.7619   24.3120 C   0  0  0  0  0  0  0  0  0  0  0  0
    8.1142  -14.5534   23.5312 C   0  0  2  0  0  0  0  0  0  0  0  0
    7.6550  -14.9625   22.2419 N   0  0  0  0  0  0  0  0  0  0  0  0
    8.5350  -15.6826   24.3980 C   0  0  0  0  0  0  0  0  0  0  0  0
    7.6707  -16.5790   24.6076 O   0  0  0  0  0  0  0  0  0  0  0  0
   11.8904  -18.8469   25.9096 C   0  0  0  0  0  0  0  0  0  0  0  0
   11.4716  -17.5971   25.1683 C   0  0  1  0  0  0  0  0  0  0  0  0
   11.5224  -17.8127   23.8132 O   0  0  0  0  0  0  0  0  0  0  0  0
   10.1401  -17.0697   25.6520 C   0  0  2  0  0  0  0  0  0  0  0  0
    9.8004  -15.8130   24.9841 N   0  0  0  0  0  0  0  0  0  0  0  0
   10.1741  -16.8904   27.1141 C   0  0  0  0  0  0  0  0  0  0  0  0
   10.1185  -17.9827   27.9475 O   0  0  0  0  0  0  0  0  0  0  0  0
   10.2535  -15.7467   27.5984 O   0  0  0  0  0  0  0  0  0  0  0  0
  2  1  1  6
  2  4  1  0
  2  3  1  0
  4  6  1  0
  4  5  1  6
  6 13  1  0
  6  7  2  0
  8  9  1  0
 10  9  1  0
 11 10  1  0
 12 14  1  0
 12 11  1  1
 13 12  1  0
 14 15  2  0
 17 16  1  1
 17 18  1  0
 17 19  1  0
 19 20  1  6
 20 14  1  0
 21 19  1  0
 22 21  1  0
 23 21  2  0
M  END
$$$$
