VMT.pdb
     RDKit          3D

 23 22  0  0  1  0  0  0  0  0999 V2000
    8.3031  -18.5480   20.3389 C   0  0  0  0  0  0  0  0  0  0  0  0
    7.1700  -17.5707   20.1553 C   0  0  2  0  0  0  0  0  0  0  0  0
    6.5294  -17.8712   18.8075 C   0  0  0  0  0  0  0  0  0  0  0  0
    7.6448  -16.1474   20.1070 C   0  0  2  0  0  0  0  0  0  0  0  0
    8.6110  -16.0328   19.0411 N   0  0  0  0  0  0  0  0  0  0  0  0
    8.2383  -15.6893   21.3901 C   0  0  0  0  0  0  0  0  0  0  0  0
    9.4916  -15.6971   21.5907 O   0  0  0  0  0  0  0  0  0  0  0  0
    7.4814  -11.3317   27.8337 C   0  0  0  0  0  0  0  0  0  0  0  0
    6.5444  -12.0949   26.4783 S   0  0  0  0  0  0  0  0  0  0  0  0
    7.6397  -13.2726   25.6562 C   0  0  0  0  0  0  0  0  0  0  0  0
    6.9371  -13.8307   24.4344 C   0  0  0  0  0  0  0  0  0  0  0  0
    7.9279  -14.7233   23.7100 C   0  0  2  0  0  0  0  0  0  0  0  0
    7.4355  -15.2172   22.4633 N   0  0  0  0  0  0  0  0  0  0  0  0
    8.3165  -15.7943   24.6616 C   0  0  0  0  0  0  0  0  0  0  0  0
    7.3750  -16.4888   25.1369 O   0  0  0  0  0  0  0  0  0  0  0  0
   10.4728  -18.6959   23.8494 C   0  0  0  0  0  0  0  0  0  0  0  0
   10.9401  -18.1449   25.1779 C   0  0  1  0  0  0  0  0  0  0  0  0
   12.1520  -17.5171   25.0286 O   0  0  0  0  0  0  0  0  0  0  0  0
    9.8860  -17.2859   25.8383 C   0  0  2  0  0  0  0  0  0  0  0  0
    9.6305  -16.0761   25.0562 N   0  0  0  0  0  0  0  0  0  0  0  0
   10.3066  -16.9421   27.2079 C   0  0  0  0  0  0  0  0  0  0  0  0
   10.4203  -17.9233   28.1647 O   0  0  0  0  0  0  0  0  0  0  0  0
   10.5602  -15.7596   27.5019 O   0  0  0  0  0  0  0  0  0  0  0  0
  2  1  1  6
  2  4  1  0
  2  3  1  0
  4  6  1  0
  4  5  1  6
  6 13  1  0
  6  7  2  0
  8  9  1  0
 10  9  1  0
 11 10  1  0
 12 14  1  0
 12 11  1  1
 13 12  1  0
 14 15  2  0
 17 16  1  6
 17 18  1  0
 17 19  1  0
 19 20  1  6
 20 14  1  0
 21 19  1  0
 22 21  1  0
 23 21  2  0
M  END
$$$$
