VMT.pdb
     RDKit          3D

 23 22  0  0  1  0  0  0  0  0999 V2000
    6.8742  -16.1183   18.6517 C   0  0  0  0  0  0  0  0  0  0  0  0
    7.5898  -16.0148   19.9745 C   0  0  2  0  0  0  0  0  0  0  0  0
    6.9610  -17.0390   20.9087 C   0  0  0  0  0  0  0  0  0  0  0  0
    7.4128  -14.6694   20.6166 C   0  0  2  0  0  0  0  0  0  0  0  0
    7.8729  -13.6651   19.6878 N   0  0  0  0  0  0  0  0  0  0  0  0
    8.1348  -14.5433   21.9093 C   0  0  0  0  0  0  0  0  0  0  0  0
    9.4014  -14.4845   21.9680 O   0  0  0  0  0  0  0  0  0  0  0  0
    7.1468  -11.6730   27.8578 C   0  0  0  0  0  0  0  0  0  0  0  0
    5.9954  -11.6186   26.4546 S   0  0  0  0  0  0  0  0  0  0  0  0
    6.7807  -12.4781   25.0736 C   0  0  0  0  0  0  0  0  0  0  0  0
    7.1760  -13.8718   25.5200 C   0  0  0  0  0  0  0  0  0  0  0  0
    8.0650  -14.4588   24.4390 C   0  0  2  0  0  0  0  0  0  0  0  0
    7.4471  -14.4816   23.1513 N   0  0  0  0  0  0  0  0  0  0  0  0
    8.4942  -15.7973   24.9160 C   0  0  0  0  0  0  0  0  0  0  0  0
    7.6043  -16.6928   24.9444 O   0  0  0  0  0  0  0  0  0  0  0  0
   10.4700  -18.2308   23.2900 C   0  0  0  0  0  0  0  0  0  0  0  0
   11.0710  -18.1090   24.6723 C   0  0  1  0  0  0  0  0  0  0  0  0
   12.2717  -17.4463   24.6083 O   0  0  0  0  0  0  0  0  0  0  0  0
   10.0978  -17.5127   25.6636 C   0  0  2  0  0  0  0  0  0  0  0  0
    9.7932  -16.1218   25.3269 N   0  0  0  0  0  0  0  0  0  0  0  0
   10.6488  -17.6105   27.0266 C   0  0  0  0  0  0  0  0  0  0  0  0
   10.9290  -18.8405   27.5741 O   0  0  0  0  0  0  0  0  0  0  0  0
   10.8621  -16.5770   27.6865 O   0  0  0  0  0  0  0  0  0  0  0  0
  2  1  1  6
  2  4  1  0
  2  3  1  0
  4  6  1  0
  4  5  1  6
  6 13  1  0
  6  7  2  0
  8  9  1  0
 10  9  1  0
 11 10  1  0
 12 14  1  0
 12 11  1  1
 13 12  1  0
 14 15  2  0
 17 16  1  6
 17 18  1  0
 17 19  1  0
 19 20  1  6
 20 14  1  0
 21 19  1  0
 22 21  1  0
 23 21  2  0
M  END
$$$$
