VMT.pdb
     RDKit          3D

 23 22  0  0  1  0  0  0  0  0999 V2000
    8.6994  -18.7530   21.0426 C   0  0  0  0  0  0  0  0  0  0  0  0
    7.6919  -17.7387   20.5643 C   0  0  2  0  0  0  0  0  0  0  0  0
    7.2565  -18.1598   19.1677 C   0  0  0  0  0  0  0  0  0  0  0  0
    8.2792  -16.3624   20.4437 C   0  0  2  0  0  0  0  0  0  0  0  0
    9.4006  -16.4311   19.5378 N   0  0  0  0  0  0  0  0  0  0  0  0
    8.7073  -15.7973   21.7497 C   0  0  0  0  0  0  0  0  0  0  0  0
    9.9126  -15.8551   22.1436 O   0  0  0  0  0  0  0  0  0  0  0  0
    6.8695  -11.6303   28.1765 C   0  0  0  0  0  0  0  0  0  0  0  0
    6.2196  -12.2425   26.5952 S   0  0  0  0  0  0  0  0  0  0  0  0
    7.4483  -13.3710   25.9031 C   0  0  0  0  0  0  0  0  0  0  0  0
    6.9834  -13.8285   24.5347 C   0  0  0  0  0  0  0  0  0  0  0  0
    8.1102  -14.6386   23.9205 C   0  0  2  0  0  0  0  0  0  0  0  0
    7.7911  -15.1607   22.6298 N   0  0  0  0  0  0  0  0  0  0  0  0
    8.4771  -15.6827   24.9098 C   0  0  0  0  0  0  0  0  0  0  0  0
    7.6006  -16.5598   25.1483 O   0  0  0  0  0  0  0  0  0  0  0  0
   12.3969  -16.7506   25.4262 C   0  0  0  0  0  0  0  0  0  0  0  0
   11.2203  -17.6812   25.6173 C   0  0  1  0  0  0  0  0  0  0  0  0
   11.6236  -18.8265   26.2582 O   0  0  0  0  0  0  0  0  0  0  0  0
   10.0522  -16.9897   26.2825 C   0  0  2  0  0  0  0  0  0  0  0  0
    9.7052  -15.7543   25.5795 N   0  0  0  0  0  0  0  0  0  0  0  0
   10.3714  -16.7142   27.6942 C   0  0  0  0  0  0  0  0  0  0  0  0
   10.6937  -17.7448   28.5456 O   0  0  0  0  0  0  0  0  0  0  0  0
   10.3498  -15.5447   28.1196 O   0  0  0  0  0  0  0  0  0  0  0  0
  2  1  1  6
  2  4  1  0
  2  3  1  0
  4  6  1  0
  4  5  1  6
  6 13  1  0
  6  7  2  0
  8  9  1  0
 10  9  1  0
 11 10  1  0
 12 14  1  0
 12 11  1  1
 13 12  1  0
 14 15  2  0
 17 16  1  1
 17 18  1  0
 17 19  1  0
 19 20  1  6
 20 14  1  0
 21 19  1  0
 22 21  1  0
 23 21  2  0
M  END
$$$$
