VMT.pdb
     RDKit          3D

 23 22  0  0  1  0  0  0  0  0999 V2000
    7.9041  -17.8631   18.7972 C   0  0  0  0  0  0  0  0  0  0  0  0
    8.3345  -17.3662   20.1538 C   0  0  2  0  0  0  0  0  0  0  0  0
    7.5972  -18.1984   21.1935 C   0  0  0  0  0  0  0  0  0  0  0  0
    7.9502  -15.9338   20.3864 C   0  0  2  0  0  0  0  0  0  0  0  0
    8.4775  -15.1456   19.2984 N   0  0  0  0  0  0  0  0  0  0  0  0
    8.4375  -15.4056   21.6871 C   0  0  0  0  0  0  0  0  0  0  0  0
    9.6688  -15.1866   21.9039 O   0  0  0  0  0  0  0  0  0  0  0  0
    7.6719  -11.0045   27.5927 C   0  0  0  0  0  0  0  0  0  0  0  0
    6.6202  -11.8707   26.3922 S   0  0  0  0  0  0  0  0  0  0  0  0
    7.3253  -13.5141   26.1382 C   0  0  0  0  0  0  0  0  0  0  0  0
    6.7635  -14.1002   24.8581 C   0  0  0  0  0  0  0  0  0  0  0  0
    7.9369  -14.5969   24.0338 C   0  0  2  0  0  0  0  0  0  0  0  0
    7.5519  -15.1163   22.7600 N   0  0  0  0  0  0  0  0  0  0  0  0
    8.6708  -15.5739   24.8767 C   0  0  0  0  0  0  0  0  0  0  0  0
    9.1124  -15.1418   25.9780 O   0  0  0  0  0  0  0  0  0  0  0  0
   11.7276  -17.0823   24.1660 C   0  0  0  0  0  0  0  0  0  0  0  0
   10.9558  -18.2217   24.7927 C   0  0  1  0  0  0  0  0  0  0  0  0
   11.7731  -18.9423   25.6281 O   0  0  0  0  0  0  0  0  0  0  0  0
    9.6785  -17.7489   25.4486 C   0  0  2  0  0  0  0  0  0  0  0  0
    8.8988  -16.9130   24.5353 N   0  0  0  0  0  0  0  0  0  0  0  0
    9.9937  -17.0147   26.6866 C   0  0  0  0  0  0  0  0  0  0  0  0
   10.6311  -17.6506   27.7260 O   0  0  0  0  0  0  0  0  0  0  0  0
    9.6825  -15.8145   26.7939 O   0  0  0  0  0  0  0  0  0  0  0  0
  2  1  1  6
  2  4  1  0
  2  3  1  0
  4  6  1  0
  4  5  1  6
  6 13  1  0
  6  7  2  0
  8  9  1  0
 10  9  1  0
 11 10  1  0
 12 14  1  0
 12 11  1  1
 13 12  1  0
 14 15  2  0
 17 16  1  1
 17 18  1  0
 17 19  1  0
 19 20  1  6
 20 14  1  0
 21 19  1  0
 22 21  1  0
 23 21  2  0
M  END
$$$$
