VMT.pdb
     RDKit          3D

 23 22  0  0  1  0  0  0  0  0999 V2000
    7.0562  -14.9096   18.2384 C   0  0  0  0  0  0  0  0  0  0  0  0
    7.7471  -15.0371   19.5722 C   0  0  2  0  0  0  0  0  0  0  0  0
    7.1186  -16.2206   20.2943 C   0  0  0  0  0  0  0  0  0  0  0  0
    7.5376  -13.8317   20.4421 C   0  0  2  0  0  0  0  0  0  0  0  0
    7.9848  -12.6692   19.7131 N   0  0  0  0  0  0  0  0  0  0  0  0
    8.2464  -13.9254   21.7449 C   0  0  0  0  0  0  0  0  0  0  0  0
    9.5082  -13.8194   21.8319 O   0  0  0  0  0  0  0  0  0  0  0  0
    6.9605  -11.8840   27.9077 C   0  0  0  0  0  0  0  0  0  0  0  0
    6.0138  -11.5442   26.3958 S   0  0  0  0  0  0  0  0  0  0  0  0
    6.9116  -12.2848   25.0145 C   0  0  0  0  0  0  0  0  0  0  0  0
    7.2821  -13.7102   25.3737 C   0  0  0  0  0  0  0  0  0  0  0  0
    8.1556  -14.2471   24.2549 C   0  0  2  0  0  0  0  0  0  0  0  0
    7.5506  -14.1389   22.9654 N   0  0  0  0  0  0  0  0  0  0  0  0
    8.5210  -15.6374   24.6249 C   0  0  0  0  0  0  0  0  0  0  0  0
    7.5742  -16.4719   24.6682 O   0  0  0  0  0  0  0  0  0  0  0  0
   10.7212  -18.1340   22.9435 C   0  0  0  0  0  0  0  0  0  0  0  0
   11.1134  -18.0878   24.4033 C   0  0  1  0  0  0  0  0  0  0  0  0
   12.3375  -17.4821   24.5443 O   0  0  0  0  0  0  0  0  0  0  0  0
   10.0294  -17.4788   25.2631 C   0  0  2  0  0  0  0  0  0  0  0  0
    9.8190  -16.0716   24.9222 N   0  0  0  0  0  0  0  0  0  0  0  0
   10.3794  -17.6236   26.6870 C   0  0  0  0  0  0  0  0  0  0  0  0
   10.5803  -18.8719   27.2276 O   0  0  0  0  0  0  0  0  0  0  0  0
   10.4941  -16.6133   27.4047 O   0  0  0  0  0  0  0  0  0  0  0  0
  2  1  1  6
  2  4  1  0
  2  3  1  0
  4  6  1  0
  4  5  1  6
  6 13  1  0
  6  7  2  0
  8  9  1  0
 10  9  1  0
 11 10  1  0
 12 14  1  0
 12 11  1  1
 13 12  1  0
 14 15  2  0
 17 16  1  6
 17 18  1  0
 17 19  1  0
 19 20  1  6
 20 14  1  0
 21 19  1  0
 22 21  1  0
 23 21  2  0
M  END
$$$$
