VLD.pdb
     RDKit          3D

 24 23  0  0  1  0  0  0  0  0999 V2000
    7.8478  -16.4127   20.6027 C   0  0  0  0  0  0  0  0  0  0  0  0
    7.1015  -15.1372   20.3203 C   0  0  2  0  0  0  0  0  0  0  0  0
    6.7307  -15.1805   18.8390 C   0  0  0  0  0  0  0  0  0  0  0  0
    7.9474  -13.8961   20.5521 C   0  0  2  0  0  0  0  0  0  0  0  0
    9.1668  -13.9416   19.7857 N   0  0  0  0  0  0  0  0  0  0  0  0
    8.2459  -13.8145   21.9976 C   0  0  0  0  0  0  0  0  0  0  0  0
    9.4319  -13.9531   22.3784 O   0  0  0  0  0  0  0  0  0  0  0  0
    7.8800  -11.5440   26.6167 C   0  0  0  0  0  0  0  0  0  0  0  0
    6.8836  -12.7016   26.6433 C   0  0  1  0  0  0  0  0  0  0  0  0
    5.7629  -12.3010   27.5547 C   0  0  0  0  0  0  0  0  0  0  0  0
    6.4521  -12.9190   25.2074 C   0  0  0  0  0  0  0  0  0  0  0  0
    7.6457  -13.3862   24.3563 C   0  0  2  0  0  0  0  0  0  0  0  0
    7.2802  -13.5884   23.0004 N   0  0  0  0  0  0  0  0  0  0  0  0
    8.2953  -14.5614   24.9881 C   0  0  0  0  0  0  0  0  0  0  0  0
    8.6391  -14.6028   26.1972 O   0  0  0  0  0  0  0  0  0  0  0  0
    8.5696  -15.7338   24.2361 N   0  0  0  0  0  0  0  0  0  0  0  0
    9.1895  -16.8827   24.8601 C   0  0  1  0  0  0  0  0  0  0  0  0
    9.0897  -18.0325   23.8743 C   0  0  0  0  0  0  0  0  0  0  0  0
    9.6677  -19.2813   24.4174 C   0  0  0  0  0  0  0  0  0  0  0  0
   10.4803  -19.9702   23.7294 O   0  0  0  0  0  0  0  0  0  0  0  0
   10.6343  -16.6728   25.1112 C   0  0  0  0  0  0  0  0  0  0  0  0
   11.3542  -15.5477   24.7823 O   0  0  0  0  0  0  0  0  0  0  0  0
    9.3610  -19.7705   25.6977 O   0  0  0  0  0  0  0  0  0  0  0  0
   11.2524  -17.6141   25.6771 O   0  0  0  0  0  0  0  0  0  0  0  0
  2  1  1  6
  2  4  1  0
  3  2  1  0
  4  6  1  0
  4  5  1  6
  6  7  2  0
  9  8  1  6
  9 10  1  0
 11  9  1  0
 12 11  1  1
 12 14  1  0
 13  6  1  0
 13 12  1  0
 14 15  2  0
 16 14  1  0
 16 17  1  0
 17 21  1  0
 17 18  1  6
 19 20  2  0
 19 18  1  0
 21 24  2  0
 21 22  1  0
 23 19  1  0
M  END
$$$$
