VLD.pdb
     RDKit          3D

 24 23  0  0  1  0  0  0  0  0999 V2000
    8.2537  -17.1940   21.0418 C   0  0  0  0  0  0  0  0  0  0  0  0
    7.0369  -16.3109   20.9854 C   0  0  2  0  0  0  0  0  0  0  0  0
    6.4152  -16.5311   19.6075 C   0  0  0  0  0  0  0  0  0  0  0  0
    7.3741  -14.8346   21.1132 C   0  0  2  0  0  0  0  0  0  0  0  0
    8.2762  -14.4104   20.0726 N   0  0  0  0  0  0  0  0  0  0  0  0
    7.9806  -14.6217   22.4444 C   0  0  0  0  0  0  0  0  0  0  0  0
    9.2194  -14.7615   22.5731 O   0  0  0  0  0  0  0  0  0  0  0  0
    5.4332  -11.8281   26.5316 C   0  0  0  0  0  0  0  0  0  0  0  0
    6.5195  -12.2513   25.5445 C   0  0  1  0  0  0  0  0  0  0  0  0
    7.6226  -11.2408   25.6392 C   0  0  0  0  0  0  0  0  0  0  0  0
    6.9380  -13.6490   25.9524 C   0  0  0  0  0  0  0  0  0  0  0  0
    7.8630  -14.2616   24.8864 C   0  0  2  0  0  0  0  0  0  0  0  0
    7.2587  -14.2667   23.6027 N   0  0  0  0  0  0  0  0  0  0  0  0
    8.3453  -15.5926   25.3318 C   0  0  0  0  0  0  0  0  0  0  0  0
    8.0765  -16.6674   24.7365 O   0  0  0  0  0  0  0  0  0  0  0  0
    9.1591  -15.7231   26.4875 N   0  0  0  0  0  0  0  0  0  0  0  0
   10.0884  -16.8248   26.6152 C   0  0  1  0  0  0  0  0  0  0  0  0
   11.1522  -16.6356   25.5492 C   0  0  0  0  0  0  0  0  0  0  0  0
   12.2022  -17.6754   25.6217 C   0  0  0  0  0  0  0  0  0  0  0  0
   11.9335  -18.8362   26.0560 O   0  0  0  0  0  0  0  0  0  0  0  0
   10.7957  -16.8138   27.9168 C   0  0  0  0  0  0  0  0  0  0  0  0
   10.6487  -15.8689   28.9057 O   0  0  0  0  0  0  0  0  0  0  0  0
   13.5297  -17.4484   25.2236 O   0  0  0  0  0  0  0  0  0  0  0  0
   11.6028  -17.7580   28.1297 O   0  0  0  0  0  0  0  0  0  0  0  0
  2  1  1  6
  2  4  1  0
  3  2  1  0
  4  6  1  0
  4  5  1  6
  6  7  2  0
  9  8  1  1
  9 10  1  0
 11  9  1  0
 12 11  1  1
 12 14  1  0
 13  6  1  0
 13 12  1  0
 14 15  2  0
 16 14  1  0
 16 17  1  0
 17 21  1  0
 17 18  1  6
 19 20  2  0
 19 18  1  0
 21 24  2  0
 21 22  1  0
 23 19  1  0
M  END
$$$$
