VLD.pdb
     RDKit          3D

 24 23  0  0  1  0  0  0  0  0999 V2000
    7.6272  -12.2337   20.1759 C   0  0  0  0  0  0  0  0  0  0  0  0
    8.4728  -13.3397   19.6053 C   0  0  2  0  0  0  0  0  0  0  0  0
    8.0007  -13.5364   18.1658 C   0  0  0  0  0  0  0  0  0  0  0  0
    8.2914  -14.6582   20.3388 C   0  0  2  0  0  0  0  0  0  0  0  0
    6.9677  -15.1918   20.1393 N   0  0  0  0  0  0  0  0  0  0  0  0
    8.5421  -14.4160   21.7754 C   0  0  0  0  0  0  0  0  0  0  0  0
    9.7189  -14.2176   22.1582 O   0  0  0  0  0  0  0  0  0  0  0  0
    8.2350  -12.1967   26.2884 C   0  0  0  0  0  0  0  0  0  0  0  0
    7.1544  -13.2749   26.3458 C   0  0  1  0  0  0  0  0  0  0  0  0
    6.0517  -12.7514   27.2159 C   0  0  0  0  0  0  0  0  0  0  0  0
    6.7320  -13.5248   24.9126 C   0  0  0  0  0  0  0  0  0  0  0  0
    7.8545  -14.2420   24.1426 C   0  0  2  0  0  0  0  0  0  0  0  0
    7.5398  -14.3908   22.7672 N   0  0  0  0  0  0  0  0  0  0  0  0
    8.2091  -15.5130   24.8217 C   0  0  0  0  0  0  0  0  0  0  0  0
    7.3806  -16.4258   25.0712 O   0  0  0  0  0  0  0  0  0  0  0  0
    9.5422  -15.7701   25.2362 N   0  0  0  0  0  0  0  0  0  0  0  0
    9.9526  -17.1047   25.6160 C   0  0  1  0  0  0  0  0  0  0  0  0
   11.2236  -17.4153   24.8467 C   0  0  0  0  0  0  0  0  0  0  0  0
   11.7801  -18.7385   25.2047 C   0  0  0  0  0  0  0  0  0  0  0  0
   11.1480  -19.5171   25.9808 O   0  0  0  0  0  0  0  0  0  0  0  0
   10.3019  -17.1963   27.0527 C   0  0  0  0  0  0  0  0  0  0  0  0
   10.1715  -18.3140   27.8439 O   0  0  0  0  0  0  0  0  0  0  0  0
   13.0128  -19.2046   24.7192 O   0  0  0  0  0  0  0  0  0  0  0  0
   10.7586  -16.1525   27.5912 O   0  0  0  0  0  0  0  0  0  0  0  0
  2  1  1  1
  2  4  1  0
  3  2  1  0
  4  6  1  0
  4  5  1  1
  6  7  2  0
  9  8  1  6
  9 10  1  0
 11  9  1  0
 12 11  1  1
 12 14  1  0
 13  6  1  0
 13 12  1  0
 14 15  2  0
 16 14  1  0
 16 17  1  0
 17 21  1  0
 17 18  1  6
 19 20  2  0
 19 18  1  0
 21 24  2  0
 21 22  1  0
 23 19  1  0
M  END
$$$$
