VLD.pdb
     RDKit          3D

 24 23  0  0  1  0  0  0  0  0999 V2000
    7.4536  -18.8488   22.7491 C   0  0  0  0  0  0  0  0  0  0  0  0
    6.1679  -18.1427   23.0836 C   0  0  2  0  0  0  0  0  0  0  0  0
    5.0588  -18.9233   22.3805 C   0  0  0  0  0  0  0  0  0  0  0  0
    6.1294  -16.7135   22.5685 C   0  0  2  0  0  0  0  0  0  0  0  0
    6.3338  -16.6639   21.1429 N   0  0  0  0  0  0  0  0  0  0  0  0
    7.1829  -15.9501   23.2705 C   0  0  0  0  0  0  0  0  0  0  0  0
    8.3121  -15.8477   22.7365 O   0  0  0  0  0  0  0  0  0  0  0  0
    5.9722  -12.0828   27.0098 C   0  0  0  0  0  0  0  0  0  0  0  0
    6.5761  -12.7682   25.7854 C   0  0  1  0  0  0  0  0  0  0  0  0
    7.1692  -11.6944   24.9239 C   0  0  0  0  0  0  0  0  0  0  0  0
    7.5955  -13.7556   26.3154 C   0  0  0  0  0  0  0  0  0  0  0  0
    8.0880  -14.6737   25.1832 C   0  0  2  0  0  0  0  0  0  0  0  0
    7.0117  -15.3164   24.5186 N   0  0  0  0  0  0  0  0  0  0  0  0
    9.1242  -15.6051   25.6943 C   0  0  0  0  0  0  0  0  0  0  0  0
    8.9054  -16.4793   26.5716 O   0  0  0  0  0  0  0  0  0  0  0  0
   10.4551  -15.5543   25.2032 N   0  0  0  0  0  0  0  0  0  0  0  0
   11.3718  -16.6483   25.4411 C   0  0  1  0  0  0  0  0  0  0  0  0
   10.8670  -17.8343   24.6396 C   0  0  0  0  0  0  0  0  0  0  0  0
   10.8310  -19.0744   25.4456 C   0  0  0  0  0  0  0  0  0  0  0  0
   11.2210  -19.0726   26.6523 O   0  0  0  0  0  0  0  0  0  0  0  0
   12.7351  -16.3564   24.9405 C   0  0  0  0  0  0  0  0  0  0  0  0
   13.9079  -16.8530   25.4604 O   0  0  0  0  0  0  0  0  0  0  0  0
   10.3736  -20.3014   24.9380 O   0  0  0  0  0  0  0  0  0  0  0  0
   12.8198  -15.5830   23.9491 O   0  0  0  0  0  0  0  0  0  0  0  0
  2  1  1  6
  2  4  1  0
  3  2  1  0
  4  6  1  0
  4  5  1  6
  6  7  2  0
  9  8  1  1
  9 10  1  0
 11  9  1  0
 12 11  1  1
 12 14  1  0
 13  6  1  0
 13 12  1  0
 14 15  2  0
 16 14  1  0
 16 17  1  0
 17 21  1  0
 17 18  1  6
 19 20  2  0
 19 18  1  0
 21 24  2  0
 21 22  1  0
 23 19  1  0
M  END
$$$$
