VLD.pdb
     RDKit          3D

 24 23  0  0  1  0  0  0  0  0999 V2000
    7.3281  -13.3922   18.3756 C   0  0  0  0  0  0  0  0  0  0  0  0
    7.7129  -13.2777   19.8256 C   0  0  2  0  0  0  0  0  0  0  0  0
    8.9265  -12.3510   19.8715 C   0  0  0  0  0  0  0  0  0  0  0  0
    8.1210  -14.6093   20.4337 C   0  0  2  0  0  0  0  0  0  0  0  0
    7.0797  -15.5945   20.2865 N   0  0  0  0  0  0  0  0  0  0  0  0
    8.4216  -14.3817   21.8631 C   0  0  0  0  0  0  0  0  0  0  0  0
    9.5695  -13.9948   22.1848 O   0  0  0  0  0  0  0  0  0  0  0  0
    8.2859  -12.2420   26.3327 C   0  0  0  0  0  0  0  0  0  0  0  0
    7.1870  -13.2969   26.4467 C   0  0  1  0  0  0  0  0  0  0  0  0
    6.1053  -12.7188   27.3084 C   0  0  0  0  0  0  0  0  0  0  0  0
    6.7417  -13.5960   25.0299 C   0  0  0  0  0  0  0  0  0  0  0  0
    7.8517  -14.3402   24.2673 C   0  0  2  0  0  0  0  0  0  0  0  0
    7.4986  -14.5703   22.9126 N   0  0  0  0  0  0  0  0  0  0  0  0
    8.2454  -15.5661   25.0052 C   0  0  0  0  0  0  0  0  0  0  0  0
    7.4358  -16.4666   25.3448 O   0  0  0  0  0  0  0  0  0  0  0  0
    9.5972  -15.7906   25.3757 N   0  0  0  0  0  0  0  0  0  0  0  0
   10.0294  -17.0919   25.8381 C   0  0  1  0  0  0  0  0  0  0  0  0
   11.2655  -17.4605   25.0381 C   0  0  0  0  0  0  0  0  0  0  0  0
   11.8016  -18.7846   25.4230 C   0  0  0  0  0  0  0  0  0  0  0  0
   11.0998  -19.5935   26.1022 O   0  0  0  0  0  0  0  0  0  0  0  0
   10.4435  -17.0725   27.2603 C   0  0  0  0  0  0  0  0  0  0  0  0
   10.5111  -18.1640   28.0947 O   0  0  0  0  0  0  0  0  0  0  0  0
   13.0893  -19.2188   25.0686 O   0  0  0  0  0  0  0  0  0  0  0  0
   10.7605  -15.9518   27.7416 O   0  0  0  0  0  0  0  0  0  0  0  0
  2  1  1  6
  2  4  1  0
  3  2  1  0
  4  6  1  0
  4  5  1  1
  6  7  2  0
  9  8  1  6
  9 10  1  0
 11  9  1  0
 12 11  1  1
 12 14  1  0
 13  6  1  0
 13 12  1  0
 14 15  2  0
 16 14  1  0
 16 17  1  0
 17 21  1  0
 17 18  1  6
 19 20  2  0
 19 18  1  0
 21 24  2  0
 21 22  1  0
 23 19  1  0
M  END
$$$$
