VLD.pdb
     RDKit          3D

 24 23  0  0  1  0  0  0  0  0999 V2000
    7.0117  -13.4143   19.1836 C   0  0  0  0  0  0  0  0  0  0  0  0
    7.6779  -13.2944   20.5273 C   0  0  2  0  0  0  0  0  0  0  0  0
    8.9379  -12.4600   20.3042 C   0  0  0  0  0  0  0  0  0  0  0  0
    8.1042  -14.6380   21.0954 C   0  0  2  0  0  0  0  0  0  0  0  0
    7.0433  -15.6085   20.9997 N   0  0  0  0  0  0  0  0  0  0  0  0
    8.4922  -14.4309   22.5067 C   0  0  0  0  0  0  0  0  0  0  0  0
    9.5918  -13.8840   22.7569 O   0  0  0  0  0  0  0  0  0  0  0  0
    5.3552  -12.8115   26.7716 C   0  0  0  0  0  0  0  0  0  0  0  0
    6.5740  -12.9348   25.8590 C   0  0  1  0  0  0  0  0  0  0  0  0
    7.6083  -11.9773   26.3690 C   0  0  0  0  0  0  0  0  0  0  0  0
    7.0037  -14.3861   25.9239 C   0  0  0  0  0  0  0  0  0  0  0  0
    8.1640  -14.6435   24.9468 C   0  0  2  0  0  0  0  0  0  0  0  0
    7.7053  -14.8088   23.6144 N   0  0  0  0  0  0  0  0  0  0  0  0
    9.0077  -15.7612   25.4378 C   0  0  0  0  0  0  0  0  0  0  0  0
    9.2083  -16.0013   26.6560 O   0  0  0  0  0  0  0  0  0  0  0  0
    9.6501  -16.6425   24.5291 N   0  0  0  0  0  0  0  0  0  0  0  0
   10.4548  -17.7435   25.0129 C   0  0  1  0  0  0  0  0  0  0  0  0
   10.0964  -18.9580   24.1761 C   0  0  0  0  0  0  0  0  0  0  0  0
   10.6292  -18.8608   22.7994 C   0  0  0  0  0  0  0  0  0  0  0  0
   11.4142  -17.9190   22.4751 O   0  0  0  0  0  0  0  0  0  0  0  0
   11.9036  -17.5104   24.8104 C   0  0  0  0  0  0  0  0  0  0  0  0
   12.9229  -18.2754   25.3282 O   0  0  0  0  0  0  0  0  0  0  0  0
   10.3080  -19.7828   21.7899 O   0  0  0  0  0  0  0  0  0  0  0  0
   12.2230  -16.5204   24.0990 O   0  0  0  0  0  0  0  0  0  0  0  0
  2  1  1  6
  2  4  1  0
  3  2  1  0
  4  6  1  0
  4  5  1  1
  6  7  2  0
  9  8  1  1
  9 10  1  0
 11  9  1  0
 12 11  1  1
 12 14  1  0
 13  6  1  0
 13 12  1  0
 14 15  2  0
 16 14  1  0
 16 17  1  0
 17 21  1  0
 17 18  1  6
 19 20  2  0
 19 18  1  0
 21 24  2  0
 21 22  1  0
 23 19  1  0
M  END
$$$$
