VLD.pdb
     RDKit          3D

 24 23  0  0  1  0  0  0  0  0999 V2000
    5.7697  -15.4736   19.9386 C   0  0  0  0  0  0  0  0  0  0  0  0
    6.9215  -14.9553   20.7561 C   0  0  2  0  0  0  0  0  0  0  0  0
    7.9986  -14.5380   19.7564 C   0  0  0  0  0  0  0  0  0  0  0  0
    7.5189  -16.0131   21.6692 C   0  0  2  0  0  0  0  0  0  0  0  0
    6.4978  -16.6844   22.4329 N   0  0  0  0  0  0  0  0  0  0  0  0
    8.4834  -15.3441   22.5677 C   0  0  0  0  0  0  0  0  0  0  0  0
    9.6220  -15.0598   22.1278 O   0  0  0  0  0  0  0  0  0  0  0  0
    7.4211  -13.1962   27.7951 C   0  0  0  0  0  0  0  0  0  0  0  0
    7.4347  -13.9203   26.4501 C   0  0  1  0  0  0  0  0  0  0  0  0
    6.0931  -13.7045   25.8170 C   0  0  0  0  0  0  0  0  0  0  0  0
    8.5825  -13.3234   25.6619 C   0  0  0  0  0  0  0  0  0  0  0  0
    9.1968  -14.3817   24.7291 C   0  0  2  0  0  0  0  0  0  0  0  0
    8.2158  -14.9946   23.9076 N   0  0  0  0  0  0  0  0  0  0  0  0
   10.0134  -15.3417   25.5127 C   0  0  0  0  0  0  0  0  0  0  0  0
   10.8527  -14.9962   26.3832 O   0  0  0  0  0  0  0  0  0  0  0  0
    9.8838  -16.7411   25.3126 N   0  0  0  0  0  0  0  0  0  0  0  0
   10.7648  -17.6681   25.9895 C   0  0  1  0  0  0  0  0  0  0  0  0
    9.8849  -18.6831   26.6961 C   0  0  0  0  0  0  0  0  0  0  0  0
   10.1430  -18.7237   28.1522 C   0  0  0  0  0  0  0  0  0  0  0  0
   10.6842  -17.7391   28.7405 O   0  0  0  0  0  0  0  0  0  0  0  0
   11.6073  -18.4343   25.0421 C   0  0  0  0  0  0  0  0  0  0  0  0
   12.6306  -19.2882   25.3829 O   0  0  0  0  0  0  0  0  0  0  0  0
    9.8127  -19.8274   28.9554 O   0  0  0  0  0  0  0  0  0  0  0  0
   11.3582  -18.2851   23.8158 O   0  0  0  0  0  0  0  0  0  0  0  0
  2  1  1  6
  2  4  1  0
  3  2  1  0
  4  6  1  0
  4  5  1  1
  6  7  2  0
  9  8  1  1
  9 10  1  0
 11  9  1  0
 12 11  1  1
 12 14  1  0
 13  6  1  0
 13 12  1  0
 14 15  2  0
 16 14  1  0
 16 17  1  0
 17 21  1  0
 17 18  1  6
 19 20  2  0
 19 18  1  0
 21 24  2  0
 21 22  1  0
 23 19  1  0
M  END
$$$$
