VLD.pdb
     RDKit          3D

 24 23  0  0  1  0  0  0  0  0999 V2000
    9.1627  -17.6463   21.3983 C   0  0  0  0  0  0  0  0  0  0  0  0
    7.7555  -17.1371   21.2425 C   0  0  2  0  0  0  0  0  0  0  0  0
    7.1621  -17.8854   20.0502 C   0  0  0  0  0  0  0  0  0  0  0  0
    7.6978  -15.6501   20.9342 C   0  0  2  0  0  0  0  0  0  0  0  0
    8.5411  -15.3132   19.8154 N   0  0  0  0  0  0  0  0  0  0  0  0
    8.1262  -14.9191   22.1455 C   0  0  0  0  0  0  0  0  0  0  0  0
    9.3359  -14.6170   22.2726 O   0  0  0  0  0  0  0  0  0  0  0  0
    7.7405  -11.1854   25.6918 C   0  0  0  0  0  0  0  0  0  0  0  0
    7.1142  -12.4302   26.3175 C   0  0  1  0  0  0  0  0  0  0  0  0
    6.0564  -11.9626   27.2711 C   0  0  0  0  0  0  0  0  0  0  0  0
    6.5745  -13.2541   25.1664 C   0  0  0  0  0  0  0  0  0  0  0  0
    7.7321  -13.8069   24.3169 C   0  0  2  0  0  0  0  0  0  0  0  0
    7.2619  -14.5281   23.1891 N   0  0  0  0  0  0  0  0  0  0  0  0
    8.6745  -14.5707   25.1718 C   0  0  0  0  0  0  0  0  0  0  0  0
    9.0730  -14.1754   26.2973 O   0  0  0  0  0  0  0  0  0  0  0  0
    9.1889  -15.8243   24.7490 N   0  0  0  0  0  0  0  0  0  0  0  0
   10.1162  -16.5602   25.5811 C   0  0  1  0  0  0  0  0  0  0  0  0
    9.3696  -17.7670   26.1197 C   0  0  0  0  0  0  0  0  0  0  0  0
   10.2300  -18.6179   26.9708 C   0  0  0  0  0  0  0  0  0  0  0  0
   10.7960  -18.1401   28.0001 O   0  0  0  0  0  0  0  0  0  0  0  0
   11.2637  -17.0903   24.8087 C   0  0  0  0  0  0  0  0  0  0  0  0
   11.4539  -16.9548   23.4531 O   0  0  0  0  0  0  0  0  0  0  0  0
   10.4680  -19.9752   26.6996 O   0  0  0  0  0  0  0  0  0  0  0  0
   12.1400  -17.7208   25.4589 O   0  0  0  0  0  0  0  0  0  0  0  0
  2  1  1  6
  2  4  1  0
  3  2  1  0
  4  6  1  0
  4  5  1  6
  6  7  2  0
  9  8  1  6
  9 10  1  0
 11  9  1  0
 12 11  1  1
 12 14  1  0
 13  6  1  0
 13 12  1  0
 14 15  2  0
 16 14  1  0
 16 17  1  0
 17 21  1  0
 17 18  1  6
 19 20  2  0
 19 18  1  0
 21 24  2  0
 21 22  1  0
 23 19  1  0
M  END
$$$$
