VLD.pdb
     RDKit          3D

 24 23  0  0  1  0  0  0  0  0999 V2000
    9.6479  -18.2536   22.1197 C   0  0  0  0  0  0  0  0  0  0  0  0
    8.2204  -17.8606   21.8522 C   0  0  2  0  0  0  0  0  0  0  0  0
    7.7318  -18.7727   20.7283 C   0  0  0  0  0  0  0  0  0  0  0  0
    8.0842  -16.4234   21.3774 C   0  0  2  0  0  0  0  0  0  0  0  0
    8.9397  -16.1606   20.2480 N   0  0  0  0  0  0  0  0  0  0  0  0
    8.4314  -15.5375   22.5087 C   0  0  0  0  0  0  0  0  0  0  0  0
    9.6178  -15.1529   22.6327 O   0  0  0  0  0  0  0  0  0  0  0  0
    7.8190  -11.5849   25.9469 C   0  0  0  0  0  0  0  0  0  0  0  0
    7.1611  -12.8508   26.4928 C   0  0  1  0  0  0  0  0  0  0  0  0
    6.0416  -12.4168   27.3903 C   0  0  0  0  0  0  0  0  0  0  0  0
    6.7011  -13.6410   25.2849 C   0  0  0  0  0  0  0  0  0  0  0  0
    7.9111  -14.2366   24.5444 C   0  0  2  0  0  0  0  0  0  0  0  0
    7.5130  -15.0833   23.4777 N   0  0  0  0  0  0  0  0  0  0  0  0
    8.8370  -14.8779   25.5107 C   0  0  0  0  0  0  0  0  0  0  0  0
    9.4569  -14.2488   26.4061 O   0  0  0  0  0  0  0  0  0  0  0  0
    9.0765  -16.2765   25.4715 N   0  0  0  0  0  0  0  0  0  0  0  0
   10.0411  -16.8853   26.3619 C   0  0  1  0  0  0  0  0  0  0  0  0
    9.5205  -18.2698   26.7026 C   0  0  0  0  0  0  0  0  0  0  0  0
   10.3615  -18.9458   27.7147 C   0  0  0  0  0  0  0  0  0  0  0  0
   11.3711  -18.3609   28.2113 O   0  0  0  0  0  0  0  0  0  0  0  0
   11.3574  -17.0831   25.7117 C   0  0  0  0  0  0  0  0  0  0  0  0
   11.6658  -16.7760   24.4068 O   0  0  0  0  0  0  0  0  0  0  0  0
   10.1010  -20.2456   28.1784 O   0  0  0  0  0  0  0  0  0  0  0  0
   12.2715  -17.5777   26.4245 O   0  0  0  0  0  0  0  0  0  0  0  0
  2  1  1  6
  2  4  1  0
  3  2  1  0
  4  6  1  0
  4  5  1  6
  6  7  2  0
  9  8  1  6
  9 10  1  0
 11  9  1  0
 12 11  1  1
 12 14  1  0
 13  6  1  0
 13 12  1  0
 14 15  2  0
 16 14  1  0
 16 17  1  0
 17 21  1  0
 17 18  1  6
 19 20  2  0
 19 18  1  0
 21 24  2  0
 21 22  1  0
 23 19  1  0
M  END
$$$$
