VLD.pdb
     RDKit          3D

 24 23  0  0  1  0  0  0  0  0999 V2000
    9.3725  -18.5251   22.2840 C   0  0  0  0  0  0  0  0  0  0  0  0
    8.3141  -17.7039   21.5989 C   0  0  2  0  0  0  0  0  0  0  0  0
    8.0692  -18.3694   20.2458 C   0  0  0  0  0  0  0  0  0  0  0  0
    8.7545  -16.2726   21.3405 C   0  0  2  0  0  0  0  0  0  0  0  0
   10.0074  -16.2292   20.6299 N   0  0  0  0  0  0  0  0  0  0  0  0
    8.8756  -15.5926   22.6475 C   0  0  0  0  0  0  0  0  0  0  0  0
    9.9883  -15.5858   23.2242 O   0  0  0  0  0  0  0  0  0  0  0  0
    8.0523  -11.6783   26.0855 C   0  0  0  0  0  0  0  0  0  0  0  0
    7.0107  -12.7769   26.2903 C   0  0  1  0  0  0  0  0  0  0  0  0
    5.7830  -12.1246   26.8509 C   0  0  0  0  0  0  0  0  0  0  0  0
    6.7959  -13.4121   24.9318 C   0  0  0  0  0  0  0  0  0  0  0  0
    7.9978  -14.2981   24.5609 C   0  0  2  0  0  0  0  0  0  0  0  0
    7.8150  -14.9385   23.3081 N   0  0  0  0  0  0  0  0  0  0  0  0
    8.3104  -15.2282   25.6743 C   0  0  0  0  0  0  0  0  0  0  0  0
    7.5615  -16.1767   26.0226 O   0  0  0  0  0  0  0  0  0  0  0  0
    9.5073  -15.0895   26.4248 N   0  0  0  0  0  0  0  0  0  0  0  0
    9.9066  -16.1079   27.3720 C   0  0  1  0  0  0  0  0  0  0  0  0
   11.0520  -16.8782   26.7407 C   0  0  0  0  0  0  0  0  0  0  0  0
   11.5733  -17.9327   27.6380 C   0  0  0  0  0  0  0  0  0  0  0  0
   11.0396  -18.1406   28.7695 O   0  0  0  0  0  0  0  0  0  0  0  0
   10.4361  -15.5284   28.6283 C   0  0  0  0  0  0  0  0  0  0  0  0
   10.4757  -14.1902   28.9445 O   0  0  0  0  0  0  0  0  0  0  0  0
   12.6645  -18.7502   27.3015 O   0  0  0  0  0  0  0  0  0  0  0  0
   10.8894  -16.3407   29.4787 O   0  0  0  0  0  0  0  0  0  0  0  0
  2  1  1  6
  2  4  1  0
  3  2  1  0
  4  6  1  0
  4  5  1  1
  6  7  2  0
  9  8  1  6
  9 10  1  0
 11  9  1  0
 12 11  1  1
 12 14  1  0
 13  6  1  0
 13 12  1  0
 14 15  2  0
 16 14  1  0
 16 17  1  0
 17 21  1  0
 17 18  1  6
 19 20  2  0
 19 18  1  0
 21 24  2  0
 21 22  1  0
 23 19  1  0
M  END
$$$$
