NVD.pdb
     RDKit          3D

 24 23  0  0  1  0  0  0  0  0999 V2000
   26.9626  -32.5896   -7.3306 N   0  0  0  0  0  0  0  0  0  0  0  0
   26.6530  -33.1396   -6.0635 C   0  0  0  0  0  0  0  0  0  0  0  0
   25.6504  -32.6604   -5.4527 O   0  0  0  0  0  0  0  0  0  0  0  0
   27.4889  -34.2243   -5.5147 C   0  0  0  0  0  0  0  0  0  0  0  0
   28.5749  -34.5557   -6.4836 C   0  0  2  0  0  0  0  0  0  0  0  0
   27.9734  -35.3132   -7.5656 N   0  0  0  0  0  0  0  0  0  0  0  0
   29.6328  -35.4115   -5.8855 C   0  0  0  0  0  0  0  0  0  0  0  0
   29.5692  -36.6568   -5.9792 O   0  0  0  0  0  0  0  0  0  0  0  0
   33.2859  -35.1197   -6.5602 C   0  0  0  0  0  0  0  0  0  0  0  0
   33.1480  -35.1107   -5.0639 C   0  0  1  0  0  0  0  0  0  0  0  0
   33.4068  -33.7388   -4.4840 C   0  0  0  0  0  0  0  0  0  0  0  0
   31.8092  -35.6183   -4.5952 C   0  0  2  0  0  0  0  0  0  0  0  0
   30.7528  -34.8483   -5.1869 N   0  0  0  0  0  0  0  0  0  0  0  0
   31.7210  -35.6707   -3.1094 C   0  0  0  0  0  0  0  0  0  0  0  0
   31.3857  -34.5991   -2.5437 O   0  0  0  0  0  0  0  0  0  0  0  0
   31.9823  -36.8074   -2.3449 N   0  0  0  0  0  0  0  0  0  0  0  0
   31.8543  -36.8044   -0.8756 C   0  0  1  0  0  0  0  0  0  0  0  0
   31.6061  -38.1732   -0.3616 C   0  0  0  0  0  0  0  0  0  0  0  0
   30.2190  -38.6318   -0.3762 C   0  0  0  0  0  0  0  0  0  0  0  0
   29.2278  -37.9721   -0.7634 O   0  0  0  0  0  0  0  0  0  0  0  0
   33.1222  -36.2351   -0.3006 C   0  0  0  0  0  0  0  0  0  0  0  0
   34.2656  -36.4734   -0.7369 O   0  0  0  0  0  0  0  0  0  0  0  0
   29.9066  -39.9330    0.0777 O   0  0  0  0  0  0  0  0  0  0  0  0
   33.0752  -35.3723    0.8045 O   0  0  0  0  0  0  0  0  0  0  0  0
  1  2  1  0
  2  3  2  0
  4  2  1  0
  5  4  1  0
  5  6  1  6
  7  5  1  0
  7  8  2  0
 10  9  1  6
 10 11  1  0
 10 12  1  0
 12 13  1  1
 13  7  1  0
 14 12  1  0
 15 14  2  0
 16 14  1  0
 17 16  1  0
 17 21  1  0
 17 18  1  1
 19 18  1  0
 20 19  2  0
 21 22  2  0
 21 24  1  0
 23 19  1  0
M  END
$$$$
