NVD.pdb
     RDKit          3D

 24 23  0  0  1  0  0  0  0  0999 V2000
   17.9208  -12.5514  -19.3191 N   0  0  0  0  0  0  0  0  0  0  0  0
   17.5184  -11.2347  -18.9903 C   0  0  0  0  0  0  0  0  0  0  0  0
   16.6577  -10.6864  -19.7429 O   0  0  0  0  0  0  0  0  0  0  0  0
   18.1020  -10.5660  -17.8117 C   0  0  0  0  0  0  0  0  0  0  0  0
   19.1423  -11.4466  -17.2032 C   0  0  2  0  0  0  0  0  0  0  0  0
   18.4548  -12.5643  -16.5834 N   0  0  0  0  0  0  0  0  0  0  0  0
   19.9166  -10.7621  -16.1349 C   0  0  0  0  0  0  0  0  0  0  0  0
   19.4476  -10.6565  -14.9805 O   0  0  0  0  0  0  0  0  0  0  0  0
   23.3470  -11.5824  -14.9292 C   0  0  0  0  0  0  0  0  0  0  0  0
   23.3776  -10.1311  -15.3175 C   0  0  1  0  0  0  0  0  0  0  0  0
   24.1169   -9.9127  -16.6180 C   0  0  0  0  0  0  0  0  0  0  0  0
   22.0043   -9.5175  -15.4024 C   0  0  2  0  0  0  0  0  0  0  0  0
   21.2150  -10.2039  -16.3845 N   0  0  0  0  0  0  0  0  0  0  0  0
   22.0630   -8.0476  -15.6354 C   0  0  0  0  0  0  0  0  0  0  0  0
   22.0046   -7.6822  -16.8371 O   0  0  0  0  0  0  0  0  0  0  0  0
   22.1752   -7.0940  -14.6241 N   0  0  0  0  0  0  0  0  0  0  0  0
   22.1084   -5.6479  -14.9061 C   0  0  1  0  0  0  0  0  0  0  0  0
   20.8435   -5.2998  -15.5976 C   0  0  0  0  0  0  0  0  0  0  0  0
   20.5689   -3.8757  -15.7733 C   0  0  0  0  0  0  0  0  0  0  0  0
   21.4170   -2.9835  -16.0021 O   0  0  0  0  0  0  0  0  0  0  0  0
   22.2266   -4.9143  -13.5984 C   0  0  0  0  0  0  0  0  0  0  0  0
   22.2204   -3.6730  -13.4813 O   0  0  0  0  0  0  0  0  0  0  0  0
   19.2402   -3.4025  -15.6875 O   0  0  0  0  0  0  0  0  0  0  0  0
   22.3573   -5.6245  -12.3958 O   0  0  0  0  0  0  0  0  0  0  0  0
  1  2  1  0
  2  3  2  0
  4  2  1  0
  5  4  1  0
  5  6  1  1
  7  5  1  0
  7  8  2  0
 10  9  1  6
 10 11  1  0
 10 12  1  0
 12 13  1  6
 13  7  1  0
 14 12  1  0
 15 14  2  0
 16 14  1  0
 17 16  1  0
 17 21  1  0
 17 18  1  1
 19 18  1  0
 20 19  2  0
 21 22  2  0
 21 24  1  0
 23 19  1  0
M  END
$$$$
