NVD.pdb
     RDKit          3D

 24 23  0  0  1  0  0  0  0  0999 V2000
   20.5414  -14.6371  -17.7055 N   0  0  0  0  0  0  0  0  0  0  0  0
   20.0588  -13.6386  -16.8258 C   0  0  0  0  0  0  0  0  0  0  0  0
   19.8065  -13.9890  -15.6335 O   0  0  0  0  0  0  0  0  0  0  0  0
   19.8721  -12.2604  -17.3181 C   0  0  0  0  0  0  0  0  0  0  0  0
   18.5461  -11.7450  -16.8663 C   0  0  2  0  0  0  0  0  0  0  0  0
   17.5273  -12.4492  -17.6228 N   0  0  0  0  0  0  0  0  0  0  0  0
   18.3724  -10.2948  -17.1426 C   0  0  0  0  0  0  0  0  0  0  0  0
   18.4591   -9.8571  -18.3107 O   0  0  0  0  0  0  0  0  0  0  0  0
   16.7506   -5.8920  -15.5959 C   0  0  0  0  0  0  0  0  0  0  0  0
   16.7539   -7.3903  -15.7114 C   0  0  1  0  0  0  0  0  0  0  0  0
   15.5860   -7.8935  -16.5288 C   0  0  0  0  0  0  0  0  0  0  0  0
   18.0418   -7.9324  -16.2745 C   0  0  2  0  0  0  0  0  0  0  0  0
   18.1021   -9.3544  -16.0928 N   0  0  0  0  0  0  0  0  0  0  0  0
   19.2326   -7.2299  -15.7208 C   0  0  0  0  0  0  0  0  0  0  0  0
   19.7921   -7.7900  -14.7439 O   0  0  0  0  0  0  0  0  0  0  0  0
   19.7375   -6.0274  -16.2145 N   0  0  0  0  0  0  0  0  0  0  0  0
   20.9863   -5.4364  -15.6983 C   0  0  1  0  0  0  0  0  0  0  0  0
   21.0003   -5.4370  -14.2153 C   0  0  0  0  0  0  0  0  0  0  0  0
   22.2291   -4.9718  -13.5763 C   0  0  0  0  0  0  0  0  0  0  0  0
   22.8196   -3.8929  -13.8103 O   0  0  0  0  0  0  0  0  0  0  0  0
   22.1381   -6.2322  -16.2479 C   0  0  0  0  0  0  0  0  0  0  0  0
   22.2144   -7.4763  -16.2210 O   0  0  0  0  0  0  0  0  0  0  0  0
   22.8548   -5.7728  -12.5947 O   0  0  0  0  0  0  0  0  0  0  0  0
   23.2305   -5.5821  -16.8412 O   0  0  0  0  0  0  0  0  0  0  0  0
  1  2  1  0
  2  3  2  0
  4  2  1  0
  5  4  1  0
  5  6  1  6
  7  5  1  0
  7  8  2  0
 10  9  1  6
 10 11  1  0
 10 12  1  0
 12 13  1  1
 13  7  1  0
 14 12  1  0
 15 14  2  0
 16 14  1  0
 17 16  1  0
 17 21  1  0
 17 18  1  1
 19 18  1  0
 20 19  2  0
 21 22  2  0
 21 24  1  0
 23 19  1  0
M  END
$$$$
