NVD.pdb
     RDKit          3D

 24 23  0  0  1  0  0  0  0  0999 V2000
   17.3334  -11.6227  -19.0352 N   0  0  0  0  0  0  0  0  0  0  0  0
   16.8585  -10.4075  -18.4863 C   0  0  0  0  0  0  0  0  0  0  0  0
   15.9419   -9.8035  -19.1212 O   0  0  0  0  0  0  0  0  0  0  0  0
   17.4344   -9.9017  -17.2257 C   0  0  0  0  0  0  0  0  0  0  0  0
   18.4981  -10.8362  -16.7533 C   0  0  2  0  0  0  0  0  0  0  0  0
   17.8351  -11.9752  -16.1457 N   0  0  0  0  0  0  0  0  0  0  0  0
   19.3698  -10.2306  -15.7126 C   0  0  0  0  0  0  0  0  0  0  0  0
   18.9338  -10.0316  -14.5577 O   0  0  0  0  0  0  0  0  0  0  0  0
   22.9010  -11.2867  -14.6511 C   0  0  0  0  0  0  0  0  0  0  0  0
   22.9487   -9.8385  -15.0495 C   0  0  1  0  0  0  0  0  0  0  0  0
   23.6174   -9.6466  -16.3917 C   0  0  0  0  0  0  0  0  0  0  0  0
   21.5900   -9.1877  -15.0590 C   0  0  2  0  0  0  0  0  0  0  0  0
   20.7271   -9.8563  -15.9903 N   0  0  0  0  0  0  0  0  0  0  0  0
   21.6751   -7.7210  -15.3035 C   0  0  0  0  0  0  0  0  0  0  0  0
   21.4955   -7.3540  -16.4926 O   0  0  0  0  0  0  0  0  0  0  0  0
   21.9345   -6.7719  -14.3153 N   0  0  0  0  0  0  0  0  0  0  0  0
   21.9800   -5.3284  -14.6143 C   0  0  1  0  0  0  0  0  0  0  0  0
   20.6979   -4.8669  -15.1996 C   0  0  0  0  0  0  0  0  0  0  0  0
   20.5936   -3.4397  -15.4938 C   0  0  0  0  0  0  0  0  0  0  0  0
   21.4961   -2.7177  -15.9753 O   0  0  0  0  0  0  0  0  0  0  0  0
   22.2810   -4.5986  -13.3341 C   0  0  0  0  0  0  0  0  0  0  0  0
   22.4265   -3.3638  -13.2417 O   0  0  0  0  0  0  0  0  0  0  0  0
   19.3848   -2.7567  -15.2308 O   0  0  0  0  0  0  0  0  0  0  0  0
   22.4202   -5.3055  -12.1304 O   0  0  0  0  0  0  0  0  0  0  0  0
  1  2  1  0
  2  3  2  0
  4  2  1  0
  5  4  1  0
  5  6  1  1
  7  5  1  0
  7  8  2  0
 10  9  1  6
 10 11  1  0
 10 12  1  0
 12 13  1  6
 13  7  1  0
 14 12  1  0
 15 14  2  0
 16 14  1  0
 17 16  1  0
 17 21  1  0
 17 18  1  1
 19 18  1  0
 20 19  2  0
 21 22  2  0
 21 24  1  0
 23 19  1  0
M  END
$$$$
