NVD.pdb
     RDKit          3D

 24 23  0  0  1  0  0  0  0  0999 V2000
   11.0245  -15.0724  -13.1369 N   0  0  0  0  0  0  0  0  0  0  0  0
   11.5404  -14.1013  -12.2454 C   0  0  0  0  0  0  0  0  0  0  0  0
   10.7467  -13.6349  -11.3734 O   0  0  0  0  0  0  0  0  0  0  0  0
   12.9492  -13.6788  -12.3620 C   0  0  0  0  0  0  0  0  0  0  0  0
   13.5645  -14.3205  -13.5610 C   0  0  2  0  0  0  0  0  0  0  0  0
   13.7919  -15.7165  -13.2362 N   0  0  0  0  0  0  0  0  0  0  0  0
   14.8839  -13.7318  -13.9103 C   0  0  0  0  0  0  0  0  0  0  0  0
   15.8937  -13.9827  -13.2168 O   0  0  0  0  0  0  0  0  0  0  0  0
   16.9078  -14.2827  -16.8729 C   0  0  0  0  0  0  0  0  0  0  0  0
   16.6613  -12.8008  -16.8337 C   0  0  1  0  0  0  0  0  0  0  0  0
   15.6004  -12.3812  -17.8256 C   0  0  0  0  0  0  0  0  0  0  0  0
   16.2996  -12.3026  -15.4587 C   0  0  2  0  0  0  0  0  0  0  0  0
   15.0467  -12.8645  -15.0420 N   0  0  0  0  0  0  0  0  0  0  0  0
   16.3180  -10.8154  -15.3810 C   0  0  0  0  0  0  0  0  0  0  0  0
   15.1962  -10.2605  -15.2607 O   0  0  0  0  0  0  0  0  0  0  0  0
   17.4750  -10.0386  -15.4334 N   0  0  0  0  0  0  0  0  0  0  0  0
   17.4257   -8.5648  -15.4078 C   0  0  1  0  0  0  0  0  0  0  0  0
   16.8191   -8.0759  -14.1458 C   0  0  0  0  0  0  0  0  0  0  0  0
   16.8393   -6.6308  -13.9317 C   0  0  0  0  0  0  0  0  0  0  0  0
   17.2592   -5.7710  -14.7391 O   0  0  0  0  0  0  0  0  0  0  0  0
   18.8305   -8.0507  -15.5644 C   0  0  0  0  0  0  0  0  0  0  0  0
   19.1358   -6.8455  -15.6577 O   0  0  0  0  0  0  0  0  0  0  0  0
   16.3520   -6.0956  -12.7180 O   0  0  0  0  0  0  0  0  0  0  0  0
   19.9110   -8.9438  -15.6170 O   0  0  0  0  0  0  0  0  0  0  0  0
  1  2  1  0
  2  3  2  0
  4  2  1  0
  5  4  1  0
  5  6  1  1
  7  5  1  0
  7  8  2  0
 10  9  1  1
 10 11  1  0
 10 12  1  0
 12 13  1  6
 13  7  1  0
 14 12  1  0
 15 14  2  0
 16 14  1  0
 17 16  1  0
 17 21  1  0
 17 18  1  1
 19 18  1  0
 20 19  2  0
 21 22  2  0
 21 24  1  0
 23 19  1  0
M  END
$$$$
