NVD.pdb
     RDKit          3D

 24 23  0  0  1  0  0  0  0  0999 V2000
   24.3543  -34.0050  -12.4677 N   0  0  0  0  0  0  0  0  0  0  0  0
   23.7702  -33.3553  -11.3540 C   0  0  0  0  0  0  0  0  0  0  0  0
   23.0297  -32.3534  -11.5899 O   0  0  0  0  0  0  0  0  0  0  0  0
   24.0388  -33.8571   -9.9928 C   0  0  0  0  0  0  0  0  0  0  0  0
   23.3540  -32.9831   -8.9952 C   0  0  2  0  0  0  0  0  0  0  0  0
   24.0756  -31.7246   -8.9546 N   0  0  0  0  0  0  0  0  0  0  0  0
   23.3856  -33.5503   -7.6216 C   0  0  0  0  0  0  0  0  0  0  0  0
   23.0187  -34.7274   -7.4131 O   0  0  0  0  0  0  0  0  0  0  0  0
   25.4503  -33.4301   -3.1651 C   0  0  0  0  0  0  0  0  0  0  0  0
   25.3008  -32.9913   -4.5946 C   0  0  1  0  0  0  0  0  0  0  0  0
   26.3607  -33.6011   -5.4834 C   0  0  0  0  0  0  0  0  0  0  0  0
   23.9340  -33.2822   -5.1575 C   0  0  2  0  0  0  0  0  0  0  0  0
   23.8327  -32.7785   -6.4973 N   0  0  0  0  0  0  0  0  0  0  0  0
   22.8469  -32.7824   -4.2706 C   0  0  0  0  0  0  0  0  0  0  0  0
   22.5319  -31.5743   -4.4199 O   0  0  0  0  0  0  0  0  0  0  0  0
   22.1870  -33.5597   -3.3193 N   0  0  0  0  0  0  0  0  0  0  0  0
   21.1748  -32.9876   -2.4120 C   0  0  1  0  0  0  0  0  0  0  0  0
   19.8280  -33.0187   -3.0322 C   0  0  0  0  0  0  0  0  0  0  0  0
   18.7191  -32.5529   -2.2028 C   0  0  0  0  0  0  0  0  0  0  0  0
   18.0308  -33.2559   -1.4284 O   0  0  0  0  0  0  0  0  0  0  0  0
   21.1971  -33.7795   -1.1335 C   0  0  0  0  0  0  0  0  0  0  0  0
   21.5229  -34.9801   -1.0513 O   0  0  0  0  0  0  0  0  0  0  0  0
   18.3430  -31.1912   -2.2364 O   0  0  0  0  0  0  0  0  0  0  0  0
   20.8341  -33.1773    0.0804 O   0  0  0  0  0  0  0  0  0  0  0  0
  1  2  1  0
  2  3  2  0
  4  2  1  0
  5  4  1  0
  5  6  1  1
  7  5  1  0
  7  8  2  0
 10  9  1  1
 10 11  1  0
 10 12  1  0
 12 13  1  6
 13  7  1  0
 14 12  1  0
 15 14  2  0
 16 14  1  0
 17 16  1  0
 17 21  1  0
 17 18  1  6
 19 18  1  0
 20 19  2  0
 21 22  2  0
 21 24  1  0
 23 19  1  0
M  END
$$$$
