NVD.pdb
     RDKit          3D

 24 23  0  0  1  0  0  0  0  0999 V2000
   14.5041  -14.2541  -11.0299 N   0  0  0  0  0  0  0  0  0  0  0  0
   15.3360  -13.6279  -11.9888 C   0  0  0  0  0  0  0  0  0  0  0  0
   16.0669  -14.3799  -12.7017 O   0  0  0  0  0  0  0  0  0  0  0  0
   15.3214  -12.1584  -12.1193 C   0  0  0  0  0  0  0  0  0  0  0  0
   14.4116  -11.5755  -11.0895 C   0  0  2  0  0  0  0  0  0  0  0  0
   13.0512  -11.8868  -11.4877 N   0  0  0  0  0  0  0  0  0  0  0  0
   14.5158  -10.0950  -11.0072 C   0  0  0  0  0  0  0  0  0  0  0  0
   13.9698   -9.3722  -11.8691 O   0  0  0  0  0  0  0  0  0  0  0  0
   15.8805   -6.2160   -8.1566 C   0  0  0  0  0  0  0  0  0  0  0  0
   15.4448   -7.6389   -8.3659 C   0  0  1  0  0  0  0  0  0  0  0  0
   14.1144   -7.9221   -7.7062 C   0  0  0  0  0  0  0  0  0  0  0  0
   15.3853   -8.0262   -9.8206 C   0  0  2  0  0  0  0  0  0  0  0  0
   15.2375   -9.4476   -9.9491 N   0  0  0  0  0  0  0  0  0  0  0  0
   16.5470   -7.4963  -10.5874 C   0  0  0  0  0  0  0  0  0  0  0  0
   17.6570   -8.0308  -10.3365 O   0  0  0  0  0  0  0  0  0  0  0  0
   16.4659   -6.4751  -11.5337 N   0  0  0  0  0  0  0  0  0  0  0  0
   17.6169   -6.1010  -12.3766 C   0  0  1  0  0  0  0  0  0  0  0  0
   18.0603   -7.2462  -13.2081 C   0  0  0  0  0  0  0  0  0  0  0  0
   19.1152   -6.9734  -14.1814 C   0  0  0  0  0  0  0  0  0  0  0  0
   19.7140   -5.8845  -14.3348 O   0  0  0  0  0  0  0  0  0  0  0  0
   17.2034   -4.9390  -13.2374 C   0  0  0  0  0  0  0  0  0  0  0  0
   16.1018   -4.8427  -13.8132 O   0  0  0  0  0  0  0  0  0  0  0  0
   19.5410   -7.9963  -15.0583 O   0  0  0  0  0  0  0  0  0  0  0  0
   18.0783   -3.8619  -13.4431 O   0  0  0  0  0  0  0  0  0  0  0  0
  1  2  1  0
  2  3  2  0
  4  2  1  0
  5  4  1  0
  5  6  1  6
  7  5  1  0
  7  8  2  0
 10  9  1  6
 10 11  1  0
 10 12  1  0
 12 13  1  1
 13  7  1  0
 14 12  1  0
 15 14  2  0
 16 14  1  0
 17 16  1  0
 17 21  1  0
 17 18  1  6
 19 18  1  0
 20 19  2  0
 21 22  2  0
 21 24  1  0
 23 19  1  0
M  END
$$$$
