NVD.pdb
     RDKit          3D

 24 23  0  0  1  0  0  0  0  0999 V2000
   18.6200  -14.3948  -19.3418 N   0  0  0  0  0  0  0  0  0  0  0  0
   18.0419  -13.1076  -19.4541 C   0  0  0  0  0  0  0  0  0  0  0  0
   17.4014  -12.8504  -20.5178 O   0  0  0  0  0  0  0  0  0  0  0  0
   18.2027  -12.1368  -18.3548 C   0  0  0  0  0  0  0  0  0  0  0  0
   19.0787  -12.7219  -17.2973 C   0  0  2  0  0  0  0  0  0  0  0  0
   18.2778  -13.6730  -16.5489 N   0  0  0  0  0  0  0  0  0  0  0  0
   19.5656  -11.7032  -16.3305 C   0  0  0  0  0  0  0  0  0  0  0  0
   18.8175  -11.2845  -15.4202 O   0  0  0  0  0  0  0  0  0  0  0  0
   23.4409   -9.2991  -14.3610 C   0  0  0  0  0  0  0  0  0  0  0  0
   22.8488  -10.3669  -15.2370 C   0  0  1  0  0  0  0  0  0  0  0  0
   23.0170  -11.7439  -14.6362 C   0  0  0  0  0  0  0  0  0  0  0  0
   21.3969  -10.1242  -15.5577 C   0  0  2  0  0  0  0  0  0  0  0  0
   20.8954  -11.1686  -16.4042 N   0  0  0  0  0  0  0  0  0  0  0  0
   21.1697   -8.7653  -16.1234 C   0  0  0  0  0  0  0  0  0  0  0  0
   21.1420   -8.6936  -17.3784 O   0  0  0  0  0  0  0  0  0  0  0  0
   20.9929   -7.6133  -15.3578 N   0  0  0  0  0  0  0  0  0  0  0  0
   20.6385   -6.3186  -15.9688 C   0  0  1  0  0  0  0  0  0  0  0  0
   19.3817   -6.4262  -16.7488 C   0  0  0  0  0  0  0  0  0  0  0  0
   18.8697   -5.1879  -17.3312 C   0  0  0  0  0  0  0  0  0  0  0  0
   19.5238   -4.3693  -18.0165 O   0  0  0  0  0  0  0  0  0  0  0  0
   20.5020   -5.3063  -14.8648 C   0  0  0  0  0  0  0  0  0  0  0  0
   20.2721   -4.0938  -15.0420 O   0  0  0  0  0  0  0  0  0  0  0  0
   17.5171   -4.8287  -17.1359 O   0  0  0  0  0  0  0  0  0  0  0  0
   20.6349   -5.6967  -13.5239 O   0  0  0  0  0  0  0  0  0  0  0  0
  1  2  1  0
  2  3  2  0
  4  2  1  0
  5  4  1  0
  5  6  1  1
  7  5  1  0
  7  8  2  0
 10  9  1  1
 10 11  1  0
 10 12  1  0
 12 13  1  6
 13  7  1  0
 14 12  1  0
 15 14  2  0
 16 14  1  0
 17 16  1  0
 17 21  1  0
 17 18  1  1
 19 18  1  0
 20 19  2  0
 21 22  2  0
 21 24  1  0
 23 19  1  0
M  END
$$$$
