NVD.pdb
     RDKit          3D

 24 23  0  0  1  0  0  0  0  0999 V2000
   14.8472  -11.1944  -18.2520 N   0  0  0  0  0  0  0  0  0  0  0  0
   16.2472  -11.0957  -18.4362 C   0  0  0  0  0  0  0  0  0  0  0  0
   16.7158  -11.4956  -19.5446 O   0  0  0  0  0  0  0  0  0  0  0  0
   17.0883  -10.5442  -17.3569 C   0  0  0  0  0  0  0  0  0  0  0  0
   18.2015  -11.4928  -17.0583 C   0  0  2  0  0  0  0  0  0  0  0  0
   17.6118  -12.6802  -16.4679 N   0  0  0  0  0  0  0  0  0  0  0  0
   19.1681  -10.9465  -16.0700 C   0  0  0  0  0  0  0  0  0  0  0  0
   18.8468  -10.8287  -14.8673 O   0  0  0  0  0  0  0  0  0  0  0  0
   23.8537  -10.0797  -14.8350 C   0  0  0  0  0  0  0  0  0  0  0  0
   22.7910  -10.6409  -15.7371 C   0  0  1  0  0  0  0  0  0  0  0  0
   22.6403  -12.1354  -15.5659 C   0  0  0  0  0  0  0  0  0  0  0  0
   21.4543   -9.9696  -15.5571 C   0  0  2  0  0  0  0  0  0  0  0  0
   20.4895  -10.5388  -16.4537 N   0  0  0  0  0  0  0  0  0  0  0  0
   21.5522   -8.4887  -15.6808 C   0  0  0  0  0  0  0  0  0  0  0  0
   21.4895   -8.0328  -16.8509 O   0  0  0  0  0  0  0  0  0  0  0  0
   21.7042   -7.6169  -14.6030 N   0  0  0  0  0  0  0  0  0  0  0  0
   21.7928   -6.1565  -14.7887 C   0  0  1  0  0  0  0  0  0  0  0  0
   20.5647   -5.6276  -15.4302 C   0  0  0  0  0  0  0  0  0  0  0  0
   20.4808   -4.1764  -15.5767 C   0  0  0  0  0  0  0  0  0  0  0  0
   21.3829   -3.4254  -16.0126 O   0  0  0  0  0  0  0  0  0  0  0  0
   22.0078   -5.5293  -13.4388 C   0  0  0  0  0  0  0  0  0  0  0  0
   21.8997   -6.1332  -12.3534 O   0  0  0  0  0  0  0  0  0  0  0  0
   19.2950   -3.5024  -15.2078 O   0  0  0  0  0  0  0  0  0  0  0  0
   22.3537   -4.1738  -13.3332 O   0  0  0  0  0  0  0  0  0  0  0  0
  1  2  1  0
  2  3  2  0
  4  2  1  0
  5  4  1  0
  5  6  1  1
  7  5  1  0
  7  8  2  0
 10  9  1  1
 10 11  1  0
 10 12  1  0
 12 13  1  6
 13  7  1  0
 14 12  1  0
 15 14  2  0
 16 14  1  0
 17 16  1  0
 17 21  1  0
 17 18  1  1
 19 18  1  0
 20 19  2  0
 21 22  2  0
 21 24  1  0
 23 19  1  0
M  END
$$$$
