NVD.pdb
     RDKit          3D

 24 23  0  0  1  0  0  0  0  0999 V2000
   15.3904  -11.8948  -16.1908 N   0  0  0  0  0  0  0  0  0  0  0  0
   15.1498  -10.6647  -15.5331 C   0  0  0  0  0  0  0  0  0  0  0  0
   13.9453  -10.2769  -15.4513 O   0  0  0  0  0  0  0  0  0  0  0  0
   16.2831   -9.8986  -14.9805 C   0  0  0  0  0  0  0  0  0  0  0  0
   17.5585  -10.6201  -15.2649 C   0  0  2  0  0  0  0  0  0  0  0  0
   17.5676  -11.8208  -14.4499 N   0  0  0  0  0  0  0  0  0  0  0  0
   18.7590   -9.8277  -14.8905 C   0  0  0  0  0  0  0  0  0  0  0  0
   19.0934   -9.7118  -13.6912 O   0  0  0  0  0  0  0  0  0  0  0  0
   23.1721   -8.1865  -16.2671 C   0  0  0  0  0  0  0  0  0  0  0  0
   21.9284   -9.0248  -16.3612 C   0  0  1  0  0  0  0  0  0  0  0  0
   22.1766  -10.4498  -15.9217 C   0  0  0  0  0  0  0  0  0  0  0  0
   20.7716   -8.4468  -15.5882 C   0  0  2  0  0  0  0  0  0  0  0  0
   19.5693   -9.1742  -15.8784 N   0  0  0  0  0  0  0  0  0  0  0  0
   20.6267   -6.9816  -15.8125 C   0  0  0  0  0  0  0  0  0  0  0  0
   20.1610   -6.6434  -16.9304 O   0  0  0  0  0  0  0  0  0  0  0  0
   20.9695   -6.0045  -14.8784 N   0  0  0  0  0  0  0  0  0  0  0  0
   20.8309   -4.5654  -15.1699 C   0  0  1  0  0  0  0  0  0  0  0  0
   20.7653   -3.7740  -13.9174 C   0  0  0  0  0  0  0  0  0  0  0  0
   20.6329   -2.3269  -14.0686 C   0  0  0  0  0  0  0  0  0  0  0  0
   20.0915   -1.7317  -15.0278 O   0  0  0  0  0  0  0  0  0  0  0  0
   22.0060   -4.1469  -16.0102 C   0  0  0  0  0  0  0  0  0  0  0  0
   23.1936   -4.4265  -15.7537 O   0  0  0  0  0  0  0  0  0  0  0  0
   21.1454   -1.4684  -13.0700 O   0  0  0  0  0  0  0  0  0  0  0  0
   21.8118   -3.3864  -17.1729 O   0  0  0  0  0  0  0  0  0  0  0  0
  1  2  1  0
  2  3  2  0
  4  2  1  0
  5  4  1  0
  5  6  1  1
  7  5  1  0
  7  8  2  0
 10  9  1  1
 10 11  1  0
 10 12  1  0
 12 13  1  6
 13  7  1  0
 14 12  1  0
 15 14  2  0
 16 14  1  0
 17 16  1  0
 17 21  1  0
 17 18  1  1
 19 18  1  0
 20 19  2  0
 21 22  2  0
 21 24  1  0
 23 19  1  0
M  END
$$$$
