NVD.pdb
     RDKit          3D

 24 23  0  0  1  0  0  0  0  0999 V2000
   15.8415  -11.6742  -19.0996 N   0  0  0  0  0  0  0  0  0  0  0  0
   17.2518  -11.6813  -18.9780 C   0  0  0  0  0  0  0  0  0  0  0  0
   17.9040  -12.3546  -19.8320 O   0  0  0  0  0  0  0  0  0  0  0  0
   17.8943  -10.9228  -17.8878 C   0  0  0  0  0  0  0  0  0  0  0  0
   18.9411  -11.7682  -17.2419 C   0  0  2  0  0  0  0  0  0  0  0  0
   18.2584  -12.8227  -16.5152 N   0  0  0  0  0  0  0  0  0  0  0  0
   19.7563  -11.0133  -16.2545 C   0  0  0  0  0  0  0  0  0  0  0  0
   19.2744  -10.6950  -15.1455 O   0  0  0  0  0  0  0  0  0  0  0  0
   24.2738   -9.6792  -14.7342 C   0  0  0  0  0  0  0  0  0  0  0  0
   23.3284  -10.4646  -15.5988 C   0  0  1  0  0  0  0  0  0  0  0  0
   23.2614  -11.9166  -15.1832 C   0  0  0  0  0  0  0  0  0  0  0  0
   21.9407   -9.8792  -15.6326 C   0  0  2  0  0  0  0  0  0  0  0  0
   21.1099  -10.6261  -16.5330 N   0  0  0  0  0  0  0  0  0  0  0  0
   21.9569   -8.4217  -15.9387 C   0  0  0  0  0  0  0  0  0  0  0  0
   22.3478   -8.1100  -17.0923 O   0  0  0  0  0  0  0  0  0  0  0  0
   21.5741   -7.4247  -15.0419 N   0  0  0  0  0  0  0  0  0  0  0  0
   21.6420   -5.9937  -15.3925 C   0  0  1  0  0  0  0  0  0  0  0  0
   20.3172   -5.4912  -15.8305 C   0  0  0  0  0  0  0  0  0  0  0  0
   20.2274   -4.0623  -16.1216 C   0  0  0  0  0  0  0  0  0  0  0  0
   21.0279   -3.3999  -16.8201 O   0  0  0  0  0  0  0  0  0  0  0  0
   22.1301   -5.2426  -14.1844 C   0  0  0  0  0  0  0  0  0  0  0  0
   22.2303   -5.7306  -13.0415 O   0  0  0  0  0  0  0  0  0  0  0  0
   19.1581   -3.3053  -15.5921 O   0  0  0  0  0  0  0  0  0  0  0  0
   22.5107   -3.8966  -14.2918 O   0  0  0  0  0  0  0  0  0  0  0  0
  1  2  1  0
  2  3  2  0
  4  2  1  0
  5  4  1  0
  5  6  1  1
  7  5  1  0
  7  8  2  0
 10  9  1  1
 10 11  1  0
 10 12  1  0
 12 13  1  6
 13  7  1  0
 14 12  1  0
 15 14  2  0
 16 14  1  0
 17 16  1  0
 17 21  1  0
 17 18  1  1
 19 18  1  0
 20 19  2  0
 21 22  2  0
 21 24  1  0
 23 19  1  0
M  END
$$$$
