NVD.pdb
     RDKit          3D

 24 23  0  0  1  0  0  0  0  0999 V2000
   16.5560  -14.9589  -18.4647 N   0  0  0  0  0  0  0  0  0  0  0  0
   16.0869  -13.9230  -17.6217 C   0  0  0  0  0  0  0  0  0  0  0  0
   14.8623  -13.6080  -17.7166 O   0  0  0  0  0  0  0  0  0  0  0  0
   17.0189  -13.2648  -16.6864 C   0  0  0  0  0  0  0  0  0  0  0  0
   18.3725  -13.8805  -16.8155 C   0  0  2  0  0  0  0  0  0  0  0  0
   18.3149  -15.1880  -16.1884 N   0  0  0  0  0  0  0  0  0  0  0  0
   19.4239  -13.1024  -16.1094 C   0  0  0  0  0  0  0  0  0  0  0  0
   19.4479  -13.0574  -14.8600 O   0  0  0  0  0  0  0  0  0  0  0  0
   23.8704  -10.9877  -16.1780 C   0  0  0  0  0  0  0  0  0  0  0  0
   22.7954  -11.8759  -16.7380 C   0  0  1  0  0  0  0  0  0  0  0  0
   23.0946  -13.3386  -16.5006 C   0  0  0  0  0  0  0  0  0  0  0  0
   21.4247  -11.5432  -16.2085 C   0  0  2  0  0  0  0  0  0  0  0  0
   20.4382  -12.3828  -16.8255 N   0  0  0  0  0  0  0  0  0  0  0  0
   21.1116  -10.0932  -16.3413 C   0  0  0  0  0  0  0  0  0  0  0  0
   20.8015   -9.7048  -17.4963 O   0  0  0  0  0  0  0  0  0  0  0  0
   21.1446   -9.1809  -15.2872 N   0  0  0  0  0  0  0  0  0  0  0  0
   20.7751   -7.7649  -15.4706 C   0  0  1  0  0  0  0  0  0  0  0  0
   19.3724   -7.6384  -15.9353 C   0  0  0  0  0  0  0  0  0  0  0  0
   18.8443   -6.2808  -16.0472 C   0  0  0  0  0  0  0  0  0  0  0  0
   19.4043   -5.3157  -16.6152 O   0  0  0  0  0  0  0  0  0  0  0  0
   20.9725   -7.0599  -14.1567 C   0  0  0  0  0  0  0  0  0  0  0  0
   21.2673   -7.6282  -13.0869 O   0  0  0  0  0  0  0  0  0  0  0  0
   17.5882   -5.9688  -15.4801 O   0  0  0  0  0  0  0  0  0  0  0  0
   20.8255   -5.6675  -14.0697 O   0  0  0  0  0  0  0  0  0  0  0  0
  1  2  1  0
  2  3  2  0
  4  2  1  0
  5  4  1  0
  5  6  1  1
  7  5  1  0
  7  8  2  0
 10  9  1  1
 10 11  1  0
 10 12  1  0
 12 13  1  6
 13  7  1  0
 14 12  1  0
 15 14  2  0
 16 14  1  0
 17 16  1  0
 17 21  1  0
 17 18  1  1
 19 18  1  0
 20 19  2  0
 21 22  2  0
 21 24  1  0
 23 19  1  0
M  END
$$$$
