NVD.pdb
     RDKit          3D

 24 23  0  0  1  0  0  0  0  0999 V2000
   11.4633  -14.2866  -13.8346 N   0  0  0  0  0  0  0  0  0  0  0  0
   11.7889  -14.0611  -12.4756 C   0  0  0  0  0  0  0  0  0  0  0  0
   10.8706  -14.2462  -11.6210 O   0  0  0  0  0  0  0  0  0  0  0  0
   13.1525  -13.6296  -12.1137 C   0  0  0  0  0  0  0  0  0  0  0  0
   13.9834  -13.5153  -13.3484 C   0  0  2  0  0  0  0  0  0  0  0  0
   14.3601  -14.8601  -13.7428 N   0  0  0  0  0  0  0  0  0  0  0  0
   15.2416  -12.7568  -13.1222 C   0  0  0  0  0  0  0  0  0  0  0  0
   16.2127  -13.2963  -12.5484 O   0  0  0  0  0  0  0  0  0  0  0  0
   17.7483  -11.8013  -15.2504 C   0  0  0  0  0  0  0  0  0  0  0  0
   17.3077  -10.4795  -14.6873 C   0  0  1  0  0  0  0  0  0  0  0  0
   16.4561   -9.7065  -15.6684 C   0  0  0  0  0  0  0  0  0  0  0  0
   16.5794  -10.6143  -13.3754 C   0  0  2  0  0  0  0  0  0  0  0  0
   15.3875  -11.3942  -13.5485 N   0  0  0  0  0  0  0  0  0  0  0  0
   16.3153   -9.2910  -12.7450 C   0  0  0  0  0  0  0  0  0  0  0  0
   15.2834   -8.6926  -13.1423 O   0  0  0  0  0  0  0  0  0  0  0  0
   17.1263   -8.7063  -11.7727 N   0  0  0  0  0  0  0  0  0  0  0  0
   16.8539   -7.3589  -11.2385 C   0  0  1  0  0  0  0  0  0  0  0  0
   17.0522   -7.3203   -9.7693 C   0  0  0  0  0  0  0  0  0  0  0  0
   16.9550   -6.0082   -9.1341 C   0  0  0  0  0  0  0  0  0  0  0  0
   16.4753   -4.9728   -9.6493 O   0  0  0  0  0  0  0  0  0  0  0  0
   17.7729   -6.3905  -11.9314 C   0  0  0  0  0  0  0  0  0  0  0  0
   18.8722   -6.6957  -12.4342 O   0  0  0  0  0  0  0  0  0  0  0  0
   17.4309   -5.8312   -7.8154 O   0  0  0  0  0  0  0  0  0  0  0  0
   17.4208   -5.0376  -12.0475 O   0  0  0  0  0  0  0  0  0  0  0  0
  1  2  1  0
  2  3  2  0
  4  2  1  0
  5  4  1  0
  5  6  1  1
  7  5  1  0
  7  8  2  0
 10  9  1  6
 10 11  1  0
 10 12  1  0
 12 13  1  6
 13  7  1  0
 14 12  1  0
 15 14  2  0
 16 14  1  0
 17 16  1  0
 17 21  1  0
 17 18  1  1
 19 18  1  0
 20 19  2  0
 21 22  2  0
 21 24  1  0
 23 19  1  0
M  END
$$$$
