NVD.pdb
     RDKit          3D

 24 23  0  0  1  0  0  0  0  0999 V2000
   17.5209  -12.3926  -19.5001 N   0  0  0  0  0  0  0  0  0  0  0  0
   16.8705  -11.3608  -18.7817 C   0  0  0  0  0  0  0  0  0  0  0  0
   15.8190  -10.8713  -19.2942 O   0  0  0  0  0  0  0  0  0  0  0  0
   17.4277  -10.9049  -17.4939 C   0  0  0  0  0  0  0  0  0  0  0  0
   18.6791  -11.6620  -17.1963 C   0  0  2  0  0  0  0  0  0  0  0  0
   18.2872  -12.9562  -16.6695 N   0  0  0  0  0  0  0  0  0  0  0  0
   19.5135  -11.0014  -16.1585 C   0  0  0  0  0  0  0  0  0  0  0  0
   19.1220  -10.9438  -14.9723 O   0  0  0  0  0  0  0  0  0  0  0  0
   24.0069   -9.6553  -14.6942 C   0  0  0  0  0  0  0  0  0  0  0  0
   23.0239  -10.3670  -15.5804 C   0  0  1  0  0  0  0  0  0  0  0  0
   22.9601  -11.8462  -15.2747 C   0  0  0  0  0  0  0  0  0  0  0  0
   21.6407   -9.7732  -15.5178 C   0  0  2  0  0  0  0  0  0  0  0  0
   20.7835  -10.4125  -16.4745 N   0  0  0  0  0  0  0  0  0  0  0  0
   21.6623   -8.2912  -15.6636 C   0  0  0  0  0  0  0  0  0  0  0  0
   21.8377   -7.8595  -16.8314 O   0  0  0  0  0  0  0  0  0  0  0  0
   21.5034   -7.3938  -14.6079 N   0  0  0  0  0  0  0  0  0  0  0  0
   21.5591   -5.9341  -14.8112 C   0  0  1  0  0  0  0  0  0  0  0  0
   20.1985   -5.3701  -14.9848 C   0  0  0  0  0  0  0  0  0  0  0  0
   20.1117   -3.9215  -15.1537 C   0  0  0  0  0  0  0  0  0  0  0  0
   20.7897   -3.2291  -15.9464 O   0  0  0  0  0  0  0  0  0  0  0  0
   22.2461   -5.3256  -13.6197 C   0  0  0  0  0  0  0  0  0  0  0  0
   22.5136   -4.1137  -13.5006 O   0  0  0  0  0  0  0  0  0  0  0  0
   19.1943   -3.1794  -14.3763 O   0  0  0  0  0  0  0  0  0  0  0  0
   22.6372   -6.1300  -12.5389 O   0  0  0  0  0  0  0  0  0  0  0  0
  1  2  1  0
  2  3  2  0
  4  2  1  0
  5  4  1  0
  5  6  1  1
  7  5  1  0
  7  8  2  0
 10  9  1  1
 10 11  1  0
 10 12  1  0
 12 13  1  6
 13  7  1  0
 14 12  1  0
 15 14  2  0
 16 14  1  0
 17 16  1  0
 17 21  1  0
 17 18  1  1
 19 18  1  0
 20 19  2  0
 21 22  2  0
 21 24  1  0
 23 19  1  0
M  END
$$$$
