NVD.pdb
     RDKit          3D

 24 23  0  0  1  0  0  0  0  0999 V2000
   21.4131  -14.8575  -18.4447 N   0  0  0  0  0  0  0  0  0  0  0  0
   20.3922  -13.9790  -18.0091 C   0  0  0  0  0  0  0  0  0  0  0  0
   19.2312  -14.1570  -18.4867 O   0  0  0  0  0  0  0  0  0  0  0  0
   20.7106  -12.9145  -17.0384 C   0  0  0  0  0  0  0  0  0  0  0  0
   22.1747  -12.9258  -16.7484 C   0  0  2  0  0  0  0  0  0  0  0  0
   22.4667  -14.1599  -16.0427 N   0  0  0  0  0  0  0  0  0  0  0  0
   22.5906  -11.8065  -15.8632 C   0  0  0  0  0  0  0  0  0  0  0  0
   22.2466  -11.7873  -14.6612 O   0  0  0  0  0  0  0  0  0  0  0  0
   26.0446  -10.8273  -15.1863 C   0  0  0  0  0  0  0  0  0  0  0  0
   25.3680   -9.5520  -15.6037 C   0  0  1  0  0  0  0  0  0  0  0  0
   25.7940   -9.1167  -16.9873 C   0  0  0  0  0  0  0  0  0  0  0  0
   23.8653   -9.6358  -15.5355 C   0  0  2  0  0  0  0  0  0  0  0  0
   23.3923  -10.7195  -16.3483 N   0  0  0  0  0  0  0  0  0  0  0  0
   23.2179   -8.3376  -15.8728 C   0  0  0  0  0  0  0  0  0  0  0  0
   22.8372   -8.2102  -17.0643 O   0  0  0  0  0  0  0  0  0  0  0  0
   23.0213   -7.2968  -14.9657 N   0  0  0  0  0  0  0  0  0  0  0  0
   22.3763   -6.0307  -15.3608 C   0  0  1  0  0  0  0  0  0  0  0  0
   20.9867   -6.2645  -15.8230 C   0  0  0  0  0  0  0  0  0  0  0  0
   20.1901   -5.0754  -16.1162 C   0  0  0  0  0  0  0  0  0  0  0  0
   20.5688   -4.0758  -16.7681 O   0  0  0  0  0  0  0  0  0  0  0  0
   22.4006   -5.1074  -14.1736 C   0  0  0  0  0  0  0  0  0  0  0  0
   22.8059   -5.4262  -13.0385 O   0  0  0  0  0  0  0  0  0  0  0  0
   18.8605   -4.9893  -15.6455 O   0  0  0  0  0  0  0  0  0  0  0  0
   21.9460   -3.7857  -14.2934 O   0  0  0  0  0  0  0  0  0  0  0  0
  1  2  1  0
  2  3  2  0
  4  2  1  0
  5  4  1  0
  5  6  1  1
  7  5  1  0
  7  8  2  0
 10  9  1  6
 10 11  1  0
 10 12  1  0
 12 13  1  6
 13  7  1  0
 14 12  1  0
 15 14  2  0
 16 14  1  0
 17 16  1  0
 17 21  1  0
 17 18  1  1
 19 18  1  0
 20 19  2  0
 21 22  2  0
 21 24  1  0
 23 19  1  0
M  END
$$$$
