EST.pdb
     RDKit          3D

 23 22  0  0  1  0  0  0  0  0999 V2000
   20.0617  -10.6327  -17.1482 N   0  0  0  0  0  0  0  0  0  0  0  0
   18.8104   -9.9057  -17.3570 C   0  0  1  0  0  0  0  0  0  0  0  0
   17.6853  -10.8515  -17.0743 C   0  0  0  0  0  0  0  0  0  0  0  0
   18.0998  -12.2590  -17.3243 C   0  0  0  0  0  0  0  0  0  0  0  0
   18.2846  -13.0353  -16.0846 C   0  0  0  0  0  0  0  0  0  0  0  0
   18.2514  -12.5575  -14.9500 O   0  0  0  0  0  0  0  0  0  0  0  0
   18.6899   -8.7984  -16.3490 C   0  0  0  0  0  0  0  0  0  0  0  0
   17.6531   -8.1050  -16.3118 O   0  0  0  0  0  0  0  0  0  0  0  0
   18.5135  -14.4176  -16.2324 O   0  0  0  0  0  0  0  0  0  0  0  0
   21.1923   -8.7330  -13.2677 O   0  0  0  0  0  0  0  0  0  0  0  0
   20.0295   -7.9746  -13.1365 C   0  0  0  0  0  0  0  0  0  0  0  0
   19.6740   -7.4255  -14.4859 C   0  0  2  0  0  0  0  0  0  0  0  0
   19.7423   -8.5314  -15.4378 N   0  0  0  0  0  0  0  0  0  0  0  0
   20.7355   -6.4530  -14.8941 C   0  0  0  0  0  0  0  0  0  0  0  0
   21.7806   -6.7877  -15.4860 O   0  0  0  0  0  0  0  0  0  0  0  0
   19.8757   -2.9296  -16.5152 C   0  0  0  0  0  0  0  0  0  0  0  0
   20.8727   -2.7435  -15.4019 C   0  0  1  0  0  0  0  0  0  0  0  0
   20.3072   -2.1785  -14.2696 O   0  0  0  0  0  0  0  0  0  0  0  0
   21.5341   -4.0677  -15.0254 C   0  0  2  0  0  0  0  0  0  0  0  0
   20.5871   -5.0481  -14.6103 N   0  0  0  0  0  0  0  0  0  0  0  0
   22.6529   -3.8633  -14.0891 C   0  0  0  0  0  0  0  0  0  0  0  0
   23.8516   -3.2378  -14.3999 O   0  0  0  0  0  0  0  0  0  0  0  0
   22.5456   -4.2766  -12.9056 O   0  0  0  0  0  0  0  0  0  0  0  0
  2  1  1  1
  3  4  1  0
  3  2  1  0
  5  4  1  0
  6  5  2  0
  7 13  1  0
  7  2  1  0
  8  7  2  0
  9  5  1  0
 11 10  1  0
 12 11  1  1
 12 13  1  0
 12 14  1  0
 14 20  1  0
 15 14  2  0
 17 16  1  6
 18 17  1  0
 19 17  1  0
 19 21  1  0
 19 20  1  1
 21 22  1  0
 23 21  2  0
M  END
$$$$
