EST.pdb
     RDKit          3D

 23 22  0  0  1  0  0  0  0  0999 V2000
   20.1114  -12.8195  -18.5338 N   0  0  0  0  0  0  0  0  0  0  0  0
   20.9220  -12.0616  -17.5818 C   0  0  1  0  0  0  0  0  0  0  0  0
   22.3255  -12.0381  -18.1012 C   0  0  0  0  0  0  0  0  0  0  0  0
   22.3472  -12.2083  -19.5797 C   0  0  0  0  0  0  0  0  0  0  0  0
   23.7117  -12.2474  -20.1364 C   0  0  0  0  0  0  0  0  0  0  0  0
   24.4439  -13.2376  -20.1215 O   0  0  0  0  0  0  0  0  0  0  0  0
   20.4641  -10.6312  -17.5479 C   0  0  0  0  0  0  0  0  0  0  0  0
   20.1498  -10.0564  -18.6099 O   0  0  0  0  0  0  0  0  0  0  0  0
   24.1904  -11.0583  -20.7210 O   0  0  0  0  0  0  0  0  0  0  0  0
   18.6133   -9.4918  -14.4576 O   0  0  0  0  0  0  0  0  0  0  0  0
   18.4825   -8.6869  -15.5887 C   0  0  0  0  0  0  0  0  0  0  0  0
   19.8271   -8.5775  -16.2436 C   0  0  2  0  0  0  0  0  0  0  0  0
   20.3846   -9.9255  -16.3211 N   0  0  0  0  0  0  0  0  0  0  0  0
   20.7306   -7.8002  -15.3387 C   0  0  0  0  0  0  0  0  0  0  0  0
   21.4175   -8.3251  -14.4403 O   0  0  0  0  0  0  0  0  0  0  0  0
   22.2739   -4.0518  -16.5478 C   0  0  0  0  0  0  0  0  0  0  0  0
   22.8214   -4.9159  -15.4426 C   0  0  1  0  0  0  0  0  0  0  0  0
   23.6391   -4.2125  -14.5721 O   0  0  0  0  0  0  0  0  0  0  0  0
   21.6962   -5.5780  -14.6500 C   0  0  2  0  0  0  0  0  0  0  0  0
   20.8457   -6.3703  -15.4744 N   0  0  0  0  0  0  0  0  0  0  0  0
   20.9896   -4.6028  -13.8015 C   0  0  0  0  0  0  0  0  0  0  0  0
   21.5331   -3.9612  -12.6981 O   0  0  0  0  0  0  0  0  0  0  0  0
   19.7971   -4.3056  -14.0712 O   0  0  0  0  0  0  0  0  0  0  0  0
  2  1  1  6
  3  4  1  0
  3  2  1  0
  5  4  1  0
  6  5  2  0
  7 13  1  0
  7  2  1  0
  8  7  2  0
  9  5  1  0
 11 10  1  0
 12 11  1  1
 12 13  1  0
 12 14  1  0
 14 20  1  0
 15 14  2  0
 17 16  1  6
 18 17  1  0
 19 17  1  0
 19 21  1  0
 19 20  1  6
 21 22  1  0
 23 21  2  0
M  END
$$$$
