EST.pdb
     RDKit          3D

 23 22  0  0  1  0  0  0  0  0999 V2000
   19.4635  -11.0376  -17.2561 N   0  0  0  0  0  0  0  0  0  0  0  0
   18.2948  -10.6007  -16.4937 C   0  0  1  0  0  0  0  0  0  0  0  0
   17.6795  -11.8159  -15.8733 C   0  0  0  0  0  0  0  0  0  0  0  0
   17.3479  -12.8309  -16.9101 C   0  0  0  0  0  0  0  0  0  0  0  0
   16.8208  -14.0853  -16.3423 C   0  0  0  0  0  0  0  0  0  0  0  0
   16.7095  -14.3137  -15.1372 O   0  0  0  0  0  0  0  0  0  0  0  0
   18.7287   -9.7229  -15.3544 C   0  0  0  0  0  0  0  0  0  0  0  0
   17.8970   -9.3687  -14.4942 O   0  0  0  0  0  0  0  0  0  0  0  0
   16.4231  -15.0770  -17.2605 O   0  0  0  0  0  0  0  0  0  0  0  0
   22.5936   -9.5107  -14.4614 O   0  0  0  0  0  0  0  0  0  0  0  0
   21.6697   -9.1631  -13.4764 C   0  0  0  0  0  0  0  0  0  0  0  0
   20.5260   -8.4530  -14.1371 C   0  0  2  0  0  0  0  0  0  0  0  0
   20.0745   -9.2914  -15.2448 N   0  0  0  0  0  0  0  0  0  0  0  0
   21.0452   -7.1904  -14.7498 C   0  0  0  0  0  0  0  0  0  0  0  0
   21.6403   -7.1543  -15.8448 O   0  0  0  0  0  0  0  0  0  0  0  0
   19.2465   -4.1273  -15.7526 C   0  0  0  0  0  0  0  0  0  0  0  0
   20.2944   -3.6499  -14.7822 C   0  0  1  0  0  0  0  0  0  0  0  0
   19.7624   -3.3108  -13.5481 O   0  0  0  0  0  0  0  0  0  0  0  0
   21.3861   -4.7000  -14.5871 C   0  0  2  0  0  0  0  0  0  0  0  0
   20.8726   -5.9277  -14.0775 N   0  0  0  0  0  0  0  0  0  0  0  0
   22.5283   -4.1551  -13.8329 C   0  0  0  0  0  0  0  0  0  0  0  0
   22.9657   -4.6168  -12.6000 O   0  0  0  0  0  0  0  0  0  0  0  0
   23.1807   -3.1943  -14.3169 O   0  0  0  0  0  0  0  0  0  0  0  0
  2  1  1  1
  3  4  1  0
  3  2  1  0
  5  4  1  0
  6  5  2  0
  7 13  1  0
  7  2  1  0
  8  7  2  0
  9  5  1  0
 11 10  1  0
 12 11  1  6
 12 13  1  0
 12 14  1  0
 14 20  1  0
 15 14  2  0
 17 16  1  6
 18 17  1  0
 19 17  1  0
 19 21  1  0
 19 20  1  1
 21 22  1  0
 23 21  2  0
M  END
$$$$
