EST.pdb
     RDKit          3D

 23 22  0  0  1  0  0  0  0  0999 V2000
   17.7459  -11.9883  -15.3134 N   0  0  0  0  0  0  0  0  0  0  0  0
   19.1412  -12.0077  -15.7502 C   0  0  1  0  0  0  0  0  0  0  0  0
   19.2763  -13.0815  -16.7842 C   0  0  0  0  0  0  0  0  0  0  0  0
   18.7825  -14.3853  -16.2630 C   0  0  0  0  0  0  0  0  0  0  0  0
   18.9169  -15.4843  -17.2365 C   0  0  0  0  0  0  0  0  0  0  0  0
   18.1118  -15.7212  -18.1379 O   0  0  0  0  0  0  0  0  0  0  0  0
   19.4771  -10.7166  -16.4408 C   0  0  0  0  0  0  0  0  0  0  0  0
   19.9647  -10.7374  -17.5893 O   0  0  0  0  0  0  0  0  0  0  0  0
   20.0528  -16.3077  -17.1075 O   0  0  0  0  0  0  0  0  0  0  0  0
   17.7017   -7.4495  -15.2118 O   0  0  0  0  0  0  0  0  0  0  0  0
   18.2638   -7.4101  -16.4873 C   0  0  0  0  0  0  0  0  0  0  0  0
   19.5366   -8.2026  -16.4626 C   0  0  2  0  0  0  0  0  0  0  0  0
   19.2461   -9.4726  -15.8020 N   0  0  0  0  0  0  0  0  0  0  0  0
   20.5197   -7.4891  -15.5887 C   0  0  0  0  0  0  0  0  0  0  0  0
   20.6920   -7.7637  -14.3848 O   0  0  0  0  0  0  0  0  0  0  0  0
   24.2944   -4.2337  -15.3121 C   0  0  0  0  0  0  0  0  0  0  0  0
   23.2755   -4.9286  -16.1761 C   0  0  1  0  0  0  0  0  0  0  0  0
   23.8530   -5.8110  -17.0756 O   0  0  0  0  0  0  0  0  0  0  0  0
   22.2493   -5.6765  -15.3276 C   0  0  2  0  0  0  0  0  0  0  0  0
   21.3309   -6.4236  -16.1207 N   0  0  0  0  0  0  0  0  0  0  0  0
   21.6187   -4.7867  -14.3373 C   0  0  0  0  0  0  0  0  0  0  0  0
   20.4210   -4.1104  -14.5183 O   0  0  0  0  0  0  0  0  0  0  0  0
   22.1850   -4.6035  -13.2288 O   0  0  0  0  0  0  0  0  0  0  0  0
  2  1  1  6
  3  4  1  0
  3  2  1  0
  5  4  1  0
  6  5  2  0
  7 13  1  0
  7  2  1  0
  8  7  2  0
  9  5  1  0
 11 10  1  0
 12 11  1  1
 12 13  1  0
 12 14  1  0
 14 20  1  0
 15 14  2  0
 17 16  1  1
 18 17  1  0
 19 17  1  0
 19 21  1  0
 19 20  1  6
 21 22  1  0
 23 21  2  0
M  END
$$$$
