EST.pdb
     RDKit          3D

 23 22  0  0  1  0  0  0  0  0999 V2000
   16.3372  -12.9705  -18.5540 N   0  0  0  0  0  0  0  0  0  0  0  0
   16.3548  -11.9642  -17.4934 C   0  0  1  0  0  0  0  0  0  0  0  0
   16.5092  -12.6837  -16.1901 C   0  0  0  0  0  0  0  0  0  0  0  0
   15.2481  -13.3802  -15.8157 C   0  0  0  0  0  0  0  0  0  0  0  0
   15.2965  -13.9776  -14.4688 C   0  0  0  0  0  0  0  0  0  0  0  0
   14.4945  -13.7325  -13.5668 O   0  0  0  0  0  0  0  0  0  0  0  0
   17.5701  -11.0931  -17.6374 C   0  0  0  0  0  0  0  0  0  0  0  0
   18.6831  -11.6140  -17.8540 O   0  0  0  0  0  0  0  0  0  0  0  0
   16.3411  -14.8894  -14.2187 O   0  0  0  0  0  0  0  0  0  0  0  0
   19.3164   -6.9178  -18.9240 O   0  0  0  0  0  0  0  0  0  0  0  0
   18.2179   -7.7483  -18.7049 C   0  0  0  0  0  0  0  0  0  0  0  0
   18.6218   -8.8104  -17.7262 C   0  0  2  0  0  0  0  0  0  0  0  0
   17.4672   -9.6834  -17.5299 N   0  0  0  0  0  0  0  0  0  0  0  0
   18.8858   -8.1588  -16.4052 C   0  0  0  0  0  0  0  0  0  0  0  0
   17.9847   -7.8534  -15.5994 O   0  0  0  0  0  0  0  0  0  0  0  0
   22.0948   -7.0794  -12.8143 C   0  0  0  0  0  0  0  0  0  0  0  0
   21.8820   -7.6420  -14.1948 C   0  0  1  0  0  0  0  0  0  0  0  0
   21.9451   -9.0264  -14.2212 O   0  0  0  0  0  0  0  0  0  0  0  0
   20.5441   -7.1892  -14.7759 C   0  0  2  0  0  0  0  0  0  0  0  0
   20.2335   -7.8490  -16.0001 N   0  0  0  0  0  0  0  0  0  0  0  0
   20.4517   -5.7200  -14.8327 C   0  0  0  0  0  0  0  0  0  0  0  0
   19.9242   -4.9129  -13.8352 O   0  0  0  0  0  0  0  0  0  0  0  0
   20.8758   -5.1177  -15.8528 O   0  0  0  0  0  0  0  0  0  0  0  0
  2  1  1  6
  3  4  1  0
  3  2  1  0
  5  4  1  0
  6  5  2  0
  7 13  1  0
  7  2  1  0
  8  7  2  0
  9  5  1  0
 11 10  1  0
 12 11  1  6
 12 13  1  0
 12 14  1  0
 14 20  1  0
 15 14  2  0
 17 16  1  1
 18 17  1  0
 19 17  1  0
 19 21  1  0
 19 20  1  6
 21 22  1  0
 23 21  2  0
M  END
$$$$
