EST.pdb
     RDKit          3D

 23 22  0  0  1  0  0  0  0  0999 V2000
   17.8344  -12.0329  -16.5689 N   0  0  0  0  0  0  0  0  0  0  0  0
   18.5364  -10.8452  -17.0530 C   0  0  1  0  0  0  0  0  0  0  0  0
   17.5096   -9.9071  -17.6060 C   0  0  0  0  0  0  0  0  0  0  0  0
   16.7687  -10.5359  -18.7334 C   0  0  0  0  0  0  0  0  0  0  0  0
   15.7726   -9.6360  -19.3429 C   0  0  0  0  0  0  0  0  0  0  0  0
   14.5607   -9.6893  -19.1302 O   0  0  0  0  0  0  0  0  0  0  0  0
   19.1807  -10.1288  -15.9004 C   0  0  0  0  0  0  0  0  0  0  0  0
   18.6512  -10.1711  -14.7713 O   0  0  0  0  0  0  0  0  0  0  0  0
   16.2640   -8.6548  -20.2265 O   0  0  0  0  0  0  0  0  0  0  0  0
   22.9685   -9.1576  -16.1869 O   0  0  0  0  0  0  0  0  0  0  0  0
   22.4385   -9.1348  -14.8973 C   0  0  0  0  0  0  0  0  0  0  0  0
   21.0147   -8.6722  -14.9844 C   0  0  2  0  0  0  0  0  0  0  0  0
   20.3854   -9.4040  -16.0808 N   0  0  0  0  0  0  0  0  0  0  0  0
   21.0109   -7.2302  -15.3843 C   0  0  0  0  0  0  0  0  0  0  0  0
   21.1021   -6.8468  -16.5671 O   0  0  0  0  0  0  0  0  0  0  0  0
   20.0895   -2.5195  -14.2271 C   0  0  0  0  0  0  0  0  0  0  0  0
   20.1493   -3.9475  -13.7529 C   0  0  1  0  0  0  0  0  0  0  0  0
   18.8926   -4.5161  -13.6159 O   0  0  0  0  0  0  0  0  0  0  0  0
   20.9896   -4.8077  -14.6945 C   0  0  2  0  0  0  0  0  0  0  0  0
   20.8982   -6.1961  -14.3871 N   0  0  0  0  0  0  0  0  0  0  0  0
   22.3664   -4.2956  -14.8063 C   0  0  0  0  0  0  0  0  0  0  0  0
   22.8579   -3.5488  -15.8672 O   0  0  0  0  0  0  0  0  0  0  0  0
   23.1874   -4.5367  -13.8839 O   0  0  0  0  0  0  0  0  0  0  0  0
  2  1  1  1
  3  4  1  0
  3  2  1  0
  5  4  1  0
  6  5  2  0
  7 13  1  0
  7  2  1  0
  8  7  2  0
  9  5  1  0
 11 10  1  0
 12 11  1  6
 12 13  1  0
 12 14  1  0
 14 20  1  0
 15 14  2  0
 17 16  1  6
 18 17  1  0
 19 17  1  0
 19 21  1  0
 19 20  1  1
 21 22  1  0
 23 21  2  0
M  END
$$$$
