EST.pdb
     RDKit          3D

 23 22  0  0  1  0  0  0  0  0999 V2000
   13.5035   -9.3605   -9.7277 N   0  0  0  0  0  0  0  0  0  0  0  0
   14.9190   -9.5076  -10.0629 C   0  0  1  0  0  0  0  0  0  0  0  0
   15.0068  -10.3607  -11.2897 C   0  0  0  0  0  0  0  0  0  0  0  0
   14.7695  -11.7923  -10.9586 C   0  0  0  0  0  0  0  0  0  0  0  0
   14.9684  -12.6917  -12.1097 C   0  0  0  0  0  0  0  0  0  0  0  0
   16.0134  -13.2974  -12.3502 O   0  0  0  0  0  0  0  0  0  0  0  0
   15.4951   -8.1722  -10.4394 C   0  0  0  0  0  0  0  0  0  0  0  0
   14.7695   -7.3169  -10.9862 O   0  0  0  0  0  0  0  0  0  0  0  0
   13.8737  -12.8545  -12.9815 O   0  0  0  0  0  0  0  0  0  0  0  0
   16.1942   -5.4257   -8.8298 O   0  0  0  0  0  0  0  0  0  0  0  0
   17.4903   -5.8006   -9.1820 C   0  0  0  0  0  0  0  0  0  0  0  0
   17.4235   -6.5585  -10.4743 C   0  0  2  0  0  0  0  0  0  0  0  0
   16.8559   -7.8718  -10.1801 N   0  0  0  0  0  0  0  0  0  0  0  0
   18.8209   -6.8016  -10.9514 C   0  0  0  0  0  0  0  0  0  0  0  0
   19.6308   -7.5374  -10.3539 O   0  0  0  0  0  0  0  0  0  0  0  0
   19.9768   -8.3541  -14.1059 C   0  0  0  0  0  0  0  0  0  0  0  0
   20.5778   -6.9734  -14.0939 C   0  0  1  0  0  0  0  0  0  0  0  0
   19.9092   -6.0943  -14.9314 O   0  0  0  0  0  0  0  0  0  0  0  0
   20.6073   -6.3958  -12.6803 C   0  0  2  0  0  0  0  0  0  0  0  0
   19.3002   -6.1753  -12.1573 N   0  0  0  0  0  0  0  0  0  0  0  0
   21.5050   -5.2311  -12.5935 C   0  0  0  0  0  0  0  0  0  0  0  0
   22.8910   -5.2862  -12.6201 O   0  0  0  0  0  0  0  0  0  0  0  0
   21.0082   -4.0802  -12.4859 O   0  0  0  0  0  0  0  0  0  0  0  0
  2  1  1  6
  3  4  1  0
  3  2  1  0
  5  4  1  0
  6  5  2  0
  7 13  1  0
  7  2  1  0
  8  7  2  0
  9  5  1  0
 11 10  1  0
 12 11  1  1
 12 13  1  0
 12 14  1  0
 14 20  1  0
 15 14  2  0
 17 16  1  1
 18 17  1  0
 19 17  1  0
 19 21  1  0
 19 20  1  6
 21 22  1  0
 23 21  2  0
M  END
$$$$
