EST.pdb
     RDKit          3D

 23 22  0  0  1  0  0  0  0  0999 V2000
   17.3336  -13.0446  -15.9039 N   0  0  0  0  0  0  0  0  0  0  0  0
   18.6082  -12.3948  -15.6023 C   0  0  1  0  0  0  0  0  0  0  0  0
   19.6519  -13.0201  -16.4742 C   0  0  0  0  0  0  0  0  0  0  0  0
   19.0461  -14.0257  -17.3891 C   0  0  0  0  0  0  0  0  0  0  0  0
   20.0393  -14.6995  -18.2453 C   0  0  0  0  0  0  0  0  0  0  0  0
   19.7655  -15.5333  -19.1093 O   0  0  0  0  0  0  0  0  0  0  0  0
   18.5473  -10.9461  -15.9951 C   0  0  0  0  0  0  0  0  0  0  0  0
   17.8882  -10.6037  -16.9979 O   0  0  0  0  0  0  0  0  0  0  0  0
   21.3890  -14.3496  -18.0435 O   0  0  0  0  0  0  0  0  0  0  0  0
   17.8433   -6.6334  -15.1417 O   0  0  0  0  0  0  0  0  0  0  0  0
   17.9454   -7.9919  -14.8440 C   0  0  0  0  0  0  0  0  0  0  0  0
   19.1407   -8.5406  -15.5645 C   0  0  2  0  0  0  0  0  0  0  0  0
   19.2312   -9.9616  -15.2386 N   0  0  0  0  0  0  0  0  0  0  0  0
   20.3684   -7.9000  -14.9972 C   0  0  0  0  0  0  0  0  0  0  0  0
   20.9394   -8.3066  -13.9662 O   0  0  0  0  0  0  0  0  0  0  0  0
   24.1992   -4.8425  -15.8474 C   0  0  0  0  0  0  0  0  0  0  0  0
   22.8320   -5.3045  -16.2778 C   0  0  1  0  0  0  0  0  0  0  0  0
   22.8621   -6.0278  -17.4599 O   0  0  0  0  0  0  0  0  0  0  0  0
   22.1656   -6.1458  -15.1912 C   0  0  2  0  0  0  0  0  0  0  0  0
   20.9570   -6.7527  -15.6402 N   0  0  0  0  0  0  0  0  0  0  0  0
   22.0407   -5.3948  -13.9300 C   0  0  0  0  0  0  0  0  0  0  0  0
   22.8921   -5.5137  -12.8411 O   0  0  0  0  0  0  0  0  0  0  0  0
   21.0983   -4.5720  -13.7967 O   0  0  0  0  0  0  0  0  0  0  0  0
  2  1  1  6
  3  4  1  0
  3  2  1  0
  5  4  1  0
  6  5  2  0
  7 13  1  0
  7  2  1  0
  8  7  2  0
  9  5  1  0
 11 10  1  0
 12 11  1  1
 12 13  1  0
 12 14  1  0
 14 20  1  0
 15 14  2  0
 17 16  1  1
 18 17  1  0
 19 17  1  0
 19 21  1  0
 19 20  1  6
 21 22  1  0
 23 21  2  0
M  END
$$$$
