EST.pdb
     RDKit          3D

 23 22  0  0  1  0  0  0  0  0999 V2000
   19.2993  -13.1170  -16.7719 N   0  0  0  0  0  0  0  0  0  0  0  0
   18.8942  -11.7179  -16.9005 C   0  0  1  0  0  0  0  0  0  0  0  0
   17.9040  -11.4324  -15.8151 C   0  0  0  0  0  0  0  0  0  0  0  0
   16.6235  -12.1497  -16.0627 C   0  0  0  0  0  0  0  0  0  0  0  0
   15.6223  -11.9258  -15.0040 C   0  0  0  0  0  0  0  0  0  0  0  0
   15.1796  -12.8053  -14.2641 O   0  0  0  0  0  0  0  0  0  0  0  0
   20.0708  -10.8207  -16.6407 C   0  0  0  0  0  0  0  0  0  0  0  0
   21.0253  -11.2353  -15.9521 O   0  0  0  0  0  0  0  0  0  0  0  0
   15.1537  -10.6066  -14.8458 O   0  0  0  0  0  0  0  0  0  0  0  0
   20.4668   -7.4966  -18.8555 O   0  0  0  0  0  0  0  0  0  0  0  0
   21.6197   -8.0364  -18.2864 C   0  0  0  0  0  0  0  0  0  0  0  0
   21.2540   -8.6242  -16.9561 C   0  0  2  0  0  0  0  0  0  0  0  0
   20.1094   -9.5062  -17.1695 N   0  0  0  0  0  0  0  0  0  0  0  0
   20.7739   -7.5195  -16.0682 C   0  0  0  0  0  0  0  0  0  0  0  0
   19.6511   -6.9892  -16.1802 O   0  0  0  0  0  0  0  0  0  0  0  0
   20.0891   -7.4919  -12.5215 C   0  0  0  0  0  0  0  0  0  0  0  0
   21.1237   -6.4105  -12.6888 C   0  0  1  0  0  0  0  0  0  0  0  0
   22.3793   -6.8028  -12.2522 O   0  0  0  0  0  0  0  0  0  0  0  0
   21.2174   -5.9558  -14.1438 C   0  0  2  0  0  0  0  0  0  0  0  0
   21.6164   -7.0093  -15.0165 N   0  0  0  0  0  0  0  0  0  0  0  0
   22.0118   -4.7219  -14.2719 C   0  0  0  0  0  0  0  0  0  0  0  0
   21.6635   -3.4881  -13.7417 O   0  0  0  0  0  0  0  0  0  0  0  0
   23.0979   -4.7546  -14.9062 O   0  0  0  0  0  0  0  0  0  0  0  0
  2  1  1  1
  3  4  1  0
  3  2  1  0
  5  4  1  0
  6  5  2  0
  7 13  1  0
  7  2  1  0
  8  7  2  0
  9  5  1  0
 11 10  1  0
 12 11  1  6
 12 13  1  0
 12 14  1  0
 14 20  1  0
 15 14  2  0
 17 16  1  6
 18 17  1  0
 19 17  1  0
 19 21  1  0
 19 20  1  6
 21 22  1  0
 23 21  2  0
M  END
$$$$
