EST.pdb
     RDKit          3D

 23 22  0  0  1  0  0  0  0  0999 V2000
   20.2843  -13.8015  -17.0535 N   0  0  0  0  0  0  0  0  0  0  0  0
   20.5964  -12.5241  -17.6928 C   0  0  1  0  0  0  0  0  0  0  0  0
   19.8309  -12.4625  -18.9775 C   0  0  0  0  0  0  0  0  0  0  0  0
   18.4678  -13.0368  -18.8111 C   0  0  0  0  0  0  0  0  0  0  0  0
   17.6542  -12.9574  -20.0380 C   0  0  0  0  0  0  0  0  0  0  0  0
   17.1931  -13.9313  -20.6344 O   0  0  0  0  0  0  0  0  0  0  0  0
   20.0861  -11.3926  -16.8466 C   0  0  0  0  0  0  0  0  0  0  0  0
   18.9481  -11.4630  -16.3395 O   0  0  0  0  0  0  0  0  0  0  0  0
   17.3992  -11.6680  -20.5452 O   0  0  0  0  0  0  0  0  0  0  0  0
   20.7587   -7.9603  -13.8273 O   0  0  0  0  0  0  0  0  0  0  0  0
   21.1975   -9.0529  -14.5744 C   0  0  0  0  0  0  0  0  0  0  0  0
   20.3929   -9.1091  -15.8387 C   0  0  2  0  0  0  0  0  0  0  0  0
   20.8837  -10.2435  -16.6171 N   0  0  0  0  0  0  0  0  0  0  0  0
   20.6941   -7.8845  -16.6442 C   0  0  0  0  0  0  0  0  0  0  0  0
   21.7963   -7.6760  -17.1883 O   0  0  0  0  0  0  0  0  0  0  0  0
   18.3262   -6.5122  -19.4410 C   0  0  0  0  0  0  0  0  0  0  0  0
   18.6571   -5.3900  -18.4928 C   0  0  1  0  0  0  0  0  0  0  0  0
   17.6021   -5.0762  -17.6504 O   0  0  0  0  0  0  0  0  0  0  0  0
   19.8889   -5.7213  -17.6529 C   0  0  2  0  0  0  0  0  0  0  0  0
   19.6909   -6.8666  -16.8284 N   0  0  0  0  0  0  0  0  0  0  0  0
   20.3891   -4.5335  -16.9395 C   0  0  0  0  0  0  0  0  0  0  0  0
   20.9375   -3.4108  -17.5424 O   0  0  0  0  0  0  0  0  0  0  0  0
   20.3290   -4.5020  -15.6831 O   0  0  0  0  0  0  0  0  0  0  0  0
  2  1  1  1
  3  4  1  0
  3  2  1  0
  5  4  1  0
  6  5  2  0
  7 13  1  0
  7  2  1  0
  8  7  2  0
  9  5  1  0
 11 10  1  0
 12 11  1  1
 12 13  1  0
 12 14  1  0
 14 20  1  0
 15 14  2  0
 17 16  1  1
 18 17  1  0
 19 17  1  0
 19 21  1  0
 19 20  1  1
 21 22  1  0
 23 21  2  0
M  END
$$$$
