NPA.pdb
     RDKit          3D

 21 21  0  0  1  0  0  0  0  0999 V2000
    7.6275  -15.8525   14.3020 N   0  0  0  0  0  0  0  0  0  0  0  0
    7.8371  -16.6638   15.4480 C   0  0  0  0  0  0  0  0  0  0  0  0
    7.9307  -17.9002   15.2613 O   0  0  0  0  0  0  0  0  0  0  0  0
    7.9349  -16.0337   16.7869 C   0  0  0  0  0  0  0  0  0  0  0  0
    9.1242  -15.0808   16.8316 C   0  0  2  0  0  0  0  0  0  0  0  0
   10.0902  -15.5871   15.8375 N   0  0  0  0  0  0  0  0  0  0  0  0
    9.7425  -15.0547   18.1791 C   0  0  0  0  0  0  0  0  0  0  0  0
   10.7190  -15.8150   18.3299 O   0  0  0  0  0  0  0  0  0  0  0  0
    9.3016  -14.2540   19.2385 N   0  0  0  0  0  0  0  0  0  0  0  0
    8.8674  -12.8433   18.9125 C   0  0  0  0  0  0  0  0  0  0  0  0
    7.5144  -12.8117   19.5630 C   0  0  0  0  0  0  0  0  0  0  0  0
    7.5538  -13.9135   20.6164 C   0  0  0  0  0  0  0  0  0  0  0  0
    9.0822  -14.2287   20.6050 C   0  0  1  0  0  0  0  0  0  0  0  0
    9.3117  -15.1989   21.6004 C   0  0  0  0  0  0  0  0  0  0  0  0
    8.3236  -16.0653   21.6863 O   0  0  0  0  0  0  0  0  0  0  0  0
   11.7092  -17.4180   23.1361 C   0  0  0  0  0  0  0  0  0  0  0  0
   10.3871  -16.7503   23.2199 C   0  0  2  0  0  0  0  0  0  0  0  0
   10.3274  -15.4611   22.5141 N   0  0  0  0  0  0  0  0  0  0  0  0
   10.0534  -16.5012   24.6640 C   0  0  0  0  0  0  0  0  0  0  0  0
   10.0989  -17.4669   25.4731 O   0  0  0  0  0  0  0  0  0  0  0  0
    9.6959  -15.2534   25.1477 O   0  0  0  0  0  0  0  0  0  0  0  0
  2  1  1  0
  2  3  2  0
  4  2  1  0
  5  4  1  0
  5  6  1  6
  5  7  1  0
  7  8  2  0
  9  7  1  0
  9 13  1  0
 10 11  1  0
 10  9  1  0
 11 12  1  0
 13 12  1  0
 13 14  1  6
 14 15  2  0
 14 18  1  0
 17 16  1  1
 17 19  1  0
 18 17  1  0
 19 21  1  0
 20 19  2  0
M  END
$$$$
