NPA.pdb
     RDKit          3D

 21 21  0  0  1  0  0  0  0  0999 V2000
    9.0466  -18.4478   20.6235 N   0  0  0  0  0  0  0  0  0  0  0  0
    7.9245  -17.6781   21.0285 C   0  0  0  0  0  0  0  0  0  0  0  0
    6.9296  -17.6762   20.2654 O   0  0  0  0  0  0  0  0  0  0  0  0
    7.9715  -16.9256   22.3056 C   0  0  0  0  0  0  0  0  0  0  0  0
    8.1825  -15.4408   22.0311 C   0  0  2  0  0  0  0  0  0  0  0  0
    9.0001  -15.3648   20.8049 N   0  0  0  0  0  0  0  0  0  0  0  0
    8.8857  -14.7800   23.1569 C   0  0  0  0  0  0  0  0  0  0  0  0
   10.1284  -14.8783   23.1376 O   0  0  0  0  0  0  0  0  0  0  0  0
    8.2491  -14.0842   24.1906 N   0  0  0  0  0  0  0  0  0  0  0  0
    7.1488  -13.1210   23.8083 C   0  0  0  0  0  0  0  0  0  0  0  0
    6.0437  -13.5888   24.7110 C   0  0  0  0  0  0  0  0  0  0  0  0
    6.7440  -14.3257   25.8476 C   0  0  0  0  0  0  0  0  0  0  0  0
    8.2184  -13.9013   25.5623 C   0  0  1  0  0  0  0  0  0  0  0  0
    9.0122  -14.4479   26.5899 C   0  0  0  0  0  0  0  0  0  0  0  0
    9.3080  -15.7122   26.3693 O   0  0  0  0  0  0  0  0  0  0  0  0
   11.1931  -14.0290   29.6358 C   0  0  0  0  0  0  0  0  0  0  0  0
   10.5731  -14.7568   28.5015 C   0  0  2  0  0  0  0  0  0  0  0  0
    9.5564  -13.9761   27.7800 N   0  0  0  0  0  0  0  0  0  0  0  0
    9.9144  -16.0044   29.0198 C   0  0  0  0  0  0  0  0  0  0  0  0
    8.6580  -16.0937   28.9689 O   0  0  0  0  0  0  0  0  0  0  0  0
   10.6287  -17.0643   29.5536 O   0  0  0  0  0  0  0  0  0  0  0  0
  2  1  1  0
  2  3  2  0
  4  2  1  0
  5  4  1  0
  5  6  1  6
  5  7  1  0
  7  8  2  0
  9  7  1  0
  9 13  1  0
 10 11  1  0
 10  9  1  0
 11 12  1  0
 13 12  1  0
 13 14  1  1
 14 15  2  0
 14 18  1  0
 17 16  1  1
 17 19  1  0
 18 17  1  0
 19 21  1  0
 20 19  2  0
M  END
$$$$
