NPA.pdb
     RDKit          3D

 21 21  0  0  1  0  0  0  0  0999 V2000
    8.8965  -18.0274   21.0438 N   0  0  0  0  0  0  0  0  0  0  0  0
    7.6851  -17.3356   21.3072 C   0  0  0  0  0  0  0  0  0  0  0  0
    6.7582  -17.4723   20.4739 O   0  0  0  0  0  0  0  0  0  0  0  0
    7.5661  -16.4997   22.5264 C   0  0  0  0  0  0  0  0  0  0  0  0
    7.9179  -15.0515   22.2049 C   0  0  2  0  0  0  0  0  0  0  0  0
    8.7102  -15.0908   20.9604 N   0  0  0  0  0  0  0  0  0  0  0  0
    8.7097  -14.4349   23.2964 C   0  0  0  0  0  0  0  0  0  0  0  0
    9.9469  -14.5018   23.1580 O   0  0  0  0  0  0  0  0  0  0  0  0
    8.1584  -13.8111   24.4211 N   0  0  0  0  0  0  0  0  0  0  0  0
    7.1107  -12.7475   24.1850 C   0  0  0  0  0  0  0  0  0  0  0  0
    6.0109  -13.2365   25.0829 C   0  0  0  0  0  0  0  0  0  0  0  0
    6.7021  -14.1283   26.1087 C   0  0  0  0  0  0  0  0  0  0  0  0
    8.1899  -13.7686   25.8043 C   0  0  1  0  0  0  0  0  0  0  0  0
    8.9830  -14.4660   26.7367 C   0  0  0  0  0  0  0  0  0  0  0  0
    8.9348  -15.7692   26.5530 O   0  0  0  0  0  0  0  0  0  0  0  0
   11.6718  -14.5009   29.3777 C   0  0  0  0  0  0  0  0  0  0  0  0
   10.7254  -15.0895   28.3985 C   0  0  2  0  0  0  0  0  0  0  0  0
    9.8016  -14.1112   27.8041 N   0  0  0  0  0  0  0  0  0  0  0  0
    9.9022  -16.1438   29.0838 C   0  0  0  0  0  0  0  0  0  0  0  0
    8.6624  -15.9567   29.2140 O   0  0  0  0  0  0  0  0  0  0  0  0
   10.4470  -17.3161   29.5812 O   0  0  0  0  0  0  0  0  0  0  0  0
  2  1  1  0
  2  3  2  0
  4  2  1  0
  5  4  1  0
  5  6  1  6
  5  7  1  0
  7  8  2  0
  9  7  1  0
  9 13  1  0
 10 11  1  0
 10  9  1  0
 11 12  1  0
 13 12  1  0
 13 14  1  1
 14 15  2  0
 14 18  1  0
 17 16  1  1
 17 19  1  0
 18 17  1  0
 19 21  1  0
 20 19  2  0
M  END
$$$$
