NPA.pdb
     RDKit          3D

 21 21  0  0  1  0  0  0  0  0999 V2000
    7.7724  -15.7307   13.7855 N   0  0  0  0  0  0  0  0  0  0  0  0
    7.3204  -16.5863   14.8244 C   0  0  0  0  0  0  0  0  0  0  0  0
    6.4009  -17.3901   14.5408 O   0  0  0  0  0  0  0  0  0  0  0  0
    7.9376  -16.4983   16.1700 C   0  0  0  0  0  0  0  0  0  0  0  0
    8.8441  -15.2751   16.2514 C   0  0  2  0  0  0  0  0  0  0  0  0
    9.7946  -15.3963   15.1290 N   0  0  0  0  0  0  0  0  0  0  0  0
    9.5764  -15.2328   17.5399 C   0  0  0  0  0  0  0  0  0  0  0  0
   10.5321  -16.0279   17.6338 O   0  0  0  0  0  0  0  0  0  0  0  0
    9.2595  -14.3819   18.6046 N   0  0  0  0  0  0  0  0  0  0  0  0
    8.8274  -12.9734   18.2667 C   0  0  0  0  0  0  0  0  0  0  0  0
    7.5456  -12.8820   19.0434 C   0  0  0  0  0  0  0  0  0  0  0  0
    7.6630  -13.9446   20.1308 C   0  0  0  0  0  0  0  0  0  0  0  0
    9.1755  -14.3000   19.9839 C   0  0  1  0  0  0  0  0  0  0  0  0
    9.4794  -15.2382   20.9899 C   0  0  0  0  0  0  0  0  0  0  0  0
    8.6287  -16.2436   21.0043 O   0  0  0  0  0  0  0  0  0  0  0  0
   12.0117  -17.0224   22.9414 C   0  0  0  0  0  0  0  0  0  0  0  0
   10.6028  -16.6048   22.7382 C   0  0  2  0  0  0  0  0  0  0  0  0
   10.4580  -15.3579   21.9713 N   0  0  0  0  0  0  0  0  0  0  0  0
    9.9531  -16.4002   24.0779 C   0  0  0  0  0  0  0  0  0  0  0  0
    9.4836  -15.2642   24.3578 O   0  0  0  0  0  0  0  0  0  0  0  0
    9.8472  -17.4075   25.0227 O   0  0  0  0  0  0  0  0  0  0  0  0
  2  1  1  0
  2  3  2  0
  4  2  1  0
  5  4  1  0
  5  6  1  6
  5  7  1  0
  7  8  2  0
  9  7  1  0
  9 13  1  0
 10 11  1  0
 10  9  1  0
 11 12  1  0
 13 12  1  0
 13 14  1  1
 14 15  2  0
 14 18  1  0
 17 16  1  1
 17 19  1  0
 18 17  1  0
 19 21  1  0
 20 19  2  0
M  END
$$$$
