NPA.pdb
     RDKit          3D

 21 21  0  0  1  0  0  0  0  0999 V2000
    7.6405  -15.3800   14.6181 N   0  0  0  0  0  0  0  0  0  0  0  0
    8.1402  -16.1808   15.6785 C   0  0  0  0  0  0  0  0  0  0  0  0
    8.7699  -17.2177   15.3615 O   0  0  0  0  0  0  0  0  0  0  0  0
    7.9040  -15.7703   17.0839 C   0  0  0  0  0  0  0  0  0  0  0  0
    8.6511  -14.4756   17.3839 C   0  0  2  0  0  0  0  0  0  0  0  0
    9.6087  -14.2912   16.2763 N   0  0  0  0  0  0  0  0  0  0  0  0
    9.3731  -14.5580   18.6764 C   0  0  0  0  0  0  0  0  0  0  0  0
   10.5341  -15.0074   18.6083 O   0  0  0  0  0  0  0  0  0  0  0  0
    8.8370  -14.1729   19.9102 N   0  0  0  0  0  0  0  0  0  0  0  0
    7.9965  -12.9171   19.9436 C   0  0  0  0  0  0  0  0  0  0  0  0
    6.7616  -13.4273   20.6290 C   0  0  0  0  0  0  0  0  0  0  0  0
    7.2133  -14.6700   21.3885 C   0  0  0  0  0  0  0  0  0  0  0  0
    8.7596  -14.5108   21.2503 C   0  0  1  0  0  0  0  0  0  0  0  0
    9.3502  -15.5624   21.9782 C   0  0  0  0  0  0  0  0  0  0  0  0
    8.5510  -16.6039   22.0829 O   0  0  0  0  0  0  0  0  0  0  0  0
   12.3732  -17.4262   22.9584 C   0  0  0  0  0  0  0  0  0  0  0  0
   10.9374  -17.0938   23.1280 C   0  0  2  0  0  0  0  0  0  0  0  0
   10.5709  -15.7652   22.6139 N   0  0  0  0  0  0  0  0  0  0  0  0
   10.5937  -17.1330   24.5906 C   0  0  0  0  0  0  0  0  0  0  0  0
   10.8456  -18.1802   25.2457 O   0  0  0  0  0  0  0  0  0  0  0  0
   10.0097  -16.0663   25.2536 O   0  0  0  0  0  0  0  0  0  0  0  0
  2  1  1  0
  2  3  2  0
  4  2  1  0
  5  4  1  0
  5  6  1  6
  5  7  1  0
  7  8  2  0
  9  7  1  0
  9 13  1  0
 10 11  1  0
 10  9  1  0
 11 12  1  0
 13 12  1  0
 13 14  1  6
 14 15  2  0
 14 18  1  0
 17 16  1  1
 17 19  1  0
 18 17  1  0
 19 21  1  0
 20 19  2  0
M  END
$$$$
