NPA.pdb
     RDKit          3D

 21 21  0  0  1  0  0  0  0  0999 V2000
    6.8483  -19.3567   16.2770 N   0  0  0  0  0  0  0  0  0  0  0  0
    6.8997  -17.9385   16.3164 C   0  0  0  0  0  0  0  0  0  0  0  0
    6.4680  -17.3247   15.3118 O   0  0  0  0  0  0  0  0  0  0  0  0
    7.4476  -17.2557   17.5134 C   0  0  0  0  0  0  0  0  0  0  0  0
    8.4153  -16.1556   17.0917 C   0  0  2  0  0  0  0  0  0  0  0  0
    9.2103  -16.7152   15.9814 N   0  0  0  0  0  0  0  0  0  0  0  0
    9.3049  -15.7631   18.2111 C   0  0  0  0  0  0  0  0  0  0  0  0
   10.3929  -16.3696   18.2624 O   0  0  0  0  0  0  0  0  0  0  0  0
    8.9942  -14.7896   19.1671 N   0  0  0  0  0  0  0  0  0  0  0  0
    8.5214  -13.4448   18.6644 C   0  0  0  0  0  0  0  0  0  0  0  0
    7.2570  -13.2805   19.4576 C   0  0  0  0  0  0  0  0  0  0  0  0
    7.4255  -14.1928   20.6678 C   0  0  0  0  0  0  0  0  0  0  0  0
    8.9419  -14.5338   20.5264 C   0  0  1  0  0  0  0  0  0  0  0  0
    9.2919  -15.3295   21.6351 C   0  0  0  0  0  0  0  0  0  0  0  0
    8.4479  -16.3237   21.8187 O   0  0  0  0  0  0  0  0  0  0  0  0
   11.9596  -16.7864   23.6997 C   0  0  0  0  0  0  0  0  0  0  0  0
   10.5286  -16.4741   23.4644 C   0  0  2  0  0  0  0  0  0  0  0  0
   10.3107  -15.3174   22.5822 N   0  0  0  0  0  0  0  0  0  0  0  0
    9.8670  -16.1805   24.7816 C   0  0  0  0  0  0  0  0  0  0  0  0
    9.3248  -15.0550   24.9512 O   0  0  0  0  0  0  0  0  0  0  0  0
    9.8267  -17.0942   25.8218 O   0  0  0  0  0  0  0  0  0  0  0  0
  2  1  1  0
  2  3  2  0
  4  2  1  0
  5  4  1  0
  5  6  1  6
  5  7  1  0
  7  8  2  0
  9  7  1  0
  9 13  1  0
 10 11  1  0
 10  9  1  0
 11 12  1  0
 13 12  1  0
 13 14  1  1
 14 15  2  0
 14 18  1  0
 17 16  1  1
 17 19  1  0
 18 17  1  0
 19 21  1  0
 20 19  2  0
M  END
$$$$
