NPA.pdb
     RDKit          3D

 21 21  0  0  1  0  0  0  0  0999 V2000
    7.6498  -17.9887   14.3995 N   0  0  0  0  0  0  0  0  0  0  0  0
    7.5342  -16.6419   14.8337 C   0  0  0  0  0  0  0  0  0  0  0  0
    7.1054  -15.8094   13.9999 O   0  0  0  0  0  0  0  0  0  0  0  0
    7.9151  -16.2815   16.2209 C   0  0  0  0  0  0  0  0  0  0  0  0
    8.8237  -15.0573   16.2131 C   0  0  2  0  0  0  0  0  0  0  0  0
    9.7501  -15.2439   15.0795 N   0  0  0  0  0  0  0  0  0  0  0  0
    9.5834  -14.9428   17.4814 C   0  0  0  0  0  0  0  0  0  0  0  0
   10.6775  -15.5402   17.5007 O   0  0  0  0  0  0  0  0  0  0  0  0
    9.1495  -14.2291   18.6040 N   0  0  0  0  0  0  0  0  0  0  0  0
    8.5452  -12.8633   18.3710 C   0  0  0  0  0  0  0  0  0  0  0  0
    7.2540  -12.9983   19.1257 C   0  0  0  0  0  0  0  0  0  0  0  0
    7.4944  -14.1233   20.1266 C   0  0  0  0  0  0  0  0  0  0  0  0
    9.0413  -14.2720   19.9833 C   0  0  1  0  0  0  0  0  0  0  0  0
    9.4515  -15.2439   20.9170 C   0  0  0  0  0  0  0  0  0  0  0  0
    8.6720  -16.3053   20.9036 O   0  0  0  0  0  0  0  0  0  0  0  0
   12.2298  -17.0207   22.3721 C   0  0  0  0  0  0  0  0  0  0  0  0
   10.7969  -16.6483   22.4673 C   0  0  2  0  0  0  0  0  0  0  0  0
   10.4782  -15.3520   21.8494 N   0  0  0  0  0  0  0  0  0  0  0  0
   10.4030  -16.5779   23.9160 C   0  0  0  0  0  0  0  0  0  0  0  0
    9.9054  -15.5074   24.3586 O   0  0  0  0  0  0  0  0  0  0  0  0
   10.5634  -17.6402   24.7903 O   0  0  0  0  0  0  0  0  0  0  0  0
  2  1  1  0
  2  3  2  0
  4  2  1  0
  5  4  1  0
  5  6  1  6
  5  7  1  0
  7  8  2  0
  9  7  1  0
  9 13  1  0
 10 11  1  0
 10  9  1  0
 11 12  1  0
 13 12  1  0
 13 14  1  6
 14 15  2  0
 14 18  1  0
 17 16  1  1
 17 19  1  0
 18 17  1  0
 19 21  1  0
 20 19  2  0
M  END
$$$$
