NPA.pdb
     RDKit          3D

 21 21  0  0  1  0  0  0  0  0999 V2000
    8.0916  -15.8726   18.3549 N   0  0  0  0  0  0  0  0  0  0  0  0
    9.3557  -15.4696   18.8601 C   0  0  0  0  0  0  0  0  0  0  0  0
   10.3701  -15.8634   18.2371 O   0  0  0  0  0  0  0  0  0  0  0  0
    9.4255  -14.6203   20.0738 C   0  0  0  0  0  0  0  0  0  0  0  0
    8.0233  -14.3625   20.6140 C   0  0  2  0  0  0  0  0  0  0  0  0
    7.5684  -13.1071   19.9854 N   0  0  0  0  0  0  0  0  0  0  0  0
    8.0326  -14.2218   22.0900 C   0  0  0  0  0  0  0  0  0  0  0  0
    8.5596  -13.1771   22.5204 O   0  0  0  0  0  0  0  0  0  0  0  0
    7.5023  -15.1627   22.9796 N   0  0  0  0  0  0  0  0  0  0  0  0
    6.3041  -15.9604   22.5183 C   0  0  0  0  0  0  0  0  0  0  0  0
    6.7774  -17.3582   22.7956 C   0  0  0  0  0  0  0  0  0  0  0  0
    7.8687  -17.2066   23.8498 C   0  0  0  0  0  0  0  0  0  0  0  0
    7.6449  -15.7127   24.2418 C   0  0  1  0  0  0  0  0  0  0  0  0
    8.5444  -15.4201   25.2859 C   0  0  0  0  0  0  0  0  0  0  0  0
    9.7803  -15.7632   24.9871 O   0  0  0  0  0  0  0  0  0  0  0  0
    9.5088  -13.2783   28.1324 C   0  0  0  0  0  0  0  0  0  0  0  0
    9.6488  -14.5124   27.3212 C   0  0  2  0  0  0  0  0  0  0  0  0
    8.4421  -14.8590   26.5547 N   0  0  0  0  0  0  0  0  0  0  0  0
    9.9636  -15.6657   28.2320 C   0  0  0  0  0  0  0  0  0  0  0  0
   10.9674  -15.5842   28.9903 O   0  0  0  0  0  0  0  0  0  0  0  0
    9.1978  -16.8190   28.2753 O   0  0  0  0  0  0  0  0  0  0  0  0
  2  1  1  0
  2  3  2  0
  4  2  1  0
  5  4  1  0
  5  6  1  6
  5  7  1  0
  7  8  2  0
  9  7  1  0
  9 13  1  0
 10 11  1  0
 10  9  1  0
 11 12  1  0
 13 12  1  0
 13 14  1  6
 14 15  2  0
 14 18  1  0
 17 16  1  1
 17 19  1  0
 18 17  1  0
 19 21  1  0
 20 19  2  0
M  END
$$$$
