NPA.pdb
     RDKit          3D

 21 21  0  0  1  0  0  0  0  0999 V2000
    6.9754  -17.2962   22.3844 N   0  0  0  0  0  0  0  0  0  0  0  0
    6.6070  -16.1661   21.6080 C   0  0  0  0  0  0  0  0  0  0  0  0
    6.7156  -16.2702   20.3632 O   0  0  0  0  0  0  0  0  0  0  0  0
    6.1206  -14.9380   22.2822 C   0  0  0  0  0  0  0  0  0  0  0  0
    7.2038  -13.8653   22.2617 C   0  0  2  0  0  0  0  0  0  0  0  0
    7.8576  -13.9708   20.9429 N   0  0  0  0  0  0  0  0  0  0  0  0
    8.1952  -14.0809   23.3431 C   0  0  0  0  0  0  0  0  0  0  0  0
    9.1735  -14.7888   23.0331 O   0  0  0  0  0  0  0  0  0  0  0  0
    8.0883  -13.5516   24.6340 N   0  0  0  0  0  0  0  0  0  0  0  0
    7.4885  -12.1712   24.7740 C   0  0  0  0  0  0  0  0  0  0  0  0
    6.4317  -12.4310   25.8087 C   0  0  0  0  0  0  0  0  0  0  0  0
    6.8856  -13.6944   26.5320 C   0  0  0  0  0  0  0  0  0  0  0  0
    8.3378  -13.8066   25.9714 C   0  0  1  0  0  0  0  0  0  0  0  0
    8.9434  -14.9070   26.6095 C   0  0  0  0  0  0  0  0  0  0  0  0
    8.0804  -15.8678   26.8676 O   0  0  0  0  0  0  0  0  0  0  0  0
   11.8548  -17.0890   26.9957 C   0  0  0  0  0  0  0  0  0  0  0  0
   10.5553  -16.5796   27.4984 C   0  0  2  0  0  0  0  0  0  0  0  0
   10.2301  -15.2223   27.0338 N   0  0  0  0  0  0  0  0  0  0  0  0
   10.5843  -16.5581   29.0009 C   0  0  0  0  0  0  0  0  0  0  0  0
   10.8524  -17.6240   29.6183 O   0  0  0  0  0  0  0  0  0  0  0  0
   10.3281  -15.4154   29.7406 O   0  0  0  0  0  0  0  0  0  0  0  0
  2  1  1  0
  2  3  2  0
  4  2  1  0
  5  4  1  0
  5  6  1  6
  5  7  1  0
  7  8  2  0
  9  7  1  0
  9 13  1  0
 10 11  1  0
 10  9  1  0
 11 12  1  0
 13 12  1  0
 13 14  1  6
 14 15  2  0
 14 18  1  0
 17 16  1  6
 17 19  1  0
 18 17  1  0
 19 21  1  0
 20 19  2  0
M  END
$$$$
