NPA.pdb
     RDKit          3D

 21 21  0  0  1  0  0  0  0  0999 V2000
    8.1399  -16.6865   13.7056 N   0  0  0  0  0  0  0  0  0  0  0  0
    7.6593  -16.2731   14.9760 C   0  0  0  0  0  0  0  0  0  0  0  0
    6.4412  -15.9874   15.0588 O   0  0  0  0  0  0  0  0  0  0  0  0
    8.5926  -16.1972   16.1259 C   0  0  0  0  0  0  0  0  0  0  0  0
    8.4825  -14.8345   16.8008 C   0  0  2  0  0  0  0  0  0  0  0  0
    9.0374  -13.8588   15.8426 N   0  0  0  0  0  0  0  0  0  0  0  0
    9.2491  -14.7987   18.0695 C   0  0  0  0  0  0  0  0  0  0  0  0
   10.4192  -15.2226   17.9949 O   0  0  0  0  0  0  0  0  0  0  0  0
    8.7438  -14.3332   19.2884 N   0  0  0  0  0  0  0  0  0  0  0  0
    7.8443  -13.1189   19.2521 C   0  0  0  0  0  0  0  0  0  0  0  0
    6.6641  -13.6239   20.0312 C   0  0  0  0  0  0  0  0  0  0  0  0
    7.2060  -14.7743   20.8728 C   0  0  0  0  0  0  0  0  0  0  0  0
    8.7360  -14.5571   20.6544 C   0  0  1  0  0  0  0  0  0  0  0  0
    9.4060  -15.5137   21.4423 C   0  0  0  0  0  0  0  0  0  0  0  0
    8.9573  -16.7336   21.2302 O   0  0  0  0  0  0  0  0  0  0  0  0
   12.4431  -16.6470   23.2194 C   0  0  0  0  0  0  0  0  0  0  0  0
   10.9913  -16.7277   22.9252 C   0  0  2  0  0  0  0  0  0  0  0  0
   10.4239  -15.4806   22.3899 N   0  0  0  0  0  0  0  0  0  0  0  0
   10.2520  -17.0653   24.1894 C   0  0  0  0  0  0  0  0  0  0  0  0
    9.3795  -16.2614   24.6157 O   0  0  0  0  0  0  0  0  0  0  0  0
   10.4876  -18.2243   24.9104 O   0  0  0  0  0  0  0  0  0  0  0  0
  2  1  1  0
  2  3  2  0
  4  2  1  0
  5  4  1  0
  5  6  1  6
  5  7  1  0
  7  8  2  0
  9  7  1  0
  9 13  1  0
 10 11  1  0
 10  9  1  0
 11 12  1  0
 13 12  1  0
 13 14  1  6
 14 15  2  0
 14 18  1  0
 17 16  1  1
 17 19  1  0
 18 17  1  0
 19 21  1  0
 20 19  2  0
M  END
$$$$
