NPA.pdb
     RDKit          3D

 21 21  0  0  1  0  0  0  0  0999 V2000
    7.1198  -12.8829   18.8392 N   0  0  0  0  0  0  0  0  0  0  0  0
    6.6574  -14.1350   19.3229 C   0  0  0  0  0  0  0  0  0  0  0  0
    5.9338  -14.8108   18.5536 O   0  0  0  0  0  0  0  0  0  0  0  0
    7.0384  -14.5834   20.6842 C   0  0  0  0  0  0  0  0  0  0  0  0
    7.8461  -13.4975   21.3863 C   0  0  2  0  0  0  0  0  0  0  0  0
    8.7894  -12.9749   20.3788 N   0  0  0  0  0  0  0  0  0  0  0  0
    8.5885  -14.0447   22.5473 C   0  0  0  0  0  0  0  0  0  0  0  0
    9.5642  -14.7664   22.2613 O   0  0  0  0  0  0  0  0  0  0  0  0
    8.2603  -13.8001   23.8853 N   0  0  0  0  0  0  0  0  0  0  0  0
    7.6599  -12.4541   24.2210 C   0  0  0  0  0  0  0  0  0  0  0  0
    6.4338  -12.8775   24.9774 C   0  0  0  0  0  0  0  0  0  0  0  0
    6.7388  -14.2874   25.4718 C   0  0  0  0  0  0  0  0  0  0  0  0
    8.2660  -14.3482   25.1564 C   0  0  1  0  0  0  0  0  0  0  0  0
    8.7372  -15.5882   25.6306 C   0  0  0  0  0  0  0  0  0  0  0  0
    7.7721  -16.4780   25.7373 O   0  0  0  0  0  0  0  0  0  0  0  0
   11.4334  -18.0768   25.7340 C   0  0  0  0  0  0  0  0  0  0  0  0
   10.1499  -17.5398   26.2487 C   0  0  2  0  0  0  0  0  0  0  0  0
    9.9731  -16.0983   26.0147 N   0  0  0  0  0  0  0  0  0  0  0  0
   10.0766  -17.7788   27.7307 C   0  0  0  0  0  0  0  0  0  0  0  0
    9.9530  -16.7878   28.5001 O   0  0  0  0  0  0  0  0  0  0  0  0
   10.1397  -19.0438   28.2913 O   0  0  0  0  0  0  0  0  0  0  0  0
  2  1  1  0
  2  3  2  0
  4  2  1  0
  5  4  1  0
  5  6  1  6
  5  7  1  0
  7  8  2  0
  9  7  1  0
  9 13  1  0
 10 11  1  0
 10  9  1  0
 11 12  1  0
 13 12  1  0
 13 14  1  6
 14 15  2  0
 14 18  1  0
 17 16  1  1
 17 19  1  0
 18 17  1  0
 19 21  1  0
 20 19  2  0
M  END
$$$$
