LCQ.pdb
     RDKit          3D

 24 23  0  0  1  0  0  0  0  0999 V2000
   33.5571  -36.6827   -9.5280 C   0  0  0  0  0  0  0  0  0  0  0  0
   34.6887  -37.2657   -8.7504 C   0  0  2  0  0  0  0  0  0  0  0  0
   35.4622  -38.3170   -9.5163 C   0  0  0  0  0  0  0  0  0  0  0  0
   34.2448  -37.7571   -7.3926 C   0  0  0  0  0  0  0  0  0  0  0  0
   33.6067  -36.5775   -6.6795 C   0  0  2  0  0  0  0  0  0  0  0  0
   34.5982  -35.5227   -6.6459 N   0  0  0  0  0  0  0  0  0  0  0  0
   33.1811  -36.8959   -5.3212 C   0  0  0  0  0  0  0  0  0  0  0  0
   32.4820  -37.9197   -5.1063 O   0  0  0  0  0  0  0  0  0  0  0  0
   33.4979  -36.1216   -4.1683 N   0  0  0  0  0  0  0  0  0  0  0  0
   33.0981  -36.4695   -2.8204 C   0  0  1  0  0  0  0  0  0  0  0  0
   34.3315  -36.2706   -1.9411 C   0  0  0  0  0  0  0  0  0  0  0  0
   35.6160  -37.4861   -2.3114 S   0  0  0  0  0  0  0  0  0  0  0  0
   32.0505  -35.5736   -2.2941 C   0  0  0  0  0  0  0  0  0  0  0  0
   32.0381  -34.3295   -2.4276 O   0  0  0  0  0  0  0  0  0  0  0  0
   27.0373  -33.3890   -4.7226 N   0  0  0  0  0  0  0  0  0  0  0  0
   27.5730  -33.7663   -3.4756 C   0  0  0  0  0  0  0  0  0  0  0  0
   27.9314  -32.8993   -2.6647 O   0  0  0  0  0  0  0  0  0  0  0  0
   27.7036  -35.1916   -3.1454 C   0  0  0  0  0  0  0  0  0  0  0  0
   29.1046  -35.6789   -2.9667 C   0  0  0  0  0  0  0  0  0  0  0  0
   29.6316  -35.5940   -1.5637 C   0  0  2  0  0  0  0  0  0  0  0  0
   30.9739  -36.1714   -1.5812 N   0  0  0  0  0  0  0  0  0  0  0  0
   28.8002  -36.4055   -0.6481 C   0  0  0  0  0  0  0  0  0  0  0  0
   29.0836  -37.6071   -0.4587 O   0  0  0  0  0  0  0  0  0  0  0  0
   27.7033  -35.8912    0.0223 O   0  0  0  0  0  0  0  0  0  0  0  0
  2  3  1  6
  2  1  1  0
  4  2  1  0
  5  7  1  0
  5  4  1  0
  5  6  1  1
  7  8  2  0
  9 10  1  0
  9  7  1  0
 10 11  1  1
 11 12  1  0
 13 10  1  0
 14 13  2  0
 16 15  1  0
 16 17  2  0
 18 16  1  0
 19 18  1  0
 20 19  1  6
 20 21  1  0
 21 13  1  0
 22 20  1  0
 22 24  1  0
 23 22  2  0
M  END
$$$$
