LCQ.pdb
     RDKit          3D

 24 23  0  0  1  0  0  0  0  0999 V2000
   24.1149  -15.5710  -20.7108 C   0  0  0  0  0  0  0  0  0  0  0  0
   23.1138  -16.1228  -19.7525 C   0  0  2  0  0  0  0  0  0  0  0  0
   21.7557  -16.3605  -20.3766 C   0  0  0  0  0  0  0  0  0  0  0  0
   23.0274  -15.2968  -18.4906 C   0  0  0  0  0  0  0  0  0  0  0  0
   24.4402  -15.1630  -17.9492 C   0  0  2  0  0  0  0  0  0  0  0  0
   24.7336  -16.3896  -17.2378 N   0  0  0  0  0  0  0  0  0  0  0  0
   24.6006  -14.0239  -17.0524 C   0  0  0  0  0  0  0  0  0  0  0  0
   23.9995  -14.0056  -15.9473 O   0  0  0  0  0  0  0  0  0  0  0  0
   25.4089  -12.8832  -17.3251 N   0  0  0  0  0  0  0  0  0  0  0  0
   25.4959  -11.7233  -16.4620 C   0  0  1  0  0  0  0  0  0  0  0  0
   26.9846  -11.4269  -16.2885 C   0  0  0  0  0  0  0  0  0  0  0  0
   27.2571   -9.9701  -15.2549 S   0  0  0  0  0  0  0  0  0  0  0  0
   24.8901  -10.5224  -17.0686 C   0  0  0  0  0  0  0  0  0  0  0  0
   25.0597  -10.1546  -18.2525 O   0  0  0  0  0  0  0  0  0  0  0  0
   19.9137   -7.8087  -14.2739 N   0  0  0  0  0  0  0  0  0  0  0  0
   20.1901   -6.8926  -15.3076 C   0  0  0  0  0  0  0  0  0  0  0  0
   19.4532   -5.9105  -15.4819 O   0  0  0  0  0  0  0  0  0  0  0  0
   21.3550   -7.1105  -16.1755 C   0  0  0  0  0  0  0  0  0  0  0  0
   22.1522   -8.3382  -15.8764 C   0  0  0  0  0  0  0  0  0  0  0  0
   23.3592   -8.5382  -16.7460 C   0  0  2  0  0  0  0  0  0  0  0  0
   24.0500   -9.7239  -16.2434 N   0  0  0  0  0  0  0  0  0  0  0  0
   24.2823   -7.3888  -16.6234 C   0  0  0  0  0  0  0  0  0  0  0  0
   25.1012   -7.3529  -15.6810 O   0  0  0  0  0  0  0  0  0  0  0  0
   24.2847   -6.3311  -17.5168 O   0  0  0  0  0  0  0  0  0  0  0  0
  2  3  1  6
  2  1  1  0
  4  2  1  0
  5  7  1  0
  5  4  1  0
  5  6  1  1
  7  8  2  0
  9 10  1  0
  9  7  1  0
 10 11  1  6
 11 12  1  0
 13 10  1  0
 14 13  2  0
 16 15  1  0
 16 17  2  0
 18 16  1  0
 19 18  1  0
 20 19  1  1
 20 21  1  0
 21 13  1  0
 22 20  1  0
 22 24  1  0
 23 22  2  0
M  END
$$$$
