LCQ.pdb
     RDKit          3D

 24 23  0  0  1  0  0  0  0  0999 V2000
   36.9071   -4.6427  -13.2149 C   0  0  0  0  0  0  0  0  0  0  0  0
   37.8545   -5.5655  -13.9048 C   0  0  2  0  0  0  0  0  0  0  0  0
   39.1941   -4.9304  -14.2087 C   0  0  0  0  0  0  0  0  0  0  0  0
   37.2324   -6.2019  -15.1256 C   0  0  0  0  0  0  0  0  0  0  0  0
   35.9213   -6.8272  -14.6816 C   0  0  2  0  0  0  0  0  0  0  0  0
   36.2586   -7.9253  -13.8001 N   0  0  0  0  0  0  0  0  0  0  0  0
   35.1194   -7.3197  -15.7961 C   0  0  0  0  0  0  0  0  0  0  0  0
   34.7583   -6.5300  -16.7066 O   0  0  0  0  0  0  0  0  0  0  0  0
   34.6903   -8.6687  -15.9541 N   0  0  0  0  0  0  0  0  0  0  0  0
   33.8606   -9.1353  -17.0457 C   0  0  1  0  0  0  0  0  0  0  0  0
   33.8366  -10.6596  -16.9466 C   0  0  0  0  0  0  0  0  0  0  0  0
   32.7686  -11.3918  -18.2068 S   0  0  0  0  0  0  0  0  0  0  0  0
   32.4627   -8.6783  -16.9266 C   0  0  0  0  0  0  0  0  0  0  0  0
   31.8205   -8.6088  -15.8549 O   0  0  0  0  0  0  0  0  0  0  0  0
   30.2792   -4.2472  -20.5789 N   0  0  0  0  0  0  0  0  0  0  0  0
   29.0731   -4.7123  -20.0193 C   0  0  0  0  0  0  0  0  0  0  0  0
   28.0122   -4.1085  -20.2382 O   0  0  0  0  0  0  0  0  0  0  0  0
   29.0829   -5.9150  -19.1761 C   0  0  0  0  0  0  0  0  0  0  0  0
   30.4106   -6.5859  -19.0377 C   0  0  0  0  0  0  0  0  0  0  0  0
   30.4280   -7.7752  -18.1220 C   0  0  2  0  0  0  0  0  0  0  0  0
   31.7965   -8.2878  -18.1216 N   0  0  0  0  0  0  0  0  0  0  0  0
   29.5439   -8.8415  -18.6410 C   0  0  0  0  0  0  0  0  0  0  0  0
   29.9779   -9.6408  -19.4971 O   0  0  0  0  0  0  0  0  0  0  0  0
   28.2352   -9.0017  -18.2183 O   0  0  0  0  0  0  0  0  0  0  0  0
  2  3  1  6
  2  1  1  0
  4  2  1  0
  5  7  1  0
  5  4  1  0
  5  6  1  1
  7  8  2  0
  9 10  1  0
  9  7  1  0
 10 11  1  1
 11 12  1  0
 13 10  1  0
 14 13  2  0
 16 15  1  0
 16 17  2  0
 18 16  1  0
 19 18  1  0
 20 19  1  6
 20 21  1  0
 21 13  1  0
 22 20  1  0
 22 24  1  0
 23 22  2  0
M  END
$$$$
