LCQ.pdb
     RDKit          3D

 24 23  0  0  1  0  0  0  0  0999 V2000
   25.3309  -20.5904   -7.4269 C   0  0  0  0  0  0  0  0  0  0  0  0
   26.6857  -20.3993   -8.0210 C   0  0  2  0  0  0  0  0  0  0  0  0
   27.6805  -19.7878   -7.0582 C   0  0  0  0  0  0  0  0  0  0  0  0
   26.6253  -19.6526   -9.3328 C   0  0  0  0  0  0  0  0  0  0  0  0
   25.7659  -20.4779  -10.2749 C   0  0  2  0  0  0  0  0  0  0  0  0
   26.0600  -21.8687   -9.9995 N   0  0  0  0  0  0  0  0  0  0  0  0
   26.0247  -20.1896  -11.6812 C   0  0  0  0  0  0  0  0  0  0  0  0
   25.8453  -19.0267  -12.1268 O   0  0  0  0  0  0  0  0  0  0  0  0
   26.4809  -21.1439  -12.6352 N   0  0  0  0  0  0  0  0  0  0  0  0
   26.6927  -20.8534  -14.0383 C   0  0  1  0  0  0  0  0  0  0  0  0
   27.7854  -21.8086  -14.5152 C   0  0  0  0  0  0  0  0  0  0  0  0
   28.0296  -21.7017  -16.3023 S   0  0  0  0  0  0  0  0  0  0  0  0
   25.4974  -21.1299  -14.8579 C   0  0  0  0  0  0  0  0  0  0  0  0
   24.8409  -22.1948  -14.8310 O   0  0  0  0  0  0  0  0  0  0  0  0
   21.2579  -16.9147  -15.7962 N   0  0  0  0  0  0  0  0  0  0  0  0
   20.7881  -17.9324  -16.6494 C   0  0  0  0  0  0  0  0  0  0  0  0
   19.6683  -17.8370  -17.1735 O   0  0  0  0  0  0  0  0  0  0  0  0
   21.6335  -19.1046  -16.9115 C   0  0  0  0  0  0  0  0  0  0  0  0
   22.9415  -19.1218  -16.1895 C   0  0  0  0  0  0  0  0  0  0  0  0
   23.8604  -20.2467  -16.5681 C   0  0  2  0  0  0  0  0  0  0  0  0
   25.0599  -20.1073  -15.7452 N   0  0  0  0  0  0  0  0  0  0  0  0
   24.2661  -20.1294  -17.9858 C   0  0  0  0  0  0  0  0  0  0  0  0
   24.8658  -19.1045  -18.3732 O   0  0  0  0  0  0  0  0  0  0  0  0
   24.0102  -21.1162  -18.9226 O   0  0  0  0  0  0  0  0  0  0  0  0
  2  3  1  1
  2  1  1  0
  4  2  1  0
  5  7  1  0
  5  4  1  0
  5  6  1  6
  7  8  2  0
  9 10  1  0
  9  7  1  0
 10 11  1  6
 11 12  1  0
 13 10  1  0
 14 13  2  0
 16 15  1  0
 16 17  2  0
 18 16  1  0
 19 18  1  0
 20 19  1  1
 20 21  1  0
 21 13  1  0
 22 20  1  0
 22 24  1  0
 23 22  2  0
M  END
$$$$
