LCQ.pdb
     RDKit          3D

 24 23  0  0  1  0  0  0  0  0999 V2000
   26.6483  -11.3276  -15.5336 C   0  0  0  0  0  0  0  0  0  0  0  0
   26.8658  -11.3053  -17.0092 C   0  0  2  0  0  0  0  0  0  0  0  0
   28.1470  -10.6095  -17.4147 C   0  0  0  0  0  0  0  0  0  0  0  0
   25.6630  -10.7663  -17.7476 C   0  0  0  0  0  0  0  0  0  0  0  0
   24.4465  -11.5015  -17.2122 C   0  0  2  0  0  0  0  0  0  0  0  0
   24.3592  -12.7509  -17.9388 N   0  0  0  0  0  0  0  0  0  0  0  0
   23.2081  -10.7487  -17.3777 C   0  0  0  0  0  0  0  0  0  0  0  0
   22.7683  -10.5100  -18.5321 O   0  0  0  0  0  0  0  0  0  0  0  0
   22.4189  -10.2380  -16.3075 N   0  0  0  0  0  0  0  0  0  0  0  0
   21.2360   -9.4219  -16.4873 C   0  0  1  0  0  0  0  0  0  0  0  0
   20.0569  -10.2587  -15.9935 C   0  0  0  0  0  0  0  0  0  0  0  0
   20.3280  -10.8641  -14.3129 S   0  0  0  0  0  0  0  0  0  0  0  0
   21.2647   -8.1982  -15.6634 C   0  0  0  0  0  0  0  0  0  0  0  0
   22.0767   -7.9768  -14.7374 O   0  0  0  0  0  0  0  0  0  0  0  0
   21.8678   -4.6749  -13.1571 N   0  0  0  0  0  0  0  0  0  0  0  0
   22.0072   -3.6001  -14.0569 C   0  0  0  0  0  0  0  0  0  0  0  0
   22.1750   -2.4483  -13.6289 O   0  0  0  0  0  0  0  0  0  0  0  0
   21.9515   -3.8545  -15.5025 C   0  0  0  0  0  0  0  0  0  0  0  0
   21.6965   -5.2746  -15.8907 C   0  0  0  0  0  0  0  0  0  0  0  0
   20.3933   -5.8404  -15.4064 C   0  0  2  0  0  0  0  0  0  0  0  0
   20.2953   -7.1955  -15.9446 N   0  0  0  0  0  0  0  0  0  0  0  0
   19.2580   -5.0566  -15.9401 C   0  0  0  0  0  0  0  0  0  0  0  0
   18.8401   -5.2838  -17.0951 O   0  0  0  0  0  0  0  0  0  0  0  0
   18.6232   -4.0654  -15.2111 O   0  0  0  0  0  0  0  0  0  0  0  0
  2  3  1  1
  2  1  1  0
  4  2  1  0
  5  7  1  0
  5  4  1  0
  5  6  1  6
  7  8  2  0
  9 10  1  0
  9  7  1  0
 10 11  1  1
 11 12  1  0
 13 10  1  0
 14 13  2  0
 16 15  1  0
 16 17  2  0
 18 16  1  0
 19 18  1  0
 20 19  1  6
 20 21  1  0
 21 13  1  0
 22 20  1  0
 22 24  1  0
 23 22  2  0
M  END
$$$$
