LCQ.pdb
     RDKit          3D

 24 23  0  0  1  0  0  0  0  0999 V2000
   21.1001  -12.1238  -21.1033 C   0  0  0  0  0  0  0  0  0  0  0  0
   20.0811  -13.0356  -20.5074 C   0  0  2  0  0  0  0  0  0  0  0  0
   18.7189  -12.9158  -21.1557 C   0  0  0  0  0  0  0  0  0  0  0  0
   20.0138  -12.8993  -19.0043 C   0  0  0  0  0  0  0  0  0  0  0  0
   21.4444  -12.8943  -18.4940 C   0  0  2  0  0  0  0  0  0  0  0  0
   21.8377  -14.2789  -18.3370 N   0  0  0  0  0  0  0  0  0  0  0  0
   21.5928  -12.1937  -17.2232 C   0  0  0  0  0  0  0  0  0  0  0  0
   21.0952  -12.6817  -16.1757 O   0  0  0  0  0  0  0  0  0  0  0  0
   22.2781  -10.9566  -17.0531 N   0  0  0  0  0  0  0  0  0  0  0  0
   22.4204  -10.2740  -15.7836 C   0  0  1  0  0  0  0  0  0  0  0  0
   23.7117  -10.7968  -15.1564 C   0  0  0  0  0  0  0  0  0  0  0  0
   25.0761  -10.7926  -16.3409 S   0  0  0  0  0  0  0  0  0  0  0  0
   22.5836   -8.8162  -15.9425 C   0  0  0  0  0  0  0  0  0  0  0  0
   23.0523   -8.2541  -16.9574 O   0  0  0  0  0  0  0  0  0  0  0  0
   19.1389   -5.1661  -17.5947 N   0  0  0  0  0  0  0  0  0  0  0  0
   19.9209   -4.1954  -16.9386 C   0  0  0  0  0  0  0  0  0  0  0  0
   19.6992   -2.9894  -17.1234 O   0  0  0  0  0  0  0  0  0  0  0  0
   20.9987   -4.6229  -16.0368 C   0  0  0  0  0  0  0  0  0  0  0  0
   21.1137   -6.0988  -15.8353 C   0  0  0  0  0  0  0  0  0  0  0  0
   22.2280   -6.5301  -14.9267 C   0  0  2  0  0  0  0  0  0  0  0  0
   22.1768   -7.9889  -14.8587 N   0  0  0  0  0  0  0  0  0  0  0  0
   22.0155   -6.0041  -13.5606 C   0  0  0  0  0  0  0  0  0  0  0  0
   21.4776   -6.7287  -12.6971 O   0  0  0  0  0  0  0  0  0  0  0  0
   22.3894   -4.7255  -13.1832 O   0  0  0  0  0  0  0  0  0  0  0  0
  2  3  1  6
  2  1  1  0
  4  2  1  0
  5  7  1  0
  5  4  1  0
  5  6  1  1
  7  8  2  0
  9 10  1  0
  9  7  1  0
 10 11  1  6
 11 12  1  0
 13 10  1  0
 14 13  2  0
 16 15  1  0
 16 17  2  0
 18 16  1  0
 19 18  1  0
 20 19  1  6
 20 21  1  0
 21 13  1  0
 22 20  1  0
 22 24  1  0
 23 22  2  0
M  END
$$$$
