LCQ.pdb
     RDKit          3D

 24 23  0  0  1  0  0  0  0  0999 V2000
   36.9850  -12.5289   -9.0021 C   0  0  0  0  0  0  0  0  0  0  0  0
   37.0933  -12.2898   -7.5337 C   0  0  2  0  0  0  0  0  0  0  0  0
   35.9584  -12.9026   -6.7422 C   0  0  0  0  0  0  0  0  0  0  0  0
   37.2892  -10.8262   -7.2145 C   0  0  0  0  0  0  0  0  0  0  0  0
   38.3743  -10.3099   -8.1434 C   0  0  2  0  0  0  0  0  0  0  0  0
   39.5781  -11.0529   -7.8346 N   0  0  0  0  0  0  0  0  0  0  0  0
   38.6245   -8.8813   -7.9877 C   0  0  0  0  0  0  0  0  0  0  0  0
   37.6762   -8.0621   -8.1000 O   0  0  0  0  0  0  0  0  0  0  0  0
   39.8971   -8.3055   -7.7084 N   0  0  0  0  0  0  0  0  0  0  0  0
   40.1365   -6.8821   -7.5880 C   0  0  1  0  0  0  0  0  0  0  0  0
   41.5214   -6.7304   -6.9609 C   0  0  0  0  0  0  0  0  0  0  0  0
   41.5659   -7.3885   -5.2787 S   0  0  0  0  0  0  0  0  0  0  0  0
   40.1858   -6.2058   -8.8985 C   0  0  0  0  0  0  0  0  0  0  0  0
   40.8304   -6.6125   -9.8908 O   0  0  0  0  0  0  0  0  0  0  0  0
   36.1257   -4.0420  -12.8855 N   0  0  0  0  0  0  0  0  0  0  0  0
   36.2319   -2.9676  -11.9808 C   0  0  0  0  0  0  0  0  0  0  0  0
   35.5266   -1.9583  -12.1282 O   0  0  0  0  0  0  0  0  0  0  0  0
   37.1832   -3.0524  -10.8648 C   0  0  0  0  0  0  0  0  0  0  0  0
   37.8474   -4.3796  -10.6927 C   0  0  0  0  0  0  0  0  0  0  0  0
   39.3020   -4.3183  -10.3271 C   0  0  2  0  0  0  0  0  0  0  0  0
   39.4436   -5.0005   -9.0425 N   0  0  0  0  0  0  0  0  0  0  0  0
   39.7318   -2.9146  -10.1456 C   0  0  0  0  0  0  0  0  0  0  0  0
   39.6965   -2.4006   -9.0077 O   0  0  0  0  0  0  0  0  0  0  0  0
   40.1795   -2.1267  -11.1924 O   0  0  0  0  0  0  0  0  0  0  0  0
  2  3  1  1
  2  1  1  0
  4  2  1  0
  5  7  1  0
  5  4  1  0
  5  6  1  1
  7  8  2  0
  9 10  1  0
  9  7  1  0
 10 11  1  6
 11 12  1  0
 13 10  1  0
 14 13  2  0
 16 15  1  0
 16 17  2  0
 18 16  1  0
 19 18  1  0
 20 19  1  1
 20 21  1  0
 21 13  1  0
 22 20  1  0
 22 24  1  0
 23 22  2  0
M  END
$$$$
