LCQ.pdb
     RDKit          3D

 24 23  0  0  1  0  0  0  0  0999 V2000
   21.5496  -11.0567  -16.2422 C   0  0  0  0  0  0  0  0  0  0  0  0
   20.4064  -10.4457  -16.9804 C   0  0  2  0  0  0  0  0  0  0  0  0
   20.5821   -8.9644  -17.2356 C   0  0  0  0  0  0  0  0  0  0  0  0
   19.0812  -10.7610  -16.3270 C   0  0  0  0  0  0  0  0  0  0  0  0
   18.9627  -12.2742  -16.2696 C   0  0  2  0  0  0  0  0  0  0  0  0
   19.0217  -12.7507  -17.6356 N   0  0  0  0  0  0  0  0  0  0  0  0
   17.7242  -12.7247  -15.6445 C   0  0  0  0  0  0  0  0  0  0  0  0
   17.4581  -12.3855  -14.4625 O   0  0  0  0  0  0  0  0  0  0  0  0
   16.7483  -13.5477  -16.2764 N   0  0  0  0  0  0  0  0  0  0  0  0
   15.5178  -13.9794  -15.6462 C   0  0  1  0  0  0  0  0  0  0  0  0
   14.4190  -13.8235  -16.6961 C   0  0  0  0  0  0  0  0  0  0  0  0
   14.8243  -14.7059  -18.2198 S   0  0  0  0  0  0  0  0  0  0  0  0
   15.5476  -15.4056  -15.2692 C   0  0  0  0  0  0  0  0  0  0  0  0
   16.3838  -16.2390  -15.6840 O   0  0  0  0  0  0  0  0  0  0  0  0
   11.1618  -17.5197  -11.1897 N   0  0  0  0  0  0  0  0  0  0  0  0
   10.9118  -17.5727  -12.5749 C   0  0  0  0  0  0  0  0  0  0  0  0
    9.7545  -17.7279  -12.9926 O   0  0  0  0  0  0  0  0  0  0  0  0
   12.0307  -17.4438  -13.5178 C   0  0  0  0  0  0  0  0  0  0  0  0
   13.3816  -17.3215  -12.8913 C   0  0  0  0  0  0  0  0  0  0  0  0
   14.5249  -17.2370  -13.8603 C   0  0  2  0  0  0  0  0  0  0  0  0
   14.5495  -15.8660  -14.3657 N   0  0  0  0  0  0  0  0  0  0  0  0
   14.2981  -18.1405  -15.0093 C   0  0  0  0  0  0  0  0  0  0  0  0
   13.8440  -17.6787  -16.0773 O   0  0  0  0  0  0  0  0  0  0  0  0
   14.5686  -19.4975  -14.9603 O   0  0  0  0  0  0  0  0  0  0  0  0
  2  3  1  1
  2  1  1  0
  4  2  1  0
  5  7  1  0
  5  4  1  0
  5  6  1  6
  7  8  2  0
  9 10  1  0
  9  7  1  0
 10 11  1  6
 11 12  1  0
 13 10  1  0
 14 13  2  0
 16 15  1  0
 16 17  2  0
 18 16  1  0
 19 18  1  0
 20 19  1  1
 20 21  1  0
 21 13  1  0
 22 20  1  0
 22 24  1  0
 23 22  2  0
M  END
$$$$
