LCQ.pdb
     RDKit          3D

 24 23  0  0  1  0  0  0  0  0999 V2000
   17.3415  -12.4324  -19.5496 C   0  0  0  0  0  0  0  0  0  0  0  0
   16.3209  -12.7802  -18.5189 C   0  0  2  0  0  0  0  0  0  0  0  0
   14.9039  -12.7619  -19.0498 C   0  0  0  0  0  0  0  0  0  0  0  0
   16.4751  -11.9451  -17.2694 C   0  0  0  0  0  0  0  0  0  0  0  0
   17.9285  -12.0505  -16.8408 C   0  0  2  0  0  0  0  0  0  0  0  0
   18.0646  -13.3033  -16.1276 N   0  0  0  0  0  0  0  0  0  0  0  0
   18.3504  -10.9483  -15.9836 C   0  0  0  0  0  0  0  0  0  0  0  0
   17.9271  -10.8753  -14.8010 O   0  0  0  0  0  0  0  0  0  0  0  0
   19.2343   -9.9039  -16.3798 N   0  0  0  0  0  0  0  0  0  0  0  0
   19.5479   -8.7503  -15.5621 C   0  0  1  0  0  0  0  0  0  0  0  0
   21.0615   -8.7680  -15.3555 C   0  0  0  0  0  0  0  0  0  0  0  0
   21.6025   -7.4200  -14.2809 S   0  0  0  0  0  0  0  0  0  0  0  0
   19.2244   -7.4776  -16.2349 C   0  0  0  0  0  0  0  0  0  0  0  0
   19.5115   -7.2011  -17.4210 O   0  0  0  0  0  0  0  0  0  0  0  0
   15.2220   -3.3084  -13.5680 N   0  0  0  0  0  0  0  0  0  0  0  0
   15.5231   -2.7153  -14.8097 C   0  0  0  0  0  0  0  0  0  0  0  0
   14.9369   -1.6815  -15.1637 O   0  0  0  0  0  0  0  0  0  0  0  0
   16.5342   -3.3307  -15.6795 C   0  0  0  0  0  0  0  0  0  0  0  0
   17.1565   -4.5809  -15.1484 C   0  0  0  0  0  0  0  0  0  0  0  0
   18.2470   -5.1592  -16.0026 C   0  0  2  0  0  0  0  0  0  0  0  0
   18.5341   -6.4917  -15.4761 N   0  0  0  0  0  0  0  0  0  0  0  0
   19.4798   -4.3499  -15.8870 C   0  0  0  0  0  0  0  0  0  0  0  0
   20.3932   -4.7228  -15.1211 O   0  0  0  0  0  0  0  0  0  0  0  0
   19.6764   -3.1781  -16.5979 O   0  0  0  0  0  0  0  0  0  0  0  0
  2  3  1  6
  2  1  1  0
  4  2  1  0
  5  7  1  0
  5  4  1  0
  5  6  1  1
  7  8  2  0
  9 10  1  0
  9  7  1  0
 10 11  1  6
 11 12  1  0
 13 10  1  0
 14 13  2  0
 16 15  1  0
 16 17  2  0
 18 16  1  0
 19 18  1  0
 20 19  1  1
 20 21  1  0
 21 13  1  0
 22 20  1  0
 22 24  1  0
 23 22  2  0
M  END
$$$$
