LCQ.pdb
     RDKit          3D

 24 23  0  0  1  0  0  0  0  0999 V2000
   28.6678  -17.9901  -15.6010 C   0  0  0  0  0  0  0  0  0  0  0  0
   27.9882  -18.7868  -16.6632 C   0  0  2  0  0  0  0  0  0  0  0  0
   27.4777  -17.9421  -17.8104 C   0  0  0  0  0  0  0  0  0  0  0  0
   26.9166  -19.6865  -16.0935 C   0  0  0  0  0  0  0  0  0  0  0  0
   27.5465  -20.4563  -14.9456 C   0  0  2  0  0  0  0  0  0  0  0  0
   28.3021  -21.5421  -15.5345 N   0  0  0  0  0  0  0  0  0  0  0  0
   26.5623  -20.9919  -14.0117 C   0  0  0  0  0  0  0  0  0  0  0  0
   25.6245  -21.7160  -14.4350 O   0  0  0  0  0  0  0  0  0  0  0  0
   26.5663  -20.7603  -12.6062 N   0  0  0  0  0  0  0  0  0  0  0  0
   25.4601  -21.0775  -11.7269 C   0  0  1  0  0  0  0  0  0  0  0  0
   25.8434  -20.5493  -10.3455 C   0  0  0  0  0  0  0  0  0  0  0  0
   24.5797  -20.9324   -9.1122 S   0  0  0  0  0  0  0  0  0  0  0  0
   24.2148  -20.3884  -12.1162 C   0  0  0  0  0  0  0  0  0  0  0  0
   24.1573  -19.2505  -12.6336 O   0  0  0  0  0  0  0  0  0  0  0  0
   21.4804  -21.1003  -16.6201 N   0  0  0  0  0  0  0  0  0  0  0  0
   20.3214  -20.6647  -15.9484 C   0  0  0  0  0  0  0  0  0  0  0  0
   19.2757  -20.4584  -16.5821 O   0  0  0  0  0  0  0  0  0  0  0  0
   20.3623  -20.4569  -14.4948 C   0  0  0  0  0  0  0  0  0  0  0  0
   21.6657  -20.7816  -13.8407 C   0  0  0  0  0  0  0  0  0  0  0  0
   21.7051  -20.5546  -12.3574 C   0  0  2  0  0  0  0  0  0  0  0  0
   22.9880  -21.0709  -11.8851 N   0  0  0  0  0  0  0  0  0  0  0  0
   20.6324  -21.3217  -11.6874 C   0  0  0  0  0  0  0  0  0  0  0  0
   20.8172  -22.5246  -11.4062 O   0  0  0  0  0  0  0  0  0  0  0  0
   19.4110  -20.7638  -11.3497 O   0  0  0  0  0  0  0  0  0  0  0  0
  2  3  1  6
  2  1  1  0
  4  2  1  0
  5  7  1  0
  5  4  1  0
  5  6  1  6
  7  8  2  0
  9 10  1  0
  9  7  1  0
 10 11  1  1
 11 12  1  0
 13 10  1  0
 14 13  2  0
 16 15  1  0
 16 17  2  0
 18 16  1  0
 19 18  1  0
 20 19  1  6
 20 21  1  0
 21 13  1  0
 22 20  1  0
 22 24  1  0
 23 22  2  0
M  END
$$$$
