LCQ.pdb
     RDKit          3D

 24 23  0  0  1  0  0  0  0  0999 V2000
   11.1108  -12.9788  -12.4970 C   0  0  0  0  0  0  0  0  0  0  0  0
   11.7458  -13.7481  -11.3879 C   0  0  2  0  0  0  0  0  0  0  0  0
   10.8882  -13.8215  -10.1430 C   0  0  0  0  0  0  0  0  0  0  0  0
   13.1442  -13.2591  -11.0918 C   0  0  0  0  0  0  0  0  0  0  0  0
   13.9193  -13.3120  -12.3970 C   0  0  2  0  0  0  0  0  0  0  0  0
   14.3125  -14.6915  -12.5946 N   0  0  0  0  0  0  0  0  0  0  0  0
   15.1026  -12.4592  -12.3911 C   0  0  0  0  0  0  0  0  0  0  0  0
   16.0762  -12.7418  -11.6459 O   0  0  0  0  0  0  0  0  0  0  0  0
   15.2631  -11.2874  -13.1849 N   0  0  0  0  0  0  0  0  0  0  0  0
   16.3834  -10.3763  -13.0723 C   0  0  1  0  0  0  0  0  0  0  0  0
   17.1266  -10.4416  -14.4055 C   0  0  0  0  0  0  0  0  0  0  0  0
   18.5496   -9.3285  -14.4295 S   0  0  0  0  0  0  0  0  0  0  0  0
   15.9553   -8.9760  -12.8911 C   0  0  0  0  0  0  0  0  0  0  0  0
   15.1010   -8.3912  -13.5939 O   0  0  0  0  0  0  0  0  0  0  0  0
   15.6602   -6.4602   -7.2862 N   0  0  0  0  0  0  0  0  0  0  0  0
   15.4281   -5.3259   -8.0886 C   0  0  0  0  0  0  0  0  0  0  0  0
   15.0687   -4.2591   -7.5684 O   0  0  0  0  0  0  0  0  0  0  0  0
   15.6142   -5.4176   -9.5427 C   0  0  0  0  0  0  0  0  0  0  0  0
   15.9949   -6.7693  -10.0529 C   0  0  0  0  0  0  0  0  0  0  0  0
   16.1907   -6.8546  -11.5387 C   0  0  2  0  0  0  0  0  0  0  0  0
   16.5609   -8.2364  -11.8371 N   0  0  0  0  0  0  0  0  0  0  0  0
   17.3075   -5.9832  -11.9648 C   0  0  0  0  0  0  0  0  0  0  0  0
   18.4526   -6.4655  -12.0923 O   0  0  0  0  0  0  0  0  0  0  0  0
   17.1451   -4.6349  -12.2347 O   0  0  0  0  0  0  0  0  0  0  0  0
  2  3  1  1
  2  1  1  0
  4  2  1  0
  5  7  1  0
  5  4  1  0
  5  6  1  1
  7  8  2  0
  9 10  1  0
  9  7  1  0
 10 11  1  6
 11 12  1  0
 13 10  1  0
 14 13  2  0
 16 15  1  0
 16 17  2  0
 18 16  1  0
 19 18  1  0
 20 19  1  1
 20 21  1  0
 21 13  1  0
 22 20  1  0
 22 24  1  0
 23 22  2  0
M  END
$$$$
