CMQ.pdb
     RDKit          3D

 24 23  0  0  1  0  0  0  0  0999 V2000
   20.7375  -13.3608  -16.8801 N   0  0  0  0  0  0  0  0  0  0  0  0
   21.1585  -12.1553  -17.5610 C   0  0  1  0  0  0  0  0  0  0  0  0
   19.9598  -11.4657  -18.1729 C   0  0  0  0  0  0  0  0  0  0  0  0
   19.3419  -12.5733  -19.4918 S   0  0  0  0  0  0  0  0  0  0  0  0
   21.8740  -11.2883  -16.6026 C   0  0  0  0  0  0  0  0  0  0  0  0
   21.3864  -11.1036  -15.4623 O   0  0  0  0  0  0  0  0  0  0  0  0
   27.8613  -13.0981  -14.8249 C   0  0  0  0  0  0  0  0  0  0  0  0
   27.4677  -11.4588  -15.5473 S   0  0  0  0  0  0  0  0  0  0  0  0
   25.6781  -11.2561  -15.4402 C   0  0  0  0  0  0  0  0  0  0  0  0
   25.1900   -9.9765  -15.9993 C   0  0  0  0  0  0  0  0  0  0  0  0
   23.7346   -9.7003  -15.9395 C   0  0  2  0  0  0  0  0  0  0  0  0
   23.1011  -10.6400  -16.8986 N   0  0  0  0  0  0  0  0  0  0  0  0
   23.3011   -8.3339  -16.2076 C   0  0  0  0  0  0  0  0  0  0  0  0
   23.1280   -8.0067  -17.4260 O   0  0  0  0  0  0  0  0  0  0  0  0
   18.3739   -6.8909  -16.9844 N   0  0  0  0  0  0  0  0  0  0  0  0
   18.7536   -5.5474  -16.7439 C   0  0  0  0  0  0  0  0  0  0  0  0
   17.8304   -4.6806  -16.8518 O   0  0  0  0  0  0  0  0  0  0  0  0
   20.1245   -5.2226  -16.3906 C   0  0  0  0  0  0  0  0  0  0  0  0
   21.0788   -6.3108  -16.1509 C   0  0  0  0  0  0  0  0  0  0  0  0
   22.4429   -6.0215  -15.6535 C   0  0  2  0  0  0  0  0  0  0  0  0
   23.0504   -7.3344  -15.2633 N   0  0  0  0  0  0  0  0  0  0  0  0
   22.4558   -5.2329  -14.4202 C   0  0  0  0  0  0  0  0  0  0  0  0
   22.5752   -5.7615  -13.2581 O   0  0  0  0  0  0  0  0  0  0  0  0
   22.3408   -3.8567  -14.4123 O   0  0  0  0  0  0  0  0  0  0  0  0
  2  1  1  1
  3  2  1  0
  3  4  1  0
  5  6  2  0
  5  2  1  0
  7  8  1  0
  9  8  1  0
  9 10  1  0
 11 10  1  6
 11 13  1  0
 11 12  1  0
 12  5  1  0
 13 21  1  0
 14 13  2  0
 16 15  1  0
 16 17  2  0
 18 16  1  0
 20 19  1  1
 19 18  1  0
 20 22  1  0
 21 20  1  0
 22 23  2  0
 22 24  1  0
M  END
$$$$
