CMQ.pdb
     RDKit          3D

 24 23  0  0  1  0  0  0  0  0999 V2000
   14.6429  -11.8411  -10.2563 N   0  0  0  0  0  0  0  0  0  0  0  0
   15.8726  -11.0842  -10.3513 C   0  0  1  0  0  0  0  0  0  0  0  0
   16.6977  -11.5885  -11.5140 C   0  0  0  0  0  0  0  0  0  0  0  0
   18.2347  -10.5958  -11.5281 S   0  0  0  0  0  0  0  0  0  0  0  0
   15.5441   -9.6497  -10.4790 C   0  0  0  0  0  0  0  0  0  0  0  0
   14.6441   -9.2966  -11.2775 O   0  0  0  0  0  0  0  0  0  0  0  0
   13.5131   -3.2308   -6.9666 C   0  0  0  0  0  0  0  0  0  0  0  0
   13.9256   -5.0179   -6.9502 S   0  0  0  0  0  0  0  0  0  0  0  0
   14.7592   -5.3765   -8.5097 C   0  0  0  0  0  0  0  0  0  0  0  0
   15.1825   -6.7872   -8.6470 C   0  0  0  0  0  0  0  0  0  0  0  0
   15.8395   -7.1974   -9.9112 C   0  0  2  0  0  0  0  0  0  0  0  0
   16.1960   -8.6284   -9.7403 N   0  0  0  0  0  0  0  0  0  0  0  0
   17.0053   -6.4324  -10.3384 C   0  0  0  0  0  0  0  0  0  0  0  0
   18.1072   -6.6714   -9.7466 O   0  0  0  0  0  0  0  0  0  0  0  0
   21.5588   -6.3577  -11.4661 N   0  0  0  0  0  0  0  0  0  0  0  0
   21.5063   -5.6871  -12.7128 C   0  0  0  0  0  0  0  0  0  0  0  0
   22.6220   -5.3032  -13.1853 O   0  0  0  0  0  0  0  0  0  0  0  0
   20.2344   -5.4771  -13.3821 C   0  0  0  0  0  0  0  0  0  0  0  0
   18.9919   -5.8203  -12.6815 C   0  0  0  0  0  0  0  0  0  0  0  0
   18.3386   -4.8423  -11.7824 C   0  0  2  0  0  0  0  0  0  0  0  0
   17.0461   -5.4566  -11.3383 N   0  0  0  0  0  0  0  0  0  0  0  0
   17.9412   -3.6066  -12.4593 C   0  0  0  0  0  0  0  0  0  0  0  0
   16.8247   -3.4802  -13.0769 O   0  0  0  0  0  0  0  0  0  0  0  0
   18.7387   -2.4793  -12.4850 O   0  0  0  0  0  0  0  0  0  0  0  0
  2  1  1  6
  3  2  1  0
  3  4  1  0
  5  6  2  0
  5  2  1  0
  7  8  1  0
  9  8  1  0
  9 10  1  0
 11 10  1  1
 11 13  1  0
 11 12  1  0
 12  5  1  0
 13 21  1  0
 14 13  2  0
 16 15  1  0
 16 17  2  0
 18 16  1  0
 20 19  1  6
 19 18  1  0
 20 22  1  0
 21 20  1  0
 22 23  2  0
 22 24  1  0
M  END
$$$$
