CMQ.pdb
     RDKit          3D

 24 23  0  0  1  0  0  0  0  0999 V2000
   27.7558  -21.5923  -15.0185 N   0  0  0  0  0  0  0  0  0  0  0  0
   28.1242  -20.7252  -13.9201 C   0  0  1  0  0  0  0  0  0  0  0  0
   28.0416  -19.2797  -14.3568 C   0  0  0  0  0  0  0  0  0  0  0  0
   26.3123  -18.9950  -14.8824 S   0  0  0  0  0  0  0  0  0  0  0  0
   27.2465  -21.0124  -12.7672 C   0  0  0  0  0  0  0  0  0  0  0  0
   26.1604  -21.6092  -12.9584 O   0  0  0  0  0  0  0  0  0  0  0  0
   26.3815  -19.9614   -4.9393 C   0  0  0  0  0  0  0  0  0  0  0  0
   27.4826  -19.8410   -6.4012 S   0  0  0  0  0  0  0  0  0  0  0  0
   26.5264  -20.4037   -7.8240 C   0  0  0  0  0  0  0  0  0  0  0  0
   27.2769  -20.3644   -9.0981 C   0  0  0  0  0  0  0  0  0  0  0  0
   26.5835  -20.8136  -10.3291 C   0  0  2  0  0  0  0  0  0  0  0  0
   27.5627  -20.6480  -11.4327 N   0  0  0  0  0  0  0  0  0  0  0  0
   25.3252  -20.1579  -10.6657 C   0  0  0  0  0  0  0  0  0  0  0  0
   25.3932  -18.9855  -11.1579 O   0  0  0  0  0  0  0  0  0  0  0  0
   22.8799  -21.4837  -15.3081 N   0  0  0  0  0  0  0  0  0  0  0  0
   21.7692  -20.7382  -14.8417 C   0  0  0  0  0  0  0  0  0  0  0  0
   20.8236  -20.5693  -15.6739 O   0  0  0  0  0  0  0  0  0  0  0  0
   21.7481  -20.2213  -13.4844 C   0  0  0  0  0  0  0  0  0  0  0  0
   22.8716  -20.5169  -12.5884 C   0  0  0  0  0  0  0  0  0  0  0  0
   22.8516  -20.0632  -11.1793 C   0  0  2  0  0  0  0  0  0  0  0  0
   24.0391  -20.6820  -10.5070 N   0  0  0  0  0  0  0  0  0  0  0  0
   21.7025  -20.5653  -10.4241 C   0  0  0  0  0  0  0  0  0  0  0  0
   21.7789  -21.5646   -9.6243 O   0  0  0  0  0  0  0  0  0  0  0  0
   20.4453  -20.0007  -10.5139 O   0  0  0  0  0  0  0  0  0  0  0  0
  2  1  1  6
  3  2  1  0
  3  4  1  0
  5  6  2  0
  5  2  1  0
  7  8  1  0
  9  8  1  0
  9 10  1  0
 11 10  1  1
 11 13  1  0
 11 12  1  0
 12  5  1  0
 13 21  1  0
 14 13  2  0
 16 15  1  0
 16 17  2  0
 18 16  1  0
 20 19  1  6
 19 18  1  0
 20 22  1  0
 21 20  1  0
 22 23  2  0
 22 24  1  0
M  END
$$$$
