CMQ.pdb
     RDKit          3D

 24 23  0  0  1  0  0  0  0  0999 V2000
   29.4760  -22.0971  -17.0625 N   0  0  0  0  0  0  0  0  0  0  0  0
   29.4821  -23.3691  -16.3725 C   0  0  1  0  0  0  0  0  0  0  0  0
   28.1567  -24.0689  -16.5735 C   0  0  0  0  0  0  0  0  0  0  0  0
   26.9554  -23.2281  -15.4789 S   0  0  0  0  0  0  0  0  0  0  0  0
   30.6199  -24.1744  -16.8615 C   0  0  0  0  0  0  0  0  0  0  0  0
   30.9997  -24.0396  -18.0489 O   0  0  0  0  0  0  0  0  0  0  0  0
   35.0984  -23.4735  -12.3424 C   0  0  0  0  0  0  0  0  0  0  0  0
   34.9385  -25.0499  -13.2664 S   0  0  0  0  0  0  0  0  0  0  0  0
   33.8092  -24.7395  -14.6388 C   0  0  0  0  0  0  0  0  0  0  0  0
   33.4275  -25.9599  -15.3826 C   0  0  0  0  0  0  0  0  0  0  0  0
   32.5314  -25.8099  -16.5542 C   0  0  2  0  0  0  0  0  0  0  0  0
   31.3219  -25.1079  -16.0557 N   0  0  0  0  0  0  0  0  0  0  0  0
   32.1542  -27.0243  -17.2681 C   0  0  0  0  0  0  0  0  0  0  0  0
   31.6064  -27.9521  -16.5895 O   0  0  0  0  0  0  0  0  0  0  0  0
   28.1165  -26.7638  -18.0461 N   0  0  0  0  0  0  0  0  0  0  0  0
   28.9590  -27.8695  -18.3192 C   0  0  0  0  0  0  0  0  0  0  0  0
   29.3864  -28.5068  -17.3060 O   0  0  0  0  0  0  0  0  0  0  0  0
   29.2850  -28.2250  -19.6893 C   0  0  0  0  0  0  0  0  0  0  0  0
   30.6749  -28.1150  -20.1459 C   0  0  0  0  0  0  0  0  0  0  0  0
   31.7921  -28.5289  -19.2671 C   0  0  2  0  0  0  0  0  0  0  0  0
   32.3285  -27.2831  -18.6306 N   0  0  0  0  0  0  0  0  0  0  0  0
   32.9317  -29.0838  -19.9994 C   0  0  0  0  0  0  0  0  0  0  0  0
   33.0572  -30.3360  -20.2455 O   0  0  0  0  0  0  0  0  0  0  0  0
   33.9615  -28.3009  -20.4833 O   0  0  0  0  0  0  0  0  0  0  0  0
  2  1  1  6
  3  2  1  0
  3  4  1  0
  5  6  2  0
  5  2  1  0
  7  8  1  0
  9  8  1  0
  9 10  1  0
 11 10  1  1
 11 13  1  0
 11 12  1  0
 12  5  1  0
 13 21  1  0
 14 13  2  0
 16 15  1  0
 16 17  2  0
 18 16  1  0
 20 19  1  6
 19 18  1  0
 20 22  1  0
 21 20  1  0
 22 23  2  0
 22 24  1  0
M  END
$$$$
