CMQ.pdb
     RDKit          3D

 24 23  0  0  1  0  0  0  0  0999 V2000
   17.2606  -25.1060   -6.5642 N   0  0  0  0  0  0  0  0  0  0  0  0
   16.8793  -25.1286   -5.1684 C   0  0  1  0  0  0  0  0  0  0  0  0
   15.4051  -25.4421   -5.0437 C   0  0  0  0  0  0  0  0  0  0  0  0
   14.5088  -23.9334   -5.5615 S   0  0  0  0  0  0  0  0  0  0  0  0
   17.7224  -26.1110   -4.4568 C   0  0  0  0  0  0  0  0  0  0  0  0
   18.2383  -27.0551   -5.1009 O   0  0  0  0  0  0  0  0  0  0  0  0
   21.6005  -24.7692    0.4818 C   0  0  0  0  0  0  0  0  0  0  0  0
   20.8132  -26.2753    1.1716 S   0  0  0  0  0  0  0  0  0  0  0  0
   20.1675  -27.2151   -0.2266 C   0  0  0  0  0  0  0  0  0  0  0  0
   19.3148  -26.4184   -1.1358 C   0  0  0  0  0  0  0  0  0  0  0  0
   18.8569  -27.0524   -2.3953 C   0  0  2  0  0  0  0  0  0  0  0  0
   17.9891  -26.0507   -3.0644 N   0  0  0  0  0  0  0  0  0  0  0  0
   18.1644  -28.3313   -2.2876 C   0  0  0  0  0  0  0  0  0  0  0  0
   16.8954  -28.2995   -2.1875 O   0  0  0  0  0  0  0  0  0  0  0  0
   15.7102  -31.9210   -5.2014 N   0  0  0  0  0  0  0  0  0  0  0  0
   16.3886  -33.0267   -4.6321 C   0  0  0  0  0  0  0  0  0  0  0  0
   15.8530  -34.1641   -4.8187 O   0  0  0  0  0  0  0  0  0  0  0  0
   17.6235  -32.8307   -3.8929 C   0  0  0  0  0  0  0  0  0  0  0  0
   18.0934  -31.4653   -3.6336 C   0  0  0  0  0  0  0  0  0  0  0  0
   17.9145  -30.8469   -2.3003 C   0  0  2  0  0  0  0  0  0  0  0  0
   18.7476  -29.6016   -2.2840 N   0  0  0  0  0  0  0  0  0  0  0  0
   18.4514  -31.6590   -1.2070 C   0  0  0  0  0  0  0  0  0  0  0  0
   17.7203  -32.4309   -0.4903 O   0  0  0  0  0  0  0  0  0  0  0  0
   19.7888  -31.6573   -0.8624 O   0  0  0  0  0  0  0  0  0  0  0  0
  2  1  1  6
  3  2  1  0
  3  4  1  0
  5  6  2  0
  5  2  1  0
  7  8  1  0
  9  8  1  0
  9 10  1  0
 11 10  1  1
 11 13  1  0
 11 12  1  0
 12  5  1  0
 13 21  1  0
 14 13  2  0
 16 15  1  0
 16 17  2  0
 18 16  1  0
 20 19  1  6
 19 18  1  0
 20 22  1  0
 21 20  1  0
 22 23  2  0
 22 24  1  0
M  END
$$$$
