CMQ.pdb
     RDKit          3D

 24 23  0  0  1  0  0  0  0  0999 V2000
   21.4493  -22.4706  -15.6074 N   0  0  0  0  0  0  0  0  0  0  0  0
   21.9501  -21.8077  -16.7922 C   0  0  1  0  0  0  0  0  0  0  0  0
   20.9238  -21.8905  -17.8998 C   0  0  0  0  0  0  0  0  0  0  0  0
   21.0028  -23.5979  -18.5530 S   0  0  0  0  0  0  0  0  0  0  0  0
   22.2943  -20.4121  -16.4515 C   0  0  0  0  0  0  0  0  0  0  0  0
   21.5190  -19.7516  -15.7201 O   0  0  0  0  0  0  0  0  0  0  0  0
   26.6270  -14.7458  -14.6875 C   0  0  0  0  0  0  0  0  0  0  0  0
   26.1001  -16.5005  -14.7753 S   0  0  0  0  0  0  0  0  0  0  0  0
   25.8666  -16.8897  -16.5216 C   0  0  0  0  0  0  0  0  0  0  0  0
   25.2602  -18.2179  -16.7589 C   0  0  0  0  0  0  0  0  0  0  0  0
   23.8147  -18.3845  -16.4747 C   0  0  2  0  0  0  0  0  0  0  0  0
   23.4693  -19.7614  -16.9094 N   0  0  0  0  0  0  0  0  0  0  0  0
   22.8994  -17.4197  -17.0733 C   0  0  0  0  0  0  0  0  0  0  0  0
   22.5980  -17.5863  -18.2992 O   0  0  0  0  0  0  0  0  0  0  0  0
   17.9761  -14.7382  -14.4924 N   0  0  0  0  0  0  0  0  0  0  0  0
   18.0307  -14.0441  -15.7261 C   0  0  0  0  0  0  0  0  0  0  0  0
   17.0411  -13.2894  -15.9840 O   0  0  0  0  0  0  0  0  0  0  0  0
   19.1705  -14.2068  -16.6117 C   0  0  0  0  0  0  0  0  0  0  0  0
   20.2515  -15.1207  -16.2263 C   0  0  0  0  0  0  0  0  0  0  0  0
   21.3572  -15.4186  -17.1646 C   0  0  2  0  0  0  0  0  0  0  0  0
   22.3092  -16.3216  -16.4411 N   0  0  0  0  0  0  0  0  0  0  0  0
   22.1595  -14.2433  -17.5082 C   0  0  0  0  0  0  0  0  0  0  0  0
   23.2541  -13.9492  -16.9088 O   0  0  0  0  0  0  0  0  0  0  0  0
   21.7996  -13.3591  -18.5062 O   0  0  0  0  0  0  0  0  0  0  0  0
  2  1  1  1
  3  2  1  0
  3  4  1  0
  5  6  2  0
  5  2  1  0
  7  8  1  0
  9  8  1  0
  9 10  1  0
 11 10  1  6
 11 13  1  0
 11 12  1  0
 12  5  1  0
 13 21  1  0
 14 13  2  0
 16 15  1  0
 16 17  2  0
 18 16  1  0
 20 19  1  1
 19 18  1  0
 20 22  1  0
 21 20  1  0
 22 23  2  0
 22 24  1  0
M  END
$$$$
