CMQ.pdb
     RDKit          3D

 24 23  0  0  1  0  0  0  0  0999 V2000
   21.5163  -16.0876  -17.3625 N   0  0  0  0  0  0  0  0  0  0  0  0
   21.7302  -14.8505  -18.0820 C   0  0  1  0  0  0  0  0  0  0  0  0
   20.4781  -14.4758  -18.8430 C   0  0  0  0  0  0  0  0  0  0  0  0
   20.0598  -15.9147  -19.8931 S   0  0  0  0  0  0  0  0  0  0  0  0
   22.1370  -13.8025  -17.1236 C   0  0  0  0  0  0  0  0  0  0  0  0
   21.4390  -13.6039  -16.1011 O   0  0  0  0  0  0  0  0  0  0  0  0
   28.1144  -12.6541  -15.4081 C   0  0  0  0  0  0  0  0  0  0  0  0
   27.6120  -10.8991  -15.5860 S   0  0  0  0  0  0  0  0  0  0  0  0
   25.8106  -10.8587  -15.4922 C   0  0  0  0  0  0  0  0  0  0  0  0
   25.1484  -11.8836  -16.3285 C   0  0  0  0  0  0  0  0  0  0  0  0
   23.6684  -11.9619  -16.2926 C   0  0  2  0  0  0  0  0  0  0  0  0
   23.2898  -12.9924  -17.2921 N   0  0  0  0  0  0  0  0  0  0  0  0
   22.9269  -10.7289  -16.5307 C   0  0  0  0  0  0  0  0  0  0  0  0
   22.8729  -10.3044  -17.7299 O   0  0  0  0  0  0  0  0  0  0  0  0
   17.3705   -9.2574  -14.7184 N   0  0  0  0  0  0  0  0  0  0  0  0
   17.8009   -7.9746  -15.1381 C   0  0  0  0  0  0  0  0  0  0  0  0
   16.9166   -7.0617  -15.1323 O   0  0  0  0  0  0  0  0  0  0  0  0
   19.1805   -7.7555  -15.5364 C   0  0  0  0  0  0  0  0  0  0  0  0
   20.1302   -8.8718  -15.4707 C   0  0  0  0  0  0  0  0  0  0  0  0
   21.5196   -8.7090  -15.9554 C   0  0  2  0  0  0  0  0  0  0  0  0
   22.2605   -9.9550  -15.5763 N   0  0  0  0  0  0  0  0  0  0  0  0
   22.2474   -7.6327  -15.2810 C   0  0  0  0  0  0  0  0  0  0  0  0
   22.9179   -7.8155  -14.2035 O   0  0  0  0  0  0  0  0  0  0  0  0
   22.2688   -6.3352  -15.7536 O   0  0  0  0  0  0  0  0  0  0  0  0
  2  1  1  1
  3  2  1  0
  3  4  1  0
  5  6  2  0
  5  2  1  0
  7  8  1  0
  9  8  1  0
  9 10  1  0
 11 10  1  6
 11 13  1  0
 11 12  1  0
 12  5  1  0
 13 21  1  0
 14 13  2  0
 16 15  1  0
 16 17  2  0
 18 16  1  0
 20 19  1  1
 19 18  1  0
 20 22  1  0
 21 20  1  0
 22 23  2  0
 22 24  1  0
M  END
$$$$
