CMQ.pdb
     RDKit          3D

 24 23  0  0  1  0  0  0  0  0999 V2000
   18.2812  -13.4673  -17.1110 N   0  0  0  0  0  0  0  0  0  0  0  0
   18.8639  -12.4945  -18.0099 C   0  0  1  0  0  0  0  0  0  0  0  0
   17.7974  -11.5360  -18.4907 C   0  0  0  0  0  0  0  0  0  0  0  0
   16.7024  -12.4934  -19.6009 S   0  0  0  0  0  0  0  0  0  0  0  0
   19.9678  -11.8007  -17.3156 C   0  0  0  0  0  0  0  0  0  0  0  0
   19.8496  -11.5286  -16.0973 O   0  0  0  0  0  0  0  0  0  0  0  0
   26.6074  -10.6192  -14.7741 C   0  0  0  0  0  0  0  0  0  0  0  0
   24.9783  -11.2780  -15.2996 S   0  0  0  0  0  0  0  0  0  0  0  0
   24.7840  -10.8620  -17.0444 C   0  0  0  0  0  0  0  0  0  0  0  0
   23.5224  -11.3576  -17.6370 C   0  0  0  0  0  0  0  0  0  0  0  0
   22.2551  -10.7136  -17.2162 C   0  0  2  0  0  0  0  0  0  0  0  0
   21.1755  -11.4165  -17.9541 N   0  0  0  0  0  0  0  0  0  0  0  0
   22.1420   -9.2719  -17.4047 C   0  0  0  0  0  0  0  0  0  0  0  0
   22.2911   -8.8262  -18.5881 O   0  0  0  0  0  0  0  0  0  0  0  0
   17.8968   -6.4132  -18.8041 N   0  0  0  0  0  0  0  0  0  0  0  0
   17.9133   -6.5693  -17.3961 C   0  0  0  0  0  0  0  0  0  0  0  0
   16.7774   -6.6023  -16.8269 O   0  0  0  0  0  0  0  0  0  0  0  0
   19.1736   -6.6883  -16.6840 C   0  0  0  0  0  0  0  0  0  0  0  0
   20.4263   -6.7220  -17.4469 C   0  0  0  0  0  0  0  0  0  0  0  0
   21.7271   -6.8644  -16.7545 C   0  0  2  0  0  0  0  0  0  0  0  0
   21.8834   -8.3161  -16.4181 N   0  0  0  0  0  0  0  0  0  0  0  0
   21.7730   -6.1832  -15.4596 C   0  0  0  0  0  0  0  0  0  0  0  0
   21.7846   -4.9061  -15.3457 O   0  0  0  0  0  0  0  0  0  0  0  0
   21.8070   -6.8639  -14.2583 O   0  0  0  0  0  0  0  0  0  0  0  0
  2  1  1  1
  3  2  1  0
  3  4  1  0
  5  6  2  0
  5  2  1  0
  7  8  1  0
  9  8  1  0
  9 10  1  0
 11 10  1  6
 11 13  1  0
 11 12  1  0
 12  5  1  0
 13 21  1  0
 14 13  2  0
 16 15  1  0
 16 17  2  0
 18 16  1  0
 20 19  1  1
 19 18  1  0
 20 22  1  0
 21 20  1  0
 22 23  2  0
 22 24  1  0
M  END
$$$$
