CMQ.pdb
     RDKit          3D

 24 23  0  0  1  0  0  0  0  0999 V2000
   17.3334  -12.3211  -15.5274 N   0  0  0  0  0  0  0  0  0  0  0  0
   17.8525  -11.2297  -16.3231 C   0  0  1  0  0  0  0  0  0  0  0  0
   16.7416  -10.2556  -16.6460 C   0  0  0  0  0  0  0  0  0  0  0  0
   15.4156  -11.2290  -17.4473 S   0  0  0  0  0  0  0  0  0  0  0  0
   18.9636  -10.5884  -15.5907 C   0  0  0  0  0  0  0  0  0  0  0  0
   18.7978  -10.2604  -14.3918 O   0  0  0  0  0  0  0  0  0  0  0  0
   26.5892  -10.4660  -14.3054 C   0  0  0  0  0  0  0  0  0  0  0  0
   25.2054  -11.0535  -15.3561 S   0  0  0  0  0  0  0  0  0  0  0  0
   23.7894   -9.9949  -14.9961 C   0  0  0  0  0  0  0  0  0  0  0  0
   22.5421  -10.4213  -15.6675 C   0  0  0  0  0  0  0  0  0  0  0  0
   21.3079   -9.6437  -15.4030 C   0  0  2  0  0  0  0  0  0  0  0  0
   20.2296  -10.3159  -16.1709 N   0  0  0  0  0  0  0  0  0  0  0  0
   21.3359   -8.2184  -15.7105 C   0  0  0  0  0  0  0  0  0  0  0  0
   21.3028   -7.8874  -16.9396 O   0  0  0  0  0  0  0  0  0  0  0  0
   17.2275   -4.4408  -14.3801 N   0  0  0  0  0  0  0  0  0  0  0  0
   18.1807   -3.4822  -14.8038 C   0  0  0  0  0  0  0  0  0  0  0  0
   17.7686   -2.2821  -14.8754 O   0  0  0  0  0  0  0  0  0  0  0  0
   19.5393   -3.8864  -15.1208 C   0  0  0  0  0  0  0  0  0  0  0  0
   19.9092   -5.3018  -15.0100 C   0  0  0  0  0  0  0  0  0  0  0  0
   21.3067   -5.7357  -15.2349 C   0  0  2  0  0  0  0  0  0  0  0  0
   21.3940   -7.1649  -14.7937 N   0  0  0  0  0  0  0  0  0  0  0  0
   22.2753   -5.0338  -14.3910 C   0  0  0  0  0  0  0  0  0  0  0  0
   22.7679   -5.5465  -13.3239 O   0  0  0  0  0  0  0  0  0  0  0  0
   22.7347   -3.7636  -14.6789 O   0  0  0  0  0  0  0  0  0  0  0  0
  2  1  1  1
  3  2  1  0
  3  4  1  0
  5  6  2  0
  5  2  1  0
  7  8  1  0
  9  8  1  0
  9 10  1  0
 11 10  1  6
 11 13  1  0
 11 12  1  0
 12  5  1  0
 13 21  1  0
 14 13  2  0
 16 15  1  0
 16 17  2  0
 18 16  1  0
 20 19  1  1
 19 18  1  0
 20 22  1  0
 21 20  1  0
 22 23  2  0
 22 24  1  0
M  END
$$$$
