CMQ.pdb
     RDKit          3D

 24 23  0  0  1  0  0  0  0  0999 V2000
   27.8930  -22.2503  -16.1787 N   0  0  0  0  0  0  0  0  0  0  0  0
   27.6097  -21.0416  -15.4353 C   0  0  1  0  0  0  0  0  0  0  0  0
   26.9894  -20.0094  -16.3502 C   0  0  0  0  0  0  0  0  0  0  0  0
   28.3653  -19.2625  -17.2973 S   0  0  0  0  0  0  0  0  0  0  0  0
   26.7343  -21.3751  -14.2931 C   0  0  0  0  0  0  0  0  0  0  0  0
   25.8179  -22.2166  -14.4495 O   0  0  0  0  0  0  0  0  0  0  0  0
   25.4774  -20.2414   -6.5429 C   0  0  0  0  0  0  0  0  0  0  0  0
   26.6381  -20.1241   -7.9581 S   0  0  0  0  0  0  0  0  0  0  0  0
   25.7111  -20.5883   -9.4348 C   0  0  0  0  0  0  0  0  0  0  0  0
   26.5138  -20.5518  -10.6768 C   0  0  0  0  0  0  0  0  0  0  0  0
   25.8960  -21.0703  -11.9208 C   0  0  2  0  0  0  0  0  0  0  0  0
   26.8691  -20.7912  -13.0068 N   0  0  0  0  0  0  0  0  0  0  0  0
   24.5781  -20.5579  -12.2776 C   0  0  0  0  0  0  0  0  0  0  0  0
   24.5171  -19.3649  -12.7184 O   0  0  0  0  0  0  0  0  0  0  0  0
   17.7668  -22.5358  -14.5338 N   0  0  0  0  0  0  0  0  0  0  0  0
   19.1133  -22.7080  -14.1287 C   0  0  0  0  0  0  0  0  0  0  0  0
   19.5707  -23.8912  -14.2071 O   0  0  0  0  0  0  0  0  0  0  0  0
   19.8926  -21.5735  -13.6646 C   0  0  0  0  0  0  0  0  0  0  0  0
   21.2760  -21.7872  -13.2254 C   0  0  0  0  0  0  0  0  0  0  0  0
   22.0927  -20.6563  -12.7294 C   0  0  2  0  0  0  0  0  0  0  0  0
   23.3619  -21.2413  -12.1893 N   0  0  0  0  0  0  0  0  0  0  0  0
   21.4941  -19.9655  -11.5860 C   0  0  0  0  0  0  0  0  0  0  0  0
   21.8305  -20.2087  -10.3728 O   0  0  0  0  0  0  0  0  0  0  0  0
   20.5196  -18.9967  -11.7250 O   0  0  0  0  0  0  0  0  0  0  0  0
  2  1  1  6
  3  2  1  0
  3  4  1  0
  5  6  2  0
  5  2  1  0
  7  8  1  0
  9  8  1  0
  9 10  1  0
 11 10  1  1
 11 13  1  0
 11 12  1  0
 12  5  1  0
 13 21  1  0
 14 13  2  0
 16 15  1  0
 16 17  2  0
 18 16  1  0
 20 19  1  1
 19 18  1  0
 20 22  1  0
 21 20  1  0
 22 23  2  0
 22 24  1  0
M  END
$$$$
