CMQ.pdb
     RDKit          3D

 24 23  0  0  1  0  0  0  0  0999 V2000
   20.5130  -21.2937  -15.2413 N   0  0  0  0  0  0  0  0  0  0  0  0
   21.2139  -20.9519  -16.4602 C   0  0  1  0  0  0  0  0  0  0  0  0
   20.2649  -21.0226  -17.6356 C   0  0  0  0  0  0  0  0  0  0  0  0
   18.8299  -22.0148  -17.0841 S   0  0  0  0  0  0  0  0  0  0  0  0
   21.8163  -19.6118  -16.3074 C   0  0  0  0  0  0  0  0  0  0  0  0
   21.1682  -18.7127  -15.7208 O   0  0  0  0  0  0  0  0  0  0  0  0
   26.9499  -14.5263  -15.1315 C   0  0  0  0  0  0  0  0  0  0  0  0
   26.0786  -16.1330  -14.9784 S   0  0  0  0  0  0  0  0  0  0  0  0
   25.9567  -16.8224  -16.6413 C   0  0  0  0  0  0  0  0  0  0  0  0
   25.1329  -18.0488  -16.7178 C   0  0  0  0  0  0  0  0  0  0  0  0
   23.6596  -17.9042  -16.6388 C   0  0  2  0  0  0  0  0  0  0  0  0
   23.1063  -19.2733  -16.7921 N   0  0  0  0  0  0  0  0  0  0  0  0
   23.0249  -16.9926  -17.5838 C   0  0  0  0  0  0  0  0  0  0  0  0
   22.7275  -17.4579  -18.7312 O   0  0  0  0  0  0  0  0  0  0  0  0
   17.7185  -15.6402  -17.8995 N   0  0  0  0  0  0  0  0  0  0  0  0
   18.1332  -14.6386  -18.8115 C   0  0  0  0  0  0  0  0  0  0  0  0
   17.2081  -14.0708  -19.4726 O   0  0  0  0  0  0  0  0  0  0  0  0
   19.5404  -14.3051  -18.9478 C   0  0  0  0  0  0  0  0  0  0  0  0
   20.5373  -15.0962  -18.2180 C   0  0  0  0  0  0  0  0  0  0  0  0
   21.9838  -14.8376  -18.3983 C   0  0  2  0  0  0  0  0  0  0  0  0
   22.7024  -15.6503  -17.3647 N   0  0  0  0  0  0  0  0  0  0  0  0
   22.3673  -13.4554  -18.1063 C   0  0  0  0  0  0  0  0  0  0  0  0
   22.7787  -13.0768  -16.9524 O   0  0  0  0  0  0  0  0  0  0  0  0
   22.3162  -12.4503  -19.0523 O   0  0  0  0  0  0  0  0  0  0  0  0
  2  1  1  1
  3  2  1  0
  3  4  1  0
  5  6  2  0
  5  2  1  0
  7  8  1  0
  9  8  1  0
  9 10  1  0
 11 10  1  6
 11 13  1  0
 11 12  1  0
 12  5  1  0
 13 21  1  0
 14 13  2  0
 16 15  1  0
 16 17  2  0
 18 16  1  0
 20 19  1  1
 19 18  1  0
 20 22  1  0
 21 20  1  0
 22 23  2  0
 22 24  1  0
M  END
$$$$
