CMQ.pdb
     RDKit          3D

 24 23  0  0  1  0  0  0  0  0999 V2000
   27.0615  -19.5976   -9.7990 N   0  0  0  0  0  0  0  0  0  0  0  0
   26.0752  -20.3388  -10.5552 C   0  0  1  0  0  0  0  0  0  0  0  0
   24.8670  -20.6173   -9.6892 C   0  0  0  0  0  0  0  0  0  0  0  0
   25.4375  -21.7155   -8.3414 S   0  0  0  0  0  0  0  0  0  0  0  0
   25.7282  -19.5737  -11.7702 C   0  0  0  0  0  0  0  0  0  0  0  0
   25.2108  -18.4377  -11.6513 O   0  0  0  0  0  0  0  0  0  0  0  0
   29.3537  -17.7228  -16.6267 C   0  0  0  0  0  0  0  0  0  0  0  0
   28.1066  -18.7359  -17.5113 S   0  0  0  0  0  0  0  0  0  0  0  0
   26.5953  -18.6817  -16.5271 C   0  0  0  0  0  0  0  0  0  0  0  0
   26.7388  -19.2831  -15.1833 C   0  0  0  0  0  0  0  0  0  0  0  0
   25.5639  -19.2570  -14.2794 C   0  0  2  0  0  0  0  0  0  0  0  0
   25.9483  -20.0540  -13.0873 N   0  0  0  0  0  0  0  0  0  0  0  0
   24.2944  -19.7314  -14.8181 C   0  0  0  0  0  0  0  0  0  0  0  0
   24.1185  -20.9915  -14.8699 O   0  0  0  0  0  0  0  0  0  0  0  0
   21.1926  -22.7408  -14.3128 N   0  0  0  0  0  0  0  0  0  0  0  0
   19.9588  -22.0496  -14.3966 C   0  0  0  0  0  0  0  0  0  0  0  0
   18.9143  -22.7738  -14.3957 O   0  0  0  0  0  0  0  0  0  0  0  0
   19.9318  -20.5992  -14.4700 C   0  0  0  0  0  0  0  0  0  0  0  0
   21.1969  -19.8572  -14.4347 C   0  0  0  0  0  0  0  0  0  0  0  0
   21.9268  -19.5516  -15.6860 C   0  0  2  0  0  0  0  0  0  0  0  0
   23.2378  -18.9456  -15.2870 N   0  0  0  0  0  0  0  0  0  0  0  0
   21.2801  -18.5193  -16.4978 C   0  0  0  0  0  0  0  0  0  0  0  0
   20.1847  -18.7193  -17.1335 O   0  0  0  0  0  0  0  0  0  0  0  0
   21.8000  -17.2479  -16.6422 O   0  0  0  0  0  0  0  0  0  0  0  0
  2  1  1  1
  3  2  1  0
  3  4  1  0
  5  6  2  0
  5  2  1  0
  7  8  1  0
  9  8  1  0
  9 10  1  0
 11 10  1  6
 11 13  1  0
 11 12  1  0
 12  5  1  0
 13 21  1  0
 14 13  2  0
 16 15  1  0
 16 17  2  0
 18 16  1  0
 20 19  1  1
 19 18  1  0
 20 22  1  0
 21 20  1  0
 22 23  2  0
 22 24  1  0
M  END
$$$$
