SEQ.pdb
     RDKit          3D

 25 24  0  0  1  0  0  0  0  0999 V2000
    9.7712  -12.1384   18.2324 O   0  0  0  0  0  0  0  0  0  0  0  0
    9.2793  -12.7318   19.4110 C   0  0  0  0  0  0  0  0  0  0  0  0
    8.8569  -14.1446   19.0452 C   0  0  2  0  0  0  0  0  0  0  0  0
    7.7079  -14.1462   18.1694 N   0  0  0  0  0  0  0  0  0  0  0  0
    8.6600  -14.9225   20.2920 C   0  0  0  0  0  0  0  0  0  0  0  0
    7.5108  -14.9170   20.8470 O   0  0  0  0  0  0  0  0  0  0  0  0
    9.6793  -15.6809   20.9161 N   0  0  0  0  0  0  0  0  0  0  0  0
    9.3124  -16.4875   22.0940 C   0  0  1  0  0  0  0  0  0  0  0  0
   10.1756  -17.7491   21.9436 C   0  0  0  0  0  0  0  0  0  0  0  0
   11.6104  -17.2646   21.8504 C   0  0  0  0  0  0  0  0  0  0  0  0
   12.5616  -18.3802   21.5996 C   0  0  0  0  0  0  0  0  0  0  0  0
   13.4633  -18.3446   20.7267 O   0  0  0  0  0  0  0  0  0  0  0  0
    9.6218  -15.7935   23.3504 C   0  0  0  0  0  0  0  0  0  0  0  0
   10.6791  -15.1474   23.4734 O   0  0  0  0  0  0  0  0  0  0  0  0
   12.4214  -19.5117   22.3864 O   0  0  0  0  0  0  0  0  0  0  0  0
    5.2489  -12.5385   26.0180 N   0  0  0  0  0  0  0  0  0  0  0  0
    6.3964  -12.2460   26.8200 C   0  0  0  0  0  0  0  0  0  0  0  0
    6.4087  -11.2962   27.6018 O   0  0  0  0  0  0  0  0  0  0  0  0
    7.6132  -13.1105   26.7134 C   0  0  0  0  0  0  0  0  0  0  0  0
    7.4624  -14.1664   25.6579 C   0  0  0  0  0  0  0  0  0  0  0  0
    8.7755  -14.9743   25.5981 C   0  0  2  0  0  0  0  0  0  0  0  0
    8.6988  -15.8585   24.4267 N   0  0  0  0  0  0  0  0  0  0  0  0
    9.0085  -15.7148   26.8221 C   0  0  0  0  0  0  0  0  0  0  0  0
    9.7227  -15.0530   27.8562 O   0  0  0  0  0  0  0  0  0  0  0  0
    8.6570  -16.8840   27.0907 O   0  0  0  0  0  0  0  0  0  0  0  0
  1  2  1  0
  2  3  1  0
  3  5  1  0
  3  4  1  1
  5  6  2  0
  7  8  1  0
  7  5  1  0
  8  9  1  1
  9 10  1  0
 10 11  1  0
 11 12  2  0
 11 15  1  0
 13  8  1  0
 14 13  2  0
 16 17  1  0
 17 19  1  0
 18 17  2  0
 19 20  1  0
 21 20  1  1
 21 23  1  0
 21 22  1  0
 22 13  1  0
 23 24  1  0
 25 23  2  0
M  END
$$$$
