SEQ.pdb
     RDKit          3D

 25 24  0  0  1  0  0  0  0  0999 V2000
   10.9320  -13.7156   16.8448 O   0  0  0  0  0  0  0  0  0  0  0  0
   10.6712  -14.7768   15.9565 C   0  0  0  0  0  0  0  0  0  0  0  0
    9.3349  -15.3717   16.3671 C   0  0  2  0  0  0  0  0  0  0  0  0
    8.2503  -14.4418   16.1521 N   0  0  0  0  0  0  0  0  0  0  0  0
    9.4375  -15.8588   17.7637 C   0  0  0  0  0  0  0  0  0  0  0  0
    8.7495  -15.2810   18.6701 O   0  0  0  0  0  0  0  0  0  0  0  0
   10.2618  -16.9382   18.1626 N   0  0  0  0  0  0  0  0  0  0  0  0
   10.1938  -17.3714   19.5699 C   0  0  1  0  0  0  0  0  0  0  0  0
   10.9998  -18.6789   19.5784 C   0  0  0  0  0  0  0  0  0  0  0  0
   12.4083  -18.3039   19.1571 C   0  0  0  0  0  0  0  0  0  0  0  0
   13.3236  -19.4763   19.1618 C   0  0  0  0  0  0  0  0  0  0  0  0
   13.7871  -20.0029   18.1206 O   0  0  0  0  0  0  0  0  0  0  0  0
   10.7952  -16.3849   20.4759 C   0  0  0  0  0  0  0  0  0  0  0  0
   11.4378  -15.4188   20.0238 O   0  0  0  0  0  0  0  0  0  0  0  0
   13.6668  -19.9981   20.3983 O   0  0  0  0  0  0  0  0  0  0  0  0
    7.1566  -12.2651   20.1955 N   0  0  0  0  0  0  0  0  0  0  0  0
    7.2881  -13.5285   20.8529 C   0  0  0  0  0  0  0  0  0  0  0  0
    6.3835  -14.3619   20.8301 O   0  0  0  0  0  0  0  0  0  0  0  0
    8.5517  -13.8529   21.5860 C   0  0  0  0  0  0  0  0  0  0  0  0
    8.5675  -15.2695   22.0803 C   0  0  0  0  0  0  0  0  0  0  0  0
    9.9481  -15.5401   22.7138 C   0  0  2  0  0  0  0  0  0  0  0  0
   10.6316  -16.5369   21.8775 N   0  0  0  0  0  0  0  0  0  0  0  0
    9.8326  -15.9756   24.0914 C   0  0  0  0  0  0  0  0  0  0  0  0
    9.7317  -17.3729   24.3250 O   0  0  0  0  0  0  0  0  0  0  0  0
    9.8079  -15.2670   25.1210 O   0  0  0  0  0  0  0  0  0  0  0  0
  1  2  1  0
  2  3  1  0
  3  5  1  0
  3  4  1  1
  5  6  2  0
  7  8  1  0
  7  5  1  0
  8  9  1  6
  9 10  1  0
 10 11  1  0
 11 12  2  0
 11 15  1  0
 13  8  1  0
 14 13  2  0
 16 17  1  0
 17 19  1  0
 18 17  2  0
 19 20  1  0
 21 20  1  6
 21 23  1  0
 21 22  1  0
 22 13  1  0
 23 24  1  0
 25 23  2  0
M  END
$$$$
