SEQ.pdb
     RDKit          3D

 25 24  0  0  1  0  0  0  0  0999 V2000
   15.3955  -19.2439   20.0649 O   0  0  0  0  0  0  0  0  0  0  0  0
   14.7492  -18.3647   20.9551 C   0  0  0  0  0  0  0  0  0  0  0  0
   13.8838  -17.4455   20.1099 C   0  0  2  0  0  0  0  0  0  0  0  0
   14.6676  -16.4085   19.4792 N   0  0  0  0  0  0  0  0  0  0  0  0
   12.7737  -16.9308   20.9472 C   0  0  0  0  0  0  0  0  0  0  0  0
   12.8906  -15.7798   21.4862 O   0  0  0  0  0  0  0  0  0  0  0  0
   11.5759  -17.6442   21.1919 N   0  0  0  0  0  0  0  0  0  0  0  0
   10.6238  -17.0761   22.1633 C   0  0  1  0  0  0  0  0  0  0  0  0
    9.3188  -17.8288   21.8635 C   0  0  0  0  0  0  0  0  0  0  0  0
    8.9552  -17.4804   20.4322 C   0  0  0  0  0  0  0  0  0  0  0  0
    7.8291  -18.3087   19.9244 C   0  0  0  0  0  0  0  0  0  0  0  0
    7.2508  -19.1913   20.6048 O   0  0  0  0  0  0  0  0  0  0  0  0
   11.0509  -17.3091   23.5486 C   0  0  0  0  0  0  0  0  0  0  0  0
   11.7259  -18.3133   23.8429 O   0  0  0  0  0  0  0  0  0  0  0  0
    7.4158  -18.0739   18.6232 O   0  0  0  0  0  0  0  0  0  0  0  0
   10.0957  -13.0973   28.3431 N   0  0  0  0  0  0  0  0  0  0  0  0
   10.6461  -14.2510   28.9849 C   0  0  0  0  0  0  0  0  0  0  0  0
   10.8911  -14.2599   30.1905 O   0  0  0  0  0  0  0  0  0  0  0  0
   10.9320  -15.4795   28.1799 C   0  0  0  0  0  0  0  0  0  0  0  0
   10.6093  -15.2879   26.7271 C   0  0  0  0  0  0  0  0  0  0  0  0
   10.9734  -16.5880   25.9804 C   0  0  2  0  0  0  0  0  0  0  0  0
   10.6936  -16.3728   24.5537 N   0  0  0  0  0  0  0  0  0  0  0  0
   10.2548  -17.7311   26.5075 C   0  0  0  0  0  0  0  0  0  0  0  0
   10.9378  -18.5532   27.4429 O   0  0  0  0  0  0  0  0  0  0  0  0
    9.0895  -18.0957   26.2392 O   0  0  0  0  0  0  0  0  0  0  0  0
  1  2  1  0
  2  3  1  0
  3  5  1  0
  3  4  1  1
  5  6  2  0
  7  8  1  0
  7  5  1  0
  8  9  1  1
  9 10  1  0
 10 11  1  0
 11 12  2  0
 11 15  1  0
 13  8  1  0
 14 13  2  0
 16 17  1  0
 17 19  1  0
 18 17  2  0
 19 20  1  0
 21 20  1  1
 21 23  1  0
 21 22  1  0
 22 13  1  0
 23 24  1  0
 25 23  2  0
M  END
$$$$
