SEQ.pdb
     RDKit          3D

 25 24  0  0  1  0  0  0  0  0999 V2000
    7.2571  -18.5764   18.1902 O   0  0  0  0  0  0  0  0  0  0  0  0
    6.8006  -18.1722   19.4595 C   0  0  0  0  0  0  0  0  0  0  0  0
    7.6756  -17.0063   19.8875 C   0  0  2  0  0  0  0  0  0  0  0  0
    8.6555  -16.6782   18.8778 N   0  0  0  0  0  0  0  0  0  0  0  0
    8.2627  -17.3112   21.2144 C   0  0  0  0  0  0  0  0  0  0  0  0
    7.4913  -17.6924   22.1569 O   0  0  0  0  0  0  0  0  0  0  0  0
    9.6434  -17.2042   21.5078 N   0  0  0  0  0  0  0  0  0  0  0  0
   10.0822  -17.5296   22.8768 C   0  0  1  0  0  0  0  0  0  0  0  0
   11.4918  -18.1043   22.6709 C   0  0  0  0  0  0  0  0  0  0  0  0
   11.9801  -18.5159   24.0472 C   0  0  0  0  0  0  0  0  0  0  0  0
   13.3496  -19.0945   24.0041 C   0  0  0  0  0  0  0  0  0  0  0  0
   13.5873  -20.3267   24.0403 O   0  0  0  0  0  0  0  0  0  0  0  0
   10.1274  -16.3389   23.7347 C   0  0  0  0  0  0  0  0  0  0  0  0
   10.8560  -15.3731   23.4400 O   0  0  0  0  0  0  0  0  0  0  0  0
   14.4049  -18.2007   23.9212 O   0  0  0  0  0  0  0  0  0  0  0  0
    5.8911  -11.7091   27.0841 N   0  0  0  0  0  0  0  0  0  0  0  0
    6.5698  -12.3845   26.0216 C   0  0  0  0  0  0  0  0  0  0  0  0
    6.1658  -12.3252   24.8611 O   0  0  0  0  0  0  0  0  0  0  0  0
    7.8005  -13.1820   26.3189 C   0  0  0  0  0  0  0  0  0  0  0  0
    7.8810  -14.4251   25.4824 C   0  0  0  0  0  0  0  0  0  0  0  0
    9.2365  -15.1057   25.7657 C   0  0  2  0  0  0  0  0  0  0  0  0
    9.3246  -16.2933   24.9043 N   0  0  0  0  0  0  0  0  0  0  0  0
    9.3885  -15.4403   27.1678 C   0  0  0  0  0  0  0  0  0  0  0  0
    9.7096  -14.3808   28.0577 O   0  0  0  0  0  0  0  0  0  0  0  0
    9.2730  -16.5626   27.7061 O   0  0  0  0  0  0  0  0  0  0  0  0
  1  2  1  0
  2  3  1  0
  3  5  1  0
  3  4  1  6
  5  6  2  0
  7  8  1  0
  7  5  1  0
  8  9  1  6
  9 10  1  0
 10 11  1  0
 11 12  2  0
 11 15  1  0
 13  8  1  0
 14 13  2  0
 16 17  1  0
 17 19  1  0
 18 17  2  0
 19 20  1  0
 21 20  1  1
 21 23  1  0
 21 22  1  0
 22 13  1  0
 23 24  1  0
 25 23  2  0
M  END
$$$$
