SEQ.pdb
     RDKit          3D

 25 24  0  0  1  0  0  0  0  0999 V2000
    8.0812  -12.1394   18.6535 O   0  0  0  0  0  0  0  0  0  0  0  0
    8.2124  -12.9295   19.8118 C   0  0  0  0  0  0  0  0  0  0  0  0
    8.1181  -14.3785   19.3652 C   0  0  2  0  0  0  0  0  0  0  0  0
    6.7985  -14.6979   18.8712 N   0  0  0  0  0  0  0  0  0  0  0  0
    8.5686  -15.2513   20.4759 C   0  0  0  0  0  0  0  0  0  0  0  0
    7.7028  -15.6927   21.3031 O   0  0  0  0  0  0  0  0  0  0  0  0
    9.9166  -15.6312   20.6816 N   0  0  0  0  0  0  0  0  0  0  0  0
   10.2086  -16.5538   21.7934 C   0  0  1  0  0  0  0  0  0  0  0  0
   10.9119  -17.7316   21.1024 C   0  0  0  0  0  0  0  0  0  0  0  0
   12.3753  -17.6296   21.4897 C   0  0  0  0  0  0  0  0  0  0  0  0
   13.1902  -18.7173   20.8856 C   0  0  0  0  0  0  0  0  0  0  0  0
   13.7549  -19.6182   21.5531 O   0  0  0  0  0  0  0  0  0  0  0  0
   11.0877  -15.9407   22.7970 C   0  0  0  0  0  0  0  0  0  0  0  0
   12.1141  -15.3271   22.4496 O   0  0  0  0  0  0  0  0  0  0  0  0
   13.3187  -18.7114   19.5062 O   0  0  0  0  0  0  0  0  0  0  0  0
    9.5188  -15.3301   29.0107 N   0  0  0  0  0  0  0  0  0  0  0  0
   10.8386  -14.7864   28.9206 C   0  0  0  0  0  0  0  0  0  0  0  0
   11.4100  -14.3203   29.9054 O   0  0  0  0  0  0  0  0  0  0  0  0
   11.5482  -14.7815   27.6032 C   0  0  0  0  0  0  0  0  0  0  0  0
   10.7251  -15.4117   26.5184 C   0  0  0  0  0  0  0  0  0  0  0  0
   11.5890  -15.4826   25.2420 C   0  0  2  0  0  0  0  0  0  0  0  0
   10.7536  -16.0464   24.1723 N   0  0  0  0  0  0  0  0  0  0  0  0
   12.7968  -16.2560   25.4514 C   0  0  0  0  0  0  0  0  0  0  0  0
   13.9687  -15.5437   25.8210 O   0  0  0  0  0  0  0  0  0  0  0  0
   12.9445  -17.4928   25.3453 O   0  0  0  0  0  0  0  0  0  0  0  0
  1  2  1  0
  2  3  1  0
  3  5  1  0
  3  4  1  1
  5  6  2  0
  7  8  1  0
  7  5  1  0
  8  9  1  6
  9 10  1  0
 10 11  1  0
 11 12  2  0
 11 15  1  0
 13  8  1  0
 14 13  2  0
 16 17  1  0
 17 19  1  0
 18 17  2  0
 19 20  1  0
 21 20  1  1
 21 23  1  0
 21 22  1  0
 22 13  1  0
 23 24  1  0
 25 23  2  0
M  END
$$$$
