SEQ.pdb
     RDKit          3D

 25 24  0  0  1  0  0  0  0  0999 V2000
   10.3957  -12.6839   19.3824 O   0  0  0  0  0  0  0  0  0  0  0  0
    9.9195  -13.5240   18.3574 C   0  0  0  0  0  0  0  0  0  0  0  0
    8.4832  -13.8718   18.7098 C   0  0  2  0  0  0  0  0  0  0  0  0
    7.6383  -12.6998   18.7156 N   0  0  0  0  0  0  0  0  0  0  0  0
    8.4731  -14.6230   19.9880 C   0  0  0  0  0  0  0  0  0  0  0  0
    7.8830  -14.1130   20.9982 O   0  0  0  0  0  0  0  0  0  0  0  0
    9.0855  -15.8872   20.1632 N   0  0  0  0  0  0  0  0  0  0  0  0
    8.8098  -16.6170   21.4138 C   0  0  1  0  0  0  0  0  0  0  0  0
    9.5859  -17.9307   21.2369 C   0  0  0  0  0  0  0  0  0  0  0  0
    9.2856  -18.7623   22.4700 C   0  0  0  0  0  0  0  0  0  0  0  0
   10.0256  -20.0525   22.4675 C   0  0  0  0  0  0  0  0  0  0  0  0
    9.4877  -21.1641   22.2412 O   0  0  0  0  0  0  0  0  0  0  0  0
    9.2904  -15.8848   22.5922 C   0  0  0  0  0  0  0  0  0  0  0  0
   10.4225  -15.3663   22.5974 O   0  0  0  0  0  0  0  0  0  0  0  0
   11.3837  -19.9962   22.7347 O   0  0  0  0  0  0  0  0  0  0  0  0
    5.2926  -12.5732   26.0279 N   0  0  0  0  0  0  0  0  0  0  0  0
    6.5288  -12.3727   26.7187 C   0  0  0  0  0  0  0  0  0  0  0  0
    6.6347  -11.5393   27.6175 O   0  0  0  0  0  0  0  0  0  0  0  0
    7.7248  -13.1918   26.3476 C   0  0  0  0  0  0  0  0  0  0  0  0
    7.4322  -14.1351   25.2181 C   0  0  0  0  0  0  0  0  0  0  0  0
    8.7429  -14.8604   24.8484 C   0  0  2  0  0  0  0  0  0  0  0  0
    8.4480  -15.7650   23.7282 N   0  0  0  0  0  0  0  0  0  0  0  0
    9.3058  -15.5667   25.9820 C   0  0  0  0  0  0  0  0  0  0  0  0
    9.0528  -16.9616   26.0695 O   0  0  0  0  0  0  0  0  0  0  0  0
    9.9973  -15.0982   26.9121 O   0  0  0  0  0  0  0  0  0  0  0  0
  1  2  1  0
  2  3  1  0
  3  5  1  0
  3  4  1  1
  5  6  2  0
  7  8  1  0
  7  5  1  0
  8  9  1  6
  9 10  1  0
 10 11  1  0
 11 12  2  0
 11 15  1  0
 13  8  1  0
 14 13  2  0
 16 17  1  0
 17 19  1  0
 18 17  2  0
 19 20  1  0
 21 20  1  1
 21 23  1  0
 21 22  1  0
 22 13  1  0
 23 24  1  0
 25 23  2  0
M  END
$$$$
