SEQ.pdb
     RDKit          3D

 25 24  0  0  1  0  0  0  0  0999 V2000
    9.4688  -15.8310   23.7304 O   0  0  0  0  0  0  0  0  0  0  0  0
    9.8127  -15.0937   22.5809 C   0  0  0  0  0  0  0  0  0  0  0  0
   10.3099  -16.0951   21.5522 C   0  0  2  0  0  0  0  0  0  0  0  0
    9.3298  -17.1251   21.2957 N   0  0  0  0  0  0  0  0  0  0  0  0
   11.6262  -16.6177   21.9912 C   0  0  0  0  0  0  0  0  0  0  0  0
   11.6806  -17.7689   22.5394 O   0  0  0  0  0  0  0  0  0  0  0  0
   12.8437  -15.9115   21.8406 N   0  0  0  0  0  0  0  0  0  0  0  0
   14.0813  -16.5707   22.2949 C   0  0  1  0  0  0  0  0  0  0  0  0
   15.1794  -15.5673   21.9120 C   0  0  0  0  0  0  0  0  0  0  0  0
   16.4905  -16.1995   22.3406 C   0  0  0  0  0  0  0  0  0  0  0  0
   17.6605  -15.3496   21.9928 C   0  0  0  0  0  0  0  0  0  0  0  0
   18.1162  -14.4507   22.7415 O   0  0  0  0  0  0  0  0  0  0  0  0
   14.0757  -16.8062   23.7442 C   0  0  0  0  0  0  0  0  0  0  0  0
   13.6676  -15.9280   24.5270 O   0  0  0  0  0  0  0  0  0  0  0  0
   18.2616  -15.5827   20.7667 O   0  0  0  0  0  0  0  0  0  0  0  0
   11.8065  -21.1518   28.8537 N   0  0  0  0  0  0  0  0  0  0  0  0
   11.8736  -20.4583   27.6046 C   0  0  0  0  0  0  0  0  0  0  0  0
   11.0068  -20.6008   26.7433 O   0  0  0  0  0  0  0  0  0  0  0  0
   13.0194  -19.5354   27.3316 C   0  0  0  0  0  0  0  0  0  0  0  0
   13.1489  -19.2161   25.8712 C   0  0  0  0  0  0  0  0  0  0  0  0
   14.4522  -18.4150   25.6702 C   0  0  2  0  0  0  0  0  0  0  0  0
   14.5339  -18.0513   24.2485 N   0  0  0  0  0  0  0  0  0  0  0  0
   15.6157  -19.1610   26.1067 C   0  0  0  0  0  0  0  0  0  0  0  0
   15.9730  -19.0641   27.4780 O   0  0  0  0  0  0  0  0  0  0  0  0
   16.3614  -19.8919   25.4193 O   0  0  0  0  0  0  0  0  0  0  0  0
  1  2  1  0
  2  3  1  0
  3  5  1  0
  3  4  1  1
  5  6  2  0
  7  8  1  0
  7  5  1  0
  8  9  1  1
  9 10  1  0
 10 11  1  0
 11 12  2  0
 11 15  1  0
 13  8  1  0
 14 13  2  0
 16 17  1  0
 17 19  1  0
 18 17  2  0
 19 20  1  0
 21 20  1  6
 21 23  1  0
 21 22  1  0
 22 13  1  0
 23 24  1  0
 25 23  2  0
M  END
$$$$
