SEQ.pdb
     RDKit          3D

 25 24  0  0  1  0  0  0  0  0999 V2000
   -0.3274  -19.9538   23.2279 O   0  0  0  0  0  0  0  0  0  0  0  0
    0.4920  -18.9880   22.6122 C   0  0  0  0  0  0  0  0  0  0  0  0
    1.2084  -19.6875   21.4695 C   0  0  2  0  0  0  0  0  0  0  0  0
    0.6026  -20.9628   21.1633 N   0  0  0  0  0  0  0  0  0  0  0  0
    2.6530  -19.7733   21.7923 C   0  0  0  0  0  0  0  0  0  0  0  0
    3.1281  -20.8848   22.2016 O   0  0  0  0  0  0  0  0  0  0  0  0
    3.5518  -18.6862   21.6751 N   0  0  0  0  0  0  0  0  0  0  0  0
    4.9750  -18.9367   21.9659 C   0  0  1  0  0  0  0  0  0  0  0  0
    5.7050  -18.1797   20.8462 C   0  0  0  0  0  0  0  0  0  0  0  0
    7.1867  -18.3778   21.1056 C   0  0  0  0  0  0  0  0  0  0  0  0
    8.0267  -17.7697   20.0393 C   0  0  0  0  0  0  0  0  0  0  0  0
    9.2543  -17.9958   19.9050 O   0  0  0  0  0  0  0  0  0  0  0  0
    5.3642  -18.4173   23.2829 C   0  0  0  0  0  0  0  0  0  0  0  0
    4.9501  -17.3103   23.6749 O   0  0  0  0  0  0  0  0  0  0  0  0
    7.3939  -16.9074   19.1589 O   0  0  0  0  0  0  0  0  0  0  0  0
    8.7251  -21.8169   27.6152 N   0  0  0  0  0  0  0  0  0  0  0  0
    8.4322  -20.5808   28.2724 C   0  0  0  0  0  0  0  0  0  0  0  0
    8.7752  -20.3746   29.4357 O   0  0  0  0  0  0  0  0  0  0  0  0
    7.6938  -19.5081   27.5353 C   0  0  0  0  0  0  0  0  0  0  0  0
    7.2904  -19.9471   26.1584 C   0  0  0  0  0  0  0  0  0  0  0  0
    6.6866  -18.7307   25.4259 C   0  0  2  0  0  0  0  0  0  0  0  0
    6.2141  -19.1935   24.1134 N   0  0  0  0  0  0  0  0  0  0  0  0
    7.6402  -17.6456   25.3072 C   0  0  0  0  0  0  0  0  0  0  0  0
    7.6630  -16.6832   26.3515 O   0  0  0  0  0  0  0  0  0  0  0  0
    8.4604  -17.4418   24.3860 O   0  0  0  0  0  0  0  0  0  0  0  0
  1  2  1  0
  2  3  1  0
  3  5  1  0
  3  4  1  1
  5  6  2  0
  7  8  1  0
  7  5  1  0
  8  9  1  6
  9 10  1  0
 10 11  1  0
 11 12  2  0
 11 15  1  0
 13  8  1  0
 14 13  2  0
 16 17  1  0
 17 19  1  0
 18 17  2  0
 19 20  1  0
 21 20  1  6
 21 23  1  0
 21 22  1  0
 22 13  1  0
 23 24  1  0
 25 23  2  0
M  END
$$$$
