SEQ.pdb
     RDKit          3D

 25 24  0  0  1  0  0  0  0  0999 V2000
    9.8421  -12.6632   19.5998 O   0  0  0  0  0  0  0  0  0  0  0  0
    9.4669  -13.6787   18.6992 C   0  0  0  0  0  0  0  0  0  0  0  0
    8.0252  -14.0355   19.0191 C   0  0  2  0  0  0  0  0  0  0  0  0
    7.1991  -12.8560   19.1367 N   0  0  0  0  0  0  0  0  0  0  0  0
    8.0030  -14.9037   20.2207 C   0  0  0  0  0  0  0  0  0  0  0  0
    7.3799  -14.5024   21.2597 O   0  0  0  0  0  0  0  0  0  0  0  0
    8.6383  -16.1667   20.2914 N   0  0  0  0  0  0  0  0  0  0  0  0
    8.5373  -16.9170   21.5561 C   0  0  1  0  0  0  0  0  0  0  0  0
    9.3917  -18.1669   21.2968 C   0  0  0  0  0  0  0  0  0  0  0  0
    9.0608  -18.6134   19.8850 C   0  0  0  0  0  0  0  0  0  0  0  0
    9.8648  -19.7937   19.4695 C   0  0  0  0  0  0  0  0  0  0  0  0
   10.5389  -19.8405   18.4113 O   0  0  0  0  0  0  0  0  0  0  0  0
    9.0684  -16.1513   22.6907 C   0  0  0  0  0  0  0  0  0  0  0  0
   10.0331  -15.3790   22.5376 O   0  0  0  0  0  0  0  0  0  0  0  0
    9.8502  -20.8908   20.3153 O   0  0  0  0  0  0  0  0  0  0  0  0
    5.5635  -12.7856   26.1357 N   0  0  0  0  0  0  0  0  0  0  0  0
    6.7453  -12.7811   26.9414 C   0  0  0  0  0  0  0  0  0  0  0  0
    6.8716  -12.0108   27.8922 O   0  0  0  0  0  0  0  0  0  0  0  0
    7.8572  -13.7324   26.6288 C   0  0  0  0  0  0  0  0  0  0  0  0
    7.5417  -14.5969   25.4436 C   0  0  0  0  0  0  0  0  0  0  0  0
    8.7989  -15.4256   25.1073 C   0  0  2  0  0  0  0  0  0  0  0  0
    8.4664  -16.2928   23.9682 N   0  0  0  0  0  0  0  0  0  0  0  0
    9.2642  -16.1861   26.2501 C   0  0  0  0  0  0  0  0  0  0  0  0
    8.8589  -17.5448   26.3353 O   0  0  0  0  0  0  0  0  0  0  0  0
    9.9888  -15.7935   27.1901 O   0  0  0  0  0  0  0  0  0  0  0  0
  1  2  1  0
  2  3  1  0
  3  5  1  0
  3  4  1  1
  5  6  2  0
  7  8  1  0
  7  5  1  0
  8  9  1  6
  9 10  1  0
 10 11  1  0
 11 12  2  0
 11 15  1  0
 13  8  1  0
 14 13  2  0
 16 17  1  0
 17 19  1  0
 18 17  2  0
 19 20  1  0
 21 20  1  1
 21 23  1  0
 21 22  1  0
 22 13  1  0
 23 24  1  0
 25 23  2  0
M  END
$$$$
