SEQ.pdb
     RDKit          3D

 25 24  0  0  1  0  0  0  0  0999 V2000
    9.9771  -17.5788   19.6414 O   0  0  0  0  0  0  0  0  0  0  0  0
    9.3414  -18.8175   19.4300 C   0  0  0  0  0  0  0  0  0  0  0  0
    7.8535  -18.5846   19.6303 C   0  0  2  0  0  0  0  0  0  0  0  0
    7.3832  -17.4570   18.8591 N   0  0  0  0  0  0  0  0  0  0  0  0
    7.5787  -18.4724   21.0830 C   0  0  0  0  0  0  0  0  0  0  0  0
    7.3824  -17.3158   21.5856 O   0  0  0  0  0  0  0  0  0  0  0  0
    7.5201  -19.5810   21.9611 N   0  0  0  0  0  0  0  0  0  0  0  0
    7.2554  -19.3153   23.3866 C   0  0  1  0  0  0  0  0  0  0  0  0
    7.0850  -20.7201   23.9842 C   0  0  0  0  0  0  0  0  0  0  0  0
    5.7482  -20.7092   24.7017 C   0  0  0  0  0  0  0  0  0  0  0  0
    5.5110  -21.9665   25.4601 C   0  0  0  0  0  0  0  0  0  0  0  0
    5.1444  -21.9980   26.6605 O   0  0  0  0  0  0  0  0  0  0  0  0
    8.3719  -18.6102   24.0285 C   0  0  0  0  0  0  0  0  0  0  0  0
    9.5437  -18.8081   23.6566 O   0  0  0  0  0  0  0  0  0  0  0  0
    5.7152  -23.1561   24.7802 O   0  0  0  0  0  0  0  0  0  0  0  0
    7.8224  -13.1986   27.3591 N   0  0  0  0  0  0  0  0  0  0  0  0
    9.0824  -13.7212   27.7893 C   0  0  0  0  0  0  0  0  0  0  0  0
    9.7644  -13.1408   28.6328 O   0  0  0  0  0  0  0  0  0  0  0  0
    9.5893  -15.0029   27.2068 C   0  0  0  0  0  0  0  0  0  0  0  0
    8.5826  -15.6449   26.2981 C   0  0  0  0  0  0  0  0  0  0  0  0
    9.1647  -16.9886   25.8122 C   0  0  2  0  0  0  0  0  0  0  0  0
    8.1040  -17.6908   25.0761 N   0  0  0  0  0  0  0  0  0  0  0  0
    9.6785  -17.7818   26.9112 C   0  0  0  0  0  0  0  0  0  0  0  0
    8.7987  -18.7330   27.4931 O   0  0  0  0  0  0  0  0  0  0  0  0
   10.8173  -17.7355   27.4248 O   0  0  0  0  0  0  0  0  0  0  0  0
  1  2  1  0
  2  3  1  0
  3  5  1  0
  3  4  1  6
  5  6  2  0
  7  8  1  0
  7  5  1  0
  8  9  1  1
  9 10  1  0
 10 11  1  0
 11 12  2  0
 11 15  1  0
 13  8  1  0
 14 13  2  0
 16 17  1  0
 17 19  1  0
 18 17  2  0
 19 20  1  0
 21 20  1  1
 21 23  1  0
 21 22  1  0
 22 13  1  0
 23 24  1  0
 25 23  2  0
M  END
$$$$
