SEQ.pdb
     RDKit          3D

 25 24  0  0  1  0  0  0  0  0999 V2000
   10.5319  -12.7055   19.6200 O   0  0  0  0  0  0  0  0  0  0  0  0
   10.0423  -13.7457   18.8067 C   0  0  0  0  0  0  0  0  0  0  0  0
    8.5637  -13.8897   19.1246 C   0  0  2  0  0  0  0  0  0  0  0  0
    7.8747  -12.6229   19.0354 N   0  0  0  0  0  0  0  0  0  0  0  0
    8.4206  -14.5572   20.4408 C   0  0  0  0  0  0  0  0  0  0  0  0
    7.8415  -13.9307   21.3900 O   0  0  0  0  0  0  0  0  0  0  0  0
    8.8926  -15.8628   20.7169 N   0  0  0  0  0  0  0  0  0  0  0  0
    8.6133  -16.4271   22.0497 C   0  0  1  0  0  0  0  0  0  0  0  0
    9.1766  -17.8531   21.9569 C   0  0  0  0  0  0  0  0  0  0  0  0
    8.3897  -18.5421   20.8578 C   0  0  0  0  0  0  0  0  0  0  0  0
    8.8401  -19.9432   20.6425 C   0  0  0  0  0  0  0  0  0  0  0  0
    8.3762  -20.9284   21.2674 O   0  0  0  0  0  0  0  0  0  0  0  0
    9.2844  -15.6721   23.1153 C   0  0  0  0  0  0  0  0  0  0  0  0
   10.4247  -15.2041   22.9383 O   0  0  0  0  0  0  0  0  0  0  0  0
    9.8299  -20.1443   19.6944 O   0  0  0  0  0  0  0  0  0  0  0  0
    6.6500  -11.5626   26.6730 N   0  0  0  0  0  0  0  0  0  0  0  0
    6.1087  -12.8818   26.5608 C   0  0  0  0  0  0  0  0  0  0  0  0
    4.9245  -13.1129   26.8010 O   0  0  0  0  0  0  0  0  0  0  0  0
    6.9953  -14.0118   26.1412 C   0  0  0  0  0  0  0  0  0  0  0  0
    8.3845  -13.5466   25.8171 C   0  0  0  0  0  0  0  0  0  0  0  0
    9.2417  -14.7880   25.4935 C   0  0  2  0  0  0  0  0  0  0  0  0
    8.6177  -15.4721   24.3522 N   0  0  0  0  0  0  0  0  0  0  0  0
    9.3780  -15.6625   26.6414 C   0  0  0  0  0  0  0  0  0  0  0  0
   10.1300  -15.1756   27.7436 O   0  0  0  0  0  0  0  0  0  0  0  0
    8.9120  -16.8129   26.7897 O   0  0  0  0  0  0  0  0  0  0  0  0
  1  2  1  0
  2  3  1  0
  3  5  1  0
  3  4  1  1
  5  6  2  0
  7  8  1  0
  7  5  1  0
  8  9  1  6
  9 10  1  0
 10 11  1  0
 11 12  2  0
 11 15  1  0
 13  8  1  0
 14 13  2  0
 16 17  1  0
 17 19  1  0
 18 17  2  0
 19 20  1  0
 21 20  1  1
 21 23  1  0
 21 22  1  0
 22 13  1  0
 23 24  1  0
 25 23  2  0
M  END
$$$$
