SEQ.pdb
     RDKit          3D

 25 24  0  0  1  0  0  0  0  0999 V2000
    8.4825  -16.4555   20.5722 O   0  0  0  0  0  0  0  0  0  0  0  0
    9.1831  -16.6882   19.3729 C   0  0  0  0  0  0  0  0  0  0  0  0
    9.7093  -18.1117   19.4437 C   0  0  2  0  0  0  0  0  0  0  0  0
    8.7014  -19.0278   19.9257 N   0  0  0  0  0  0  0  0  0  0  0  0
   10.9576  -18.1206   20.2435 C   0  0  0  0  0  0  0  0  0  0  0  0
   10.9239  -18.5801   21.4337 O   0  0  0  0  0  0  0  0  0  0  0  0
   12.2022  -17.6446   19.7658 N   0  0  0  0  0  0  0  0  0  0  0  0
   13.3748  -17.7808   20.6485 C   0  0  1  0  0  0  0  0  0  0  0  0
   14.5613  -17.5446   19.7020 C   0  0  0  0  0  0  0  0  0  0  0  0
   15.8055  -17.8939   20.4971 C   0  0  0  0  0  0  0  0  0  0  0  0
   17.0504  -17.6620   19.7169 C   0  0  0  0  0  0  0  0  0  0  0  0
   17.9621  -16.8772   20.0760 O   0  0  0  0  0  0  0  0  0  0  0  0
   13.3658  -16.7855   21.7280 C   0  0  0  0  0  0  0  0  0  0  0  0
   13.1753  -15.5808   21.4772 O   0  0  0  0  0  0  0  0  0  0  0  0
   17.1853  -18.3630   18.5296 O   0  0  0  0  0  0  0  0  0  0  0  0
   11.9945  -18.2036   27.7498 N   0  0  0  0  0  0  0  0  0  0  0  0
   12.4422  -16.8476   27.8315 C   0  0  0  0  0  0  0  0  0  0  0  0
   12.4432  -16.2346   28.8982 O   0  0  0  0  0  0  0  0  0  0  0  0
   12.9233  -16.1518   26.5972 C   0  0  0  0  0  0  0  0  0  0  0  0
   12.8932  -17.0512   25.3965 C   0  0  0  0  0  0  0  0  0  0  0  0
   13.5221  -16.2888   24.2116 C   0  0  2  0  0  0  0  0  0  0  0  0
   13.5691  -17.2097   23.0671 N   0  0  0  0  0  0  0  0  0  0  0  0
   14.8333  -15.7670   24.5420 C   0  0  0  0  0  0  0  0  0  0  0  0
   15.9568  -16.5603   24.1873 O   0  0  0  0  0  0  0  0  0  0  0  0
   15.1094  -14.6889   25.1114 O   0  0  0  0  0  0  0  0  0  0  0  0
  1  2  1  0
  2  3  1  0
  3  5  1  0
  3  4  1  1
  5  6  2  0
  7  8  1  0
  7  5  1  0
  8  9  1  6
  9 10  1  0
 10 11  1  0
 11 12  2  0
 11 15  1  0
 13  8  1  0
 14 13  2  0
 16 17  1  0
 17 19  1  0
 18 17  2  0
 19 20  1  0
 21 20  1  1
 21 23  1  0
 21 22  1  0
 22 13  1  0
 23 24  1  0
 25 23  2  0
M  END
$$$$
