SEQ.pdb
     RDKit          3D

 25 24  0  0  1  0  0  0  0  0999 V2000
    9.3612  -20.8282   24.1922 O   0  0  0  0  0  0  0  0  0  0  0  0
    9.2085  -22.2278   24.2209 C   0  0  0  0  0  0  0  0  0  0  0  0
   10.5083  -22.8197   23.7028 C   0  0  2  0  0  0  0  0  0  0  0  0
   10.3726  -24.2286   23.4127 N   0  0  0  0  0  0  0  0  0  0  0  0
   11.5923  -22.5087   24.6653 C   0  0  0  0  0  0  0  0  0  0  0  0
   11.5836  -23.0767   25.8081 O   0  0  0  0  0  0  0  0  0  0  0  0
   12.6508  -21.6086   24.3951 N   0  0  0  0  0  0  0  0  0  0  0  0
   13.6061  -21.3252   25.4813 C   0  0  1  0  0  0  0  0  0  0  0  0
   14.6307  -20.3920   24.8188 C   0  0  0  0  0  0  0  0  0  0  0  0
   15.7323  -20.1878   25.8420 C   0  0  0  0  0  0  0  0  0  0  0  0
   16.7973  -19.2778   25.3422 C   0  0  0  0  0  0  0  0  0  0  0  0
   18.0249  -19.5224   25.4383 O   0  0  0  0  0  0  0  0  0  0  0  0
   12.9592  -20.6612   26.6198 C   0  0  0  0  0  0  0  0  0  0  0  0
   11.9644  -19.9326   26.4464 O   0  0  0  0  0  0  0  0  0  0  0  0
   16.3837  -18.0995   24.7424 O   0  0  0  0  0  0  0  0  0  0  0  0
   10.4978  -24.0588   31.2964 N   0  0  0  0  0  0  0  0  0  0  0  0
   10.4568  -22.8279   30.5692 C   0  0  0  0  0  0  0  0  0  0  0  0
    9.3946  -22.3522   30.1706 O   0  0  0  0  0  0  0  0  0  0  0  0
   11.7296  -22.0947   30.2837 C   0  0  0  0  0  0  0  0  0  0  0  0
   11.5136  -20.9300   29.3626 C   0  0  0  0  0  0  0  0  0  0  0  0
   12.8777  -20.2501   29.1226 C   0  0  2  0  0  0  0  0  0  0  0  0
   13.4739  -20.8628   27.9271 N   0  0  0  0  0  0  0  0  0  0  0  0
   13.7452  -20.3606   30.2785 C   0  0  0  0  0  0  0  0  0  0  0  0
   15.0224  -20.9490   30.0787 O   0  0  0  0  0  0  0  0  0  0  0  0
   13.5102  -19.9996   31.4520 O   0  0  0  0  0  0  0  0  0  0  0  0
  1  2  1  0
  2  3  1  0
  3  5  1  0
  3  4  1  1
  5  6  2  0
  7  8  1  0
  7  5  1  0
  8  9  1  6
  9 10  1  0
 10 11  1  0
 11 12  2  0
 11 15  1  0
 13  8  1  0
 14 13  2  0
 16 17  1  0
 17 19  1  0
 18 17  2  0
 19 20  1  0
 21 20  1  1
 21 23  1  0
 21 22  1  0
 22 13  1  0
 23 24  1  0
 25 23  2  0
M  END
$$$$
