SEQ.pdb
     RDKit          3D

 25 24  0  0  1  0  0  0  0  0999 V2000
    6.9246  -14.4142   20.6138 O   0  0  0  0  0  0  0  0  0  0  0  0
    8.0313  -14.5807   19.7591 C   0  0  0  0  0  0  0  0  0  0  0  0
    8.3873  -16.0574   19.7881 C   0  0  2  0  0  0  0  0  0  0  0  0
    7.2774  -16.8804   19.3660 N   0  0  0  0  0  0  0  0  0  0  0  0
    8.9062  -16.3976   21.1347 C   0  0  0  0  0  0  0  0  0  0  0  0
    8.1326  -16.9838   21.9634 O   0  0  0  0  0  0  0  0  0  0  0  0
   10.2228  -16.1090   21.5672 N   0  0  0  0  0  0  0  0  0  0  0  0
   10.6054  -16.5241   22.9288 C   0  0  1  0  0  0  0  0  0  0  0  0
   12.1170  -16.7715   22.8132 C   0  0  0  0  0  0  0  0  0  0  0  0
   12.2709  -18.0460   22.0046 C   0  0  0  0  0  0  0  0  0  0  0  0
   13.6978  -18.4273   21.8288 C   0  0  0  0  0  0  0  0  0  0  0  0
   14.0757  -19.4333   21.1797 O   0  0  0  0  0  0  0  0  0  0  0  0
   10.3250  -15.4772   23.9192 C   0  0  0  0  0  0  0  0  0  0  0  0
   10.3012  -14.2782   23.5841 O   0  0  0  0  0  0  0  0  0  0  0  0
   14.6428  -17.6099   22.4272 O   0  0  0  0  0  0  0  0  0  0  0  0
    6.1628  -11.3965   26.8984 N   0  0  0  0  0  0  0  0  0  0  0  0
    6.4691  -12.7189   26.4475 C   0  0  0  0  0  0  0  0  0  0  0  0
    5.6892  -13.3523   25.7375 O   0  0  0  0  0  0  0  0  0  0  0  0
    7.7657  -13.3532   26.8420 C   0  0  0  0  0  0  0  0  0  0  0  0
    8.2476  -14.3345   25.8143 C   0  0  0  0  0  0  0  0  0  0  0  0
    9.6108  -14.8861   26.2814 C   0  0  2  0  0  0  0  0  0  0  0  0
   10.0724  -15.8441   25.2668 N   0  0  0  0  0  0  0  0  0  0  0  0
    9.5257  -15.4885   27.5970 C   0  0  0  0  0  0  0  0  0  0  0  0
    9.6314  -14.6214   28.7170 O   0  0  0  0  0  0  0  0  0  0  0  0
    9.3701  -16.6963   27.8798 O   0  0  0  0  0  0  0  0  0  0  0  0
  1  2  1  0
  2  3  1  0
  3  5  1  0
  3  4  1  1
  5  6  2  0
  7  8  1  0
  7  5  1  0
  8  9  1  6
  9 10  1  0
 10 11  1  0
 11 12  2  0
 11 15  1  0
 13  8  1  0
 14 13  2  0
 16 17  1  0
 17 19  1  0
 18 17  2  0
 19 20  1  0
 21 20  1  6
 21 23  1  0
 21 22  1  0
 22 13  1  0
 23 24  1  0
 25 23  2  0
M  END
$$$$
