SEQ.pdb
     RDKit          3D

 25 24  0  0  1  0  0  0  0  0999 V2000
    8.5374  -12.0588   19.7645 O   0  0  0  0  0  0  0  0  0  0  0  0
    8.7927  -12.9687   20.8086 C   0  0  0  0  0  0  0  0  0  0  0  0
    8.2935  -14.3244   20.3384 C   0  0  2  0  0  0  0  0  0  0  0  0
    6.8550  -14.3446   20.2058 N   0  0  0  0  0  0  0  0  0  0  0  0
    8.8257  -15.3703   21.2446 C   0  0  0  0  0  0  0  0  0  0  0  0
    8.1013  -15.7711   22.2159 O   0  0  0  0  0  0  0  0  0  0  0  0
   10.1041  -15.9606   21.1007 N   0  0  0  0  0  0  0  0  0  0  0  0
   10.5021  -16.9858   22.0822 C   0  0  1  0  0  0  0  0  0  0  0  0
   11.6435  -17.7312   21.3743 C   0  0  0  0  0  0  0  0  0  0  0  0
   10.9906  -18.5457   20.2732 C   0  0  0  0  0  0  0  0  0  0  0  0
   11.9943  -19.1792   19.3769 C   0  0  0  0  0  0  0  0  0  0  0  0
   12.7960  -20.0712   19.7484 O   0  0  0  0  0  0  0  0  0  0  0  0
   10.9728  -16.3878   23.3379 C   0  0  0  0  0  0  0  0  0  0  0  0
   11.7152  -15.3882   23.3242 O   0  0  0  0  0  0  0  0  0  0  0  0
   12.0264  -18.7405   18.0633 O   0  0  0  0  0  0  0  0  0  0  0  0
    7.9550  -13.8288   27.5484 N   0  0  0  0  0  0  0  0  0  0  0  0
    9.1832  -14.0130   28.2578 C   0  0  0  0  0  0  0  0  0  0  0  0
    9.3915  -13.4588   29.3362 O   0  0  0  0  0  0  0  0  0  0  0  0
   10.2434  -14.8992   27.6836 C   0  0  0  0  0  0  0  0  0  0  0  0
    9.8251  -15.5013   26.3744 C   0  0  0  0  0  0  0  0  0  0  0  0
   10.9713  -16.4056   25.8754 C   0  0  2  0  0  0  0  0  0  0  0  0
   10.5672  -16.9557   24.5738 N   0  0  0  0  0  0  0  0  0  0  0  0
   11.2887  -17.4490   26.8301 C   0  0  0  0  0  0  0  0  0  0  0  0
   12.3724  -17.2109   27.7168 O   0  0  0  0  0  0  0  0  0  0  0  0
   10.7224  -18.5538   26.9764 O   0  0  0  0  0  0  0  0  0  0  0  0
  1  2  1  0
  2  3  1  0
  3  5  1  0
  3  4  1  1
  5  6  2  0
  7  8  1  0
  7  5  1  0
  8  9  1  6
  9 10  1  0
 10 11  1  0
 11 12  2  0
 11 15  1  0
 13  8  1  0
 14 13  2  0
 16 17  1  0
 17 19  1  0
 18 17  2  0
 19 20  1  0
 21 20  1  1
 21 23  1  0
 21 22  1  0
 22 13  1  0
 23 24  1  0
 25 23  2  0
M  END
$$$$
