CCS.pdb
     RDKit          3D

 19 18  0  0  1  0  0  0  0  0999 V2000
   19.1719  -11.7638  -16.0685 N   0  0  0  0  0  0  0  0  0  0  0  0
   19.9614  -10.6824  -16.6133 C   0  0  1  0  0  0  0  0  0  0  0  0
   19.4401  -10.3294  -17.9849 C   0  0  0  0  0  0  0  0  0  0  0  0
   19.8086  -11.6833  -19.1051 S   0  0  0  0  0  0  0  0  0  0  0  0
   19.9015   -9.4749  -15.7455 C   0  0  0  0  0  0  0  0  0  0  0  0
   18.8872   -9.1656  -15.0660 O   0  0  0  0  0  0  0  0  0  0  0  0
   21.0617   -8.6478  -15.7007 N   0  0  0  0  0  0  0  0  0  0  0  0
   21.1151   -7.4240  -14.9270 C   0  0  1  0  0  0  0  0  0  0  0  0
   22.2536   -7.4708  -13.9229 C   0  0  0  0  0  0  0  0  0  0  0  0
   22.2916   -5.8800  -13.0569 S   0  0  0  0  0  0  0  0  0  0  0  0
   21.3049   -6.3013  -15.8927 C   0  0  0  0  0  0  0  0  0  0  0  0
   22.2743   -6.2743  -16.7134 O   0  0  0  0  0  0  0  0  0  0  0  0
   18.5318   -3.3924  -16.1293 O   0  0  0  0  0  0  0  0  0  0  0  0
   19.2251   -3.6293  -17.2929 C   0  0  0  0  0  0  0  0  0  0  0  0
   20.6289   -4.1014  -16.8864 C   0  0  2  0  0  0  0  0  0  0  0  0
   20.4139   -5.1952  -15.9528 N   0  0  0  0  0  0  0  0  0  0  0  0
   21.3815   -2.9935  -16.3056 C   0  0  0  0  0  0  0  0  0  0  0  0
   21.6496   -2.9882  -15.0888 O   0  0  0  0  0  0  0  0  0  0  0  0
   21.8086   -1.9390  -17.0803 O   0  0  0  0  0  0  0  0  0  0  0  0
  2  3  1  0
  2  1  1  1
  3  4  1  0
  5  6  2  0
  5  2  1  0
  7  5  1  0
  8  7  1  0
  9 10  1  0
  8  9  1  1
 11 12  2  0
 11  8  1  0
 13 14  1  0
 15 14  1  1
 15 16  1  0
 16 11  1  0
 17 15  1  0
 18 17  2  0
 19 17  1  0
M  END
$$$$
