CCS.pdb
     RDKit          3D

 19 18  0  0  1  0  0  0  0  0999 V2000
   25.8726  -12.0796  -18.2306 N   0  0  0  0  0  0  0  0  0  0  0  0
   25.6688  -11.2585  -17.0585 C   0  0  1  0  0  0  0  0  0  0  0  0
   26.8871  -10.3953  -16.8392 C   0  0  0  0  0  0  0  0  0  0  0  0
   26.7490   -9.6043  -15.2333 S   0  0  0  0  0  0  0  0  0  0  0  0
   24.4743  -10.3837  -17.2086 C   0  0  0  0  0  0  0  0  0  0  0  0
   24.2392   -9.7128  -18.2483 O   0  0  0  0  0  0  0  0  0  0  0  0
   23.5709  -10.3215  -16.1077 N   0  0  0  0  0  0  0  0  0  0  0  0
   22.3387   -9.5609  -16.1546 C   0  0  1  0  0  0  0  0  0  0  0  0
   21.1853  -10.3682  -15.5850 C   0  0  0  0  0  0  0  0  0  0  0  0
   20.8095  -11.6972  -16.7574 S   0  0  0  0  0  0  0  0  0  0  0  0
   22.5594   -8.3168  -15.3593 C   0  0  0  0  0  0  0  0  0  0  0  0
   23.4551   -8.2402  -14.4616 O   0  0  0  0  0  0  0  0  0  0  0  0
   24.0852   -4.4198  -15.3580 O   0  0  0  0  0  0  0  0  0  0  0  0
   23.5684   -5.5981  -15.8431 C   0  0  0  0  0  0  0  0  0  0  0  0
   22.2461   -5.8431  -15.1012 C   0  0  2  0  0  0  0  0  0  0  0  0
   21.7818   -7.1433  -15.5574 N   0  0  0  0  0  0  0  0  0  0  0  0
   21.3034   -4.7661  -15.3886 C   0  0  0  0  0  0  0  0  0  0  0  0
   20.6425   -4.7776  -16.4449 O   0  0  0  0  0  0  0  0  0  0  0  0
   21.1238   -3.7230  -14.5087 O   0  0  0  0  0  0  0  0  0  0  0  0
  2  3  1  0
  2  1  1  6
  3  4  1  0
  5  6  2  0
  5  2  1  0
  7  5  1  0
  8  7  1  0
  9 10  1  0
  8  9  1  1
 11 12  2  0
 11  8  1  0
 13 14  1  0
 15 14  1  6
 15 16  1  0
 16 11  1  0
 17 15  1  0
 18 17  2  0
 19 17  1  0
M  END
$$$$
