CCS.pdb
     RDKit          3D

 19 18  0  0  1  0  0  0  0  0999 V2000
   13.3855   -9.8510   -9.6720 N   0  0  0  0  0  0  0  0  0  0  0  0
   14.8216   -9.7890   -9.8241 C   0  0  1  0  0  0  0  0  0  0  0  0
   15.2634  -10.8494  -10.8027 C   0  0  0  0  0  0  0  0  0  0  0  0
   15.0888  -12.4578  -10.0242 S   0  0  0  0  0  0  0  0  0  0  0  0
   15.2585   -8.4563  -10.3219 C   0  0  0  0  0  0  0  0  0  0  0  0
   14.6093   -7.7934  -11.1735 O   0  0  0  0  0  0  0  0  0  0  0  0
   16.4729   -7.9301   -9.7923 N   0  0  0  0  0  0  0  0  0  0  0  0
   17.0222   -6.6597  -10.2206 C   0  0  1  0  0  0  0  0  0  0  0  0
   16.8937   -5.6194   -9.1215 C   0  0  0  0  0  0  0  0  0  0  0  0
   17.8528   -4.1661   -9.6220 S   0  0  0  0  0  0  0  0  0  0  0  0
   18.4560   -6.8940  -10.5644 C   0  0  0  0  0  0  0  0  0  0  0  0
   19.2798   -7.3786   -9.7273 O   0  0  0  0  0  0  0  0  0  0  0  0
   19.6579   -7.5196  -14.1431 O   0  0  0  0  0  0  0  0  0  0  0  0
   20.5934   -7.7520  -13.1625 C   0  0  0  0  0  0  0  0  0  0  0  0
   20.4161   -6.6496  -12.1079 C   0  0  2  0  0  0  0  0  0  0  0  0
   18.9868   -6.5896  -11.8476 N   0  0  0  0  0  0  0  0  0  0  0  0
   20.9602   -5.3891  -12.6043 C   0  0  0  0  0  0  0  0  0  0  0  0
   20.2038   -4.4235  -12.8235 O   0  0  0  0  0  0  0  0  0  0  0  0
   22.3080   -5.2387  -12.8397 O   0  0  0  0  0  0  0  0  0  0  0  0
  2  3  1  0
  2  1  1  6
  3  4  1  0
  5  6  2  0
  5  2  1  0
  7  5  1  0
  8  7  1  0
  9 10  1  0
  8  9  1  1
 11 12  2  0
 11  8  1  0
 13 14  1  0
 15 14  1  6
 15 16  1  0
 16 11  1  0
 17 15  1  0
 18 17  2  0
 19 17  1  0
M  END
$$$$
