CCS.pdb
     RDKit          3D

 19 18  0  0  1  0  0  0  0  0999 V2000
   28.4366  -20.8038  -15.5968 N   0  0  0  0  0  0  0  0  0  0  0  0
   27.7260  -19.9960  -14.6313 C   0  0  1  0  0  0  0  0  0  0  0  0
   27.1726  -18.7722  -15.3194 C   0  0  0  0  0  0  0  0  0  0  0  0
   28.5368  -17.6822  -15.7372 S   0  0  0  0  0  0  0  0  0  0  0  0
   26.6051  -20.7523  -14.0098 C   0  0  0  0  0  0  0  0  0  0  0  0
   26.0378  -21.7266  -14.5711 O   0  0  0  0  0  0  0  0  0  0  0  0
   26.1741  -20.3317  -12.7177 N   0  0  0  0  0  0  0  0  0  0  0  0
   25.1147  -21.0046  -11.9939 C   0  0  1  0  0  0  0  0  0  0  0  0
   25.1123  -20.5892  -10.5330 C   0  0  0  0  0  0  0  0  0  0  0  0
   26.5965  -21.2826   -9.7594 S   0  0  0  0  0  0  0  0  0  0  0  0
   23.8274  -20.6339  -12.6531 C   0  0  0  0  0  0  0  0  0  0  0  0
   23.5374  -19.4300  -12.9371 O   0  0  0  0  0  0  0  0  0  0  0  0
   19.8433  -22.1730  -14.8513 O   0  0  0  0  0  0  0  0  0  0  0  0
   21.0278  -22.5083  -14.2388 C   0  0  0  0  0  0  0  0  0  0  0  0
   21.5912  -21.2189  -13.6230 C   0  0  2  0  0  0  0  0  0  0  0  0
   22.8488  -21.6038  -13.0029 N   0  0  0  0  0  0  0  0  0  0  0  0
   20.6343  -20.6570  -12.6744 C   0  0  0  0  0  0  0  0  0  0  0  0
   20.6664  -20.9979  -11.4764 O   0  0  0  0  0  0  0  0  0  0  0  0
   19.6836  -19.7466  -13.0766 O   0  0  0  0  0  0  0  0  0  0  0  0
  2  3  1  0
  2  1  1  6
  3  4  1  0
  5  6  2  0
  5  2  1  0
  7  5  1  0
  8  7  1  0
  9 10  1  0
  8  9  1  1
 11 12  2  0
 11  8  1  0
 13 14  1  0
 15 14  1  1
 15 16  1  0
 16 11  1  0
 17 15  1  0
 18 17  2  0
 19 17  1  0
M  END
$$$$
