CCS.pdb
     RDKit          3D

 19 18  0  0  1  0  0  0  0  0999 V2000
   14.7285  -11.6414  -11.2235 N   0  0  0  0  0  0  0  0  0  0  0  0
   15.8164  -10.7054  -11.0502 C   0  0  1  0  0  0  0  0  0  0  0  0
   16.6995  -10.7387  -12.2735 C   0  0  0  0  0  0  0  0  0  0  0  0
   17.7764  -12.1713  -12.1654 S   0  0  0  0  0  0  0  0  0  0  0  0
   15.3139   -9.3187  -10.8516 C   0  0  0  0  0  0  0  0  0  0  0  0
   14.3292   -8.8472  -11.4795 O   0  0  0  0  0  0  0  0  0  0  0  0
   15.9989   -8.5088   -9.8993 N   0  0  0  0  0  0  0  0  0  0  0  0
   15.5764   -7.1608   -9.5776 C   0  0  1  0  0  0  0  0  0  0  0  0
   15.4817   -6.9704   -8.0738 C   0  0  0  0  0  0  0  0  0  0  0  0
   13.9970   -7.8357   -7.5001 S   0  0  0  0  0  0  0  0  0  0  0  0
   16.5848   -6.2313  -10.1677 C   0  0  0  0  0  0  0  0  0  0  0  0
   17.8183   -6.2977   -9.8708 O   0  0  0  0  0  0  0  0  0  0  0  0
   16.1551   -4.8800  -13.6363 O   0  0  0  0  0  0  0  0  0  0  0  0
   17.4112   -4.7212  -13.1000 C   0  0  0  0  0  0  0  0  0  0  0  0
   17.2200   -4.3007  -11.6352 C   0  0  2  0  0  0  0  0  0  0  0  0
   16.2270   -5.2163  -11.0966 N   0  0  0  0  0  0  0  0  0  0  0  0
   16.8060   -2.9025  -11.5652 C   0  0  0  0  0  0  0  0  0  0  0  0
   17.6050   -1.9968  -11.8716 O   0  0  0  0  0  0  0  0  0  0  0  0
   15.5364   -2.5549  -11.1632 O   0  0  0  0  0  0  0  0  0  0  0  0
  2  3  1  0
  2  1  1  6
  3  4  1  0
  5  6  2  0
  5  2  1  0
  7  5  1  0
  8  7  1  0
  9 10  1  0
  8  9  1  1
 11 12  2  0
 11  8  1  0
 13 14  1  0
 15 14  1  6
 15 16  1  0
 16 11  1  0
 17 15  1  0
 18 17  2  0
 19 17  1  0
M  END
$$$$
