CCS.pdb
     RDKit          3D

 19 18  0  0  1  0  0  0  0  0999 V2000
   19.0284  -28.0856  -10.5548 N   0  0  0  0  0  0  0  0  0  0  0  0
   19.8434  -27.0153  -11.0836 C   0  0  1  0  0  0  0  0  0  0  0  0
   20.8327  -27.5856  -12.0702 C   0  0  0  0  0  0  0  0  0  0  0  0
   22.1007  -28.4756  -11.1626 S   0  0  0  0  0  0  0  0  0  0  0  0
   19.0132  -25.9869  -11.7677 C   0  0  0  0  0  0  0  0  0  0  0  0
   18.2248  -26.2562  -12.7122 O   0  0  0  0  0  0  0  0  0  0  0  0
   19.1367  -24.6421  -11.3112 N   0  0  0  0  0  0  0  0  0  0  0  0
   18.3324  -23.5622  -11.8460 C   0  0  1  0  0  0  0  0  0  0  0  0
   18.0312  -22.5318  -10.7717 C   0  0  0  0  0  0  0  0  0  0  0  0
   16.9862  -23.3257   -9.5227 S   0  0  0  0  0  0  0  0  0  0  0  0
   19.1069  -22.9501  -12.9661 C   0  0  0  0  0  0  0  0  0  0  0  0
   20.3385  -22.6593  -12.8545 O   0  0  0  0  0  0  0  0  0  0  0  0
   20.4274  -22.7132  -17.2393 O   0  0  0  0  0  0  0  0  0  0  0  0
   19.5799  -23.2114  -16.2779 C   0  0  0  0  0  0  0  0  0  0  0  0
   19.2874  -22.0612  -15.3030 C   0  0  2  0  0  0  0  0  0  0  0  0
   18.5144  -22.6556  -14.2244 N   0  0  0  0  0  0  0  0  0  0  0  0
   18.5763  -20.9887  -15.9924 C   0  0  0  0  0  0  0  0  0  0  0  0
   17.3362  -20.9026  -15.9055 O   0  0  0  0  0  0  0  0  0  0  0  0
   19.2515  -20.0566  -16.7471 O   0  0  0  0  0  0  0  0  0  0  0  0
  2  3  1  0
  2  1  1  6
  3  4  1  0
  5  6  2  0
  5  2  1  0
  7  5  1  0
  8  7  1  0
  9 10  1  0
  8  9  1  1
 11 12  2  0
 11  8  1  0
 13 14  1  0
 15 14  1  6
 15 16  1  0
 16 11  1  0
 17 15  1  0
 18 17  2  0
 19 17  1  0
M  END
$$$$
