CCS.pdb
     RDKit          3D

 19 18  0  0  1  0  0  0  0  0999 V2000
   25.0433  -12.1406  -15.2914 N   0  0  0  0  0  0  0  0  0  0  0  0
   24.7968  -11.6879  -16.6419 C   0  0  1  0  0  0  0  0  0  0  0  0
   24.8992  -12.8615  -17.5852 C   0  0  0  0  0  0  0  0  0  0  0  0
   26.5807  -13.4892  -17.5405 S   0  0  0  0  0  0  0  0  0  0  0  0
   23.4464  -11.0763  -16.7723 C   0  0  0  0  0  0  0  0  0  0  0  0
   23.0176  -10.5783  -17.8467 O   0  0  0  0  0  0  0  0  0  0  0  0
   22.6211  -11.0678  -15.6100 N   0  0  0  0  0  0  0  0  0  0  0  0
   21.2935  -10.4879  -15.6031 C   0  0  1  0  0  0  0  0  0  0  0  0
   20.3608  -11.2883  -14.7107 C   0  0  0  0  0  0  0  0  0  0  0  0
   18.7312  -10.4986  -14.7660 S   0  0  0  0  0  0  0  0  0  0  0  0
   21.4285   -9.0860  -15.1076 C   0  0  0  0  0  0  0  0  0  0  0  0
   22.4447   -8.6975  -14.4516 O   0  0  0  0  0  0  0  0  0  0  0  0
   22.0395   -4.9914  -16.0527 O   0  0  0  0  0  0  0  0  0  0  0  0
   21.7736   -6.3332  -16.1926 C   0  0  0  0  0  0  0  0  0  0  0  0
   20.7045   -6.6864  -15.1480 C   0  0  2  0  0  0  0  0  0  0  0  0
   20.4296   -8.1014  -15.3391 N   0  0  0  0  0  0  0  0  0  0  0  0
   19.5260   -5.8449  -15.3329 C   0  0  0  0  0  0  0  0  0  0  0  0
   18.5152   -6.2991  -15.9026 O   0  0  0  0  0  0  0  0  0  0  0  0
   19.5035   -4.5429  -14.8870 O   0  0  0  0  0  0  0  0  0  0  0  0
  2  3  1  0
  2  1  1  1
  3  4  1  0
  5  6  2  0
  5  2  1  0
  7  5  1  0
  8  7  1  0
  9 10  1  0
  8  9  1  1
 11 12  2  0
 11  8  1  0
 13 14  1  0
 15 14  1  6
 15 16  1  0
 16 11  1  0
 17 15  1  0
 18 17  2  0
 19 17  1  0
M  END
$$$$
