CCS.pdb
     RDKit          3D

 19 18  0  0  1  0  0  0  0  0999 V2000
   26.4700  -20.3847   -8.9343 N   0  0  0  0  0  0  0  0  0  0  0  0
   25.3758  -20.8462   -9.7585 C   0  0  1  0  0  0  0  0  0  0  0  0
   24.0747  -20.3412   -9.1846 C   0  0  0  0  0  0  0  0  0  0  0  0
   23.7213  -21.2494   -7.6767 S   0  0  0  0  0  0  0  0  0  0  0  0
   25.5090  -20.3624  -11.1595 C   0  0  0  0  0  0  0  0  0  0  0  0
   25.8628  -19.1895  -11.4516 O   0  0  0  0  0  0  0  0  0  0  0  0
   25.2157  -21.2923  -12.1995 N   0  0  0  0  0  0  0  0  0  0  0  0
   25.2848  -20.9373  -13.6025 C   0  0  1  0  0  0  0  0  0  0  0  0
   25.8939  -22.0671  -14.4145 C   0  0  0  0  0  0  0  0  0  0  0  0
   26.0042  -21.5126  -16.1357 S   0  0  0  0  0  0  0  0  0  0  0  0
   23.8903  -20.6519  -14.0530 C   0  0  0  0  0  0  0  0  0  0  0  0
   22.9210  -21.4259  -13.7782 O   0  0  0  0  0  0  0  0  0  0  0  0
   23.3050  -17.6765  -16.6314 O   0  0  0  0  0  0  0  0  0  0  0  0
   22.1948  -17.8400  -15.8368 C   0  0  0  0  0  0  0  0  0  0  0  0
   22.2185  -19.2902  -15.3316 C   0  0  2  0  0  0  0  0  0  0  0  0
   23.5621  -19.4983  -14.8161 N   0  0  0  0  0  0  0  0  0  0  0  0
   21.8744  -20.2044  -16.4165 C   0  0  0  0  0  0  0  0  0  0  0  0
   20.6907  -20.3164  -16.7895 O   0  0  0  0  0  0  0  0  0  0  0  0
   22.8393  -20.9567  -17.0471 O   0  0  0  0  0  0  0  0  0  0  0  0
  2  3  1  0
  2  1  1  1
  3  4  1  0
  5  6  2  0
  5  2  1  0
  7  5  1  0
  8  7  1  0
  9 10  1  0
  8  9  1  6
 11 12  2  0
 11  8  1  0
 13 14  1  0
 15 14  1  6
 15 16  1  0
 16 11  1  0
 17 15  1  0
 18 17  2  0
 19 17  1  0
M  END
$$$$
