CCS.pdb
     RDKit          3D

 19 18  0  0  1  0  0  0  0  0999 V2000
   16.7536  -13.0305  -15.4722 N   0  0  0  0  0  0  0  0  0  0  0  0
   17.7737  -12.2586  -14.7991 C   0  0  1  0  0  0  0  0  0  0  0  0
   18.9559  -12.0873  -15.7213 C   0  0  0  0  0  0  0  0  0  0  0  0
   19.8961  -13.6168  -15.7399 S   0  0  0  0  0  0  0  0  0  0  0  0
   17.2674  -10.9161  -14.4040 C   0  0  0  0  0  0  0  0  0  0  0  0
   16.5068  -10.2258  -15.1328 O   0  0  0  0  0  0  0  0  0  0  0  0
   17.6793  -10.4131  -13.1353 N   0  0  0  0  0  0  0  0  0  0  0  0
   17.2743   -9.1108  -12.6463 C   0  0  1  0  0  0  0  0  0  0  0  0
   17.4920   -9.0070  -11.1467 C   0  0  0  0  0  0  0  0  0  0  0  0
   16.0947   -9.8194  -10.3284 S   0  0  0  0  0  0  0  0  0  0  0  0
   18.0918   -8.0945  -13.3728 C   0  0  0  0  0  0  0  0  0  0  0  0
   19.3576   -8.1744  -13.4461 O   0  0  0  0  0  0  0  0  0  0  0  0
   18.7938   -7.2958  -16.7442 O   0  0  0  0  0  0  0  0  0  0  0  0
   17.9223   -6.3389  -16.2800 C   0  0  0  0  0  0  0  0  0  0  0  0
   18.3059   -6.0585  -14.8194 C   0  0  2  0  0  0  0  0  0  0  0  0
   17.5048   -6.9767  -14.0260 N   0  0  0  0  0  0  0  0  0  0  0  0
   18.0571   -4.6567  -14.4963 C   0  0  0  0  0  0  0  0  0  0  0  0
   17.0156   -4.3275  -13.8968 O   0  0  0  0  0  0  0  0  0  0  0  0
   18.9579   -3.6753  -14.8426 O   0  0  0  0  0  0  0  0  0  0  0  0
  2  3  1  0
  2  1  1  6
  3  4  1  0
  5  6  2  0
  5  2  1  0
  7  5  1  0
  8  7  1  0
  9 10  1  0
  8  9  1  1
 11 12  2  0
 11  8  1  0
 13 14  1  0
 15 14  1  6
 15 16  1  0
 16 11  1  0
 17 15  1  0
 18 17  2  0
 19 17  1  0
M  END
$$$$
