CCS.pdb
     RDKit          3D

 19 18  0  0  1  0  0  0  0  0999 V2000
   21.9590  -15.2386  -16.2212 N   0  0  0  0  0  0  0  0  0  0  0  0
   22.5383  -14.2224  -17.0705 C   0  0  1  0  0  0  0  0  0  0  0  0
   21.5726  -13.8958  -18.1833 C   0  0  0  0  0  0  0  0  0  0  0  0
   21.5858  -15.2438  -19.3692 S   0  0  0  0  0  0  0  0  0  0  0  0
   22.8369  -12.9807  -16.3065 C   0  0  0  0  0  0  0  0  0  0  0  0
   22.0305  -12.4666  -15.4869 O   0  0  0  0  0  0  0  0  0  0  0  0
   24.1028  -12.3659  -16.5333 N   0  0  0  0  0  0  0  0  0  0  0  0
   24.5104  -11.1519  -15.8556 C   0  0  1  0  0  0  0  0  0  0  0  0
   26.0192  -11.1102  -15.6862 C   0  0  0  0  0  0  0  0  0  0  0  0
   26.4330   -9.5873  -14.7964 S   0  0  0  0  0  0  0  0  0  0  0  0
   24.0379  -10.0048  -16.6862 C   0  0  0  0  0  0  0  0  0  0  0  0
   24.2512   -9.9449  -17.9372 O   0  0  0  0  0  0  0  0  0  0  0  0
   20.7422   -8.3729  -16.1516 O   0  0  0  0  0  0  0  0  0  0  0  0
   21.5833   -7.2931  -16.2830 C   0  0  0  0  0  0  0  0  0  0  0  0
   22.8645   -7.8061  -16.9569 C   0  0  2  0  0  0  0  0  0  0  0  0
   23.3212   -8.9108  -16.1289 N   0  0  0  0  0  0  0  0  0  0  0  0
   23.8424   -6.7272  -17.0610 C   0  0  0  0  0  0  0  0  0  0  0  0
   24.8218   -6.6932  -16.2915 O   0  0  0  0  0  0  0  0  0  0  0  0
   23.7074   -5.7319  -18.0022 O   0  0  0  0  0  0  0  0  0  0  0  0
  2  3  1  0
  2  1  1  1
  3  4  1  0
  5  6  2  0
  5  2  1  0
  7  5  1  0
  8  7  1  0
  9 10  1  0
  8  9  1  6
 11 12  2  0
 11  8  1  0
 13 14  1  0
 15 14  1  1
 15 16  1  0
 16 11  1  0
 17 15  1  0
 18 17  2  0
 19 17  1  0
M  END
$$$$
