CCS.pdb
     RDKit          3D

 19 18  0  0  1  0  0  0  0  0999 V2000
   20.8811  -12.7705  -17.8322 N   0  0  0  0  0  0  0  0  0  0  0  0
   21.6370  -11.5677  -17.5651 C   0  0  1  0  0  0  0  0  0  0  0  0
   22.3061  -11.1090  -18.8376 C   0  0  0  0  0  0  0  0  0  0  0  0
   23.7962  -12.0797  -19.0850 S   0  0  0  0  0  0  0  0  0  0  0  0
   20.7615  -10.4771  -17.0563 C   0  0  0  0  0  0  0  0  0  0  0  0
   19.6910  -10.1331  -17.6237 O   0  0  0  0  0  0  0  0  0  0  0  0
   21.1792   -9.8079  -15.8690 N   0  0  0  0  0  0  0  0  0  0  0  0
   20.4059   -8.7430  -15.2633 C   0  0  1  0  0  0  0  0  0  0  0  0
   19.8850   -9.1638  -13.9001 C   0  0  0  0  0  0  0  0  0  0  0  0
   21.3057   -9.6800  -12.9015 S   0  0  0  0  0  0  0  0  0  0  0  0
   21.3065   -7.5582  -15.1446 C   0  0  0  0  0  0  0  0  0  0  0  0
   22.5592   -7.6780  -14.9699 O   0  0  0  0  0  0  0  0  0  0  0  0
   19.7433   -3.8225  -15.1148 O   0  0  0  0  0  0  0  0  0  0  0  0
   20.9620   -3.9091  -15.7455 C   0  0  0  0  0  0  0  0  0  0  0  0
   21.7130   -5.0849  -15.1033 C   0  0  2  0  0  0  0  0  0  0  0  0
   20.8183   -6.2251  -15.2197 N   0  0  0  0  0  0  0  0  0  0  0  0
   22.0553   -4.7655  -13.7205 C   0  0  0  0  0  0  0  0  0  0  0  0
   21.4988   -5.3680  -12.7824 O   0  0  0  0  0  0  0  0  0  0  0  0
   22.9913   -3.8012  -13.4230 O   0  0  0  0  0  0  0  0  0  0  0  0
  2  3  1  0
  2  1  1  6
  3  4  1  0
  5  6  2  0
  5  2  1  0
  7  5  1  0
  8  7  1  0
  9 10  1  0
  8  9  1  1
 11 12  2  0
 11  8  1  0
 13 14  1  0
 15 14  1  1
 15 16  1  0
 16 11  1  0
 17 15  1  0
 18 17  2  0
 19 17  1  0
M  END
$$$$
