CCS.pdb
     RDKit          3D

 19 18  0  0  1  0  0  0  0  0999 V2000
   19.6100  -12.8502  -16.1056 N   0  0  0  0  0  0  0  0  0  0  0  0
   20.0865  -11.6784  -16.8052 C   0  0  1  0  0  0  0  0  0  0  0  0
   18.9077  -10.9228  -17.3681 C   0  0  0  0  0  0  0  0  0  0  0  0
   18.1492  -11.9183  -18.6555 S   0  0  0  0  0  0  0  0  0  0  0  0
   20.8526  -10.7791  -15.9003 C   0  0  0  0  0  0  0  0  0  0  0  0
   20.4844  -10.5077  -14.7268 O   0  0  0  0  0  0  0  0  0  0  0  0
   22.0561  -10.2123  -16.4127 N   0  0  0  0  0  0  0  0  0  0  0  0
   22.8719   -9.2939  -15.6445 C   0  0  1  0  0  0  0  0  0  0  0  0
   24.3219   -9.3578  -16.0921 C   0  0  0  0  0  0  0  0  0  0  0  0
   25.0982  -10.7617  -15.2504 S   0  0  0  0  0  0  0  0  0  0  0  0
   22.3114   -7.9262  -15.8549 C   0  0  0  0  0  0  0  0  0  0  0  0
   22.0611   -7.4710  -17.0143 O   0  0  0  0  0  0  0  0  0  0  0  0
   19.6551   -4.4192  -14.2893 O   0  0  0  0  0  0  0  0  0  0  0  0
   20.2500   -5.6365  -14.0550 C   0  0  0  0  0  0  0  0  0  0  0  0
   21.4586   -5.7302  -14.9981 C   0  0  2  0  0  0  0  0  0  0  0  0
   22.0238   -7.0507  -14.7724 N   0  0  0  0  0  0  0  0  0  0  0  0
   22.3991   -4.6498  -14.7162 C   0  0  0  0  0  0  0  0  0  0  0  0
   23.3202   -4.8199  -13.8945 O   0  0  0  0  0  0  0  0  0  0  0  0
   22.2920   -3.4300  -15.3448 O   0  0  0  0  0  0  0  0  0  0  0  0
  2  3  1  0
  2  1  1  1
  3  4  1  0
  5  6  2  0
  5  2  1  0
  7  5  1  0
  8  7  1  0
  9 10  1  0
  8  9  1  6
 11 12  2  0
 11  8  1  0
 13 14  1  0
 15 14  1  1
 15 16  1  0
 16 11  1  0
 17 15  1  0
 18 17  2  0
 19 17  1  0
M  END
$$$$
