CCS.pdb
     RDKit          3D

 19 18  0  0  1  0  0  0  0  0999 V2000
   18.7413   -8.5825  -13.6291 N   0  0  0  0  0  0  0  0  0  0  0  0
   17.4030   -8.3733  -14.1339 C   0  0  1  0  0  0  0  0  0  0  0  0
   16.8585   -9.6812  -14.6539 C   0  0  0  0  0  0  0  0  0  0  0  0
   17.8549  -10.2019  -16.0539 S   0  0  0  0  0  0  0  0  0  0  0  0
   16.4962   -7.8573  -13.0727 C   0  0  0  0  0  0  0  0  0  0  0  0
   15.2644   -7.6669  -13.2531 O   0  0  0  0  0  0  0  0  0  0  0  0
   17.0769   -7.5740  -11.8020 N   0  0  0  0  0  0  0  0  0  0  0  0
   16.3243   -6.9733  -10.7194 C   0  0  1  0  0  0  0  0  0  0  0  0
   16.7404   -7.5621   -9.3827 C   0  0  0  0  0  0  0  0  0  0  0  0
   15.2621   -7.6646   -8.3404 S   0  0  0  0  0  0  0  0  0  0  0  0
   16.5924   -5.5052  -10.7591 C   0  0  0  0  0  0  0  0  0  0  0  0
   17.7653   -5.0373  -10.8982 O   0  0  0  0  0  0  0  0  0  0  0  0
   14.8715   -1.1361  -11.4848 O   0  0  0  0  0  0  0  0  0  0  0  0
   14.6528   -2.4933  -11.4519 C   0  0  0  0  0  0  0  0  0  0  0  0
   15.8347   -3.1165  -10.6946 C   0  0  2  0  0  0  0  0  0  0  0  0
   15.5531   -4.5421  -10.6438 N   0  0  0  0  0  0  0  0  0  0  0  0
   15.9580   -2.5105   -9.3722 C   0  0  0  0  0  0  0  0  0  0  0  0
   15.6455   -3.1584   -8.3548 O   0  0  0  0  0  0  0  0  0  0  0  0
   16.4177   -1.2222   -9.2191 O   0  0  0  0  0  0  0  0  0  0  0  0
  2  3  1  0
  2  1  1  1
  3  4  1  0
  5  6  2  0
  5  2  1  0
  7  5  1  0
  8  7  1  0
  9 10  1  0
  8  9  1  1
 11 12  2  0
 11  8  1  0
 13 14  1  0
 15 14  1  1
 15 16  1  0
 16 11  1  0
 17 15  1  0
 18 17  2  0
 19 17  1  0
M  END
$$$$
