CCS.pdb
     RDKit          3D

 19 18  0  0  1  0  0  0  0  0999 V2000
   18.0045  -10.0622  -15.1430 N   0  0  0  0  0  0  0  0  0  0  0  0
   18.6164   -8.9198  -15.7835 C   0  0  1  0  0  0  0  0  0  0  0  0
   17.6243   -8.2918  -16.7315 C   0  0  0  0  0  0  0  0  0  0  0  0
   17.5763   -9.2645  -18.2398 S   0  0  0  0  0  0  0  0  0  0  0  0
   19.0457   -7.9025  -14.7858 C   0  0  0  0  0  0  0  0  0  0  0  0
   18.4257   -7.6891  -13.7105 O   0  0  0  0  0  0  0  0  0  0  0  0
   20.2175   -7.1489  -15.0879 N   0  0  0  0  0  0  0  0  0  0  0  0
   20.7476   -6.1422  -14.1910 C   0  0  1  0  0  0  0  0  0  0  0  0
   22.1912   -6.4476  -13.8313 C   0  0  0  0  0  0  0  0  0  0  0  0
   22.8132   -5.0726  -12.8289 S   0  0  0  0  0  0  0  0  0  0  0  0
   20.6421   -4.8286  -14.8928 C   0  0  0  0  0  0  0  0  0  0  0  0
   21.0411   -4.6688  -16.0884 O   0  0  0  0  0  0  0  0  0  0  0  0
   17.7712   -2.4184  -15.0744 O   0  0  0  0  0  0  0  0  0  0  0  0
   18.7947   -1.6962  -14.5072 C   0  0  0  0  0  0  0  0  0  0  0  0
   20.1056   -2.3801  -14.9228 C   0  0  2  0  0  0  0  0  0  0  0  0
   20.0895   -3.6779  -14.2672 N   0  0  0  0  0  0  0  0  0  0  0  0
   21.2460   -1.5565  -14.5325 C   0  0  0  0  0  0  0  0  0  0  0  0
   22.0403   -1.9591  -13.6610 O   0  0  0  0  0  0  0  0  0  0  0  0
   21.4689   -0.3280  -15.1120 O   0  0  0  0  0  0  0  0  0  0  0  0
  2  3  1  0
  2  1  1  1
  3  4  1  0
  5  6  2  0
  5  2  1  0
  7  5  1  0
  8  7  1  0
  9 10  1  0
  8  9  1  6
 11 12  2  0
 11  8  1  0
 13 14  1  0
 15 14  1  1
 15 16  1  0
 16 11  1  0
 17 15  1  0
 18 17  2  0
 19 17  1  0
M  END
$$$$
