REQ.pdb
     RDKit          3D

 30 29  0  0  1  0  0  0  0  0999 V2000
   29.0659  -27.4276  -16.7101 N   0  0  0  0  0  0  0  0  0  0  0  0
   27.6467  -27.5325  -16.7897 C   0  0  0  0  0  0  0  0  0  0  0  0
   26.9978  -28.0705  -15.8232 N   0  0  0  0  0  0  0  0  0  0  0  0
   26.9698  -27.0400  -17.9375 N   0  0  0  0  0  0  0  0  0  0  0  0
   26.5918  -25.6147  -18.0080 C   0  0  0  0  0  0  0  0  0  0  0  0
   26.8025  -24.9764  -16.6827 C   0  0  0  0  0  0  0  0  0  0  0  0
   26.4718  -23.5497  -16.5579 C   0  0  0  0  0  0  0  0  0  0  0  0
   26.9239  -22.5997  -17.6032 C   0  0  2  0  0  0  0  0  0  0  0  0
   28.2668  -22.1304  -17.5049 N   0  0  0  0  0  0  0  0  0  0  0  0
   25.9207  -21.5494  -17.9046 C   0  0  0  0  0  0  0  0  0  0  0  0
   25.9236  -20.4970  -17.1838 O   0  0  0  0  0  0  0  0  0  0  0  0
   25.9542  -28.2498  -15.9302 N   0  0  0  0  0  0  0  0  0  0  0  0
   24.9395  -21.5887  -18.9254 C   0  0  2  0  0  0  0  0  0  0  0  0
   24.0190  -20.5202  -19.1870 C   0  0  0  0  0  0  0  0  0  0  0  0
   24.3770  -19.5417  -20.2410 C   0  0  0  0  0  0  0  0  0  0  0  0
   23.4395  -18.4657  -20.5820 C   0  0  0  0  0  0  0  0  0  0  0  0
   23.8782  -17.5177  -21.6204 O   0  0  0  0  0  0  0  0  0  0  0  0
   24.4667  -16.4385  -21.3513 C   0  0  0  0  0  0  0  0  0  0  0  0
   22.6052  -20.9716  -19.2423 O   0  0  0  0  0  0  0  0  0  0  0  0
   22.2267  -22.0221  -19.7993 O   0  0  0  0  0  0  0  0  0  0  0  0
   23.6592  -17.7752  -22.9745 N   0  0  0  0  0  0  0  0  0  0  0  0
   20.3082  -24.6715  -19.6489 C   0  0  0  0  0  0  0  0  0  0  0  0
   19.1296  -24.3110  -18.8981 O   0  0  0  0  0  0  0  0  0  0  0  0
   18.1785  -25.1103  -18.8123 C   0  0  0  0  0  0  0  0  0  0  0  0
   19.1321  -22.9782  -18.2653 C   0  0  0  0  0  0  0  0  0  0  0  0
   20.2991  -22.1598  -18.6783 C   0  0  1  0  0  0  0  0  0  0  0  0
   20.3628  -20.7730  -18.0917 N   0  0  0  0  0  0  0  0  0  0  0  0
   21.5910  -20.1814  -18.6320 C   0  0  0  0  0  0  0  0  0  0  0  0
   20.4272  -20.8612  -16.6133 O   0  0  0  0  0  0  0  0  0  0  0  0
   21.4919  -20.3763  -15.8743 O   0  0  0  0  0  0  0  0  0  0  0  0
  2  3  2  0
  2  1  1  0
  4  2  1  0
  5  4  1  0
  6  5  1  0
  7  6  1  0
  8  7  1  0
  8  9  1  1
 10 11  2  0
 10  8  1  0
 12 10  1  0
 13 18  1  0
 13 12  1  0
 13 14  1  1
 15 14  1  0
 16 17  2  0
 16 15  1  0
 18 27  1  0
 19 18  2  0
 20 16  1  0
 22 24  1  0
 22 21  1  0
 23 22  2  0
 26 25  1  6
 25 24  1  0
 27 26  1  0
 28 26  1  0
 29 28  1  0
 30 28  2  0
M  END
$$$$
