REQ.pdb
     RDKit          3D

 30 29  0  0  1  0  0  0  0  0999 V2000
   29.4352  -22.4154  -16.8545 N   0  0  0  0  0  0  0  0  0  0  0  0
   29.1567  -23.8114  -16.7841 C   0  0  0  0  0  0  0  0  0  0  0  0
   30.0396  -24.6084  -16.3045 N   0  0  0  0  0  0  0  0  0  0  0  0
   27.9056  -24.3018  -17.2454 N   0  0  0  0  0  0  0  0  0  0  0  0
   27.1740  -23.5658  -18.2953 C   0  0  0  0  0  0  0  0  0  0  0  0
   26.7069  -22.2617  -17.7573 C   0  0  0  0  0  0  0  0  0  0  0  0
   25.3623  -22.2159  -17.1653 C   0  0  0  0  0  0  0  0  0  0  0  0
   24.2052  -22.7315  -17.9365 C   0  0  2  0  0  0  0  0  0  0  0  0
   24.1792  -22.4311  -19.3302 N   0  0  0  0  0  0  0  0  0  0  0  0
   22.9112  -22.5406  -17.2370 C   0  0  0  0  0  0  0  0  0  0  0  0
   22.2943  -21.4382  -17.4136 O   0  0  0  0  0  0  0  0  0  0  0  0
   29.8816  -25.6592  -16.3623 N   0  0  0  0  0  0  0  0  0  0  0  0
   22.2733  -23.4673  -16.3762 C   0  0  2  0  0  0  0  0  0  0  0  0
   21.0529  -23.1928  -15.6744 C   0  0  0  0  0  0  0  0  0  0  0  0
   20.5099  -24.2521  -14.7913 C   0  0  0  0  0  0  0  0  0  0  0  0
   19.2282  -24.0423  -14.1087 C   0  0  0  0  0  0  0  0  0  0  0  0
   18.7964  -25.1035  -13.1830 O   0  0  0  0  0  0  0  0  0  0  0  0
   17.6896  -25.0756  -12.5851 C   0  0  0  0  0  0  0  0  0  0  0  0
   21.0210  -21.8353  -15.0731 O   0  0  0  0  0  0  0  0  0  0  0  0
   22.0210  -21.2516  -14.6082 O   0  0  0  0  0  0  0  0  0  0  0  0
   19.6069  -26.2090  -12.9208 N   0  0  0  0  0  0  0  0  0  0  0  0
   22.2716  -17.9949  -17.2842 C   0  0  0  0  0  0  0  0  0  0  0  0
   22.5068  -17.5764  -15.9233 O   0  0  0  0  0  0  0  0  0  0  0  0
   23.4854  -16.8545  -15.6551 C   0  0  0  0  0  0  0  0  0  0  0  0
   21.5423  -18.0486  -14.9115 C   0  0  0  0  0  0  0  0  0  0  0  0
   20.4954  -18.9235  -15.4951 C   0  0  2  0  0  0  0  0  0  0  0  0
   19.7106  -19.7484  -14.5077 N   0  0  0  0  0  0  0  0  0  0  0  0
   19.7893  -21.1252  -15.0061 C   0  0  0  0  0  0  0  0  0  0  0  0
   18.3045  -19.2800  -14.4753 O   0  0  0  0  0  0  0  0  0  0  0  0
   17.8954  -18.1700  -13.7575 O   0  0  0  0  0  0  0  0  0  0  0  0
  2  3  2  0
  2  1  1  0
  4  2  1  0
  5  4  1  0
  6  5  1  0
  7  6  1  0
  8  7  1  0
  8  9  1  6
 10 11  2  0
 10  8  1  0
 12 10  1  0
 13 18  1  0
 13 12  1  0
 13 14  1  6
 15 14  1  0
 16 17  2  0
 16 15  1  0
 18 27  1  0
 19 18  2  0
 20 16  1  0
 22 24  1  0
 22 21  1  0
 23 22  2  0
 26 25  1  1
 25 24  1  0
 27 26  1  0
 28 26  1  0
 29 28  1  0
 30 28  2  0
M  END
$$$$
