REQ.pdb
     RDKit          3D

 30 29  0  0  1  0  0  0  0  0999 V2000
   27.8236  -21.7971  -17.3389 N   0  0  0  0  0  0  0  0  0  0  0  0
   28.3990  -23.0421  -16.9511 C   0  0  0  0  0  0  0  0  0  0  0  0
   29.6536  -23.1051  -16.6930 N   0  0  0  0  0  0  0  0  0  0  0  0
   27.5760  -24.1962  -16.8553 N   0  0  0  0  0  0  0  0  0  0  0  0
   26.1751  -24.1356  -17.3170 C   0  0  0  0  0  0  0  0  0  0  0  0
   25.2695  -24.5703  -16.2220 C   0  0  0  0  0  0  0  0  0  0  0  0
   24.1986  -23.6464  -15.8219 C   0  0  0  0  0  0  0  0  0  0  0  0
   24.3885  -22.7755  -14.6366 C   0  0  2  0  0  0  0  0  0  0  0  0
   25.2571  -23.2628  -13.6161 N   0  0  0  0  0  0  0  0  0  0  0  0
   23.1205  -22.1857  -14.1418 C   0  0  0  0  0  0  0  0  0  0  0  0
   22.5531  -22.7418  -13.1439 O   0  0  0  0  0  0  0  0  0  0  0  0
   30.0917  -24.0455  -16.4557 N   0  0  0  0  0  0  0  0  0  0  0  0
   22.4572  -21.0499  -14.6677 C   0  0  1  0  0  0  0  0  0  0  0  0
   21.2740  -20.4803  -14.0907 C   0  0  0  0  0  0  0  0  0  0  0  0
   20.8939  -19.1090  -14.5051 C   0  0  0  0  0  0  0  0  0  0  0  0
   19.7125  -18.4723  -13.9120 C   0  0  0  0  0  0  0  0  0  0  0  0
   19.3841  -17.1200  -14.3948 O   0  0  0  0  0  0  0  0  0  0  0  0
   19.9970  -16.0918  -14.0069 C   0  0  0  0  0  0  0  0  0  0  0  0
   20.1341  -21.4312  -14.0449 O   0  0  0  0  0  0  0  0  0  0  0  0
   19.6846  -22.0341  -15.0405 O   0  0  0  0  0  0  0  0  0  0  0  0
   18.3612  -16.9108  -15.3210 N   0  0  0  0  0  0  0  0  0  0  0  0
   19.0954  -24.3159   -8.8349 C   0  0  0  0  0  0  0  0  0  0  0  0
   17.9603  -24.8754   -9.5287 O   0  0  0  0  0  0  0  0  0  0  0  0
   17.3073  -25.7993   -9.0084 C   0  0  0  0  0  0  0  0  0  0  0  0
   17.6427  -24.2972  -10.8484 C   0  0  0  0  0  0  0  0  0  0  0  0
   18.6141  -23.2515  -11.2548 C   0  0  1  0  0  0  0  0  0  0  0  0
   18.4677  -22.7386  -12.6644 N   0  0  0  0  0  0  0  0  0  0  0  0
   19.4896  -21.6961  -12.8039 C   0  0  0  0  0  0  0  0  0  0  0  0
   17.1100  -22.1726  -12.8488 O   0  0  0  0  0  0  0  0  0  0  0  0
   16.0442  -22.9109  -13.3322 O   0  0  0  0  0  0  0  0  0  0  0  0
  2  3  2  0
  2  1  1  0
  4  2  1  0
  5  4  1  0
  6  5  1  0
  7  6  1  0
  8  7  1  0
  8  9  1  1
 10 11  2  0
 10  8  1  0
 12 10  1  0
 13 18  1  0
 13 12  1  0
 13 14  1  1
 15 14  1  0
 16 17  2  0
 16 15  1  0
 18 27  1  0
 19 18  2  0
 20 16  1  0
 22 24  1  0
 22 21  1  0
 23 22  2  0
 26 25  1  6
 25 24  1  0
 27 26  1  0
 28 26  1  0
 29 28  1  0
 30 28  2  0
M  END
$$$$
