REQ.pdb
     RDKit          3D

 30 29  0  0  1  0  0  0  0  0999 V2000
   19.2708  -20.8176  -11.8489 N   0  0  0  0  0  0  0  0  0  0  0  0
   19.1987  -22.2409  -11.8260 C   0  0  0  0  0  0  0  0  0  0  0  0
   19.9522  -22.9242  -12.6071 N   0  0  0  0  0  0  0  0  0  0  0  0
   18.2942  -22.8837  -10.9390 N   0  0  0  0  0  0  0  0  0  0  0  0
   18.7589  -23.3130   -9.6052 C   0  0  0  0  0  0  0  0  0  0  0  0
   17.6245  -23.9020   -8.8471 C   0  0  0  0  0  0  0  0  0  0  0  0
   17.8912  -24.3594   -7.4760 C   0  0  0  0  0  0  0  0  0  0  0  0
   18.3036  -25.7645   -7.2406 C   0  0  2  0  0  0  0  0  0  0  0  0
   18.2143  -26.6532   -8.3521 N   0  0  0  0  0  0  0  0  0  0  0  0
   17.7855  -26.3143   -5.9641 C   0  0  0  0  0  0  0  0  0  0  0  0
   16.5368  -26.5621   -5.8842 O   0  0  0  0  0  0  0  0  0  0  0  0
   19.8987  -23.9869  -12.5870 N   0  0  0  0  0  0  0  0  0  0  0  0
   18.5411  -26.5993   -4.8003 C   0  0  2  0  0  0  0  0  0  0  0  0
   17.9620  -26.7963   -3.5030 C   0  0  0  0  0  0  0  0  0  0  0  0
   18.8767  -27.0942   -2.3755 C   0  0  0  0  0  0  0  0  0  0  0  0
   18.3236  -27.3668   -1.0441 C   0  0  0  0  0  0  0  0  0  0  0  0
   19.2925  -27.7075    0.0117 O   0  0  0  0  0  0  0  0  0  0  0  0
   19.7838  -28.8590    0.1382 C   0  0  0  0  0  0  0  0  0  0  0  0
   16.9130  -25.7968   -3.1770 O   0  0  0  0  0  0  0  0  0  0  0  0
   16.9005  -24.6275   -3.6122 O   0  0  0  0  0  0  0  0  0  0  0  0
   19.7195  -26.7540    0.9372 N   0  0  0  0  0  0  0  0  0  0  0  0
   14.0681  -22.9092   -4.8636 C   0  0  0  0  0  0  0  0  0  0  0  0
   12.8017  -23.1938   -4.2327 O   0  0  0  0  0  0  0  0  0  0  0  0
   11.8521  -22.3978   -4.3576 C   0  0  0  0  0  0  0  0  0  0  0  0
   12.7170  -24.4464   -3.4578 C   0  0  0  0  0  0  0  0  0  0  0  0
   14.0021  -25.1883   -3.4424 C   0  0  1  0  0  0  0  0  0  0  0  0
   14.6832  -25.2840   -2.1014 N   0  0  0  0  0  0  0  0  0  0  0  0
   15.8388  -26.1606   -2.3171 C   0  0  0  0  0  0  0  0  0  0  0  0
   13.7514  -25.8756   -1.1118 O   0  0  0  0  0  0  0  0  0  0  0  0
   13.9616  -27.1091   -0.5211 O   0  0  0  0  0  0  0  0  0  0  0  0
  2  3  2  0
  2  1  1  0
  4  2  1  0
  5  4  1  0
  6  5  1  0
  7  6  1  0
  8  7  1  0
  8  9  1  6
 10 11  2  0
 10  8  1  0
 12 10  1  0
 13 18  1  0
 13 12  1  0
 13 14  1  6
 15 14  1  0
 16 17  2  0
 16 15  1  0
 18 27  1  0
 19 18  2  0
 20 16  1  0
 22 24  1  0
 22 21  1  0
 23 22  2  0
 26 25  1  6
 25 24  1  0
 27 26  1  0
 28 26  1  0
 29 28  1  0
 30 28  2  0
M  END
$$$$
