REQ.pdb
     RDKit          3D

 30 29  0  0  1  0  0  0  0  0999 V2000
   21.4969  -29.6526  -10.1145 N   0  0  0  0  0  0  0  0  0  0  0  0
   21.0504  -29.6690  -11.4679 C   0  0  0  0  0  0  0  0  0  0  0  0
   21.1157  -30.7583  -12.1416 N   0  0  0  0  0  0  0  0  0  0  0  0
   20.5389  -28.4795  -12.0528 N   0  0  0  0  0  0  0  0  0  0  0  0
   20.3239  -27.2853  -11.2121 C   0  0  0  0  0  0  0  0  0  0  0  0
   18.9548  -26.7545  -11.4399 C   0  0  0  0  0  0  0  0  0  0  0  0
   18.8220  -25.3149  -11.7054 C   0  0  0  0  0  0  0  0  0  0  0  0
   19.4172  -24.3387  -10.7607 C   0  0  2  0  0  0  0  0  0  0  0  0
   18.8170  -24.2480   -9.4705 N   0  0  0  0  0  0  0  0  0  0  0  0
   19.7254  -23.0333  -11.3942 C   0  0  0  0  0  0  0  0  0  0  0  0
   18.9107  -22.0705  -11.2038 O   0  0  0  0  0  0  0  0  0  0  0  0
   20.7225  -30.7857  -13.1302 N   0  0  0  0  0  0  0  0  0  0  0  0
   20.8478  -22.7334  -12.2046 C   0  0  2  0  0  0  0  0  0  0  0  0
   20.9993  -21.5073  -12.9333 C   0  0  0  0  0  0  0  0  0  0  0  0
   22.3493  -21.1676  -13.4420 C   0  0  0  0  0  0  0  0  0  0  0  0
   22.5653  -19.8913  -14.1328 C   0  0  0  0  0  0  0  0  0  0  0  0
   23.9350  -19.6237  -14.6039 O   0  0  0  0  0  0  0  0  0  0  0  0
   24.8838  -20.4318  -14.4308 C   0  0  0  0  0  0  0  0  0  0  0  0
   19.9116  -21.2785  -13.9184 O   0  0  0  0  0  0  0  0  0  0  0  0
   19.4545  -22.1598  -14.6742 O   0  0  0  0  0  0  0  0  0  0  0  0
   24.2513  -18.4421  -15.2760 N   0  0  0  0  0  0  0  0  0  0  0  0
   14.9250  -18.6278  -12.6940 C   0  0  0  0  0  0  0  0  0  0  0  0
   14.7341  -19.8060  -13.5051 O   0  0  0  0  0  0  0  0  0  0  0  0
   13.6384  -20.3979  -13.4935 C   0  0  0  0  0  0  0  0  0  0  0  0
   15.8864  -20.2428  -14.3164 C   0  0  0  0  0  0  0  0  0  0  0  0
   17.0583  -19.3457  -14.1608 C   0  0  2  0  0  0  0  0  0  0  0  0
   18.2621  -19.6952  -14.9973 N   0  0  0  0  0  0  0  0  0  0  0  0
   19.3300  -19.9847  -14.0350 C   0  0  0  0  0  0  0  0  0  0  0  0
   18.6243  -18.5408  -15.8538 O   0  0  0  0  0  0  0  0  0  0  0  0
   19.8332  -17.8753  -15.7514 O   0  0  0  0  0  0  0  0  0  0  0  0
  2  3  2  0
  2  1  1  0
  4  2  1  0
  5  4  1  0
  6  5  1  0
  7  6  1  0
  8  7  1  0
  8  9  1  1
 10 11  2  0
 10  8  1  0
 12 10  1  0
 13 18  1  0
 13 12  1  0
 13 14  1  1
 15 14  1  0
 16 17  2  0
 16 15  1  0
 18 27  1  0
 19 18  2  0
 20 16  1  0
 22 24  1  0
 22 21  1  0
 23 22  2  0
 26 25  1  1
 25 24  1  0
 27 26  1  0
 28 26  1  0
 29 28  1  0
 30 28  2  0
M  END
$$$$
