REQ.pdb
     RDKit          3D

 30 29  0  0  1  0  0  0  0  0999 V2000
   24.1377  -20.1412   -9.7223 N   0  0  0  0  0  0  0  0  0  0  0  0
   24.8430  -20.9839   -8.8147 C   0  0  0  0  0  0  0  0  0  0  0  0
   24.2412  -21.4396   -7.7779 N   0  0  0  0  0  0  0  0  0  0  0  0
   26.2025  -21.3083   -9.0700 N   0  0  0  0  0  0  0  0  0  0  0  0
   26.7065  -21.3059  -10.4575 C   0  0  0  0  0  0  0  0  0  0  0  0
   26.4312  -19.9879  -11.0863 C   0  0  0  0  0  0  0  0  0  0  0  0
   25.5390  -19.9678  -12.2542 C   0  0  0  0  0  0  0  0  0  0  0  0
   25.9416  -20.6741  -13.4947 C   0  0  2  0  0  0  0  0  0  0  0  0
   27.2154  -21.3149  -13.4824 N   0  0  0  0  0  0  0  0  0  0  0  0
   25.6503  -19.8972  -14.7243 C   0  0  0  0  0  0  0  0  0  0  0  0
   24.6213  -19.1434  -14.7241 O   0  0  0  0  0  0  0  0  0  0  0  0
   24.7671  -22.0752   -7.1055 N   0  0  0  0  0  0  0  0  0  0  0  0
   26.4048  -19.9019  -15.9231 C   0  0  1  0  0  0  0  0  0  0  0  0
   26.1414  -19.0329  -17.0334 C   0  0  0  0  0  0  0  0  0  0  0  0
   27.2918  -18.6028  -17.8630 C   0  0  0  0  0  0  0  0  0  0  0  0
   27.0722  -17.6951  -18.9947 C   0  0  0  0  0  0  0  0  0  0  0  0
   28.2556  -17.3574  -19.8041 O   0  0  0  0  0  0  0  0  0  0  0  0
   29.0415  -18.2296  -20.2568 C   0  0  0  0  0  0  0  0  0  0  0  0
   24.9521  -19.4430  -17.8229 O   0  0  0  0  0  0  0  0  0  0  0  0
   24.8640  -20.5188  -18.4487 O   0  0  0  0  0  0  0  0  0  0  0  0
   28.5668  -16.0324  -20.1132 N   0  0  0  0  0  0  0  0  0  0  0  0
   22.0845  -20.9424  -14.1261 C   0  0  0  0  0  0  0  0  0  0  0  0
   20.8676  -20.9240  -14.9016 O   0  0  0  0  0  0  0  0  0  0  0  0
   19.8398  -21.4702  -14.4586 C   0  0  0  0  0  0  0  0  0  0  0  0
   20.9271  -20.2394  -16.2072 C   0  0  0  0  0  0  0  0  0  0  0  0
   22.2932  -19.7575  -16.5298 C   0  0  1  0  0  0  0  0  0  0  0  0
   22.4490  -19.0913  -17.8726 N   0  0  0  0  0  0  0  0  0  0  0  0
   23.8230  -18.5793  -17.8923 C   0  0  0  0  0  0  0  0  0  0  0  0
   21.4725  -17.9825  -17.9936 O   0  0  0  0  0  0  0  0  0  0  0  0
   21.7562  -16.6825  -17.6141 O   0  0  0  0  0  0  0  0  0  0  0  0
  2  3  2  0
  2  1  1  0
  4  2  1  0
  5  4  1  0
  6  5  1  0
  7  6  1  0
  8  7  1  0
  8  9  1  1
 10 11  2  0
 10  8  1  0
 12 10  1  0
 13 18  1  0
 13 12  1  0
 13 14  1  1
 15 14  1  0
 16 17  2  0
 16 15  1  0
 18 27  1  0
 19 18  2  0
 20 16  1  0
 22 24  1  0
 22 21  1  0
 23 22  2  0
 26 25  1  6
 25 24  1  0
 27 26  1  0
 28 26  1  0
 29 28  1  0
 30 28  2  0
M  END
$$$$
