REQ.pdb
     RDKit          3D

 30 29  0  0  1  0  0  0  0  0999 V2000
   23.1758  -23.0491  -17.0146 N   0  0  0  0  0  0  0  0  0  0  0  0
   24.4892  -23.5235  -16.7294 C   0  0  0  0  0  0  0  0  0  0  0  0
   25.2940  -23.7745  -17.6959 N   0  0  0  0  0  0  0  0  0  0  0  0
   24.8898  -23.7118  -15.3794 N   0  0  0  0  0  0  0  0  0  0  0  0
   23.9389  -23.4234  -14.2876 C   0  0  0  0  0  0  0  0  0  0  0  0
   24.6395  -23.5098  -12.9799 C   0  0  0  0  0  0  0  0  0  0  0  0
   25.6883  -22.5170  -12.7065 C   0  0  0  0  0  0  0  0  0  0  0  0
   25.3295  -21.2345  -12.0537 C   0  0  2  0  0  0  0  0  0  0  0  0
   24.9904  -21.2929  -10.6700 N   0  0  0  0  0  0  0  0  0  0  0  0
   24.4246  -20.3976  -12.8790 C   0  0  0  0  0  0  0  0  0  0  0  0
   23.5378  -19.7056  -12.2774 O   0  0  0  0  0  0  0  0  0  0  0  0
   26.2648  -24.1547  -17.4822 N   0  0  0  0  0  0  0  0  0  0  0  0
   24.4376  -20.2811  -14.2906 C   0  0  2  0  0  0  0  0  0  0  0  0
   23.6182  -19.3579  -15.0212 C   0  0  0  0  0  0  0  0  0  0  0  0
   23.9904  -19.0647  -16.4255 C   0  0  0  0  0  0  0  0  0  0  0  0
   23.1940  -18.1092  -17.2037 C   0  0  0  0  0  0  0  0  0  0  0  0
   23.5863  -17.9207  -18.6109 O   0  0  0  0  0  0  0  0  0  0  0  0
   24.5541  -18.5307  -19.1347 C   0  0  0  0  0  0  0  0  0  0  0  0
   22.1645  -19.5866  -14.8208 O   0  0  0  0  0  0  0  0  0  0  0  0
   21.6025  -20.6908  -14.9681 O   0  0  0  0  0  0  0  0  0  0  0  0
   22.8917  -17.0427  -19.4444 N   0  0  0  0  0  0  0  0  0  0  0  0
   18.3505  -14.7735  -14.3761 C   0  0  0  0  0  0  0  0  0  0  0  0
   17.3722  -15.7863  -14.0600 O   0  0  0  0  0  0  0  0  0  0  0  0
   16.1784  -15.4693  -13.9010 C   0  0  0  0  0  0  0  0  0  0  0  0
   17.8694  -17.1703  -13.9420 C   0  0  0  0  0  0  0  0  0  0  0  0
   19.3079  -17.2845  -14.2883 C   0  0  2  0  0  0  0  0  0  0  0  0
   19.8922  -18.6707  -14.1967 N   0  0  0  0  0  0  0  0  0  0  0  0
   21.3289  -18.5006  -14.4360 C   0  0  0  0  0  0  0  0  0  0  0  0
   19.2844  -19.5359  -15.2357 O   0  0  0  0  0  0  0  0  0  0  0  0
   19.4189  -19.2947  -16.5916 O   0  0  0  0  0  0  0  0  0  0  0  0
  2  3  2  0
  2  1  1  0
  4  2  1  0
  5  4  1  0
  6  5  1  0
  7  6  1  0
  8  7  1  0
  8  9  1  1
 10 11  2  0
 10  8  1  0
 12 10  1  0
 13 18  1  0
 13 12  1  0
 13 14  1  1
 15 14  1  0
 16 17  2  0
 16 15  1  0
 18 27  1  0
 19 18  2  0
 20 16  1  0
 22 24  1  0
 22 21  1  0
 23 22  2  0
 26 25  1  1
 25 24  1  0
 27 26  1  0
 28 26  1  0
 29 28  1  0
 30 28  2  0
M  END
$$$$
