REQ.pdb
     RDKit          3D

 30 29  0  0  1  0  0  0  0  0999 V2000
   28.0769  -20.3491   -7.3548 N   0  0  0  0  0  0  0  0  0  0  0  0
   26.8276  -20.1601   -6.6953 C   0  0  0  0  0  0  0  0  0  0  0  0
   26.8108  -19.8387   -5.4539 N   0  0  0  0  0  0  0  0  0  0  0  0
   25.6181  -20.3298   -7.4210 N   0  0  0  0  0  0  0  0  0  0  0  0
   25.6262  -21.0851   -8.6894 C   0  0  0  0  0  0  0  0  0  0  0  0
   26.5898  -20.4632   -9.6343 C   0  0  0  0  0  0  0  0  0  0  0  0
   26.0398  -19.8122  -10.8318 C   0  0  0  0  0  0  0  0  0  0  0  0
   25.3645  -20.6331  -11.8661 C   0  0  2  0  0  0  0  0  0  0  0  0
   25.9673  -21.8856  -12.1842 N   0  0  0  0  0  0  0  0  0  0  0  0
   24.9264  -19.8399  -13.0406 C   0  0  0  0  0  0  0  0  0  0  0  0
   24.1694  -18.8346  -12.8330 O   0  0  0  0  0  0  0  0  0  0  0  0
   25.8773  -19.6841   -4.9667 N   0  0  0  0  0  0  0  0  0  0  0  0
   25.2633  -20.0825  -14.3949 C   0  0  1  0  0  0  0  0  0  0  0  0
   24.8813  -19.2221  -15.4771 C   0  0  0  0  0  0  0  0  0  0  0  0
   25.8801  -18.9646  -16.5414 C   0  0  0  0  0  0  0  0  0  0  0  0
   25.5938  -17.9695  -17.5808 C   0  0  0  0  0  0  0  0  0  0  0  0
   26.6043  -17.8197  -18.6420 O   0  0  0  0  0  0  0  0  0  0  0  0
   27.0426  -18.7944  -19.3062 C   0  0  0  0  0  0  0  0  0  0  0  0
   23.5166  -19.5048  -15.9904 O   0  0  0  0  0  0  0  0  0  0  0  0
   23.0612  -20.6519  -16.1740 O   0  0  0  0  0  0  0  0  0  0  0  0
   27.1324  -16.5694  -18.9672 N   0  0  0  0  0  0  0  0  0  0  0  0
   18.0158  -16.7617  -16.7753 C   0  0  0  0  0  0  0  0  0  0  0  0
   17.9924  -17.7331  -15.7083 O   0  0  0  0  0  0  0  0  0  0  0  0
   16.9043  -18.1061  -15.2309 C   0  0  0  0  0  0  0  0  0  0  0  0
   19.2999  -18.2319  -15.2409 C   0  0  0  0  0  0  0  0  0  0  0  0
   20.4313  -17.6524  -16.0066 C   0  0  2  0  0  0  0  0  0  0  0  0
   21.2734  -18.6400  -16.7727 N   0  0  0  0  0  0  0  0  0  0  0  0
   22.6455  -18.4235  -16.3029 C   0  0  0  0  0  0  0  0  0  0  0  0
   21.1648  -18.3644  -18.2252 O   0  0  0  0  0  0  0  0  0  0  0  0
   20.6405  -19.2723  -19.1282 O   0  0  0  0  0  0  0  0  0  0  0  0
  2  3  2  0
  2  1  1  0
  4  2  1  0
  5  4  1  0
  6  5  1  0
  7  6  1  0
  8  7  1  0
  8  9  1  6
 10 11  2  0
 10  8  1  0
 12 10  1  0
 13 18  1  0
 13 12  1  0
 13 14  1  1
 15 14  1  0
 16 17  2  0
 16 15  1  0
 18 27  1  0
 19 18  2  0
 20 16  1  0
 22 24  1  0
 22 21  1  0
 23 22  2  0
 26 25  1  1
 25 24  1  0
 27 26  1  0
 28 26  1  0
 29 28  1  0
 30 28  2  0
M  END
$$$$
