REQ.pdb
     RDKit          3D

 30 29  0  0  1  0  0  0  0  0999 V2000
   23.7797  -32.0928  -14.1766 N   0  0  0  0  0  0  0  0  0  0  0  0
   22.8522  -32.2249  -15.2507 C   0  0  0  0  0  0  0  0  0  0  0  0
   22.8113  -33.3186  -15.9192 N   0  0  0  0  0  0  0  0  0  0  0  0
   21.9856  -31.1443  -15.5667 N   0  0  0  0  0  0  0  0  0  0  0  0
   22.0170  -29.9178  -14.7458 C   0  0  0  0  0  0  0  0  0  0  0  0
   21.3946  -30.1864  -13.4234 C   0  0  0  0  0  0  0  0  0  0  0  0
   21.2040  -29.0428  -12.5199 C   0  0  0  0  0  0  0  0  0  0  0  0
   19.9409  -28.2675  -12.5773 C   0  0  2  0  0  0  0  0  0  0  0  0
   19.6339  -27.6341  -13.8173 N   0  0  0  0  0  0  0  0  0  0  0  0
   19.7260  -27.4205  -11.3786 C   0  0  0  0  0  0  0  0  0  0  0  0
   20.0139  -27.9155  -10.2388 O   0  0  0  0  0  0  0  0  0  0  0  0
   22.1174  -33.4157  -16.7203 N   0  0  0  0  0  0  0  0  0  0  0  0
   19.2251  -26.0957  -11.3612 C   0  0  1  0  0  0  0  0  0  0  0  0
   19.1171  -25.3005  -10.1723 C   0  0  0  0  0  0  0  0  0  0  0  0
   19.1520  -23.8263  -10.3209 C   0  0  0  0  0  0  0  0  0  0  0  0
   19.1552  -23.2314  -11.6622 C   0  0  0  0  0  0  0  0  0  0  0  0
   18.1268  -22.2114  -11.9299 O   0  0  0  0  0  0  0  0  0  0  0  0
   17.3446  -21.7846  -11.0415 C   0  0  0  0  0  0  0  0  0  0  0  0
   18.0653  -25.7853   -9.2425 O   0  0  0  0  0  0  0  0  0  0  0  0
   16.9998  -26.3214   -9.6087 O   0  0  0  0  0  0  0  0  0  0  0  0
   17.9685  -21.6600  -13.2023 N   0  0  0  0  0  0  0  0  0  0  0  0
   19.5367  -26.6226   -3.3477 C   0  0  0  0  0  0  0  0  0  0  0  0
   18.1555  -27.0225   -3.2252 O   0  0  0  0  0  0  0  0  0  0  0  0
   17.7219  -27.4337   -2.1326 C   0  0  0  0  0  0  0  0  0  0  0  0
   17.3268  -26.9148   -4.4411 C   0  0  0  0  0  0  0  0  0  0  0  0
   18.0821  -26.3589   -5.5912 C   0  0  2  0  0  0  0  0  0  0  0  0
   17.2991  -26.1991   -6.8690 N   0  0  0  0  0  0  0  0  0  0  0  0
   18.2506  -25.6463   -7.8382 C   0  0  0  0  0  0  0  0  0  0  0  0
   16.1708  -25.2636   -6.6468 O   0  0  0  0  0  0  0  0  0  0  0  0
   14.8933  -25.6857   -6.3236 O   0  0  0  0  0  0  0  0  0  0  0  0
  2  3  2  0
  2  1  1  0
  4  2  1  0
  5  4  1  0
  6  5  1  0
  7  6  1  0
  8  7  1  0
  8  9  1  6
 10 11  2  0
 10  8  1  0
 12 10  1  0
 13 18  1  0
 13 12  1  0
 13 14  1  6
 15 14  1  0
 16 17  2  0
 16 15  1  0
 18 27  1  0
 19 18  2  0
 20 16  1  0
 22 24  1  0
 22 21  1  0
 23 22  2  0
 26 25  1  6
 25 24  1  0
 27 26  1  0
 28 26  1  0
 29 28  1  0
 30 28  2  0
M  END
$$$$
