REQ.pdb
     RDKit          3D

 30 29  0  0  1  0  0  0  0  0999 V2000
   26.6191  -25.8114  -16.1478 N   0  0  0  0  0  0  0  0  0  0  0  0
   25.3254  -26.4080  -16.1873 C   0  0  0  0  0  0  0  0  0  0  0  0
   25.2162  -27.6654  -16.4149 N   0  0  0  0  0  0  0  0  0  0  0  0
   24.1743  -25.6031  -15.9739 N   0  0  0  0  0  0  0  0  0  0  0  0
   24.3228  -24.1433  -15.8121 C   0  0  0  0  0  0  0  0  0  0  0  0
   22.9860  -23.5242  -15.6172 C   0  0  0  0  0  0  0  0  0  0  0  0
   22.9355  -22.0678  -15.4259 C   0  0  0  0  0  0  0  0  0  0  0  0
   24.0111  -21.3927  -14.6597 C   0  0  2  0  0  0  0  0  0  0  0  0
   24.0224  -21.6038  -13.2495 N   0  0  0  0  0  0  0  0  0  0  0  0
   24.2245  -19.9855  -15.0776 C   0  0  0  0  0  0  0  0  0  0  0  0
   23.3486  -19.1228  -14.7380 O   0  0  0  0  0  0  0  0  0  0  0  0
   24.2481  -28.0974  -16.5089 N   0  0  0  0  0  0  0  0  0  0  0  0
   25.3165  -19.4854  -15.8284 C   0  0  2  0  0  0  0  0  0  0  0  0
   25.4244  -18.1241  -16.2674 C   0  0  0  0  0  0  0  0  0  0  0  0
   26.7292  -17.6727  -16.8063 C   0  0  0  0  0  0  0  0  0  0  0  0
   27.9733  -18.1693  -16.2075 C   0  0  0  0  0  0  0  0  0  0  0  0
   28.8518  -18.9634  -17.0836 O   0  0  0  0  0  0  0  0  0  0  0  0
   29.4976  -18.4578  -18.0378 C   0  0  0  0  0  0  0  0  0  0  0  0
   24.2570  -17.6779  -17.0696 O   0  0  0  0  0  0  0  0  0  0  0  0
   23.4365  -18.4522  -17.6027 O   0  0  0  0  0  0  0  0  0  0  0  0
   29.0130  -20.3367  -16.8940 N   0  0  0  0  0  0  0  0  0  0  0  0
   19.1203  -16.3223  -16.3330 C   0  0  0  0  0  0  0  0  0  0  0  0
   19.7863  -15.1232  -15.8845 O   0  0  0  0  0  0  0  0  0  0  0  0
   19.1669  -14.2868  -15.2006 C   0  0  0  0  0  0  0  0  0  0  0  0
   21.1987  -14.9650  -16.2805 C   0  0  0  0  0  0  0  0  0  0  0  0
   21.6773  -16.0882  -17.1242 C   0  0  1  0  0  0  0  0  0  0  0  0
   22.8645  -15.7845  -18.0013 N   0  0  0  0  0  0  0  0  0  0  0  0
   24.0281  -16.2866  -17.2635 C   0  0  0  0  0  0  0  0  0  0  0  0
   22.9660  -14.3205  -18.2110 O   0  0  0  0  0  0  0  0  0  0  0  0
   22.0961  -13.6123  -19.0211 O   0  0  0  0  0  0  0  0  0  0  0  0
  2  3  2  0
  2  1  1  0
  4  2  1  0
  5  4  1  0
  6  5  1  0
  7  6  1  0
  8  7  1  0
  8  9  1  1
 10 11  2  0
 10  8  1  0
 12 10  1  0
 13 18  1  0
 13 12  1  0
 13 14  1  1
 15 14  1  0
 16 17  2  0
 16 15  1  0
 18 27  1  0
 19 18  2  0
 20 16  1  0
 22 24  1  0
 22 21  1  0
 23 22  2  0
 26 25  1  6
 25 24  1  0
 27 26  1  0
 28 26  1  0
 29 28  1  0
 30 28  2  0
M  END
$$$$
