REQ.pdb
     RDKit          3D

 30 29  0  0  1  0  0  0  0  0999 V2000
   17.5725  -16.5224  -17.8373 N   0  0  0  0  0  0  0  0  0  0  0  0
   18.7663  -17.0132  -18.4416 C   0  0  0  0  0  0  0  0  0  0  0  0
   18.9797  -18.2771  -18.4835 N   0  0  0  0  0  0  0  0  0  0  0  0
   19.7037  -16.0970  -18.9896 N   0  0  0  0  0  0  0  0  0  0  0  0
   19.6390  -14.6713  -18.6122 C   0  0  0  0  0  0  0  0  0  0  0  0
   20.6483  -13.9036  -19.3869 C   0  0  0  0  0  0  0  0  0  0  0  0
   20.6975  -12.4492  -19.1806 C   0  0  0  0  0  0  0  0  0  0  0  0
   20.3994  -11.8898  -17.8398 C   0  0  2  0  0  0  0  0  0  0  0  0
   19.2438  -12.3975  -17.1763 N   0  0  0  0  0  0  0  0  0  0  0  0
   20.5506  -10.4154  -17.7803 C   0  0  0  0  0  0  0  0  0  0  0  0
   19.9371   -9.7169  -18.6538 O   0  0  0  0  0  0  0  0  0  0  0  0
   19.8994  -18.6391  -18.8782 N   0  0  0  0  0  0  0  0  0  0  0  0
   21.3180   -9.6837  -16.8411 C   0  0  1  0  0  0  0  0  0  0  0  0
   21.3684   -8.2509  -16.7973 C   0  0  0  0  0  0  0  0  0  0  0  0
   21.5768   -7.6064  -15.4790 C   0  0  0  0  0  0  0  0  0  0  0  0
   21.6478   -6.1437  -15.3887 C   0  0  0  0  0  0  0  0  0  0  0  0
   21.9090   -5.5806  -14.0529 O   0  0  0  0  0  0  0  0  0  0  0  0
   22.8242   -6.0071  -13.3021 C   0  0  0  0  0  0  0  0  0  0  0  0
   22.1881   -7.6647  -17.8882 O   0  0  0  0  0  0  0  0  0  0  0  0
   23.0669   -8.2888  -18.5167 O   0  0  0  0  0  0  0  0  0  0  0  0
   21.1417   -4.5298  -13.5478 N   0  0  0  0  0  0  0  0  0  0  0  0
   22.4685   -6.4016  -23.2886 C   0  0  0  0  0  0  0  0  0  0  0  0
   23.3783   -7.3299  -22.6616 O   0  0  0  0  0  0  0  0  0  0  0  0
   24.0731   -8.0891  -23.3629 C   0  0  0  0  0  0  0  0  0  0  0  0
   23.4230   -7.3163  -21.1869 C   0  0  0  0  0  0  0  0  0  0  0  0
   22.3403   -6.4903  -20.5973 C   0  0  2  0  0  0  0  0  0  0  0  0
   22.7208   -5.6919  -19.3770 N   0  0  0  0  0  0  0  0  0  0  0  0
   21.9855   -6.3080  -18.2679 C   0  0  0  0  0  0  0  0  0  0  0  0
   22.3110   -4.2791  -19.5596 O   0  0  0  0  0  0  0  0  0  0  0  0
   21.2902   -3.6899  -18.8347 O   0  0  0  0  0  0  0  0  0  0  0  0
  2  3  2  0
  2  1  1  0
  4  2  1  0
  5  4  1  0
  6  5  1  0
  7  6  1  0
  8  7  1  0
  8  9  1  6
 10 11  2  0
 10  8  1  0
 12 10  1  0
 13 18  1  0
 13 12  1  0
 13 14  1  1
 15 14  1  0
 16 17  2  0
 16 15  1  0
 18 27  1  0
 19 18  2  0
 20 16  1  0
 22 24  1  0
 22 21  1  0
 23 22  2  0
 26 25  1  1
 25 24  1  0
 27 26  1  0
 28 26  1  0
 29 28  1  0
 30 28  2  0
M  END
$$$$
