REQ.pdb
     RDKit          3D

 30 29  0  0  1  0  0  0  0  0999 V2000
   20.0886  -16.6366  -18.5600 N   0  0  0  0  0  0  0  0  0  0  0  0
   18.6977  -16.3770  -18.3889 C   0  0  0  0  0  0  0  0  0  0  0  0
   18.0167  -17.0950  -17.5732 N   0  0  0  0  0  0  0  0  0  0  0  0
   18.0840  -15.3270  -19.1233 N   0  0  0  0  0  0  0  0  0  0  0  0
   18.8610  -14.5986  -20.1456 C   0  0  0  0  0  0  0  0  0  0  0  0
   19.2971  -13.2870  -19.6001 C   0  0  0  0  0  0  0  0  0  0  0  0
   20.1221  -12.4335  -20.4670 C   0  0  0  0  0  0  0  0  0  0  0  0
   21.5578  -12.7534  -20.6564 C   0  0  2  0  0  0  0  0  0  0  0  0
   21.8950  -14.1328  -20.7865 N   0  0  0  0  0  0  0  0  0  0  0  0
   22.4475  -11.9801  -19.7558 C   0  0  0  0  0  0  0  0  0  0  0  0
   22.3550  -12.1901  -18.5011 O   0  0  0  0  0  0  0  0  0  0  0  0
   16.9763  -16.9057  -17.4534 N   0  0  0  0  0  0  0  0  0  0  0  0
   23.4073  -11.0138  -20.1450 C   0  0  1  0  0  0  0  0  0  0  0  0
   24.2923  -10.3559  -19.2278 C   0  0  0  0  0  0  0  0  0  0  0  0
   25.7467  -10.4169  -19.5062 C   0  0  0  0  0  0  0  0  0  0  0  0
   26.6970   -9.8790  -18.5262 C   0  0  0  0  0  0  0  0  0  0  0  0
   28.1265  -10.0245  -18.8502 O   0  0  0  0  0  0  0  0  0  0  0  0
   28.5322  -10.5872  -19.9000 C   0  0  0  0  0  0  0  0  0  0  0  0
   23.8144   -9.0089  -18.8241 O   0  0  0  0  0  0  0  0  0  0  0  0
   23.3330   -8.1710  -19.6134 O   0  0  0  0  0  0  0  0  0  0  0  0
   29.1157   -9.5369  -17.9948 N   0  0  0  0  0  0  0  0  0  0  0  0
   21.8407   -9.5645  -14.3055 C   0  0  0  0  0  0  0  0  0  0  0  0
   20.9320   -8.5121  -14.6916 O   0  0  0  0  0  0  0  0  0  0  0  0
   19.7147   -8.6230  -14.4528 C   0  0  0  0  0  0  0  0  0  0  0  0
   21.5257   -7.3412  -15.3648 C   0  0  0  0  0  0  0  0  0  0  0  0
   22.9848   -7.4974  -15.5859 C   0  0  2  0  0  0  0  0  0  0  0  0
   23.4548   -7.2924  -17.0031 N   0  0  0  0  0  0  0  0  0  0  0  0
   23.8950   -8.6148  -17.4589 C   0  0  0  0  0  0  0  0  0  0  0  0
   24.5810   -6.3286  -17.0188 O   0  0  0  0  0  0  0  0  0  0  0  0
   25.5895   -6.3311  -16.0713 O   0  0  0  0  0  0  0  0  0  0  0  0
  2  3  2  0
  2  1  1  0
  4  2  1  0
  5  4  1  0
  6  5  1  0
  7  6  1  0
  8  7  1  0
  8  9  1  1
 10 11  2  0
 10  8  1  0
 12 10  1  0
 13 18  1  0
 13 12  1  0
 13 14  1  1
 15 14  1  0
 16 17  2  0
 16 15  1  0
 18 27  1  0
 19 18  2  0
 20 16  1  0
 22 24  1  0
 22 21  1  0
 23 22  2  0
 26 25  1  6
 25 24  1  0
 27 26  1  0
 28 26  1  0
 29 28  1  0
 30 28  2  0
M  END
$$$$
