REQ.pdb
     RDKit          3D

 30 29  0  0  1  0  0  0  0  0999 V2000
   27.6487  -28.7333  -17.4982 N   0  0  0  0  0  0  0  0  0  0  0  0
   28.9892  -29.1842  -17.6749 C   0  0  0  0  0  0  0  0  0  0  0  0
   29.2385  -30.4422  -17.6699 N   0  0  0  0  0  0  0  0  0  0  0  0
   30.0311  -28.2351  -17.8545 N   0  0  0  0  0  0  0  0  0  0  0  0
   29.7043  -26.7981  -17.9402 C   0  0  0  0  0  0  0  0  0  0  0  0
   28.3111  -26.5744  -17.4741 C   0  0  0  0  0  0  0  0  0  0  0  0
   28.0649  -25.4125  -16.6082 C   0  0  0  0  0  0  0  0  0  0  0  0
   28.7764  -24.1385  -16.8734 C   0  0  2  0  0  0  0  0  0  0  0  0
   30.1606  -24.0951  -16.5337 N   0  0  0  0  0  0  0  0  0  0  0  0
   27.9992  -22.9442  -16.4612 C   0  0  0  0  0  0  0  0  0  0  0  0
   28.1638  -22.5053  -15.2749 O   0  0  0  0  0  0  0  0  0  0  0  0
   30.2452  -30.7758  -17.7591 N   0  0  0  0  0  0  0  0  0  0  0  0
   27.0749  -22.2238  -17.2570 C   0  0  1  0  0  0  0  0  0  0  0  0
   26.2292  -21.1823  -16.7497 C   0  0  0  0  0  0  0  0  0  0  0  0
   26.0866  -19.9505  -17.5616 C   0  0  0  0  0  0  0  0  0  0  0  0
   27.2368  -19.4411  -18.3167 C   0  0  0  0  0  0  0  0  0  0  0  0
   27.0046  -18.2373  -19.1331 O   0  0  0  0  0  0  0  0  0  0  0  0
   27.8948  -17.3717  -19.3371 C   0  0  0  0  0  0  0  0  0  0  0  0
   24.9465  -21.6911  -16.2005 O   0  0  0  0  0  0  0  0  0  0  0  0
   24.6397  -22.8991  -16.1423 O   0  0  0  0  0  0  0  0  0  0  0  0
   25.7662  -17.9951  -19.7296 N   0  0  0  0  0  0  0  0  0  0  0  0
   25.2484  -22.9568  -11.3302 C   0  0  0  0  0  0  0  0  0  0  0  0
   25.2152  -21.5206  -11.1931 O   0  0  0  0  0  0  0  0  0  0  0  0
   26.0360  -20.9477  -10.4521 C   0  0  0  0  0  0  0  0  0  0  0  0
   24.1781  -20.8077  -11.9631 C   0  0  0  0  0  0  0  0  0  0  0  0
   24.5250  -20.6885  -13.4010 C   0  0  2  0  0  0  0  0  0  0  0  0
   23.3897  -20.9142  -14.3662 N   0  0  0  0  0  0  0  0  0  0  0  0
   23.9826  -20.7713  -15.6998 C   0  0  0  0  0  0  0  0  0  0  0  0
   22.3390  -19.8922  -14.1452 O   0  0  0  0  0  0  0  0  0  0  0  0
   21.2472  -20.0987  -13.3206 O   0  0  0  0  0  0  0  0  0  0  0  0
  2  3  2  0
  2  1  1  0
  4  2  1  0
  5  4  1  0
  6  5  1  0
  7  6  1  0
  8  7  1  0
  8  9  1  1
 10 11  2  0
 10  8  1  0
 12 10  1  0
 13 18  1  0
 13 12  1  0
 13 14  1  1
 15 14  1  0
 16 17  2  0
 16 15  1  0
 18 27  1  0
 19 18  2  0
 20 16  1  0
 22 24  1  0
 22 21  1  0
 23 22  2  0
 26 25  1  6
 25 24  1  0
 27 26  1  0
 28 26  1  0
 29 28  1  0
 30 28  2  0
M  END
$$$$
