REQ.pdb
     RDKit          3D

 30 29  0  0  1  0  0  0  0  0999 V2000
   16.2575  -15.3237  -19.9983 N   0  0  0  0  0  0  0  0  0  0  0  0
   16.8499  -16.5991  -19.7667 C   0  0  0  0  0  0  0  0  0  0  0  0
   16.2206  -17.6607  -20.1153 N   0  0  0  0  0  0  0  0  0  0  0  0
   18.1291  -16.6779  -19.1535 N   0  0  0  0  0  0  0  0  0  0  0  0
   18.8015  -15.4432  -18.7034 C   0  0  0  0  0  0  0  0  0  0  0  0
   17.8504  -14.3035  -18.7723 C   0  0  0  0  0  0  0  0  0  0  0  0
   18.3780  -12.9627  -18.4822 C   0  0  0  0  0  0  0  0  0  0  0  0
   18.6196  -12.5600  -17.0753 C   0  0  2  0  0  0  0  0  0  0  0  0
   18.1621  -13.4562  -16.0649 N   0  0  0  0  0  0  0  0  0  0  0  0
   18.3139  -11.1309  -16.8210 C   0  0  0  0  0  0  0  0  0  0  0  0
   18.6534  -10.2808  -17.7094 O   0  0  0  0  0  0  0  0  0  0  0  0
   16.6445  -18.6133  -19.9021 N   0  0  0  0  0  0  0  0  0  0  0  0
   17.6741  -10.5964  -15.6759 C   0  0  1  0  0  0  0  0  0  0  0  0
   17.4452   -9.1951  -15.4726 C   0  0  0  0  0  0  0  0  0  0  0  0
   16.0497   -8.7473  -15.2520 C   0  0  0  0  0  0  0  0  0  0  0  0
   15.7607   -7.3164  -15.1047 C   0  0  0  0  0  0  0  0  0  0  0  0
   14.3698   -6.9582  -14.7778 O   0  0  0  0  0  0  0  0  0  0  0  0
   13.4689   -7.8190  -14.6032 C   0  0  0  0  0  0  0  0  0  0  0  0
   18.4281   -8.5737  -14.5488 O   0  0  0  0  0  0  0  0  0  0  0  0
   18.6869   -9.0062  -13.4074 O   0  0  0  0  0  0  0  0  0  0  0  0
   13.9783   -5.6253  -14.6435 N   0  0  0  0  0  0  0  0  0  0  0  0
   23.1524   -9.7774  -14.0320 C   0  0  0  0  0  0  0  0  0  0  0  0
   23.1940   -8.9378  -15.2050 O   0  0  0  0  0  0  0  0  0  0  0  0
   24.0586   -9.1338  -16.0796 C   0  0  0  0  0  0  0  0  0  0  0  0
   22.1785   -7.8708  -15.2894 C   0  0  0  0  0  0  0  0  0  0  0  0
   21.2977   -7.8345  -14.0955 C   0  0  1  0  0  0  0  0  0  0  0  0
   20.1921   -6.8111  -14.1323 N   0  0  0  0  0  0  0  0  0  0  0  0
   19.1387   -7.4103  -14.9579 C   0  0  0  0  0  0  0  0  0  0  0  0
   20.6941   -5.5590  -14.7468 O   0  0  0  0  0  0  0  0  0  0  0  0
   21.5943   -4.7176  -14.1172 O   0  0  0  0  0  0  0  0  0  0  0  0
  2  3  2  0
  2  1  1  0
  4  2  1  0
  5  4  1  0
  6  5  1  0
  7  6  1  0
  8  7  1  0
  8  9  1  1
 10 11  2  0
 10  8  1  0
 12 10  1  0
 13 18  1  0
 13 12  1  0
 13 14  1  6
 15 14  1  0
 16 17  2  0
 16 15  1  0
 18 27  1  0
 19 18  2  0
 20 16  1  0
 22 24  1  0
 22 21  1  0
 23 22  2  0
 26 25  1  1
 25 24  1  0
 27 26  1  0
 28 26  1  0
 29 28  1  0
 30 28  2  0
M  END
$$$$
