REQ.pdb
     RDKit          3D

 30 29  0  0  1  0  0  0  0  0999 V2000
   30.8075  -24.9638  -15.6206 N   0  0  0  0  0  0  0  0  0  0  0  0
   30.3136  -25.1154  -16.9489 C   0  0  0  0  0  0  0  0  0  0  0  0
   30.5321  -26.2084  -17.5833 N   0  0  0  0  0  0  0  0  0  0  0  0
   29.5860  -24.0549  -17.5526 N   0  0  0  0  0  0  0  0  0  0  0  0
   29.8751  -22.6589  -17.1693 C   0  0  0  0  0  0  0  0  0  0  0  0
   29.1776  -22.3360  -15.8975 C   0  0  0  0  0  0  0  0  0  0  0  0
   27.9315  -21.5617  -15.9862 C   0  0  0  0  0  0  0  0  0  0  0  0
   27.9585  -20.1953  -16.5623 C   0  0  2  0  0  0  0  0  0  0  0  0
   29.1756  -19.4654  -16.4233 N   0  0  0  0  0  0  0  0  0  0  0  0
   26.7314  -19.4167  -16.2649 C   0  0  0  0  0  0  0  0  0  0  0  0
   26.5725  -18.9844  -15.0754 O   0  0  0  0  0  0  0  0  0  0  0  0
   31.0323  -27.0079  -17.0901 N   0  0  0  0  0  0  0  0  0  0  0  0
   25.6954  -19.0952  -17.1759 C   0  0  2  0  0  0  0  0  0  0  0  0
   24.5295  -18.3386  -16.8215 C   0  0  0  0  0  0  0  0  0  0  0  0
   24.1674  -17.1846  -17.6782 C   0  0  0  0  0  0  0  0  0  0  0  0
   23.0078  -16.3563  -17.3288 C   0  0  0  0  0  0  0  0  0  0  0  0
   22.6882  -15.2528  -18.2506 O   0  0  0  0  0  0  0  0  0  0  0  0
   23.3838  -14.9916  -19.2660 C   0  0  0  0  0  0  0  0  0  0  0  0
   23.3743  -19.1930  -16.4458 O   0  0  0  0  0  0  0  0  0  0  0  0
   23.1372  -20.3104  -16.9479 O   0  0  0  0  0  0  0  0  0  0  0  0
   21.5802  -14.4309  -18.0389 N   0  0  0  0  0  0  0  0  0  0  0  0
   17.5059  -18.9086  -11.8296 C   0  0  0  0  0  0  0  0  0  0  0  0
   18.7211  -18.4210  -12.4364 O   0  0  0  0  0  0  0  0  0  0  0  0
   19.2098  -17.3373  -12.0653 C   0  0  0  0  0  0  0  0  0  0  0  0
   19.3187  -19.2654  -13.4883 C   0  0  0  0  0  0  0  0  0  0  0  0
   20.5910  -18.7046  -14.0069 C   0  0  1  0  0  0  0  0  0  0  0  0
   21.2641  -19.5085  -15.0896 N   0  0  0  0  0  0  0  0  0  0  0  0
   22.4594  -18.7410  -15.4537 C   0  0  0  0  0  0  0  0  0  0  0  0
   20.3510  -19.6423  -16.2497 O   0  0  0  0  0  0  0  0  0  0  0  0
   19.4628  -20.6935  -16.3935 O   0  0  0  0  0  0  0  0  0  0  0  0
  2  3  2  0
  2  1  1  0
  4  2  1  0
  5  4  1  0
  6  5  1  0
  7  6  1  0
  8  7  1  0
  8  9  1  1
 10 11  2  0
 10  8  1  0
 12 10  1  0
 13 18  1  0
 13 12  1  0
 13 14  1  1
 15 14  1  0
 16 17  2  0
 16 15  1  0
 18 27  1  0
 19 18  2  0
 20 16  1  0
 22 24  1  0
 22 21  1  0
 23 22  2  0
 26 25  1  1
 25 24  1  0
 27 26  1  0
 28 26  1  0
 29 28  1  0
 30 28  2  0
M  END
$$$$
