HMD.pdb
     RDKit          3D

 27 27  0  0  1  0  0  0  0  0999 V2000
   28.1556  -21.2319  -15.6647 N   0  0  0  0  0  0  0  0  0  0  0  0
   27.6316  -20.2925  -14.7139 C   0  0  1  0  0  0  0  0  0  0  0  0
   27.0560  -19.0622  -15.3240 C   0  0  0  0  0  0  0  0  0  0  0  0
   27.9548  -18.3627  -16.2477 C   0  0  0  0  0  0  0  0  0  0  0  0
   28.0261  -18.3499  -17.6230 C   0  0  0  0  0  0  0  0  0  0  0  0
   29.0238  -17.5566  -18.0269 N   0  0  0  0  0  0  0  0  0  0  0  0
   29.5888  -17.0638  -16.9183 C   0  0  0  0  0  0  0  0  0  0  0  0
   28.9452  -17.5487  -15.8373 N   0  0  0  0  0  0  0  0  0  0  0  0
   26.6938  -20.9256  -13.7526 C   0  0  0  0  0  0  0  0  0  0  0  0
   26.0217  -21.9523  -14.1045 O   0  0  0  0  0  0  0  0  0  0  0  0
   28.8570  -20.7526   -7.3726 C   0  0  0  0  0  0  0  0  0  0  0  0
   27.2183  -20.3707   -7.9980 S   0  0  0  0  0  0  0  0  0  0  0  0
   26.9464  -20.9713   -9.6842 C   0  0  0  0  0  0  0  0  0  0  0  0
   25.5976  -20.5692  -10.2079 C   0  0  0  0  0  0  0  0  0  0  0  0
   25.3390  -20.9569  -11.6310 C   0  0  2  0  0  0  0  0  0  0  0  0
   26.4733  -20.4746  -12.4372 N   0  0  0  0  0  0  0  0  0  0  0  0
   24.0617  -20.5024  -12.1815 C   0  0  0  0  0  0  0  0  0  0  0  0
   24.0174  -19.4760  -12.8849 O   0  0  0  0  0  0  0  0  0  0  0  0
   22.8822  -21.2394  -11.9068 N   0  0  0  0  0  0  0  0  0  0  0  0
   21.5662  -20.8612  -12.4655 C   0  0  1  0  0  0  0  0  0  0  0  0
   21.6415  -19.5017  -13.0895 C   0  0  0  0  0  0  0  0  0  0  0  0
   20.3021  -19.0822  -13.5404 C   0  0  0  0  0  0  0  0  0  0  0  0
   19.3171  -19.3013  -12.7464 O   0  0  0  0  0  0  0  0  0  0  0  0
   21.1431  -21.9076  -13.4322 C   0  0  0  0  0  0  0  0  0  0  0  0
   19.9944  -21.9357  -13.8799 O   0  0  0  0  0  0  0  0  0  0  0  0
   19.9875  -18.4790  -14.7309 O   0  0  0  0  0  0  0  0  0  0  0  0
   22.0665  -22.8761  -13.8390 O   0  0  0  0  0  0  0  0  0  0  0  0
  2  1  1  6
  2  3  1  0
  2  9  1  0
  4  3  1  0
  4  5  2  0
  6  5  1  0
  7  6  1  0
  8  7  2  0
  8  4  1  0
  9 10  2  0
 12 11  1  0
 13 12  1  0
 15 14  1  1
 14 13  1  0
 16 15  1  0
 16  9  1  0
 17 18  2  0
 17 15  1  0
 19 17  1  0
 20 24  1  0
 20 19  1  0
 20 21  1  6
 22 23  2  0
 22 21  1  0
 24 27  1  0
 25 24  2  0
 26 22  1  0
M  END
$$$$
