HMD.pdb
     RDKit          3D

 27 27  0  0  1  0  0  0  0  0999 V2000
   19.3309  -12.3000  -19.1681 N   0  0  0  0  0  0  0  0  0  0  0  0
   20.2820  -11.2275  -19.0893 C   0  0  1  0  0  0  0  0  0  0  0  0
   20.3676  -10.3950  -20.3210 C   0  0  0  0  0  0  0  0  0  0  0  0
   20.8478  -11.1105  -21.5075 C   0  0  0  0  0  0  0  0  0  0  0  0
   21.3841  -12.3692  -21.6637 C   0  0  0  0  0  0  0  0  0  0  0  0
   21.6817  -12.5890  -22.9485 N   0  0  0  0  0  0  0  0  0  0  0  0
   21.3385  -11.4787  -23.6124 C   0  0  0  0  0  0  0  0  0  0  0  0
   20.8327  -10.5795  -22.7443 N   0  0  0  0  0  0  0  0  0  0  0  0
   20.0985  -10.3984  -17.8714 C   0  0  0  0  0  0  0  0  0  0  0  0
   18.9212  -10.0985  -17.4794 O   0  0  0  0  0  0  0  0  0  0  0  0
   22.2585   -8.7493  -10.5691 C   0  0  0  0  0  0  0  0  0  0  0  0
   22.6076   -9.4571  -12.1814 S   0  0  0  0  0  0  0  0  0  0  0  0
   21.5393   -8.8021  -13.4882 C   0  0  0  0  0  0  0  0  0  0  0  0
   21.7335   -9.5337  -14.7853 C   0  0  0  0  0  0  0  0  0  0  0  0
   20.9012   -9.0240  -15.9209 C   0  0  2  0  0  0  0  0  0  0  0  0
   21.1502   -9.8955  -17.0818 N   0  0  0  0  0  0  0  0  0  0  0  0
   21.0999   -7.6144  -16.2595 C   0  0  0  0  0  0  0  0  0  0  0  0
   21.9530   -7.2926  -17.1073 O   0  0  0  0  0  0  0  0  0  0  0  0
   20.3149   -6.6251  -15.6153 N   0  0  0  0  0  0  0  0  0  0  0  0
   20.4192   -5.1894  -15.9544 C   0  0  1  0  0  0  0  0  0  0  0  0
   19.1502   -4.7166  -16.5944 C   0  0  0  0  0  0  0  0  0  0  0  0
   19.2000   -3.2558  -16.7868 C   0  0  0  0  0  0  0  0  0  0  0  0
   19.9560   -2.8098  -17.7237 O   0  0  0  0  0  0  0  0  0  0  0  0
   20.7484   -4.4330  -14.7183 C   0  0  0  0  0  0  0  0  0  0  0  0
   21.0496   -3.2380  -14.7627 O   0  0  0  0  0  0  0  0  0  0  0  0
   18.5215   -2.3085  -16.0640 O   0  0  0  0  0  0  0  0  0  0  0  0
   20.7154   -5.0913  -13.4847 O   0  0  0  0  0  0  0  0  0  0  0  0
  2  1  1  6
  2  3  1  0
  2  9  1  0
  4  3  1  0
  4  5  2  0
  6  5  1  0
  7  6  1  0
  8  7  2  0
  8  4  1  0
  9 10  2  0
 12 11  1  0
 13 12  1  0
 15 14  1  1
 14 13  1  0
 16 15  1  0
 16  9  1  0
 17 18  2  0
 17 15  1  0
 19 17  1  0
 20 24  1  0
 20 19  1  0
 20 21  1  1
 22 23  2  0
 22 21  1  0
 24 27  1  0
 25 24  2  0
 26 22  1  0
M  END
$$$$
