HMD.pdb
     RDKit          3D

 27 27  0  0  1  0  0  0  0  0999 V2000
   19.5128  -14.6100  -17.8988 N   0  0  0  0  0  0  0  0  0  0  0  0
   19.9971  -13.4807  -18.6415 C   0  0  1  0  0  0  0  0  0  0  0  0
   18.9401  -12.7370  -19.3811 C   0  0  0  0  0  0  0  0  0  0  0  0
   18.1454  -13.5597  -20.2987 C   0  0  0  0  0  0  0  0  0  0  0  0
   16.8158  -13.9183  -20.2897 C   0  0  0  0  0  0  0  0  0  0  0  0
   16.5385  -14.6925  -21.3439 N   0  0  0  0  0  0  0  0  0  0  0  0
   17.6825  -14.8299  -22.0247 C   0  0  0  0  0  0  0  0  0  0  0  0
   18.6595  -14.1455  -21.3961 N   0  0  0  0  0  0  0  0  0  0  0  0
   20.8343  -12.5769  -17.8129 C   0  0  0  0  0  0  0  0  0  0  0  0
   20.3884  -12.1435  -16.6980 O   0  0  0  0  0  0  0  0  0  0  0  0
   27.1821  -10.4209  -14.6146 C   0  0  0  0  0  0  0  0  0  0  0  0
   26.0216  -11.3796  -15.5926 S   0  0  0  0  0  0  0  0  0  0  0  0
   25.2437  -10.4160  -16.9133 C   0  0  0  0  0  0  0  0  0  0  0  0
   24.3133  -11.2554  -17.7411 C   0  0  0  0  0  0  0  0  0  0  0  0
   22.8750  -11.1836  -17.3308 C   0  0  2  0  0  0  0  0  0  0  0  0
   22.1260  -12.1401  -18.1636 N   0  0  0  0  0  0  0  0  0  0  0  0
   22.2756   -9.8497  -17.3802 C   0  0  0  0  0  0  0  0  0  0  0  0
   21.8179   -9.4127  -18.4524 O   0  0  0  0  0  0  0  0  0  0  0  0
   22.2221   -9.0652  -16.2005 N   0  0  0  0  0  0  0  0  0  0  0  0
   21.5825   -7.7322  -16.1665 C   0  0  1  0  0  0  0  0  0  0  0  0
   20.1656   -7.8271  -16.6427 C   0  0  0  0  0  0  0  0  0  0  0  0
   19.5217   -6.5031  -16.5672 C   0  0  0  0  0  0  0  0  0  0  0  0
   20.2270   -5.4844  -16.9040 O   0  0  0  0  0  0  0  0  0  0  0  0
   21.6830   -7.1932  -14.7853 C   0  0  0  0  0  0  0  0  0  0  0  0
   21.9886   -7.9202  -13.8373 O   0  0  0  0  0  0  0  0  0  0  0  0
   18.2372   -6.2357  -16.1690 O   0  0  0  0  0  0  0  0  0  0  0  0
   21.4254   -5.8370  -14.5602 O   0  0  0  0  0  0  0  0  0  0  0  0
  2  1  1  1
  2  3  1  0
  2  9  1  0
  4  3  1  0
  4  5  2  0
  6  5  1  0
  7  6  1  0
  8  7  2  0
  8  4  1  0
  9 10  2  0
 12 11  1  0
 13 12  1  0
 15 14  1  6
 14 13  1  0
 16 15  1  0
 16  9  1  0
 17 18  2  0
 17 15  1  0
 19 17  1  0
 20 24  1  0
 20 19  1  0
 20 21  1  1
 22 23  2  0
 22 21  1  0
 24 27  1  0
 25 24  2  0
 26 22  1  0
M  END
$$$$
