HMD.pdb
     RDKit          3D

 27 27  0  0  1  0  0  0  0  0999 V2000
   20.7738  -17.8990  -16.1864 N   0  0  0  0  0  0  0  0  0  0  0  0
   20.1968  -16.5998  -16.3874 C   0  0  1  0  0  0  0  0  0  0  0  0
   18.7269  -16.5418  -16.1570 C   0  0  0  0  0  0  0  0  0  0  0  0
   17.9450  -17.4750  -16.9742 C   0  0  0  0  0  0  0  0  0  0  0  0
   17.2759  -18.6351  -16.6531 C   0  0  0  0  0  0  0  0  0  0  0  0
   16.7007  -19.1540  -17.7429 N   0  0  0  0  0  0  0  0  0  0  0  0
   16.9986  -18.3323  -18.7564 C   0  0  0  0  0  0  0  0  0  0  0  0
   17.7523  -17.3133  -18.2966 N   0  0  0  0  0  0  0  0  0  0  0  0
   20.9178  -15.5398  -15.6384 C   0  0  0  0  0  0  0  0  0  0  0  0
   21.5380  -15.8334  -14.5620 O   0  0  0  0  0  0  0  0  0  0  0  0
   27.3327  -12.6319  -14.5214 C   0  0  0  0  0  0  0  0  0  0  0  0
   26.0189  -13.6042  -15.2636 S   0  0  0  0  0  0  0  0  0  0  0  0
   24.3688  -12.9415  -14.9229 C   0  0  0  0  0  0  0  0  0  0  0  0
   23.2917  -13.7802  -15.5488 C   0  0  0  0  0  0  0  0  0  0  0  0
   21.9053  -13.2375  -15.3890 C   0  0  2  0  0  0  0  0  0  0  0  0
   20.9787  -14.1880  -16.0273 N   0  0  0  0  0  0  0  0  0  0  0  0
   21.7035  -11.8776  -15.8900 C   0  0  0  0  0  0  0  0  0  0  0  0
   21.7603  -11.6503  -17.1128 O   0  0  0  0  0  0  0  0  0  0  0  0
   21.4441  -10.8280  -14.9730 N   0  0  0  0  0  0  0  0  0  0  0  0
   21.1455   -9.4486  -15.4149 C   0  0  1  0  0  0  0  0  0  0  0  0
   19.8803   -8.9642  -14.7760 C   0  0  0  0  0  0  0  0  0  0  0  0
   19.6005   -7.5814  -15.2037 C   0  0  0  0  0  0  0  0  0  0  0  0
   19.9094   -6.6383  -14.3892 O   0  0  0  0  0  0  0  0  0  0  0  0
   22.3113   -8.5849  -15.0935 C   0  0  0  0  0  0  0  0  0  0  0  0
   23.2225   -8.9875  -14.3665 O   0  0  0  0  0  0  0  0  0  0  0  0
   19.0364   -7.1865  -16.3894 O   0  0  0  0  0  0  0  0  0  0  0  0
   22.3728   -7.2932  -15.6262 O   0  0  0  0  0  0  0  0  0  0  0  0
  2  1  1  1
  2  3  1  0
  2  9  1  0
  4  3  1  0
  4  5  2  0
  6  5  1  0
  7  6  1  0
  8  7  2  0
  8  4  1  0
  9 10  2  0
 12 11  1  0
 13 12  1  0
 15 14  1  6
 14 13  1  0
 16 15  1  0
 16  9  1  0
 17 18  2  0
 17 15  1  0
 19 17  1  0
 20 24  1  0
 20 19  1  0
 20 21  1  1
 22 23  2  0
 22 21  1  0
 24 27  1  0
 25 24  2  0
 26 22  1  0
M  END
$$$$
