HMD.pdb
     RDKit          3D

 27 27  0  0  1  0  0  0  0  0999 V2000
   27.8965  -21.6967  -16.2126 N   0  0  0  0  0  0  0  0  0  0  0  0
   27.2020  -20.6322  -15.5450 C   0  0  1  0  0  0  0  0  0  0  0  0
   26.7399  -19.5428  -16.4488 C   0  0  0  0  0  0  0  0  0  0  0  0
   27.8139  -18.8558  -17.1733 C   0  0  0  0  0  0  0  0  0  0  0  0
   29.1722  -19.0769  -17.2237 C   0  0  0  0  0  0  0  0  0  0  0  0
   29.7568  -18.1827  -18.0277 N   0  0  0  0  0  0  0  0  0  0  0  0
   28.7801  -17.3931  -18.4901 C   0  0  0  0  0  0  0  0  0  0  0  0
   27.6007  -17.7963  -17.9759 N   0  0  0  0  0  0  0  0  0  0  0  0
   26.1084  -21.1308  -14.6734 C   0  0  0  0  0  0  0  0  0  0  0  0
   25.3632  -22.0867  -15.0742 O   0  0  0  0  0  0  0  0  0  0  0  0
   25.4488  -20.2942   -8.2020 C   0  0  0  0  0  0  0  0  0  0  0  0
   26.5546  -21.4660   -8.9935 S   0  0  0  0  0  0  0  0  0  0  0  0
   26.2194  -21.6730  -10.7607 C   0  0  0  0  0  0  0  0  0  0  0  0
   24.9661  -20.9581  -11.1772 C   0  0  0  0  0  0  0  0  0  0  0  0
   24.6349  -21.0746  -12.6329 C   0  0  2  0  0  0  0  0  0  0  0  0
   25.8110  -20.6214  -13.3949 N   0  0  0  0  0  0  0  0  0  0  0  0
   23.4220  -20.3745  -13.0571 C   0  0  0  0  0  0  0  0  0  0  0  0
   23.5097  -19.3026  -13.6843 O   0  0  0  0  0  0  0  0  0  0  0  0
   22.1536  -20.9271  -12.7479 N   0  0  0  0  0  0  0  0  0  0  0  0
   20.9447  -20.6249  -13.5443 C   0  0  1  0  0  0  0  0  0  0  0  0
   21.1823  -20.9497  -14.9870 C   0  0  0  0  0  0  0  0  0  0  0  0
   19.9912  -20.6003  -15.7822 C   0  0  0  0  0  0  0  0  0  0  0  0
   19.5593  -19.3941  -15.6985 O   0  0  0  0  0  0  0  0  0  0  0  0
   19.7995  -21.3800  -12.9729 C   0  0  0  0  0  0  0  0  0  0  0  0
   19.9107  -22.5677  -12.6601 O   0  0  0  0  0  0  0  0  0  0  0  0
   19.2826  -21.4330  -16.6097 O   0  0  0  0  0  0  0  0  0  0  0  0
   18.5753  -20.7292  -12.7883 O   0  0  0  0  0  0  0  0  0  0  0  0
  2  1  1  6
  2  3  1  0
  2  9  1  0
  4  3  1  0
  4  5  2  0
  6  5  1  0
  7  6  1  0
  8  7  2  0
  8  4  1  0
  9 10  2  0
 12 11  1  0
 13 12  1  0
 15 14  1  1
 14 13  1  0
 16 15  1  0
 16  9  1  0
 17 18  2  0
 17 15  1  0
 19 17  1  0
 20 24  1  0
 20 19  1  0
 20 21  1  6
 22 23  2  0
 22 21  1  0
 24 27  1  0
 25 24  2  0
 26 22  1  0
M  END
$$$$
