HMD.pdb
     RDKit          3D

 27 27  0  0  1  0  0  0  0  0999 V2000
   22.3603  -14.5345  -17.3834 N   0  0  0  0  0  0  0  0  0  0  0  0
   21.9617  -13.2206  -17.8029 C   0  0  1  0  0  0  0  0  0  0  0  0
   20.5578  -13.1349  -18.2919 C   0  0  0  0  0  0  0  0  0  0  0  0
   19.5770  -13.8305  -17.4524 C   0  0  0  0  0  0  0  0  0  0  0  0
   19.7150  -14.5470  -16.2845 C   0  0  0  0  0  0  0  0  0  0  0  0
   18.5259  -15.0053  -15.8800 N   0  0  0  0  0  0  0  0  0  0  0  0
   17.6309  -14.5857  -16.7822 C   0  0  0  0  0  0  0  0  0  0  0  0
   18.2621  -13.8733  -17.7373 N   0  0  0  0  0  0  0  0  0  0  0  0
   22.2560  -12.1872  -16.7783 C   0  0  0  0  0  0  0  0  0  0  0  0
   21.8863  -12.3683  -15.5699 O   0  0  0  0  0  0  0  0  0  0  0  0
   28.0206  -12.5571  -14.7272 C   0  0  0  0  0  0  0  0  0  0  0  0
   27.2087  -11.0956  -15.3810 S   0  0  0  0  0  0  0  0  0  0  0  0
   25.4036  -11.2348  -15.3938 C   0  0  0  0  0  0  0  0  0  0  0  0
   24.7501   -9.9611  -15.8478 C   0  0  0  0  0  0  0  0  0  0  0  0
   23.2582  -10.0288  -15.9568 C   0  0  2  0  0  0  0  0  0  0  0  0
   22.9330  -10.9794  -17.0338 N   0  0  0  0  0  0  0  0  0  0  0  0
   22.5861   -8.7446  -16.1576 C   0  0  0  0  0  0  0  0  0  0  0  0
   22.3495   -8.3401  -17.3110 O   0  0  0  0  0  0  0  0  0  0  0  0
   22.2097   -7.9709  -15.0309 N   0  0  0  0  0  0  0  0  0  0  0  0
   21.4338   -6.7181  -15.1563 C   0  0  1  0  0  0  0  0  0  0  0  0
   19.9670   -7.0083  -15.0693 C   0  0  0  0  0  0  0  0  0  0  0  0
   19.2002   -5.7548  -15.1872 C   0  0  0  0  0  0  0  0  0  0  0  0
   19.7084   -4.8177  -15.9028 O   0  0  0  0  0  0  0  0  0  0  0  0
   21.8891   -5.7712  -14.1054 C   0  0  0  0  0  0  0  0  0  0  0  0
   22.4504   -6.1736  -13.0837 O   0  0  0  0  0  0  0  0  0  0  0  0
   17.9900   -5.4744  -14.6067 O   0  0  0  0  0  0  0  0  0  0  0  0
   21.6754   -4.4002  -14.2812 O   0  0  0  0  0  0  0  0  0  0  0  0
  2  1  1  1
  2  3  1  0
  2  9  1  0
  4  3  1  0
  4  5  2  0
  6  5  1  0
  7  6  1  0
  8  7  2  0
  8  4  1  0
  9 10  2  0
 12 11  1  0
 13 12  1  0
 15 14  1  6
 14 13  1  0
 16 15  1  0
 16  9  1  0
 17 18  2  0
 17 15  1  0
 19 17  1  0
 20 24  1  0
 20 19  1  0
 20 21  1  1
 22 23  2  0
 22 21  1  0
 24 27  1  0
 25 24  2  0
 26 22  1  0
M  END
$$$$
