HMD.pdb
     RDKit          3D

 27 27  0  0  1  0  0  0  0  0999 V2000
   19.8441  -15.0592  -18.9132 N   0  0  0  0  0  0  0  0  0  0  0  0
   20.3153  -13.7920  -19.3964 C   0  0  1  0  0  0  0  0  0  0  0  0
   19.3665  -13.0945  -20.3077 C   0  0  0  0  0  0  0  0  0  0  0  0
   19.0211  -13.8460  -21.5186 C   0  0  0  0  0  0  0  0  0  0  0  0
   19.6380  -13.9391  -22.7463 C   0  0  0  0  0  0  0  0  0  0  0  0
   18.9471  -14.7537  -23.5504 N   0  0  0  0  0  0  0  0  0  0  0  0
   17.8939  -15.1805  -22.8435 C   0  0  0  0  0  0  0  0  0  0  0  0
   17.9336  -14.6338  -21.6116 N   0  0  0  0  0  0  0  0  0  0  0  0
   20.7820  -12.9074  -18.2992 C   0  0  0  0  0  0  0  0  0  0  0  0
   20.1201  -12.8449  -17.2094 O   0  0  0  0  0  0  0  0  0  0  0  0
   27.0922  -10.3566  -14.4417 C   0  0  0  0  0  0  0  0  0  0  0  0
   26.2580  -11.3007  -15.7204 S   0  0  0  0  0  0  0  0  0  0  0  0
   24.4933  -10.9163  -15.8466 C   0  0  0  0  0  0  0  0  0  0  0  0
   23.8365  -11.6754  -16.9635 C   0  0  0  0  0  0  0  0  0  0  0  0
   22.3998  -11.3241  -17.1975 C   0  0  2  0  0  0  0  0  0  0  0  0
   21.9347  -12.1011  -18.3590 N   0  0  0  0  0  0  0  0  0  0  0  0
   22.1234   -9.8969  -17.3650 C   0  0  0  0  0  0  0  0  0  0  0  0
   22.4724   -9.3141  -18.4083 O   0  0  0  0  0  0  0  0  0  0  0  0
   21.4580   -9.1896  -16.3322 N   0  0  0  0  0  0  0  0  0  0  0  0
   21.1213   -7.7542  -16.4477 C   0  0  1  0  0  0  0  0  0  0  0  0
   19.9990   -7.4105  -15.5173 C   0  0  0  0  0  0  0  0  0  0  0  0
   19.0033   -6.5797  -16.2183 C   0  0  0  0  0  0  0  0  0  0  0  0
   19.2741   -6.2244  -17.4220 O   0  0  0  0  0  0  0  0  0  0  0  0
   22.3463   -6.9568  -16.1796 C   0  0  0  0  0  0  0  0  0  0  0  0
   23.1794   -7.3269  -15.3490 O   0  0  0  0  0  0  0  0  0  0  0  0
   17.8057   -6.1362  -15.7192 O   0  0  0  0  0  0  0  0  0  0  0  0
   22.5547   -5.7661  -16.8831 O   0  0  0  0  0  0  0  0  0  0  0  0
  2  1  1  1
  2  3  1  0
  2  9  1  0
  4  3  1  0
  4  5  2  0
  6  5  1  0
  7  6  1  0
  8  7  2  0
  8  4  1  0
  9 10  2  0
 12 11  1  0
 13 12  1  0
 15 14  1  6
 14 13  1  0
 16 15  1  0
 16  9  1  0
 17 18  2  0
 17 15  1  0
 19 17  1  0
 20 24  1  0
 20 19  1  0
 20 21  1  1
 22 23  2  0
 22 21  1  0
 24 27  1  0
 25 24  2  0
 26 22  1  0
M  END
$$$$
