HMD.pdb
     RDKit          3D

 27 27  0  0  1  0  0  0  0  0999 V2000
   18.3481  -13.3436  -17.7987 N   0  0  0  0  0  0  0  0  0  0  0  0
   19.0191  -12.2008  -18.3508 C   0  0  1  0  0  0  0  0  0  0  0  0
   18.1380  -11.2981  -19.1420 C   0  0  0  0  0  0  0  0  0  0  0  0
   17.5025  -11.9306  -20.3022 C   0  0  0  0  0  0  0  0  0  0  0  0
   17.7887  -11.8734  -21.6481 C   0  0  0  0  0  0  0  0  0  0  0  0
   16.9226  -12.6232  -22.3374 N   0  0  0  0  0  0  0  0  0  0  0  0
   16.0861  -13.1580  -21.4399 C   0  0  0  0  0  0  0  0  0  0  0  0
   16.4327  -12.7419  -20.2051 N   0  0  0  0  0  0  0  0  0  0  0  0
   19.8013  -11.4579  -17.3307 C   0  0  0  0  0  0  0  0  0  0  0  0
   19.2437  -11.1018  -16.2389 O   0  0  0  0  0  0  0  0  0  0  0  0
   26.9539   -9.9945  -14.2714 C   0  0  0  0  0  0  0  0  0  0  0  0
   25.8629  -10.7983  -15.4486 S   0  0  0  0  0  0  0  0  0  0  0  0
   24.1693  -10.1604  -15.3939 C   0  0  0  0  0  0  0  0  0  0  0  0
   23.2837  -10.8453  -16.3949 C   0  0  0  0  0  0  0  0  0  0  0  0
   21.8708  -10.3499  -16.4210 C   0  0  2  0  0  0  0  0  0  0  0  0
   21.1557  -11.0987  -17.4685 N   0  0  0  0  0  0  0  0  0  0  0  0
   21.7168   -8.9056  -16.5980 C   0  0  0  0  0  0  0  0  0  0  0  0
   22.0605   -8.3699  -17.6680 O   0  0  0  0  0  0  0  0  0  0  0  0
   21.1750   -8.1278  -15.5438 N   0  0  0  0  0  0  0  0  0  0  0  0
   20.9882   -6.6651  -15.6567 C   0  0  1  0  0  0  0  0  0  0  0  0
   19.5866   -6.2930  -15.2819 C   0  0  0  0  0  0  0  0  0  0  0  0
   19.4156   -4.8314  -15.3694 C   0  0  0  0  0  0  0  0  0  0  0  0
   19.7201   -4.2676  -16.4820 O   0  0  0  0  0  0  0  0  0  0  0  0
   22.0023   -5.9905  -14.8051 C   0  0  0  0  0  0  0  0  0  0  0  0
   22.4697   -6.5459  -13.8083 O   0  0  0  0  0  0  0  0  0  0  0  0
   18.9643   -3.9964  -14.3798 O   0  0  0  0  0  0  0  0  0  0  0  0
   22.4316   -4.7030  -15.1431 O   0  0  0  0  0  0  0  0  0  0  0  0
  2  1  1  1
  2  3  1  0
  2  9  1  0
  4  3  1  0
  4  5  2  0
  6  5  1  0
  7  6  1  0
  8  7  2  0
  8  4  1  0
  9 10  2  0
 12 11  1  0
 13 12  1  0
 15 14  1  6
 14 13  1  0
 16 15  1  0
 16  9  1  0
 17 18  2  0
 17 15  1  0
 19 17  1  0
 20 24  1  0
 20 19  1  0
 20 21  1  1
 22 23  2  0
 22 21  1  0
 24 27  1  0
 25 24  2  0
 26 22  1  0
M  END
$$$$
