HMD.pdb
     RDKit          3D

 27 27  0  0  1  0  0  0  0  0999 V2000
   28.3298  -23.4892  -16.6776 N   0  0  0  0  0  0  0  0  0  0  0  0
   26.9391  -23.2864  -16.9707 C   0  0  1  0  0  0  0  0  0  0  0  0
   26.1265  -24.5342  -16.9713 C   0  0  0  0  0  0  0  0  0  0  0  0
   26.4684  -25.4831  -18.0357 C   0  0  0  0  0  0  0  0  0  0  0  0
   27.3671  -25.4076  -19.0765 C   0  0  0  0  0  0  0  0  0  0  0  0
   27.3292  -26.5297  -19.8026 N   0  0  0  0  0  0  0  0  0  0  0  0
   26.4123  -27.3199  -19.2316 C   0  0  0  0  0  0  0  0  0  0  0  0
   25.8875  -26.6910  -18.1606 N   0  0  0  0  0  0  0  0  0  0  0  0
   26.3316  -22.2296  -16.1230 C   0  0  0  0  0  0  0  0  0  0  0  0
   26.3845  -22.3278  -14.8513 O   0  0  0  0  0  0  0  0  0  0  0  0
   28.6761  -19.8589  -12.8275 C   0  0  0  0  0  0  0  0  0  0  0  0
   27.2791  -18.9597  -13.5074 S   0  0  0  0  0  0  0  0  0  0  0  0
   27.2989  -18.8835  -15.3162 C   0  0  0  0  0  0  0  0  0  0  0  0
   25.9111  -18.8156  -15.8859 C   0  0  0  0  0  0  0  0  0  0  0  0
   25.1061  -20.0675  -15.7213 C   0  0  2  0  0  0  0  0  0  0  0  0
   25.6776  -21.0857  -16.6191 N   0  0  0  0  0  0  0  0  0  0  0  0
   23.6659  -19.9182  -15.9320 C   0  0  0  0  0  0  0  0  0  0  0  0
   23.1997  -19.9483  -17.0861 O   0  0  0  0  0  0  0  0  0  0  0  0
   22.8123  -19.7401  -14.8142 N   0  0  0  0  0  0  0  0  0  0  0  0
   21.3467  -19.6003  -14.9537 C   0  0  1  0  0  0  0  0  0  0  0  0
   20.6907  -19.6735  -13.6091 C   0  0  0  0  0  0  0  0  0  0  0  0
   20.5550  -21.0815  -13.1937 C   0  0  0  0  0  0  0  0  0  0  0  0
   20.0543  -21.3083  -12.0334 O   0  0  0  0  0  0  0  0  0  0  0  0
   21.0570  -18.3245  -15.6586 C   0  0  0  0  0  0  0  0  0  0  0  0
   21.6903  -17.2973  -15.4048 O   0  0  0  0  0  0  0  0  0  0  0  0
   20.9121  -22.1897  -13.9179 O   0  0  0  0  0  0  0  0  0  0  0  0
   20.0475  -18.2919  -16.6261 O   0  0  0  0  0  0  0  0  0  0  0  0
  2  1  1  1
  2  3  1  0
  2  9  1  0
  4  3  1  0
  4  5  2  0
  6  5  1  0
  7  6  1  0
  8  7  2  0
  8  4  1  0
  9 10  2  0
 12 11  1  0
 13 12  1  0
 15 14  1  6
 14 13  1  0
 16 15  1  0
 16  9  1  0
 17 18  2  0
 17 15  1  0
 19 17  1  0
 20 24  1  0
 20 19  1  0
 20 21  1  1
 22 23  2  0
 22 21  1  0
 24 27  1  0
 25 24  2  0
 26 22  1  0
M  END
$$$$
