HMD.pdb
     RDKit          3D

 27 27  0  0  1  0  0  0  0  0999 V2000
   28.2573  -18.2521  -16.1675 N   0  0  0  0  0  0  0  0  0  0  0  0
   27.0532  -18.0809  -15.4045 C   0  0  1  0  0  0  0  0  0  0  0  0
   26.1241  -17.0539  -15.9515 C   0  0  0  0  0  0  0  0  0  0  0  0
   26.7266  -15.7320  -16.1510 C   0  0  0  0  0  0  0  0  0  0  0  0
   26.9343  -14.6800  -15.2869 C   0  0  0  0  0  0  0  0  0  0  0  0
   27.5234  -13.6649  -15.9274 N   0  0  0  0  0  0  0  0  0  0  0  0
   27.6925  -14.0628  -17.1940 C   0  0  0  0  0  0  0  0  0  0  0  0
   27.2116  -15.3145  -17.3353 N   0  0  0  0  0  0  0  0  0  0  0  0
   26.3633  -19.3691  -15.1418 C   0  0  0  0  0  0  0  0  0  0  0  0
   26.5431  -20.3574  -15.9296 O   0  0  0  0  0  0  0  0  0  0  0  0
   25.1445  -20.1272   -8.7040 C   0  0  0  0  0  0  0  0  0  0  0  0
   26.1324  -21.4894   -9.3290 S   0  0  0  0  0  0  0  0  0  0  0  0
   25.7793  -21.8838  -11.0604 C   0  0  0  0  0  0  0  0  0  0  0  0
   25.7825  -20.6547  -11.9234 C   0  0  0  0  0  0  0  0  0  0  0  0
   25.4541  -20.9016  -13.3634 C   0  0  2  0  0  0  0  0  0  0  0  0
   25.4952  -19.6036  -14.0584 N   0  0  0  0  0  0  0  0  0  0  0  0
   24.1902  -21.5974  -13.6070 C   0  0  0  0  0  0  0  0  0  0  0  0
   23.9976  -22.7264  -13.1188 O   0  0  0  0  0  0  0  0  0  0  0  0
   23.1934  -20.9755  -14.4003 N   0  0  0  0  0  0  0  0  0  0  0  0
   21.7922  -20.8417  -13.9466 C   0  0  1  0  0  0  0  0  0  0  0  0
   21.6655  -21.2891  -12.5228 C   0  0  0  0  0  0  0  0  0  0  0  0
   20.5460  -22.2395  -12.3939 C   0  0  0  0  0  0  0  0  0  0  0  0
   20.0597  -22.7284  -13.4769 O   0  0  0  0  0  0  0  0  0  0  0  0
   21.3640  -19.4318  -14.1395 C   0  0  0  0  0  0  0  0  0  0  0  0
   21.2828  -18.6535  -13.1864 O   0  0  0  0  0  0  0  0  0  0  0  0
   19.9570  -22.6621  -11.2300 O   0  0  0  0  0  0  0  0  0  0  0  0
   21.0479  -18.9831  -15.4260 O   0  0  0  0  0  0  0  0  0  0  0  0
  2  1  1  6
  2  3  1  0
  2  9  1  0
  4  3  1  0
  4  5  2  0
  6  5  1  0
  7  6  1  0
  8  7  2  0
  8  4  1  0
  9 10  2  0
 12 11  1  0
 13 12  1  0
 15 14  1  1
 14 13  1  0
 16 15  1  0
 16  9  1  0
 17 18  2  0
 17 15  1  0
 19 17  1  0
 20 24  1  0
 20 19  1  0
 20 21  1  1
 22 23  2  0
 22 21  1  0
 24 27  1  0
 25 24  2  0
 26 22  1  0
M  END
$$$$
