HMD.pdb
     RDKit          3D

 27 27  0  0  1  0  0  0  0  0999 V2000
   23.1580  -33.6378   -7.0288 N   0  0  0  0  0  0  0  0  0  0  0  0
   24.4948  -33.8106   -6.5345 C   0  0  1  0  0  0  0  0  0  0  0  0
   25.5432  -33.1587   -7.3670 C   0  0  0  0  0  0  0  0  0  0  0  0
   25.6048  -33.6357   -8.7523 C   0  0  0  0  0  0  0  0  0  0  0  0
   26.4940  -34.4669   -9.3963 C   0  0  0  0  0  0  0  0  0  0  0  0
   26.1430  -34.6157  -10.6778 N   0  0  0  0  0  0  0  0  0  0  0  0
   25.0360  -33.8848  -10.8550 C   0  0  0  0  0  0  0  0  0  0  0  0
   24.7052  -33.2888   -9.6916 N   0  0  0  0  0  0  0  0  0  0  0  0
   24.6183  -33.4449   -5.1008 C   0  0  0  0  0  0  0  0  0  0  0  0
   25.7395  -33.5809   -4.5056 O   0  0  0  0  0  0  0  0  0  0  0  0
   21.8432  -27.5786   -1.7370 C   0  0  0  0  0  0  0  0  0  0  0  0
   21.5016  -29.3401   -1.7889 S   0  0  0  0  0  0  0  0  0  0  0  0
   22.9585  -30.3318   -2.2033 C   0  0  0  0  0  0  0  0  0  0  0  0
   22.6005  -31.7677   -2.4586 C   0  0  0  0  0  0  0  0  0  0  0  0
   23.7476  -32.6316   -2.8831 C   0  0  2  0  0  0  0  0  0  0  0  0
   23.5664  -32.9423   -4.3114 N   0  0  0  0  0  0  0  0  0  0  0  0
   23.9415  -33.8478   -2.0929 C   0  0  0  0  0  0  0  0  0  0  0  0
   23.2372  -34.8508   -2.3120 O   0  0  0  0  0  0  0  0  0  0  0  0
   24.9344  -33.8711   -1.0813 N   0  0  0  0  0  0  0  0  0  0  0  0
   25.1634  -35.0558   -0.2262 C   0  0  1  0  0  0  0  0  0  0  0  0
   26.5772  -35.0704    0.2682 C   0  0  0  0  0  0  0  0  0  0  0  0
   27.4514  -35.7090   -0.7324 C   0  0  0  0  0  0  0  0  0  0  0  0
   26.9360  -36.6297   -1.4639 O   0  0  0  0  0  0  0  0  0  0  0  0
   24.1738  -35.0388    0.8824 C   0  0  0  0  0  0  0  0  0  0  0  0
   23.7986  -33.9777    1.3865 O   0  0  0  0  0  0  0  0  0  0  0  0
   28.7722  -35.4268   -0.9688 O   0  0  0  0  0  0  0  0  0  0  0  0
   23.6614  -36.2493    1.3602 O   0  0  0  0  0  0  0  0  0  0  0  0
  2  1  1  6
  2  3  1  0
  2  9  1  0
  4  3  1  0
  4  5  2  0
  6  5  1  0
  7  6  1  0
  8  7  2  0
  8  4  1  0
  9 10  2  0
 12 11  1  0
 13 12  1  0
 15 14  1  1
 14 13  1  0
 16 15  1  0
 16  9  1  0
 17 18  2  0
 17 15  1  0
 19 17  1  0
 20 24  1  0
 20 19  1  0
 20 21  1  1
 22 23  2  0
 22 21  1  0
 24 27  1  0
 25 24  2  0
 26 22  1  0
M  END
$$$$
