GEK.pdb
     RDKit          3D

 23 22  0  0  1  0  0  0  0  0999 V2000
    7.1760  -13.0897   18.9342 N   0  0  0  0  0  0  0  0  0  0  0  0
    8.5275  -12.6418   18.7845 C   0  0  0  0  0  0  0  0  0  0  0  0
    9.5223  -13.7167   18.9525 C   0  0  0  0  0  0  0  0  0  0  0  0
    9.0948  -14.8563   19.2941 O   0  0  0  0  0  0  0  0  0  0  0  0
   10.9106  -13.5439   18.7543 N   0  0  0  0  0  0  0  0  0  0  0  0
   11.8157  -14.7232   18.8917 C   0  0  1  0  0  0  0  0  0  0  0  0
   12.9244  -14.5479   17.8739 C   0  0  0  0  0  0  0  0  0  0  0  0
   13.9326  -15.6473   17.8984 C   0  0  0  0  0  0  0  0  0  0  0  0
   14.9078  -15.4646   16.7839 C   0  0  0  0  0  0  0  0  0  0  0  0
   14.7258  -14.5567   15.9408 O   0  0  0  0  0  0  0  0  0  0  0  0
   12.2824  -14.7059   20.2917 C   0  0  0  0  0  0  0  0  0  0  0  0
   12.7868  -13.6442   20.8033 O   0  0  0  0  0  0  0  0  0  0  0  0
   16.0032  -16.2947   16.6830 O   0  0  0  0  0  0  0  0  0  0  0  0
   12.2208  -15.8135   21.1839 N   0  0  0  0  0  0  0  0  0  0  0  0
   12.6910  -15.7113   22.5633 C   0  0  1  0  0  0  0  0  0  0  0  0
   11.9079  -16.7221   23.3470 C   0  0  0  0  0  0  0  0  0  0  0  0
   12.3691  -16.9836   24.7302 C   0  0  0  0  0  0  0  0  0  0  0  0
   11.6523  -18.0915   25.4215 C   0  0  0  0  0  0  0  0  0  0  0  0
   12.1509  -18.4816   26.7739 C   0  0  0  0  0  0  0  0  0  0  0  0
   11.5166  -19.6064   27.3662 N   0  0  0  0  0  0  0  0  0  0  0  0
   14.1350  -15.7662   22.6726 C   0  0  0  0  0  0  0  0  0  0  0  0
   14.7274  -15.0930   23.5509 O   0  0  0  0  0  0  0  0  0  0  0  0
   14.8921  -16.5448   21.8346 O   0  0  0  0  0  0  0  0  0  0  0  0
  2  1  1  0
  3  5  1  0
  3  2  1  0
  4  3  2  0
  6  5  1  0
  6 11  1  0
  6  7  1  6
  8  7  1  0
  9  8  1  0
 10  9  2  0
 11 14  1  0
 12 11  2  0
 13  9  1  0
 14 15  1  0
 15 21  1  0
 15 16  1  1
 17 16  1  0
 18 17  1  0
 19 18  1  0
 20 19  1  0
 21 23  1  0
 22 21  2  0
M  END
$$$$
