GEK.pdb
     RDKit          3D

 23 22  0  0  1  0  0  0  0  0999 V2000
    8.9024  -16.7621   15.5852 N   0  0  0  0  0  0  0  0  0  0  0  0
    9.9740  -16.9712   16.5113 C   0  0  0  0  0  0  0  0  0  0  0  0
    9.5153  -17.3280   17.8661 C   0  0  0  0  0  0  0  0  0  0  0  0
    8.2683  -17.3405   18.0733 O   0  0  0  0  0  0  0  0  0  0  0  0
   10.3838  -17.6531   18.9323 N   0  0  0  0  0  0  0  0  0  0  0  0
    9.8025  -18.1273   20.2230 C   0  0  1  0  0  0  0  0  0  0  0  0
   10.5307  -19.4043   20.5906 C   0  0  0  0  0  0  0  0  0  0  0  0
   11.9687  -19.4037   20.1929 C   0  0  0  0  0  0  0  0  0  0  0  0
   12.5241  -20.7844   20.3006 C   0  0  0  0  0  0  0  0  0  0  0  0
   13.5946  -20.9775   20.9209 O   0  0  0  0  0  0  0  0  0  0  0  0
   10.0099  -17.0248   21.1820 C   0  0  0  0  0  0  0  0  0  0  0  0
   11.1097  -16.3665   21.1988 O   0  0  0  0  0  0  0  0  0  0  0  0
   11.8611  -21.8419   19.7165 O   0  0  0  0  0  0  0  0  0  0  0  0
    9.0532  -16.5913   22.1429 N   0  0  0  0  0  0  0  0  0  0  0  0
    9.2890  -15.4183   22.9811 C   0  0  1  0  0  0  0  0  0  0  0  0
    8.2225  -14.4271   22.6214 C   0  0  0  0  0  0  0  0  0  0  0  0
    8.5615  -13.4518   21.5592 C   0  0  0  0  0  0  0  0  0  0  0  0
    7.6072  -13.4270   20.4157 C   0  0  0  0  0  0  0  0  0  0  0  0
    7.9618  -12.5560   19.2557 C   0  0  0  0  0  0  0  0  0  0  0  0
    7.0391  -12.5587   18.1755 N   0  0  0  0  0  0  0  0  0  0  0  0
    9.4368  -15.7483   24.3845 C   0  0  0  0  0  0  0  0  0  0  0  0
   10.3219  -15.1867   25.0750 O   0  0  0  0  0  0  0  0  0  0  0  0
    8.6263  -16.6697   24.9975 O   0  0  0  0  0  0  0  0  0  0  0  0
  2  1  1  0
  3  5  1  0
  3  2  1  0
  4  3  2  0
  6  5  1  0
  6 11  1  0
  6  7  1  1
  8  7  1  0
  9  8  1  0
 10  9  2  0
 11 14  1  0
 12 11  2  0
 13  9  1  0
 14 15  1  0
 15 21  1  0
 15 16  1  1
 17 16  1  0
 18 17  1  0
 19 18  1  0
 20 19  1  0
 21 23  1  0
 22 21  2  0
M  END
$$$$
