GEK.pdb
     RDKit          3D

 23 22  0  0  1  0  0  0  0  0999 V2000
    6.7136  -20.8438   24.7035 N   0  0  0  0  0  0  0  0  0  0  0  0
    6.4097  -19.5883   24.0863 C   0  0  0  0  0  0  0  0  0  0  0  0
    7.5671  -18.9718   23.4130 C   0  0  0  0  0  0  0  0  0  0  0  0
    8.7121  -19.4329   23.6861 O   0  0  0  0  0  0  0  0  0  0  0  0
    7.4669  -17.9066   22.4900 N   0  0  0  0  0  0  0  0  0  0  0  0
    8.7134  -17.2295   22.0249 C   0  0  1  0  0  0  0  0  0  0  0  0
    8.4098  -16.6348   20.6647 C   0  0  0  0  0  0  0  0  0  0  0  0
    9.5568  -15.8851   20.0747 C   0  0  0  0  0  0  0  0  0  0  0  0
   10.5719  -16.8445   19.5494 C   0  0  0  0  0  0  0  0  0  0  0  0
   10.2307  -17.7188   18.7205 O   0  0  0  0  0  0  0  0  0  0  0  0
    9.0302  -16.2248   23.0584 C   0  0  0  0  0  0  0  0  0  0  0  0
   10.1210  -15.5532   23.0097 O   0  0  0  0  0  0  0  0  0  0  0  0
   11.8793  -16.7685   19.9782 O   0  0  0  0  0  0  0  0  0  0  0  0
    8.1948  -15.9052   24.1659 N   0  0  0  0  0  0  0  0  0  0  0  0
    8.5500  -14.8505   25.1123 C   0  0  1  0  0  0  0  0  0  0  0  0
    7.3118  -14.0259   25.3022 C   0  0  0  0  0  0  0  0  0  0  0  0
    7.4070  -12.9086   26.2702 C   0  0  0  0  0  0  0  0  0  0  0  0
    6.1542  -12.1180   26.4265 C   0  0  0  0  0  0  0  0  0  0  0  0
    6.2029  -10.9465   27.3511 C   0  0  0  0  0  0  0  0  0  0  0  0
    4.9749  -10.2585   27.5429 N   0  0  0  0  0  0  0  0  0  0  0  0
    9.1944  -15.3582   26.3070 C   0  0  0  0  0  0  0  0  0  0  0  0
    9.5750  -14.5665   27.2037 O   0  0  0  0  0  0  0  0  0  0  0  0
    9.4056  -16.7002   26.4970 O   0  0  0  0  0  0  0  0  0  0  0  0
  2  1  1  0
  3  5  1  0
  3  2  1  0
  4  3  2  0
  6  5  1  0
  6 11  1  0
  6  7  1  6
  8  7  1  0
  9  8  1  0
 10  9  2  0
 11 14  1  0
 12 11  2  0
 13  9  1  0
 14 15  1  0
 15 21  1  0
 15 16  1  1
 17 16  1  0
 18 17  1  0
 19 18  1  0
 20 19  1  0
 21 23  1  0
 22 21  2  0
M  END
$$$$
