GEK.pdb
     RDKit          3D

 23 22  0  0  1  0  0  0  0  0999 V2000
   13.6868  -13.7617   18.0652 N   0  0  0  0  0  0  0  0  0  0  0  0
   14.0634  -14.8170   18.9563 C   0  0  0  0  0  0  0  0  0  0  0  0
   12.9598  -15.2761   19.8192 C   0  0  0  0  0  0  0  0  0  0  0  0
   12.1252  -14.4090   20.2063 O   0  0  0  0  0  0  0  0  0  0  0  0
   12.7868  -16.6164   20.2317 N   0  0  0  0  0  0  0  0  0  0  0  0
   11.5576  -16.9886   20.9928 C   0  0  1  0  0  0  0  0  0  0  0  0
   11.2151  -18.4131   20.6059 C   0  0  0  0  0  0  0  0  0  0  0  0
   10.4527  -18.5144   19.3274 C   0  0  0  0  0  0  0  0  0  0  0  0
   10.7074  -19.8393   18.6900 C   0  0  0  0  0  0  0  0  0  0  0  0
   10.6925  -20.8786   19.3885 O   0  0  0  0  0  0  0  0  0  0  0  0
   11.9065  -16.8245   22.4174 C   0  0  0  0  0  0  0  0  0  0  0  0
   13.1203  -16.9371   22.8140 O   0  0  0  0  0  0  0  0  0  0  0  0
   10.9603  -19.9167   17.3376 O   0  0  0  0  0  0  0  0  0  0  0  0
   10.9763  -16.5322   23.4546 N   0  0  0  0  0  0  0  0  0  0  0  0
   11.3943  -16.4335   24.8510 C   0  0  1  0  0  0  0  0  0  0  0  0
   10.3751  -15.5690   25.5315 C   0  0  0  0  0  0  0  0  0  0  0  0
   10.5500  -15.3678   26.9887 C   0  0  0  0  0  0  0  0  0  0  0  0
    9.5468  -14.4600   27.6119 C   0  0  0  0  0  0  0  0  0  0  0  0
    9.7345  -14.1321   29.0565 C   0  0  0  0  0  0  0  0  0  0  0  0
    8.7997  -13.2163   29.6094 N   0  0  0  0  0  0  0  0  0  0  0  0
   11.6703  -17.7241   25.4497 C   0  0  0  0  0  0  0  0  0  0  0  0
   12.5087  -17.8223   26.3788 O   0  0  0  0  0  0  0  0  0  0  0  0
   11.0339  -18.8644   25.0299 O   0  0  0  0  0  0  0  0  0  0  0  0
  2  1  1  0
  3  5  1  0
  3  2  1  0
  4  3  2  0
  6  5  1  0
  6 11  1  0
  6  7  1  1
  8  7  1  0
  9  8  1  0
 10  9  2  0
 11 14  1  0
 12 11  2  0
 13  9  1  0
 14 15  1  0
 15 21  1  0
 15 16  1  1
 17 16  1  0
 18 17  1  0
 19 18  1  0
 20 19  1  0
 21 23  1  0
 22 21  2  0
M  END
$$$$
