GEK.pdb
     RDKit          3D

 23 22  0  0  1  0  0  0  0  0999 V2000
    7.6782  -12.9288   17.7027 N   0  0  0  0  0  0  0  0  0  0  0  0
    8.8965  -13.5086   18.1815 C   0  0  0  0  0  0  0  0  0  0  0  0
    8.6892  -14.5209   19.2328 C   0  0  0  0  0  0  0  0  0  0  0  0
    7.5303  -14.6149   19.7291 O   0  0  0  0  0  0  0  0  0  0  0  0
    9.7036  -15.3814   19.7096 N   0  0  0  0  0  0  0  0  0  0  0  0
    9.3637  -16.3984   20.7483 C   0  0  1  0  0  0  0  0  0  0  0  0
   10.2916  -17.5764   20.5309 C   0  0  0  0  0  0  0  0  0  0  0  0
    9.9434  -18.3935   19.3321 C   0  0  0  0  0  0  0  0  0  0  0  0
   10.7392  -19.6557   19.3316 C   0  0  0  0  0  0  0  0  0  0  0  0
   10.1960  -20.7335   19.6656 O   0  0  0  0  0  0  0  0  0  0  0  0
    9.5529  -15.7210   22.0458 C   0  0  0  0  0  0  0  0  0  0  0  0
   10.6195  -15.0526   22.2888 O   0  0  0  0  0  0  0  0  0  0  0  0
   12.0679  -19.6331   18.9669 O   0  0  0  0  0  0  0  0  0  0  0  0
    8.6129  -15.7325   23.1148 N   0  0  0  0  0  0  0  0  0  0  0  0
    8.8559  -14.9991   24.3546 C   0  0  1  0  0  0  0  0  0  0  0  0
    7.6359  -14.1586   24.5881 C   0  0  0  0  0  0  0  0  0  0  0  0
    7.6568  -13.2862   25.7851 C   0  0  0  0  0  0  0  0  0  0  0  0
    6.4043  -12.5106   26.0064 C   0  0  0  0  0  0  0  0  0  0  0  0
    6.3584  -11.6258   27.2083 C   0  0  0  0  0  0  0  0  0  0  0  0
    5.1157  -10.9837   27.4565 N   0  0  0  0  0  0  0  0  0  0  0  0
    9.2850  -15.8557   25.4420 C   0  0  0  0  0  0  0  0  0  0  0  0
    9.0443  -17.0872   25.4078 O   0  0  0  0  0  0  0  0  0  0  0  0
    9.9598  -15.3586   26.5278 O   0  0  0  0  0  0  0  0  0  0  0  0
  2  1  1  0
  3  5  1  0
  3  2  1  0
  4  3  2  0
  6  5  1  0
  6 11  1  0
  6  7  1  1
  8  7  1  0
  9  8  1  0
 10  9  2  0
 11 14  1  0
 12 11  2  0
 13  9  1  0
 14 15  1  0
 15 21  1  0
 15 16  1  1
 17 16  1  0
 18 17  1  0
 19 18  1  0
 20 19  1  0
 21 23  1  0
 22 21  2  0
M  END
$$$$
