GEK.pdb
     RDKit          3D

 23 22  0  0  1  0  0  0  0  0999 V2000
    8.9604  -15.5583   17.1633 N   0  0  0  0  0  0  0  0  0  0  0  0
    9.7526  -14.5772   17.8410 C   0  0  0  0  0  0  0  0  0  0  0  0
   11.0874  -15.0685   18.2282 C   0  0  0  0  0  0  0  0  0  0  0  0
   11.2402  -16.3194   18.3278 O   0  0  0  0  0  0  0  0  0  0  0  0
   12.1917  -14.2268   18.4905 N   0  0  0  0  0  0  0  0  0  0  0  0
   13.4755  -14.8356   18.9488 C   0  0  1  0  0  0  0  0  0  0  0  0
   14.5887  -14.1280   18.2032 C   0  0  0  0  0  0  0  0  0  0  0  0
   15.9497  -14.6313   18.5503 C   0  0  0  0  0  0  0  0  0  0  0  0
   16.9646  -14.0058   17.6530 C   0  0  0  0  0  0  0  0  0  0  0  0
   18.1728  -14.0102   17.9823 O   0  0  0  0  0  0  0  0  0  0  0  0
   13.5130  -14.6329   20.4101 C   0  0  0  0  0  0  0  0  0  0  0  0
   12.6823  -13.8443   20.9858 O   0  0  0  0  0  0  0  0  0  0  0  0
   16.5715  -13.4236   16.4674 O   0  0  0  0  0  0  0  0  0  0  0  0
   14.4298  -15.2659   21.2963 N   0  0  0  0  0  0  0  0  0  0  0  0
   14.0597  -15.5986   22.6698 C   0  0  1  0  0  0  0  0  0  0  0  0
   12.7900  -16.3916   22.5795 C   0  0  0  0  0  0  0  0  0  0  0  0
   12.2852  -16.9726   23.8452 C   0  0  0  0  0  0  0  0  0  0  0  0
   11.0951  -17.8548   23.6888 C   0  0  0  0  0  0  0  0  0  0  0  0
   10.6555  -18.6198   24.8935 C   0  0  0  0  0  0  0  0  0  0  0  0
    9.5030  -19.4328   24.7232 N   0  0  0  0  0  0  0  0  0  0  0  0
   15.1512  -16.1840   23.4222 C   0  0  0  0  0  0  0  0  0  0  0  0
   16.0299  -16.8618   22.8354 O   0  0  0  0  0  0  0  0  0  0  0  0
   15.2612  -16.0189   24.7795 O   0  0  0  0  0  0  0  0  0  0  0  0
  2  1  1  0
  3  5  1  0
  3  2  1  0
  4  3  2  0
  6  5  1  0
  6 11  1  0
  6  7  1  6
  8  7  1  0
  9  8  1  0
 10  9  2  0
 11 14  1  0
 12 11  2  0
 13  9  1  0
 14 15  1  0
 15 21  1  0
 15 16  1  6
 17 16  1  0
 18 17  1  0
 19 18  1  0
 20 19  1  0
 21 23  1  0
 22 21  2  0
M  END
$$$$
