GEK.pdb
     RDKit          3D

 23 22  0  0  1  0  0  0  0  0999 V2000
   16.1013  -17.8446   15.9690 N   0  0  0  0  0  0  0  0  0  0  0  0
   16.3456  -16.7833   16.8984 C   0  0  0  0  0  0  0  0  0  0  0  0
   16.5113  -17.2484   18.2874 C   0  0  0  0  0  0  0  0  0  0  0  0
   15.6849  -18.1032   18.7168 O   0  0  0  0  0  0  0  0  0  0  0  0
   17.5317  -16.7958   19.1538 N   0  0  0  0  0  0  0  0  0  0  0  0
   17.5620  -17.2926   20.5613 C   0  0  1  0  0  0  0  0  0  0  0  0
   19.0011  -17.2058   21.0276 C   0  0  0  0  0  0  0  0  0  0  0  0
   19.8339  -18.3692   20.6045 C   0  0  0  0  0  0  0  0  0  0  0  0
   21.2395  -18.1807   21.0686 C   0  0  0  0  0  0  0  0  0  0  0  0
   21.5973  -18.6478   22.1740 O   0  0  0  0  0  0  0  0  0  0  0  0
   16.6378  -16.4202   21.3115 C   0  0  0  0  0  0  0  0  0  0  0  0
   16.8324  -15.1546   21.3723 O   0  0  0  0  0  0  0  0  0  0  0  0
   22.1386  -17.4926   20.2831 O   0  0  0  0  0  0  0  0  0  0  0  0
   15.4822  -16.8692   22.0112 N   0  0  0  0  0  0  0  0  0  0  0  0
   14.7067  -15.9705   22.8627 C   0  0  1  0  0  0  0  0  0  0  0  0
   13.3366  -16.5718   22.9653 C   0  0  0  0  0  0  0  0  0  0  0  0
   12.5343  -16.5981   21.7202 C   0  0  0  0  0  0  0  0  0  0  0  0
   11.2245  -17.2969   21.8438 C   0  0  0  0  0  0  0  0  0  0  0  0
   10.4498  -17.5123   20.5856 C   0  0  0  0  0  0  0  0  0  0  0  0
    9.1791  -18.1286   20.7395 N   0  0  0  0  0  0  0  0  0  0  0  0
   15.3807  -15.6486   24.1046 C   0  0  0  0  0  0  0  0  0  0  0  0
   16.2487  -16.4260   24.5714 O   0  0  0  0  0  0  0  0  0  0  0  0
   15.0992  -14.5007   24.8008 O   0  0  0  0  0  0  0  0  0  0  0  0
  2  1  1  0
  3  5  1  0
  3  2  1  0
  4  3  2  0
  6  5  1  0
  6 11  1  0
  6  7  1  1
  8  7  1  0
  9  8  1  0
 10  9  2  0
 11 14  1  0
 12 11  2  0
 13  9  1  0
 14 15  1  0
 15 21  1  0
 15 16  1  1
 17 16  1  0
 18 17  1  0
 19 18  1  0
 20 19  1  0
 21 23  1  0
 22 21  2  0
M  END
$$$$
