GEK.pdb
     RDKit          3D

 23 22  0  0  1  0  0  0  0  0999 V2000
    7.0737  -12.8315   18.8989 N   0  0  0  0  0  0  0  0  0  0  0  0
    8.4061  -13.1841   19.2865 C   0  0  0  0  0  0  0  0  0  0  0  0
    8.4676  -14.3751   20.1530 C   0  0  0  0  0  0  0  0  0  0  0  0
    7.3703  -14.8814   20.5241 O   0  0  0  0  0  0  0  0  0  0  0  0
    9.6722  -14.9739   20.5855 N   0  0  0  0  0  0  0  0  0  0  0  0
    9.6098  -16.2222   21.4019 C   0  0  1  0  0  0  0  0  0  0  0  0
   10.7421  -17.1125   20.9315 C   0  0  0  0  0  0  0  0  0  0  0  0
   10.8044  -18.4213   21.6451 C   0  0  0  0  0  0  0  0  0  0  0  0
   11.9811  -19.2036   21.1656 C   0  0  0  0  0  0  0  0  0  0  0  0
   13.1396  -18.8149   21.4392 O   0  0  0  0  0  0  0  0  0  0  0  0
    9.7372  -15.7864   22.8062 C   0  0  0  0  0  0  0  0  0  0  0  0
   10.7111  -15.0397   23.1768 O   0  0  0  0  0  0  0  0  0  0  0  0
   11.7916  -20.3484   20.4222 O   0  0  0  0  0  0  0  0  0  0  0  0
    8.8315  -16.1283   23.8499 N   0  0  0  0  0  0  0  0  0  0  0  0
    9.0572  -15.7011   25.2285 C   0  0  1  0  0  0  0  0  0  0  0  0
    7.8181  -14.9664   25.6458 C   0  0  0  0  0  0  0  0  0  0  0  0
    7.9351  -13.4947   25.7679 C   0  0  0  0  0  0  0  0  0  0  0  0
    6.7429  -12.8272   26.3614 C   0  0  0  0  0  0  0  0  0  0  0  0
    6.8120  -11.3458   26.5352 C   0  0  0  0  0  0  0  0  0  0  0  0
    5.6857  -10.7428   27.1567 N   0  0  0  0  0  0  0  0  0  0  0  0
    9.5056  -16.7792   26.0870 C   0  0  0  0  0  0  0  0  0  0  0  0
    9.7338  -16.5647   27.3025 O   0  0  0  0  0  0  0  0  0  0  0  0
    9.6915  -18.0514   25.6089 O   0  0  0  0  0  0  0  0  0  0  0  0
  2  1  1  0
  3  5  1  0
  3  2  1  0
  4  3  2  0
  6  5  1  0
  6 11  1  0
  6  7  1  6
  8  7  1  0
  9  8  1  0
 10  9  2  0
 11 14  1  0
 12 11  2  0
 13  9  1  0
 14 15  1  0
 15 21  1  0
 15 16  1  1
 17 16  1  0
 18 17  1  0
 19 18  1  0
 20 19  1  0
 21 23  1  0
 22 21  2  0
M  END
$$$$
