GEK.pdb
     RDKit          3D

 23 22  0  0  1  0  0  0  0  0999 V2000
    7.8467  -12.9194   17.7310 N   0  0  0  0  0  0  0  0  0  0  0  0
    8.9749  -13.2576   18.5448 C   0  0  0  0  0  0  0  0  0  0  0  0
    8.6906  -14.3190   19.5275 C   0  0  0  0  0  0  0  0  0  0  0  0
    7.4954  -14.7201   19.6206 O   0  0  0  0  0  0  0  0  0  0  0  0
    9.6701  -14.9051   20.3604 N   0  0  0  0  0  0  0  0  0  0  0  0
    9.2827  -16.0417   21.2474 C   0  0  1  0  0  0  0  0  0  0  0  0
   10.0122  -17.2674   20.7359 C   0  0  0  0  0  0  0  0  0  0  0  0
   11.2423  -16.9441   19.9560 C   0  0  0  0  0  0  0  0  0  0  0  0
   11.8434  -18.1986   19.4160 C   0  0  0  0  0  0  0  0  0  0  0  0
   11.9349  -18.3615   18.1778 O   0  0  0  0  0  0  0  0  0  0  0  0
    9.6791  -15.6365   22.6100 C   0  0  0  0  0  0  0  0  0  0  0  0
   10.5389  -14.7037   22.7943 O   0  0  0  0  0  0  0  0  0  0  0  0
   12.2934  -19.1745   20.2786 O   0  0  0  0  0  0  0  0  0  0  0  0
    9.1691  -16.2080   23.8099 N   0  0  0  0  0  0  0  0  0  0  0  0
    9.1705  -15.4686   25.0698 C   0  0  1  0  0  0  0  0  0  0  0  0
    8.0595  -14.4665   24.9668 C   0  0  0  0  0  0  0  0  0  0  0  0
    7.8892  -13.5516   26.1194 C   0  0  0  0  0  0  0  0  0  0  0  0
    6.7344  -12.6180   26.0018 C   0  0  0  0  0  0  0  0  0  0  0  0
    6.5587  -11.6161   27.0950 C   0  0  0  0  0  0  0  0  0  0  0  0
    5.4176  -10.7768   26.9872 N   0  0  0  0  0  0  0  0  0  0  0  0
    9.1725  -16.3345   26.2320 C   0  0  0  0  0  0  0  0  0  0  0  0
    8.7633  -17.5174   26.1383 O   0  0  0  0  0  0  0  0  0  0  0  0
    9.6163  -15.8987   27.4546 O   0  0  0  0  0  0  0  0  0  0  0  0
  2  1  1  0
  3  5  1  0
  3  2  1  0
  4  3  2  0
  6  5  1  0
  6 11  1  0
  6  7  1  6
  8  7  1  0
  9  8  1  0
 10  9  2  0
 11 14  1  0
 12 11  2  0
 13  9  1  0
 14 15  1  0
 15 21  1  0
 15 16  1  1
 17 16  1  0
 18 17  1  0
 19 18  1  0
 20 19  1  0
 21 23  1  0
 22 21  2  0
M  END
$$$$
