GEK.pdb
     RDKit          3D

 23 22  0  0  1  0  0  0  0  0999 V2000
    3.3507  -20.7656   22.2534 N   0  0  0  0  0  0  0  0  0  0  0  0
    3.4259  -19.3893   22.6406 C   0  0  0  0  0  0  0  0  0  0  0  0
    4.7956  -18.8456   22.6056 C   0  0  0  0  0  0  0  0  0  0  0  0
    5.7486  -19.6593   22.7721 O   0  0  0  0  0  0  0  0  0  0  0  0
    5.0969  -17.4807   22.3982 N   0  0  0  0  0  0  0  0  0  0  0  0
    6.5208  -17.0353   22.4531 C   0  0  1  0  0  0  0  0  0  0  0  0
    6.6777  -15.9356   21.4225 C   0  0  0  0  0  0  0  0  0  0  0  0
    6.6072  -16.4259   20.0152 C   0  0  0  0  0  0  0  0  0  0  0  0
    6.6819  -15.2714   19.0727 C   0  0  0  0  0  0  0  0  0  0  0  0
    6.9228  -14.1240   19.5127 O   0  0  0  0  0  0  0  0  0  0  0  0
    6.7450  -16.5884   23.8416 C   0  0  0  0  0  0  0  0  0  0  0  0
    5.7635  -16.4521   24.6548 O   0  0  0  0  0  0  0  0  0  0  0  0
    6.4837  -15.4688   17.7234 O   0  0  0  0  0  0  0  0  0  0  0  0
    8.0168  -16.2802   24.4021 N   0  0  0  0  0  0  0  0  0  0  0  0
    8.3330  -16.5865   25.7950 C   0  0  1  0  0  0  0  0  0  0  0  0
    8.1792  -18.0712   25.9411 C   0  0  0  0  0  0  0  0  0  0  0  0
    8.4585  -18.6330   27.2830 C   0  0  0  0  0  0  0  0  0  0  0  0
    8.2884  -20.1096   27.3823 C   0  0  0  0  0  0  0  0  0  0  0  0
    8.4617  -20.7226   28.7328 C   0  0  0  0  0  0  0  0  0  0  0  0
    8.3708  -22.1394   28.7852 N   0  0  0  0  0  0  0  0  0  0  0  0
    9.5887  -16.0074   26.2289 C   0  0  0  0  0  0  0  0  0  0  0  0
    9.7298  -15.6234   27.4157 O   0  0  0  0  0  0  0  0  0  0  0  0
   10.6500  -15.8628   25.3720 O   0  0  0  0  0  0  0  0  0  0  0  0
  2  1  1  0
  3  5  1  0
  3  2  1  0
  4  3  2  0
  6  5  1  0
  6 11  1  0
  6  7  1  6
  8  7  1  0
  9  8  1  0
 10  9  2  0
 11 14  1  0
 12 11  2  0
 13  9  1  0
 14 15  1  0
 15 21  1  0
 15 16  1  6
 17 16  1  0
 18 17  1  0
 19 18  1  0
 20 19  1  0
 21 23  1  0
 22 21  2  0
M  END
$$$$
