KLQ.pdb
     RDKit          3D

 27 26  0  0  1  0  0  0  0  0999 V2000
   27.0508  -21.9921  -16.6506 N   0  0  0  0  0  0  0  0  0  0  0  0
   26.3054  -23.2233  -16.5550 C   0  0  1  0  0  0  0  0  0  0  0  0
   27.1885  -24.3821  -16.2598 C   0  0  0  0  0  0  0  0  0  0  0  0
   27.7830  -25.0712  -17.4402 C   0  0  0  0  0  0  0  0  0  0  0  0
   27.7452  -26.5676  -17.4093 C   0  0  0  0  0  0  0  0  0  0  0  0
   28.8203  -27.0674  -16.4371 C   0  0  0  0  0  0  0  0  0  0  0  0
   28.8208  -28.5093  -16.3727 N   0  0  0  0  0  0  0  0  0  0  0  0
   25.2950  -23.0921  -15.4599 C   0  0  0  0  0  0  0  0  0  0  0  0
   24.4933  -24.0336  -15.2839 O   0  0  0  0  0  0  0  0  0  0  0  0
   26.2712  -20.2299  -10.6815 C   0  0  0  0  0  0  0  0  0  0  0  0
   25.7964  -21.3842  -11.5769 C   0  0  1  0  0  0  0  0  0  0  0  0
   25.2323  -22.4257  -10.6739 C   0  0  0  0  0  0  0  0  0  0  0  0
   24.8188  -20.7961  -12.5356 C   0  0  0  0  0  0  0  0  0  0  0  0
   24.2946  -21.7815  -13.5563 C   0  0  2  0  0  0  0  0  0  0  0  0
   25.2482  -21.9203  -14.6369 N   0  0  0  0  0  0  0  0  0  0  0  0
   23.0571  -21.1693  -14.1217 C   0  0  0  0  0  0  0  0  0  0  0  0
   23.1802  -20.1498  -14.8436 O   0  0  0  0  0  0  0  0  0  0  0  0
   17.6696  -24.0557  -15.4979 N   0  0  0  0  0  0  0  0  0  0  0  0
   17.4423  -22.7036  -15.8337 C   0  0  0  0  0  0  0  0  0  0  0  0
   16.3717  -22.4020  -16.4593 O   0  0  0  0  0  0  0  0  0  0  0  0
   18.3771  -21.6424  -15.4881 C   0  0  0  0  0  0  0  0  0  0  0  0
   19.6493  -22.0291  -14.8512 C   0  0  0  0  0  0  0  0  0  0  0  0
   20.6184  -20.9629  -14.4625 C   0  0  2  0  0  0  0  0  0  0  0  0
   21.7740  -21.6730  -13.8879 N   0  0  0  0  0  0  0  0  0  0  0  0
   20.0864  -20.0008  -13.5127 C   0  0  0  0  0  0  0  0  0  0  0  0
   20.1452  -20.1598  -12.2441 O   0  0  0  0  0  0  0  0  0  0  0  0
   19.4738  -18.8159  -13.9095 O   0  0  0  0  0  0  0  0  0  0  0  0
  2  3  1  0
  2  1  1  1
  4  5  1  0
  4  3  1  0
  5  6  1  0
  6  7  1  0
  8  2  1  0
  9  8  2  0
 11 10  1  1
 12 11  1  0
 13 11  1  0
 14 13  1  1
 14 15  1  0
 15  8  1  0
 16 17  2  0
 16 14  1  0
 18 19  1  0
 19 20  2  0
 21 22  1  0
 21 19  1  0
 23 22  1  1
 23 24  1  0
 24 16  1  0
 25 23  1  0
 26 25  2  0
 27 25  1  0
M  END
$$$$
