KLQ.pdb
     RDKit          3D

 27 26  0  0  1  0  0  0  0  0999 V2000
   27.7167  -12.8891  -17.4169 N   0  0  0  0  0  0  0  0  0  0  0  0
   28.7965  -12.4401  -18.2614 C   0  0  1  0  0  0  0  0  0  0  0  0
   28.4049  -12.4211  -19.6953 C   0  0  0  0  0  0  0  0  0  0  0  0
   28.2324  -13.7510  -20.3459 C   0  0  0  0  0  0  0  0  0  0  0  0
   27.0089  -14.5173  -19.9493 C   0  0  0  0  0  0  0  0  0  0  0  0
   26.9395  -15.8009  -20.7850 C   0  0  0  0  0  0  0  0  0  0  0  0
   26.4014  -15.5289  -22.0964 N   0  0  0  0  0  0  0  0  0  0  0  0
   29.1901  -11.0576  -17.8476 C   0  0  0  0  0  0  0  0  0  0  0  0
   28.3205  -10.3313  -17.3220 O   0  0  0  0  0  0  0  0  0  0  0  0
   32.2327   -7.2818  -15.9406 C   0  0  0  0  0  0  0  0  0  0  0  0
   32.9344   -7.8110  -17.2004 C   0  0  1  0  0  0  0  0  0  0  0  0
   34.3990   -7.7436  -16.9378 C   0  0  0  0  0  0  0  0  0  0  0  0
   32.4058   -9.1855  -17.4284 C   0  0  0  0  0  0  0  0  0  0  0  0
   30.9181   -9.2318  -17.6975 C   0  0  2  0  0  0  0  0  0  0  0  0
   30.5261  -10.5806  -18.0485 N   0  0  0  0  0  0  0  0  0  0  0  0
   30.6891   -8.3693  -18.8932 C   0  0  0  0  0  0  0  0  0  0  0  0
   30.9928   -8.8309  -20.0203 O   0  0  0  0  0  0  0  0  0  0  0  0
   30.2754   -7.4684  -23.2960 N   0  0  0  0  0  0  0  0  0  0  0  0
   28.9897   -6.8866  -23.2658 C   0  0  0  0  0  0  0  0  0  0  0  0
   28.4554   -6.5299  -24.3684 O   0  0  0  0  0  0  0  0  0  0  0  0
   28.2493   -6.6853  -22.0285 C   0  0  0  0  0  0  0  0  0  0  0  0
   28.8475   -7.1937  -20.7805 C   0  0  0  0  0  0  0  0  0  0  0  0
   29.8632   -6.3608  -20.0722 C   0  0  2  0  0  0  0  0  0  0  0  0
   30.1558   -7.0790  -18.8198 N   0  0  0  0  0  0  0  0  0  0  0  0
   29.4222   -5.0050  -19.7924 C   0  0  0  0  0  0  0  0  0  0  0  0
   28.7586   -4.6840  -18.7462 O   0  0  0  0  0  0  0  0  0  0  0  0
   29.6964   -3.9373  -20.6419 O   0  0  0  0  0  0  0  0  0  0  0  0
  2  3  1  0
  2  1  1  1
  4  5  1  0
  4  3  1  0
  5  6  1  0
  6  7  1  0
  8  2  1  0
  9  8  2  0
 11 10  1  1
 12 11  1  0
 13 11  1  0
 14 13  1  6
 14 15  1  0
 15  8  1  0
 16 17  2  0
 16 14  1  0
 18 19  1  0
 19 20  2  0
 21 22  1  0
 21 19  1  0
 23 22  1  1
 23 24  1  0
 24 16  1  0
 25 23  1  0
 26 25  2  0
 27 25  1  0
M  END
$$$$
