KLQ.pdb
     RDKit          3D

 27 26  0  0  1  0  0  0  0  0999 V2000
   26.7173  -20.8572  -16.9591 N   0  0  0  0  0  0  0  0  0  0  0  0
   25.6380  -20.0585  -16.4322 C   0  0  1  0  0  0  0  0  0  0  0  0
   24.7022  -19.6205  -17.5010 C   0  0  0  0  0  0  0  0  0  0  0  0
   25.2892  -18.7796  -18.5827 C   0  0  0  0  0  0  0  0  0  0  0  0
   25.9291  -17.5006  -18.1400 C   0  0  0  0  0  0  0  0  0  0  0  0
   26.3463  -16.7032  -19.3814 C   0  0  0  0  0  0  0  0  0  0  0  0
   26.9740  -15.4597  -19.0032 N   0  0  0  0  0  0  0  0  0  0  0  0
   24.8822  -20.8701  -15.4284 C   0  0  0  0  0  0  0  0  0  0  0  0
   24.6067  -22.0537  -15.7169 O   0  0  0  0  0  0  0  0  0  0  0  0
   25.6549  -20.2567   -9.9626 C   0  0  0  0  0  0  0  0  0  0  0  0
   25.4871  -20.8903  -11.3518 C   0  0  1  0  0  0  0  0  0  0  0  0
   25.7661  -22.3453  -11.1979 C   0  0  0  0  0  0  0  0  0  0  0  0
   24.1021  -20.5660  -11.7957 C   0  0  0  0  0  0  0  0  0  0  0  0
   23.7679  -21.0770  -13.1795 C   0  0  2  0  0  0  0  0  0  0  0  0
   24.4859  -20.3059  -14.1724 N   0  0  0  0  0  0  0  0  0  0  0  0
   22.3114  -20.8183  -13.3732 C   0  0  0  0  0  0  0  0  0  0  0  0
   21.9481  -19.6406  -13.6114 O   0  0  0  0  0  0  0  0  0  0  0  0
   15.6637  -24.0974  -14.2316 N   0  0  0  0  0  0  0  0  0  0  0  0
   17.0546  -23.9987  -14.0120 C   0  0  0  0  0  0  0  0  0  0  0  0
   17.7386  -25.0736  -13.9396 O   0  0  0  0  0  0  0  0  0  0  0  0
   17.7373  -22.7205  -13.8725 C   0  0  0  0  0  0  0  0  0  0  0  0
   19.2026  -22.7393  -13.7107 C   0  0  0  0  0  0  0  0  0  0  0  0
   19.9263  -21.4492  -13.5134 C   0  0  2  0  0  0  0  0  0  0  0  0
   21.3367  -21.8182  -13.3027 N   0  0  0  0  0  0  0  0  0  0  0  0
   19.4323  -20.6611  -12.3973 C   0  0  0  0  0  0  0  0  0  0  0  0
   19.8895  -20.7660  -11.2064 O   0  0  0  0  0  0  0  0  0  0  0  0
   18.4212  -19.7152  -12.5370 O   0  0  0  0  0  0  0  0  0  0  0  0
  2  3  1  0
  2  1  1  6
  4  5  1  0
  4  3  1  0
  5  6  1  0
  6  7  1  0
  8  2  1  0
  9  8  2  0
 11 10  1  1
 12 11  1  0
 13 11  1  0
 14 13  1  1
 14 15  1  0
 15  8  1  0
 16 17  2  0
 16 14  1  0
 18 19  1  0
 19 20  2  0
 21 22  1  0
 21 19  1  0
 23 22  1  1
 23 24  1  0
 24 16  1  0
 25 23  1  0
 26 25  2  0
 27 25  1  0
M  END
$$$$
