KLQ.pdb
     RDKit          3D

 27 26  0  0  1  0  0  0  0  0999 V2000
   27.2565  -21.7712  -14.0440 N   0  0  0  0  0  0  0  0  0  0  0  0
   25.8781  -21.4215  -13.8024 C   0  0  1  0  0  0  0  0  0  0  0  0
   25.7479  -20.3908  -12.7392 C   0  0  0  0  0  0  0  0  0  0  0  0
   25.7792  -20.8893  -11.3349 C   0  0  0  0  0  0  0  0  0  0  0  0
   25.5304  -19.8638  -10.2729 C   0  0  0  0  0  0  0  0  0  0  0  0
   25.7256  -20.5187   -8.9004 C   0  0  0  0  0  0  0  0  0  0  0  0
   24.6396  -21.4227   -8.6061 N   0  0  0  0  0  0  0  0  0  0  0  0
   25.2859  -20.8897  -15.0688 C   0  0  0  0  0  0  0  0  0  0  0  0
   25.9902  -20.1403  -15.7778 O   0  0  0  0  0  0  0  0  0  0  0  0
   23.6797  -20.7196  -19.6957 C   0  0  0  0  0  0  0  0  0  0  0  0
   22.5972  -21.5268  -18.9635 C   0  0  1  0  0  0  0  0  0  0  0  0
   22.2407  -22.6706  -19.8484 C   0  0  0  0  0  0  0  0  0  0  0  0
   23.1816  -21.9156  -17.6490 C   0  0  0  0  0  0  0  0  0  0  0  0
   23.3682  -20.7563  -16.6957 C   0  0  2  0  0  0  0  0  0  0  0  0
   23.9494  -21.2300  -15.4572 N   0  0  0  0  0  0  0  0  0  0  0  0
   21.9982  -20.2520  -16.3879 C   0  0  0  0  0  0  0  0  0  0  0  0
   21.3701  -20.7898  -15.4434 O   0  0  0  0  0  0  0  0  0  0  0  0
   20.0204  -14.3966  -17.2420 N   0  0  0  0  0  0  0  0  0  0  0  0
   18.8560  -15.0748  -16.8215 C   0  0  0  0  0  0  0  0  0  0  0  0
   17.7976  -14.3948  -16.6076 O   0  0  0  0  0  0  0  0  0  0  0  0
   18.8152  -16.5174  -16.6300 C   0  0  0  0  0  0  0  0  0  0  0  0
   20.0542  -17.2776  -16.8766 C   0  0  0  0  0  0  0  0  0  0  0  0
   20.0520  -18.7549  -16.6654 C   0  0  2  0  0  0  0  0  0  0  0  0
   21.3832  -19.2153  -17.0963 N   0  0  0  0  0  0  0  0  0  0  0  0
   19.0086  -19.4532  -17.3966 C   0  0  0  0  0  0  0  0  0  0  0  0
   17.8582  -19.7151  -16.9007 O   0  0  0  0  0  0  0  0  0  0  0  0
   19.1750  -19.8881  -18.7080 O   0  0  0  0  0  0  0  0  0  0  0  0
  2  3  1  0
  2  1  1  6
  4  5  1  0
  4  3  1  0
  5  6  1  0
  6  7  1  0
  8  2  1  0
  9  8  2  0
 11 10  1  6
 12 11  1  0
 13 11  1  0
 14 13  1  6
 14 15  1  0
 15  8  1  0
 16 17  2  0
 16 14  1  0
 18 19  1  0
 19 20  2  0
 21 22  1  0
 21 19  1  0
 23 22  1  6
 23 24  1  0
 24 16  1  0
 25 23  1  0
 26 25  2  0
 27 25  1  0
M  END
$$$$
