KLQ.pdb
     RDKit          3D

 27 26  0  0  1  0  0  0  0  0999 V2000
   28.6818  -23.2120  -16.8388 N   0  0  0  0  0  0  0  0  0  0  0  0
   27.9681  -21.9658  -16.7046 C   0  0  1  0  0  0  0  0  0  0  0  0
   27.0472  -21.7308  -17.8476 C   0  0  0  0  0  0  0  0  0  0  0  0
   27.6849  -21.6073  -19.1891 C   0  0  0  0  0  0  0  0  0  0  0  0
   28.1356  -22.8892  -19.8176 C   0  0  0  0  0  0  0  0  0  0  0  0
   28.7135  -22.5815  -21.2041 C   0  0  0  0  0  0  0  0  0  0  0  0
   29.2365  -23.7790  -21.8173 N   0  0  0  0  0  0  0  0  0  0  0  0
   27.1716  -21.9995  -15.4389 C   0  0  0  0  0  0  0  0  0  0  0  0
   26.6141  -23.0718  -15.1236 O   0  0  0  0  0  0  0  0  0  0  0  0
   29.6560  -19.8202  -11.3662 C   0  0  0  0  0  0  0  0  0  0  0  0
   28.8067  -20.7928  -12.1981 C   0  0  1  0  0  0  0  0  0  0  0  0
   28.8288  -22.1009  -11.4863 C   0  0  0  0  0  0  0  0  0  0  0  0
   27.4570  -20.1728  -12.3187 C   0  0  0  0  0  0  0  0  0  0  0  0
   26.5300  -20.9046  -13.2636 C   0  0  2  0  0  0  0  0  0  0  0  0
   27.0518  -20.8353  -14.6124 N   0  0  0  0  0  0  0  0  0  0  0  0
   25.2408  -20.1541  -13.2390 C   0  0  0  0  0  0  0  0  0  0  0  0
   25.1830  -19.0607  -13.8530 O   0  0  0  0  0  0  0  0  0  0  0  0
   20.1029  -18.0899  -14.8067 N   0  0  0  0  0  0  0  0  0  0  0  0
   21.1035  -18.8321  -15.4704 C   0  0  0  0  0  0  0  0  0  0  0  0
   21.7808  -18.2591  -16.3875 O   0  0  0  0  0  0  0  0  0  0  0  0
   21.3957  -20.2205  -15.1441 C   0  0  0  0  0  0  0  0  0  0  0  0
   22.6539  -20.5076  -14.4311 C   0  0  0  0  0  0  0  0  0  0  0  0
   22.7819  -20.1095  -12.9986 C   0  0  2  0  0  0  0  0  0  0  0  0
   24.1002  -20.6067  -12.5690 N   0  0  0  0  0  0  0  0  0  0  0  0
   21.7330  -20.6388  -12.1439 C   0  0  0  0  0  0  0  0  0  0  0  0
   21.8316  -21.7504  -11.5172 O   0  0  0  0  0  0  0  0  0  0  0  0
   20.5318  -19.9695  -11.9294 O   0  0  0  0  0  0  0  0  0  0  0  0
  2  3  1  0
  2  1  1  6
  4  5  1  0
  4  3  1  0
  5  6  1  0
  6  7  1  0
  8  2  1  0
  9  8  2  0
 11 10  1  1
 12 11  1  0
 13 11  1  0
 14 13  1  1
 14 15  1  0
 15  8  1  0
 16 17  2  0
 16 14  1  0
 18 19  1  0
 19 20  2  0
 21 22  1  0
 21 19  1  0
 23 22  1  6
 23 24  1  0
 24 16  1  0
 25 23  1  0
 26 25  2  0
 27 25  1  0
M  END
$$$$
