KLQ.pdb
     RDKit          3D

 27 26  0  0  1  0  0  0  0  0999 V2000
   22.4578  -14.5512  -17.6633 N   0  0  0  0  0  0  0  0  0  0  0  0
   22.8335  -13.2711  -18.2117 C   0  0  1  0  0  0  0  0  0  0  0  0
   21.7034  -12.6245  -18.9291 C   0  0  0  0  0  0  0  0  0  0  0  0
   21.2262  -13.3162  -20.1601 C   0  0  0  0  0  0  0  0  0  0  0  0
   20.3854  -14.5351  -19.9390 C   0  0  0  0  0  0  0  0  0  0  0  0
   19.9692  -15.1002  -21.3022 C   0  0  0  0  0  0  0  0  0  0  0  0
   19.2601  -16.3474  -21.1437 N   0  0  0  0  0  0  0  0  0  0  0  0
   23.2739  -12.3782  -17.0954 C   0  0  0  0  0  0  0  0  0  0  0  0
   22.6288  -12.4117  -16.0263 O   0  0  0  0  0  0  0  0  0  0  0  0
   28.6463  -11.2005  -16.6303 C   0  0  0  0  0  0  0  0  0  0  0  0
   27.1958  -11.6634  -16.4274 C   0  0  1  0  0  0  0  0  0  0  0  0
   27.1811  -12.5085  -15.2010 C   0  0  0  0  0  0  0  0  0  0  0  0
   26.3694  -10.4263  -16.3405 C   0  0  0  0  0  0  0  0  0  0  0  0
   24.8911  -10.6899  -16.1592 C   0  0  2  0  0  0  0  0  0  0  0  0
   24.4031  -11.5096  -17.2482 N   0  0  0  0  0  0  0  0  0  0  0  0
   24.2208   -9.3607  -16.2588 C   0  0  0  0  0  0  0  0  0  0  0  0
   24.4243   -8.6732  -17.2892 O   0  0  0  0  0  0  0  0  0  0  0  0
   18.9278   -6.5965  -18.9151 N   0  0  0  0  0  0  0  0  0  0  0  0
   19.9406   -7.4251  -18.3858 C   0  0  0  0  0  0  0  0  0  0  0  0
   20.1556   -8.5549  -18.9388 O   0  0  0  0  0  0  0  0  0  0  0  0
   20.7515   -7.0375  -17.2405 C   0  0  0  0  0  0  0  0  0  0  0  0
   21.7496   -8.0044  -16.7478 C   0  0  0  0  0  0  0  0  0  0  0  0
   22.5844   -7.6443  -15.5644 C   0  0  2  0  0  0  0  0  0  0  0  0
   23.3817   -8.8463  -15.2657 N   0  0  0  0  0  0  0  0  0  0  0  0
   21.8139   -7.2403  -14.4007 C   0  0  0  0  0  0  0  0  0  0  0  0
   21.4702   -8.0493  -13.4704 O   0  0  0  0  0  0  0  0  0  0  0  0
   21.3929   -5.9294  -14.1987 O   0  0  0  0  0  0  0  0  0  0  0  0
  2  3  1  0
  2  1  1  1
  4  5  1  0
  4  3  1  0
  5  6  1  0
  6  7  1  0
  8  2  1  0
  9  8  2  0
 11 10  1  1
 12 11  1  0
 13 11  1  0
 14 13  1  6
 14 15  1  0
 15  8  1  0
 16 17  2  0
 16 14  1  0
 18 19  1  0
 19 20  2  0
 21 22  1  0
 21 19  1  0
 23 22  1  6
 23 24  1  0
 24 16  1  0
 25 23  1  0
 26 25  2  0
 27 25  1  0
M  END
$$$$
