KLQ.pdb
     RDKit          3D

 27 26  0  0  1  0  0  0  0  0999 V2000
   26.4054  -25.1267  -16.1220 N   0  0  0  0  0  0  0  0  0  0  0  0
   26.3857  -23.6935  -15.9611 C   0  0  1  0  0  0  0  0  0  0  0  0
   26.1480  -22.9959  -17.2521 C   0  0  0  0  0  0  0  0  0  0  0  0
   27.1986  -23.1701  -18.2949 C   0  0  0  0  0  0  0  0  0  0  0  0
   28.4383  -22.3502  -18.1153 C   0  0  0  0  0  0  0  0  0  0  0  0
   28.0758  -20.8686  -18.2711 C   0  0  0  0  0  0  0  0  0  0  0  0
   29.2250  -20.0320  -18.0208 N   0  0  0  0  0  0  0  0  0  0  0  0
   25.2941  -23.3300  -15.0052 C   0  0  0  0  0  0  0  0  0  0  0  0
   24.2803  -24.0586  -14.9659 O   0  0  0  0  0  0  0  0  0  0  0  0
   26.1111  -22.3615  -10.8743 C   0  0  0  0  0  0  0  0  0  0  0  0
   25.0148  -21.2859  -10.8522 C   0  0  1  0  0  0  0  0  0  0  0  0
   25.4362  -20.2619   -9.8562 C   0  0  0  0  0  0  0  0  0  0  0  0
   24.8939  -20.7821  -12.2495 C   0  0  0  0  0  0  0  0  0  0  0  0
   24.3650  -21.8087  -13.2262 C   0  0  2  0  0  0  0  0  0  0  0  0
   25.4082  -22.1793  -14.1592 N   0  0  0  0  0  0  0  0  0  0  0  0
   23.2889  -21.1242  -14.0004 C   0  0  0  0  0  0  0  0  0  0  0  0
   23.6140  -20.1621  -14.7382 O   0  0  0  0  0  0  0  0  0  0  0  0
   17.2428  -23.0887  -14.8174 N   0  0  0  0  0  0  0  0  0  0  0  0
   17.8535  -22.6758  -16.0212 C   0  0  0  0  0  0  0  0  0  0  0  0
   17.2955  -22.9861  -17.1260 O   0  0  0  0  0  0  0  0  0  0  0  0
   19.0886  -21.9056  -16.0495 C   0  0  0  0  0  0  0  0  0  0  0  0
   19.7309  -21.5912  -14.7602 C   0  0  0  0  0  0  0  0  0  0  0  0
   20.9643  -20.7513  -14.7510 C   0  0  2  0  0  0  0  0  0  0  0  0
   21.9434  -21.5000  -13.9443 N   0  0  0  0  0  0  0  0  0  0  0  0
   20.7660  -19.4190  -14.2064 C   0  0  0  0  0  0  0  0  0  0  0  0
   20.6969  -19.1761  -12.9517 O   0  0  0  0  0  0  0  0  0  0  0  0
   20.6437  -18.2906  -15.0117 O   0  0  0  0  0  0  0  0  0  0  0  0
  2  3  1  0
  2  1  1  6
  4  5  1  0
  4  3  1  0
  5  6  1  0
  6  7  1  0
  8  2  1  0
  9  8  2  0
 11 10  1  6
 12 11  1  0
 13 11  1  0
 14 13  1  1
 14 15  1  0
 15  8  1  0
 16 17  2  0
 16 14  1  0
 18 19  1  0
 19 20  2  0
 21 22  1  0
 21 19  1  0
 23 22  1  1
 23 24  1  0
 24 16  1  0
 25 23  1  0
 26 25  2  0
 27 25  1  0
M  END
$$$$
