KLQ.pdb
     RDKit          3D

 27 26  0  0  1  0  0  0  0  0999 V2000
   20.7900  -22.2751  -13.1488 N   0  0  0  0  0  0  0  0  0  0  0  0
   20.6530  -20.8418  -13.0626 C   0  0  1  0  0  0  0  0  0  0  0  0
   20.0402  -20.4220  -11.7750 C   0  0  0  0  0  0  0  0  0  0  0  0
   18.6819  -20.9640  -11.4873 C   0  0  0  0  0  0  0  0  0  0  0  0
   18.3875  -22.3193  -12.0511 C   0  0  0  0  0  0  0  0  0  0  0  0
   16.9245  -22.6690  -11.7544 C   0  0  0  0  0  0  0  0  0  0  0  0
   16.5469  -23.8939  -12.4181 N   0  0  0  0  0  0  0  0  0  0  0  0
   22.0080  -20.2194  -13.1808 C   0  0  0  0  0  0  0  0  0  0  0  0
   22.0804  -18.9733  -13.2283 O   0  0  0  0  0  0  0  0  0  0  0  0
   25.9927  -21.8764  -10.2023 C   0  0  0  0  0  0  0  0  0  0  0  0
   24.9277  -21.1480  -11.0358 C   0  0  1  0  0  0  0  0  0  0  0  0
   24.6896  -19.8338  -10.3767 C   0  0  0  0  0  0  0  0  0  0  0  0
   25.4682  -21.0601  -12.4218 C   0  0  0  0  0  0  0  0  0  0  0  0
   24.5045  -20.4525  -13.4167 C   0  0  2  0  0  0  0  0  0  0  0  0
   23.1886  -21.0292  -13.2379 N   0  0  0  0  0  0  0  0  0  0  0  0
   24.9958  -20.8578  -14.7659 C   0  0  0  0  0  0  0  0  0  0  0  0
   26.1655  -20.5366  -15.0887 O   0  0  0  0  0  0  0  0  0  0  0  0
   23.8426  -25.5455  -15.6393 N   0  0  0  0  0  0  0  0  0  0  0  0
   25.2141  -25.2235  -15.7266 C   0  0  0  0  0  0  0  0  0  0  0  0
   26.0500  -25.9314  -15.0721 O   0  0  0  0  0  0  0  0  0  0  0  0
   25.7103  -24.1216  -16.5386 C   0  0  0  0  0  0  0  0  0  0  0  0
   24.7187  -23.2813  -17.2345 C   0  0  0  0  0  0  0  0  0  0  0  0
   24.7557  -21.8026  -17.0365 C   0  0  2  0  0  0  0  0  0  0  0  0
   24.2209  -21.5740  -15.6832 N   0  0  0  0  0  0  0  0  0  0  0  0
   23.9903  -21.0569  -18.0209 C   0  0  0  0  0  0  0  0  0  0  0  0
   24.1556  -21.1853  -19.2835 O   0  0  0  0  0  0  0  0  0  0  0  0
   23.0022  -20.1432  -17.6667 O   0  0  0  0  0  0  0  0  0  0  0  0
  2  3  1  0
  2  1  1  1
  4  5  1  0
  4  3  1  0
  5  6  1  0
  6  7  1  0
  8  2  1  0
  9  8  2  0
 11 10  1  1
 12 11  1  0
 13 11  1  0
 14 13  1  1
 14 15  1  0
 15  8  1  0
 16 17  2  0
 16 14  1  0
 18 19  1  0
 19 20  2  0
 21 22  1  0
 21 19  1  0
 23 22  1  6
 23 24  1  0
 24 16  1  0
 25 23  1  0
 26 25  2  0
 27 25  1  0
M  END
$$$$
