KLQ.pdb
     RDKit          3D

 27 26  0  0  1  0  0  0  0  0999 V2000
   25.6415  -18.8586  -17.0655 N   0  0  0  0  0  0  0  0  0  0  0  0
   24.7663  -19.9335  -17.4643 C   0  0  1  0  0  0  0  0  0  0  0  0
   25.4399  -20.8784  -18.3935 C   0  0  0  0  0  0  0  0  0  0  0  0
   25.9474  -20.2954  -19.6680 C   0  0  0  0  0  0  0  0  0  0  0  0
   26.7764  -19.0560  -19.5338 C   0  0  0  0  0  0  0  0  0  0  0  0
   27.2163  -18.6040  -20.9313 C   0  0  0  0  0  0  0  0  0  0  0  0
   28.1690  -17.5233  -20.8429 N   0  0  0  0  0  0  0  0  0  0  0  0
   24.3319  -20.6806  -16.2434 C   0  0  0  0  0  0  0  0  0  0  0  0
   23.7372  -21.7678  -16.4001 O   0  0  0  0  0  0  0  0  0  0  0  0
   25.5043  -22.3155  -11.2358 C   0  0  0  0  0  0  0  0  0  0  0  0
   24.6670  -21.0281  -11.2638 C   0  0  1  0  0  0  0  0  0  0  0  0
   25.0281  -20.2530  -10.0442 C   0  0  0  0  0  0  0  0  0  0  0  0
   24.9869  -20.3480  -12.5506 C   0  0  0  0  0  0  0  0  0  0  0  0
   24.2211  -20.8913  -13.7363 C   0  0  2  0  0  0  0  0  0  0  0  0
   24.5906  -20.1639  -14.9324 N   0  0  0  0  0  0  0  0  0  0  0  0
   22.7822  -20.6080  -13.4619 C   0  0  0  0  0  0  0  0  0  0  0  0
   22.4380  -19.4125  -13.2940 O   0  0  0  0  0  0  0  0  0  0  0  0
   17.9241  -24.6727  -14.1671 N   0  0  0  0  0  0  0  0  0  0  0  0
   17.3321  -23.4767  -13.7072 C   0  0  0  0  0  0  0  0  0  0  0  0
   16.0616  -23.4269  -13.5997 O   0  0  0  0  0  0  0  0  0  0  0  0
   18.1147  -22.3036  -13.3452 C   0  0  0  0  0  0  0  0  0  0  0  0
   19.5780  -22.3777  -13.5090 C   0  0  0  0  0  0  0  0  0  0  0  0
   20.4126  -21.2095  -13.1018 C   0  0  2  0  0  0  0  0  0  0  0  0
   21.8039  -21.6037  -13.3830 N   0  0  0  0  0  0  0  0  0  0  0  0
   20.2602  -20.8341  -11.7066 C   0  0  0  0  0  0  0  0  0  0  0  0
   20.8593  -21.4344  -10.7481 O   0  0  0  0  0  0  0  0  0  0  0  0
   19.4514  -19.7776  -11.2987 O   0  0  0  0  0  0  0  0  0  0  0  0
  2  3  1  0
  2  1  1  1
  4  5  1  0
  4  3  1  0
  5  6  1  0
  6  7  1  0
  8  2  1  0
  9  8  2  0
 11 10  1  1
 12 11  1  0
 13 11  1  0
 14 13  1  1
 14 15  1  0
 15  8  1  0
 16 17  2  0
 16 14  1  0
 18 19  1  0
 19 20  2  0
 21 22  1  0
 21 19  1  0
 23 22  1  1
 23 24  1  0
 24 16  1  0
 25 23  1  0
 26 25  2  0
 27 25  1  0
M  END
$$$$
