KLQ.pdb
     RDKit          3D

 27 26  0  0  1  0  0  0  0  0999 V2000
   26.6733  -22.7751  -16.7183 N   0  0  0  0  0  0  0  0  0  0  0  0
   26.5882  -21.5834  -15.9101 C   0  0  1  0  0  0  0  0  0  0  0  0
   25.8302  -20.5040  -16.5958 C   0  0  0  0  0  0  0  0  0  0  0  0
   25.1324  -20.8903  -17.8549 C   0  0  0  0  0  0  0  0  0  0  0  0
   24.2667  -22.1090  -17.7733 C   0  0  0  0  0  0  0  0  0  0  0  0
   23.5380  -22.2860  -19.1106 C   0  0  0  0  0  0  0  0  0  0  0  0
   22.1093  -22.1839  -18.9319 N   0  0  0  0  0  0  0  0  0  0  0  0
   25.8992  -21.9194  -14.6257 C   0  0  0  0  0  0  0  0  0  0  0  0
   25.2041  -22.9563  -14.5852 O   0  0  0  0  0  0  0  0  0  0  0  0
   25.6776  -22.0103   -9.2687 C   0  0  0  0  0  0  0  0  0  0  0  0
   25.2027  -20.6584   -9.8221 C   0  0  1  0  0  0  0  0  0  0  0  0
   25.5403  -19.6313   -8.7976 C   0  0  0  0  0  0  0  0  0  0  0  0
   25.8879  -20.4782  -11.1331 C   0  0  0  0  0  0  0  0  0  0  0  0
   25.3402  -21.3572  -12.2353 C   0  0  2  0  0  0  0  0  0  0  0  0
   26.0329  -21.0760  -13.4752 N   0  0  0  0  0  0  0  0  0  0  0  0
   23.9147  -20.9542  -12.4130 C   0  0  0  0  0  0  0  0  0  0  0  0
   23.1066  -21.2220  -11.4905 O   0  0  0  0  0  0  0  0  0  0  0  0
   21.5437  -17.4864  -17.2397 N   0  0  0  0  0  0  0  0  0  0  0  0
   20.4298  -17.7928  -16.4287 C   0  0  0  0  0  0  0  0  0  0  0  0
   19.2760  -17.3949  -16.8012 O   0  0  0  0  0  0  0  0  0  0  0  0
   20.5463  -18.5497  -15.1905 C   0  0  0  0  0  0  0  0  0  0  0  0
   21.8780  -19.0659  -14.8246 C   0  0  0  0  0  0  0  0  0  0  0  0
   22.0160  -19.9142  -13.6046 C   0  0  2  0  0  0  0  0  0  0  0  0
   23.4376  -20.2965  -13.5508 N   0  0  0  0  0  0  0  0  0  0  0  0
   21.1695  -21.0949  -13.6090 C   0  0  0  0  0  0  0  0  0  0  0  0
   20.0188  -21.1364  -13.0501 O   0  0  0  0  0  0  0  0  0  0  0  0
   21.5411  -22.2814  -14.2342 O   0  0  0  0  0  0  0  0  0  0  0  0
  2  3  1  0
  2  1  1  6
  4  5  1  0
  4  3  1  0
  5  6  1  0
  6  7  1  0
  8  2  1  0
  9  8  2  0
 11 10  1  1
 12 11  1  0
 13 11  1  0
 14 13  1  1
 14 15  1  0
 15  8  1  0
 16 17  2  0
 16 14  1  0
 18 19  1  0
 19 20  2  0
 21 22  1  0
 21 19  1  0
 23 22  1  6
 23 24  1  0
 24 16  1  0
 25 23  1  0
 26 25  2  0
 27 25  1  0
M  END
$$$$
