KLQ.pdb
     RDKit          3D

 27 26  0  0  1  0  0  0  0  0999 V2000
   20.9114  -19.5804  -11.9851 N   0  0  0  0  0  0  0  0  0  0  0  0
   21.7709  -20.7367  -11.9155 C   0  0  1  0  0  0  0  0  0  0  0  0
   21.6545  -21.5853  -13.1304 C   0  0  0  0  0  0  0  0  0  0  0  0
   20.3455  -22.2697  -13.3296 C   0  0  0  0  0  0  0  0  0  0  0  0
   19.8734  -23.1189  -12.1905 C   0  0  0  0  0  0  0  0  0  0  0  0
   18.5538  -23.7895  -12.5900 C   0  0  0  0  0  0  0  0  0  0  0  0
   17.4265  -23.0098  -12.1375 N   0  0  0  0  0  0  0  0  0  0  0  0
   23.1878  -20.2775  -11.7784 C   0  0  0  0  0  0  0  0  0  0  0  0
   23.5379  -19.2557  -12.4059 O   0  0  0  0  0  0  0  0  0  0  0  0
   26.2114  -21.1568   -7.1349 C   0  0  0  0  0  0  0  0  0  0  0  0
   25.5803  -20.4343   -8.3346 C   0  0  1  0  0  0  0  0  0  0  0  0
   25.9654  -18.9998   -8.2246 C   0  0  0  0  0  0  0  0  0  0  0  0
   26.0894  -21.1235   -9.5539 C   0  0  0  0  0  0  0  0  0  0  0  0
   25.5051  -20.5940  -10.8446 C   0  0  2  0  0  0  0  0  0  0  0  0
   24.1164  -20.9891  -10.9514 N   0  0  0  0  0  0  0  0  0  0  0  0
   26.2532  -21.2713  -11.9435 C   0  0  0  0  0  0  0  0  0  0  0  0
   26.2782  -22.5263  -11.9537 O   0  0  0  0  0  0  0  0  0  0  0  0
   23.0315  -22.2479  -15.6195 N   0  0  0  0  0  0  0  0  0  0  0  0
   24.1490  -22.5087  -16.4414 C   0  0  0  0  0  0  0  0  0  0  0  0
   23.9515  -23.0049  -17.6003 O   0  0  0  0  0  0  0  0  0  0  0  0
   25.5141  -22.2272  -16.0207 C   0  0  0  0  0  0  0  0  0  0  0  0
   25.7122  -21.6351  -14.6851 C   0  0  0  0  0  0  0  0  0  0  0  0
   27.0865  -21.2285  -14.2694 C   0  0  2  0  0  0  0  0  0  0  0  0
   26.9242  -20.5801  -12.9568 N   0  0  0  0  0  0  0  0  0  0  0  0
   27.7438  -20.3315  -15.2044 C   0  0  0  0  0  0  0  0  0  0  0  0
   27.7283  -19.0574  -15.0845 O   0  0  0  0  0  0  0  0  0  0  0  0
   28.4561  -20.7903  -16.3084 O   0  0  0  0  0  0  0  0  0  0  0  0
  2  3  1  0
  2  1  1  6
  4  5  1  0
  4  3  1  0
  5  6  1  0
  6  7  1  0
  8  2  1  0
  9  8  2  0
 11 10  1  1
 12 11  1  0
 13 11  1  0
 14 13  1  1
 14 15  1  0
 15  8  1  0
 16 17  2  0
 16 14  1  0
 18 19  1  0
 19 20  2  0
 21 22  1  0
 21 19  1  0
 23 22  1  6
 23 24  1  0
 24 16  1  0
 25 23  1  0
 26 25  2  0
 27 25  1  0
M  END
$$$$
