KLQ.pdb
     RDKit          3D

 27 26  0  0  1  0  0  0  0  0999 V2000
   22.6364  -12.9182  -18.5713 N   0  0  0  0  0  0  0  0  0  0  0  0
   21.5443  -12.5127  -17.7207 C   0  0  1  0  0  0  0  0  0  0  0  0
   21.0522  -13.6360  -16.8805 C   0  0  0  0  0  0  0  0  0  0  0  0
   20.4919  -14.8068  -17.6132 C   0  0  0  0  0  0  0  0  0  0  0  0
   21.2060  -16.1067  -17.4091 C   0  0  0  0  0  0  0  0  0  0  0  0
   20.5169  -17.1850  -18.2535 C   0  0  0  0  0  0  0  0  0  0  0  0
   21.3000  -18.3974  -18.2727 N   0  0  0  0  0  0  0  0  0  0  0  0
   22.0125  -11.4079  -16.8277 C   0  0  0  0  0  0  0  0  0  0  0  0
   21.2660  -11.0522  -15.8916 O   0  0  0  0  0  0  0  0  0  0  0  0
   27.4937  -10.4439  -16.3741 C   0  0  0  0  0  0  0  0  0  0  0  0
   26.0369  -10.7458  -15.9920 C   0  0  1  0  0  0  0  0  0  0  0  0
   26.0316  -11.0713  -14.5386 C   0  0  0  0  0  0  0  0  0  0  0  0
   25.2476   -9.5370  -16.3617 C   0  0  0  0  0  0  0  0  0  0  0  0
   23.7545   -9.7051  -16.1886 C   0  0  2  0  0  0  0  0  0  0  0  0
   23.2807  -10.7758  -17.0402 N   0  0  0  0  0  0  0  0  0  0  0  0
   23.1384   -8.4358  -16.6739 C   0  0  0  0  0  0  0  0  0  0  0  0
   23.1806   -8.1926  -17.9046 O   0  0  0  0  0  0  0  0  0  0  0  0
   18.5976   -8.2423  -18.8656 N   0  0  0  0  0  0  0  0  0  0  0  0
   18.5702   -6.8611  -18.5757 C   0  0  0  0  0  0  0  0  0  0  0  0
   17.5892   -6.1669  -19.0047 O   0  0  0  0  0  0  0  0  0  0  0  0
   19.6124   -6.2019  -17.8018 C   0  0  0  0  0  0  0  0  0  0  0  0
   20.6807   -7.0437  -17.2326 C   0  0  0  0  0  0  0  0  0  0  0  0
   21.7610   -6.3989  -16.4299 C   0  0  2  0  0  0  0  0  0  0  0  0
   22.5199   -7.5092  -15.8291 N   0  0  0  0  0  0  0  0  0  0  0  0
   21.2722   -5.4981  -15.4001 C   0  0  0  0  0  0  0  0  0  0  0  0
   21.1795   -5.8258  -14.1664 O   0  0  0  0  0  0  0  0  0  0  0  0
   20.8716   -4.1937  -15.6737 O   0  0  0  0  0  0  0  0  0  0  0  0
  2  3  1  0
  2  1  1  1
  4  5  1  0
  4  3  1  0
  5  6  1  0
  6  7  1  0
  8  2  1  0
  9  8  2  0
 11 10  1  1
 12 11  1  0
 13 11  1  0
 14 13  1  6
 14 15  1  0
 15  8  1  0
 16 17  2  0
 16 14  1  0
 18 19  1  0
 19 20  2  0
 21 22  1  0
 21 19  1  0
 23 22  1  1
 23 24  1  0
 24 16  1  0
 25 23  1  0
 26 25  2  0
 27 25  1  0
M  END
$$$$
