KLQ.pdb
     RDKit          3D

 27 26  0  0  1  0  0  0  0  0999 V2000
   26.2517  -22.2143  -15.8031 N   0  0  0  0  0  0  0  0  0  0  0  0
   25.2840  -23.2661  -15.6084 C   0  0  1  0  0  0  0  0  0  0  0  0
   25.9366  -24.5730  -15.3334 C   0  0  0  0  0  0  0  0  0  0  0  0
   26.7379  -25.1536  -16.4482 C   0  0  0  0  0  0  0  0  0  0  0  0
   26.3156  -26.5113  -16.9168 C   0  0  0  0  0  0  0  0  0  0  0  0
   27.2610  -26.9619  -18.0366 C   0  0  0  0  0  0  0  0  0  0  0  0
   26.9098  -28.2823  -18.5019 N   0  0  0  0  0  0  0  0  0  0  0  0
   24.4082  -22.9079  -14.4499 C   0  0  0  0  0  0  0  0  0  0  0  0
   23.4826  -23.6906  -14.1486 O   0  0  0  0  0  0  0  0  0  0  0  0
   26.2389  -19.9519  -10.0414 C   0  0  0  0  0  0  0  0  0  0  0  0
   25.5177  -21.0606  -10.8226 C   0  0  1  0  0  0  0  0  0  0  0  0
   24.9454  -21.9954   -9.8142 C   0  0  0  0  0  0  0  0  0  0  0  0
   24.5090  -20.3792  -11.6824 C   0  0  0  0  0  0  0  0  0  0  0  0
   23.7645  -21.3138  -12.6096 C   0  0  2  0  0  0  0  0  0  0  0  0
   24.6248  -21.7018  -13.7075 N   0  0  0  0  0  0  0  0  0  0  0  0
   22.6377  -20.5181  -13.1781 C   0  0  0  0  0  0  0  0  0  0  0  0
   22.9075  -19.4214  -13.7258 O   0  0  0  0  0  0  0  0  0  0  0  0
   21.9087  -22.8342  -16.8630 N   0  0  0  0  0  0  0  0  0  0  0  0
   21.1651  -21.6422  -16.9999 C   0  0  0  0  0  0  0  0  0  0  0  0
   21.3418  -20.9293  -18.0434 O   0  0  0  0  0  0  0  0  0  0  0  0
   20.2018  -21.2003  -16.0017 C   0  0  0  0  0  0  0  0  0  0  0  0
   20.5550  -20.0292  -15.1786 C   0  0  0  0  0  0  0  0  0  0  0  0
   20.2693  -20.0602  -13.7143 C   0  0  2  0  0  0  0  0  0  0  0  0
   21.3032  -20.9324  -13.1308 N   0  0  0  0  0  0  0  0  0  0  0  0
   18.9420  -20.5493  -13.3829 C   0  0  0  0  0  0  0  0  0  0  0  0
   18.7307  -21.6732  -12.8082 O   0  0  0  0  0  0  0  0  0  0  0  0
   17.7860  -19.8249  -13.6579 O   0  0  0  0  0  0  0  0  0  0  0  0
  2  3  1  0
  2  1  1  1
  4  5  1  0
  4  3  1  0
  5  6  1  0
  6  7  1  0
  8  2  1  0
  9  8  2  0
 11 10  1  1
 12 11  1  0
 13 11  1  0
 14 13  1  1
 14 15  1  0
 15  8  1  0
 16 17  2  0
 16 14  1  0
 18 19  1  0
 19 20  2  0
 21 22  1  0
 21 19  1  0
 23 22  1  6
 23 24  1  0
 24 16  1  0
 25 23  1  0
 26 25  2  0
 27 25  1  0
M  END
$$$$
