KLQ.pdb
     RDKit          3D

 27 26  0  0  1  0  0  0  0  0999 V2000
   28.5696  -19.6897  -16.1357 N   0  0  0  0  0  0  0  0  0  0  0  0
   27.9942  -21.0120  -16.1641 C   0  0  1  0  0  0  0  0  0  0  0  0
   28.8996  -21.9945  -16.8160 C   0  0  0  0  0  0  0  0  0  0  0  0
   29.4930  -21.5765  -18.1178 C   0  0  0  0  0  0  0  0  0  0  0  0
   30.3860  -22.5794  -18.7796 C   0  0  0  0  0  0  0  0  0  0  0  0
   30.9201  -21.9778  -20.0848 C   0  0  0  0  0  0  0  0  0  0  0  0
   31.7216  -22.9409  -20.8014 N   0  0  0  0  0  0  0  0  0  0  0  0
   27.7296  -21.4536  -14.7597 C   0  0  0  0  0  0  0  0  0  0  0  0
   26.9902  -22.4450  -14.5847 O   0  0  0  0  0  0  0  0  0  0  0  0
   31.4725  -20.7601  -10.7569 C   0  0  0  0  0  0  0  0  0  0  0  0
   30.3983  -21.4406  -11.6185 C   0  0  1  0  0  0  0  0  0  0  0  0
   30.3682  -22.8743  -11.2163 C   0  0  0  0  0  0  0  0  0  0  0  0
   29.1302  -20.6982  -11.3709 C   0  0  0  0  0  0  0  0  0  0  0  0
   27.9929  -21.1105  -12.2788 C   0  0  2  0  0  0  0  0  0  0  0  0
   28.3076  -20.7594  -13.6476 N   0  0  0  0  0  0  0  0  0  0  0  0
   26.8164  -20.2931  -11.8619 C   0  0  0  0  0  0  0  0  0  0  0  0
   26.7844  -19.0866  -12.2067 O   0  0  0  0  0  0  0  0  0  0  0  0
   23.6585  -20.1924  -15.5919 N   0  0  0  0  0  0  0  0  0  0  0  0
   22.6084  -19.9239  -14.6877 C   0  0  0  0  0  0  0  0  0  0  0  0
   21.4909  -19.5199  -15.1530 O   0  0  0  0  0  0  0  0  0  0  0  0
   22.7494  -20.0967  -13.2490 C   0  0  0  0  0  0  0  0  0  0  0  0
   24.0659  -20.5156  -12.7341 C   0  0  0  0  0  0  0  0  0  0  0  0
   24.4087  -20.2360  -11.3088 C   0  0  2  0  0  0  0  0  0  0  0  0
   25.7536  -20.8028  -11.1098 N   0  0  0  0  0  0  0  0  0  0  0  0
   23.4698  -20.8014  -10.3550 C   0  0  0  0  0  0  0  0  0  0  0  0
   23.6925  -21.8820   -9.7064 O   0  0  0  0  0  0  0  0  0  0  0  0
   22.2480  -20.2034  -10.0615 O   0  0  0  0  0  0  0  0  0  0  0  0
  2  3  1  0
  2  1  1  1
  4  5  1  0
  4  3  1  0
  5  6  1  0
  6  7  1  0
  8  2  1  0
  9  8  2  0
 11 10  1  1
 12 11  1  0
 13 11  1  0
 14 13  1  1
 14 15  1  0
 15  8  1  0
 16 17  2  0
 16 14  1  0
 18 19  1  0
 19 20  2  0
 21 22  1  0
 21 19  1  0
 23 22  1  6
 23 24  1  0
 24 16  1  0
 25 23  1  0
 26 25  2  0
 27 25  1  0
M  END
$$$$
