SPV.pdb
     RDKit          3D

 21 21  0  0  1  0  0  0  0  0999 V2000
   25.2123  -16.8323  -16.0589 O   0  0  0  0  0  0  0  0  0  0  0  0
   24.4608  -17.6953  -16.8264 C   0  0  0  0  0  0  0  0  0  0  0  0
   25.3394  -18.9287  -17.1032 C   0  0  2  0  0  0  0  0  0  0  0  0
   24.7323  -19.7763  -18.0733 N   0  0  0  0  0  0  0  0  0  0  0  0
   25.6183  -19.6428  -15.8500 C   0  0  0  0  0  0  0  0  0  0  0  0
   24.5896  -20.1103  -15.2472 O   0  0  0  0  0  0  0  0  0  0  0  0
   26.9489  -19.8031  -15.3387 N   0  0  0  0  0  0  0  0  0  0  0  0
   28.1420  -19.5751  -16.1249 C   0  0  0  0  0  0  0  0  0  0  0  0
   29.2959  -19.7783  -15.1889 C   0  0  0  0  0  0  0  0  0  0  0  0
   28.7122  -19.6416  -13.8068 C   0  0  0  0  0  0  0  0  0  0  0  0
   27.3383  -20.2301  -14.0284 C   0  0  1  0  0  0  0  0  0  0  0  0
   26.4351  -19.8869  -12.9230 C   0  0  0  0  0  0  0  0  0  0  0  0
   26.0135  -18.7306  -12.7923 O   0  0  0  0  0  0  0  0  0  0  0  0
   23.1980  -20.9151  -12.0646 C   0  0  0  0  0  0  0  0  0  0  0  0
   23.9418  -21.2813  -10.7814 C   0  0  2  0  0  0  0  0  0  0  0  0
   23.0508  -20.9538   -9.6184 C   0  0  0  0  0  0  0  0  0  0  0  0
   25.2502  -20.5269  -10.7690 C   0  0  2  0  0  0  0  0  0  0  0  0
   26.0009  -20.8567  -11.9566 N   0  0  0  0  0  0  0  0  0  0  0  0
   26.0358  -20.7348   -9.5299 C   0  0  0  0  0  0  0  0  0  0  0  0
   26.9080  -21.6306   -9.5001 O   0  0  0  0  0  0  0  0  0  0  0  0
   25.8454  -19.9767   -8.3990 O   0  0  0  0  0  0  0  0  0  0  0  0
  2  1  1  0
  2  3  1  0
  3  4  1  6
  5  3  1  0
  6  5  2  0
  7  5  1  0
  8  7  1  0
  9  8  1  0
 10  9  1  0
 10 11  1  0
 11  7  1  0
 11 12  1  1
 12 18  1  0
 13 12  2  0
 15 14  1  6
 15 16  1  0
 17 15  1  0
 17 18  1  6
 19 17  1  0
 19 21  1  0
 20 19  2  0
M  END
$$$$
