SPV.pdb
     RDKit          3D

 21 21  0  0  1  0  0  0  0  0999 V2000
   16.1343  -12.4992  -14.8409 O   0  0  0  0  0  0  0  0  0  0  0  0
   16.8310  -11.3156  -14.9524 C   0  0  0  0  0  0  0  0  0  0  0  0
   17.4322  -11.2820  -16.3691 C   0  0  2  0  0  0  0  0  0  0  0  0
   18.2777  -12.4070  -16.5879 N   0  0  0  0  0  0  0  0  0  0  0  0
   18.1405  -10.0138  -16.5883 C   0  0  0  0  0  0  0  0  0  0  0  0
   19.3231   -9.9573  -16.0998 O   0  0  0  0  0  0  0  0  0  0  0  0
   17.5478   -8.9174  -17.2982 N   0  0  0  0  0  0  0  0  0  0  0  0
   16.4006   -9.0536  -18.1693 C   0  0  0  0  0  0  0  0  0  0  0  0
   16.0709   -7.6666  -18.6346 C   0  0  0  0  0  0  0  0  0  0  0  0
   16.7349   -6.7486  -17.6417 C   0  0  0  0  0  0  0  0  0  0  0  0
   17.9726   -7.5497  -17.3105 C   0  0  1  0  0  0  0  0  0  0  0  0
   18.6154   -7.0437  -16.0914 C   0  0  0  0  0  0  0  0  0  0  0  0
   18.1206   -7.2707  -14.9799 O   0  0  0  0  0  0  0  0  0  0  0  0
   22.0630   -7.5036  -14.8075 C   0  0  0  0  0  0  0  0  0  0  0  0
   21.9070   -5.9898  -14.9413 C   0  0  2  0  0  0  0  0  0  0  0  0
   22.6434   -5.3444  -13.8034 C   0  0  0  0  0  0  0  0  0  0  0  0
   20.4304   -5.6727  -14.9602 C   0  0  2  0  0  0  0  0  0  0  0  0
   19.8290   -6.2762  -16.1250 N   0  0  0  0  0  0  0  0  0  0  0  0
   20.1401   -4.2229  -14.8633 C   0  0  0  0  0  0  0  0  0  0  0  0
   20.1303   -3.5288  -15.9036 O   0  0  0  0  0  0  0  0  0  0  0  0
   19.8778   -3.6009  -13.6657 O   0  0  0  0  0  0  0  0  0  0  0  0
  2  1  1  0
  2  3  1  0
  3  4  1  1
  5  3  1  0
  6  5  2  0
  7  5  1  0
  8  7  1  0
  9  8  1  0
 10  9  1  0
 10 11  1  0
 11  7  1  0
 11 12  1  1
 12 18  1  0
 13 12  2  0
 15 14  1  1
 15 16  1  0
 17 15  1  0
 17 18  1  6
 19 17  1  0
 19 21  1  0
 20 19  2  0
M  END
$$$$
