SPV.pdb
     RDKit          3D

 21 21  0  0  1  0  0  0  0  0999 V2000
   26.5504  -17.7147  -15.8927 O   0  0  0  0  0  0  0  0  0  0  0  0
   25.8218  -18.4441  -14.9784 C   0  0  0  0  0  0  0  0  0  0  0  0
   26.2333  -19.9173  -15.1514 C   0  0  2  0  0  0  0  0  0  0  0  0
   25.2792  -20.6209  -15.9406 N   0  0  0  0  0  0  0  0  0  0  0  0
   26.4279  -20.5459  -13.8381 C   0  0  0  0  0  0  0  0  0  0  0  0
   25.3550  -20.7694  -13.1752 O   0  0  0  0  0  0  0  0  0  0  0  0
   27.7279  -20.8838  -13.3347 N   0  0  0  0  0  0  0  0  0  0  0  0
   28.8915  -21.0608  -14.1763 C   0  0  0  0  0  0  0  0  0  0  0  0
   30.0365  -21.3239  -13.2444 C   0  0  0  0  0  0  0  0  0  0  0  0
   29.5789  -20.8140  -11.9026 C   0  0  0  0  0  0  0  0  0  0  0  0
   28.1036  -21.1322  -11.9753 C   0  0  1  0  0  0  0  0  0  0  0  0
   27.3582  -20.4083  -10.9381 C   0  0  0  0  0  0  0  0  0  0  0  0
   27.1022  -19.2050  -11.0730 O   0  0  0  0  0  0  0  0  0  0  0  0
   24.0291  -21.0484   -9.3784 C   0  0  0  0  0  0  0  0  0  0  0  0
   25.0249  -21.0921   -8.2206 C   0  0  2  0  0  0  0  0  0  0  0  0
   24.3570  -20.5053   -7.0110 C   0  0  0  0  0  0  0  0  0  0  0  0
   26.2669  -20.3447   -8.6450 C   0  0  2  0  0  0  0  0  0  0  0  0
   26.8948  -21.0472   -9.7381 N   0  0  0  0  0  0  0  0  0  0  0  0
   27.2059  -20.0851   -7.5285 C   0  0  0  0  0  0  0  0  0  0  0  0
   28.1447  -20.8843   -7.3187 O   0  0  0  0  0  0  0  0  0  0  0  0
   27.0884  -18.9912   -6.7042 O   0  0  0  0  0  0  0  0  0  0  0  0
  2  1  1  0
  2  3  1  0
  3  4  1  1
  5  3  1  0
  6  5  2  0
  7  5  1  0
  8  7  1  0
  9  8  1  0
 10  9  1  0
 10 11  1  0
 11  7  1  0
 11 12  1  1
 12 18  1  0
 13 12  2  0
 15 14  1  6
 15 16  1  0
 17 15  1  0
 17 18  1  6
 19 17  1  0
 19 21  1  0
 20 19  2  0
M  END
$$$$
