SPV.pdb
     RDKit          3D

 21 21  0  0  1  0  0  0  0  0999 V2000
   26.9146  -17.4629  -16.3019 O   0  0  0  0  0  0  0  0  0  0  0  0
   26.7121  -18.3545  -17.3328 C   0  0  0  0  0  0  0  0  0  0  0  0
   27.6510  -19.5484  -17.0827 C   0  0  2  0  0  0  0  0  0  0  0  0
   27.6593  -20.4299  -18.2012 N   0  0  0  0  0  0  0  0  0  0  0  0
   27.2712  -20.2399  -15.8434 C   0  0  0  0  0  0  0  0  0  0  0  0
   26.0770  -20.7021  -15.8199 O   0  0  0  0  0  0  0  0  0  0  0  0
   28.1746  -20.3852  -14.7387 N   0  0  0  0  0  0  0  0  0  0  0  0
   29.6086  -20.2291  -14.8509 C   0  0  0  0  0  0  0  0  0  0  0  0
   30.1490  -20.3856  -13.4608 C   0  0  0  0  0  0  0  0  0  0  0  0
   28.9726  -20.1466  -12.5505 C   0  0  0  0  0  0  0  0  0  0  0  0
   27.8554  -20.7280  -13.3854 C   0  0  1  0  0  0  0  0  0  0  0  0
   26.5450  -20.2968  -12.8832 C   0  0  0  0  0  0  0  0  0  0  0  0
   26.2018  -19.1103  -12.9612 O   0  0  0  0  0  0  0  0  0  0  0  0
   21.9043  -20.8951  -11.9380 C   0  0  0  0  0  0  0  0  0  0  0  0
   23.2214  -21.3970  -12.5273 C   0  0  2  0  0  0  0  0  0  0  0  0
   23.1922  -22.8979  -12.5191 C   0  0  0  0  0  0  0  0  0  0  0  0
   24.3503  -20.8120  -11.7120 C   0  0  2  0  0  0  0  0  0  0  0  0
   25.6111  -21.2122  -12.2891 N   0  0  0  0  0  0  0  0  0  0  0  0
   24.2623  -21.1376  -10.2692 C   0  0  0  0  0  0  0  0  0  0  0  0
   25.0512  -21.9762   -9.7808 O   0  0  0  0  0  0  0  0  0  0  0  0
   23.3406  -20.5509   -9.4348 O   0  0  0  0  0  0  0  0  0  0  0  0
  2  1  1  0
  2  3  1  0
  3  4  1  6
  5  3  1  0
  6  5  2  0
  7  5  1  0
  8  7  1  0
  9  8  1  0
 10  9  1  0
 10 11  1  0
 11  7  1  0
 11 12  1  1
 12 18  1  0
 13 12  2  0
 15 14  1  1
 15 16  1  0
 17 15  1  0
 17 18  1  6
 19 17  1  0
 19 21  1  0
 20 19  2  0
M  END
$$$$
