SPV.pdb
     RDKit          3D

 21 21  0  0  1  0  0  0  0  0999 V2000
   24.7415  -20.5509  -17.4042 O   0  0  0  0  0  0  0  0  0  0  0  0
   24.9898  -21.8747  -17.6950 C   0  0  0  0  0  0  0  0  0  0  0  0
   26.4703  -22.1356  -17.3639 C   0  0  2  0  0  0  0  0  0  0  0  0
   26.8911  -23.3944  -17.8802 N   0  0  0  0  0  0  0  0  0  0  0  0
   26.6897  -22.0371  -15.9147 C   0  0  0  0  0  0  0  0  0  0  0  0
   26.2625  -23.0309  -15.2289 O   0  0  0  0  0  0  0  0  0  0  0  0
   27.3356  -20.9071  -15.3120 N   0  0  0  0  0  0  0  0  0  0  0  0
   28.1430  -19.9590  -16.0487 C   0  0  0  0  0  0  0  0  0  0  0  0
   28.5523  -18.9104  -15.0579 C   0  0  0  0  0  0  0  0  0  0  0  0
   27.5752  -19.0407  -13.9186 C   0  0  0  0  0  0  0  0  0  0  0  0
   27.3363  -20.5327  -13.9297 C   0  0  1  0  0  0  0  0  0  0  0  0
   26.1431  -20.8796  -13.1478 C   0  0  0  0  0  0  0  0  0  0  0  0
   25.0832  -21.1726  -13.7160 O   0  0  0  0  0  0  0  0  0  0  0  0
   24.0632  -21.2276   -8.6267 C   0  0  0  0  0  0  0  0  0  0  0  0
   25.3313  -20.9964   -9.4467 C   0  0  2  0  0  0  0  0  0  0  0  0
   25.9423  -19.6994   -9.0017 C   0  0  0  0  0  0  0  0  0  0  0  0
   24.9513  -21.0131  -10.9084 C   0  0  2  0  0  0  0  0  0  0  0  0
   26.1447  -20.8988  -11.7117 N   0  0  0  0  0  0  0  0  0  0  0  0
   23.9342  -19.9952  -11.2621 C   0  0  0  0  0  0  0  0  0  0  0  0
   24.3040  -18.8419  -11.5739 O   0  0  0  0  0  0  0  0  0  0  0  0
   22.5866  -20.2670  -11.2625 O   0  0  0  0  0  0  0  0  0  0  0  0
  2  1  1  0
  2  3  1  0
  3  4  1  1
  5  3  1  0
  6  5  2  0
  7  5  1  0
  8  7  1  0
  9  8  1  0
 10  9  1  0
 10 11  1  0
 11  7  1  0
 11 12  1  6
 12 18  1  0
 13 12  2  0
 15 14  1  1
 15 16  1  0
 17 15  1  0
 17 18  1  6
 19 17  1  0
 19 21  1  0
 20 19  2  0
M  END
$$$$
