SPV.pdb
     RDKit          3D

 21 21  0  0  1  0  0  0  0  0999 V2000
   18.5605  -10.4198  -18.9079 O   0  0  0  0  0  0  0  0  0  0  0  0
   18.3157  -11.4637  -18.0425 C   0  0  0  0  0  0  0  0  0  0  0  0
   19.6811  -12.0786  -17.6856 C   0  0  2  0  0  0  0  0  0  0  0  0
   19.5165  -13.2758  -16.9320 N   0  0  0  0  0  0  0  0  0  0  0  0
   20.5093  -11.0945  -16.9760 C   0  0  0  0  0  0  0  0  0  0  0  0
   19.9979  -10.6249  -15.8997 O   0  0  0  0  0  0  0  0  0  0  0  0
   21.7984  -10.6885  -17.4564 N   0  0  0  0  0  0  0  0  0  0  0  0
   22.5467  -11.4185  -18.4568 C   0  0  0  0  0  0  0  0  0  0  0  0
   23.7834  -10.6107  -18.7155 C   0  0  0  0  0  0  0  0  0  0  0  0
   23.4635   -9.2268  -18.2134 C   0  0  0  0  0  0  0  0  0  0  0  0
   22.5731   -9.5587  -17.0387 C   0  0  1  0  0  0  0  0  0  0  0  0
   21.8304   -8.3741  -16.5910 C   0  0  0  0  0  0  0  0  0  0  0  0
   20.8975   -7.9245  -17.2687 O   0  0  0  0  0  0  0  0  0  0  0  0
   21.4110   -7.2908  -12.6346 C   0  0  0  0  0  0  0  0  0  0  0  0
   20.5736   -6.7551  -13.7946 C   0  0  2  0  0  0  0  0  0  0  0  0
   19.5210   -7.7755  -14.1178 C   0  0  0  0  0  0  0  0  0  0  0  0
   21.5051   -6.4645  -14.9474 C   0  0  2  0  0  0  0  0  0  0  0  0
   22.1406   -7.6906  -15.3664 N   0  0  0  0  0  0  0  0  0  0  0  0
   22.4858   -5.3932  -14.6540 C   0  0  0  0  0  0  0  0  0  0  0  0
   22.0881   -4.2133  -14.5374 O   0  0  0  0  0  0  0  0  0  0  0  0
   23.8291   -5.6432  -14.5024 O   0  0  0  0  0  0  0  0  0  0  0  0
  2  1  1  0
  2  3  1  0
  3  4  1  1
  5  3  1  0
  6  5  2  0
  7  5  1  0
  8  7  1  0
  9  8  1  0
 10  9  1  0
 10 11  1  0
 11  7  1  0
 11 12  1  6
 12 18  1  0
 13 12  2  0
 15 14  1  1
 15 16  1  0
 17 15  1  0
 17 18  1  1
 19 17  1  0
 19 21  1  0
 20 19  2  0
M  END
$$$$
