SPV.pdb
     RDKit          3D

 21 21  0  0  1  0  0  0  0  0999 V2000
   18.5223  -17.1326  -15.2399 O   0  0  0  0  0  0  0  0  0  0  0  0
   19.0702  -15.8714  -15.1517 C   0  0  0  0  0  0  0  0  0  0  0  0
   19.8622  -15.6357  -16.4505 C   0  0  2  0  0  0  0  0  0  0  0  0
   20.9502  -16.5488  -16.5537 N   0  0  0  0  0  0  0  0  0  0  0  0
   20.3109  -14.2388  -16.5232 C   0  0  0  0  0  0  0  0  0  0  0  0
   21.3179  -13.9496  -15.7865 O   0  0  0  0  0  0  0  0  0  0  0  0
   19.6652  -13.2686  -17.3594 N   0  0  0  0  0  0  0  0  0  0  0  0
   18.7126  -13.6098  -18.3937 C   0  0  0  0  0  0  0  0  0  0  0  0
   18.2346  -12.3054  -18.9586 C   0  0  0  0  0  0  0  0  0  0  0  0
   18.5667  -11.2756  -17.9104 C   0  0  0  0  0  0  0  0  0  0  0  0
   19.8512  -11.8486  -17.3582 C   0  0  1  0  0  0  0  0  0  0  0  0
   20.1952  -11.2257  -16.0740 C   0  0  0  0  0  0  0  0  0  0  0  0
   19.5838  -11.5334  -15.0429 O   0  0  0  0  0  0  0  0  0  0  0  0
   23.8025   -9.0527  -15.6241 C   0  0  0  0  0  0  0  0  0  0  0  0
   23.0704   -9.7362  -14.4706 C   0  0  2  0  0  0  0  0  0  0  0  0
   23.5330  -11.1629  -14.4071 C   0  0  0  0  0  0  0  0  0  0  0  0
   21.5860   -9.5945  -14.7108 C   0  0  2  0  0  0  0  0  0  0  0  0
   21.2399  -10.2478  -15.9502 N   0  0  0  0  0  0  0  0  0  0  0  0
   21.1152   -8.1903  -14.6634 C   0  0  0  0  0  0  0  0  0  0  0  0
   20.8789   -7.5866  -15.7329 O   0  0  0  0  0  0  0  0  0  0  0  0
   20.9245   -7.5150  -13.4813 O   0  0  0  0  0  0  0  0  0  0  0  0
  2  1  1  0
  2  3  1  0
  3  4  1  1
  5  3  1  0
  6  5  2  0
  7  5  1  0
  8  7  1  0
  9  8  1  0
 10  9  1  0
 10 11  1  0
 11  7  1  0
 11 12  1  1
 12 18  1  0
 13 12  2  0
 15 14  1  6
 15 16  1  0
 17 15  1  0
 17 18  1  6
 19 17  1  0
 19 21  1  0
 20 19  2  0
M  END
$$$$
