SPV.pdb
     RDKit          3D

 21 21  0  0  1  0  0  0  0  0999 V2000
   25.7966  -18.5716  -11.6807 O   0  0  0  0  0  0  0  0  0  0  0  0
   24.8388  -19.5369  -11.9030 C   0  0  0  0  0  0  0  0  0  0  0  0
   25.5838  -20.8694  -12.1013 C   0  0  2  0  0  0  0  0  0  0  0  0
   24.6824  -21.9014  -12.4892 N   0  0  0  0  0  0  0  0  0  0  0  0
   26.3263  -21.2201  -10.8832 C   0  0  0  0  0  0  0  0  0  0  0  0
   25.6030  -21.4874   -9.8606 O   0  0  0  0  0  0  0  0  0  0  0  0
   27.7596  -21.2588  -10.8433 N   0  0  0  0  0  0  0  0  0  0  0  0
   28.5923  -21.3250  -12.0247 C   0  0  0  0  0  0  0  0  0  0  0  0
   30.0080  -21.2672  -11.5335 C   0  0  0  0  0  0  0  0  0  0  0  0
   29.9208  -20.6906  -10.1444 C   0  0  0  0  0  0  0  0  0  0  0  0
   28.6037  -21.2726   -9.6864 C   0  0  1  0  0  0  0  0  0  0  0  0
   28.1069  -20.5745   -8.4943 C   0  0  0  0  0  0  0  0  0  0  0  0
   27.3724  -19.5847   -8.6066 O   0  0  0  0  0  0  0  0  0  0  0  0
   27.8148  -20.4248   -3.5298 C   0  0  0  0  0  0  0  0  0  0  0  0
   28.4438  -21.0849   -4.7555 C   0  0  2  0  0  0  0  0  0  0  0  0
   29.9272  -21.1550   -4.5356 C   0  0  0  0  0  0  0  0  0  0  0  0
   28.0525  -20.2794   -5.9717 C   0  0  2  0  0  0  0  0  0  0  0  0
   28.4393  -20.9972   -7.1624 N   0  0  0  0  0  0  0  0  0  0  0  0
   28.5788  -18.8944   -5.9527 C   0  0  0  0  0  0  0  0  0  0  0  0
   28.0679  -18.0551   -5.1789 O   0  0  0  0  0  0  0  0  0  0  0  0
   29.6163  -18.4877   -6.7577 O   0  0  0  0  0  0  0  0  0  0  0  0
  2  1  1  0
  2  3  1  0
  3  4  1  1
  5  3  1  0
  6  5  2  0
  7  5  1  0
  8  7  1  0
  9  8  1  0
 10  9  1  0
 10 11  1  0
 11  7  1  0
 11 12  1  1
 12 18  1  0
 13 12  2  0
 15 14  1  1
 15 16  1  0
 17 15  1  0
 17 18  1  6
 19 17  1  0
 19 21  1  0
 20 19  2  0
M  END
$$$$
