SPV.pdb
     RDKit          3D

 21 21  0  0  1  0  0  0  0  0999 V2000
   16.8077  -14.0926  -16.1537 O   0  0  0  0  0  0  0  0  0  0  0  0
   17.3796  -12.8422  -16.0634 C   0  0  0  0  0  0  0  0  0  0  0  0
   18.5334  -12.8032  -17.0817 C   0  0  2  0  0  0  0  0  0  0  0  0
   19.4086  -13.9117  -16.8988 N   0  0  0  0  0  0  0  0  0  0  0  0
   19.2461  -11.5219  -16.9900 C   0  0  0  0  0  0  0  0  0  0  0  0
   20.0316  -11.4045  -15.9852 O   0  0  0  0  0  0  0  0  0  0  0  0
   19.0726  -10.4771  -17.9574 N   0  0  0  0  0  0  0  0  0  0  0  0
   18.4317  -10.6715  -19.2400 C   0  0  0  0  0  0  0  0  0  0  0  0
   18.3943   -9.3204  -19.8896 C   0  0  0  0  0  0  0  0  0  0  0  0
   18.5766   -8.3358  -18.7640 C   0  0  0  0  0  0  0  0  0  0  0  0
   19.5063   -9.1155  -17.8635 C   0  0  1  0  0  0  0  0  0  0  0  0
   19.5540   -8.5255  -16.5200 C   0  0  0  0  0  0  0  0  0  0  0  0
   18.7315   -8.8599  -15.6577 O   0  0  0  0  0  0  0  0  0  0  0  0
   22.1685   -6.1790  -13.0724 C   0  0  0  0  0  0  0  0  0  0  0  0
   22.0959   -6.7819  -14.4742 C   0  0  2  0  0  0  0  0  0  0  0  0
   22.8180   -5.8606  -15.4142 C   0  0  0  0  0  0  0  0  0  0  0  0
   20.6395   -6.9779  -14.8230 C   0  0  2  0  0  0  0  0  0  0  0  0
   20.5395   -7.5507  -16.1438 N   0  0  0  0  0  0  0  0  0  0  0  0
   19.8308   -5.7445  -14.6809 C   0  0  0  0  0  0  0  0  0  0  0  0
   19.4333   -5.3994  -13.5465 O   0  0  0  0  0  0  0  0  0  0  0  0
   19.4950   -4.9540  -15.7544 O   0  0  0  0  0  0  0  0  0  0  0  0
  2  1  1  0
  2  3  1  0
  3  4  1  1
  5  3  1  0
  6  5  2  0
  7  5  1  0
  8  7  1  0
  9  8  1  0
 10  9  1  0
 10 11  1  0
 11  7  1  0
 11 12  1  1
 12 18  1  0
 13 12  2  0
 15 14  1  1
 15 16  1  0
 17 15  1  0
 17 18  1  6
 19 17  1  0
 19 21  1  0
 20 19  2  0
M  END
$$$$
