SPV.pdb
     RDKit          3D

 21 21  0  0  1  0  0  0  0  0999 V2000
   18.7302  -12.9910    4.2303 O   0  0  0  0  0  0  0  0  0  0  0  0
   18.3787  -14.2953    4.5018 C   0  0  0  0  0  0  0  0  0  0  0  0
   17.2392  -14.6623    3.5340 C   0  0  2  0  0  0  0  0  0  0  0  0
   16.0815  -13.8739    3.7917 N   0  0  0  0  0  0  0  0  0  0  0  0
   16.9511  -16.1006    3.6138 C   0  0  0  0  0  0  0  0  0  0  0  0
   16.3509  -16.4791    4.6801 O   0  0  0  0  0  0  0  0  0  0  0  0
   17.3175  -17.0150    2.5712 N   0  0  0  0  0  0  0  0  0  0  0  0
   17.8179  -16.5978    1.2793 C   0  0  0  0  0  0  0  0  0  0  0  0
   18.1452  -17.8598    0.5382 C   0  0  0  0  0  0  0  0  0  0  0  0
   18.2718  -18.9203    1.6008 C   0  0  0  0  0  0  0  0  0  0  0  0
   17.2335  -18.4445    2.5901 C   0  0  1  0  0  0  0  0  0  0  0  0
   17.4071  -19.1021    3.8912 C   0  0  0  0  0  0  0  0  0  0  0  0
   18.2391  -18.6778    4.7033 O   0  0  0  0  0  0  0  0  0  0  0  0
   14.9989  -19.9647    6.5932 C   0  0  0  0  0  0  0  0  0  0  0  0
   15.6033  -21.3067    6.1839 C   0  0  2  0  0  0  0  0  0  0  0  0
   15.7701  -22.1383    7.4225 C   0  0  0  0  0  0  0  0  0  0  0  0
   16.9019  -21.0330    5.4628 C   0  0  2  0  0  0  0  0  0  0  0  0
   16.6342  -20.2480    4.2818 N   0  0  0  0  0  0  0  0  0  0  0  0
   17.6753  -22.2602    5.1603 C   0  0  0  0  0  0  0  0  0  0  0  0
   18.3145  -22.8233    6.0760 O   0  0  0  0  0  0  0  0  0  0  0  0
   17.7207  -22.8130    3.9024 O   0  0  0  0  0  0  0  0  0  0  0  0
  2  1  1  0
  2  3  1  0
  3  4  1  1
  5  3  1  0
  6  5  2  0
  7  5  1  0
  8  7  1  0
  9  8  1  0
 10  9  1  0
 10 11  1  0
 11  7  1  0
 11 12  1  1
 12 18  1  0
 13 12  2  0
 15 14  1  1
 15 16  1  0
 17 15  1  0
 17 18  1  6
 19 17  1  0
 19 21  1  0
 20 19  2  0
M  END
$$$$
