IDV.pdb
     RDKit          3D

 24 23  0  0  1  0  0  0  0  0999 V2000
    7.2287  -11.9411   19.5432 C   0  0  0  0  0  0  0  0  0  0  0  0
    7.5831  -13.4080   19.4551 C   0  0  0  0  0  0  0  0  0  0  0  0
    7.8385  -14.0563   20.7605 C   0  0  2  0  0  0  0  0  0  0  0  0
    8.8448  -13.3065   21.5656 C   0  0  0  0  0  0  0  0  0  0  0  0
    8.2018  -15.5363   20.6189 C   0  0  2  0  0  0  0  0  0  0  0  0
    7.1186  -16.2489   19.9666 N   0  0  0  0  0  0  0  0  0  0  0  0
    8.3780  -16.1570   21.9622 C   0  0  0  0  0  0  0  0  0  0  0  0
    7.3655  -16.5401   22.5739 O   0  0  0  0  0  0  0  0  0  0  0  0
    9.6551  -16.3117   22.5409 N   0  0  0  0  0  0  0  0  0  0  0  0
    9.8270  -16.9191   23.8738 C   0  0  1  0  0  0  0  0  0  0  0  0
   10.8173  -18.0288   23.8143 C   0  0  0  0  0  0  0  0  0  0  0  0
   11.2180  -18.6188   25.1007 C   0  0  0  0  0  0  0  0  0  0  0  0
   10.3476  -19.1449   25.8424 O   0  0  0  0  0  0  0  0  0  0  0  0
   10.0613  -15.8633   24.8656 C   0  0  0  0  0  0  0  0  0  0  0  0
   11.0506  -15.0462   24.6561 O   0  0  0  0  0  0  0  0  0  0  0  0
   12.5270  -18.6376   25.5683 O   0  0  0  0  0  0  0  0  0  0  0  0
    8.6743  -12.6910   25.8139 C   0  0  0  0  0  0  0  0  0  0  0  0
    8.6801  -13.4622   27.1210 C   0  0  1  0  0  0  0  0  0  0  0  0
    7.2768  -13.8000   27.5316 C   0  0  0  0  0  0  0  0  0  0  0  0
    9.6104  -14.6289   27.0517 C   0  0  2  0  0  0  0  0  0  0  0  0
    9.3473  -15.5932   26.0369 N   0  0  0  0  0  0  0  0  0  0  0  0
   10.0129  -15.1264   28.3887 C   0  0  0  0  0  0  0  0  0  0  0  0
   10.0989  -16.4313   28.7304 O   0  0  0  0  0  0  0  0  0  0  0  0
   10.2916  -14.2408   29.2385 O   0  0  0  0  0  0  0  0  0  0  0  0
  1  2  1  0
  2  3  1  0
  3  5  1  0
  3  4  1  6
  5  7  1  0
  5  6  1  1
  7  8  2  0
  9 10  1  0
  9  7  1  0
 10 14  1  0
 10 11  1  6
 12 13  2  0
 12 11  1  0
 14 15  2  0
 14 21  1  0
 16 12  1  0
 18 17  1  6
 18 20  1  0
 18 19  1  0
 20 22  1  0
 20 21  1  1
 22 24  2  0
 22 23  1  0
M  END
$$$$
