IDV.pdb
     RDKit          3D

 24 23  0  0  1  0  0  0  0  0999 V2000
    7.3438  -12.0515   19.0812 C   0  0  0  0  0  0  0  0  0  0  0  0
    7.3175  -13.5528   19.2555 C   0  0  0  0  0  0  0  0  0  0  0  0
    7.6190  -14.0159   20.6282 C   0  0  2  0  0  0  0  0  0  0  0  0
    8.8959  -13.4411   21.1404 C   0  0  0  0  0  0  0  0  0  0  0  0
    7.5831  -15.5409   20.7538 C   0  0  2  0  0  0  0  0  0  0  0  0
    6.2787  -16.0370   20.3550 N   0  0  0  0  0  0  0  0  0  0  0  0
    7.7833  -15.9484   22.1731 C   0  0  0  0  0  0  0  0  0  0  0  0
    6.8234  -15.8506   22.9573 O   0  0  0  0  0  0  0  0  0  0  0  0
    9.0257  -16.4335   22.6324 N   0  0  0  0  0  0  0  0  0  0  0  0
    9.2014  -16.9084   24.0176 C   0  0  1  0  0  0  0  0  0  0  0  0
   10.1959  -18.0149   24.0643 C   0  0  0  0  0  0  0  0  0  0  0  0
   10.5108  -18.5568   25.3949 C   0  0  0  0  0  0  0  0  0  0  0  0
    9.6137  -18.6028   26.2767 O   0  0  0  0  0  0  0  0  0  0  0  0
    9.4325  -15.7607   24.9023 C   0  0  0  0  0  0  0  0  0  0  0  0
   10.4554  -14.9992   24.6494 O   0  0  0  0  0  0  0  0  0  0  0  0
   11.7644  -19.0359   25.7578 O   0  0  0  0  0  0  0  0  0  0  0  0
    7.9744  -12.4132   25.6923 C   0  0  0  0  0  0  0  0  0  0  0  0
    7.9861  -13.1821   27.0007 C   0  0  1  0  0  0  0  0  0  0  0  0
    6.5894  -13.5702   27.3883 C   0  0  0  0  0  0  0  0  0  0  0  0
    8.9593  -14.3142   26.9491 C   0  0  2  0  0  0  0  0  0  0  0  0
    8.6839  -15.3477   26.0086 N   0  0  0  0  0  0  0  0  0  0  0  0
    9.4514  -14.7137   28.2890 C   0  0  0  0  0  0  0  0  0  0  0  0
    9.5197  -15.9878   28.7354 O   0  0  0  0  0  0  0  0  0  0  0  0
    9.8286  -13.7722   29.0341 O   0  0  0  0  0  0  0  0  0  0  0  0
  1  2  1  0
  2  3  1  0
  3  5  1  0
  3  4  1  6
  5  7  1  0
  5  6  1  1
  7  8  2  0
  9 10  1  0
  9  7  1  0
 10 14  1  0
 10 11  1  6
 12 13  2  0
 12 11  1  0
 14 15  2  0
 14 21  1  0
 16 12  1  0
 18 17  1  6
 18 20  1  0
 18 19  1  0
 20 22  1  0
 20 21  1  1
 22 24  2  0
 22 23  1  0
M  END
$$$$
