IDV.pdb
     RDKit          3D

 24 23  0  0  1  0  0  0  0  0999 V2000
    6.7981  -10.9467   26.5349 C   0  0  0  0  0  0  0  0  0  0  0  0
    7.0420  -12.3174   27.1236 C   0  0  0  0  0  0  0  0  0  0  0  0
    7.3943  -13.3570   26.1312 C   0  0  2  0  0  0  0  0  0  0  0  0
    6.4193  -13.4019   25.0039 C   0  0  0  0  0  0  0  0  0  0  0  0
    7.5987  -14.7326   26.7703 C   0  0  2  0  0  0  0  0  0  0  0  0
    8.5080  -14.6220   27.8962 N   0  0  0  0  0  0  0  0  0  0  0  0
    8.2307  -15.6671   25.7968 C   0  0  0  0  0  0  0  0  0  0  0  0
    9.4710  -15.6823   25.7116 O   0  0  0  0  0  0  0  0  0  0  0  0
    7.4549  -16.5189   24.9828 N   0  0  0  0  0  0  0  0  0  0  0  0
    8.0736  -17.5962   24.1878 C   0  0  1  0  0  0  0  0  0  0  0  0
    7.3304  -18.8721   24.3762 C   0  0  0  0  0  0  0  0  0  0  0  0
    7.4142  -19.4882   25.7090 C   0  0  0  0  0  0  0  0  0  0  0  0
    8.4236  -19.2762   26.4306 O   0  0  0  0  0  0  0  0  0  0  0  0
    8.2738  -17.1336   22.8097 C   0  0  0  0  0  0  0  0  0  0  0  0
    8.6189  -18.0165   21.9200 O   0  0  0  0  0  0  0  0  0  0  0  0
    6.4296  -20.3111   26.2438 O   0  0  0  0  0  0  0  0  0  0  0  0
    6.1304  -14.2214   21.0031 C   0  0  0  0  0  0  0  0  0  0  0  0
    7.5835  -14.1404   20.5729 C   0  0  1  0  0  0  0  0  0  0  0  0
    8.1971  -12.8577   21.0526 C   0  0  0  0  0  0  0  0  0  0  0  0
    8.3283  -15.3752   20.9628 C   0  0  2  0  0  0  0  0  0  0  0  0
    8.1346  -15.8412   22.2948 N   0  0  0  0  0  0  0  0  0  0  0  0
    9.7026  -15.4193   20.4093 C   0  0  0  0  0  0  0  0  0  0  0  0
   10.0094  -15.2859   19.0996 O   0  0  0  0  0  0  0  0  0  0  0  0
   10.6236  -15.5894   21.2500 O   0  0  0  0  0  0  0  0  0  0  0  0
  1  2  1  0
  2  3  1  0
  3  5  1  0
  3  4  1  6
  5  7  1  0
  5  6  1  1
  7  8  2  0
  9 10  1  0
  9  7  1  0
 10 14  1  0
 10 11  1  6
 12 13  2  0
 12 11  1  0
 14 15  2  0
 14 21  1  0
 16 12  1  0
 18 17  1  1
 18 20  1  0
 18 19  1  0
 20 22  1  0
 20 21  1  1
 22 24  2  0
 22 23  1  0
M  END
$$$$
