IDV.pdb
     RDKit          3D

 24 23  0  0  1  0  0  0  0  0999 V2000
    7.5996  -11.7753   18.8024 C   0  0  0  0  0  0  0  0  0  0  0  0
    7.8511  -13.2639   18.8776 C   0  0  0  0  0  0  0  0  0  0  0  0
    7.7687  -13.8314   20.2417 C   0  0  2  0  0  0  0  0  0  0  0  0
    8.6856  -13.1352   21.1892 C   0  0  0  0  0  0  0  0  0  0  0  0
    7.9677  -15.3488   20.2586 C   0  0  2  0  0  0  0  0  0  0  0  0
    6.9444  -15.9884   19.4520 N   0  0  0  0  0  0  0  0  0  0  0  0
    7.8155  -15.8757   21.6442 C   0  0  0  0  0  0  0  0  0  0  0  0
    6.6670  -16.0473   22.0886 O   0  0  0  0  0  0  0  0  0  0  0  0
    8.9367  -16.1755   22.4460 N   0  0  0  0  0  0  0  0  0  0  0  0
    8.7847  -16.6484   23.8347 C   0  0  1  0  0  0  0  0  0  0  0  0
    9.5490  -17.9092   24.0398 C   0  0  0  0  0  0  0  0  0  0  0  0
    9.6789  -18.3779   25.4278 C   0  0  0  0  0  0  0  0  0  0  0  0
    8.6445  -18.6337   26.0980 O   0  0  0  0  0  0  0  0  0  0  0  0
    9.0546  -15.5421   24.7601 C   0  0  0  0  0  0  0  0  0  0  0  0
   10.2662  -15.0728   24.8038 O   0  0  0  0  0  0  0  0  0  0  0  0
   10.8977  -18.5642   26.0701 O   0  0  0  0  0  0  0  0  0  0  0  0
    7.6038  -11.9184   25.3582 C   0  0  0  0  0  0  0  0  0  0  0  0
    7.5072  -12.7256   26.6397 C   0  0  1  0  0  0  0  0  0  0  0  0
    6.0753  -13.0645   26.9341 C   0  0  0  0  0  0  0  0  0  0  0  0
    8.4341  -13.8966   26.6075 C   0  0  2  0  0  0  0  0  0  0  0  0
    8.1682  -14.8918   25.6239 N   0  0  0  0  0  0  0  0  0  0  0  0
    8.8350  -14.3526   27.9598 C   0  0  0  0  0  0  0  0  0  0  0  0
    9.3689  -13.5571   28.9134 O   0  0  0  0  0  0  0  0  0  0  0  0
    8.6447  -15.5729   28.2020 O   0  0  0  0  0  0  0  0  0  0  0  0
  1  2  1  0
  2  3  1  0
  3  5  1  0
  3  4  1  1
  5  7  1  0
  5  6  1  6
  7  8  2  0
  9 10  1  0
  9  7  1  0
 10 14  1  0
 10 11  1  1
 12 13  2  0
 12 11  1  0
 14 15  2  0
 14 21  1  0
 16 12  1  0
 18 17  1  6
 18 20  1  0
 18 19  1  0
 20 22  1  0
 20 21  1  1
 22 24  2  0
 22 23  1  0
M  END
$$$$
