IDV.pdb
     RDKit          3D

 24 23  0  0  1  0  0  0  0  0999 V2000
    7.4277  -11.7859   22.7963 C   0  0  0  0  0  0  0  0  0  0  0  0
    7.3988  -13.2680   22.5006 C   0  0  0  0  0  0  0  0  0  0  0  0
    8.1636  -13.6682   21.2987 C   0  0  2  0  0  0  0  0  0  0  0  0
    7.7854  -12.8590   20.1048 C   0  0  0  0  0  0  0  0  0  0  0  0
    8.0806  -15.1717   21.0246 C   0  0  2  0  0  0  0  0  0  0  0  0
    6.6922  -15.5704   20.8835 N   0  0  0  0  0  0  0  0  0  0  0  0
    8.6340  -15.9392   22.1758 C   0  0  0  0  0  0  0  0  0  0  0  0
    7.8549  -16.3004   23.0749 O   0  0  0  0  0  0  0  0  0  0  0  0
   10.0064  -16.2548   22.2596 N   0  0  0  0  0  0  0  0  0  0  0  0
   10.5565  -16.9940   23.4112 C   0  0  1  0  0  0  0  0  0  0  0  0
   11.7838  -17.7362   23.0128 C   0  0  0  0  0  0  0  0  0  0  0  0
   11.6620  -18.6259   21.8480 C   0  0  0  0  0  0  0  0  0  0  0  0
   10.6894  -19.4213   21.7710 O   0  0  0  0  0  0  0  0  0  0  0  0
   10.6618  -16.0936   24.5650 C   0  0  0  0  0  0  0  0  0  0  0  0
   11.7278  -15.3553   24.6600 O   0  0  0  0  0  0  0  0  0  0  0  0
   12.5703  -18.6509   20.7959 O   0  0  0  0  0  0  0  0  0  0  0  0
    9.3548  -13.2742   28.3047 C   0  0  0  0  0  0  0  0  0  0  0  0
    8.9191  -14.1171   27.1202 C   0  0  1  0  0  0  0  0  0  0  0  0
    8.5854  -13.2378   25.9509 C   0  0  0  0  0  0  0  0  0  0  0  0
    9.9152  -15.1922   26.8313 C   0  0  2  0  0  0  0  0  0  0  0  0
    9.7496  -15.9007   25.6068 N   0  0  0  0  0  0  0  0  0  0  0  0
   10.2877  -15.9726   28.0352 C   0  0  0  0  0  0  0  0  0  0  0  0
   10.2036  -17.3179   28.1367 O   0  0  0  0  0  0  0  0  0  0  0  0
   10.7131  -15.3003   29.0104 O   0  0  0  0  0  0  0  0  0  0  0  0
  1  2  1  0
  2  3  1  0
  3  5  1  0
  3  4  1  6
  5  7  1  0
  5  6  1  1
  7  8  2  0
  9 10  1  0
  9  7  1  0
 10 14  1  0
 10 11  1  6
 12 13  2  0
 12 11  1  0
 14 15  2  0
 14 21  1  0
 16 12  1  0
 18 17  1  1
 18 20  1  0
 18 19  1  0
 20 22  1  0
 20 21  1  6
 22 24  2  0
 22 23  1  0
M  END
$$$$
