IDV.pdb
     RDKit          3D

 24 23  0  0  1  0  0  0  0  0999 V2000
    7.2300  -11.7454   19.1109 C   0  0  0  0  0  0  0  0  0  0  0  0
    7.7133  -13.1764   19.0526 C   0  0  0  0  0  0  0  0  0  0  0  0
    7.8089  -13.8452   20.3691 C   0  0  2  0  0  0  0  0  0  0  0  0
    8.6181  -13.0515   21.3378 C   0  0  0  0  0  0  0  0  0  0  0  0
    8.2994  -15.2908   20.2582 C   0  0  2  0  0  0  0  0  0  0  0  0
    7.4042  -16.0501   19.4045 N   0  0  0  0  0  0  0  0  0  0  0  0
    8.2798  -15.9483   21.5953 C   0  0  0  0  0  0  0  0  0  0  0  0
    7.2049  -16.4180   22.0076 O   0  0  0  0  0  0  0  0  0  0  0  0
    9.4431  -16.0420   22.3876 N   0  0  0  0  0  0  0  0  0  0  0  0
    9.4128  -16.6542   23.7291 C   0  0  1  0  0  0  0  0  0  0  0  0
   10.3153  -17.8369   23.7799 C   0  0  0  0  0  0  0  0  0  0  0  0
   10.5099  -18.4559   25.0998 C   0  0  0  0  0  0  0  0  0  0  0  0
   11.6652  -18.5132   25.5965 O   0  0  0  0  0  0  0  0  0  0  0  0
    9.6111  -15.6147   24.7455 C   0  0  0  0  0  0  0  0  0  0  0  0
   10.7448  -14.9784   24.7459 O   0  0  0  0  0  0  0  0  0  0  0  0
    9.4791  -18.9971   25.8595 O   0  0  0  0  0  0  0  0  0  0  0  0
    8.1088  -12.1715   25.7262 C   0  0  0  0  0  0  0  0  0  0  0  0
    7.9597  -13.1287   26.8945 C   0  0  1  0  0  0  0  0  0  0  0  0
    6.5272  -13.5511   27.0410 C   0  0  0  0  0  0  0  0  0  0  0  0
    8.9374  -14.2536   26.7948 C   0  0  2  0  0  0  0  0  0  0  0  0
    8.7267  -15.1883   25.7409 N   0  0  0  0  0  0  0  0  0  0  0  0
    9.3424  -14.7852   28.1179 C   0  0  0  0  0  0  0  0  0  0  0  0
    9.8157  -14.0339   29.1370 O   0  0  0  0  0  0  0  0  0  0  0  0
    9.2177  -16.0287   28.2670 O   0  0  0  0  0  0  0  0  0  0  0  0
  1  2  1  0
  2  3  1  0
  3  5  1  0
  3  4  1  1
  5  7  1  0
  5  6  1  6
  7  8  2  0
  9 10  1  0
  9  7  1  0
 10 14  1  0
 10 11  1  6
 12 13  2  0
 12 11  1  0
 14 15  2  0
 14 21  1  0
 16 12  1  0
 18 17  1  6
 18 20  1  0
 18 19  1  0
 20 22  1  0
 20 21  1  6
 22 24  2  0
 22 23  1  0
M  END
$$$$
