IDV.pdb
     RDKit          3D

 24 23  0  0  1  0  0  0  0  0999 V2000
    7.3388  -12.0818   19.7615 C   0  0  0  0  0  0  0  0  0  0  0  0
    7.6031  -13.5681   19.6839 C   0  0  0  0  0  0  0  0  0  0  0  0
    8.1722  -14.1547   20.9175 C   0  0  2  0  0  0  0  0  0  0  0  0
    9.3426  -13.3757   21.4142 C   0  0  0  0  0  0  0  0  0  0  0  0
    8.4947  -15.6430   20.7644 C   0  0  2  0  0  0  0  0  0  0  0  0
    7.3184  -16.3565   20.3019 N   0  0  0  0  0  0  0  0  0  0  0  0
    8.8643  -16.2311   22.0828 C   0  0  0  0  0  0  0  0  0  0  0  0
    7.9614  -16.4370   22.9123 O   0  0  0  0  0  0  0  0  0  0  0  0
   10.2016  -16.5502   22.3985 N   0  0  0  0  0  0  0  0  0  0  0  0
   10.5489  -17.2643   23.6414 C   0  0  1  0  0  0  0  0  0  0  0  0
   11.6560  -18.2281   23.3938 C   0  0  0  0  0  0  0  0  0  0  0  0
   11.4947  -19.1291   22.2425 C   0  0  0  0  0  0  0  0  0  0  0  0
   10.5566  -19.9684   22.2353 O   0  0  0  0  0  0  0  0  0  0  0  0
   10.7339  -16.2945   24.7270 C   0  0  0  0  0  0  0  0  0  0  0  0
   11.6487  -15.3835   24.5741 O   0  0  0  0  0  0  0  0  0  0  0  0
   12.3282  -19.1187   21.1299 O   0  0  0  0  0  0  0  0  0  0  0  0
    8.1304  -14.3095   27.1500 C   0  0  0  0  0  0  0  0  0  0  0  0
    9.6338  -14.1193   27.2311 C   0  0  1  0  0  0  0  0  0  0  0  0
    9.9930  -13.3318   28.4570 C   0  0  0  0  0  0  0  0  0  0  0  0
   10.3481  -15.4240   27.0932 C   0  0  2  0  0  0  0  0  0  0  0  0
   10.0415  -16.1983   25.9378 N   0  0  0  0  0  0  0  0  0  0  0  0
   10.4983  -16.1388   28.3830 C   0  0  0  0  0  0  0  0  0  0  0  0
   11.2047  -15.6792   29.4399 O   0  0  0  0  0  0  0  0  0  0  0  0
    9.9074  -17.2471   28.4639 O   0  0  0  0  0  0  0  0  0  0  0  0
  1  2  1  0
  2  3  1  0
  3  5  1  0
  3  4  1  6
  5  7  1  0
  5  6  1  1
  7  8  2  0
  9 10  1  0
  9  7  1  0
 10 14  1  0
 10 11  1  6
 12 13  2  0
 12 11  1  0
 14 15  2  0
 14 21  1  0
 16 12  1  0
 18 17  1  1
 18 20  1  0
 18 19  1  0
 20 22  1  0
 20 21  1  6
 22 24  2  0
 22 23  1  0
M  END
$$$$
