IDV.pdb
     RDKit          3D

 24 23  0  0  1  0  0  0  0  0999 V2000
    7.2019  -11.8226   20.1674 C   0  0  0  0  0  0  0  0  0  0  0  0
    7.1883  -13.3327   20.1004 C   0  0  0  0  0  0  0  0  0  0  0  0
    7.8439  -14.0030   21.2451 C   0  0  2  0  0  0  0  0  0  0  0  0
    9.2440  -13.5283   21.4392 C   0  0  0  0  0  0  0  0  0  0  0  0
    7.7606  -15.5288   21.1574 C   0  0  2  0  0  0  0  0  0  0  0  0
    6.3874  -15.9338   20.9187 N   0  0  0  0  0  0  0  0  0  0  0  0
    8.1726  -16.1450   22.4501 C   0  0  0  0  0  0  0  0  0  0  0  0
    7.3462  -16.1801   23.3784 O   0  0  0  0  0  0  0  0  0  0  0  0
    9.4656  -16.6784   22.6332 N   0  0  0  0  0  0  0  0  0  0  0  0
    9.8406  -17.3761   23.8773 C   0  0  1  0  0  0  0  0  0  0  0  0
   10.8279  -18.4527   23.5908 C   0  0  0  0  0  0  0  0  0  0  0  0
   12.0987  -18.0309   22.9822 C   0  0  0  0  0  0  0  0  0  0  0  0
   12.3701  -16.8049   22.8939 O   0  0  0  0  0  0  0  0  0  0  0  0
   10.2022  -16.3894   24.9013 C   0  0  0  0  0  0  0  0  0  0  0  0
   10.6365  -15.2320   24.4986 O   0  0  0  0  0  0  0  0  0  0  0  0
   13.0485  -18.9153   22.4839 O   0  0  0  0  0  0  0  0  0  0  0  0
    8.2433  -14.3880   27.1772 C   0  0  0  0  0  0  0  0  0  0  0  0
    9.7522  -14.2255   27.1767 C   0  0  1  0  0  0  0  0  0  0  0  0
   10.1659  -13.2080   28.1992 C   0  0  0  0  0  0  0  0  0  0  0  0
   10.4346  -15.5487   27.2983 C   0  0  2  0  0  0  0  0  0  0  0  0
   10.1376  -16.5126   26.2925 N   0  0  0  0  0  0  0  0  0  0  0  0
   10.5318  -16.0214   28.6998 C   0  0  0  0  0  0  0  0  0  0  0  0
   10.2153  -17.2681   29.1152 O   0  0  0  0  0  0  0  0  0  0  0  0
   10.9475  -15.1746   29.5329 O   0  0  0  0  0  0  0  0  0  0  0  0
  1  2  1  0
  2  3  1  0
  3  5  1  0
  3  4  1  6
  5  7  1  0
  5  6  1  1
  7  8  2  0
  9 10  1  0
  9  7  1  0
 10 14  1  0
 10 11  1  6
 12 13  2  0
 12 11  1  0
 14 15  2  0
 14 21  1  0
 16 12  1  0
 18 17  1  1
 18 20  1  0
 18 19  1  0
 20 22  1  0
 20 21  1  6
 22 24  2  0
 22 23  1  0
M  END
$$$$
