IDV.pdb
     RDKit          3D

 24 23  0  0  1  0  0  0  0  0999 V2000
    5.7180  -11.6698   26.6450 C   0  0  0  0  0  0  0  0  0  0  0  0
    5.5957  -12.8568   25.7170 C   0  0  0  0  0  0  0  0  0  0  0  0
    6.8360  -13.6504   25.5702 C   0  0  2  0  0  0  0  0  0  0  0  0
    7.9815  -12.8114   25.1151 C   0  0  0  0  0  0  0  0  0  0  0  0
    6.6408  -14.8854   24.6875 C   0  0  2  0  0  0  0  0  0  0  0  0
    5.4740  -15.6269   25.1296 N   0  0  0  0  0  0  0  0  0  0  0  0
    7.8079  -15.8030   24.8155 C   0  0  0  0  0  0  0  0  0  0  0  0
    7.8499  -16.5739   25.7901 O   0  0  0  0  0  0  0  0  0  0  0  0
    8.8493  -15.8080   23.8639 N   0  0  0  0  0  0  0  0  0  0  0  0
   10.0302  -16.6775   24.0208 C   0  0  1  0  0  0  0  0  0  0  0  0
   10.7954  -16.7479   22.7459 C   0  0  0  0  0  0  0  0  0  0  0  0
   11.9992  -17.5929   22.7504 C   0  0  0  0  0  0  0  0  0  0  0  0
   13.1187  -17.0834   22.4828 O   0  0  0  0  0  0  0  0  0  0  0  0
   10.7694  -16.2853   25.2262 C   0  0  0  0  0  0  0  0  0  0  0  0
   11.7309  -15.4206   25.0908 O   0  0  0  0  0  0  0  0  0  0  0  0
   11.9881  -18.9530   23.0381 O   0  0  0  0  0  0  0  0  0  0  0  0
   11.1982  -13.9954   27.4444 C   0  0  0  0  0  0  0  0  0  0  0  0
   11.1278  -15.1670   28.4066 C   0  0  1  0  0  0  0  0  0  0  0  0
    9.8529  -15.1152   29.1965 C   0  0  0  0  0  0  0  0  0  0  0  0
   11.3736  -16.4589   27.6981 C   0  0  2  0  0  0  0  0  0  0  0  0
   10.5790  -16.7127   26.5436 N   0  0  0  0  0  0  0  0  0  0  0  0
   11.6230  -17.5876   28.6260 C   0  0  0  0  0  0  0  0  0  0  0  0
   12.5195  -17.5687   29.6374 O   0  0  0  0  0  0  0  0  0  0  0  0
   10.9277  -18.6182   28.4298 O   0  0  0  0  0  0  0  0  0  0  0  0
  1  2  1  0
  2  3  1  0
  3  5  1  0
  3  4  1  6
  5  7  1  0
  5  6  1  1
  7  8  2  0
  9 10  1  0
  9  7  1  0
 10 14  1  0
 10 11  1  6
 12 13  2  0
 12 11  1  0
 14 15  2  0
 14 21  1  0
 16 12  1  0
 18 17  1  6
 18 20  1  0
 18 19  1  0
 20 22  1  0
 20 21  1  1
 22 24  2  0
 22 23  1  0
M  END
$$$$
