IDV.pdb
     RDKit          3D

 24 23  0  0  1  0  0  0  0  0999 V2000
    7.6547  -11.8624   20.0790 C   0  0  0  0  0  0  0  0  0  0  0  0
    7.7560  -13.3706   20.0837 C   0  0  0  0  0  0  0  0  0  0  0  0
    9.0672  -13.8982   19.6455 C   0  0  2  0  0  0  0  0  0  0  0  0
    9.4635  -13.3630   18.3114 C   0  0  0  0  0  0  0  0  0  0  0  0
    9.1301  -15.4267   19.6941 C   0  0  2  0  0  0  0  0  0  0  0  0
    8.1353  -15.9890   18.7992 N   0  0  0  0  0  0  0  0  0  0  0  0
    8.8026  -15.9151   21.0633 C   0  0  0  0  0  0  0  0  0  0  0  0
    7.6168  -16.1775   21.3296 O   0  0  0  0  0  0  0  0  0  0  0  0
    9.8015  -16.0794   22.0457 N   0  0  0  0  0  0  0  0  0  0  0  0
    9.4867  -16.6270   23.3785 C   0  0  1  0  0  0  0  0  0  0  0  0
   10.3580  -17.7962   23.6778 C   0  0  0  0  0  0  0  0  0  0  0  0
   10.1932  -18.9743   22.8129 C   0  0  0  0  0  0  0  0  0  0  0  0
   11.1836  -19.4263   22.1810 O   0  0  0  0  0  0  0  0  0  0  0  0
    9.4641  -15.5380   24.3617 C   0  0  0  0  0  0  0  0  0  0  0  0
   10.5653  -14.8741   24.5535 O   0  0  0  0  0  0  0  0  0  0  0  0
    8.9870  -19.6434   22.6393 O   0  0  0  0  0  0  0  0  0  0  0  0
    7.4193  -12.2648   27.4691 C   0  0  0  0  0  0  0  0  0  0  0  0
    7.1904  -13.3278   26.4103 C   0  0  1  0  0  0  0  0  0  0  0  0
    6.6911  -12.6997   25.1423 C   0  0  0  0  0  0  0  0  0  0  0  0
    8.3979  -14.1922   26.2479 C   0  0  2  0  0  0  0  0  0  0  0  0
    8.3940  -15.0893   25.1416 N   0  0  0  0  0  0  0  0  0  0  0  0
    8.9286  -14.6909   27.5389 C   0  0  0  0  0  0  0  0  0  0  0  0
    9.6814  -13.9634   28.3940 O   0  0  0  0  0  0  0  0  0  0  0  0
    8.6318  -15.8795   27.8275 O   0  0  0  0  0  0  0  0  0  0  0  0
  1  2  1  0
  2  3  1  0
  3  5  1  0
  3  4  1  6
  5  7  1  0
  5  6  1  6
  7  8  2  0
  9 10  1  0
  9  7  1  0
 10 14  1  0
 10 11  1  1
 12 13  2  0
 12 11  1  0
 14 15  2  0
 14 21  1  0
 16 12  1  0
 18 17  1  1
 18 20  1  0
 18 19  1  0
 20 22  1  0
 20 21  1  6
 22 24  2  0
 22 23  1  0
M  END
$$$$
