IDV.pdb
     RDKit          3D

 24 23  0  0  1  0  0  0  0  0999 V2000
    7.3099  -11.7886   19.4112 C   0  0  0  0  0  0  0  0  0  0  0  0
    7.5902  -13.2735   19.3727 C   0  0  0  0  0  0  0  0  0  0  0  0
    7.7725  -13.8976   20.7019 C   0  0  2  0  0  0  0  0  0  0  0  0
    8.7813  -13.1694   21.5238 C   0  0  0  0  0  0  0  0  0  0  0  0
    8.0774  -15.3946   20.6101 C   0  0  2  0  0  0  0  0  0  0  0  0
    7.0058  -16.0728   19.9041 N   0  0  0  0  0  0  0  0  0  0  0  0
    8.1424  -15.9944   21.9727 C   0  0  0  0  0  0  0  0  0  0  0  0
    7.0770  -16.1982   22.5804 O   0  0  0  0  0  0  0  0  0  0  0  0
    9.3746  -16.3267   22.5736 N   0  0  0  0  0  0  0  0  0  0  0  0
    9.4402  -16.8753   23.9411 C   0  0  1  0  0  0  0  0  0  0  0  0
   10.3805  -18.0281   23.9929 C   0  0  0  0  0  0  0  0  0  0  0  0
   10.5746  -18.6562   25.3086 C   0  0  0  0  0  0  0  0  0  0  0  0
    9.6911  -18.5285   26.1960 O   0  0  0  0  0  0  0  0  0  0  0  0
    9.6639  -15.7835   24.8956 C   0  0  0  0  0  0  0  0  0  0  0  0
   10.7764  -15.1173   24.8017 O   0  0  0  0  0  0  0  0  0  0  0  0
   11.6963  -19.4028   25.6510 O   0  0  0  0  0  0  0  0  0  0  0  0
    8.3787  -12.3190   25.6050 C   0  0  0  0  0  0  0  0  0  0  0  0
    8.1506  -13.1390   26.8615 C   0  0  1  0  0  0  0  0  0  0  0  0
    6.6919  -13.4544   27.0189 C   0  0  0  0  0  0  0  0  0  0  0  0
    9.0558  -14.3267   26.8990 C   0  0  2  0  0  0  0  0  0  0  0  0
    8.8244  -15.3343   25.9193 N   0  0  0  0  0  0  0  0  0  0  0  0
    9.3751  -14.7657   28.2783 C   0  0  0  0  0  0  0  0  0  0  0  0
    9.8319  -13.9540   29.2579 O   0  0  0  0  0  0  0  0  0  0  0  0
    9.1902  -15.9873   28.5180 O   0  0  0  0  0  0  0  0  0  0  0  0
  1  2  1  0
  2  3  1  0
  3  5  1  0
  3  4  1  6
  5  7  1  0
  5  6  1  6
  7  8  2  0
  9 10  1  0
  9  7  1  0
 10 14  1  0
 10 11  1  6
 12 13  2  0
 12 11  1  0
 14 15  2  0
 14 21  1  0
 16 12  1  0
 18 17  1  6
 18 20  1  0
 18 19  1  0
 20 22  1  0
 20 21  1  6
 22 24  2  0
 22 23  1  0
M  END
$$$$
