IDV.pdb
     RDKit          3D

 24 23  0  0  1  0  0  0  0  0999 V2000
    7.1631  -11.7662   18.9203 C   0  0  0  0  0  0  0  0  0  0  0  0
    7.7024  -13.1756   18.8325 C   0  0  0  0  0  0  0  0  0  0  0  0
    7.8796  -13.8467   20.1394 C   0  0  2  0  0  0  0  0  0  0  0  0
    8.7391  -13.0497   21.0610 C   0  0  0  0  0  0  0  0  0  0  0  0
    8.3720  -15.2887   19.9962 C   0  0  2  0  0  0  0  0  0  0  0  0
    7.4438  -16.0468   19.1774 N   0  0  0  0  0  0  0  0  0  0  0  0
    8.4153  -15.9558   21.3280 C   0  0  0  0  0  0  0  0  0  0  0  0
    7.3457  -16.3421   21.8308 O   0  0  0  0  0  0  0  0  0  0  0  0
    9.6314  -16.1503   22.0157 N   0  0  0  0  0  0  0  0  0  0  0  0
    9.6713  -16.8017   23.3384 C   0  0  1  0  0  0  0  0  0  0  0  0
   10.7180  -17.8597   23.3640 C   0  0  0  0  0  0  0  0  0  0  0  0
   11.0050  -18.4655   24.6732 C   0  0  0  0  0  0  0  0  0  0  0  0
   10.0570  -18.8906   25.3838 O   0  0  0  0  0  0  0  0  0  0  0  0
    9.7278  -15.7765   24.3867 C   0  0  0  0  0  0  0  0  0  0  0  0
   10.7977  -15.0411   24.4557 O   0  0  0  0  0  0  0  0  0  0  0  0
   12.2855  -18.6064   25.1959 O   0  0  0  0  0  0  0  0  0  0  0  0
    8.3877  -12.2053   26.0561 C   0  0  0  0  0  0  0  0  0  0  0  0
    7.8495  -13.5175   26.5962 C   0  0  1  0  0  0  0  0  0  0  0  0
    6.5225  -13.8323   25.9701 C   0  0  0  0  0  0  0  0  0  0  0  0
    8.8691  -14.6033   26.4824 C   0  0  2  0  0  0  0  0  0  0  0  0
    8.7640  -15.4586   25.3483 N   0  0  0  0  0  0  0  0  0  0  0  0
    9.1985  -15.2247   27.7872 C   0  0  0  0  0  0  0  0  0  0  0  0
    9.5617  -14.5411   28.8953 O   0  0  0  0  0  0  0  0  0  0  0  0
    9.1180  -16.4800   27.8288 O   0  0  0  0  0  0  0  0  0  0  0  0
  1  2  1  0
  2  3  1  0
  3  5  1  0
  3  4  1  1
  5  7  1  0
  5  6  1  6
  7  8  2  0
  9 10  1  0
  9  7  1  0
 10 14  1  0
 10 11  1  6
 12 13  2  0
 12 11  1  0
 14 15  2  0
 14 21  1  0
 16 12  1  0
 18 17  1  6
 18 20  1  0
 18 19  1  0
 20 22  1  0
 20 21  1  6
 22 24  2  0
 22 23  1  0
M  END
$$$$
