IDV.pdb
     RDKit          3D

 24 23  0  0  1  0  0  0  0  0999 V2000
    9.1985  -12.2062   19.4529 C   0  0  0  0  0  0  0  0  0  0  0  0
    8.5717  -13.3170   20.2641 C   0  0  0  0  0  0  0  0  0  0  0  0
    7.8782  -14.3473   19.4596 C   0  0  2  0  0  0  0  0  0  0  0  0
    6.9489  -13.7416   18.4632 C   0  0  0  0  0  0  0  0  0  0  0  0
    7.1848  -15.4003   20.3273 C   0  0  2  0  0  0  0  0  0  0  0  0
    6.2584  -14.7544   21.2390 N   0  0  0  0  0  0  0  0  0  0  0  0
    8.1843  -16.1192   21.1669 C   0  0  0  0  0  0  0  0  0  0  0  0
    8.6310  -17.2041   20.7556 O   0  0  0  0  0  0  0  0  0  0  0  0
    8.6218  -15.5963   22.4018 N   0  0  0  0  0  0  0  0  0  0  0  0
    9.7153  -16.2307   23.1615 C   0  0  1  0  0  0  0  0  0  0  0  0
   10.9386  -16.3357   22.3199 C   0  0  0  0  0  0  0  0  0  0  0  0
   12.0588  -17.1027   22.8855 C   0  0  0  0  0  0  0  0  0  0  0  0
   13.2411  -16.7259   22.6742 O   0  0  0  0  0  0  0  0  0  0  0  0
    9.8522  -15.5706   24.4648 C   0  0  0  0  0  0  0  0  0  0  0  0
   11.0423  -15.4976   24.9832 O   0  0  0  0  0  0  0  0  0  0  0  0
   11.8999  -18.2466   23.6595 O   0  0  0  0  0  0  0  0  0  0  0  0
    8.2481  -12.4030   27.5675 C   0  0  0  0  0  0  0  0  0  0  0  0
    7.7661  -13.7724   27.1249 C   0  0  1  0  0  0  0  0  0  0  0  0
    6.6179  -13.6354   26.1684 C   0  0  0  0  0  0  0  0  0  0  0  0
    8.9011  -14.6054   26.6258 C   0  0  2  0  0  0  0  0  0  0  0  0
    8.8587  -14.9814   25.2526 N   0  0  0  0  0  0  0  0  0  0  0  0
    9.3444  -15.6242   27.6069 C   0  0  0  0  0  0  0  0  0  0  0  0
    9.8825  -15.3461   28.8153 O   0  0  0  0  0  0  0  0  0  0  0  0
    9.1878  -16.8228   27.2563 O   0  0  0  0  0  0  0  0  0  0  0  0
  1  2  1  0
  2  3  1  0
  3  5  1  0
  3  4  1  1
  5  7  1  0
  5  6  1  1
  7  8  2  0
  9 10  1  0
  9  7  1  0
 10 14  1  0
 10 11  1  6
 12 13  2  0
 12 11  1  0
 14 15  2  0
 14 21  1  0
 16 12  1  0
 18 17  1  6
 18 20  1  0
 18 19  1  0
 20 22  1  0
 20 21  1  6
 22 24  2  0
 22 23  1  0
M  END
$$$$
