IDV.pdb
     RDKit          3D

 24 23  0  0  1  0  0  0  0  0999 V2000
    8.3250  -11.7585   20.3650 C   0  0  0  0  0  0  0  0  0  0  0  0
    7.9392  -13.1716   20.7381 C   0  0  0  0  0  0  0  0  0  0  0  0
    7.9094  -14.1191   19.6020 C   0  0  2  0  0  0  0  0  0  0  0  0
    7.0149  -13.6455   18.5070 C   0  0  0  0  0  0  0  0  0  0  0  0
    7.5775  -15.5480   20.0386 C   0  0  2  0  0  0  0  0  0  0  0  0
    6.3644  -15.5499   20.8355 N   0  0  0  0  0  0  0  0  0  0  0  0
    8.6623  -16.0900   20.9047 C   0  0  0  0  0  0  0  0  0  0  0  0
    9.4139  -16.9620   20.4350 O   0  0  0  0  0  0  0  0  0  0  0  0
    8.8443  -15.6370   22.2282 N   0  0  0  0  0  0  0  0  0  0  0  0
    9.9270  -16.1646   23.0795 C   0  0  1  0  0  0  0  0  0  0  0  0
   11.2078  -16.2082   22.3222 C   0  0  0  0  0  0  0  0  0  0  0  0
   12.3280  -16.9074   22.9698 C   0  0  0  0  0  0  0  0  0  0  0  0
   13.4614  -16.3614   23.0128 O   0  0  0  0  0  0  0  0  0  0  0  0
    9.9304  -15.4534   24.3630 C   0  0  0  0  0  0  0  0  0  0  0  0
   11.0793  -15.2413   24.9332 O   0  0  0  0  0  0  0  0  0  0  0  0
   12.2207  -18.1638   23.5550 O   0  0  0  0  0  0  0  0  0  0  0  0
    6.4930  -13.3494   26.1389 C   0  0  0  0  0  0  0  0  0  0  0  0
    7.9530  -12.9557   26.2676 C   0  0  1  0  0  0  0  0  0  0  0  0
    8.1421  -12.0350   27.4374 C   0  0  0  0  0  0  0  0  0  0  0  0
    8.8357  -14.1608   26.2700 C   0  0  2  0  0  0  0  0  0  0  0  0
    8.8438  -14.9460   25.0817 N   0  0  0  0  0  0  0  0  0  0  0  0
    8.8340  -14.8748   27.5689 C   0  0  0  0  0  0  0  0  0  0  0  0
    8.7311  -16.2152   27.7102 O   0  0  0  0  0  0  0  0  0  0  0  0
    8.9431  -14.1479   28.5906 O   0  0  0  0  0  0  0  0  0  0  0  0
  1  2  1  0
  2  3  1  0
  3  5  1  0
  3  4  1  6
  5  7  1  0
  5  6  1  1
  7  8  2  0
  9 10  1  0
  9  7  1  0
 10 14  1  0
 10 11  1  6
 12 13  2  0
 12 11  1  0
 14 15  2  0
 14 21  1  0
 16 12  1  0
 18 17  1  1
 18 20  1  0
 18 19  1  0
 20 22  1  0
 20 21  1  6
 22 24  2  0
 22 23  1  0
M  END
$$$$
