CQD.pdb
     RDKit          3D

 24 23  0  0  1  0  0  0  0  0999 V2000
    8.7224  -14.9645   19.6276 N   0  0  0  0  0  0  0  0  0  0  0  0
    7.8145  -15.0937   20.7368 C   0  0  1  0  0  0  0  0  0  0  0  0
    7.0482  -16.3927   20.6315 C   0  0  0  0  0  0  0  0  0  0  0  0
    5.7918  -16.2419   19.3316 S   0  0  0  0  0  0  0  0  0  0  0  0
    8.4357  -14.8995   22.0511 C   0  0  0  0  0  0  0  0  0  0  0  0
    9.6813  -15.1274   22.1428 O   0  0  0  0  0  0  0  0  0  0  0  0
    6.9854  -11.5079   27.1393 N   0  0  0  0  0  0  0  0  0  0  0  0
    6.0591  -12.4593   26.6384 C   0  0  0  0  0  0  0  0  0  0  0  0
    4.8695  -12.3624   27.0891 O   0  0  0  0  0  0  0  0  0  0  0  0
    6.4418  -13.5075   25.6494 C   0  0  0  0  0  0  0  0  0  0  0  0
    7.9062  -13.3912   25.4117 C   0  0  0  0  0  0  0  0  0  0  0  0
    8.4596  -14.4532   24.4859 C   0  0  2  0  0  0  0  0  0  0  0  0
    7.7809  -14.4841   23.2209 N   0  0  0  0  0  0  0  0  0  0  0  0
    8.5258  -15.7720   25.1654 C   0  0  0  0  0  0  0  0  0  0  0  0
    7.6967  -16.6375   24.7834 O   0  0  0  0  0  0  0  0  0  0  0  0
    9.4243  -16.1217   26.1815 N   0  0  0  0  0  0  0  0  0  0  0  0
    9.9464  -17.4684   26.3749 C   0  0  1  0  0  0  0  0  0  0  0  0
   10.6853  -17.9578   25.1770 C   0  0  0  0  0  0  0  0  0  0  0  0
   10.2091  -19.3035   24.8016 C   0  0  0  0  0  0  0  0  0  0  0  0
    9.2583  -19.8416   25.4202 O   0  0  0  0  0  0  0  0  0  0  0  0
   10.8054  -17.4828   27.5760 C   0  0  0  0  0  0  0  0  0  0  0  0
   11.0223  -18.5887   28.1536 O   0  0  0  0  0  0  0  0  0  0  0  0
   10.7726  -20.0392   23.7632 O   0  0  0  0  0  0  0  0  0  0  0  0
   11.4106  -16.3827   28.1435 O   0  0  0  0  0  0  0  0  0  0  0  0
  2  1  1  6
  3  2  1  0
  4  3  1  0
  5  2  1  0
  5  6  2  0
  7  8  1  0
  8 10  1  0
  8  9  2  0
 10 11  1  0
 12 11  1  1
 12 13  1  0
 13  5  1  0
 14 12  1  0
 15 14  2  0
 16 14  1  0
 17 16  1  0
 17 21  1  0
 17 18  1  6
 19 23  1  0
 19 18  1  0
 20 19  2  0
 21 24  1  0
 22 21  2  0
M  END
$$$$
