CQD.pdb
     RDKit          3D

 24 23  0  0  1  0  0  0  0  0999 V2000
    6.5915  -17.2585   20.5115 N   0  0  0  0  0  0  0  0  0  0  0  0
    7.4243  -16.1435   20.1450 C   0  0  1  0  0  0  0  0  0  0  0  0
    6.6113  -15.1135   19.3942 C   0  0  0  0  0  0  0  0  0  0  0  0
    5.3362  -14.4401   20.4948 S   0  0  0  0  0  0  0  0  0  0  0  0
    8.1894  -15.5702   21.2573 C   0  0  0  0  0  0  0  0  0  0  0  0
    9.1009  -14.7363   20.9648 O   0  0  0  0  0  0  0  0  0  0  0  0
    6.8495  -12.3279   26.7642 N   0  0  0  0  0  0  0  0  0  0  0  0
    6.4935  -13.4460   25.9660 C   0  0  0  0  0  0  0  0  0  0  0  0
    5.5715  -14.1907   26.4381 O   0  0  0  0  0  0  0  0  0  0  0  0
    7.1486  -13.7393   24.6590 C   0  0  0  0  0  0  0  0  0  0  0  0
    8.0798  -14.8813   24.8666 C   0  0  0  0  0  0  0  0  0  0  0  0
    8.8506  -15.2729   23.6242 C   0  0  2  0  0  0  0  0  0  0  0  0
    8.0082  -15.8574   22.6191 N   0  0  0  0  0  0  0  0  0  0  0  0
   10.0364  -16.0977   23.9694 C   0  0  0  0  0  0  0  0  0  0  0  0
    9.8326  -17.3298   24.1208 O   0  0  0  0  0  0  0  0  0  0  0  0
   11.3420  -15.6190   24.1370 N   0  0  0  0  0  0  0  0  0  0  0  0
   12.5050  -16.4790   24.3141 C   0  0  1  0  0  0  0  0  0  0  0  0
   13.7829  -15.7276   24.1632 C   0  0  0  0  0  0  0  0  0  0  0  0
   14.9310  -16.6337   24.3619 C   0  0  0  0  0  0  0  0  0  0  0  0
   16.0085  -16.4463   23.7452 O   0  0  0  0  0  0  0  0  0  0  0  0
   12.4220  -17.1332   25.6356 C   0  0  0  0  0  0  0  0  0  0  0  0
   13.0052  -18.2452   25.7997 O   0  0  0  0  0  0  0  0  0  0  0  0
   14.8886  -17.7249   25.2248 O   0  0  0  0  0  0  0  0  0  0  0  0
   11.7562  -16.6387   26.7358 O   0  0  0  0  0  0  0  0  0  0  0  0
  2  1  1  1
  3  2  1  0
  4  3  1  0
  5  2  1  0
  5  6  2  0
  7  8  1  0
  8 10  1  0
  8  9  2  0
 10 11  1  0
 12 11  1  1
 12 13  1  0
 13  5  1  0
 14 12  1  0
 15 14  2  0
 16 14  1  0
 17 16  1  0
 17 21  1  0
 17 18  1  1
 19 23  1  0
 19 18  1  0
 20 19  2  0
 21 24  1  0
 22 21  2  0
M  END
$$$$
