CQD.pdb
     RDKit          3D

 24 23  0  0  1  0  0  0  0  0999 V2000
    6.9244  -15.8673   19.3117 N   0  0  0  0  0  0  0  0  0  0  0  0
    7.7599  -14.7096   19.4926 C   0  0  1  0  0  0  0  0  0  0  0  0
    7.0601  -13.4773   18.9659 C   0  0  0  0  0  0  0  0  0  0  0  0
    8.2354  -12.0962   18.9196 S   0  0  0  0  0  0  0  0  0  0  0  0
    8.2694  -14.5402   20.8575 C   0  0  0  0  0  0  0  0  0  0  0  0
    9.4934  -14.2282   20.9848 O   0  0  0  0  0  0  0  0  0  0  0  0
    6.2884  -11.6214   26.7766 N   0  0  0  0  0  0  0  0  0  0  0  0
    6.4596  -12.9946   26.4619 C   0  0  0  0  0  0  0  0  0  0  0  0
    5.5798  -13.7850   26.9404 O   0  0  0  0  0  0  0  0  0  0  0  0
    7.5910  -13.4910   25.6270 C   0  0  0  0  0  0  0  0  0  0  0  0
    7.0477  -13.8255   24.2827 C   0  0  0  0  0  0  0  0  0  0  0  0
    8.0880  -14.3554   23.3194 C   0  0  2  0  0  0  0  0  0  0  0  0
    7.5288  -14.6908   22.0401 N   0  0  0  0  0  0  0  0  0  0  0  0
    8.8781  -15.4510   23.9365 C   0  0  0  0  0  0  0  0  0  0  0  0
    8.3051  -16.5672   24.0285 O   0  0  0  0  0  0  0  0  0  0  0  0
   10.1895  -15.3406   24.4162 N   0  0  0  0  0  0  0  0  0  0  0  0
   11.0270  -16.4829   24.7587 C   0  0  1  0  0  0  0  0  0  0  0  0
   12.4515  -16.2639   24.3802 C   0  0  0  0  0  0  0  0  0  0  0  0
   13.2495  -17.4664   24.6896 C   0  0  0  0  0  0  0  0  0  0  0  0
   12.8907  -18.5964   24.2766 O   0  0  0  0  0  0  0  0  0  0  0  0
   10.8938  -16.7603   26.2031 C   0  0  0  0  0  0  0  0  0  0  0  0
   10.4445  -15.8475   26.9573 O   0  0  0  0  0  0  0  0  0  0  0  0
   14.4205  -17.4204   25.4405 O   0  0  0  0  0  0  0  0  0  0  0  0
   11.2176  -17.9457   26.8262 O   0  0  0  0  0  0  0  0  0  0  0  0
  2  1  1  1
  3  2  1  0
  4  3  1  0
  5  2  1  0
  5  6  2  0
  7  8  1  0
  8 10  1  0
  8  9  2  0
 10 11  1  0
 12 11  1  1
 12 13  1  0
 13  5  1  0
 14 12  1  0
 15 14  2  0
 16 14  1  0
 17 16  1  0
 17 21  1  0
 17 18  1  1
 19 23  1  0
 19 18  1  0
 20 19  2  0
 21 24  1  0
 22 21  2  0
M  END
$$$$
