CQD.pdb
     RDKit          3D

 24 23  0  0  1  0  0  0  0  0999 V2000
    5.8494  -17.3201   23.6428 N   0  0  0  0  0  0  0  0  0  0  0  0
    6.5878  -16.0872   23.7199 C   0  0  1  0  0  0  0  0  0  0  0  0
    7.2089  -15.9393   25.0903 C   0  0  0  0  0  0  0  0  0  0  0  0
    6.0047  -15.1784   26.2135 S   0  0  0  0  0  0  0  0  0  0  0  0
    7.5496  -15.8906   22.6302 C   0  0  0  0  0  0  0  0  0  0  0  0
    8.0748  -16.9307   22.1260 O   0  0  0  0  0  0  0  0  0  0  0  0
    9.4831  -13.8985   17.7738 N   0  0  0  0  0  0  0  0  0  0  0  0
    8.1575  -13.5448   18.1363 C   0  0  0  0  0  0  0  0  0  0  0  0
    7.2845  -13.6530   17.2122 O   0  0  0  0  0  0  0  0  0  0  0  0
    7.7984  -13.0763   19.5056 C   0  0  0  0  0  0  0  0  0  0  0  0
    8.9940  -13.2571   20.3729 C   0  0  0  0  0  0  0  0  0  0  0  0
    9.0068  -14.5691   21.1275 C   0  0  2  0  0  0  0  0  0  0  0  0
    7.9454  -14.6570   22.0906 N   0  0  0  0  0  0  0  0  0  0  0  0
   10.3530  -14.8491   21.6887 C   0  0  0  0  0  0  0  0  0  0  0  0
   10.7323  -14.1005   22.6259 O   0  0  0  0  0  0  0  0  0  0  0  0
   11.2190  -15.8644   21.2630 N   0  0  0  0  0  0  0  0  0  0  0  0
   12.5510  -16.0786   21.8139 C   0  0  1  0  0  0  0  0  0  0  0  0
   12.8106  -17.5171   22.1032 C   0  0  0  0  0  0  0  0  0  0  0  0
   11.9817  -17.9640   23.2396 C   0  0  0  0  0  0  0  0  0  0  0  0
   11.8718  -17.2546   24.2697 O   0  0  0  0  0  0  0  0  0  0  0  0
   13.5523  -15.5324   20.8758 C   0  0  0  0  0  0  0  0  0  0  0  0
   13.1735  -15.1856   19.7182 O   0  0  0  0  0  0  0  0  0  0  0  0
   11.2884  -19.1708   23.2373 O   0  0  0  0  0  0  0  0  0  0  0  0
   14.8924  -15.3574   21.1442 O   0  0  0  0  0  0  0  0  0  0  0  0
  2  1  1  1
  3  2  1  0
  4  3  1  0
  5  2  1  0
  5  6  2  0
  7  8  1  0
  8 10  1  0
  8  9  2  0
 10 11  1  0
 12 11  1  1
 12 13  1  0
 13  5  1  0
 14 12  1  0
 15 14  2  0
 16 14  1  0
 17 16  1  0
 17 21  1  0
 17 18  1  6
 19 23  1  0
 19 18  1  0
 20 19  2  0
 21 24  1  0
 22 21  2  0
M  END
$$$$
