CQD.pdb
     RDKit          3D

 24 23  0  0  1  0  0  0  0  0999 V2000
    7.1925  -13.2567   17.9365 N   0  0  0  0  0  0  0  0  0  0  0  0
    8.5536  -13.4690   18.3530 C   0  0  1  0  0  0  0  0  0  0  0  0
    9.0941  -12.2219   19.0151 C   0  0  0  0  0  0  0  0  0  0  0  0
    8.1789  -11.9161   20.5512 S   0  0  0  0  0  0  0  0  0  0  0  0
    8.7573  -14.6789   19.1567 C   0  0  0  0  0  0  0  0  0  0  0  0
    7.8602  -14.9673   20.0075 O   0  0  0  0  0  0  0  0  0  0  0  0
    8.8688  -20.3145   18.0636 N   0  0  0  0  0  0  0  0  0  0  0  0
    8.0307  -19.1886   17.8541 C   0  0  0  0  0  0  0  0  0  0  0  0
    7.0408  -19.3748   17.0711 O   0  0  0  0  0  0  0  0  0  0  0  0
    8.2823  -17.8698   18.5028 C   0  0  0  0  0  0  0  0  0  0  0  0
    9.5563  -17.9766   19.2643 C   0  0  0  0  0  0  0  0  0  0  0  0
    9.9713  -16.6883   19.9419 C   0  0  2  0  0  0  0  0  0  0  0  0
    9.8539  -15.5508   19.0734 N   0  0  0  0  0  0  0  0  0  0  0  0
   11.3067  -16.8251   20.5768 C   0  0  0  0  0  0  0  0  0  0  0  0
   12.0420  -17.7452   20.1346 O   0  0  0  0  0  0  0  0  0  0  0  0
   11.8034  -16.0233   21.6124 N   0  0  0  0  0  0  0  0  0  0  0  0
   13.1232  -16.1914   22.2069 C   0  0  1  0  0  0  0  0  0  0  0  0
   13.9655  -14.9723   22.0498 C   0  0  0  0  0  0  0  0  0  0  0  0
   14.5304  -14.9177   20.6873 C   0  0  0  0  0  0  0  0  0  0  0  0
   14.4968  -15.9258   19.9396 O   0  0  0  0  0  0  0  0  0  0  0  0
   12.9665  -16.5535   23.6301 C   0  0  0  0  0  0  0  0  0  0  0  0
   11.8079  -16.5210   24.1403 O   0  0  0  0  0  0  0  0  0  0  0  0
   15.1205  -13.7718   20.1621 O   0  0  0  0  0  0  0  0  0  0  0  0
   13.9833  -16.9342   24.4784 O   0  0  0  0  0  0  0  0  0  0  0  0
  2  1  1  1
  3  2  1  0
  4  3  1  0
  5  2  1  0
  5  6  2  0
  7  8  1  0
  8 10  1  0
  8  9  2  0
 10 11  1  0
 12 11  1  6
 12 13  1  0
 13  5  1  0
 14 12  1  0
 15 14  2  0
 16 14  1  0
 17 16  1  0
 17 21  1  0
 17 18  1  1
 19 23  1  0
 19 18  1  0
 20 19  2  0
 21 24  1  0
 22 21  2  0
M  END
$$$$
