CQD.pdb
     RDKit          3D

 24 23  0  0  1  0  0  0  0  0999 V2000
    6.4334  -18.7117   19.4346 N   0  0  0  0  0  0  0  0  0  0  0  0
    6.1797  -17.9045   20.5988 C   0  0  1  0  0  0  0  0  0  0  0  0
    5.8599  -18.7882   21.7831 C   0  0  0  0  0  0  0  0  0  0  0  0
    5.0755  -17.7901   23.0790 S   0  0  0  0  0  0  0  0  0  0  0  0
    7.2239  -16.9156   20.8868 C   0  0  0  0  0  0  0  0  0  0  0  0
    8.4079  -17.2019   20.5290 O   0  0  0  0  0  0  0  0  0  0  0  0
    8.1043  -13.6999   17.7788 N   0  0  0  0  0  0  0  0  0  0  0  0
    8.0900  -12.9849   19.0045 C   0  0  0  0  0  0  0  0  0  0  0  0
    9.0583  -12.1735   19.1821 O   0  0  0  0  0  0  0  0  0  0  0  0
    7.0171  -13.1634   20.0246 C   0  0  0  0  0  0  0  0  0  0  0  0
    7.6753  -13.3180   21.3502 C   0  0  0  0  0  0  0  0  0  0  0  0
    8.1119  -14.7354   21.6523 C   0  0  2  0  0  0  0  0  0  0  0  0
    7.0370  -15.6786   21.5228 N   0  0  0  0  0  0  0  0  0  0  0  0
    8.8232  -14.8090   22.9539 C   0  0  0  0  0  0  0  0  0  0  0  0
    9.7745  -14.0017   23.1151 O   0  0  0  0  0  0  0  0  0  0  0  0
    8.5227  -15.6922   23.9987 N   0  0  0  0  0  0  0  0  0  0  0  0
    9.4520  -16.6925   24.5081 C   0  0  1  0  0  0  0  0  0  0  0  0
    9.3615  -17.9740   23.7532 C   0  0  0  0  0  0  0  0  0  0  0  0
   10.3415  -18.9438   24.2802 C   0  0  0  0  0  0  0  0  0  0  0  0
   11.4568  -18.5581   24.7087 O   0  0  0  0  0  0  0  0  0  0  0  0
   10.8216  -16.1418   24.4650 C   0  0  0  0  0  0  0  0  0  0  0  0
   11.2753  -15.7298   23.3568 O   0  0  0  0  0  0  0  0  0  0  0  0
   10.0934  -20.3123   24.3323 O   0  0  0  0  0  0  0  0  0  0  0  0
   11.6756  -16.0284   25.5404 O   0  0  0  0  0  0  0  0  0  0  0  0
  2  1  1  6
  3  2  1  0
  4  3  1  0
  5  2  1  0
  5  6  2  0
  7  8  1  0
  8 10  1  0
  8  9  2  0
 10 11  1  0
 12 11  1  1
 12 13  1  0
 13  5  1  0
 14 12  1  0
 15 14  2  0
 16 14  1  0
 17 16  1  0
 17 21  1  0
 17 18  1  6
 19 23  1  0
 19 18  1  0
 20 19  2  0
 21 24  1  0
 22 21  2  0
M  END
$$$$
