CQD.pdb
     RDKit          3D

 24 23  0  0  1  0  0  0  0  0999 V2000
    8.3260  -14.0361   18.1585 N   0  0  0  0  0  0  0  0  0  0  0  0
    9.5249  -13.7155   18.8873 C   0  0  1  0  0  0  0  0  0  0  0  0
    9.2004  -12.7918   20.0393 C   0  0  0  0  0  0  0  0  0  0  0  0
    7.9304  -11.6068   19.5159 S   0  0  0  0  0  0  0  0  0  0  0  0
   10.3149  -14.8827   19.2933 C   0  0  0  0  0  0  0  0  0  0  0  0
   10.0690  -15.9815   18.7068 O   0  0  0  0  0  0  0  0  0  0  0  0
   16.2183  -15.3232   17.6212 N   0  0  0  0  0  0  0  0  0  0  0  0
   15.2720  -14.2803   17.7973 C   0  0  0  0  0  0  0  0  0  0  0  0
   15.2283  -13.4108   16.8647 O   0  0  0  0  0  0  0  0  0  0  0  0
   14.3824  -14.1978   18.9910 C   0  0  0  0  0  0  0  0  0  0  0  0
   13.2455  -15.1327   18.7727 C   0  0  0  0  0  0  0  0  0  0  0  0
   12.5671  -15.5764   20.0510 C   0  0  2  0  0  0  0  0  0  0  0  0
   11.3203  -14.8994   20.2723 N   0  0  0  0  0  0  0  0  0  0  0  0
   13.5018  -15.5078   21.2030 C   0  0  0  0  0  0  0  0  0  0  0  0
   14.6627  -15.9502   21.0054 O   0  0  0  0  0  0  0  0  0  0  0  0
   13.1968  -14.9976   22.4714 N   0  0  0  0  0  0  0  0  0  0  0  0
   13.1061  -15.8149   23.6744 C   0  0  1  0  0  0  0  0  0  0  0  0
   11.8632  -16.6365   23.6985 C   0  0  0  0  0  0  0  0  0  0  0  0
   11.7467  -17.3430   24.9891 C   0  0  0  0  0  0  0  0  0  0  0  0
   10.7802  -18.1125   25.2127 O   0  0  0  0  0  0  0  0  0  0  0  0
   14.3106  -16.6641   23.7701 C   0  0  0  0  0  0  0  0  0  0  0  0
   14.4048  -17.6715   23.0086 O   0  0  0  0  0  0  0  0  0  0  0  0
   12.6800  -17.2016   26.0120 O   0  0  0  0  0  0  0  0  0  0  0  0
   15.3696  -16.4616   24.6280 O   0  0  0  0  0  0  0  0  0  0  0  0
  2  1  1  1
  3  2  1  0
  4  3  1  0
  5  2  1  0
  5  6  2  0
  7  8  1  0
  8 10  1  0
  8  9  2  0
 10 11  1  0
 12 11  1  6
 12 13  1  0
 13  5  1  0
 14 12  1  0
 15 14  2  0
 16 14  1  0
 17 16  1  0
 17 21  1  0
 17 18  1  6
 19 23  1  0
 19 18  1  0
 20 19  2  0
 21 24  1  0
 22 21  2  0
M  END
$$$$
