CQD.pdb
     RDKit          3D

 24 23  0  0  1  0  0  0  0  0999 V2000
    5.3048  -13.7108   26.6253 N   0  0  0  0  0  0  0  0  0  0  0  0
    6.2460  -13.0530   25.7578 C   0  0  1  0  0  0  0  0  0  0  0  0
    7.3308  -12.3906   26.5764 C   0  0  0  0  0  0  0  0  0  0  0  0
    6.6069  -11.0394   27.5465 S   0  0  0  0  0  0  0  0  0  0  0  0
    6.7749  -13.9029   24.6859 C   0  0  0  0  0  0  0  0  0  0  0  0
    6.9194  -15.1377   24.9432 O   0  0  0  0  0  0  0  0  0  0  0  0
    7.9901  -12.7143   18.5881 N   0  0  0  0  0  0  0  0  0  0  0  0
    8.4327  -14.0520   18.7573 C   0  0  0  0  0  0  0  0  0  0  0  0
    8.7729  -14.6607   17.6890 O   0  0  0  0  0  0  0  0  0  0  0  0
    8.4994  -14.7118   20.0929 C   0  0  0  0  0  0  0  0  0  0  0  0
    7.8888  -13.7861   21.0851 C   0  0  0  0  0  0  0  0  0  0  0  0
    7.8135  -14.3566   22.4851 C   0  0  2  0  0  0  0  0  0  0  0  0
    7.1376  -13.4785   23.3982 N   0  0  0  0  0  0  0  0  0  0  0  0
    9.1515  -14.7982   22.9543 C   0  0  0  0  0  0  0  0  0  0  0  0
    9.5522  -14.3038   24.0395 O   0  0  0  0  0  0  0  0  0  0  0  0
    9.9884  -15.7068   22.2940 N   0  0  0  0  0  0  0  0  0  0  0  0
   10.8581  -16.6543   22.9790 C   0  0  1  0  0  0  0  0  0  0  0  0
   10.1223  -17.4467   24.0043 C   0  0  0  0  0  0  0  0  0  0  0  0
   10.8761  -17.4593   25.2732 C   0  0  0  0  0  0  0  0  0  0  0  0
   11.8672  -16.7061   25.4364 O   0  0  0  0  0  0  0  0  0  0  0  0
   11.4933  -17.5343   21.9774 C   0  0  0  0  0  0  0  0  0  0  0  0
   10.7635  -18.0742   21.0943 O   0  0  0  0  0  0  0  0  0  0  0  0
   10.5409  -18.2879   26.3400 O   0  0  0  0  0  0  0  0  0  0  0  0
   12.8367  -17.8320   21.9070 O   0  0  0  0  0  0  0  0  0  0  0  0
  2  1  1  1
  3  2  1  0
  4  3  1  0
  5  2  1  0
  5  6  2  0
  7  8  1  0
  8 10  1  0
  8  9  2  0
 10 11  1  0
 12 11  1  6
 12 13  1  0
 13  5  1  0
 14 12  1  0
 15 14  2  0
 16 14  1  0
 17 16  1  0
 17 21  1  0
 17 18  1  1
 19 23  1  0
 19 18  1  0
 20 19  2  0
 21 24  1  0
 22 21  2  0
M  END
$$$$
