CQD.pdb
     RDKit          3D

 24 23  0  0  1  0  0  0  0  0999 V2000
    8.3218  -13.0973   18.8033 N   0  0  0  0  0  0  0  0  0  0  0  0
    7.3982  -13.5521   19.8089 C   0  0  1  0  0  0  0  0  0  0  0  0
    6.7286  -14.8305   19.3582 C   0  0  0  0  0  0  0  0  0  0  0  0
    7.9485  -16.1731   19.3488 S   0  0  0  0  0  0  0  0  0  0  0  0
    7.9715  -13.6492   21.1554 C   0  0  0  0  0  0  0  0  0  0  0  0
    9.2357  -13.5838   21.2532 O   0  0  0  0  0  0  0  0  0  0  0  0
    5.6788  -11.9542   26.7266 N   0  0  0  0  0  0  0  0  0  0  0  0
    6.7905  -12.7675   27.0682 C   0  0  0  0  0  0  0  0  0  0  0  0
    6.9049  -13.0553   28.3058 O   0  0  0  0  0  0  0  0  0  0  0  0
    7.7666  -13.2587   26.0536 C   0  0  0  0  0  0  0  0  0  0  0  0
    7.0532  -13.3585   24.7516 C   0  0  0  0  0  0  0  0  0  0  0  0
    7.9183  -13.8713   23.6203 C   0  0  2  0  0  0  0  0  0  0  0  0
    7.2521  -13.8080   22.3499 N   0  0  0  0  0  0  0  0  0  0  0  0
    8.4777  -15.2093   23.9402 C   0  0  0  0  0  0  0  0  0  0  0  0
    7.7095  -16.1902   23.7660 O   0  0  0  0  0  0  0  0  0  0  0  0
    9.7721  -15.4603   24.4129 N   0  0  0  0  0  0  0  0  0  0  0  0
   10.2325  -16.7679   24.8620 C   0  0  1  0  0  0  0  0  0  0  0  0
   11.6933  -16.9540   24.6338 C   0  0  0  0  0  0  0  0  0  0  0  0
   11.9518  -17.2420   23.2095 C   0  0  0  0  0  0  0  0  0  0  0  0
   11.0494  -17.7197   22.4790 O   0  0  0  0  0  0  0  0  0  0  0  0
    9.8885  -16.9345   26.2885 C   0  0  0  0  0  0  0  0  0  0  0  0
    9.4718  -18.0629   26.6843 O   0  0  0  0  0  0  0  0  0  0  0  0
   13.1833  -17.0066   22.6051 O   0  0  0  0  0  0  0  0  0  0  0  0
    9.9803  -15.9577   27.2559 O   0  0  0  0  0  0  0  0  0  0  0  0
  2  1  1  6
  3  2  1  0
  4  3  1  0
  5  2  1  0
  5  6  2  0
  7  8  1  0
  8 10  1  0
  8  9  2  0
 10 11  1  0
 12 11  1  1
 12 13  1  0
 13  5  1  0
 14 12  1  0
 15 14  2  0
 16 14  1  0
 17 16  1  0
 17 21  1  0
 17 18  1  1
 19 23  1  0
 19 18  1  0
 20 19  2  0
 21 24  1  0
 22 21  2  0
M  END
$$$$
