CQD.pdb
     RDKit          3D

 24 23  0  0  1  0  0  0  0  0999 V2000
    7.3304  -13.9967   17.9178 N   0  0  0  0  0  0  0  0  0  0  0  0
    8.1834  -13.9102   19.0737 C   0  0  1  0  0  0  0  0  0  0  0  0
    7.5442  -13.0323   20.1256 C   0  0  0  0  0  0  0  0  0  0  0  0
    7.3605  -11.3509   19.4698 S   0  0  0  0  0  0  0  0  0  0  0  0
    8.6217  -15.2076   19.5990 C   0  0  0  0  0  0  0  0  0  0  0  0
    7.7779  -16.1560   19.5789 O   0  0  0  0  0  0  0  0  0  0  0  0
    9.6842  -19.6015   17.3304 N   0  0  0  0  0  0  0  0  0  0  0  0
   10.4821  -18.4592   17.0611 C   0  0  0  0  0  0  0  0  0  0  0  0
   10.9803  -18.3974   15.8882 O   0  0  0  0  0  0  0  0  0  0  0  0
   10.7277  -17.3950   18.0763 C   0  0  0  0  0  0  0  0  0  0  0  0
   10.0686  -17.8172   19.3419 C   0  0  0  0  0  0  0  0  0  0  0  0
   10.2583  -16.8410   20.4829 C   0  0  2  0  0  0  0  0  0  0  0  0
    9.8901  -15.5005   20.1233 N   0  0  0  0  0  0  0  0  0  0  0  0
   11.6207  -16.9556   21.0628 C   0  0  0  0  0  0  0  0  0  0  0  0
   11.9668  -18.1017   21.4492 O   0  0  0  0  0  0  0  0  0  0  0  0
   12.5351  -15.9050   21.2107 N   0  0  0  0  0  0  0  0  0  0  0  0
   13.8199  -16.0366   21.8856 C   0  0  1  0  0  0  0  0  0  0  0  0
   14.7803  -14.9761   21.4692 C   0  0  0  0  0  0  0  0  0  0  0  0
   15.0085  -15.0415   20.0125 C   0  0  0  0  0  0  0  0  0  0  0  0
   14.9222  -16.1338   19.3995 O   0  0  0  0  0  0  0  0  0  0  0  0
   13.5999  -16.0155   23.3458 C   0  0  0  0  0  0  0  0  0  0  0  0
   14.5993  -16.1498   24.1120 O   0  0  0  0  0  0  0  0  0  0  0  0
   15.3258  -13.9219   19.2489 O   0  0  0  0  0  0  0  0  0  0  0  0
   12.3828  -15.8588   23.9722 O   0  0  0  0  0  0  0  0  0  0  0  0
  2  1  1  6
  3  2  1  0
  4  3  1  0
  5  2  1  0
  5  6  2  0
  7  8  1  0
  8 10  1  0
  8  9  2  0
 10 11  1  0
 12 11  1  6
 12 13  1  0
 13  5  1  0
 14 12  1  0
 15 14  2  0
 16 14  1  0
 17 16  1  0
 17 21  1  0
 17 18  1  1
 19 23  1  0
 19 18  1  0
 20 19  2  0
 21 24  1  0
 22 21  2  0
M  END
$$$$
