CQD.pdb
     RDKit          3D

 24 23  0  0  1  0  0  0  0  0999 V2000
    4.7003  -12.2348   26.6401 N   0  0  0  0  0  0  0  0  0  0  0  0
    6.0515  -12.1464   26.1525 C   0  0  1  0  0  0  0  0  0  0  0  0
    6.9820  -11.7420   27.2733 C   0  0  0  0  0  0  0  0  0  0  0  0
    8.6996  -11.9663   26.7346 S   0  0  0  0  0  0  0  0  0  0  0  0
    6.5105  -13.3357   25.4273 C   0  0  0  0  0  0  0  0  0  0  0  0
    6.2850  -14.4643   25.9632 O   0  0  0  0  0  0  0  0  0  0  0  0
    7.0603  -14.2876   19.3457 N   0  0  0  0  0  0  0  0  0  0  0  0
    8.0698  -13.4912   19.9461 C   0  0  0  0  0  0  0  0  0  0  0  0
    8.7393  -12.7541   19.1485 O   0  0  0  0  0  0  0  0  0  0  0  0
    8.3379  -13.5077   21.4128 C   0  0  0  0  0  0  0  0  0  0  0  0
    7.3993  -14.4820   22.0327 C   0  0  0  0  0  0  0  0  0  0  0  0
    7.5233  -14.5743   23.5384 C   0  0  2  0  0  0  0  0  0  0  0  0
    7.1776  -13.3437   24.1925 N   0  0  0  0  0  0  0  0  0  0  0  0
    8.8497  -15.1133   23.9328 C   0  0  0  0  0  0  0  0  0  0  0  0
    9.6492  -14.2960   24.4577 O   0  0  0  0  0  0  0  0  0  0  0  0
    9.2732  -16.4383   23.7688 N   0  0  0  0  0  0  0  0  0  0  0  0
   10.4950  -16.9777   24.3518 C   0  0  1  0  0  0  0  0  0  0  0  0
   10.2101  -17.9443   25.4495 C   0  0  0  0  0  0  0  0  0  0  0  0
   11.4718  -18.4986   25.9779 C   0  0  0  0  0  0  0  0  0  0  0  0
   12.5778  -18.1298   25.5119 O   0  0  0  0  0  0  0  0  0  0  0  0
   11.3014  -17.6030   23.2843 C   0  0  0  0  0  0  0  0  0  0  0  0
   10.7296  -17.9231   22.2006 O   0  0  0  0  0  0  0  0  0  0  0  0
   11.5101  -19.4417   27.0008 O   0  0  0  0  0  0  0  0  0  0  0  0
   12.6497  -17.8780   23.3532 O   0  0  0  0  0  0  0  0  0  0  0  0
  2  1  1  1
  3  2  1  0
  4  3  1  0
  5  2  1  0
  5  6  2  0
  7  8  1  0
  8 10  1  0
  8  9  2  0
 10 11  1  0
 12 11  1  6
 12 13  1  0
 13  5  1  0
 14 12  1  0
 15 14  2  0
 16 14  1  0
 17 16  1  0
 17 21  1  0
 17 18  1  1
 19 23  1  0
 19 18  1  0
 20 19  2  0
 21 24  1  0
 22 21  2  0
M  END
$$$$
