CQD.pdb
     RDKit          3D

 24 23  0  0  1  0  0  0  0  0999 V2000
    7.9265  -12.5409   18.6100 N   0  0  0  0  0  0  0  0  0  0  0  0
    8.4307  -13.8321   18.9970 C   0  0  1  0  0  0  0  0  0  0  0  0
    9.8552  -13.9976   18.5184 C   0  0  0  0  0  0  0  0  0  0  0  0
   10.9438  -12.9292   19.5004 S   0  0  0  0  0  0  0  0  0  0  0  0
    8.2645  -14.1431   20.4207 C   0  0  0  0  0  0  0  0  0  0  0  0
    8.0709  -13.1665   21.2085 O   0  0  0  0  0  0  0  0  0  0  0  0
    6.0884  -19.0710   23.4904 N   0  0  0  0  0  0  0  0  0  0  0  0
    6.4939  -18.2058   24.5397 C   0  0  0  0  0  0  0  0  0  0  0  0
    6.1620  -18.5710   25.7162 O   0  0  0  0  0  0  0  0  0  0  0  0
    7.2584  -16.9496   24.2931 C   0  0  0  0  0  0  0  0  0  0  0  0
    7.4554  -16.8216   22.8237 C   0  0  0  0  0  0  0  0  0  0  0  0
    8.2568  -15.6026   22.4200 C   0  0  2  0  0  0  0  0  0  0  0  0
    8.2994  -15.4227   20.9961 N   0  0  0  0  0  0  0  0  0  0  0  0
    9.5939  -15.6047   23.0664 C   0  0  0  0  0  0  0  0  0  0  0  0
    9.8838  -14.5888   23.7494 O   0  0  0  0  0  0  0  0  0  0  0  0
   10.5416  -16.6322   22.9765 N   0  0  0  0  0  0  0  0  0  0  0  0
   11.3136  -17.1254   24.1098 C   0  0  1  0  0  0  0  0  0  0  0  0
   10.4609  -17.3482   25.3113 C   0  0  0  0  0  0  0  0  0  0  0  0
   11.2873  -17.8185   26.4401 C   0  0  0  0  0  0  0  0  0  0  0  0
   12.1803  -17.0839   26.9293 O   0  0  0  0  0  0  0  0  0  0  0  0
   12.0122  -18.3644   23.7124 C   0  0  0  0  0  0  0  0  0  0  0  0
   11.3340  -19.4244   23.5704 O   0  0  0  0  0  0  0  0  0  0  0  0
   11.1297  -19.0756   27.0164 O   0  0  0  0  0  0  0  0  0  0  0  0
   13.3640  -18.4827   23.4737 O   0  0  0  0  0  0  0  0  0  0  0  0
  2  1  1  1
  3  2  1  0
  4  3  1  0
  5  2  1  0
  5  6  2  0
  7  8  1  0
  8 10  1  0
  8  9  2  0
 10 11  1  0
 12 11  1  6
 12 13  1  0
 13  5  1  0
 14 12  1  0
 15 14  2  0
 16 14  1  0
 17 16  1  0
 17 21  1  0
 17 18  1  1
 19 23  1  0
 19 18  1  0
 20 19  2  0
 21 24  1  0
 22 21  2  0
M  END
$$$$
