CQD.pdb
     RDKit          3D

 24 23  0  0  1  0  0  0  0  0999 V2000
    7.7885  -14.1361   17.7643 N   0  0  0  0  0  0  0  0  0  0  0  0
    8.7891  -14.0016   18.7900 C   0  0  1  0  0  0  0  0  0  0  0  0
    9.0634  -12.5393   19.0586 C   0  0  0  0  0  0  0  0  0  0  0  0
    7.6308  -11.8063   19.8960 S   0  0  0  0  0  0  0  0  0  0  0  0
    8.5093  -14.7660   20.0101 C   0  0  0  0  0  0  0  0  0  0  0  0
    7.3305  -15.2144   20.1556 O   0  0  0  0  0  0  0  0  0  0  0  0
    7.3229  -19.5044   20.7878 N   0  0  0  0  0  0  0  0  0  0  0  0
    8.7002  -19.3047   20.5103 C   0  0  0  0  0  0  0  0  0  0  0  0
    9.2743  -20.2407   19.8607 O   0  0  0  0  0  0  0  0  0  0  0  0
    9.4371  -18.0836   20.9454 C   0  0  0  0  0  0  0  0  0  0  0  0
    8.4787  -17.2162   21.6826 C   0  0  0  0  0  0  0  0  0  0  0  0
    9.0728  -15.9003   22.1370 C   0  0  2  0  0  0  0  0  0  0  0  0
    9.4249  -15.0494   21.0353 N   0  0  0  0  0  0  0  0  0  0  0  0
   10.1774  -16.1191   23.1051 C   0  0  0  0  0  0  0  0  0  0  0  0
    9.8381  -16.3512   24.2941 O   0  0  0  0  0  0  0  0  0  0  0  0
   11.5448  -16.0878   22.8030 N   0  0  0  0  0  0  0  0  0  0  0  0
   12.5952  -16.4013   23.7631 C   0  0  1  0  0  0  0  0  0  0  0  0
   12.4493  -17.7752   24.3213 C   0  0  0  0  0  0  0  0  0  0  0  0
   13.5511  -18.0611   25.2608 C   0  0  0  0  0  0  0  0  0  0  0  0
   13.3372  -18.1310   26.4959 O   0  0  0  0  0  0  0  0  0  0  0  0
   13.9092  -16.2251   23.1123 C   0  0  0  0  0  0  0  0  0  0  0  0
   14.8666  -15.7559   23.7956 O   0  0  0  0  0  0  0  0  0  0  0  0
   14.8630  -18.2655   24.8431 O   0  0  0  0  0  0  0  0  0  0  0  0
   14.2032  -16.5302   21.8013 O   0  0  0  0  0  0  0  0  0  0  0  0
  2  1  1  6
  3  2  1  0
  4  3  1  0
  5  2  1  0
  5  6  2  0
  7  8  1  0
  8 10  1  0
  8  9  2  0
 10 11  1  0
 12 11  1  6
 12 13  1  0
 13  5  1  0
 14 12  1  0
 15 14  2  0
 16 14  1  0
 17 16  1  0
 17 21  1  0
 17 18  1  6
 19 23  1  0
 19 18  1  0
 20 19  2  0
 21 24  1  0
 22 21  2  0
M  END
$$$$
