CQD.pdb
     RDKit          3D

 24 23  0  0  1  0  0  0  0  0999 V2000
    8.7599  -12.5369   19.0023 N   0  0  0  0  0  0  0  0  0  0  0  0
    7.9848  -13.5097   19.7263 C   0  0  1  0  0  0  0  0  0  0  0  0
    7.9698  -14.8228   18.9772 C   0  0  0  0  0  0  0  0  0  0  0  0
    6.6606  -14.7802   17.7222 S   0  0  0  0  0  0  0  0  0  0  0  0
    8.3654  -13.6576   21.1350 C   0  0  0  0  0  0  0  0  0  0  0  0
    9.6005  -13.8047   21.3892 O   0  0  0  0  0  0  0  0  0  0  0  0
    5.4152  -12.1894   26.4749 N   0  0  0  0  0  0  0  0  0  0  0  0
    6.6422  -12.7458   26.9208 C   0  0  0  0  0  0  0  0  0  0  0  0
    6.9015  -12.5900   28.1602 O   0  0  0  0  0  0  0  0  0  0  0  0
    7.5743  -13.4675   26.0076 C   0  0  0  0  0  0  0  0  0  0  0  0
    7.0548  -13.3177   24.6213 C   0  0  0  0  0  0  0  0  0  0  0  0
    7.9598  -13.9123   23.5637 C   0  0  2  0  0  0  0  0  0  0  0  0
    7.4901  -13.6517   22.2320 N   0  0  0  0  0  0  0  0  0  0  0  0
    8.2291  -15.3470   23.8367 C   0  0  0  0  0  0  0  0  0  0  0  0
    7.7378  -16.1705   23.0225 O   0  0  0  0  0  0  0  0  0  0  0  0
    8.9749  -15.8466   24.9119 N   0  0  0  0  0  0  0  0  0  0  0  0
   10.0143  -16.8591   24.7775 C   0  0  1  0  0  0  0  0  0  0  0  0
   11.0208  -16.4915   23.7420 C   0  0  0  0  0  0  0  0  0  0  0  0
   12.0908  -17.5069   23.6912 C   0  0  0  0  0  0  0  0  0  0  0  0
   13.2725  -17.2072   23.9913 O   0  0  0  0  0  0  0  0  0  0  0  0
   10.6524  -17.0700   26.0925 C   0  0  0  0  0  0  0  0  0  0  0  0
   10.8393  -16.0679   26.8439 O   0  0  0  0  0  0  0  0  0  0  0  0
   11.8590  -18.8270   23.3160 O   0  0  0  0  0  0  0  0  0  0  0  0
   11.0738  -18.2816   26.5953 O   0  0  0  0  0  0  0  0  0  0  0  0
  2  1  1  6
  3  2  1  0
  4  3  1  0
  5  2  1  0
  5  6  2  0
  7  8  1  0
  8 10  1  0
  8  9  2  0
 10 11  1  0
 12 11  1  1
 12 13  1  0
 13  5  1  0
 14 12  1  0
 15 14  2  0
 16 14  1  0
 17 16  1  0
 17 21  1  0
 17 18  1  6
 19 23  1  0
 19 18  1  0
 20 19  2  0
 21 24  1  0
 22 21  2  0
M  END
$$$$
