WYC.pdb
     RDKit          3D

 33 35  0  0  1  0  0  0  0  0999 V2000
   26.8925  -21.5028  -14.8876 N   0  0  0  0  0  0  0  0  0  0  0  0
   26.0246  -21.0707  -13.8487 C   0  0  1  0  0  0  0  0  0  0  0  0
   26.6065  -19.9034  -13.0872 C   0  0  0  0  0  0  0  0  0  0  0  0
   27.8265  -20.2590  -12.3477 C   0  0  0  0  0  0  0  0  0  0  0  0
   29.1133  -20.2525  -12.8358 C   0  0  0  0  0  0  0  0  0  0  0  0
   29.9796  -20.6058  -11.8698 N   0  0  0  0  0  0  0  0  0  0  0  0
   29.2585  -20.8416  -10.7584 C   0  0  0  0  0  0  0  0  0  0  0  0
   29.6957  -21.2339   -9.5204 C   0  0  0  0  0  0  0  0  0  0  0  0
   28.7601  -21.4299   -8.5039 C   0  0  0  0  0  0  0  0  0  0  0  0
   27.4247  -21.2245   -8.7715 C   0  0  0  0  0  0  0  0  0  0  0  0
   26.9948  -20.8305  -10.0175 C   0  0  0  0  0  0  0  0  0  0  0  0
   27.9062  -20.6314  -11.0330 C   0  0  0  0  0  0  0  0  0  0  0  0
   24.6381  -20.7578  -14.3067 C   0  0  0  0  0  0  0  0  0  0  0  0
   24.4611  -19.6740  -14.9206 O   0  0  0  0  0  0  0  0  0  0  0  0
   23.7394  -20.8195  -20.5387 O   0  0  0  0  0  0  0  0  0  0  0  0
   23.2661  -21.1937  -19.2839 C   0  0  0  0  0  0  0  0  0  0  0  0
   22.0916  -20.6806  -18.7748 C   0  0  0  0  0  0  0  0  0  0  0  0
   21.6366  -21.0606  -17.5314 C   0  0  0  0  0  0  0  0  0  0  0  0
   22.3205  -21.9713  -16.7225 C   0  0  0  0  0  0  0  0  0  0  0  0
   21.7760  -22.3472  -15.3914 C   0  0  0  0  0  0  0  0  0  0  0  0
   22.2584  -21.3743  -14.3569 C   0  0  2  0  0  0  0  0  0  0  0  0
   23.6224  -21.7017  -14.0175 N   0  0  0  0  0  0  0  0  0  0  0  0
   21.4506  -21.3593  -13.1226 C   0  0  0  0  0  0  0  0  0  0  0  0
   21.4448  -22.3657  -12.3761 O   0  0  0  0  0  0  0  0  0  0  0  0
   23.4910  -22.4753  -17.2435 C   0  0  0  0  0  0  0  0  0  0  0  0
   23.9499  -22.0934  -18.4944 C   0  0  0  0  0  0  0  0  0  0  0  0
   20.6618  -20.2388  -12.7282 N   0  0  0  0  0  0  0  0  0  0  0  0
   19.8482  -20.3322  -11.5460 C   0  0  1  0  0  0  0  0  0  0  0  0
   19.9951  -19.0757  -10.7075 C   0  0  0  0  0  0  0  0  0  0  0  0
   18.8209  -19.2395   -9.3167 S   0  0  0  0  0  0  0  0  0  0  0  0
   18.3995  -20.4627  -11.8827 C   0  0  0  0  0  0  0  0  0  0  0  0
   17.9100  -19.9289  -13.0630 O   0  0  0  0  0  0  0  0  0  0  0  0
   17.5953  -21.0483  -11.1224 O   0  0  0  0  0  0  0  0  0  0  0  0
  2 13  1  0
  2  1  1  6
  3  2  1  0
  4  3  1  0
  5  4  2  0
  6  5  1  0
  7  6  1  0
  7 12  2  0
  8  7  1  0
  9  8  2  0
  9 10  1  0
 10 11  2  0
 11 12  1  0
 12  4  1  0
 13 14  2  0
 15 16  1  0
 16 17  2  0
 17 18  1  0
 19 18  2  0
 19 20  1  0
 21 20  1  6
 22 21  1  0
 22 13  1  0
 23 21  1  0
 24 23  2  0
 25 19  1  0
 26 16  1  0
 26 25  2  0
 27 23  1  0
 28 27  1  0
 29 30  1  0
 28 29  1  1
 31 28  1  0
 31 32  1  0
 33 31  2  0
M  END
$$$$
