WYC.pdb
     RDKit          3D

 33 35  0  0  1  0  0  0  0  0999 V2000
   26.5258  -19.7911  -11.8464 N   0  0  0  0  0  0  0  0  0  0  0  0
   26.3101  -21.1910  -11.9612 C   0  0  1  0  0  0  0  0  0  0  0  0
   25.6890  -21.7626  -10.7088 C   0  0  0  0  0  0  0  0  0  0  0  0
   26.3297  -21.2691   -9.4807 C   0  0  0  0  0  0  0  0  0  0  0  0
   25.7029  -20.6707   -8.4116 C   0  0  0  0  0  0  0  0  0  0  0  0
   26.5982  -20.3754   -7.4526 N   0  0  0  0  0  0  0  0  0  0  0  0
   27.8021  -20.7799   -7.8970 C   0  0  0  0  0  0  0  0  0  0  0  0
   29.0202  -20.6875   -7.2760 C   0  0  0  0  0  0  0  0  0  0  0  0
   30.1524  -21.1702   -7.9333 C   0  0  0  0  0  0  0  0  0  0  0  0
   30.0159  -21.7253   -9.1864 C   0  0  0  0  0  0  0  0  0  0  0  0
   28.7889  -21.8141   -9.8023 C   0  0  0  0  0  0  0  0  0  0  0  0
   27.6598  -21.3429   -9.1663 C   0  0  0  0  0  0  0  0  0  0  0  0
   25.5198  -21.5869  -13.1648 C   0  0  0  0  0  0  0  0  0  0  0  0
   24.8159  -20.7002  -13.7134 O   0  0  0  0  0  0  0  0  0  0  0  0
   22.5974  -26.4318  -19.8826 O   0  0  0  0  0  0  0  0  0  0  0  0
   23.2981  -25.9868  -18.7648 C   0  0  0  0  0  0  0  0  0  0  0  0
   23.1912  -26.6247  -17.5468 C   0  0  0  0  0  0  0  0  0  0  0  0
   23.8909  -26.1722  -16.4499 C   0  0  0  0  0  0  0  0  0  0  0  0
   24.7365  -25.0614  -16.4989 C   0  0  0  0  0  0  0  0  0  0  0  0
   25.4702  -24.6241  -15.2823 C   0  0  0  0  0  0  0  0  0  0  0  0
   24.9068  -23.3224  -14.7950 C   0  0  2  0  0  0  0  0  0  0  0  0
   25.6186  -22.9304  -13.6023 N   0  0  0  0  0  0  0  0  0  0  0  0
   23.4630  -23.3667  -14.4955 C   0  0  0  0  0  0  0  0  0  0  0  0
   23.0563  -24.0278  -13.5118 O   0  0  0  0  0  0  0  0  0  0  0  0
   24.8336  -24.4348  -17.7209 C   0  0  0  0  0  0  0  0  0  0  0  0
   24.1299  -24.8891  -18.8252 C   0  0  0  0  0  0  0  0  0  0  0  0
   22.4888  -22.6841  -15.2819 N   0  0  0  0  0  0  0  0  0  0  0  0
   21.0949  -22.8348  -14.9617 C   0  0  1  0  0  0  0  0  0  0  0  0
   20.4131  -21.4791  -14.9360 C   0  0  0  0  0  0  0  0  0  0  0  0
   21.0199  -20.6212  -13.4407 S   0  0  0  0  0  0  0  0  0  0  0  0
   20.3813  -23.6604  -15.9807 C   0  0  0  0  0  0  0  0  0  0  0  0
   19.0864  -24.0901  -15.7431 O   0  0  0  0  0  0  0  0  0  0  0  0
   20.9209  -23.9849  -17.0629 O   0  0  0  0  0  0  0  0  0  0  0  0
  2 13  1  0
  2  1  1  1
  3  2  1  0
  4  3  1  0
  5  4  2  0
  6  5  1  0
  7  6  1  0
  7 12  2  0
  8  7  1  0
  9  8  2  0
  9 10  1  0
 10 11  2  0
 11 12  1  0
 12  4  1  0
 13 14  2  0
 15 16  1  0
 16 17  2  0
 17 18  1  0
 19 18  2  0
 19 20  1  0
 21 20  1  1
 22 21  1  0
 22 13  1  0
 23 21  1  0
 24 23  2  0
 25 19  1  0
 26 16  1  0
 26 25  2  0
 27 23  1  0
 28 27  1  0
 29 30  1  0
 28 29  1  6
 31 28  1  0
 31 32  1  0
 33 31  2  0
M  END
$$$$
