WYC.pdb
     RDKit          3D

 33 35  0  0  1  0  0  0  0  0999 V2000
   27.5655  -22.0522  -10.5424 N   0  0  0  0  0  0  0  0  0  0  0  0
   26.6284  -21.0946  -10.0691 C   0  0  1  0  0  0  0  0  0  0  0  0
   27.3157  -19.9235   -9.4079 C   0  0  0  0  0  0  0  0  0  0  0  0
   28.2841  -20.3383   -8.3821 C   0  0  0  0  0  0  0  0  0  0  0  0
   29.4497  -21.0399   -8.5899 C   0  0  0  0  0  0  0  0  0  0  0  0
   30.1004  -21.2170   -7.4265 N   0  0  0  0  0  0  0  0  0  0  0  0
   29.3602  -20.6332   -6.4663 C   0  0  0  0  0  0  0  0  0  0  0  0
   29.6082  -20.5567   -5.1207 C   0  0  0  0  0  0  0  0  0  0  0  0
   28.6886  -19.9024   -4.3001 C   0  0  0  0  0  0  0  0  0  0  0  0
   27.5584  -19.3524   -4.8631 C   0  0  0  0  0  0  0  0  0  0  0  0
   27.3177  -19.4339   -6.2151 C   0  0  0  0  0  0  0  0  0  0  0  0
   28.2166  -20.0760   -7.0405 C   0  0  0  0  0  0  0  0  0  0  0  0
   25.6686  -20.6187  -11.1095 C   0  0  0  0  0  0  0  0  0  0  0  0
   25.9952  -19.6051  -11.7793 O   0  0  0  0  0  0  0  0  0  0  0  0
   28.5146  -20.1799  -16.3807 O   0  0  0  0  0  0  0  0  0  0  0  0
   27.3997  -20.6263  -15.6764 C   0  0  0  0  0  0  0  0  0  0  0  0
   26.1769  -19.9988  -15.7904 C   0  0  0  0  0  0  0  0  0  0  0  0
   25.0831  -20.4525  -15.0868 C   0  0  0  0  0  0  0  0  0  0  0  0
   25.1399  -21.5544  -14.2300 C   0  0  0  0  0  0  0  0  0  0  0  0
   23.9234  -22.0005  -13.5016 C   0  0  0  0  0  0  0  0  0  0  0  0
   23.6153  -21.0343  -12.3966 C   0  0  2  0  0  0  0  0  0  0  0  0
   24.4606  -21.3410  -11.2678 N   0  0  0  0  0  0  0  0  0  0  0  0
   22.2073  -21.0530  -11.9568 C   0  0  0  0  0  0  0  0  0  0  0  0
   21.8195  -21.9432  -11.1649 O   0  0  0  0  0  0  0  0  0  0  0  0
   26.3665  -22.1709  -14.1261 C   0  0  0  0  0  0  0  0  0  0  0  0
   27.4678  -21.7151  -14.8336 C   0  0  0  0  0  0  0  0  0  0  0  0
   21.2478  -20.0931  -12.3941 N   0  0  0  0  0  0  0  0  0  0  0  0
   19.9038  -20.1601  -11.8866 C   0  0  1  0  0  0  0  0  0  0  0  0
   19.2251  -18.8091  -12.0192 C   0  0  0  0  0  0  0  0  0  0  0  0
   20.0978  -17.6759  -10.8816 S   0  0  0  0  0  0  0  0  0  0  0  0
   19.0745  -21.1394  -12.6498 C   0  0  0  0  0  0  0  0  0  0  0  0
   17.8885  -21.6118  -12.1133 O   0  0  0  0  0  0  0  0  0  0  0  0
   19.4186  -21.5574  -13.7788 O   0  0  0  0  0  0  0  0  0  0  0  0
  2 13  1  0
  2  1  1  6
  3  2  1  0
  4  3  1  0
  5  4  2  0
  6  5  1  0
  7  6  1  0
  7 12  2  0
  8  7  1  0
  9  8  2  0
  9 10  1  0
 10 11  2  0
 11 12  1  0
 12  4  1  0
 13 14  2  0
 15 16  1  0
 16 17  2  0
 17 18  1  0
 19 18  2  0
 19 20  1  0
 21 20  1  6
 22 21  1  0
 22 13  1  0
 23 21  1  0
 24 23  2  0
 25 19  1  0
 26 16  1  0
 26 25  2  0
 27 23  1  0
 28 27  1  0
 29 30  1  0
 28 29  1  6
 31 28  1  0
 31 32  1  0
 33 31  2  0
M  END
$$$$
