WYC.pdb
     RDKit          3D

 33 35  0  0  1  0  0  0  0  0999 V2000
   24.0090  -19.9106  -11.3267 N   0  0  0  0  0  0  0  0  0  0  0  0
   25.2307  -20.3534  -11.9016 C   0  0  1  0  0  0  0  0  0  0  0  0
   25.9196  -21.3736  -11.0267 C   0  0  0  0  0  0  0  0  0  0  0  0
   26.2269  -20.8566   -9.6849 C   0  0  0  0  0  0  0  0  0  0  0  0
   25.3218  -20.3992   -8.7545 C   0  0  0  0  0  0  0  0  0  0  0  0
   25.9575  -20.0312   -7.6281 N   0  0  0  0  0  0  0  0  0  0  0  0
   27.2707  -20.2480   -7.8259 C   0  0  0  0  0  0  0  0  0  0  0  0
   28.3153  -20.0213   -6.9686 C   0  0  0  0  0  0  0  0  0  0  0  0
   29.6124  -20.3152   -7.3909 C   0  0  0  0  0  0  0  0  0  0  0  0
   29.8077  -20.8241   -8.6557 C   0  0  0  0  0  0  0  0  0  0  0  0
   28.7529  -21.0487   -9.5098 C   0  0  0  0  0  0  0  0  0  0  0  0
   27.4647  -20.7647   -9.1080 C   0  0  0  0  0  0  0  0  0  0  0  0
   25.0940  -20.8676  -13.2969 C   0  0  0  0  0  0  0  0  0  0  0  0
   24.0324  -21.4763  -13.5889 O   0  0  0  0  0  0  0  0  0  0  0  0
   25.5022  -14.5975  -16.0282 O   0  0  0  0  0  0  0  0  0  0  0  0
   25.3241  -15.9783  -16.0444 C   0  0  0  0  0  0  0  0  0  0  0  0
   24.4938  -16.6080  -15.1411 C   0  0  0  0  0  0  0  0  0  0  0  0
   24.3281  -17.9752  -15.1699 C   0  0  0  0  0  0  0  0  0  0  0  0
   24.9764  -18.7954  -16.0964 C   0  0  0  0  0  0  0  0  0  0  0  0
   24.7528  -20.2649  -16.0816 C   0  0  0  0  0  0  0  0  0  0  0  0
   25.9874  -20.9572  -15.5858 C   0  0  2  0  0  0  0  0  0  0  0  0
   26.1676  -20.6343  -14.1907 N   0  0  0  0  0  0  0  0  0  0  0  0
   27.2149  -20.5972  -16.3207 C   0  0  0  0  0  0  0  0  0  0  0  0
   27.8983  -19.6186  -15.9395 O   0  0  0  0  0  0  0  0  0  0  0  0
   25.8017  -18.1533  -16.9919 C   0  0  0  0  0  0  0  0  0  0  0  0
   25.9693  -16.7777  -16.9637 C   0  0  0  0  0  0  0  0  0  0  0  0
   27.6718  -21.3181  -17.4630 N   0  0  0  0  0  0  0  0  0  0  0  0
   28.9162  -22.0353  -17.3910 C   0  0  1  0  0  0  0  0  0  0  0  0
   28.8061  -23.1781  -16.3982 C   0  0  0  0  0  0  0  0  0  0  0  0
   30.4153  -24.0440  -16.4231 S   0  0  0  0  0  0  0  0  0  0  0  0
   29.2827  -22.6373  -18.7072 C   0  0  0  0  0  0  0  0  0  0  0  0
   28.3576  -23.3944  -19.4062 O   0  0  0  0  0  0  0  0  0  0  0  0
   30.4176  -22.4796  -19.2120 O   0  0  0  0  0  0  0  0  0  0  0  0
  2 13  1  0
  2  1  1  1
  3  2  1  0
  4  3  1  0
  5  4  2  0
  6  5  1  0
  7  6  1  0
  7 12  2  0
  8  7  1  0
  9  8  2  0
  9 10  1  0
 10 11  2  0
 11 12  1  0
 12  4  1  0
 13 14  2  0
 15 16  1  0
 16 17  2  0
 17 18  1  0
 19 18  2  0
 19 20  1  0
 21 20  1  6
 22 21  1  0
 22 13  1  0
 23 21  1  0
 24 23  2  0
 25 19  1  0
 26 16  1  0
 26 25  2  0
 27 23  1  0
 28 27  1  0
 29 30  1  0
 28 29  1  1
 31 28  1  0
 31 32  1  0
 33 31  2  0
M  END
$$$$
