WYC.pdb
     RDKit          3D

 33 35  0  0  1  0  0  0  0  0999 V2000
   24.4089  -16.9016  -16.7791 N   0  0  0  0  0  0  0  0  0  0  0  0
   25.0372  -17.7286  -15.8093 C   0  0  1  0  0  0  0  0  0  0  0  0
   26.2719  -17.0744  -15.2363 C   0  0  0  0  0  0  0  0  0  0  0  0
   27.3078  -16.8294  -16.2507 C   0  0  0  0  0  0  0  0  0  0  0  0
   27.8273  -15.6082  -16.6148 C   0  0  0  0  0  0  0  0  0  0  0  0
   28.7777  -15.7673  -17.5528 N   0  0  0  0  0  0  0  0  0  0  0  0
   28.8749  -17.0869  -17.7977 C   0  0  0  0  0  0  0  0  0  0  0  0
   29.6995  -17.7364  -18.6786 C   0  0  0  0  0  0  0  0  0  0  0  0
   29.6246  -19.1264  -18.7753 C   0  0  0  0  0  0  0  0  0  0  0  0
   28.7254  -19.8071  -17.9846 C   0  0  0  0  0  0  0  0  0  0  0  0
   27.9014  -19.1467  -17.1028 C   0  0  0  0  0  0  0  0  0  0  0  0
   27.9633  -17.7734  -16.9941 C   0  0  0  0  0  0  0  0  0  0  0  0
   24.1272  -18.1786  -14.7140 C   0  0  0  0  0  0  0  0  0  0  0  0
   23.5773  -17.2888  -14.0150 O   0  0  0  0  0  0  0  0  0  0  0  0
   18.6804  -22.5589   -9.6582 O   0  0  0  0  0  0  0  0  0  0  0  0
   19.5533  -22.2142  -10.6867 C   0  0  0  0  0  0  0  0  0  0  0  0
   19.2361  -21.2324  -11.6019 C   0  0  0  0  0  0  0  0  0  0  0  0
   20.1105  -20.9028  -12.6139 C   0  0  0  0  0  0  0  0  0  0  0  0
   21.3491  -21.5281  -12.7757 C   0  0  0  0  0  0  0  0  0  0  0  0
   22.2528  -21.1247  -13.8848 C   0  0  0  0  0  0  0  0  0  0  0  0
   23.1699  -20.0344  -13.4161 C   0  0  2  0  0  0  0  0  0  0  0  0
   23.9486  -19.5728  -14.5401 N   0  0  0  0  0  0  0  0  0  0  0  0
   24.0877  -20.4436  -12.3362 C   0  0  0  0  0  0  0  0  0  0  0  0
   25.0235  -21.2377  -12.5888 O   0  0  0  0  0  0  0  0  0  0  0  0
   21.6524  -22.5058  -11.8551 C   0  0  0  0  0  0  0  0  0  0  0  0
   20.7733  -22.8384  -10.8364 C   0  0  0  0  0  0  0  0  0  0  0  0
   23.9628  -19.9739  -10.9956 N   0  0  0  0  0  0  0  0  0  0  0  0
   24.7922  -20.5459   -9.9694 C   0  0  1  0  0  0  0  0  0  0  0  0
   25.5361  -19.4518   -9.2257 C   0  0  0  0  0  0  0  0  0  0  0  0
   26.4690  -20.2756   -7.8875 S   0  0  0  0  0  0  0  0  0  0  0  0
   23.9837  -21.2872   -8.9564 C   0  0  0  0  0  0  0  0  0  0  0  0
   24.6093  -22.1158   -8.0401 O   0  0  0  0  0  0  0  0  0  0  0  0
   22.7369  -21.1851   -8.9040 O   0  0  0  0  0  0  0  0  0  0  0  0
  2 13  1  0
  2  1  1  6
  3  2  1  0
  4  3  1  0
  5  4  2  0
  6  5  1  0
  7  6  1  0
  7 12  2  0
  8  7  1  0
  9  8  2  0
  9 10  1  0
 10 11  2  0
 11 12  1  0
 12  4  1  0
 13 14  2  0
 15 16  1  0
 16 17  2  0
 17 18  1  0
 19 18  2  0
 19 20  1  0
 21 20  1  6
 22 21  1  0
 22 13  1  0
 23 21  1  0
 24 23  2  0
 25 19  1  0
 26 16  1  0
 26 25  2  0
 27 23  1  0
 28 27  1  0
 29 30  1  0
 28 29  1  1
 31 28  1  0
 31 32  1  0
 33 31  2  0
M  END
$$$$
