WYC.pdb
     RDKit          3D

 33 35  0  0  1  0  0  0  0  0999 V2000
   24.3046  -19.3947   -9.7373 N   0  0  0  0  0  0  0  0  0  0  0  0
   25.6112  -19.7902  -10.1318 C   0  0  1  0  0  0  0  0  0  0  0  0
   26.1102  -20.9569   -9.3128 C   0  0  0  0  0  0  0  0  0  0  0  0
   26.2442  -20.6327   -7.8849 C   0  0  0  0  0  0  0  0  0  0  0  0
   25.2278  -20.5669   -6.9594 C   0  0  0  0  0  0  0  0  0  0  0  0
   25.7227  -20.2723   -5.7442 N   0  0  0  0  0  0  0  0  0  0  0  0
   27.0556  -20.1467   -5.8796 C   0  0  0  0  0  0  0  0  0  0  0  0
   27.9896  -19.8464   -4.9229 C   0  0  0  0  0  0  0  0  0  0  0  0
   29.3321  -19.7581   -5.2931 C   0  0  0  0  0  0  0  0  0  0  0  0
   29.6819  -19.9743   -6.6076 C   0  0  0  0  0  0  0  0  0  0  0  0
   28.7374  -20.2754   -7.5615 C   0  0  0  0  0  0  0  0  0  0  0  0
   27.4065  -20.3675   -7.2124 C   0  0  0  0  0  0  0  0  0  0  0  0
   25.7432  -20.0804  -11.5907 C   0  0  0  0  0  0  0  0  0  0  0  0
   24.6831  -20.2560  -12.2450 O   0  0  0  0  0  0  0  0  0  0  0  0
   26.3061  -14.9112  -17.0952 O   0  0  0  0  0  0  0  0  0  0  0  0
   26.8022  -15.9623  -16.3286 C   0  0  0  0  0  0  0  0  0  0  0  0
   26.6883  -15.9677  -14.9543 C   0  0  0  0  0  0  0  0  0  0  0  0
   27.1844  -17.0150  -14.2097 C   0  0  0  0  0  0  0  0  0  0  0  0
   27.8217  -18.1165  -14.7860 C   0  0  0  0  0  0  0  0  0  0  0  0
   28.3315  -19.2196  -13.9300 C   0  0  0  0  0  0  0  0  0  0  0  0
   27.2032  -20.1390  -13.5681 C   0  0  2  0  0  0  0  0  0  0  0  0
   27.0503  -20.1377  -12.1330 N   0  0  0  0  0  0  0  0  0  0  0  0
   27.3894  -21.5288  -14.0264 C   0  0  0  0  0  0  0  0  0  0  0  0
   28.0090  -22.3406  -13.3004 O   0  0  0  0  0  0  0  0  0  0  0  0
   27.9281  -18.0976  -16.1585 C   0  0  0  0  0  0  0  0  0  0  0  0
   27.4294  -17.0442  -16.9087 C   0  0  0  0  0  0  0  0  0  0  0  0
   26.8920  -22.0045  -15.2752 N   0  0  0  0  0  0  0  0  0  0  0  0
   26.2380  -23.2841  -15.3307 C   0  0  1  0  0  0  0  0  0  0  0  0
   25.1657  -23.3719  -14.2601 C   0  0  0  0  0  0  0  0  0  0  0  0
   24.6771  -25.1299  -14.1578 S   0  0  0  0  0  0  0  0  0  0  0  0
   25.5599  -23.5004  -16.6431 C   0  0  0  0  0  0  0  0  0  0  0  0
   25.6945  -24.7102  -17.3033 O   0  0  0  0  0  0  0  0  0  0  0  0
   24.8605  -22.6109  -17.1793 O   0  0  0  0  0  0  0  0  0  0  0  0
  2 13  1  0
  2  1  1  6
  3  2  1  0
  4  3  1  0
  5  4  2  0
  6  5  1  0
  7  6  1  0
  7 12  2  0
  8  7  1  0
  9  8  2  0
  9 10  1  0
 10 11  2  0
 11 12  1  0
 12  4  1  0
 13 14  2  0
 15 16  1  0
 16 17  2  0
 17 18  1  0
 19 18  2  0
 19 20  1  0
 21 20  1  1
 22 21  1  0
 22 13  1  0
 23 21  1  0
 24 23  2  0
 25 19  1  0
 26 16  1  0
 26 25  2  0
 27 23  1  0
 28 27  1  0
 29 30  1  0
 28 29  1  1
 31 28  1  0
 31 32  1  0
 33 31  2  0
M  END
$$$$
