WYC.pdb
     RDKit          3D

 33 35  0  0  1  0  0  0  0  0999 V2000
   26.7176  -22.1050  -13.1758 N   0  0  0  0  0  0  0  0  0  0  0  0
   25.8903  -21.4564  -12.2198 C   0  0  1  0  0  0  0  0  0  0  0  0
   26.6148  -20.3208  -11.5367 C   0  0  0  0  0  0  0  0  0  0  0  0
   27.6194  -20.7877  -10.5698 C   0  0  0  0  0  0  0  0  0  0  0  0
   28.7438  -21.5306  -10.8489 C   0  0  0  0  0  0  0  0  0  0  0  0
   29.4481  -21.7497   -9.7245 N   0  0  0  0  0  0  0  0  0  0  0  0
   28.7837  -21.1519   -8.7186 C   0  0  0  0  0  0  0  0  0  0  0  0
   29.1060  -21.1048   -7.3875 C   0  0  0  0  0  0  0  0  0  0  0  0
   28.2580  -20.4276   -6.5103 C   0  0  0  0  0  0  0  0  0  0  0  0
   27.1218  -19.8261   -7.0047 C   0  0  0  0  0  0  0  0  0  0  0  0
   26.8063  -19.8784   -8.3427 C   0  0  0  0  0  0  0  0  0  0  0  0
   27.6339  -20.5426   -9.2233 C   0  0  0  0  0  0  0  0  0  0  0  0
   24.5820  -20.9885  -12.7669 C   0  0  0  0  0  0  0  0  0  0  0  0
   24.4941  -19.7802  -13.1057 O   0  0  0  0  0  0  0  0  0  0  0  0
   24.8270  -19.0179  -18.6637 O   0  0  0  0  0  0  0  0  0  0  0  0
   24.1573  -19.7747  -17.7059 C   0  0  0  0  0  0  0  0  0  0  0  0
   22.8925  -19.4342  -17.2742 C   0  0  0  0  0  0  0  0  0  0  0  0
   22.2430  -20.1931  -16.3257 C   0  0  0  0  0  0  0  0  0  0  0  0
   22.8110  -21.3330  -15.7516 C   0  0  0  0  0  0  0  0  0  0  0  0
   22.0580  -22.1150  -14.7363 C   0  0  0  0  0  0  0  0  0  0  0  0
   22.2578  -21.5049  -13.3808 C   0  0  2  0  0  0  0  0  0  0  0  0
   23.5346  -21.9369  -12.8651 N   0  0  0  0  0  0  0  0  0  0  0  0
   21.2074  -21.8515  -12.4047 C   0  0  0  0  0  0  0  0  0  0  0  0
   21.2879  -22.9268  -11.7667 O   0  0  0  0  0  0  0  0  0  0  0  0
   24.0735  -21.6609  -16.1920 C   0  0  0  0  0  0  0  0  0  0  0  0
   24.7281  -20.8979  -17.1463 C   0  0  0  0  0  0  0  0  0  0  0  0
   20.0851  -21.0109  -12.1453 N   0  0  0  0  0  0  0  0  0  0  0  0
   19.1115  -21.4188  -11.1685 C   0  0  1  0  0  0  0  0  0  0  0  0
   18.2866  -20.2261  -10.7206 C   0  0  0  0  0  0  0  0  0  0  0  0
   17.0785  -20.8582   -9.5037 S   0  0  0  0  0  0  0  0  0  0  0  0
   18.1570  -22.4218  -11.7270 C   0  0  0  0  0  0  0  0  0  0  0  0
   17.7038  -23.4644  -10.9363 O   0  0  0  0  0  0  0  0  0  0  0  0
   17.7431  -22.3537  -12.9068 O   0  0  0  0  0  0  0  0  0  0  0  0
  2 13  1  0
  2  1  1  6
  3  2  1  0
  4  3  1  0
  5  4  2  0
  6  5  1  0
  7  6  1  0
  7 12  2  0
  8  7  1  0
  9  8  2  0
  9 10  1  0
 10 11  2  0
 11 12  1  0
 12  4  1  0
 13 14  2  0
 15 16  1  0
 16 17  2  0
 17 18  1  0
 19 18  2  0
 19 20  1  0
 21 20  1  6
 22 21  1  0
 22 13  1  0
 23 21  1  0
 24 23  2  0
 25 19  1  0
 26 16  1  0
 26 25  2  0
 27 23  1  0
 28 27  1  0
 29 30  1  0
 28 29  1  6
 31 28  1  0
 31 32  1  0
 33 31  2  0
M  END
$$$$
