WYC.pdb
     RDKit          3D

 33 35  0  0  1  0  0  0  0  0999 V2000
   26.1334  -22.6313  -12.0978 N   0  0  0  0  0  0  0  0  0  0  0  0
   25.6146  -21.4889  -11.4307 C   0  0  1  0  0  0  0  0  0  0  0  0
   26.6318  -20.3746  -11.3631 C   0  0  0  0  0  0  0  0  0  0  0  0
   27.7944  -20.7164  -10.5302 C   0  0  0  0  0  0  0  0  0  0  0  0
   28.9530  -21.3290  -10.9500 C   0  0  0  0  0  0  0  0  0  0  0  0
   29.8107  -21.4574   -9.9223 N   0  0  0  0  0  0  0  0  0  0  0  0
   29.2114  -20.9308   -8.8386 C   0  0  0  0  0  0  0  0  0  0  0  0
   29.6875  -20.8365   -7.5571 C   0  0  0  0  0  0  0  0  0  0  0  0
   28.8824  -20.2529   -6.5782 C   0  0  0  0  0  0  0  0  0  0  0  0
   27.6331  -19.7884   -6.9253 C   0  0  0  0  0  0  0  0  0  0  0  0
   27.1633  -19.8872   -8.2146 C   0  0  0  0  0  0  0  0  0  0  0  0
   27.9464  -20.4602   -9.1943 C   0  0  0  0  0  0  0  0  0  0  0  0
   24.3267  -20.9880  -11.9968 C   0  0  0  0  0  0  0  0  0  0  0  0
   23.8987  -19.8829  -11.5746 O   0  0  0  0  0  0  0  0  0  0  0  0
   25.7340  -16.6954  -16.5458 O   0  0  0  0  0  0  0  0  0  0  0  0
   24.9887  -17.8145  -16.1842 C   0  0  0  0  0  0  0  0  0  0  0  0
   23.6423  -17.7220  -15.9002 C   0  0  0  0  0  0  0  0  0  0  0  0
   22.9186  -18.8385  -15.5438 C   0  0  0  0  0  0  0  0  0  0  0  0
   23.4891  -20.1101  -15.4488 C   0  0  0  0  0  0  0  0  0  0  0  0
   22.6548  -21.2789  -15.0647 C   0  0  0  0  0  0  0  0  0  0  0  0
   22.4683  -21.2973  -13.5767 C   0  0  2  0  0  0  0  0  0  0  0  0
   23.6793  -21.7916  -12.9670 N   0  0  0  0  0  0  0  0  0  0  0  0
   21.3342  -22.1244  -13.1231 C   0  0  0  0  0  0  0  0  0  0  0  0
   21.3538  -23.3615  -13.3216 O   0  0  0  0  0  0  0  0  0  0  0  0
   24.8335  -20.1873  -15.7352 C   0  0  0  0  0  0  0  0  0  0  0  0
   25.5628  -19.0645  -16.0939 C   0  0  0  0  0  0  0  0  0  0  0  0
   20.1964  -21.5792  -12.4586 N   0  0  0  0  0  0  0  0  0  0  0  0
   19.1159  -22.4510  -12.0835 C   0  0  1  0  0  0  0  0  0  0  0  0
   18.2533  -21.7909  -11.0234 C   0  0  0  0  0  0  0  0  0  0  0  0
   16.9219  -22.9776  -10.6247 S   0  0  0  0  0  0  0  0  0  0  0  0
   18.2242  -22.7539  -13.2421 C   0  0  0  0  0  0  0  0  0  0  0  0
   17.7946  -24.0509  -13.4672 O   0  0  0  0  0  0  0  0  0  0  0  0
   17.8433  -21.8610  -14.0330 O   0  0  0  0  0  0  0  0  0  0  0  0
  2 13  1  0
  2  1  1  6
  3  2  1  0
  4  3  1  0
  5  4  2  0
  6  5  1  0
  7  6  1  0
  7 12  2  0
  8  7  1  0
  9  8  2  0
  9 10  1  0
 10 11  2  0
 11 12  1  0
 12  4  1  0
 13 14  2  0
 15 16  1  0
 16 17  2  0
 17 18  1  0
 19 18  2  0
 19 20  1  0
 21 20  1  6
 22 21  1  0
 22 13  1  0
 23 21  1  0
 24 23  2  0
 25 19  1  0
 26 16  1  0
 26 25  2  0
 27 23  1  0
 28 27  1  0
 29 30  1  0
 28 29  1  1
 31 28  1  0
 31 32  1  0
 33 31  2  0
M  END
$$$$
