WYC.pdb
     RDKit          3D

 33 35  0  0  1  0  0  0  0  0999 V2000
   27.0011  -19.4625  -11.3397 N   0  0  0  0  0  0  0  0  0  0  0  0
   26.6402  -20.8361  -11.3862 C   0  0  1  0  0  0  0  0  0  0  0  0
   26.0461  -21.2997  -10.0774 C   0  0  0  0  0  0  0  0  0  0  0  0
   26.8592  -20.9119   -8.9153 C   0  0  0  0  0  0  0  0  0  0  0  0
   26.4314  -20.2084   -7.8125 C   0  0  0  0  0  0  0  0  0  0  0  0
   27.4394  -20.0607   -6.9346 N   0  0  0  0  0  0  0  0  0  0  0  0
   28.5181  -20.6654   -7.4652 C   0  0  0  0  0  0  0  0  0  0  0  0
   29.7814  -20.7745   -6.9456 C   0  0  0  0  0  0  0  0  0  0  0  0
   30.7589  -21.4459   -7.6809 C   0  0  0  0  0  0  0  0  0  0  0  0
   30.4288  -21.9797   -8.9069 C   0  0  0  0  0  0  0  0  0  0  0  0
   29.1577  -21.8654   -9.4207 C   0  0  0  0  0  0  0  0  0  0  0  0
   28.1795  -21.2060   -8.7067 C   0  0  0  0  0  0  0  0  0  0  0  0
   25.7395  -21.1890  -12.5239 C   0  0  0  0  0  0  0  0  0  0  0  0
   25.0784  -20.2571  -13.0504 O   0  0  0  0  0  0  0  0  0  0  0  0
   21.7299  -25.9920  -18.6897 O   0  0  0  0  0  0  0  0  0  0  0  0
   22.5834  -25.5713  -17.6733 C   0  0  0  0  0  0  0  0  0  0  0  0
   22.4801  -26.0722  -16.3926 C   0  0  0  0  0  0  0  0  0  0  0  0
   23.3321  -25.6458  -15.3978 C   0  0  0  0  0  0  0  0  0  0  0  0
   24.3350  -24.6983  -15.6168 C   0  0  0  0  0  0  0  0  0  0  0  0
   25.2281  -24.2818  -14.5039 C   0  0  0  0  0  0  0  0  0  0  0  0
   24.8498  -22.9058  -14.0426 C   0  0  2  0  0  0  0  0  0  0  0  0
   25.6935  -22.5456  -12.9284 N   0  0  0  0  0  0  0  0  0  0  0  0
   23.4385  -22.7756  -13.6335 C   0  0  0  0  0  0  0  0  0  0  0  0
   23.0848  -23.1750  -12.4997 O   0  0  0  0  0  0  0  0  0  0  0  0
   24.4265  -24.2072  -16.8997 C   0  0  0  0  0  0  0  0  0  0  0  0
   23.5697  -24.6355  -17.9014 C   0  0  0  0  0  0  0  0  0  0  0  0
   22.4380  -22.2088  -14.4768 N   0  0  0  0  0  0  0  0  0  0  0  0
   21.0669  -22.2133  -14.0428 C   0  0  1  0  0  0  0  0  0  0  0  0
   20.5519  -20.7911  -13.9171 C   0  0  0  0  0  0  0  0  0  0  0  0
   18.8008  -20.9161  -13.4093 S   0  0  0  0  0  0  0  0  0  0  0  0
   20.1811  -22.9109  -15.0215 C   0  0  0  0  0  0  0  0  0  0  0  0
   20.6725  -23.2800  -16.2625 O   0  0  0  0  0  0  0  0  0  0  0  0
   18.9873  -23.1798  -14.7564 O   0  0  0  0  0  0  0  0  0  0  0  0
  2 13  1  0
  2  1  1  1
  3  2  1  0
  4  3  1  0
  5  4  2  0
  6  5  1  0
  7  6  1  0
  7 12  2  0
  8  7  1  0
  9  8  2  0
  9 10  1  0
 10 11  2  0
 11 12  1  0
 12  4  1  0
 13 14  2  0
 15 16  1  0
 16 17  2  0
 17 18  1  0
 19 18  2  0
 19 20  1  0
 21 20  1  1
 22 21  1  0
 22 13  1  0
 23 21  1  0
 24 23  2  0
 25 19  1  0
 26 16  1  0
 26 25  2  0
 27 23  1  0
 28 27  1  0
 29 30  1  0
 28 29  1  6
 31 28  1  0
 31 32  1  0
 33 31  2  0
M  END
$$$$
