WYC.pdb
     RDKit          3D

 33 35  0  0  1  0  0  0  0  0999 V2000
   27.0471  -22.1496  -11.9838 N   0  0  0  0  0  0  0  0  0  0  0  0
   26.3997  -21.0791  -11.3100 C   0  0  1  0  0  0  0  0  0  0  0  0
   27.3845  -20.0216  -10.8710 C   0  0  0  0  0  0  0  0  0  0  0  0
   28.3402  -20.5163   -9.8690 C   0  0  0  0  0  0  0  0  0  0  0  0
   29.5641  -21.0946  -10.1176 C   0  0  0  0  0  0  0  0  0  0  0  0
   30.1793  -21.3979   -8.9609 N   0  0  0  0  0  0  0  0  0  0  0  0
   29.3582  -21.0187   -7.9646 C   0  0  0  0  0  0  0  0  0  0  0  0
   29.5454  -21.1277   -6.6115 C   0  0  0  0  0  0  0  0  0  0  0  0
   28.5458  -20.6707   -5.7518 C   0  0  0  0  0  0  0  0  0  0  0  0
   27.3998  -20.1236   -6.2852 C   0  0  0  0  0  0  0  0  0  0  0  0
   27.2205  -20.0179   -7.6451 C   0  0  0  0  0  0  0  0  0  0  0  0
   28.1988  -20.4637   -8.5086 C   0  0  0  0  0  0  0  0  0  0  0  0
   25.2806  -20.4631  -12.0836 C   0  0  0  0  0  0  0  0  0  0  0  0
   25.4196  -19.2684  -12.4524 O   0  0  0  0  0  0  0  0  0  0  0  0
   27.5891  -18.6387  -17.1843 O   0  0  0  0  0  0  0  0  0  0  0  0
   26.5265  -19.2738  -16.5471 C   0  0  0  0  0  0  0  0  0  0  0  0
   26.6638  -20.5314  -15.9979 C   0  0  0  0  0  0  0  0  0  0  0  0
   25.6028  -21.1466  -15.3707 C   0  0  0  0  0  0  0  0  0  0  0  0
   24.3455  -20.5495  -15.2526 C   0  0  0  0  0  0  0  0  0  0  0  0
   23.2402  -21.2614  -14.5591 C   0  0  0  0  0  0  0  0  0  0  0  0
   23.0890  -20.7227  -13.1676 C   0  0  2  0  0  0  0  0  0  0  0  0
   24.1440  -21.2663  -12.3463 N   0  0  0  0  0  0  0  0  0  0  0  0
   21.7898  -21.0319  -12.5409 C   0  0  0  0  0  0  0  0  0  0  0  0
   21.5632  -22.1938  -12.1303 O   0  0  0  0  0  0  0  0  0  0  0  0
   24.2231  -19.2945  -15.8053 C   0  0  0  0  0  0  0  0  0  0  0  0
   25.2899  -18.6745  -16.4367 C   0  0  0  0  0  0  0  0  0  0  0  0
   20.7601  -20.0594  -12.3756 N   0  0  0  0  0  0  0  0  0  0  0  0
   19.5247  -20.4427  -11.7470 C   0  0  1  0  0  0  0  0  0  0  0  0
   18.7562  -19.2104  -11.3060 C   0  0  0  0  0  0  0  0  0  0  0  0
   18.3627  -18.2730  -12.8246 S   0  0  0  0  0  0  0  0  0  0  0  0
   18.6389  -21.1944  -12.6847 C   0  0  0  0  0  0  0  0  0  0  0  0
   17.5774  -21.9356  -12.1934 O   0  0  0  0  0  0  0  0  0  0  0  0
   18.8241  -21.1789  -13.9230 O   0  0  0  0  0  0  0  0  0  0  0  0
  2 13  1  0
  2  1  1  6
  3  2  1  0
  4  3  1  0
  5  4  2  0
  6  5  1  0
  7  6  1  0
  7 12  2  0
  8  7  1  0
  9  8  2  0
  9 10  1  0
 10 11  2  0
 11 12  1  0
 12  4  1  0
 13 14  2  0
 15 16  1  0
 16 17  2  0
 17 18  1  0
 19 18  2  0
 19 20  1  0
 21 20  1  6
 22 21  1  0
 22 13  1  0
 23 21  1  0
 24 23  2  0
 25 19  1  0
 26 16  1  0
 26 25  2  0
 27 23  1  0
 28 27  1  0
 29 30  1  0
 28 29  1  6
 31 28  1  0
 31 32  1  0
 33 31  2  0
M  END
$$$$
