WYC.pdb
     RDKit          3D

 33 35  0  0  1  0  0  0  0  0999 V2000
   16.7913  -11.6809  -15.8588 N   0  0  0  0  0  0  0  0  0  0  0  0
   17.4025  -10.4244  -15.6005 C   0  0  1  0  0  0  0  0  0  0  0  0
   17.6008   -9.6309  -16.8702 C   0  0  0  0  0  0  0  0  0  0  0  0
   18.4520  -10.3257  -17.8473 C   0  0  0  0  0  0  0  0  0  0  0  0
   18.4752  -11.6783  -18.1001 C   0  0  0  0  0  0  0  0  0  0  0  0
   19.3555  -11.9541  -19.0787 N   0  0  0  0  0  0  0  0  0  0  0  0
   19.9025  -10.7853  -19.4599 C   0  0  0  0  0  0  0  0  0  0  0  0
   20.8538  -10.5569  -20.4193 C   0  0  0  0  0  0  0  0  0  0  0  0
   21.2862   -9.2495  -20.6448 C   0  0  0  0  0  0  0  0  0  0  0  0
   20.7467   -8.2256  -19.8982 C   0  0  0  0  0  0  0  0  0  0  0  0
   19.7918   -8.4642  -18.9370 C   0  0  0  0  0  0  0  0  0  0  0  0
   19.3526   -9.7501  -18.7022 C   0  0  0  0  0  0  0  0  0  0  0  0
   16.6920   -9.6028  -14.5757 C   0  0  0  0  0  0  0  0  0  0  0  0
   15.4504   -9.4532  -14.7117 O   0  0  0  0  0  0  0  0  0  0  0  0
   14.8579   -5.1394   -7.3189 O   0  0  0  0  0  0  0  0  0  0  0  0
   15.4873   -5.9392   -8.2690 C   0  0  0  0  0  0  0  0  0  0  0  0
   16.4210   -5.4213   -9.1419 C   0  0  0  0  0  0  0  0  0  0  0  0
   17.0351   -6.2257  -10.0764 C   0  0  0  0  0  0  0  0  0  0  0  0
   16.7580   -7.5895  -10.1982 C   0  0  0  0  0  0  0  0  0  0  0  0
   17.4577   -8.4076  -11.2232 C   0  0  0  0  0  0  0  0  0  0  0  0
   16.8124   -8.1987  -12.5608 C   0  0  2  0  0  0  0  0  0  0  0  0
   17.4655   -9.0511  -13.5252 N   0  0  0  0  0  0  0  0  0  0  0  0
   16.8654   -6.8056  -13.0430 C   0  0  0  0  0  0  0  0  0  0  0  0
   17.8884   -6.3973  -13.6403 O   0  0  0  0  0  0  0  0  0  0  0  0
   15.8242   -8.0926   -9.3205 C   0  0  0  0  0  0  0  0  0  0  0  0
   15.2056   -7.2841   -8.3798 C   0  0  0  0  0  0  0  0  0  0  0  0
   15.7934   -5.8830  -12.8611 N   0  0  0  0  0  0  0  0  0  0  0  0
   15.9050   -4.5578  -13.4085 C   0  0  1  0  0  0  0  0  0  0  0  0
   15.6688   -4.5880  -14.9075 C   0  0  0  0  0  0  0  0  0  0  0  0
   15.6611   -2.8482  -15.4669 S   0  0  0  0  0  0  0  0  0  0  0  0
   14.8870   -3.6334  -12.8269 C   0  0  0  0  0  0  0  0  0  0  0  0
   13.9383   -4.1145  -11.9403 O   0  0  0  0  0  0  0  0  0  0  0  0
   14.8590   -2.4157  -13.1170 O   0  0  0  0  0  0  0  0  0  0  0  0
  2 13  1  0
  2  1  1  6
  3  2  1  0
  4  3  1  0
  5  4  2  0
  6  5  1  0
  7  6  1  0
  7 12  2  0
  8  7  1  0
  9  8  2  0
  9 10  1  0
 10 11  2  0
 11 12  1  0
 12  4  1  0
 13 14  2  0
 15 16  1  0
 16 17  2  0
 17 18  1  0
 19 18  2  0
 19 20  1  0
 21 20  1  1
 22 21  1  0
 22 13  1  0
 23 21  1  0
 24 23  2  0
 25 19  1  0
 26 16  1  0
 26 25  2  0
 27 23  1  0
 28 27  1  0
 29 30  1  0
 28 29  1  6
 31 28  1  0
 31 32  1  0
 33 31  2  0
M  END
$$$$
