WYC.pdb
     RDKit          3D

 33 35  0  0  1  0  0  0  0  0999 V2000
   19.6889  -21.7187  -14.3289 N   0  0  0  0  0  0  0  0  0  0  0  0
   20.4421  -20.5816  -13.9304 C   0  0  1  0  0  0  0  0  0  0  0  0
   19.7982  -19.8684  -12.7652 C   0  0  0  0  0  0  0  0  0  0  0  0
   18.5325  -19.2142  -13.1288 C   0  0  0  0  0  0  0  0  0  0  0  0
   17.2682  -19.6069  -12.7528 C   0  0  0  0  0  0  0  0  0  0  0  0
   16.3505  -18.7562  -13.2453 N   0  0  0  0  0  0  0  0  0  0  0  0
   17.0159  -17.8145  -13.9391 C   0  0  0  0  0  0  0  0  0  0  0  0
   16.5131  -16.7407  -14.6260 C   0  0  0  0  0  0  0  0  0  0  0  0
   17.3969  -15.8879  -15.2882 C   0  0  0  0  0  0  0  0  0  0  0  0
   18.7484  -16.1477  -15.2342 C   0  0  0  0  0  0  0  0  0  0  0  0
   19.2444  -17.2282  -14.5419 C   0  0  0  0  0  0  0  0  0  0  0  0
   18.3849  -18.0804  -13.8811 C   0  0  0  0  0  0  0  0  0  0  0  0
   21.8762  -20.8760  -13.6358 C   0  0  0  0  0  0  0  0  0  0  0  0
   22.1316  -21.9229  -12.9866 O   0  0  0  0  0  0  0  0  0  0  0  0
   30.6004  -20.3092  -13.6134 O   0  0  0  0  0  0  0  0  0  0  0  0
   29.2552  -20.0754  -13.8863 C   0  0  0  0  0  0  0  0  0  0  0  0
   28.4987  -20.9775  -14.6045 C   0  0  0  0  0  0  0  0  0  0  0  0
   27.1689  -20.7318  -14.8664 C   0  0  0  0  0  0  0  0  0  0  0  0
   26.5138  -19.5774  -14.4308 C   0  0  0  0  0  0  0  0  0  0  0  0
   25.0746  -19.3709  -14.7398 C   0  0  0  0  0  0  0  0  0  0  0  0
   24.2371  -20.2167  -13.8274 C   0  0  2  0  0  0  0  0  0  0  0  0
   22.8453  -19.9570  -14.1072 N   0  0  0  0  0  0  0  0  0  0  0  0
   24.4866  -19.9821  -12.3925 C   0  0  0  0  0  0  0  0  0  0  0  0
   23.9839  -18.9794  -11.8341 O   0  0  0  0  0  0  0  0  0  0  0  0
   27.2812  -18.6862  -13.7151 C   0  0  0  0  0  0  0  0  0  0  0  0
   28.6194  -18.9323  -13.4511 C   0  0  0  0  0  0  0  0  0  0  0  0
   25.2848  -20.8531  -11.5938 N   0  0  0  0  0  0  0  0  0  0  0  0
   25.7150  -20.4175  -10.2925 C   0  0  1  0  0  0  0  0  0  0  0  0
   24.9221  -21.1301   -9.2122 C   0  0  0  0  0  0  0  0  0  0  0  0
   25.5236  -20.4810   -7.6133 S   0  0  0  0  0  0  0  0  0  0  0  0
   27.1547  -20.7326  -10.0537 C   0  0  0  0  0  0  0  0  0  0  0  0
   27.8878  -21.4039  -11.0179 O   0  0  0  0  0  0  0  0  0  0  0  0
   27.7349  -20.4059   -8.9933 O   0  0  0  0  0  0  0  0  0  0  0  0
  2 13  1  0
  2  1  1  1
  3  2  1  0
  4  3  1  0
  5  4  2  0
  6  5  1  0
  7  6  1  0
  7 12  2  0
  8  7  1  0
  9  8  2  0
  9 10  1  0
 10 11  2  0
 11 12  1  0
 12  4  1  0
 13 14  2  0
 15 16  1  0
 16 17  2  0
 17 18  1  0
 19 18  2  0
 19 20  1  0
 21 20  1  6
 22 21  1  0
 22 13  1  0
 23 21  1  0
 24 23  2  0
 25 19  1  0
 26 16  1  0
 26 25  2  0
 27 23  1  0
 28 27  1  0
 29 30  1  0
 28 29  1  1
 31 28  1  0
 31 32  1  0
 33 31  2  0
M  END
$$$$
