WYC.pdb
     RDKit          3D

 33 35  0  0  1  0  0  0  0  0999 V2000
   26.2176  -23.3149  -11.6287 N   0  0  0  0  0  0  0  0  0  0  0  0
   25.7592  -21.9707  -11.5804 C   0  0  1  0  0  0  0  0  0  0  0  0
   26.8758  -20.9920  -11.8565 C   0  0  0  0  0  0  0  0  0  0  0  0
   27.9106  -21.0012  -10.8120 C   0  0  0  0  0  0  0  0  0  0  0  0
   29.1635  -21.5633  -10.9030 C   0  0  0  0  0  0  0  0  0  0  0  0
   29.8512  -21.3547   -9.7663 N   0  0  0  0  0  0  0  0  0  0  0  0
   29.0481  -20.6601   -8.9397 C   0  0  0  0  0  0  0  0  0  0  0  0
   29.3030  -20.2193   -7.6676 C   0  0  0  0  0  0  0  0  0  0  0  0
   28.3100  -19.5166   -6.9840 C   0  0  0  0  0  0  0  0  0  0  0  0
   27.1024  -19.2856   -7.6047 C   0  0  0  0  0  0  0  0  0  0  0  0
   26.8553  -19.7319   -8.8824 C   0  0  0  0  0  0  0  0  0  0  0  0
   27.8260  -20.4270   -9.5724 C   0  0  0  0  0  0  0  0  0  0  0  0
   24.5906  -21.6955  -12.4685 C   0  0  0  0  0  0  0  0  0  0  0  0
   24.4523  -22.4217  -13.4864 O   0  0  0  0  0  0  0  0  0  0  0  0
   19.2407  -24.0911   -8.7408 O   0  0  0  0  0  0  0  0  0  0  0  0
   19.7764  -23.0707   -9.5220 C   0  0  0  0  0  0  0  0  0  0  0  0
   20.6730  -22.1607   -9.0022 C   0  0  0  0  0  0  0  0  0  0  0  0
   21.1942  -21.1566   -9.7881 C   0  0  0  0  0  0  0  0  0  0  0  0
   20.8558  -20.9980  -11.1341 C   0  0  0  0  0  0  0  0  0  0  0  0
   21.4562  -19.8976  -11.9329 C   0  0  0  0  0  0  0  0  0  0  0  0
   22.5026  -20.4549  -12.8514 C   0  0  2  0  0  0  0  0  0  0  0  0
   23.7226  -20.6378  -12.1024 N   0  0  0  0  0  0  0  0  0  0  0  0
   22.7862  -19.6068  -14.0247 C   0  0  0  0  0  0  0  0  0  0  0  0
   23.3035  -18.4776  -13.8598 O   0  0  0  0  0  0  0  0  0  0  0  0
   19.9601  -21.9133  -11.6394 C   0  0  0  0  0  0  0  0  0  0  0  0
   19.4349  -22.9240  -10.8495 C   0  0  0  0  0  0  0  0  0  0  0  0
   22.4968  -20.0130  -15.3606 N   0  0  0  0  0  0  0  0  0  0  0  0
   22.7692  -19.1091  -16.4455 C   0  0  1  0  0  0  0  0  0  0  0  0
   23.8810  -19.6592  -17.3200 C   0  0  0  0  0  0  0  0  0  0  0  0
   24.0796  -18.4856  -18.7067 S   0  0  0  0  0  0  0  0  0  0  0  0
   21.5758  -18.9265  -17.3238 C   0  0  0  0  0  0  0  0  0  0  0  0
   21.5800  -17.9514  -18.3071 O   0  0  0  0  0  0  0  0  0  0  0  0
   20.5515  -19.6362  -17.2018 O   0  0  0  0  0  0  0  0  0  0  0  0
  2 13  1  0
  2  1  1  6
  3  2  1  0
  4  3  1  0
  5  4  2  0
  6  5  1  0
  7  6  1  0
  7 12  2  0
  8  7  1  0
  9  8  2  0
  9 10  1  0
 10 11  2  0
 11 12  1  0
 12  4  1  0
 13 14  2  0
 15 16  1  0
 16 17  2  0
 17 18  1  0
 19 18  2  0
 19 20  1  0
 21 20  1  1
 22 21  1  0
 22 13  1  0
 23 21  1  0
 24 23  2  0
 25 19  1  0
 26 16  1  0
 26 25  2  0
 27 23  1  0
 28 27  1  0
 29 30  1  0
 28 29  1  6
 31 28  1  0
 31 32  1  0
 33 31  2  0
M  END
$$$$
