WYC.pdb
     RDKit          3D

 33 35  0  0  1  0  0  0  0  0999 V2000
   20.7092  -17.2401  -17.7792 N   0  0  0  0  0  0  0  0  0  0  0  0
   21.1228  -18.1489  -16.7682 C   0  0  1  0  0  0  0  0  0  0  0  0
   22.4979  -17.8095  -16.2440 C   0  0  0  0  0  0  0  0  0  0  0  0
   23.5002  -17.6904  -17.3133 C   0  0  0  0  0  0  0  0  0  0  0  0
   24.2657  -16.5835  -17.6009 C   0  0  0  0  0  0  0  0  0  0  0  0
   25.0959  -16.8451  -18.6260 N   0  0  0  0  0  0  0  0  0  0  0  0
   24.8703  -18.1168  -19.0034 C   0  0  0  0  0  0  0  0  0  0  0  0
   25.4683  -18.8314  -20.0082 C   0  0  0  0  0  0  0  0  0  0  0  0
   25.0680  -20.1495  -20.2308 C   0  0  0  0  0  0  0  0  0  0  0  0
   24.0843  -20.6959  -19.4366 C   0  0  0  0  0  0  0  0  0  0  0  0
   23.4895  -19.9710  -18.4299 C   0  0  0  0  0  0  0  0  0  0  0  0
   23.8740  -18.6676  -18.1958 C   0  0  0  0  0  0  0  0  0  0  0  0
   20.1525  -18.2864  -15.6414 C   0  0  0  0  0  0  0  0  0  0  0  0
   19.6822  -17.2285  -15.1491 O   0  0  0  0  0  0  0  0  0  0  0  0
   13.3840  -20.9603  -11.0469 O   0  0  0  0  0  0  0  0  0  0  0  0
   14.3992  -20.7819  -11.9829 C   0  0  0  0  0  0  0  0  0  0  0  0
   15.2046  -21.8286  -12.3802 C   0  0  0  0  0  0  0  0  0  0  0  0
   16.2050  -21.6360  -13.3073 C   0  0  0  0  0  0  0  0  0  0  0  0
   16.4634  -20.3944  -13.8930 C   0  0  0  0  0  0  0  0  0  0  0  0
   17.5540  -20.2500  -14.8927 C   0  0  0  0  0  0  0  0  0  0  0  0
   18.7982  -19.7602  -14.2134 C   0  0  2  0  0  0  0  0  0  0  0  0
   19.8314  -19.5959  -15.2077 N   0  0  0  0  0  0  0  0  0  0  0  0
   19.2962  -20.6558  -13.1522 C   0  0  0  0  0  0  0  0  0  0  0  0
   19.7633  -21.7772  -13.4592 O   0  0  0  0  0  0  0  0  0  0  0  0
   15.6518  -19.3590  -13.4871 C   0  0  0  0  0  0  0  0  0  0  0  0
   14.6449  -19.5517  -12.5542 C   0  0  0  0  0  0  0  0  0  0  0  0
   19.2727  -20.3050  -11.7702 N   0  0  0  0  0  0  0  0  0  0  0  0
   19.8270  -21.2146  -10.8039 C   0  0  1  0  0  0  0  0  0  0  0  0
   20.5050  -20.4434   -9.6863 C   0  0  0  0  0  0  0  0  0  0  0  0
   21.5972  -19.2179  -10.4895 S   0  0  0  0  0  0  0  0  0  0  0  0
   18.7701  -22.0578  -10.1707 C   0  0  0  0  0  0  0  0  0  0  0  0
   19.1234  -23.0879   -9.3153 O   0  0  0  0  0  0  0  0  0  0  0  0
   17.5524  -21.8640  -10.3887 O   0  0  0  0  0  0  0  0  0  0  0  0
  2 13  1  0
  2  1  1  6
  3  2  1  0
  4  3  1  0
  5  4  2  0
  6  5  1  0
  7  6  1  0
  7 12  2  0
  8  7  1  0
  9  8  2  0
  9 10  1  0
 10 11  2  0
 11 12  1  0
 12  4  1  0
 13 14  2  0
 15 16  1  0
 16 17  2  0
 17 18  1  0
 19 18  2  0
 19 20  1  0
 21 20  1  6
 22 21  1  0
 22 13  1  0
 23 21  1  0
 24 23  2  0
 25 19  1  0
 26 16  1  0
 26 25  2  0
 27 23  1  0
 28 27  1  0
 29 30  1  0
 28 29  1  1
 31 28  1  0
 31 32  1  0
 33 31  2  0
M  END
$$$$
