CEH.pdb
     RDKit          3D

 26 26  0  0  1  0  0  0  0  0999 V2000
    6.1466  -15.1653   20.9889 N   0  0  0  0  0  0  0  0  0  0  0  0
    7.4932  -14.7518   21.2334 C   0  0  1  0  0  0  0  0  0  0  0  0
    7.5368  -13.3204   21.7420 C   0  0  0  0  0  0  0  0  0  0  0  0
    6.4860  -13.2651   23.2312 S   0  0  0  0  0  0  0  0  0  0  0  0
    8.1465  -15.5988   22.2940 C   0  0  0  0  0  0  0  0  0  0  0  0
    7.4576  -16.2788   23.0957 O   0  0  0  0  0  0  0  0  0  0  0  0
    9.5582  -15.6661   22.4341 N   0  0  0  0  0  0  0  0  0  0  0  0
   10.1867  -16.6048   23.3453 C   0  0  1  0  0  0  0  0  0  0  0  0
   11.5330  -17.0611   22.8333 C   0  0  0  0  0  0  0  0  0  0  0  0
   12.1161  -18.1869   23.6272 C   0  0  0  0  0  0  0  0  0  0  0  0
   13.4090  -18.5752   23.0247 C   0  0  0  0  0  0  0  0  0  0  0  0
   13.4440  -19.1059   21.8927 O   0  0  0  0  0  0  0  0  0  0  0  0
   10.3593  -16.0346   24.6961 C   0  0  0  0  0  0  0  0  0  0  0  0
   10.9691  -14.9564   24.9215 O   0  0  0  0  0  0  0  0  0  0  0  0
   14.5725  -18.3486   23.7184 O   0  0  0  0  0  0  0  0  0  0  0  0
    9.8311  -16.6978   25.8131 N   0  0  0  0  0  0  0  0  0  0  0  0
    9.9450  -16.2964   27.1686 C   0  0  1  0  0  0  0  0  0  0  0  0
    8.6896  -15.8494   27.8350 C   0  0  0  0  0  0  0  0  0  0  0  0
    8.0422  -14.7003   27.1716 C   0  0  0  0  0  0  0  0  0  0  0  0
    8.2508  -13.3614   27.3935 C   0  0  0  0  0  0  0  0  0  0  0  0
    7.4579  -12.6245   26.5771 N   0  0  0  0  0  0  0  0  0  0  0  0
    6.7658  -13.5316   25.8574 C   0  0  0  0  0  0  0  0  0  0  0  0
    7.1135  -14.7812   26.2111 N   0  0  0  0  0  0  0  0  0  0  0  0
   10.5294  -17.3968   27.9538 C   0  0  0  0  0  0  0  0  0  0  0  0
   10.7173  -17.2505   29.1776 O   0  0  0  0  0  0  0  0  0  0  0  0
   10.8812  -18.6008   27.3757 O   0  0  0  0  0  0  0  0  0  0  0  0
  2  5  1  0
  2  1  1  1
  3  2  1  0
  4  3  1  0
  5  7  1  0
  6  5  2  0
  7  8  1  0
  8  9  1  6
  9 10  1  0
 10 11  1  0
 11 12  2  0
 11 15  1  0
 13 14  2  0
 13  8  1  0
 16 13  1  0
 17 16  1  0
 17 24  1  0
 17 18  1  1
 19 18  1  0
 19 23  1  0
 20 21  1  0
 20 19  2  0
 21 22  1  0
 22 23  2  0
 24 25  2  0
 24 26  1  0
M  END
$$$$
