CEH.pdb
     RDKit          3D

 26 26  0  0  1  0  0  0  0  0999 V2000
    6.8618  -14.6574   19.2201 N   0  0  0  0  0  0  0  0  0  0  0  0
    8.2275  -14.5140   19.6183 C   0  0  1  0  0  0  0  0  0  0  0  0
    8.4798  -13.1338   20.2022 C   0  0  0  0  0  0  0  0  0  0  0  0
    8.3743  -11.9548   18.8151 S   0  0  0  0  0  0  0  0  0  0  0  0
    8.5954  -15.5030   20.6933 C   0  0  0  0  0  0  0  0  0  0  0  0
    7.8064  -15.7566   21.6381 O   0  0  0  0  0  0  0  0  0  0  0  0
    9.8399  -16.1872   20.6870 N   0  0  0  0  0  0  0  0  0  0  0  0
   10.1939  -17.1288   21.7332 C   0  0  1  0  0  0  0  0  0  0  0  0
   11.2408  -18.1128   21.2657 C   0  0  0  0  0  0  0  0  0  0  0  0
   10.7507  -19.0303   20.1908 C   0  0  0  0  0  0  0  0  0  0  0  0
   11.8658  -19.9016   19.7629 C   0  0  0  0  0  0  0  0  0  0  0  0
   12.6271  -19.5440   18.8372 O   0  0  0  0  0  0  0  0  0  0  0  0
   10.6879  -16.4487   22.9468 C   0  0  0  0  0  0  0  0  0  0  0  0
   11.5098  -15.4953   22.9222 O   0  0  0  0  0  0  0  0  0  0  0  0
   12.0595  -21.1077   20.3905 O   0  0  0  0  0  0  0  0  0  0  0  0
   10.2424  -16.8556   24.2127 N   0  0  0  0  0  0  0  0  0  0  0  0
   10.5468  -16.2430   25.4551 C   0  0  1  0  0  0  0  0  0  0  0  0
    9.4253  -15.5410   26.1401 C   0  0  0  0  0  0  0  0  0  0  0  0
    9.8063  -14.9306   27.4293 C   0  0  0  0  0  0  0  0  0  0  0  0
   11.0130  -15.0014   28.0806 C   0  0  0  0  0  0  0  0  0  0  0  0
   10.9580  -14.3026   29.2411 N   0  0  0  0  0  0  0  0  0  0  0  0
    9.7041  -13.8070   29.2865 C   0  0  0  0  0  0  0  0  0  0  0  0
    9.0077  -14.1817   28.1994 N   0  0  0  0  0  0  0  0  0  0  0  0
   11.1009  -17.2531   26.3724 C   0  0  0  0  0  0  0  0  0  0  0  0
   11.5086  -16.9073   27.4987 O   0  0  0  0  0  0  0  0  0  0  0  0
   11.1862  -18.5873   26.0252 O   0  0  0  0  0  0  0  0  0  0  0  0
  2  5  1  0
  2  1  1  1
  3  2  1  0
  4  3  1  0
  5  7  1  0
  6  5  2  0
  7  8  1  0
  8  9  1  6
  9 10  1  0
 10 11  1  0
 11 12  2  0
 11 15  1  0
 13 14  2  0
 13  8  1  0
 16 13  1  0
 17 16  1  0
 17 24  1  0
 17 18  1  1
 19 18  1  0
 19 23  1  0
 20 21  1  0
 20 19  2  0
 21 22  1  0
 22 23  2  0
 24 25  2  0
 24 26  1  0
M  END
$$$$
