CEH.pdb
     RDKit          3D

 26 26  0  0  1  0  0  0  0  0999 V2000
    9.6973  -14.7709   18.0591 N   0  0  0  0  0  0  0  0  0  0  0  0
    9.0262  -14.1483   19.1574 C   0  0  1  0  0  0  0  0  0  0  0  0
    7.5985  -13.7848   18.7845 C   0  0  0  0  0  0  0  0  0  0  0  0
    7.7085  -12.5113   17.4840 S   0  0  0  0  0  0  0  0  0  0  0  0
    8.9325  -15.0732   20.3427 C   0  0  0  0  0  0  0  0  0  0  0  0
    8.0796  -14.8843   21.2463 O   0  0  0  0  0  0  0  0  0  0  0  0
    9.7966  -16.1905   20.4906 N   0  0  0  0  0  0  0  0  0  0  0  0
    9.6878  -17.0894   21.6248 C   0  0  1  0  0  0  0  0  0  0  0  0
   10.5638  -18.3088   21.4550 C   0  0  0  0  0  0  0  0  0  0  0  0
   10.7096  -18.7371   20.0292 C   0  0  0  0  0  0  0  0  0  0  0  0
   11.6104  -19.9080   19.9732 C   0  0  0  0  0  0  0  0  0  0  0  0
   12.7858  -19.8210   20.3919 O   0  0  0  0  0  0  0  0  0  0  0  0
   10.0393  -16.4238   22.8949 C   0  0  0  0  0  0  0  0  0  0  0  0
   11.1033  -15.7728   23.0659 O   0  0  0  0  0  0  0  0  0  0  0  0
   11.1460  -21.0931   19.4575 O   0  0  0  0  0  0  0  0  0  0  0  0
    9.1692  -16.4965   23.9923 N   0  0  0  0  0  0  0  0  0  0  0  0
    8.9210  -15.4761   24.9454 C   0  0  1  0  0  0  0  0  0  0  0  0
    7.5769  -14.8352   24.8952 C   0  0  0  0  0  0  0  0  0  0  0  0
    7.4174  -13.7156   25.8444 C   0  0  0  0  0  0  0  0  0  0  0  0
    8.3377  -13.2148   26.7317 C   0  0  0  0  0  0  0  0  0  0  0  0
    7.8013  -12.1810   27.4259 N   0  0  0  0  0  0  0  0  0  0  0  0
    6.5449  -12.0604   26.9495 C   0  0  0  0  0  0  0  0  0  0  0  0
    6.3092  -12.9809   25.9984 N   0  0  0  0  0  0  0  0  0  0  0  0
    9.1369  -16.0130   26.2997 C   0  0  0  0  0  0  0  0  0  0  0  0
    9.0183  -17.2370   26.5051 O   0  0  0  0  0  0  0  0  0  0  0  0
    9.4704  -15.1986   27.3643 O   0  0  0  0  0  0  0  0  0  0  0  0
  2  5  1  0
  2  1  1  6
  3  2  1  0
  4  3  1  0
  5  7  1  0
  6  5  2  0
  7  8  1  0
  8  9  1  6
  9 10  1  0
 10 11  1  0
 11 12  2  0
 11 15  1  0
 13 14  2  0
 13  8  1  0
 16 13  1  0
 17 16  1  0
 17 24  1  0
 17 18  1  1
 19 18  1  0
 19 23  1  0
 20 21  1  0
 20 19  2  0
 21 22  1  0
 22 23  2  0
 24 25  2  0
 24 26  1  0
M  END
$$$$
