CEH.pdb
     RDKit          3D

 26 26  0  0  1  0  0  0  0  0999 V2000
    7.0201  -15.0310   18.6972 N   0  0  0  0  0  0  0  0  0  0  0  0
    8.2138  -14.5544   19.3235 C   0  0  1  0  0  0  0  0  0  0  0  0
    7.9847  -13.1949   19.9628 C   0  0  0  0  0  0  0  0  0  0  0  0
    7.9192  -11.9839   18.6010 S   0  0  0  0  0  0  0  0  0  0  0  0
    8.6610  -15.4735   20.4300 C   0  0  0  0  0  0  0  0  0  0  0  0
    7.8543  -15.8713   21.3078 O   0  0  0  0  0  0  0  0  0  0  0  0
   10.0029  -15.9275   20.5298 N   0  0  0  0  0  0  0  0  0  0  0  0
   10.4079  -16.8822   21.5451 C   0  0  1  0  0  0  0  0  0  0  0  0
   11.5578  -17.7418   21.0741 C   0  0  0  0  0  0  0  0  0  0  0  0
   11.9503  -18.7953   22.0608 C   0  0  0  0  0  0  0  0  0  0  0  0
   13.0423  -19.6068   21.4823 C   0  0  0  0  0  0  0  0  0  0  0  0
   12.8054  -20.4189   20.5610 O   0  0  0  0  0  0  0  0  0  0  0  0
   10.7944  -16.2193   22.8064 C   0  0  0  0  0  0  0  0  0  0  0  0
   11.5200  -15.1916   22.8561 O   0  0  0  0  0  0  0  0  0  0  0  0
   14.3199  -19.4618   21.9648 O   0  0  0  0  0  0  0  0  0  0  0  0
   10.3505  -16.7296   24.0348 N   0  0  0  0  0  0  0  0  0  0  0  0
   10.6141  -16.1917   25.3203 C   0  0  1  0  0  0  0  0  0  0  0  0
    9.4260  -15.8377   26.1469 C   0  0  0  0  0  0  0  0  0  0  0  0
    9.7685  -15.2866   27.4731 C   0  0  0  0  0  0  0  0  0  0  0  0
    9.9124  -15.9580   28.6621 C   0  0  0  0  0  0  0  0  0  0  0  0
   10.2326  -15.0890   29.6523 N   0  0  0  0  0  0  0  0  0  0  0  0
   10.2814  -13.8827   29.0505 C   0  0  0  0  0  0  0  0  0  0  0  0
   10.0031  -13.9961   27.7401 N   0  0  0  0  0  0  0  0  0  0  0  0
   11.4522  -17.1351   26.0795 C   0  0  0  0  0  0  0  0  0  0  0  0
   11.4279  -18.3490   25.7962 O   0  0  0  0  0  0  0  0  0  0  0  0
   12.2749  -16.7180   27.1076 O   0  0  0  0  0  0  0  0  0  0  0  0
  2  5  1  0
  2  1  1  1
  3  2  1  0
  4  3  1  0
  5  7  1  0
  6  5  2  0
  7  8  1  0
  8  9  1  6
  9 10  1  0
 10 11  1  0
 11 12  2  0
 11 15  1  0
 13 14  2  0
 13  8  1  0
 16 13  1  0
 17 16  1  0
 17 24  1  0
 17 18  1  1
 19 18  1  0
 19 23  1  0
 20 21  1  0
 20 19  2  0
 21 22  1  0
 22 23  2  0
 24 25  2  0
 24 26  1  0
M  END
$$$$
