CEH.pdb
     RDKit          3D

 26 26  0  0  1  0  0  0  0  0999 V2000
    7.4264  -15.0113   17.4314 N   0  0  0  0  0  0  0  0  0  0  0  0
    8.3256  -14.3650   18.3359 C   0  0  1  0  0  0  0  0  0  0  0  0
    7.7122  -13.0907   18.8920 C   0  0  0  0  0  0  0  0  0  0  0  0
    8.9405  -12.3781   20.0359 S   0  0  0  0  0  0  0  0  0  0  0  0
    8.6369  -15.2388   19.5229 C   0  0  0  0  0  0  0  0  0  0  0  0
    7.7180  -15.7809   20.1873 O   0  0  0  0  0  0  0  0  0  0  0  0
    9.9714  -15.4868   19.9405 N   0  0  0  0  0  0  0  0  0  0  0  0
   10.2690  -16.3984   21.0299 C   0  0  1  0  0  0  0  0  0  0  0  0
   11.6990  -16.8831   20.9754 C   0  0  0  0  0  0  0  0  0  0  0  0
   11.9868  -17.9838   21.9466 C   0  0  0  0  0  0  0  0  0  0  0  0
   13.3970  -18.3997   21.7912 C   0  0  0  0  0  0  0  0  0  0  0  0
   14.3024  -17.8092   22.4204 O   0  0  0  0  0  0  0  0  0  0  0  0
   10.0247  -15.7832   22.3495 C   0  0  0  0  0  0  0  0  0  0  0  0
   10.1257  -14.5475   22.5685 O   0  0  0  0  0  0  0  0  0  0  0  0
   13.7052  -19.4404   20.9498 O   0  0  0  0  0  0  0  0  0  0  0  0
    9.6587  -16.5824   23.4421 N   0  0  0  0  0  0  0  0  0  0  0  0
    9.1447  -16.1335   24.6854 C   0  0  1  0  0  0  0  0  0  0  0  0
    7.6690  -15.9428   24.7623 C   0  0  0  0  0  0  0  0  0  0  0  0
    7.2672  -14.5905   25.1977 C   0  0  0  0  0  0  0  0  0  0  0  0
    8.0720  -13.5203   25.5015 C   0  0  0  0  0  0  0  0  0  0  0  0
    7.3145  -12.4545   25.8603 N   0  0  0  0  0  0  0  0  0  0  0  0
    6.0410  -12.8904   25.7706 C   0  0  0  0  0  0  0  0  0  0  0  0
    6.0072  -14.1741   25.3727 N   0  0  0  0  0  0  0  0  0  0  0  0
    9.5550  -17.0681   25.7470 C   0  0  0  0  0  0  0  0  0  0  0  0
   10.0410  -18.1750   25.4417 O   0  0  0  0  0  0  0  0  0  0  0  0
    9.4191  -16.7584   27.0861 O   0  0  0  0  0  0  0  0  0  0  0  0
  2  5  1  0
  2  1  1  6
  3  2  1  0
  4  3  1  0
  5  7  1  0
  6  5  2  0
  7  8  1  0
  8  9  1  1
  9 10  1  0
 10 11  1  0
 11 12  2  0
 11 15  1  0
 13 14  2  0
 13  8  1  0
 16 13  1  0
 17 16  1  0
 17 24  1  0
 17 18  1  6
 19 18  1  0
 19 23  1  0
 20 21  1  0
 20 19  2  0
 21 22  1  0
 22 23  2  0
 24 25  2  0
 24 26  1  0
M  END
$$$$
