CEH.pdb
     RDKit          3D

 26 26  0  0  1  0  0  0  0  0999 V2000
    9.3771  -17.4270   21.2183 N   0  0  0  0  0  0  0  0  0  0  0  0
   10.3016  -17.0087   22.2256 C   0  0  1  0  0  0  0  0  0  0  0  0
   10.1947  -15.5129   22.4719 C   0  0  0  0  0  0  0  0  0  0  0  0
   11.0285  -14.6941   21.0720 S   0  0  0  0  0  0  0  0  0  0  0  0
   10.0191  -17.6772   23.5456 C   0  0  0  0  0  0  0  0  0  0  0  0
    8.9805  -17.4068   24.1997 O   0  0  0  0  0  0  0  0  0  0  0  0
   10.9063  -18.6346   24.1050 N   0  0  0  0  0  0  0  0  0  0  0  0
   10.6471  -19.2472   25.3949 C   0  0  1  0  0  0  0  0  0  0  0  0
   11.0482  -20.7039   25.4102 C   0  0  0  0  0  0  0  0  0  0  0  0
   10.1796  -21.5647   24.5488 C   0  0  0  0  0  0  0  0  0  0  0  0
   10.6770  -22.9555   24.6096 C   0  0  0  0  0  0  0  0  0  0  0  0
   11.6594  -23.3054   23.9191 O   0  0  0  0  0  0  0  0  0  0  0  0
   11.3477  -18.5489   26.4909 C   0  0  0  0  0  0  0  0  0  0  0  0
   12.4913  -18.0367   26.3682 O   0  0  0  0  0  0  0  0  0  0  0  0
   10.0514  -23.8611   25.4309 O   0  0  0  0  0  0  0  0  0  0  0  0
   10.7417  -18.4280   27.7497 N   0  0  0  0  0  0  0  0  0  0  0  0
   11.3046  -17.8315   28.9068 C   0  0  1  0  0  0  0  0  0  0  0  0
   10.5631  -16.6749   29.4834 C   0  0  0  0  0  0  0  0  0  0  0  0
   10.3644  -15.5635   28.5321 C   0  0  0  0  0  0  0  0  0  0  0  0
   10.7941  -15.4698   27.2314 C   0  0  0  0  0  0  0  0  0  0  0  0
   10.4067  -14.2856   26.6967 N   0  0  0  0  0  0  0  0  0  0  0  0
    9.7371  -13.6619   27.6879 C   0  0  0  0  0  0  0  0  0  0  0  0
    9.7089  -14.4262   28.7936 N   0  0  0  0  0  0  0  0  0  0  0  0
   11.4661  -18.8562   29.9522 C   0  0  0  0  0  0  0  0  0  0  0  0
   11.0370  -20.0105   29.7573 O   0  0  0  0  0  0  0  0  0  0  0  0
   12.0840  -18.5809   31.1564 O   0  0  0  0  0  0  0  0  0  0  0  0
  2  5  1  0
  2  1  1  6
  3  2  1  0
  4  3  1  0
  5  7  1  0
  6  5  2  0
  7  8  1  0
  8  9  1  6
  9 10  1  0
 10 11  1  0
 11 12  2  0
 11 15  1  0
 13 14  2  0
 13  8  1  0
 16 13  1  0
 17 16  1  0
 17 24  1  0
 17 18  1  1
 19 18  1  0
 19 23  1  0
 20 21  1  0
 20 19  2  0
 21 22  1  0
 22 23  2  0
 24 25  2  0
 24 26  1  0
M  END
$$$$
