CEH.pdb
     RDKit          3D

 26 26  0  0  1  0  0  0  0  0999 V2000
    6.3691  -15.3060   20.1496 N   0  0  0  0  0  0  0  0  0  0  0  0
    7.6529  -14.8034   20.5281 C   0  0  1  0  0  0  0  0  0  0  0  0
    7.5425  -13.3884   21.0713 C   0  0  0  0  0  0  0  0  0  0  0  0
    7.7423  -12.2673   19.6470 S   0  0  0  0  0  0  0  0  0  0  0  0
    8.2682  -15.6321   21.6254 C   0  0  0  0  0  0  0  0  0  0  0  0
    7.5517  -16.2020   22.4864 O   0  0  0  0  0  0  0  0  0  0  0  0
    9.6736  -15.8046   21.7349 N   0  0  0  0  0  0  0  0  0  0  0  0
   10.2548  -16.6879   22.7290 C   0  0  1  0  0  0  0  0  0  0  0  0
   11.7297  -16.9072   22.4848 C   0  0  0  0  0  0  0  0  0  0  0  0
   12.3302  -17.9401   23.3848 C   0  0  0  0  0  0  0  0  0  0  0  0
   13.7578  -18.1032   23.0371 C   0  0  0  0  0  0  0  0  0  0  0  0
   14.0939  -18.3881   21.8665 O   0  0  0  0  0  0  0  0  0  0  0  0
   10.0705  -16.1752   24.1012 C   0  0  0  0  0  0  0  0  0  0  0  0
   10.1821  -14.9594   24.4086 O   0  0  0  0  0  0  0  0  0  0  0  0
   14.7128  -17.9392   24.0102 O   0  0  0  0  0  0  0  0  0  0  0  0
    9.7535  -17.0561   25.1453 N   0  0  0  0  0  0  0  0  0  0  0  0
    9.3317  -16.7031   26.4526 C   0  0  1  0  0  0  0  0  0  0  0  0
    7.8943  -16.3444   26.6108 C   0  0  0  0  0  0  0  0  0  0  0  0
    7.6124  -14.9119   26.3914 C   0  0  0  0  0  0  0  0  0  0  0  0
    8.5057  -13.8937   26.1664 C   0  0  0  0  0  0  0  0  0  0  0  0
    7.8452  -12.7195   26.0132 N   0  0  0  0  0  0  0  0  0  0  0  0
    6.5410  -13.0370   26.1478 C   0  0  0  0  0  0  0  0  0  0  0  0
    6.3958  -14.3540   26.3753 N   0  0  0  0  0  0  0  0  0  0  0  0
    9.6476  -17.8035   27.3789 C   0  0  0  0  0  0  0  0  0  0  0  0
    9.4220  -17.6691   28.5977 O   0  0  0  0  0  0  0  0  0  0  0  0
   10.1919  -18.9948   26.9403 O   0  0  0  0  0  0  0  0  0  0  0  0
  2  5  1  0
  2  1  1  1
  3  2  1  0
  4  3  1  0
  5  7  1  0
  6  5  2  0
  7  8  1  0
  8  9  1  6
  9 10  1  0
 10 11  1  0
 11 12  2  0
 11 15  1  0
 13 14  2  0
 13  8  1  0
 16 13  1  0
 17 16  1  0
 17 24  1  0
 17 18  1  6
 19 18  1  0
 19 23  1  0
 20 21  1  0
 20 19  2  0
 21 22  1  0
 22 23  2  0
 24 25  2  0
 24 26  1  0
M  END
$$$$
