CEH.pdb
     RDKit          3D

 26 26  0  0  1  0  0  0  0  0999 V2000
    7.5982  -14.5645   17.8370 N   0  0  0  0  0  0  0  0  0  0  0  0
    8.3132  -14.1552   19.0055 C   0  0  1  0  0  0  0  0  0  0  0  0
    7.8597  -12.7792   19.4642 C   0  0  0  0  0  0  0  0  0  0  0  0
    8.8517  -12.3691   20.9384 S   0  0  0  0  0  0  0  0  0  0  0  0
    8.0649  -15.0904   20.1601 C   0  0  0  0  0  0  0  0  0  0  0  0
    6.9030  -15.4786   20.4412 O   0  0  0  0  0  0  0  0  0  0  0  0
    9.1237  -15.5710   20.9754 N   0  0  0  0  0  0  0  0  0  0  0  0
    8.9142  -16.6297   21.9457 C   0  0  1  0  0  0  0  0  0  0  0  0
    9.5618  -17.9226   21.5076 C   0  0  0  0  0  0  0  0  0  0  0  0
    9.2798  -19.0664   22.4295 C   0  0  0  0  0  0  0  0  0  0  0  0
    9.8891  -20.2913   21.8692 C   0  0  0  0  0  0  0  0  0  0  0  0
    9.5067  -20.7387   20.7655 O   0  0  0  0  0  0  0  0  0  0  0  0
    9.4297  -16.2676   23.2809 C   0  0  0  0  0  0  0  0  0  0  0  0
   10.6434  -16.0278   23.5146 O   0  0  0  0  0  0  0  0  0  0  0  0
   10.8790  -20.9348   22.5707 O   0  0  0  0  0  0  0  0  0  0  0  0
    8.5541  -16.1748   24.3724 N   0  0  0  0  0  0  0  0  0  0  0  0
    8.8975  -15.8433   25.7079 C   0  0  1  0  0  0  0  0  0  0  0  0
    7.7864  -15.3680   26.5793 C   0  0  0  0  0  0  0  0  0  0  0  0
    7.2743  -14.0326   26.2127 C   0  0  0  0  0  0  0  0  0  0  0  0
    7.9065  -13.0460   25.4969 C   0  0  0  0  0  0  0  0  0  0  0  0
    7.0956  -11.9663   25.3748 N   0  0  0  0  0  0  0  0  0  0  0  0
    5.9642  -12.3091   26.0247 C   0  0  0  0  0  0  0  0  0  0  0  0
    6.0667  -13.5506   26.5303 N   0  0  0  0  0  0  0  0  0  0  0  0
    9.5347  -17.0061   26.3488 C   0  0  0  0  0  0  0  0  0  0  0  0
    9.5877  -18.0939   25.7420 O   0  0  0  0  0  0  0  0  0  0  0  0
   10.0828  -16.9338   27.6145 O   0  0  0  0  0  0  0  0  0  0  0  0
  2  5  1  0
  2  1  1  6
  3  2  1  0
  4  3  1  0
  5  7  1  0
  6  5  2  0
  7  8  1  0
  8  9  1  6
  9 10  1  0
 10 11  1  0
 11 12  2  0
 11 15  1  0
 13 14  2  0
 13  8  1  0
 16 13  1  0
 17 16  1  0
 17 24  1  0
 17 18  1  1
 19 18  1  0
 19 23  1  0
 20 21  1  0
 20 19  2  0
 21 22  1  0
 22 23  2  0
 24 25  2  0
 24 26  1  0
M  END
$$$$
