CEH.pdb
     RDKit          3D

 26 26  0  0  1  0  0  0  0  0999 V2000
    5.2106  -20.2361   21.7542 N   0  0  0  0  0  0  0  0  0  0  0  0
    5.3429  -21.5309   22.3459 C   0  0  1  0  0  0  0  0  0  0  0  0
    5.4047  -22.6109   21.2786 C   0  0  0  0  0  0  0  0  0  0  0  0
    3.6806  -23.0733   20.9058 S   0  0  0  0  0  0  0  0  0  0  0  0
    6.6173  -21.6467   23.1407 C   0  0  0  0  0  0  0  0  0  0  0  0
    6.9273  -22.7205   23.7154 O   0  0  0  0  0  0  0  0  0  0  0  0
    7.5177  -20.5566   23.2748 N   0  0  0  0  0  0  0  0  0  0  0  0
    8.7430  -20.6742   24.0437 C   0  0  1  0  0  0  0  0  0  0  0  0
    9.8139  -19.7399   23.5309 C   0  0  0  0  0  0  0  0  0  0  0  0
   11.1318  -19.9200   24.2152 C   0  0  0  0  0  0  0  0  0  0  0  0
   12.1309  -19.0475   23.5624 C   0  0  0  0  0  0  0  0  0  0  0  0
   13.2725  -18.9156   24.0560 O   0  0  0  0  0  0  0  0  0  0  0  0
    8.5243  -20.4060   25.4789 C   0  0  0  0  0  0  0  0  0  0  0  0
    7.8424  -19.4386   25.9080 O   0  0  0  0  0  0  0  0  0  0  0  0
   11.7953  -18.3823   22.4087 O   0  0  0  0  0  0  0  0  0  0  0  0
    9.0884  -21.2496   26.4468 N   0  0  0  0  0  0  0  0  0  0  0  0
    8.9296  -21.1506   27.8527 C   0  0  1  0  0  0  0  0  0  0  0  0
    8.3906  -22.3548   28.5450 C   0  0  0  0  0  0  0  0  0  0  0  0
    6.9874  -22.6590   28.2007 C   0  0  0  0  0  0  0  0  0  0  0  0
    6.0851  -21.8693   27.5318 C   0  0  0  0  0  0  0  0  0  0  0  0
    4.8979  -22.5137   27.4157 N   0  0  0  0  0  0  0  0  0  0  0  0
    5.0902  -23.7034   28.0219 C   0  0  0  0  0  0  0  0  0  0  0  0
    6.3451  -23.7957   28.4956 N   0  0  0  0  0  0  0  0  0  0  0  0
   10.2213  -20.7944   28.4638 C   0  0  0  0  0  0  0  0  0  0  0  0
   10.2967  -20.6299   29.6973 O   0  0  0  0  0  0  0  0  0  0  0  0
   11.3673  -20.6340   27.7096 O   0  0  0  0  0  0  0  0  0  0  0  0
  2  5  1  0
  2  1  1  6
  3  2  1  0
  4  3  1  0
  5  7  1  0
  6  5  2  0
  7  8  1  0
  8  9  1  6
  9 10  1  0
 10 11  1  0
 11 12  2  0
 11 15  1  0
 13 14  2  0
 13  8  1  0
 16 13  1  0
 17 16  1  0
 17 24  1  0
 17 18  1  1
 19 18  1  0
 19 23  1  0
 20 21  1  0
 20 19  2  0
 21 22  1  0
 22 23  2  0
 24 25  2  0
 24 26  1  0
M  END
$$$$
