CEH.pdb
     RDKit          3D

 26 26  0  0  1  0  0  0  0  0999 V2000
    8.1786  -15.0897   17.6718 N   0  0  0  0  0  0  0  0  0  0  0  0
    9.0162  -14.5205   18.6811 C   0  0  1  0  0  0  0  0  0  0  0  0
    8.4573  -13.1922   19.1637 C   0  0  0  0  0  0  0  0  0  0  0  0
    8.9023  -11.9518   17.9033 S   0  0  0  0  0  0  0  0  0  0  0  0
    9.1016  -15.4103   19.8936 C   0  0  0  0  0  0  0  0  0  0  0  0
    8.0687  -15.9166   20.3999 O   0  0  0  0  0  0  0  0  0  0  0  0
   10.3427  -15.7140   20.5134 N   0  0  0  0  0  0  0  0  0  0  0  0
   10.4065  -16.2713   21.8520 C   0  0  1  0  0  0  0  0  0  0  0  0
   11.7873  -16.7947   22.1720 C   0  0  0  0  0  0  0  0  0  0  0  0
   12.8420  -15.7342   22.1438 C   0  0  0  0  0  0  0  0  0  0  0  0
   14.1648  -16.3734   22.3086 C   0  0  0  0  0  0  0  0  0  0  0  0
   14.4965  -16.8631   23.4106 O   0  0  0  0  0  0  0  0  0  0  0  0
   10.0204  -15.2859   22.8813 C   0  0  0  0  0  0  0  0  0  0  0  0
    9.9176  -14.0515   22.6563 O   0  0  0  0  0  0  0  0  0  0  0  0
   15.0274  -16.4252   21.2412 O   0  0  0  0  0  0  0  0  0  0  0  0
    9.7451  -15.7065   24.1905 N   0  0  0  0  0  0  0  0  0  0  0  0
    9.1528  -14.9334   25.2215 C   0  0  1  0  0  0  0  0  0  0  0  0
    7.7331  -14.5311   25.0156 C   0  0  0  0  0  0  0  0  0  0  0  0
    7.2083  -13.6440   26.0728 C   0  0  0  0  0  0  0  0  0  0  0  0
    7.8656  -13.1492   27.1721 C   0  0  0  0  0  0  0  0  0  0  0  0
    7.0311  -12.3684   27.9017 N   0  0  0  0  0  0  0  0  0  0  0  0
    5.8601  -12.3953   27.2326 C   0  0  0  0  0  0  0  0  0  0  0  0
    5.9615  -13.1609   26.1321 N   0  0  0  0  0  0  0  0  0  0  0  0
    9.2557  -15.6633   26.4965 C   0  0  0  0  0  0  0  0  0  0  0  0
    8.8328  -15.1378   27.5450 O   0  0  0  0  0  0  0  0  0  0  0  0
    9.8110  -16.9256   26.5734 O   0  0  0  0  0  0  0  0  0  0  0  0
  2  5  1  0
  2  1  1  6
  3  2  1  0
  4  3  1  0
  5  7  1  0
  6  5  2  0
  7  8  1  0
  8  9  1  1
  9 10  1  0
 10 11  1  0
 11 12  2  0
 11 15  1  0
 13 14  2  0
 13  8  1  0
 16 13  1  0
 17 16  1  0
 17 24  1  0
 17 18  1  6
 19 18  1  0
 19 23  1  0
 20 21  1  0
 20 19  2  0
 21 22  1  0
 22 23  2  0
 24 25  2  0
 24 26  1  0
M  END
$$$$
