CEH.pdb
     RDKit          3D

 26 26  0  0  1  0  0  0  0  0999 V2000
    8.2290  -16.3446   15.3386 N   0  0  0  0  0  0  0  0  0  0  0  0
    9.0708  -15.5767   16.2022 C   0  0  1  0  0  0  0  0  0  0  0  0
    8.4146  -14.2544   16.5634 C   0  0  0  0  0  0  0  0  0  0  0  0
    9.6306  -13.3232   17.5530 S   0  0  0  0  0  0  0  0  0  0  0  0
    9.3265  -16.2924   17.5028 C   0  0  0  0  0  0  0  0  0  0  0  0
    8.3789  -16.7655   18.1794 O   0  0  0  0  0  0  0  0  0  0  0  0
   10.6389  -16.4631   18.0180 N   0  0  0  0  0  0  0  0  0  0  0  0
   10.8818  -17.1868   19.2524 C   0  0  1  0  0  0  0  0  0  0  0  0
   12.1947  -17.9335   19.2110 C   0  0  0  0  0  0  0  0  0  0  0  0
   12.3739  -18.8768   20.3579 C   0  0  0  0  0  0  0  0  0  0  0  0
   13.6709  -19.5700   20.2065 C   0  0  0  0  0  0  0  0  0  0  0  0
   13.7253  -20.8194   20.2268 O   0  0  0  0  0  0  0  0  0  0  0  0
   10.8788  -16.2937   20.4280 C   0  0  0  0  0  0  0  0  0  0  0  0
   11.5049  -15.2023   20.4719 O   0  0  0  0  0  0  0  0  0  0  0  0
   14.8167  -18.8306   20.0433 O   0  0  0  0  0  0  0  0  0  0  0  0
   10.1527  -16.6430   21.5758 N   0  0  0  0  0  0  0  0  0  0  0  0
    9.9510  -15.8401   22.7273 C   0  0  1  0  0  0  0  0  0  0  0  0
    8.5581  -15.3717   22.9727 C   0  0  0  0  0  0  0  0  0  0  0  0
    8.0371  -14.4801   21.9175 C   0  0  0  0  0  0  0  0  0  0  0  0
    8.5476  -13.2794   21.4896 C   0  0  0  0  0  0  0  0  0  0  0  0
    7.7751  -12.7713   20.4979 N   0  0  0  0  0  0  0  0  0  0  0  0
    6.7901  -13.6775   20.3291 C   0  0  0  0  0  0  0  0  0  0  0  0
    6.9432  -14.7068   21.1803 N   0  0  0  0  0  0  0  0  0  0  0  0
   10.4191  -16.5706   23.9173 C   0  0  0  0  0  0  0  0  0  0  0  0
   10.4060  -16.0103   25.0310 O   0  0  0  0  0  0  0  0  0  0  0  0
   10.8780  -17.8712   23.8429 O   0  0  0  0  0  0  0  0  0  0  0  0
  2  5  1  0
  2  1  1  6
  3  2  1  0
  4  3  1  0
  5  7  1  0
  6  5  2  0
  7  8  1  0
  8  9  1  6
  9 10  1  0
 10 11  1  0
 11 12  2  0
 11 15  1  0
 13 14  2  0
 13  8  1  0
 16 13  1  0
 17 16  1  0
 17 24  1  0
 17 18  1  1
 19 18  1  0
 19 23  1  0
 20 21  1  0
 20 19  2  0
 21 22  1  0
 22 23  2  0
 24 25  2  0
 24 26  1  0
M  END
$$$$
