CEH.pdb
     RDKit          3D

 26 26  0  0  1  0  0  0  0  0999 V2000
    7.7456  -14.0714   17.4087 N   0  0  0  0  0  0  0  0  0  0  0  0
    8.8855  -13.4163   17.9706 C   0  0  1  0  0  0  0  0  0  0  0  0
    8.5020  -12.6340   19.2158 C   0  0  0  0  0  0  0  0  0  0  0  0
    7.6943  -13.8163   20.3449 S   0  0  0  0  0  0  0  0  0  0  0  0
    9.9359  -14.4074   18.3992 C   0  0  0  0  0  0  0  0  0  0  0  0
    9.6348  -15.6002   18.6561 O   0  0  0  0  0  0  0  0  0  0  0  0
   11.3016  -14.0409   18.5308 N   0  0  0  0  0  0  0  0  0  0  0  0
   12.3048  -14.9945   18.9673 C   0  0  1  0  0  0  0  0  0  0  0  0
   13.6605  -14.6866   18.3755 C   0  0  0  0  0  0  0  0  0  0  0  0
   14.6829  -15.7402   18.6618 C   0  0  0  0  0  0  0  0  0  0  0  0
   15.9532  -15.3620   18.0069 C   0  0  0  0  0  0  0  0  0  0  0  0
   16.0332  -14.3008   17.3498 O   0  0  0  0  0  0  0  0  0  0  0  0
   12.4258  -15.0373   20.4380 C   0  0  0  0  0  0  0  0  0  0  0  0
   12.8186  -14.0621   21.1306 O   0  0  0  0  0  0  0  0  0  0  0  0
   17.0457  -16.1857   18.1257 O   0  0  0  0  0  0  0  0  0  0  0  0
   12.0953  -16.2066   21.1380 N   0  0  0  0  0  0  0  0  0  0  0  0
   12.0799  -16.3751   22.5461 C   0  0  1  0  0  0  0  0  0  0  0  0
   10.8856  -17.0574   23.1188 C   0  0  0  0  0  0  0  0  0  0  0  0
    9.6258  -16.3129   22.9229 C   0  0  0  0  0  0  0  0  0  0  0  0
    9.4613  -14.9845   22.6166 C   0  0  0  0  0  0  0  0  0  0  0  0
    8.1418  -14.6881   22.5211 N   0  0  0  0  0  0  0  0  0  0  0  0
    7.5075  -15.8518   22.7730 C   0  0  0  0  0  0  0  0  0  0  0  0
    8.3954  -16.8318   23.0151 N   0  0  0  0  0  0  0  0  0  0  0  0
   13.2867  -17.1101   22.9609 C   0  0  0  0  0  0  0  0  0  0  0  0
   13.5105  -17.2964   24.1732 O   0  0  0  0  0  0  0  0  0  0  0  0
   14.1914  -17.6072   22.0432 O   0  0  0  0  0  0  0  0  0  0  0  0
  2  5  1  0
  2  1  1  1
  3  2  1  0
  4  3  1  0
  5  7  1  0
  6  5  2  0
  7  8  1  0
  8  9  1  6
  9 10  1  0
 10 11  1  0
 11 12  2  0
 11 15  1  0
 13 14  2  0
 13  8  1  0
 16 13  1  0
 17 16  1  0
 17 24  1  0
 17 18  1  6
 19 18  1  0
 19 23  1  0
 20 21  1  0
 20 19  2  0
 21 22  1  0
 22 23  2  0
 24 25  2  0
 24 26  1  0
M  END
$$$$
