CEH.pdb
     RDKit          3D

 26 26  0  0  1  0  0  0  0  0999 V2000
    7.7099  -15.1475   17.0247 N   0  0  0  0  0  0  0  0  0  0  0  0
    8.5320  -14.5319   18.0194 C   0  0  1  0  0  0  0  0  0  0  0  0
    7.9613  -13.1869   18.4377 C   0  0  0  0  0  0  0  0  0  0  0  0
    9.0510  -12.5453   19.7516 S   0  0  0  0  0  0  0  0  0  0  0  0
    8.6054  -15.3688   19.2698 C   0  0  0  0  0  0  0  0  0  0  0  0
    7.5625  -15.7175   19.8783 O   0  0  0  0  0  0  0  0  0  0  0  0
    9.8460  -15.7974   19.8120 N   0  0  0  0  0  0  0  0  0  0  0  0
    9.9134  -16.5494   21.0515 C   0  0  1  0  0  0  0  0  0  0  0  0
   11.1068  -17.4758   21.0765 C   0  0  0  0  0  0  0  0  0  0  0  0
   11.0845  -18.4971   19.9838 C   0  0  0  0  0  0  0  0  0  0  0  0
   12.3319  -19.2883   20.0456 C   0  0  0  0  0  0  0  0  0  0  0  0
   13.2554  -19.0758   19.2293 O   0  0  0  0  0  0  0  0  0  0  0  0
    9.9715  -15.6661   22.2330 C   0  0  0  0  0  0  0  0  0  0  0  0
   10.6567  -14.6108   22.2775 O   0  0  0  0  0  0  0  0  0  0  0  0
   12.4688  -20.2591   21.0072 O   0  0  0  0  0  0  0  0  0  0  0  0
    9.2395  -15.9836   23.3862 N   0  0  0  0  0  0  0  0  0  0  0  0
    8.9025  -15.1021   24.4449 C   0  0  1  0  0  0  0  0  0  0  0  0
    7.5058  -14.5834   24.4560 C   0  0  0  0  0  0  0  0  0  0  0  0
    7.2509  -13.5877   25.5160 C   0  0  0  0  0  0  0  0  0  0  0  0
    8.1244  -13.1079   26.4605 C   0  0  0  0  0  0  0  0  0  0  0  0
    7.5015  -12.2020   27.2540 N   0  0  0  0  0  0  0  0  0  0  0  0
    6.2401  -12.1376   26.7800 C   0  0  0  0  0  0  0  0  0  0  0  0
    6.0844  -12.9689   25.7350 N   0  0  0  0  0  0  0  0  0  0  0  0
    9.1694  -15.7648   25.7327 C   0  0  0  0  0  0  0  0  0  0  0  0
    9.3594  -16.9965   25.7660 O   0  0  0  0  0  0  0  0  0  0  0  0
    9.2174  -15.0615   26.9205 O   0  0  0  0  0  0  0  0  0  0  0  0
  2  5  1  0
  2  1  1  6
  3  2  1  0
  4  3  1  0
  5  7  1  0
  6  5  2  0
  7  8  1  0
  8  9  1  6
  9 10  1  0
 10 11  1  0
 11 12  2  0
 11 15  1  0
 13 14  2  0
 13  8  1  0
 16 13  1  0
 17 16  1  0
 17 24  1  0
 17 18  1  1
 19 18  1  0
 19 23  1  0
 20 21  1  0
 20 19  2  0
 21 22  1  0
 22 23  2  0
 24 25  2  0
 24 26  1  0
M  END
$$$$
