CEH.pdb
     RDKit          3D

 26 26  0  0  1  0  0  0  0  0999 V2000
    7.2419  -14.5761   18.7619 N   0  0  0  0  0  0  0  0  0  0  0  0
    8.3458  -14.2664   19.6161 C   0  0  1  0  0  0  0  0  0  0  0  0
    8.0650  -13.0163   20.4332 C   0  0  0  0  0  0  0  0  0  0  0  0
    8.4160  -11.5946   19.3465 S   0  0  0  0  0  0  0  0  0  0  0  0
    8.6038  -15.3715   20.6068 C   0  0  0  0  0  0  0  0  0  0  0  0
    7.6598  -16.0592   21.0709 O   0  0  0  0  0  0  0  0  0  0  0  0
    9.9144  -15.6828   21.0567 N   0  0  0  0  0  0  0  0  0  0  0  0
   10.1616  -16.7806   21.9733 C   0  0  1  0  0  0  0  0  0  0  0  0
   11.3612  -17.5974   21.5529 C   0  0  0  0  0  0  0  0  0  0  0  0
   11.6149  -18.7741   22.4409 C   0  0  0  0  0  0  0  0  0  0  0  0
   12.7692  -19.5308   21.9111 C   0  0  0  0  0  0  0  0  0  0  0  0
   12.5904  -20.4840   21.1213 O   0  0  0  0  0  0  0  0  0  0  0  0
   10.3669  -16.3109   23.3578 C   0  0  0  0  0  0  0  0  0  0  0  0
   11.4145  -15.7301   23.7454 O   0  0  0  0  0  0  0  0  0  0  0  0
   14.0404  -19.1786   22.2932 O   0  0  0  0  0  0  0  0  0  0  0  0
    9.3665  -16.5022   24.3218 N   0  0  0  0  0  0  0  0  0  0  0  0
    9.3991  -16.0725   25.6729 C   0  0  1  0  0  0  0  0  0  0  0  0
    8.0815  -15.8058   26.3154 C   0  0  0  0  0  0  0  0  0  0  0  0
    7.3665  -14.6470   25.7445 C   0  0  0  0  0  0  0  0  0  0  0  0
    7.8866  -13.5885   25.0413 C   0  0  0  0  0  0  0  0  0  0  0  0
    6.8968  -12.7311   24.6898 N   0  0  0  0  0  0  0  0  0  0  0  0
    5.7704  -13.2815   25.1878 C   0  0  0  0  0  0  0  0  0  0  0  0
    6.0475  -14.4336   25.8228 N   0  0  0  0  0  0  0  0  0  0  0  0
   10.1252  -17.0662   26.4817 C   0  0  0  0  0  0  0  0  0  0  0  0
   10.4993  -18.1342   25.9585 O   0  0  0  0  0  0  0  0  0  0  0  0
   10.4104  -16.8546   27.8165 O   0  0  0  0  0  0  0  0  0  0  0  0
  2  5  1  0
  2  1  1  1
  3  2  1  0
  4  3  1  0
  5  7  1  0
  6  5  2  0
  7  8  1  0
  8  9  1  6
  9 10  1  0
 10 11  1  0
 11 12  2  0
 11 15  1  0
 13 14  2  0
 13  8  1  0
 16 13  1  0
 17 16  1  0
 17 24  1  0
 17 18  1  1
 19 18  1  0
 19 23  1  0
 20 21  1  0
 20 19  2  0
 21 22  1  0
 22 23  2  0
 24 25  2  0
 24 26  1  0
M  END
$$$$
