CEH.pdb
     RDKit          3D

 26 26  0  0  1  0  0  0  0  0999 V2000
    7.8723  -14.2882   17.1998 N   0  0  0  0  0  0  0  0  0  0  0  0
    9.2337  -14.2246   17.6318 C   0  0  1  0  0  0  0  0  0  0  0  0
    9.4908  -12.9562   18.4284 C   0  0  0  0  0  0  0  0  0  0  0  0
    8.2309  -12.9047   19.7457 S   0  0  0  0  0  0  0  0  0  0  0  0
    9.5780  -15.3743   18.5422 C   0  0  0  0  0  0  0  0  0  0  0  0
    8.6878  -15.9672   19.2023 O   0  0  0  0  0  0  0  0  0  0  0  0
   10.9126  -15.8355   18.6938 N   0  0  0  0  0  0  0  0  0  0  0  0
   11.2531  -16.8735   19.6492 C   0  0  1  0  0  0  0  0  0  0  0  0
   12.5659  -17.5379   19.3053 C   0  0  0  0  0  0  0  0  0  0  0  0
   12.8648  -18.7309   20.1567 C   0  0  0  0  0  0  0  0  0  0  0  0
   14.1780  -19.2823   19.7601 C   0  0  0  0  0  0  0  0  0  0  0  0
   14.2601  -20.1037   18.8205 O   0  0  0  0  0  0  0  0  0  0  0  0
   11.3297  -16.3533   21.0288 C   0  0  0  0  0  0  0  0  0  0  0  0
   11.9705  -15.3167   21.3449 O   0  0  0  0  0  0  0  0  0  0  0  0
   15.3079  -18.8851   20.4321 O   0  0  0  0  0  0  0  0  0  0  0  0
   10.6678  -17.0194   22.0702 N   0  0  0  0  0  0  0  0  0  0  0  0
   10.5750  -16.5980   23.4212 C   0  0  1  0  0  0  0  0  0  0  0  0
    9.2002  -16.4432   23.9741 C   0  0  0  0  0  0  0  0  0  0  0  0
    8.3762  -15.4563   23.2481 C   0  0  0  0  0  0  0  0  0  0  0  0
    8.7547  -14.2345   22.7491 C   0  0  0  0  0  0  0  0  0  0  0  0
    7.7009  -13.6301   22.1470 N   0  0  0  0  0  0  0  0  0  0  0  0
    6.6787  -14.4994   22.2864 C   0  0  0  0  0  0  0  0  0  0  0  0
    7.0796  -15.5990   22.9478 N   0  0  0  0  0  0  0  0  0  0  0  0
   11.3236  -17.5356   24.2753 C   0  0  0  0  0  0  0  0  0  0  0  0
   11.8300  -18.5585   23.7738 O   0  0  0  0  0  0  0  0  0  0  0  0
   11.4870  -17.3195   25.6297 O   0  0  0  0  0  0  0  0  0  0  0  0
  2  5  1  0
  2  1  1  1
  3  2  1  0
  4  3  1  0
  5  7  1  0
  6  5  2  0
  7  8  1  0
  8  9  1  6
  9 10  1  0
 10 11  1  0
 11 12  2  0
 11 15  1  0
 13 14  2  0
 13  8  1  0
 16 13  1  0
 17 16  1  0
 17 24  1  0
 17 18  1  1
 19 18  1  0
 19 23  1  0
 20 21  1  0
 20 19  2  0
 21 22  1  0
 22 23  2  0
 24 25  2  0
 24 26  1  0
M  END
$$$$
