CEH.pdb
     RDKit          3D

 26 26  0  0  1  0  0  0  0  0999 V2000
    7.9729  -14.9547   16.7661 N   0  0  0  0  0  0  0  0  0  0  0  0
    8.6912  -14.4385   17.8894 C   0  0  1  0  0  0  0  0  0  0  0  0
    8.1264  -13.0961   18.3237 C   0  0  0  0  0  0  0  0  0  0  0  0
    9.0632  -12.5919   19.8046 S   0  0  0  0  0  0  0  0  0  0  0  0
    8.5797  -15.3514   19.0825 C   0  0  0  0  0  0  0  0  0  0  0  0
    7.4618  -15.7699   19.4760 O   0  0  0  0  0  0  0  0  0  0  0  0
    9.7232  -15.7763   19.8095 N   0  0  0  0  0  0  0  0  0  0  0  0
    9.6037  -16.5944   21.0023 C   0  0  1  0  0  0  0  0  0  0  0  0
   10.6217  -17.7109   21.0161 C   0  0  0  0  0  0  0  0  0  0  0  0
   11.9711  -17.2738   21.4907 C   0  0  0  0  0  0  0  0  0  0  0  0
   12.8943  -18.4268   21.4295 C   0  0  0  0  0  0  0  0  0  0  0  0
   12.5177  -19.5115   20.9336 O   0  0  0  0  0  0  0  0  0  0  0  0
    9.7527  -15.7989   22.2371 C   0  0  0  0  0  0  0  0  0  0  0  0
   10.6588  -14.9410   22.4047 O   0  0  0  0  0  0  0  0  0  0  0  0
   14.1698  -18.2976   21.9218 O   0  0  0  0  0  0  0  0  0  0  0  0
    8.8585  -15.9780   23.3023 N   0  0  0  0  0  0  0  0  0  0  0  0
    8.6227  -15.0759   24.3710 C   0  0  1  0  0  0  0  0  0  0  0  0
    7.1999  -14.7240   24.6393 C   0  0  0  0  0  0  0  0  0  0  0  0
    7.0296  -13.7011   25.6902 C   0  0  0  0  0  0  0  0  0  0  0  0
    8.0018  -13.0393   26.3989 C   0  0  0  0  0  0  0  0  0  0  0  0
    7.4329  -12.1749   27.2751 N   0  0  0  0  0  0  0  0  0  0  0  0
    6.1046  -12.3199   27.0899 C   0  0  0  0  0  0  0  0  0  0  0  0
    5.8569  -13.2365   26.1380 N   0  0  0  0  0  0  0  0  0  0  0  0
    9.2146  -15.6191   25.6052 C   0  0  0  0  0  0  0  0  0  0  0  0
    9.5776  -16.8112   25.6436 O   0  0  0  0  0  0  0  0  0  0  0  0
    9.3844  -14.8451   26.7366 O   0  0  0  0  0  0  0  0  0  0  0  0
  2  5  1  0
  2  1  1  6
  3  2  1  0
  4  3  1  0
  5  7  1  0
  6  5  2  0
  7  8  1  0
  8  9  1  6
  9 10  1  0
 10 11  1  0
 11 12  2  0
 11 15  1  0
 13 14  2  0
 13  8  1  0
 16 13  1  0
 17 16  1  0
 17 24  1  0
 17 18  1  1
 19 18  1  0
 19 23  1  0
 20 21  1  0
 20 19  2  0
 21 22  1  0
 22 23  2  0
 24 25  2  0
 24 26  1  0
M  END
$$$$
