TNH.pdb
     RDKit          3D

 26 26  0  0  1  0  0  0  0  0999 V2000
    8.7652  -15.5214   17.7441 C   0  0  0  0  0  0  0  0  0  0  0  0
    8.9754  -14.0381   17.9529 C   0  0  1  0  0  0  0  0  0  0  0  0
    8.9531  -13.3094   16.7959 O   0  0  0  0  0  0  0  0  0  0  0  0
    8.0092  -13.4765   18.9730 C   0  0  2  0  0  0  0  0  0  0  0  0
    8.1655  -12.0231   19.0680 N   0  0  0  0  0  0  0  0  0  0  0  0
    8.1437  -14.0399   20.3147 C   0  0  0  0  0  0  0  0  0  0  0  0
    8.6829  -13.4405   21.2858 O   0  0  0  0  0  0  0  0  0  0  0  0
    7.2267  -17.1733   24.3462 N   0  0  0  0  0  0  0  0  0  0  0  0
    6.5316  -17.6946   23.2453 C   0  0  0  0  0  0  0  0  0  0  0  0
    5.7954  -18.6921   23.3878 O   0  0  0  0  0  0  0  0  0  0  0  0
    6.6668  -17.0694   21.9201 C   0  0  0  0  0  0  0  0  0  0  0  0
    7.6192  -15.8961   21.8995 C   0  0  2  0  0  0  0  0  0  0  0  0
    7.6463  -15.3443   20.5809 N   0  0  0  0  0  0  0  0  0  0  0  0
    8.9417  -16.3103   22.4144 C   0  0  0  0  0  0  0  0  0  0  0  0
    9.0460  -16.8954   23.5323 O   0  0  0  0  0  0  0  0  0  0  0  0
   10.1029  -16.0648   21.6788 N   0  0  0  0  0  0  0  0  0  0  0  0
   11.4547  -16.5016   22.1558 C   0  0  1  0  0  0  0  0  0  0  0  0
   12.3780  -15.4511   21.6322 C   0  0  0  0  0  0  0  0  0  0  0  0
   12.7111  -15.4949   20.2147 C   0  0  0  0  0  0  0  0  0  0  0  0
   12.3840  -16.3363   19.1855 C   0  0  0  0  0  0  0  0  0  0  0  0
   12.9420  -15.8539   18.0405 N   0  0  0  0  0  0  0  0  0  0  0  0
   13.6028  -14.7313   18.3551 C   0  0  0  0  0  0  0  0  0  0  0  0
   13.4659  -14.5150   19.6531 N   0  0  0  0  0  0  0  0  0  0  0  0
   11.4251  -16.3622   23.6572 C   0  0  0  0  0  0  0  0  0  0  0  0
   10.3239  -15.9397   24.3284 O   0  0  0  0  0  0  0  0  0  0  0  0
   12.4538  -16.6465   24.3148 O   0  0  0  0  0  0  0  0  0  0  0  0
  2  4  1  0
  2  1  1  6
  3  2  1  0
  4  6  1  0
  4  5  1  1
  6 13  1  0
  6  7  2  0
  8  9  1  0
  9 11  1  0
 10  9  2  0
 12 11  1  6
 12 14  1  0
 13 12  1  0
 14 15  2  0
 16 17  1  0
 16 14  1  0
 17 24  1  0
 18 19  1  0
 17 18  1  6
 19 23  1  0
 20 19  2  0
 20 21  1  0
 21 22  1  0
 23 22  2  0
 24 25  1  0
 26 24  2  0
M  END
$$$$
