TNH.pdb
     RDKit          3D

 26 26  0  0  1  0  0  0  0  0999 V2000
    8.1212  -12.4223   18.5947 C   0  0  0  0  0  0  0  0  0  0  0  0
    8.4782  -13.2320   19.8215 C   0  0  1  0  0  0  0  0  0  0  0  0
    7.9228  -12.7567   20.9772 O   0  0  0  0  0  0  0  0  0  0  0  0
    8.1697  -14.7008   19.6289 C   0  0  2  0  0  0  0  0  0  0  0  0
    6.7589  -14.8770   19.2761 N   0  0  0  0  0  0  0  0  0  0  0  0
    8.4600  -15.5417   20.7883 C   0  0  0  0  0  0  0  0  0  0  0  0
    7.5831  -15.9910   21.5771 O   0  0  0  0  0  0  0  0  0  0  0  0
   11.5884  -19.7138   22.8183 N   0  0  0  0  0  0  0  0  0  0  0  0
   11.9461  -18.3588   22.8735 C   0  0  0  0  0  0  0  0  0  0  0  0
   12.6584  -17.9394   23.8083 O   0  0  0  0  0  0  0  0  0  0  0  0
   11.4842  -17.4276   21.8320 C   0  0  0  0  0  0  0  0  0  0  0  0
   10.1460  -16.7950   22.1371 C   0  0  2  0  0  0  0  0  0  0  0  0
    9.8051  -15.8979   21.0773 N   0  0  0  0  0  0  0  0  0  0  0  0
   10.1757  -16.1720   23.4774 C   0  0  0  0  0  0  0  0  0  0  0  0
   10.5590  -14.9746   23.6255 O   0  0  0  0  0  0  0  0  0  0  0  0
    9.7819  -16.8913   24.6077 N   0  0  0  0  0  0  0  0  0  0  0  0
    9.4433  -16.2168   25.9023 C   0  0  1  0  0  0  0  0  0  0  0  0
    8.0086  -15.8335   25.7443 C   0  0  0  0  0  0  0  0  0  0  0  0
    7.6436  -14.4562   26.0475 C   0  0  0  0  0  0  0  0  0  0  0  0
    8.3473  -13.3488   26.4382 C   0  0  0  0  0  0  0  0  0  0  0  0
    7.4854  -12.2975   26.5212 N   0  0  0  0  0  0  0  0  0  0  0  0
    6.2679  -12.7461   26.1861 C   0  0  0  0  0  0  0  0  0  0  0  0
    6.3603  -14.0351   25.9026 N   0  0  0  0  0  0  0  0  0  0  0  0
    9.5042  -17.2949   26.9553 C   0  0  0  0  0  0  0  0  0  0  0  0
    9.5728  -17.0153   28.2815 O   0  0  0  0  0  0  0  0  0  0  0  0
    9.4908  -18.4962   26.5973 O   0  0  0  0  0  0  0  0  0  0  0  0
  2  4  1  0
  2  1  1  6
  3  2  1  0
  4  6  1  0
  4  5  1  1
  6 13  1  0
  6  7  2  0
  8  9  1  0
  9 11  1  0
 10  9  2  0
 12 11  1  6
 12 14  1  0
 13 12  1  0
 14 15  2  0
 16 17  1  0
 16 14  1  0
 17 24  1  0
 18 19  1  0
 17 18  1  6
 19 23  1  0
 20 19  2  0
 20 21  1  0
 21 22  1  0
 23 22  2  0
 24 25  1  0
 26 24  2  0
M  END
$$$$
