TNH.pdb
     RDKit          3D

 26 26  0  0  1  0  0  0  0  0999 V2000
    8.9963  -12.1610   19.1288 C   0  0  0  0  0  0  0  0  0  0  0  0
    8.3203  -13.1199   18.1740 C   0  0  1  0  0  0  0  0  0  0  0  0
    7.4608  -12.5139   17.2999 O   0  0  0  0  0  0  0  0  0  0  0  0
    9.3270  -13.9819   17.4439 C   0  0  2  0  0  0  0  0  0  0  0  0
    8.6437  -14.8471   16.4794 N   0  0  0  0  0  0  0  0  0  0  0  0
   10.1508  -14.8229   18.3098 C   0  0  0  0  0  0  0  0  0  0  0  0
    9.8484  -15.9991   18.6536 O   0  0  0  0  0  0  0  0  0  0  0  0
   14.7715  -16.1972   18.2996 N   0  0  0  0  0  0  0  0  0  0  0  0
   14.3292  -14.8796   18.4874 C   0  0  0  0  0  0  0  0  0  0  0  0
   14.5606  -14.0141   17.6187 O   0  0  0  0  0  0  0  0  0  0  0  0
   13.5920  -14.5123   19.7068 C   0  0  0  0  0  0  0  0  0  0  0  0
   12.1805  -15.0512   19.7452 C   0  0  2  0  0  0  0  0  0  0  0  0
   11.3791  -14.3179   18.8158 N   0  0  0  0  0  0  0  0  0  0  0  0
   11.6720  -15.0363   21.1333 C   0  0  0  0  0  0  0  0  0  0  0  0
   10.8708  -14.1351   21.5188 O   0  0  0  0  0  0  0  0  0  0  0  0
   12.0649  -16.0158   22.0479 N   0  0  0  0  0  0  0  0  0  0  0  0
   11.3160  -16.2608   23.3225 C   0  0  1  0  0  0  0  0  0  0  0  0
   10.0325  -16.8780   22.8731 C   0  0  0  0  0  0  0  0  0  0  0  0
    8.9501  -15.9787   22.4962 C   0  0  0  0  0  0  0  0  0  0  0  0
    8.4762  -14.7964   22.9979 C   0  0  0  0  0  0  0  0  0  0  0  0
    7.4625  -14.3640   22.1978 N   0  0  0  0  0  0  0  0  0  0  0  0
    7.3117  -15.2632   21.2156 C   0  0  0  0  0  0  0  0  0  0  0  0
    8.1994  -16.2282   21.3919 N   0  0  0  0  0  0  0  0  0  0  0  0
   12.0912  -17.3265   24.0560 C   0  0  0  0  0  0  0  0  0  0  0  0
   11.9878  -17.5105   25.3966 O   0  0  0  0  0  0  0  0  0  0  0  0
   12.8612  -18.0734   23.4075 O   0  0  0  0  0  0  0  0  0  0  0  0
  2  4  1  0
  2  1  1  6
  3  2  1  0
  4  6  1  0
  4  5  1  6
  6 13  1  0
  6  7  2  0
  8  9  1  0
  9 11  1  0
 10  9  2  0
 12 11  1  1
 12 14  1  0
 13 12  1  0
 14 15  2  0
 16 17  1  0
 16 14  1  0
 17 24  1  0
 18 19  1  0
 17 18  1  6
 19 23  1  0
 20 19  2  0
 20 21  1  0
 21 22  1  0
 23 22  2  0
 24 25  1  0
 26 24  2  0
M  END
$$$$
