TNH.pdb
     RDKit          3D

 26 26  0  0  1  0  0  0  0  0999 V2000
   13.6598  -21.6371   27.0061 C   0  0  0  0  0  0  0  0  0  0  0  0
   12.3263  -22.3291   26.8302 C   0  0  1  0  0  0  0  0  0  0  0  0
   11.9902  -22.5555   25.5241 O   0  0  0  0  0  0  0  0  0  0  0  0
   12.2471  -23.6017   27.6449 C   0  0  2  0  0  0  0  0  0  0  0  0
   10.9737  -24.2813   27.3950 N   0  0  0  0  0  0  0  0  0  0  0  0
   12.3894  -23.4120   29.0870 C   0  0  0  0  0  0  0  0  0  0  0  0
   12.3484  -22.2897   29.6630 O   0  0  0  0  0  0  0  0  0  0  0  0
   10.2288  -25.5545   31.1170 N   0  0  0  0  0  0  0  0  0  0  0  0
   11.1863  -26.2880   31.8327 C   0  0  0  0  0  0  0  0  0  0  0  0
   10.8770  -27.3817   32.3479 O   0  0  0  0  0  0  0  0  0  0  0  0
   12.5568  -25.7727   31.9791 C   0  0  0  0  0  0  0  0  0  0  0  0
   12.7652  -24.4190   31.3402 C   0  0  2  0  0  0  0  0  0  0  0  0
   12.5870  -24.5412   29.9269 N   0  0  0  0  0  0  0  0  0  0  0  0
   14.0755  -23.8664   31.7441 C   0  0  0  0  0  0  0  0  0  0  0  0
   15.1491  -24.3233   31.2528 O   0  0  0  0  0  0  0  0  0  0  0  0
   14.1563  -22.8292   32.6756 N   0  0  0  0  0  0  0  0  0  0  0  0
   15.4615  -22.1949   33.0495 C   0  0  1  0  0  0  0  0  0  0  0  0
   15.2848  -20.7600   32.6750 C   0  0  0  0  0  0  0  0  0  0  0  0
   15.6836  -20.3621   31.3316 C   0  0  0  0  0  0  0  0  0  0  0  0
   16.2022  -21.0303   30.2552 C   0  0  0  0  0  0  0  0  0  0  0  0
   16.3285  -20.1516   29.2222 N   0  0  0  0  0  0  0  0  0  0  0  0
   15.8941  -18.9587   29.6514 C   0  0  0  0  0  0  0  0  0  0  0  0
   15.5082  -19.0824   30.9109 N   0  0  0  0  0  0  0  0  0  0  0  0
   15.5326  -22.2582   34.5546 C   0  0  0  0  0  0  0  0  0  0  0  0
   16.5904  -21.7765   35.2552 O   0  0  0  0  0  0  0  0  0  0  0  0
   14.5811  -22.7737   35.1874 O   0  0  0  0  0  0  0  0  0  0  0  0
  2  4  1  0
  2  1  1  6
  3  2  1  0
  4  6  1  0
  4  5  1  1
  6 13  1  0
  6  7  2  0
  8  9  1  0
  9 11  1  0
 10  9  2  0
 12 11  1  1
 12 14  1  0
 13 12  1  0
 14 15  2  0
 16 17  1  0
 16 14  1  0
 17 24  1  0
 18 19  1  0
 17 18  1  1
 19 23  1  0
 20 19  2  0
 20 21  1  0
 21 22  1  0
 23 22  2  0
 24 25  1  0
 26 24  2  0
M  END
$$$$
