TNH.pdb
     RDKit          3D

 26 26  0  0  1  0  0  0  0  0999 V2000
    8.7450  -15.9413   17.6661 C   0  0  0  0  0  0  0  0  0  0  0  0
    8.6540  -14.4352   17.5591 C   0  0  1  0  0  0  0  0  0  0  0  0
    7.7902  -14.0020   16.5915 O   0  0  0  0  0  0  0  0  0  0  0  0
    8.3427  -13.7993   18.8963 C   0  0  2  0  0  0  0  0  0  0  0  0
    8.1056  -12.3636   18.7282 N   0  0  0  0  0  0  0  0  0  0  0  0
    9.3790  -13.9763   19.9114 C   0  0  0  0  0  0  0  0  0  0  0  0
   10.4664  -13.3359   19.9352 O   0  0  0  0  0  0  0  0  0  0  0  0
   11.7143  -15.6435   24.2355 N   0  0  0  0  0  0  0  0  0  0  0  0
   10.5051  -16.3461   24.1307 C   0  0  0  0  0  0  0  0  0  0  0  0
   10.1956  -17.1880   24.9983 O   0  0  0  0  0  0  0  0  0  0  0  0
    9.5976  -16.0944   23.0000 C   0  0  0  0  0  0  0  0  0  0  0  0
   10.1755  -15.1671   21.9559 C   0  0  2  0  0  0  0  0  0  0  0  0
    9.1845  -14.9209   20.9552 N   0  0  0  0  0  0  0  0  0  0  0  0
   11.4435  -15.7209   21.4351 C   0  0  0  0  0  0  0  0  0  0  0  0
   11.4492  -16.7764   20.7360 O   0  0  0  0  0  0  0  0  0  0  0  0
   12.6608  -15.0914   21.7033 N   0  0  0  0  0  0  0  0  0  0  0  0
   13.9610  -15.6136   21.1718 C   0  0  1  0  0  0  0  0  0  0  0  0
   14.5591  -14.4405   20.4673 C   0  0  0  0  0  0  0  0  0  0  0  0
   14.7064  -14.5288   19.0207 C   0  0  0  0  0  0  0  0  0  0  0  0
   13.9298  -15.0361   18.0138 C   0  0  0  0  0  0  0  0  0  0  0  0
   14.5485  -14.7887   16.8260 N   0  0  0  0  0  0  0  0  0  0  0  0
   15.6891  -14.1378   17.0925 C   0  0  0  0  0  0  0  0  0  0  0  0
   15.7852  -13.9813   18.4028 N   0  0  0  0  0  0  0  0  0  0  0  0
   14.8171  -15.8919   22.3819 C   0  0  0  0  0  0  0  0  0  0  0  0
   16.0384  -16.4768   22.2916 O   0  0  0  0  0  0  0  0  0  0  0  0
   14.3893  -15.5727   23.5161 O   0  0  0  0  0  0  0  0  0  0  0  0
  2  4  1  0
  2  1  1  1
  3  2  1  0
  4  6  1  0
  4  5  1  6
  6 13  1  0
  6  7  2  0
  8  9  1  0
  9 11  1  0
 10  9  2  0
 12 11  1  1
 12 14  1  0
 13 12  1  0
 14 15  2  0
 16 17  1  0
 16 14  1  0
 17 24  1  0
 18 19  1  0
 17 18  1  6
 19 23  1  0
 20 19  2  0
 20 21  1  0
 21 22  1  0
 23 22  2  0
 24 25  1  0
 26 24  2  0
M  END
$$$$
