TNH.pdb
     RDKit          3D

 26 26  0  0  1  0  0  0  0  0999 V2000
   12.1772  -22.3600   20.9023 C   0  0  0  0  0  0  0  0  0  0  0  0
   11.7972  -22.0489   22.3330 C   0  0  1  0  0  0  0  0  0  0  0  0
   11.8869  -20.7222   22.6518 O   0  0  0  0  0  0  0  0  0  0  0  0
   10.4336  -22.6052   22.6809 C   0  0  2  0  0  0  0  0  0  0  0  0
    9.4032  -21.9607   21.8631 N   0  0  0  0  0  0  0  0  0  0  0  0
   10.0579  -22.4633   24.0860 C   0  0  0  0  0  0  0  0  0  0  0  0
    9.8296  -21.3585   24.6519 O   0  0  0  0  0  0  0  0  0  0  0  0
    9.1119  -25.8769   29.0363 N   0  0  0  0  0  0  0  0  0  0  0  0
    8.6351  -24.9060   28.1435 C   0  0  0  0  0  0  0  0  0  0  0  0
    7.8172  -24.0479   28.5335 O   0  0  0  0  0  0  0  0  0  0  0  0
    9.0959  -24.8945   26.7461 C   0  0  0  0  0  0  0  0  0  0  0  0
    9.6063  -23.5474   26.2890 C   0  0  2  0  0  0  0  0  0  0  0  0
    9.9308  -23.6222   24.8986 N   0  0  0  0  0  0  0  0  0  0  0  0
   10.7234  -23.1108   27.1533 C   0  0  0  0  0  0  0  0  0  0  0  0
   11.8941  -23.5571   26.9715 O   0  0  0  0  0  0  0  0  0  0  0  0
   10.5106  -22.1974   28.1878 N   0  0  0  0  0  0  0  0  0  0  0  0
   11.6257  -21.7127   29.0637 C   0  0  1  0  0  0  0  0  0  0  0  0
   11.5021  -20.2252   29.0140 C   0  0  0  0  0  0  0  0  0  0  0  0
   11.9139  -19.5573   27.7866 C   0  0  0  0  0  0  0  0  0  0  0  0
   12.4577  -19.9861   26.6057 C   0  0  0  0  0  0  0  0  0  0  0  0
   12.5854  -18.9140   25.7754 N   0  0  0  0  0  0  0  0  0  0  0  0
   12.1269  -17.8388   26.4309 C   0  0  0  0  0  0  0  0  0  0  0  0
   11.7251  -18.2209   27.6321 N   0  0  0  0  0  0  0  0  0  0  0  0
   11.2659  -22.1442   30.4633 C   0  0  0  0  0  0  0  0  0  0  0  0
   12.1017  -21.9679   31.5179 O   0  0  0  0  0  0  0  0  0  0  0  0
   10.1539  -22.6863   30.6657 O   0  0  0  0  0  0  0  0  0  0  0  0
  2  4  1  0
  2  1  1  6
  3  2  1  0
  4  6  1  0
  4  5  1  6
  6 13  1  0
  6  7  2  0
  8  9  1  0
  9 11  1  0
 10  9  2  0
 12 11  1  1
 12 14  1  0
 13 12  1  0
 14 15  2  0
 16 17  1  0
 16 14  1  0
 17 24  1  0
 18 19  1  0
 17 18  1  1
 19 23  1  0
 20 19  2  0
 20 21  1  0
 21 22  1  0
 23 22  2  0
 24 25  1  0
 26 24  2  0
M  END
$$$$
