TNH.pdb
     RDKit          3D

 26 26  0  0  1  0  0  0  0  0999 V2000
    8.1832  -19.8651   18.4501 C   0  0  0  0  0  0  0  0  0  0  0  0
    9.3061  -18.9675   18.9207 C   0  0  1  0  0  0  0  0  0  0  0  0
    9.7254  -19.2306   20.1955 O   0  0  0  0  0  0  0  0  0  0  0  0
   10.4668  -18.9715   17.9501 C   0  0  2  0  0  0  0  0  0  0  0  0
   10.9988  -20.3289   17.8069 N   0  0  0  0  0  0  0  0  0  0  0  0
   11.5692  -18.0840   18.3146 C   0  0  0  0  0  0  0  0  0  0  0  0
   12.6585  -18.4746   18.8183 O   0  0  0  0  0  0  0  0  0  0  0  0
   12.0663  -15.1454   15.2020 N   0  0  0  0  0  0  0  0  0  0  0  0
   12.9868  -15.2244   16.2571 C   0  0  0  0  0  0  0  0  0  0  0  0
   14.1007  -15.7568   16.0747 O   0  0  0  0  0  0  0  0  0  0  0  0
   12.6446  -14.6812   17.5812 C   0  0  0  0  0  0  0  0  0  0  0  0
   12.3864  -15.7453   18.6228 C   0  0  2  0  0  0  0  0  0  0  0  0
   11.4428  -16.6846   18.1018 N   0  0  0  0  0  0  0  0  0  0  0  0
   11.9802  -15.1162   19.8974 C   0  0  0  0  0  0  0  0  0  0  0  0
   12.6895  -14.2106   20.4264 O   0  0  0  0  0  0  0  0  0  0  0  0
   10.8061  -15.5075   20.5443 N   0  0  0  0  0  0  0  0  0  0  0  0
   10.3991  -14.9371   21.8689 C   0  0  1  0  0  0  0  0  0  0  0  0
    8.9335  -14.6917   21.7202 C   0  0  0  0  0  0  0  0  0  0  0  0
    8.4998  -13.8735   20.5956 C   0  0  0  0  0  0  0  0  0  0  0  0
    8.4542  -12.5256   20.3605 C   0  0  0  0  0  0  0  0  0  0  0  0
    8.0022  -12.3244   19.0916 N   0  0  0  0  0  0  0  0  0  0  0  0
    7.7728  -13.5282   18.5490 C   0  0  0  0  0  0  0  0  0  0  0  0
    8.0697  -14.4547   19.4456 N   0  0  0  0  0  0  0  0  0  0  0  0
   10.5656  -16.0560   22.8664 C   0  0  0  0  0  0  0  0  0  0  0  0
   10.3657  -15.8816   24.1974 O   0  0  0  0  0  0  0  0  0  0  0  0
   10.9006  -17.1921   22.4558 O   0  0  0  0  0  0  0  0  0  0  0  0
  2  4  1  0
  2  1  1  6
  3  2  1  0
  4  6  1  0
  4  5  1  1
  6 13  1  0
  6  7  2  0
  8  9  1  0
  9 11  1  0
 10  9  2  0
 12 11  1  6
 12 14  1  0
 13 12  1  0
 14 15  2  0
 16 17  1  0
 16 14  1  0
 17 24  1  0
 18 19  1  0
 17 18  1  6
 19 23  1  0
 20 19  2  0
 20 21  1  0
 21 22  1  0
 23 22  2  0
 24 25  1  0
 26 24  2  0
M  END
$$$$
