TNH.pdb
     RDKit          3D

 26 26  0  0  1  0  0  0  0  0999 V2000
    9.0976  -12.7644   20.1461 C   0  0  0  0  0  0  0  0  0  0  0  0
    8.3696  -13.5412   19.0715 C   0  0  1  0  0  0  0  0  0  0  0  0
    7.3815  -12.8293   18.4495 O   0  0  0  0  0  0  0  0  0  0  0  0
    9.3311  -14.1373   18.0666 C   0  0  2  0  0  0  0  0  0  0  0  0
    8.5914  -14.8613   17.0300 N   0  0  0  0  0  0  0  0  0  0  0  0
   10.3248  -15.0442   18.6376 C   0  0  0  0  0  0  0  0  0  0  0  0
   10.1309  -16.2753   18.8371 O   0  0  0  0  0  0  0  0  0  0  0  0
   14.8823  -13.5957   17.5742 N   0  0  0  0  0  0  0  0  0  0  0  0
   14.5361  -14.7603   18.2748 C   0  0  0  0  0  0  0  0  0  0  0  0
   14.7534  -15.8803   17.7692 O   0  0  0  0  0  0  0  0  0  0  0  0
   13.9164  -14.6673   19.6063 C   0  0  0  0  0  0  0  0  0  0  0  0
   12.5672  -15.3425   19.6935 C   0  0  2  0  0  0  0  0  0  0  0  0
   11.6035  -14.5433   19.0032 N   0  0  0  0  0  0  0  0  0  0  0  0
   12.2310  -15.6182   21.1065 C   0  0  0  0  0  0  0  0  0  0  0  0
   11.9901  -14.6705   21.9106 O   0  0  0  0  0  0  0  0  0  0  0  0
   12.1720  -16.9293   21.5834 N   0  0  0  0  0  0  0  0  0  0  0  0
   11.6633  -17.2554   22.9548 C   0  0  1  0  0  0  0  0  0  0  0  0
   10.9443  -18.5517   22.7733 C   0  0  0  0  0  0  0  0  0  0  0  0
    9.7006  -18.5299   22.0150 C   0  0  0  0  0  0  0  0  0  0  0  0
    8.7064  -17.6045   21.8431 C   0  0  0  0  0  0  0  0  0  0  0  0
    7.7963  -18.1079   20.9637 N   0  0  0  0  0  0  0  0  0  0  0  0
    8.2205  -19.3248   20.5959 C   0  0  0  0  0  0  0  0  0  0  0  0
    9.3578  -19.5785   21.2224 N   0  0  0  0  0  0  0  0  0  0  0  0
   12.8868  -17.5366   23.7906 C   0  0  0  0  0  0  0  0  0  0  0  0
   12.8157  -17.8081   25.1184 O   0  0  0  0  0  0  0  0  0  0  0  0
   14.0143  -17.5205   23.2430 O   0  0  0  0  0  0  0  0  0  0  0  0
  2  4  1  0
  2  1  1  1
  3  2  1  0
  4  6  1  0
  4  5  1  6
  6 13  1  0
  6  7  2  0
  8  9  1  0
  9 11  1  0
 10  9  2  0
 12 11  1  1
 12 14  1  0
 13 12  1  0
 14 15  2  0
 16 17  1  0
 16 14  1  0
 17 24  1  0
 18 19  1  0
 17 18  1  6
 19 23  1  0
 20 19  2  0
 20 21  1  0
 21 22  1  0
 23 22  2  0
 24 25  1  0
 26 24  2  0
M  END
$$$$
