TNH.pdb
     RDKit          3D

 26 26  0  0  1  0  0  0  0  0999 V2000
    7.0882  -13.9499   17.4103 C   0  0  0  0  0  0  0  0  0  0  0  0
    8.0376  -14.4460   18.4782 C   0  0  1  0  0  0  0  0  0  0  0  0
    9.2258  -14.9118   17.9871 O   0  0  0  0  0  0  0  0  0  0  0  0
    8.2595  -13.4052   19.5538 C   0  0  2  0  0  0  0  0  0  0  0  0
    8.7898  -12.1745   18.9620 N   0  0  0  0  0  0  0  0  0  0  0  0
    9.1590  -13.8209   20.6280 C   0  0  0  0  0  0  0  0  0  0  0  0
   10.3874  -13.5348   20.6763 O   0  0  0  0  0  0  0  0  0  0  0  0
   10.7114  -15.8474   25.1511 N   0  0  0  0  0  0  0  0  0  0  0  0
    9.3711  -16.2218   24.9767 C   0  0  0  0  0  0  0  0  0  0  0  0
    8.8000  -16.9167   25.8417 O   0  0  0  0  0  0  0  0  0  0  0  0
    8.6337  -15.7980   23.7759 C   0  0  0  0  0  0  0  0  0  0  0  0
    9.4856  -15.0514   22.7755 C   0  0  2  0  0  0  0  0  0  0  0  0
    8.6533  -14.5979   21.7051 N   0  0  0  0  0  0  0  0  0  0  0  0
   10.6210  -15.8966   22.3489 C   0  0  0  0  0  0  0  0  0  0  0  0
   10.4206  -17.0087   21.7781 O   0  0  0  0  0  0  0  0  0  0  0  0
   11.9378  -15.4859   22.5667 N   0  0  0  0  0  0  0  0  0  0  0  0
   13.1110  -16.3082   22.1273 C   0  0  1  0  0  0  0  0  0  0  0  0
   14.0932  -15.2982   21.6318 C   0  0  0  0  0  0  0  0  0  0  0  0
   14.0004  -14.9003   20.2335 C   0  0  0  0  0  0  0  0  0  0  0  0
   12.9580  -14.6498   19.3821 C   0  0  0  0  0  0  0  0  0  0  0  0
   13.4668  -14.2511   18.1833 N   0  0  0  0  0  0  0  0  0  0  0  0
   14.8026  -14.2534   18.2907 C   0  0  0  0  0  0  0  0  0  0  0  0
   15.1233  -14.6406   19.5145 N   0  0  0  0  0  0  0  0  0  0  0  0
   13.6852  -16.9097   23.3855 C   0  0  0  0  0  0  0  0  0  0  0  0
   14.7911  -17.6963   23.3784 O   0  0  0  0  0  0  0  0  0  0  0  0
   13.1240  -16.6770   24.4820 O   0  0  0  0  0  0  0  0  0  0  0  0
  2  4  1  0
  2  1  1  6
  3  2  1  0
  4  6  1  0
  4  5  1  6
  6 13  1  0
  6  7  2  0
  8  9  1  0
  9 11  1  0
 10  9  2  0
 12 11  1  1
 12 14  1  0
 13 12  1  0
 14 15  2  0
 16 17  1  0
 16 14  1  0
 17 24  1  0
 18 19  1  0
 17 18  1  1
 19 23  1  0
 20 19  2  0
 20 21  1  0
 21 22  1  0
 23 22  2  0
 24 25  1  0
 26 24  2  0
M  END
$$$$
