TNH.pdb
     RDKit          3D

 26 26  0  0  1  0  0  0  0  0999 V2000
    8.7272  -14.8090   14.7984 C   0  0  0  0  0  0  0  0  0  0  0  0
    9.0694  -15.2942   16.1896 C   0  0  1  0  0  0  0  0  0  0  0  0
    8.2040  -14.8582   17.1545 O   0  0  0  0  0  0  0  0  0  0  0  0
    9.2252  -16.7987   16.2324 C   0  0  2  0  0  0  0  0  0  0  0  0
    8.0090  -17.4453   15.7338 N   0  0  0  0  0  0  0  0  0  0  0  0
    9.5234  -17.3431   17.5555 C   0  0  0  0  0  0  0  0  0  0  0  0
    8.6659  -17.8722   18.3155 O   0  0  0  0  0  0  0  0  0  0  0  0
   14.3536  -18.8386   21.0364 N   0  0  0  0  0  0  0  0  0  0  0  0
   13.0119  -18.8856   20.6307 C   0  0  0  0  0  0  0  0  0  0  0  0
   12.1607  -19.4420   21.3540 O   0  0  0  0  0  0  0  0  0  0  0  0
   12.6025  -18.2804   19.3534 C   0  0  0  0  0  0  0  0  0  0  0  0
   11.1950  -17.7303   19.3689 C   0  0  2  0  0  0  0  0  0  0  0  0
   10.8543  -17.2919   18.0514 N   0  0  0  0  0  0  0  0  0  0  0  0
   11.0719  -16.6873   20.4094 C   0  0  0  0  0  0  0  0  0  0  0  0
   11.7572  -15.6248   20.3441 O   0  0  0  0  0  0  0  0  0  0  0  0
   10.1975  -16.8524   21.4855 N   0  0  0  0  0  0  0  0  0  0  0  0
   10.0123  -15.7941   22.5303 C   0  0  1  0  0  0  0  0  0  0  0  0
    8.5928  -15.3629   22.3584 C   0  0  0  0  0  0  0  0  0  0  0  0
    8.2992  -14.4341   21.2752 C   0  0  0  0  0  0  0  0  0  0  0  0
    9.0604  -13.8087   20.3246 C   0  0  0  0  0  0  0  0  0  0  0  0
    8.2349  -13.0834   19.5199 N   0  0  0  0  0  0  0  0  0  0  0  0
    6.9826  -13.2578   19.9639 C   0  0  0  0  0  0  0  0  0  0  0  0
    7.0188  -14.0644   21.0121 N   0  0  0  0  0  0  0  0  0  0  0  0
   10.1053  -16.5058   23.8567 C   0  0  0  0  0  0  0  0  0  0  0  0
   10.2463  -17.8522   23.9531 O   0  0  0  0  0  0  0  0  0  0  0  0
   10.0512  -15.8331   24.9130 O   0  0  0  0  0  0  0  0  0  0  0  0
  2  4  1  0
  2  1  1  6
  3  2  1  0
  4  6  1  0
  4  5  1  1
  6 13  1  0
  6  7  2  0
  8  9  1  0
  9 11  1  0
 10  9  2  0
 12 11  1  6
 12 14  1  0
 13 12  1  0
 14 15  2  0
 16 17  1  0
 16 14  1  0
 17 24  1  0
 18 19  1  0
 17 18  1  6
 19 23  1  0
 20 19  2  0
 20 21  1  0
 21 22  1  0
 23 22  2  0
 24 25  1  0
 26 24  2  0
M  END
$$$$
