TNH.pdb
     RDKit          3D

 26 26  0  0  1  0  0  0  0  0999 V2000
    9.3790  -18.2020   14.8559 C   0  0  0  0  0  0  0  0  0  0  0  0
    9.6191  -17.3468   13.6315 C   0  0  1  0  0  0  0  0  0  0  0  0
    9.1452  -17.8968   12.4727 O   0  0  0  0  0  0  0  0  0  0  0  0
    9.0973  -15.9395   13.8237 C   0  0  2  0  0  0  0  0  0  0  0  0
    9.2911  -15.1590   12.5994 N   0  0  0  0  0  0  0  0  0  0  0  0
    9.7073  -15.2096   14.9332 C   0  0  0  0  0  0  0  0  0  0  0  0
   10.9055  -14.8132   14.9490 O   0  0  0  0  0  0  0  0  0  0  0  0
   10.2625  -13.0383   19.6030 N   0  0  0  0  0  0  0  0  0  0  0  0
    8.8929  -13.2891   19.4342 C   0  0  0  0  0  0  0  0  0  0  0  0
    8.0791  -12.9199   20.3052 O   0  0  0  0  0  0  0  0  0  0  0  0
    8.4103  -13.9870   18.2320 C   0  0  0  0  0  0  0  0  0  0  0  0
    9.5153  -14.3947   17.2851 C   0  0  2  0  0  0  0  0  0  0  0  0
    8.9316  -14.9077   16.0850 N   0  0  0  0  0  0  0  0  0  0  0  0
   10.4403  -15.3291   17.9610 C   0  0  0  0  0  0  0  0  0  0  0  0
   10.1948  -16.5706   17.9948 O   0  0  0  0  0  0  0  0  0  0  0  0
   11.6036  -14.8618   18.5760 N   0  0  0  0  0  0  0  0  0  0  0  0
   12.5889  -15.7873   19.2228 C   0  0  1  0  0  0  0  0  0  0  0  0
   13.2963  -16.4221   18.0709 C   0  0  0  0  0  0  0  0  0  0  0  0
   12.8104  -17.7177   17.6152 C   0  0  0  0  0  0  0  0  0  0  0  0
   12.6289  -18.9326   18.2194 C   0  0  0  0  0  0  0  0  0  0  0  0
   12.0823  -19.7882   17.3116 N   0  0  0  0  0  0  0  0  0  0  0  0
   11.9267  -19.1139   16.1640 C   0  0  0  0  0  0  0  0  0  0  0  0
   12.3607  -17.8770   16.3434 N   0  0  0  0  0  0  0  0  0  0  0  0
   13.5860  -14.9000   19.9251 C   0  0  0  0  0  0  0  0  0  0  0  0
   14.6135  -15.3969   20.6593 O   0  0  0  0  0  0  0  0  0  0  0  0
   13.4659  -13.6559   19.8299 O   0  0  0  0  0  0  0  0  0  0  0  0
  2  4  1  0
  2  1  1  1
  3  2  1  0
  4  6  1  0
  4  5  1  6
  6 13  1  0
  6  7  2  0
  8  9  1  0
  9 11  1  0
 10  9  2  0
 12 11  1  1
 12 14  1  0
 13 12  1  0
 14 15  2  0
 16 17  1  0
 16 14  1  0
 17 24  1  0
 18 19  1  0
 17 18  1  6
 19 23  1  0
 20 19  2  0
 20 21  1  0
 21 22  1  0
 23 22  2  0
 24 25  1  0
 26 24  2  0
M  END
$$$$
