TNH.pdb
     RDKit          3D

 26 26  0  0  1  0  0  0  0  0999 V2000
    7.7388  -11.9700   18.7690 C   0  0  0  0  0  0  0  0  0  0  0  0
    8.8165  -12.9422   19.1948 C   0  0  1  0  0  0  0  0  0  0  0  0
    8.4782  -13.6995   20.2821 O   0  0  0  0  0  0  0  0  0  0  0  0
    9.2707  -13.8107   18.0420 C   0  0  2  0  0  0  0  0  0  0  0  0
    8.1484  -14.6056   17.5377 N   0  0  0  0  0  0  0  0  0  0  0  0
   10.3694  -14.7204   18.3602 C   0  0  0  0  0  0  0  0  0  0  0  0
   10.2193  -15.9360   18.6647 O   0  0  0  0  0  0  0  0  0  0  0  0
   13.2422  -16.6689   16.4324 N   0  0  0  0  0  0  0  0  0  0  0  0
   13.7986  -15.3906   16.5850 C   0  0  0  0  0  0  0  0  0  0  0  0
   14.1309  -14.7308   15.5793 O   0  0  0  0  0  0  0  0  0  0  0  0
   13.9929  -14.8227   17.9285 C   0  0  0  0  0  0  0  0  0  0  0  0
   12.8023  -15.0075   18.8409 C   0  0  2  0  0  0  0  0  0  0  0  0
   11.7069  -14.2408   18.3344 N   0  0  0  0  0  0  0  0  0  0  0  0
   13.1789  -14.6863   20.2339 C   0  0  0  0  0  0  0  0  0  0  0  0
   12.6605  -13.6986   20.8325 O   0  0  0  0  0  0  0  0  0  0  0  0
   14.1140  -15.4655   20.9182 N   0  0  0  0  0  0  0  0  0  0  0  0
   14.6006  -15.1044   22.2888 C   0  0  1  0  0  0  0  0  0  0  0  0
   13.3929  -15.2626   23.1529 C   0  0  0  0  0  0  0  0  0  0  0  0
   12.7032  -16.5452   23.1155 C   0  0  0  0  0  0  0  0  0  0  0  0
   12.8858  -17.7042   22.4101 C   0  0  0  0  0  0  0  0  0  0  0  0
   11.9624  -18.6137   22.8288 N   0  0  0  0  0  0  0  0  0  0  0  0
   11.2207  -18.0280   23.7790 C   0  0  0  0  0  0  0  0  0  0  0  0
   11.6618  -16.7926   23.9519 N   0  0  0  0  0  0  0  0  0  0  0  0
   15.5735  -16.1891   22.6782 C   0  0  0  0  0  0  0  0  0  0  0  0
   15.7906  -17.2846   21.9071 O   0  0  0  0  0  0  0  0  0  0  0  0
   16.2085  -16.0793   23.7534 O   0  0  0  0  0  0  0  0  0  0  0  0
  2  4  1  0
  2  1  1  6
  3  2  1  0
  4  6  1  0
  4  5  1  1
  6 13  1  0
  6  7  2  0
  8  9  1  0
  9 11  1  0
 10  9  2  0
 12 11  1  6
 12 14  1  0
 13 12  1  0
 14 15  2  0
 16 17  1  0
 16 14  1  0
 17 24  1  0
 18 19  1  0
 17 18  1  1
 19 23  1  0
 20 19  2  0
 20 21  1  0
 21 22  1  0
 23 22  2  0
 24 25  1  0
 26 24  2  0
M  END
$$$$
