TNH.pdb
     RDKit          3D

 26 26  0  0  1  0  0  0  0  0999 V2000
    9.5986  -15.6190   17.2329 C   0  0  0  0  0  0  0  0  0  0  0  0
    9.1611  -14.1717   17.1893 C   0  0  1  0  0  0  0  0  0  0  0  0
    8.7338  -13.7613   15.9568 O   0  0  0  0  0  0  0  0  0  0  0  0
    8.1309  -13.8686   18.2554 C   0  0  2  0  0  0  0  0  0  0  0  0
    7.6447  -12.4945   18.1097 N   0  0  0  0  0  0  0  0  0  0  0  0
    8.6038  -14.0437   19.6271 C   0  0  0  0  0  0  0  0  0  0  0  0
    9.2673  -13.1802   20.2652 O   0  0  0  0  0  0  0  0  0  0  0  0
    6.2066  -14.7329   21.7041 N   0  0  0  0  0  0  0  0  0  0  0  0
    6.5236  -15.9339   22.3552 C   0  0  0  0  0  0  0  0  0  0  0  0
    5.6290  -16.5864   22.9308 O   0  0  0  0  0  0  0  0  0  0  0  0
    7.9092  -16.4292   22.3628 C   0  0  0  0  0  0  0  0  0  0  0  0
    8.8714  -15.5450   21.6037 C   0  0  2  0  0  0  0  0  0  0  0  0
    8.3160  -15.2509   20.3195 N   0  0  0  0  0  0  0  0  0  0  0  0
   10.2085  -16.1742   21.5602 C   0  0  0  0  0  0  0  0  0  0  0  0
   10.7285  -16.5120   20.4564 O   0  0  0  0  0  0  0  0  0  0  0  0
   10.9254  -16.4090   22.7353 N   0  0  0  0  0  0  0  0  0  0  0  0
   12.3860  -16.7437   22.7232 C   0  0  1  0  0  0  0  0  0  0  0  0
   13.0475  -15.4558   22.3568 C   0  0  0  0  0  0  0  0  0  0  0  0
   13.3628  -15.2384   20.9512 C   0  0  0  0  0  0  0  0  0  0  0  0
   13.0444  -15.8930   19.7918 C   0  0  0  0  0  0  0  0  0  0  0  0
   13.5743  -15.1998   18.7460 N   0  0  0  0  0  0  0  0  0  0  0  0
   14.2095  -14.1325   19.2493 C   0  0  0  0  0  0  0  0  0  0  0  0
   14.0841  -14.1536   20.5662 N   0  0  0  0  0  0  0  0  0  0  0  0
   12.7510  -17.0413   24.1559 C   0  0  0  0  0  0  0  0  0  0  0  0
   13.9313  -17.6141   24.5035 O   0  0  0  0  0  0  0  0  0  0  0  0
   11.9373  -16.7503   25.0640 O   0  0  0  0  0  0  0  0  0  0  0  0
  2  4  1  0
  2  1  1  6
  3  2  1  0
  4  6  1  0
  4  5  1  1
  6 13  1  0
  6  7  2  0
  8  9  1  0
  9 11  1  0
 10  9  2  0
 12 11  1  6
 12 14  1  0
 13 12  1  0
 14 15  2  0
 16 17  1  0
 16 14  1  0
 17 24  1  0
 18 19  1  0
 17 18  1  1
 19 23  1  0
 20 19  2  0
 20 21  1  0
 21 22  1  0
 23 22  2  0
 24 25  1  0
 26 24  2  0
M  END
$$$$
