TNH.pdb
     RDKit          3D

 26 26  0  0  1  0  0  0  0  0999 V2000
   11.2120  -16.6749   13.3357 C   0  0  0  0  0  0  0  0  0  0  0  0
   11.1623  -16.6588   14.8475 C   0  0  1  0  0  0  0  0  0  0  0  0
   11.2536  -15.4065   15.3892 O   0  0  0  0  0  0  0  0  0  0  0  0
    9.9502  -17.3964   15.3731 C   0  0  2  0  0  0  0  0  0  0  0  0
    8.7361  -16.8983   14.7220 N   0  0  0  0  0  0  0  0  0  0  0  0
    9.7628  -17.3079   16.8198 C   0  0  0  0  0  0  0  0  0  0  0  0
    8.8524  -16.6352   17.3781 O   0  0  0  0  0  0  0  0  0  0  0  0
    9.5503  -20.1954   21.3991 N   0  0  0  0  0  0  0  0  0  0  0  0
   10.7905  -19.6628   21.0180 C   0  0  0  0  0  0  0  0  0  0  0  0
   11.6598  -19.4264   21.8815 O   0  0  0  0  0  0  0  0  0  0  0  0
   11.0719  -19.3809   19.6014 C   0  0  0  0  0  0  0  0  0  0  0  0
   10.4018  -18.1265   19.0900 C   0  0  2  0  0  0  0  0  0  0  0  0
   10.6429  -18.0120   17.6854 N   0  0  0  0  0  0  0  0  0  0  0  0
   10.8442  -16.9591   19.8817 C   0  0  0  0  0  0  0  0  0  0  0  0
   11.4090  -15.9743   19.3213 O   0  0  0  0  0  0  0  0  0  0  0  0
   10.6484  -16.9183   21.2637 N   0  0  0  0  0  0  0  0  0  0  0  0
   10.3640  -15.6387   21.9899 C   0  0  1  0  0  0  0  0  0  0  0  0
    8.9271  -15.3653   21.6886 C   0  0  0  0  0  0  0  0  0  0  0  0
    8.6323  -14.4495   20.5946 C   0  0  0  0  0  0  0  0  0  0  0  0
    9.4018  -13.7628   19.6943 C   0  0  0  0  0  0  0  0  0  0  0  0
    8.5756  -13.0904   18.8456 N   0  0  0  0  0  0  0  0  0  0  0  0
    7.3148  -13.3572   19.2135 C   0  0  0  0  0  0  0  0  0  0  0  0
    7.3466  -14.1690   20.2578 N   0  0  0  0  0  0  0  0  0  0  0  0
   10.4571  -15.9703   23.4582 C   0  0  0  0  0  0  0  0  0  0  0  0
   10.6671  -15.0234   24.4075 O   0  0  0  0  0  0  0  0  0  0  0  0
   10.3363  -17.1642   23.8210 O   0  0  0  0  0  0  0  0  0  0  0  0
  2  4  1  0
  2  1  1  6
  3  2  1  0
  4  6  1  0
  4  5  1  6
  6 13  1  0
  6  7  2  0
  8  9  1  0
  9 11  1  0
 10  9  2  0
 12 11  1  1
 12 14  1  0
 13 12  1  0
 14 15  2  0
 16 17  1  0
 16 14  1  0
 17 24  1  0
 18 19  1  0
 17 18  1  1
 19 23  1  0
 20 19  2  0
 20 21  1  0
 21 22  1  0
 23 22  2  0
 24 25  1  0
 26 24  2  0
M  END
$$$$
