EMW.pdb
     RDKit          3D

 32 33  0  0  1  0  0  0  0  0999 V2000
   27.2790  -19.6039  -15.4316 N   0  0  0  0  0  0  0  0  0  0  0  0
   26.9385  -18.9898  -14.1386 C   0  0  1  0  0  0  0  0  0  0  0  0
   25.5844  -18.3740  -14.1810 C   0  0  0  0  0  0  0  0  0  0  0  0
   25.1201  -18.2184  -15.5986 C   0  0  0  0  0  0  0  0  0  0  0  0
   23.9570  -17.2835  -15.6049 C   0  0  0  0  0  0  0  0  0  0  0  0
   22.8468  -17.6647  -15.2188 O   0  0  0  0  0  0  0  0  0  0  0  0
   27.1625  -20.0089  -13.1122 C   0  0  0  0  0  0  0  0  0  0  0  0
   26.3441  -20.9473  -12.8238 O   0  0  0  0  0  0  0  0  0  0  0  0
   24.1336  -15.9729  -16.0513 O   0  0  0  0  0  0  0  0  0  0  0  0
   32.9198  -22.6154  -11.0785 C   0  0  0  0  0  0  0  0  0  0  0  0
   32.0630  -22.2815   -9.5061 S   0  0  0  0  0  0  0  0  0  0  0  0
   30.2596  -22.1953   -9.8198 C   0  0  0  0  0  0  0  0  0  0  0  0
   29.9770  -21.2177  -10.9156 C   0  0  0  0  0  0  0  0  0  0  0  0
   28.5306  -21.0308  -11.2307 C   0  0  2  0  0  0  0  0  0  0  0  0
   28.3591  -20.0443  -12.3146 N   0  0  0  0  0  0  0  0  0  0  0  0
   27.8560  -20.4830  -10.0542 C   0  0  0  0  0  0  0  0  0  0  0  0
   28.3851  -19.6561   -9.2774 O   0  0  0  0  0  0  0  0  0  0  0  0
   26.5347  -20.8963   -9.7599 N   0  0  0  0  0  0  0  0  0  0  0  0
   26.0998  -21.0983   -8.3844 C   0  0  1  0  0  0  0  0  0  0  0  0
   25.8143  -19.7803   -7.7047 C   0  0  0  0  0  0  0  0  0  0  0  0
   27.0597  -19.3075   -7.0635 C   0  0  0  0  0  0  0  0  0  0  0  0
   27.8812  -18.2747   -7.4447 C   0  0  0  0  0  0  0  0  0  0  0  0
   28.9240  -18.1905   -6.5791 N   0  0  0  0  0  0  0  0  0  0  0  0
   28.8073  -19.1399   -5.6419 C   0  0  0  0  0  0  0  0  0  0  0  0
   29.5546  -19.5026   -4.5561 C   0  0  0  0  0  0  0  0  0  0  0  0
   29.1900  -20.5628   -3.7246 C   0  0  0  0  0  0  0  0  0  0  0  0
   28.0377  -21.2614   -4.0149 C   0  0  0  0  0  0  0  0  0  0  0  0
   27.2833  -20.8997   -5.1064 C   0  0  0  0  0  0  0  0  0  0  0  0
   27.6587  -19.8377   -5.9297 C   0  0  0  0  0  0  0  0  0  0  0  0
   24.8390  -21.8838   -8.3889 C   0  0  0  0  0  0  0  0  0  0  0  0
   24.2739  -22.1722   -9.4999 O   0  0  0  0  0  0  0  0  0  0  0  0
   24.2042  -22.3448   -7.2642 O   0  0  0  0  0  0  0  0  0  0  0  0
  2  1  1  6
  2  7  1  0
  3  4  1  0
  3  2  1  0
  5  9  1  0
  5  4  1  0
  6  5  2  0
  7  8  2  0
  7 15  1  0
 11 10  1  0
 12 11  1  0
 13 12  1  0
 14 13  1  1
 14 16  1  0
 15 14  1  0
 16 17  2  0
 18 16  1  0
 18 19  1  0
 19 20  1  6
 21 20  1  0
 22 21  2  0
 23 22  1  0
 24 23  1  0
 24 29  2  0
 25 26  2  0
 25 24  1  0
 26 27  1  0
 27 28  2  0
 29 28  1  0
 29 21  1  0
 30 32  1  0
 30 19  1  0
 31 30  2  0
M  END
$$$$
