EMW.pdb
     RDKit          3D

 32 33  0  0  1  0  0  0  0  0999 V2000
   30.2588  -23.0237  -17.4215 N   0  0  0  0  0  0  0  0  0  0  0  0
   28.8631  -22.5581  -17.4225 C   0  0  1  0  0  0  0  0  0  0  0  0
   27.9342  -23.6585  -17.7975 C   0  0  0  0  0  0  0  0  0  0  0  0
   27.6993  -23.6685  -19.2788 C   0  0  0  0  0  0  0  0  0  0  0  0
   28.5247  -24.7614  -19.8713 C   0  0  0  0  0  0  0  0  0  0  0  0
   28.7894  -25.7722  -19.2116 O   0  0  0  0  0  0  0  0  0  0  0  0
   28.6286  -21.9158  -16.1285 C   0  0  0  0  0  0  0  0  0  0  0  0
   29.1740  -22.2694  -15.0279 O   0  0  0  0  0  0  0  0  0  0  0  0
   28.9961  -24.6324  -21.1787 O   0  0  0  0  0  0  0  0  0  0  0  0
   29.1151  -15.1527  -16.3091 C   0  0  0  0  0  0  0  0  0  0  0  0
   27.7385  -16.1416  -15.6419 S   0  0  0  0  0  0  0  0  0  0  0  0
   28.2760  -17.8879  -15.5013 C   0  0  0  0  0  0  0  0  0  0  0  0
   27.2055  -18.7015  -14.8468 C   0  0  0  0  0  0  0  0  0  0  0  0
   27.5368  -20.1454  -14.6689 C   0  0  2  0  0  0  0  0  0  0  0  0
   27.7372  -20.7968  -15.9777 N   0  0  0  0  0  0  0  0  0  0  0  0
   26.4027  -20.8175  -14.0351 C   0  0  0  0  0  0  0  0  0  0  0  0
   25.4434  -21.3048  -14.6750 O   0  0  0  0  0  0  0  0  0  0  0  0
   26.3680  -20.9337  -12.6250 N   0  0  0  0  0  0  0  0  0  0  0  0
   25.3659  -21.7589  -11.9639 C   0  0  1  0  0  0  0  0  0  0  0  0
   25.8863  -22.3029  -10.6548 C   0  0  0  0  0  0  0  0  0  0  0  0
   26.2016  -21.1621   -9.7688 C   0  0  0  0  0  0  0  0  0  0  0  0
   25.3359  -20.3051   -9.1342 C   0  0  0  0  0  0  0  0  0  0  0  0
   26.0497  -19.3925   -8.4259 N   0  0  0  0  0  0  0  0  0  0  0  0
   27.3587  -19.6290   -8.5798 C   0  0  0  0  0  0  0  0  0  0  0  0
   28.4955  -19.0356   -8.1057 C   0  0  0  0  0  0  0  0  0  0  0  0
   29.7692  -19.5020   -8.4350 C   0  0  0  0  0  0  0  0  0  0  0  0
   29.8753  -20.5969   -9.2657 C   0  0  0  0  0  0  0  0  0  0  0  0
   28.7341  -21.1967   -9.7447 C   0  0  0  0  0  0  0  0  0  0  0  0
   27.4667  -20.7207   -9.4079 C   0  0  0  0  0  0  0  0  0  0  0  0
   24.1766  -20.9217  -11.6615 C   0  0  0  0  0  0  0  0  0  0  0  0
   24.2664  -19.6466  -11.7171 O   0  0  0  0  0  0  0  0  0  0  0  0
   22.9445  -21.4143  -11.3158 O   0  0  0  0  0  0  0  0  0  0  0  0
  2  1  1  1
  2  7  1  0
  3  4  1  0
  3  2  1  0
  5  9  1  0
  5  4  1  0
  6  5  2  0
  7  8  2  0
  7 15  1  0
 11 10  1  0
 12 11  1  0
 13 12  1  0
 14 13  1  6
 14 16  1  0
 15 14  1  0
 16 17  2  0
 18 16  1  0
 18 19  1  0
 19 20  1  1
 21 20  1  0
 22 21  2  0
 23 22  1  0
 24 23  1  0
 24 29  2  0
 25 26  2  0
 25 24  1  0
 26 27  1  0
 27 28  2  0
 29 28  1  0
 29 21  1  0
 30 32  1  0
 30 19  1  0
 31 30  2  0
M  END
$$$$
