EMW.pdb
     RDKit          3D

 32 33  0  0  1  0  0  0  0  0999 V2000
   26.9640  -19.4523  -14.7479 N   0  0  0  0  0  0  0  0  0  0  0  0
   26.5284  -20.7882  -15.1844 C   0  0  1  0  0  0  0  0  0  0  0  0
   27.6628  -21.5546  -15.7677 C   0  0  0  0  0  0  0  0  0  0  0  0
   28.1315  -20.9156  -17.0411 C   0  0  0  0  0  0  0  0  0  0  0  0
   27.1474  -21.2441  -18.1136 C   0  0  0  0  0  0  0  0  0  0  0  0
   26.3832  -20.3755  -18.5479 O   0  0  0  0  0  0  0  0  0  0  0  0
   25.8386  -21.4022  -14.0489 C   0  0  0  0  0  0  0  0  0  0  0  0
   25.4414  -22.6163  -14.0052 O   0  0  0  0  0  0  0  0  0  0  0  0
   27.0969  -22.5426  -18.6231 O   0  0  0  0  0  0  0  0  0  0  0  0
   26.8362  -19.0143   -7.7943 C   0  0  0  0  0  0  0  0  0  0  0  0
   26.7728  -20.8025   -8.1353 S   0  0  0  0  0  0  0  0  0  0  0  0
   26.6459  -21.0573   -9.9456 C   0  0  0  0  0  0  0  0  0  0  0  0
   25.2797  -20.6779  -10.4211 C   0  0  0  0  0  0  0  0  0  0  0  0
   24.8635  -21.3157  -11.7041 C   0  0  2  0  0  0  0  0  0  0  0  0
   25.5387  -20.6710  -12.8470 N   0  0  0  0  0  0  0  0  0  0  0  0
   23.4281  -21.1078  -11.8931 C   0  0  0  0  0  0  0  0  0  0  0  0
   22.9298  -20.0170  -12.2523 O   0  0  0  0  0  0  0  0  0  0  0  0
   22.5375  -22.1836  -11.6632 N   0  0  0  0  0  0  0  0  0  0  0  0
   21.0961  -21.9739  -11.6424 C   0  0  1  0  0  0  0  0  0  0  0  0
   20.3622  -23.2653  -11.3700 C   0  0  0  0  0  0  0  0  0  0  0  0
   18.9991  -22.9365  -10.9012 C   0  0  0  0  0  0  0  0  0  0  0  0
   17.9978  -22.2779  -11.5722 C   0  0  0  0  0  0  0  0  0  0  0  0
   16.9092  -22.1803  -10.7664 N   0  0  0  0  0  0  0  0  0  0  0  0
   17.1709  -22.7570   -9.5865 C   0  0  0  0  0  0  0  0  0  0  0  0
   16.4538  -22.9419   -8.4374 C   0  0  0  0  0  0  0  0  0  0  0  0
   16.9876  -23.5966   -7.3262 C   0  0  0  0  0  0  0  0  0  0  0  0
   18.2806  -24.0689   -7.3984 C   0  0  0  0  0  0  0  0  0  0  0  0
   19.0054  -23.8850   -8.5526 C   0  0  0  0  0  0  0  0  0  0  0  0
   18.4600  -23.2288   -9.6565 C   0  0  0  0  0  0  0  0  0  0  0  0
   20.7633  -21.0282  -10.5463 C   0  0  0  0  0  0  0  0  0  0  0  0
   21.4163  -21.0743   -9.4470 O   0  0  0  0  0  0  0  0  0  0  0  0
   19.7809  -20.0737  -10.6121 O   0  0  0  0  0  0  0  0  0  0  0  0
  2  1  1  1
  2  7  1  0
  3  4  1  0
  3  2  1  0
  5  9  1  0
  5  4  1  0
  6  5  2  0
  7  8  2  0
  7 15  1  0
 11 10  1  0
 12 11  1  0
 13 12  1  0
 14 13  1  1
 14 16  1  0
 15 14  1  0
 16 17  2  0
 18 16  1  0
 18 19  1  0
 19 20  1  1
 21 20  1  0
 22 21  2  0
 23 22  1  0
 24 23  1  0
 24 29  2  0
 25 26  2  0
 25 24  1  0
 26 27  1  0
 27 28  2  0
 29 28  1  0
 29 21  1  0
 30 32  1  0
 30 19  1  0
 31 30  2  0
M  END
$$$$
