EMW.pdb
     RDKit          3D

 32 33  0  0  1  0  0  0  0  0999 V2000
   27.6542  -22.3246  -15.3659 N   0  0  0  0  0  0  0  0  0  0  0  0
   26.9928  -21.1368  -14.8032 C   0  0  1  0  0  0  0  0  0  0  0  0
   26.0146  -20.5643  -15.7674 C   0  0  0  0  0  0  0  0  0  0  0  0
   26.6642  -20.3248  -17.0980 C   0  0  0  0  0  0  0  0  0  0  0  0
   27.4405  -19.0534  -17.0122 C   0  0  0  0  0  0  0  0  0  0  0  0
   26.8675  -17.9868  -16.7651 O   0  0  0  0  0  0  0  0  0  0  0  0
   26.4700  -21.5230  -13.4918 C   0  0  0  0  0  0  0  0  0  0  0  0
   25.4723  -22.2994  -13.3029 O   0  0  0  0  0  0  0  0  0  0  0  0
   28.8215  -19.0786  -17.2136 O   0  0  0  0  0  0  0  0  0  0  0  0
   26.7830  -19.9532   -5.6460 C   0  0  0  0  0  0  0  0  0  0  0  0
   27.6024  -19.8779   -7.2711 S   0  0  0  0  0  0  0  0  0  0  0  0
   26.4691  -20.5604   -8.5392 C   0  0  0  0  0  0  0  0  0  0  0  0
   27.1540  -20.6027   -9.8679 C   0  0  0  0  0  0  0  0  0  0  0  0
   26.3240  -21.1437  -10.9835 C   0  0  2  0  0  0  0  0  0  0  0  0
   27.0508  -21.0485  -12.2643 N   0  0  0  0  0  0  0  0  0  0  0  0
   25.1216  -20.3224  -11.1214 C   0  0  0  0  0  0  0  0  0  0  0  0
   25.1477  -19.0987  -11.3841 O   0  0  0  0  0  0  0  0  0  0  0  0
   23.8511  -20.9229  -10.9527 N   0  0  0  0  0  0  0  0  0  0  0  0
   22.6754  -20.3968  -11.6331 C   0  0  1  0  0  0  0  0  0  0  0  0
   22.8357  -20.4715  -13.1329 C   0  0  0  0  0  0  0  0  0  0  0  0
   21.6297  -19.8898  -13.7598 C   0  0  0  0  0  0  0  0  0  0  0  0
   21.0336  -18.6779  -13.5095 C   0  0  0  0  0  0  0  0  0  0  0  0
   19.9395  -18.5458  -14.3028 N   0  0  0  0  0  0  0  0  0  0  0  0
   19.8034  -19.6382  -15.0653 C   0  0  0  0  0  0  0  0  0  0  0  0
   18.9030  -20.0286  -16.0171 C   0  0  0  0  0  0  0  0  0  0  0  0
   19.0020  -21.2565  -16.6735 C   0  0  0  0  0  0  0  0  0  0  0  0
   20.0444  -22.0966  -16.3453 C   0  0  0  0  0  0  0  0  0  0  0  0
   20.9523  -21.7076  -15.3884 C   0  0  0  0  0  0  0  0  0  0  0  0
   20.8421  -20.4774  -14.7396 C   0  0  0  0  0  0  0  0  0  0  0  0
   21.4969  -21.2229  -11.2656 C   0  0  0  0  0  0  0  0  0  0  0  0
   20.3973  -20.6535  -10.9434 O   0  0  0  0  0  0  0  0  0  0  0  0
   21.4834  -22.5939  -11.2412 O   0  0  0  0  0  0  0  0  0  0  0  0
  2  1  1  6
  2  7  1  0
  3  4  1  0
  3  2  1  0
  5  9  1  0
  5  4  1  0
  6  5  2  0
  7  8  2  0
  7 15  1  0
 11 10  1  0
 12 11  1  0
 13 12  1  0
 14 13  1  1
 14 16  1  0
 15 14  1  0
 16 17  2  0
 18 16  1  0
 18 19  1  0
 19 20  1  6
 21 20  1  0
 22 21  2  0
 23 22  1  0
 24 23  1  0
 24 29  2  0
 25 26  2  0
 25 24  1  0
 26 27  1  0
 27 28  2  0
 29 28  1  0
 29 21  1  0
 30 32  1  0
 30 19  1  0
 31 30  2  0
M  END
$$$$
