EMW.pdb
     RDKit          3D

 32 33  0  0  1  0  0  0  0  0999 V2000
   26.9054  -23.1618  -16.8593 N   0  0  0  0  0  0  0  0  0  0  0  0
   26.9582  -21.8264  -16.2438 C   0  0  1  0  0  0  0  0  0  0  0  0
   26.6042  -20.7702  -17.2305 C   0  0  0  0  0  0  0  0  0  0  0  0
   27.6902  -20.6195  -18.2540 C   0  0  0  0  0  0  0  0  0  0  0  0
   27.3642  -19.4375  -19.1045 C   0  0  0  0  0  0  0  0  0  0  0  0
   27.5802  -19.4644  -20.3209 O   0  0  0  0  0  0  0  0  0  0  0  0
   26.1445  -21.8863  -15.0287 C   0  0  0  0  0  0  0  0  0  0  0  0
   25.1123  -22.6246  -14.8763 O   0  0  0  0  0  0  0  0  0  0  0  0
   26.8125  -18.2995  -18.5140 O   0  0  0  0  0  0  0  0  0  0  0  0
   23.6826  -21.4852   -8.3066 C   0  0  0  0  0  0  0  0  0  0  0  0
   24.7431  -21.7078   -9.7708 S   0  0  0  0  0  0  0  0  0  0  0  0
   25.2133  -20.0595  -10.4191 C   0  0  0  0  0  0  0  0  0  0  0  0
   26.0945  -20.2133  -11.6174 C   0  0  0  0  0  0  0  0  0  0  0  0
   25.4999  -21.0033  -12.7349 C   0  0  2  0  0  0  0  0  0  0  0  0
   26.4445  -21.0958  -13.8648 N   0  0  0  0  0  0  0  0  0  0  0  0
   24.3166  -20.3028  -13.2336 C   0  0  0  0  0  0  0  0  0  0  0  0
   24.3337  -19.1164  -13.6326 O   0  0  0  0  0  0  0  0  0  0  0  0
   23.0766  -20.9839  -13.2756 N   0  0  0  0  0  0  0  0  0  0  0  0
   21.8636  -20.3086  -13.7167 C   0  0  1  0  0  0  0  0  0  0  0  0
   21.7037  -20.4010  -15.2156 C   0  0  0  0  0  0  0  0  0  0  0  0
   20.5355  -19.5855  -15.6106 C   0  0  0  0  0  0  0  0  0  0  0  0
   20.3328  -18.2381  -15.4368 C   0  0  0  0  0  0  0  0  0  0  0  0
   19.1170  -17.9008  -15.9387 N   0  0  0  0  0  0  0  0  0  0  0  0
   18.5186  -18.9907  -16.4360 C   0  0  0  0  0  0  0  0  0  0  0  0
   17.3167  -19.2226  -17.0448 C   0  0  0  0  0  0  0  0  0  0  0  0
   16.9362  -20.4944  -17.4765 C   0  0  0  0  0  0  0  0  0  0  0  0
   17.8065  -21.5448  -17.2786 C   0  0  0  0  0  0  0  0  0  0  0  0
   19.0166  -21.3156  -16.6665 C   0  0  0  0  0  0  0  0  0  0  0  0
   19.3850  -20.0395  -16.2396 C   0  0  0  0  0  0  0  0  0  0  0  0
   20.6894  -20.9757  -13.0978 C   0  0  0  0  0  0  0  0  0  0  0  0
   20.7032  -22.2412  -12.9105 O   0  0  0  0  0  0  0  0  0  0  0  0
   19.5495  -20.3294  -12.6938 O   0  0  0  0  0  0  0  0  0  0  0  0
  2  1  1  6
  2  7  1  0
  3  4  1  0
  3  2  1  0
  5  9  1  0
  5  4  1  0
  6  5  2  0
  7  8  2  0
  7 15  1  0
 11 10  1  0
 12 11  1  0
 13 12  1  0
 14 13  1  1
 14 16  1  0
 15 14  1  0
 16 17  2  0
 18 16  1  0
 18 19  1  0
 19 20  1  6
 21 20  1  0
 22 21  2  0
 23 22  1  0
 24 23  1  0
 24 29  2  0
 25 26  2  0
 25 24  1  0
 26 27  1  0
 27 28  2  0
 29 28  1  0
 29 21  1  0
 30 32  1  0
 30 19  1  0
 31 30  2  0
M  END
$$$$
