EMW.pdb
     RDKit          3D

 32 33  0  0  1  0  0  0  0  0999 V2000
   27.6505  -22.1759  -16.0724 N   0  0  0  0  0  0  0  0  0  0  0  0
   27.5721  -20.9598  -15.2478 C   0  0  1  0  0  0  0  0  0  0  0  0
   27.1133  -19.7969  -16.0551 C   0  0  0  0  0  0  0  0  0  0  0  0
   26.9922  -20.1742  -17.5017 C   0  0  0  0  0  0  0  0  0  0  0  0
   28.2909  -19.8688  -18.1702 C   0  0  0  0  0  0  0  0  0  0  0  0
   28.8054  -18.7512  -18.0549 O   0  0  0  0  0  0  0  0  0  0  0  0
   26.7710  -21.2960  -14.0700 C   0  0  0  0  0  0  0  0  0  0  0  0
   25.8470  -22.1788  -14.0428 O   0  0  0  0  0  0  0  0  0  0  0  0
   28.9207  -20.8573  -18.9281 O   0  0  0  0  0  0  0  0  0  0  0  0
   25.7769  -20.2885   -6.2023 C   0  0  0  0  0  0  0  0  0  0  0  0
   26.6785  -19.8257   -7.7159 S   0  0  0  0  0  0  0  0  0  0  0  0
   25.9251  -20.6925   -9.1439 C   0  0  0  0  0  0  0  0  0  0  0  0
   26.6686  -20.3561  -10.3970 C   0  0  0  0  0  0  0  0  0  0  0  0
   26.1082  -20.9624  -11.6398 C   0  0  2  0  0  0  0  0  0  0  0  0
   26.9593  -20.6429  -12.8022 N   0  0  0  0  0  0  0  0  0  0  0  0
   24.7965  -20.3723  -11.9054 C   0  0  0  0  0  0  0  0  0  0  0  0
   24.6381  -19.2112  -12.3458 O   0  0  0  0  0  0  0  0  0  0  0  0
   23.6315  -21.1372  -11.6583 N   0  0  0  0  0  0  0  0  0  0  0  0
   22.3091  -20.6153  -11.9761 C   0  0  1  0  0  0  0  0  0  0  0  0
   21.8811  -21.0262  -13.3648 C   0  0  0  0  0  0  0  0  0  0  0  0
   21.5887  -19.8036  -14.1430 C   0  0  0  0  0  0  0  0  0  0  0  0
   20.5573  -18.9110  -13.9811 C   0  0  0  0  0  0  0  0  0  0  0  0
   20.6599  -17.9348  -14.9194 N   0  0  0  0  0  0  0  0  0  0  0  0
   21.7303  -18.1642  -15.6907 C   0  0  0  0  0  0  0  0  0  0  0  0
   22.2908  -17.5187  -16.7575 C   0  0  0  0  0  0  0  0  0  0  0  0
   23.4415  -17.9917  -17.3906 C   0  0  0  0  0  0  0  0  0  0  0  0
   24.0250  -19.1479  -16.9184 C   0  0  0  0  0  0  0  0  0  0  0  0
   23.4641  -19.8002  -15.8454 C   0  0  0  0  0  0  0  0  0  0  0  0
   22.3137  -19.3169  -15.2214 C   0  0  0  0  0  0  0  0  0  0  0  0
   21.3256  -21.1808  -11.0172 C   0  0  0  0  0  0  0  0  0  0  0  0
   21.6830  -22.1109  -10.2146 O   0  0  0  0  0  0  0  0  0  0  0  0
   20.0191  -20.7776  -10.9123 O   0  0  0  0  0  0  0  0  0  0  0  0
  2  1  1  6
  2  7  1  0
  3  4  1  0
  3  2  1  0
  5  9  1  0
  5  4  1  0
  6  5  2  0
  7  8  2  0
  7 15  1  0
 11 10  1  0
 12 11  1  0
 13 12  1  0
 14 13  1  1
 14 16  1  0
 15 14  1  0
 16 17  2  0
 18 16  1  0
 18 19  1  0
 19 20  1  6
 21 20  1  0
 22 21  2  0
 23 22  1  0
 24 23  1  0
 24 29  2  0
 25 26  2  0
 25 24  1  0
 26 27  1  0
 27 28  2  0
 29 28  1  0
 29 21  1  0
 30 32  1  0
 30 19  1  0
 31 30  2  0
M  END
$$$$
