EMW.pdb
     RDKit          3D

 32 33  0  0  1  0  0  0  0  0999 V2000
   26.8173  -17.4452  -16.2235 N   0  0  0  0  0  0  0  0  0  0  0  0
   25.5620  -16.9533  -15.6342 C   0  0  1  0  0  0  0  0  0  0  0  0
   24.5880  -16.5749  -16.6937 C   0  0  0  0  0  0  0  0  0  0  0  0
   24.0744  -15.1843  -16.4654 C   0  0  0  0  0  0  0  0  0  0  0  0
   22.5920  -15.2576  -16.3115 C   0  0  0  0  0  0  0  0  0  0  0  0
   21.9223  -15.9870  -17.0508 O   0  0  0  0  0  0  0  0  0  0  0  0
   25.1213  -17.9624  -14.6700 C   0  0  0  0  0  0  0  0  0  0  0  0
   24.2260  -17.7773  -13.7767 O   0  0  0  0  0  0  0  0  0  0  0  0
   21.9668  -14.4943  -15.3243 O   0  0  0  0  0  0  0  0  0  0  0  0
   23.8140  -25.5726  -13.1750 C   0  0  0  0  0  0  0  0  0  0  0  0
   24.2614  -24.2427  -14.3367 S   0  0  0  0  0  0  0  0  0  0  0  0
   24.5414  -22.6982  -13.3911 C   0  0  0  0  0  0  0  0  0  0  0  0
   24.9808  -21.6062  -14.3135 C   0  0  0  0  0  0  0  0  0  0  0  0
   25.2231  -20.2895  -13.6547 C   0  0  2  0  0  0  0  0  0  0  0  0
   25.6738  -19.2903  -14.6427 N   0  0  0  0  0  0  0  0  0  0  0  0
   26.3067  -20.4376  -12.6835 C   0  0  0  0  0  0  0  0  0  0  0  0
   27.5195  -20.3704  -12.9865 O   0  0  0  0  0  0  0  0  0  0  0  0
   25.9895  -20.6698  -11.3238 N   0  0  0  0  0  0  0  0  0  0  0  0
   27.0218  -21.0376  -10.3641 C   0  0  1  0  0  0  0  0  0  0  0  0
   27.5961  -19.8156   -9.6876 C   0  0  0  0  0  0  0  0  0  0  0  0
   27.1050  -19.7809   -8.2935 C   0  0  0  0  0  0  0  0  0  0  0  0
   25.8120  -19.8670   -7.8380 C   0  0  0  0  0  0  0  0  0  0  0  0
   25.8091  -19.7817   -6.4828 N   0  0  0  0  0  0  0  0  0  0  0  0
   27.0649  -19.6422   -6.0391 C   0  0  0  0  0  0  0  0  0  0  0  0
   27.6279  -19.5140   -4.7999 C   0  0  0  0  0  0  0  0  0  0  0  0
   29.0058  -19.3804   -4.6207 C   0  0  0  0  0  0  0  0  0  0  0  0
   29.8177  -19.3786   -5.7346 C   0  0  0  0  0  0  0  0  0  0  0  0
   29.2552  -19.5073   -6.9830 C   0  0  0  0  0  0  0  0  0  0  0  0
   27.8763  -19.6402   -7.1486 C   0  0  0  0  0  0  0  0  0  0  0  0
   26.4165  -21.8917   -9.3102 C   0  0  0  0  0  0  0  0  0  0  0  0
   27.1704  -22.5837   -8.5423 O   0  0  0  0  0  0  0  0  0  0  0  0
   25.0698  -22.0072   -9.0790 O   0  0  0  0  0  0  0  0  0  0  0  0
  2  1  1  6
  2  7  1  0
  3  4  1  0
  3  2  1  0
  5  9  1  0
  5  4  1  0
  6  5  2  0
  7  8  2  0
  7 15  1  0
 11 10  1  0
 12 11  1  0
 13 12  1  0
 14 13  1  6
 14 16  1  0
 15 14  1  0
 16 17  2  0
 18 16  1  0
 18 19  1  0
 19 20  1  1
 21 20  1  0
 22 21  2  0
 23 22  1  0
 24 23  1  0
 24 29  2  0
 25 26  2  0
 25 24  1  0
 26 27  1  0
 27 28  2  0
 29 28  1  0
 29 21  1  0
 30 32  1  0
 30 19  1  0
 31 30  2  0
M  END
$$$$
