EMW.pdb
     RDKit          3D

 32 33  0  0  1  0  0  0  0  0999 V2000
   28.1259  -21.2386  -15.6147 N   0  0  0  0  0  0  0  0  0  0  0  0
   27.7924  -20.2375  -14.5894 C   0  0  1  0  0  0  0  0  0  0  0  0
   27.2639  -18.9931  -15.2113 C   0  0  0  0  0  0  0  0  0  0  0  0
   28.3276  -18.3174  -16.0247 C   0  0  0  0  0  0  0  0  0  0  0  0
   28.2877  -18.8866  -17.4035 C   0  0  0  0  0  0  0  0  0  0  0  0
   27.2284  -18.9106  -18.0393 O   0  0  0  0  0  0  0  0  0  0  0  0
   26.9259  -20.9008  -13.6140 C   0  0  0  0  0  0  0  0  0  0  0  0
   26.0694  -21.8070  -13.8949 O   0  0  0  0  0  0  0  0  0  0  0  0
   29.4587  -19.3925  -17.9703 O   0  0  0  0  0  0  0  0  0  0  0  0
   26.1078  -18.8695   -7.1832 C   0  0  0  0  0  0  0  0  0  0  0  0
   25.8512  -20.6729   -7.1752 S   0  0  0  0  0  0  0  0  0  0  0  0
   25.3104  -21.2027   -8.8440 C   0  0  0  0  0  0  0  0  0  0  0  0
   26.2853  -20.7260   -9.8730 C   0  0  0  0  0  0  0  0  0  0  0  0
   25.9529  -21.1099  -11.2760 C   0  0  2  0  0  0  0  0  0  0  0  0
   26.9640  -20.5813  -12.2119 N   0  0  0  0  0  0  0  0  0  0  0  0
   24.6776  -20.4967  -11.6459 C   0  0  0  0  0  0  0  0  0  0  0  0
   24.5632  -19.3016  -12.0004 O   0  0  0  0  0  0  0  0  0  0  0  0
   23.4980  -21.2780  -11.6080 N   0  0  0  0  0  0  0  0  0  0  0  0
   22.2791  -20.8303  -12.2682 C   0  0  1  0  0  0  0  0  0  0  0  0
   22.3377  -21.0914  -13.7544 C   0  0  0  0  0  0  0  0  0  0  0  0
   21.7641  -19.9231  -14.4557 C   0  0  0  0  0  0  0  0  0  0  0  0
   20.6885  -19.1494  -14.0934 C   0  0  0  0  0  0  0  0  0  0  0  0
   20.4971  -18.1842  -15.0291 N   0  0  0  0  0  0  0  0  0  0  0  0
   21.4181  -18.3052  -15.9938 C   0  0  0  0  0  0  0  0  0  0  0  0
   21.6859  -17.6194  -17.1457 C   0  0  0  0  0  0  0  0  0  0  0  0
   22.7393  -17.9710  -17.9913 C   0  0  0  0  0  0  0  0  0  0  0  0
   23.5302  -19.0459  -17.6462 C   0  0  0  0  0  0  0  0  0  0  0  0
   23.2641  -19.7384  -16.4882 C   0  0  0  0  0  0  0  0  0  0  0  0
   22.2079  -19.3767  -15.6515 C   0  0  0  0  0  0  0  0  0  0  0  0
   21.1280  -21.5946  -11.7228 C   0  0  0  0  0  0  0  0  0  0  0  0
   21.3350  -22.6741  -11.0680 O   0  0  0  0  0  0  0  0  0  0  0  0
   19.8136  -21.2305  -11.8645 O   0  0  0  0  0  0  0  0  0  0  0  0
  2  1  1  6
  2  7  1  0
  3  4  1  0
  3  2  1  0
  5  9  1  0
  5  4  1  0
  6  5  2  0
  7  8  2  0
  7 15  1  0
 11 10  1  0
 12 11  1  0
 13 12  1  0
 14 13  1  1
 14 16  1  0
 15 14  1  0
 16 17  2  0
 18 16  1  0
 18 19  1  0
 19 20  1  6
 21 20  1  0
 22 21  2  0
 23 22  1  0
 24 23  1  0
 24 29  2  0
 25 26  2  0
 25 24  1  0
 26 27  1  0
 27 28  2  0
 29 28  1  0
 29 21  1  0
 30 32  1  0
 30 19  1  0
 31 30  2  0
M  END
$$$$
