EMW.pdb
     RDKit          3D

 32 33  0  0  1  0  0  0  0  0999 V2000
   17.6871  -11.8074  -15.2968 N   0  0  0  0  0  0  0  0  0  0  0  0
   16.8667  -10.6694  -14.8533 C   0  0  1  0  0  0  0  0  0  0  0  0
   15.4429  -11.0703  -14.6897 C   0  0  0  0  0  0  0  0  0  0  0  0
   14.8135  -11.3370  -16.0247 C   0  0  0  0  0  0  0  0  0  0  0  0
   14.4928  -10.0235  -16.6561 C   0  0  0  0  0  0  0  0  0  0  0  0
   14.1432   -9.0643  -15.9599 O   0  0  0  0  0  0  0  0  0  0  0  0
   17.5268  -10.1031  -13.6761 C   0  0  0  0  0  0  0  0  0  0  0  0
   17.8200  -10.7569  -12.6177 O   0  0  0  0  0  0  0  0  0  0  0  0
   14.5909   -9.8870  -18.0417 O   0  0  0  0  0  0  0  0  0  0  0  0
   23.7288   -9.4137  -13.8895 C   0  0  0  0  0  0  0  0  0  0  0  0
   22.6057   -8.0873  -13.3440 S   0  0  0  0  0  0  0  0  0  0  0  0
   20.9313   -8.7909  -13.0992 C   0  0  0  0  0  0  0  0  0  0  0  0
   19.9641   -7.7027  -12.7577 C   0  0  0  0  0  0  0  0  0  0  0  0
   18.5900   -8.1713  -12.4134 C   0  0  2  0  0  0  0  0  0  0  0  0
   17.9150   -8.7197  -13.6055 N   0  0  0  0  0  0  0  0  0  0  0  0
   17.7953   -7.0258  -11.9710 C   0  0  0  0  0  0  0  0  0  0  0  0
   17.3421   -6.1576  -12.7507 O   0  0  0  0  0  0  0  0  0  0  0  0
   17.5122   -6.8717  -10.5929 N   0  0  0  0  0  0  0  0  0  0  0  0
   16.8176   -5.6915  -10.0963 C   0  0  1  0  0  0  0  0  0  0  0  0
   15.3298   -5.7957  -10.3333 C   0  0  0  0  0  0  0  0  0  0  0  0
   14.8370   -7.0211   -9.6691 C   0  0  0  0  0  0  0  0  0  0  0  0
   15.5632   -8.0353   -9.0938 C   0  0  0  0  0  0  0  0  0  0  0  0
   14.7116   -8.9745   -8.6076 N   0  0  0  0  0  0  0  0  0  0  0  0
   13.4479   -8.6026   -8.8490 C   0  0  0  0  0  0  0  0  0  0  0  0
   12.2259   -9.1556   -8.5846 C   0  0  0  0  0  0  0  0  0  0  0  0
   11.0333   -8.5347   -8.9595 C   0  0  0  0  0  0  0  0  0  0  0  0
   11.0989   -7.3251   -9.6172 C   0  0  0  0  0  0  0  0  0  0  0  0
   12.3263   -6.7655   -9.8850 C   0  0  0  0  0  0  0  0  0  0  0  0
   13.5112   -7.3964   -9.5048 C   0  0  0  0  0  0  0  0  0  0  0  0
   17.0327   -5.5879   -8.6301 C   0  0  0  0  0  0  0  0  0  0  0  0
   17.7598   -6.4541   -8.0318 O   0  0  0  0  0  0  0  0  0  0  0  0
   16.5009   -4.6080   -7.8319 O   0  0  0  0  0  0  0  0  0  0  0  0
  2  1  1  1
  2  7  1  0
  3  4  1  0
  3  2  1  0
  5  9  1  0
  5  4  1  0
  6  5  2  0
  7  8  2  0
  7 15  1  0
 11 10  1  0
 12 11  1  0
 13 12  1  0
 14 13  1  6
 14 16  1  0
 15 14  1  0
 16 17  2  0
 18 16  1  0
 18 19  1  0
 19 20  1  1
 21 20  1  0
 22 21  2  0
 23 22  1  0
 24 23  1  0
 24 29  2  0
 25 26  2  0
 25 24  1  0
 26 27  1  0
 27 28  2  0
 29 28  1  0
 29 21  1  0
 30 32  1  0
 30 19  1  0
 31 30  2  0
M  END
$$$$
