EMW.pdb
     RDKit          3D

 32 33  0  0  1  0  0  0  0  0999 V2000
   27.9936  -22.2059  -15.9858 N   0  0  0  0  0  0  0  0  0  0  0  0
   27.6004  -20.9594  -15.3102 C   0  0  1  0  0  0  0  0  0  0  0  0
   27.1656  -19.9330  -16.2960 C   0  0  0  0  0  0  0  0  0  0  0  0
   28.1449  -18.7978  -16.3419 C   0  0  0  0  0  0  0  0  0  0  0  0
   28.8422  -18.8408  -17.6605 C   0  0  0  0  0  0  0  0  0  0  0  0
   28.9605  -17.8145  -18.3385 O   0  0  0  0  0  0  0  0  0  0  0  0
   26.6322  -21.3245  -14.2751 C   0  0  0  0  0  0  0  0  0  0  0  0
   25.6686  -22.1490  -14.4343 O   0  0  0  0  0  0  0  0  0  0  0  0
   29.3604  -20.0516  -18.1227 O   0  0  0  0  0  0  0  0  0  0  0  0
   26.7314  -20.0221   -7.1174 C   0  0  0  0  0  0  0  0  0  0  0  0
   26.2225  -21.5164   -8.0263 S   0  0  0  0  0  0  0  0  0  0  0  0
   25.1953  -21.0180   -9.4597 C   0  0  0  0  0  0  0  0  0  0  0  0
   26.0718  -20.5901  -10.5932 C   0  0  0  0  0  0  0  0  0  0  0  0
   25.6802  -21.1320  -11.9271 C   0  0  2  0  0  0  0  0  0  0  0  0
   26.6822  -20.7707  -12.9484 N   0  0  0  0  0  0  0  0  0  0  0  0
   24.4201  -20.5138  -12.3386 C   0  0  0  0  0  0  0  0  0  0  0  0
   24.3358  -19.3447  -12.7783 O   0  0  0  0  0  0  0  0  0  0  0  0
   23.2207  -21.2591  -12.2426 N   0  0  0  0  0  0  0  0  0  0  0  0
   21.9316  -20.6490  -12.5397 C   0  0  1  0  0  0  0  0  0  0  0  0
   21.2337  -21.3728  -13.6665 C   0  0  0  0  0  0  0  0  0  0  0  0
   21.7915  -20.8885  -14.9472 C   0  0  0  0  0  0  0  0  0  0  0  0
   22.9605  -21.2574  -15.5668 C   0  0  0  0  0  0  0  0  0  0  0  0
   23.0937  -20.5574  -16.7227 N   0  0  0  0  0  0  0  0  0  0  0  0
   22.0438  -19.7405  -16.8763 C   0  0  0  0  0  0  0  0  0  0  0  0
   21.6733  -18.8359  -17.8321 C   0  0  0  0  0  0  0  0  0  0  0  0
   20.4915  -18.0989  -17.7384 C   0  0  0  0  0  0  0  0  0  0  0  0
   19.6776  -18.2957  -16.6435 C   0  0  0  0  0  0  0  0  0  0  0  0
   20.0468  -19.2048  -15.6798 C   0  0  0  0  0  0  0  0  0  0  0  0
   21.2308  -19.9353  -15.7853 C   0  0  0  0  0  0  0  0  0  0  0  0
   21.0645  -20.7471  -11.3376 C   0  0  0  0  0  0  0  0  0  0  0  0
   21.4127  -21.4988  -10.3625 O   0  0  0  0  0  0  0  0  0  0  0  0
   19.8793  -20.0768  -11.1749 O   0  0  0  0  0  0  0  0  0  0  0  0
  2  1  1  6
  2  7  1  0
  3  4  1  0
  3  2  1  0
  5  9  1  0
  5  4  1  0
  6  5  2  0
  7  8  2  0
  7 15  1  0
 11 10  1  0
 12 11  1  0
 13 12  1  0
 14 13  1  1
 14 16  1  0
 15 14  1  0
 16 17  2  0
 18 16  1  0
 18 19  1  0
 19 20  1  6
 21 20  1  0
 22 21  2  0
 23 22  1  0
 24 23  1  0
 24 29  2  0
 25 26  2  0
 25 24  1  0
 26 27  1  0
 27 28  2  0
 29 28  1  0
 29 21  1  0
 30 32  1  0
 30 19  1  0
 31 30  2  0
M  END
$$$$
