EMW.pdb
     RDKit          3D

 32 33  0  0  1  0  0  0  0  0999 V2000
   27.9327  -23.3695  -16.7357 N   0  0  0  0  0  0  0  0  0  0  0  0
   27.0541  -22.1914  -16.8067 C   0  0  1  0  0  0  0  0  0  0  0  0
   26.3143  -22.1552  -18.0974 C   0  0  0  0  0  0  0  0  0  0  0  0
   27.1987  -21.6494  -19.1981 C   0  0  0  0  0  0  0  0  0  0  0  0
   27.5984  -20.2508  -18.8653 C   0  0  0  0  0  0  0  0  0  0  0  0
   28.7303  -20.0108  -18.4315 O   0  0  0  0  0  0  0  0  0  0  0  0
   26.2442  -22.1914  -15.5876 C   0  0  0  0  0  0  0  0  0  0  0  0
   25.4584  -23.1349  -15.2326 O   0  0  0  0  0  0  0  0  0  0  0  0
   26.6819  -19.2141  -19.0484 O   0  0  0  0  0  0  0  0  0  0  0  0
   24.4626  -21.1554   -8.5779 C   0  0  0  0  0  0  0  0  0  0  0  0
   25.5033  -21.2948  -10.0664 S   0  0  0  0  0  0  0  0  0  0  0  0
   25.0497  -19.9580  -11.2349 C   0  0  0  0  0  0  0  0  0  0  0  0
   25.8733  -20.0643  -12.4785 C   0  0  0  0  0  0  0  0  0  0  0  0
   25.4146  -21.1029  -13.4467 C   0  0  2  0  0  0  0  0  0  0  0  0
   26.2625  -21.0968  -14.6544 N   0  0  0  0  0  0  0  0  0  0  0  0
   24.0579  -20.7763  -13.8849 C   0  0  0  0  0  0  0  0  0  0  0  0
   23.7770  -19.7635  -14.5650 O   0  0  0  0  0  0  0  0  0  0  0  0
   22.9914  -21.6374  -13.5323 N   0  0  0  0  0  0  0  0  0  0  0  0
   21.6095  -21.2785  -13.8211 C   0  0  1  0  0  0  0  0  0  0  0  0
   20.8838  -22.4132  -14.5040 C   0  0  0  0  0  0  0  0  0  0  0  0
   21.3347  -22.4750  -15.9107 C   0  0  0  0  0  0  0  0  0  0  0  0
   22.3841  -23.1829  -16.4439 C   0  0  0  0  0  0  0  0  0  0  0  0
   22.4503  -22.9458  -17.7793 N   0  0  0  0  0  0  0  0  0  0  0  0
   21.4730  -22.1020  -18.1344 C   0  0  0  0  0  0  0  0  0  0  0  0
   21.0837  -21.5404  -19.3185 C   0  0  0  0  0  0  0  0  0  0  0  0
   19.9968  -20.6689  -19.4050 C   0  0  0  0  0  0  0  0  0  0  0  0
   19.2989  -20.3702  -18.2545 C   0  0  0  0  0  0  0  0  0  0  0  0
   19.6872  -20.9332  -17.0614 C   0  0  0  0  0  0  0  0  0  0  0  0
   20.7756  -21.8030  -16.9883 C   0  0  0  0  0  0  0  0  0  0  0  0
   20.9071  -21.0012  -12.5419 C   0  0  0  0  0  0  0  0  0  0  0  0
   21.5063  -21.2070  -11.4304 O   0  0  0  0  0  0  0  0  0  0  0  0
   19.6247  -20.5255  -12.4444 O   0  0  0  0  0  0  0  0  0  0  0  0
  2  1  1  6
  2  7  1  0
  3  4  1  0
  3  2  1  0
  5  9  1  0
  5  4  1  0
  6  5  2  0
  7  8  2  0
  7 15  1  0
 11 10  1  0
 12 11  1  0
 13 12  1  0
 14 13  1  1
 14 16  1  0
 15 14  1  0
 16 17  2  0
 18 16  1  0
 18 19  1  0
 19 20  1  1
 21 20  1  0
 22 21  2  0
 23 22  1  0
 24 23  1  0
 24 29  2  0
 25 26  2  0
 25 24  1  0
 26 27  1  0
 27 28  2  0
 29 28  1  0
 29 21  1  0
 30 32  1  0
 30 19  1  0
 31 30  2  0
M  END
$$$$
