LIP.pdb
     RDKit          3D

 24 24  0  0  1  0  0  0  0  0999 V2000
    5.7428  -17.4098   20.4957 C   0  0  0  0  0  0  0  0  0  0  0  0
    7.2124  -17.7578   20.4003 C   0  0  2  0  0  0  0  0  0  0  0  0
    7.4298  -19.2218   20.1348 C   0  0  0  0  0  0  0  0  0  0  0  0
    7.9611  -17.2714   21.6236 C   0  0  0  0  0  0  0  0  0  0  0  0
    7.8102  -15.7836   21.6900 C   0  0  2  0  0  0  0  0  0  0  0  0
    8.3658  -15.2167   20.4753 N   0  0  0  0  0  0  0  0  0  0  0  0
    8.4720  -15.1865   22.8760 C   0  0  0  0  0  0  0  0  0  0  0  0
    9.6936  -14.8899   22.8229 O   0  0  0  0  0  0  0  0  0  0  0  0
    5.6613  -12.0381   26.1754 C   0  0  0  0  0  0  0  0  0  0  0  0
    6.7797  -12.6064   25.2917 C   0  0  0  0  0  0  0  0  0  0  0  0
    7.3491  -13.7682   26.0812 C   0  0  2  0  0  0  0  0  0  0  0  0
    7.9114  -13.2017   27.3689 C   0  0  0  0  0  0  0  0  0  0  0  0
    8.4562  -14.4932   25.2994 C   0  0  2  0  0  0  0  0  0  0  0  0
    7.7783  -14.9342   24.0772 N   0  0  0  0  0  0  0  0  0  0  0  0
    8.9626  -15.6345   26.0718 C   0  0  0  0  0  0  0  0  0  0  0  0
    8.1376  -16.5845   26.3011 O   0  0  0  0  0  0  0  0  0  0  0  0
   10.2885  -15.7396   26.5673 N   0  0  0  0  0  0  0  0  0  0  0  0
   11.3407  -14.7494   26.6361 C   0  0  0  0  0  0  0  0  0  0  0  0
   12.5321  -15.5553   26.0966 C   0  0  0  0  0  0  0  0  0  0  0  0
   12.3688  -16.8424   26.8906 C   0  0  0  0  0  0  0  0  0  0  0  0
   10.8783  -16.9357   27.1423 C   0  0  1  0  0  0  0  0  0  0  0  0
   10.5903  -17.0336   28.5995 C   0  0  0  0  0  0  0  0  0  0  0  0
   10.8257  -18.0719   29.2501 O   0  0  0  0  0  0  0  0  0  0  0  0
   10.0476  -15.9506   29.2585 O   0  0  0  0  0  0  0  0  0  0  0  0
  2  1  1  1
  2  3  1  0
  4  2  1  0
  5  4  1  0
  5  6  1  6
  7  5  1  0
  7  8  2  0
  9 10  1  0
 10 11  1  0
 11 13  1  0
 11 12  1  1
 13 14  1  6
 13 15  1  0
 14  7  1  0
 15 17  1  0
 16 15  2  0
 17 18  1  0
 17 21  1  0
 18 19  1  0
 19 20  1  0
 21 22  1  1
 21 20  1  0
 22 24  1  0
 23 22  2  0
M  END
$$$$
