LIP.pdb
     RDKit          3D

 24 24  0  0  1  0  0  0  0  0999 V2000
    4.8123  -18.2421   21.2088 C   0  0  0  0  0  0  0  0  0  0  0  0
    6.2373  -18.5308   20.7894 C   0  0  2  0  0  0  0  0  0  0  0  0
    6.4781  -20.0006   20.5824 C   0  0  0  0  0  0  0  0  0  0  0  0
    7.2201  -17.9120   21.7615 C   0  0  0  0  0  0  0  0  0  0  0  0
    6.9976  -16.4318   21.7560 C   0  0  2  0  0  0  0  0  0  0  0  0
    7.2362  -15.9422   20.4110 N   0  0  0  0  0  0  0  0  0  0  0  0
    7.8672  -15.7116   22.7183 C   0  0  0  0  0  0  0  0  0  0  0  0
    9.0375  -15.3943   22.3822 O   0  0  0  0  0  0  0  0  0  0  0  0
    5.8199  -12.2277   26.1683 C   0  0  0  0  0  0  0  0  0  0  0  0
    6.7765  -12.8914   25.1688 C   0  0  0  0  0  0  0  0  0  0  0  0
    7.4366  -14.0129   25.9456 C   0  0  2  0  0  0  0  0  0  0  0  0
    8.2564  -13.3727   27.0471 C   0  0  0  0  0  0  0  0  0  0  0  0
    8.3439  -14.8659   25.0445 C   0  0  2  0  0  0  0  0  0  0  0  0
    7.4298  -15.3632   24.0126 N   0  0  0  0  0  0  0  0  0  0  0  0
    8.9344  -15.9688   25.8129 C   0  0  0  0  0  0  0  0  0  0  0  0
    8.1222  -16.8251   26.3057 O   0  0  0  0  0  0  0  0  0  0  0  0
   10.3266  -16.1340   26.0339 N   0  0  0  0  0  0  0  0  0  0  0  0
   11.4229  -15.2175   25.8088 C   0  0  0  0  0  0  0  0  0  0  0  0
   12.4293  -16.1383   25.1022 C   0  0  0  0  0  0  0  0  0  0  0  0
   12.3648  -17.3563   26.0111 C   0  0  0  0  0  0  0  0  0  0  0  0
   10.9568  -17.3284   26.5683 C   0  0  1  0  0  0  0  0  0  0  0  0
   10.9743  -17.3107   28.0567 C   0  0  0  0  0  0  0  0  0  0  0  0
   10.7027  -16.2813   28.7072 O   0  0  0  0  0  0  0  0  0  0  0  0
   11.2989  -18.4605   28.7455 O   0  0  0  0  0  0  0  0  0  0  0  0
  2  1  1  1
  2  3  1  0
  4  2  1  0
  5  4  1  0
  5  6  1  6
  7  5  1  0
  7  8  2  0
  9 10  1  0
 10 11  1  0
 11 13  1  0
 11 12  1  1
 13 14  1  6
 13 15  1  0
 14  7  1  0
 15 17  1  0
 16 15  2  0
 17 18  1  0
 17 21  1  0
 18 19  1  0
 19 20  1  0
 21 22  1  1
 21 20  1  0
 22 24  1  0
 23 22  2  0
M  END
$$$$
