LIP.pdb
     RDKit          3D

 24 24  0  0  1  0  0  0  0  0999 V2000
    5.0206  -18.0148   21.0456 C   0  0  0  0  0  0  0  0  0  0  0  0
    6.4459  -18.4040   20.7190 C   0  0  2  0  0  0  0  0  0  0  0  0
    6.6024  -19.8909   20.5583 C   0  0  0  0  0  0  0  0  0  0  0  0
    7.4082  -17.8247   21.7350 C   0  0  0  0  0  0  0  0  0  0  0  0
    7.1933  -16.3439   21.7752 C   0  0  2  0  0  0  0  0  0  0  0  0
    7.4763  -15.8085   20.4564 N   0  0  0  0  0  0  0  0  0  0  0  0
    8.0359  -15.6635   22.7891 C   0  0  0  0  0  0  0  0  0  0  0  0
    9.2361  -15.3960   22.5222 O   0  0  0  0  0  0  0  0  0  0  0  0
    5.9798  -12.1271   26.2183 C   0  0  0  0  0  0  0  0  0  0  0  0
    6.9954  -12.7848   25.2746 C   0  0  0  0  0  0  0  0  0  0  0  0
    7.4957  -14.0021   26.0262 C   0  0  2  0  0  0  0  0  0  0  0  0
    8.2562  -13.4998   27.2365 C   0  0  0  0  0  0  0  0  0  0  0  0
    8.4157  -14.8675   25.1504 C   0  0  2  0  0  0  0  0  0  0  0  0
    7.5399  -15.2990   24.0575 N   0  0  0  0  0  0  0  0  0  0  0  0
    8.9194  -16.0140   25.9169 C   0  0  0  0  0  0  0  0  0  0  0  0
    8.0458  -16.8323   26.3673 O   0  0  0  0  0  0  0  0  0  0  0  0
   10.2924  -16.2592   26.1799 N   0  0  0  0  0  0  0  0  0  0  0  0
   11.4544  -15.4386   25.9172 C   0  0  0  0  0  0  0  0  0  0  0  0
   12.4055  -16.4738   25.2979 C   0  0  0  0  0  0  0  0  0  0  0  0
   12.2394  -17.6181   26.2862 C   0  0  0  0  0  0  0  0  0  0  0  0
   10.8273  -17.4541   26.8085 C   0  0  1  0  0  0  0  0  0  0  0  0
   10.8199  -17.3339   28.2923 C   0  0  0  0  0  0  0  0  0  0  0  0
   11.0886  -18.3008   29.0336 O   0  0  0  0  0  0  0  0  0  0  0  0
   10.5083  -16.1229   28.8737 O   0  0  0  0  0  0  0  0  0  0  0  0
  2  1  1  1
  2  3  1  0
  4  2  1  0
  5  4  1  0
  5  6  1  6
  7  5  1  0
  7  8  2  0
  9 10  1  0
 10 11  1  0
 11 13  1  0
 11 12  1  1
 13 14  1  6
 13 15  1  0
 14  7  1  0
 15 17  1  0
 16 15  2  0
 17 18  1  0
 17 21  1  0
 18 19  1  0
 19 20  1  0
 21 22  1  1
 21 20  1  0
 22 24  1  0
 23 22  2  0
M  END
$$$$
