LIP.pdb
     RDKit          3D

 24 24  0  0  1  0  0  0  0  0999 V2000
    7.3001  -19.1792   28.1059 C   0  0  0  0  0  0  0  0  0  0  0  0
    7.6963  -20.0642   26.9441 C   0  0  2  0  0  0  0  0  0  0  0  0
    9.0901  -20.6071   27.0978 C   0  0  0  0  0  0  0  0  0  0  0  0
    7.4947  -19.3450   25.6266 C   0  0  0  0  0  0  0  0  0  0  0  0
    6.1497  -18.6891   25.6653 C   0  0  2  0  0  0  0  0  0  0  0  0
    5.1790  -19.6112   25.1058 N   0  0  0  0  0  0  0  0  0  0  0  0
    6.1107  -17.4033   24.9264 C   0  0  0  0  0  0  0  0  0  0  0  0
    5.6473  -17.3718   23.7570 O   0  0  0  0  0  0  0  0  0  0  0  0
    6.6386  -12.4970   27.5026 C   0  0  0  0  0  0  0  0  0  0  0  0
    6.1008  -13.5089   26.4821 C   0  0  0  0  0  0  0  0  0  0  0  0
    7.3204  -13.9707   25.7099 C   0  0  2  0  0  0  0  0  0  0  0  0
    7.8993  -12.7539   25.0175 C   0  0  0  0  0  0  0  0  0  0  0  0
    6.9575  -15.0430   24.6701 C   0  0  2  0  0  0  0  0  0  0  0  0
    6.5782  -16.1978   25.4887 N   0  0  0  0  0  0  0  0  0  0  0  0
    8.1179  -15.3456   23.8230 C   0  0  0  0  0  0  0  0  0  0  0  0
    8.9573  -16.1951   24.2806 O   0  0  0  0  0  0  0  0  0  0  0  0
    8.3544  -14.7603   22.5518 N   0  0  0  0  0  0  0  0  0  0  0  0
    7.7872  -13.5733   21.9503 C   0  0  0  0  0  0  0  0  0  0  0  0
    7.4440  -14.0957   20.5471 C   0  0  0  0  0  0  0  0  0  0  0  0
    8.7357  -14.8234   20.2067 C   0  0  0  0  0  0  0  0  0  0  0  0
    9.2741  -15.2701   21.5500 C   0  0  1  0  0  0  0  0  0  0  0  0
   10.6527  -14.7530   21.7688 C   0  0  0  0  0  0  0  0  0  0  0  0
   10.8918  -13.8345   22.5787 O   0  0  0  0  0  0  0  0  0  0  0  0
   11.7027  -15.2985   21.0605 O   0  0  0  0  0  0  0  0  0  0  0  0
  2  1  1  1
  2  3  1  0
  4  2  1  0
  5  4  1  0
  5  6  1  6
  7  5  1  0
  7  8  2  0
  9 10  1  0
 10 11  1  0
 11 13  1  0
 11 12  1  6
 13 14  1  1
 13 15  1  0
 14  7  1  0
 15 17  1  0
 16 15  2  0
 17 18  1  0
 17 21  1  0
 18 19  1  0
 19 20  1  0
 21 22  1  1
 21 20  1  0
 22 24  1  0
 23 22  2  0
M  END
$$$$
