LIP.pdb
     RDKit          3D

 24 24  0  0  1  0  0  0  0  0999 V2000
    7.8528  -17.9562   20.3782 C   0  0  0  0  0  0  0  0  0  0  0  0
    7.0735  -16.7352   20.8164 C   0  0  2  0  0  0  0  0  0  0  0  0
    5.5989  -17.0125   20.9160 C   0  0  0  0  0  0  0  0  0  0  0  0
    7.3833  -15.5507   19.9250 C   0  0  0  0  0  0  0  0  0  0  0  0
    7.1048  -14.3052   20.7071 C   0  0  2  0  0  0  0  0  0  0  0  0
    7.3941  -13.1633   19.8598 N   0  0  0  0  0  0  0  0  0  0  0  0
    7.8947  -14.2189   21.9599 C   0  0  0  0  0  0  0  0  0  0  0  0
    9.1335  -14.0064   21.9006 O   0  0  0  0  0  0  0  0  0  0  0  0
    5.8065  -11.7176   26.1125 C   0  0  0  0  0  0  0  0  0  0  0  0
    6.7942  -12.2203   25.0512 C   0  0  0  0  0  0  0  0  0  0  0  0
    7.1267  -13.6391   25.4678 C   0  0  2  0  0  0  0  0  0  0  0  0
    7.7716  -13.5644   26.8366 C   0  0  0  0  0  0  0  0  0  0  0  0
    8.0860  -14.3097   24.4716 C   0  0  2  0  0  0  0  0  0  0  0  0
    7.3060  -14.3673   23.2323 N   0  0  0  0  0  0  0  0  0  0  0  0
    8.4487  -15.6537   24.9385 C   0  0  0  0  0  0  0  0  0  0  0  0
    7.4902  -16.4859   25.0943 O   0  0  0  0  0  0  0  0  0  0  0  0
    9.7756  -16.0714   25.2201 N   0  0  0  0  0  0  0  0  0  0  0  0
   11.0039  -15.3090   25.2694 C   0  0  0  0  0  0  0  0  0  0  0  0
   11.9417  -16.2187   24.4615 C   0  0  0  0  0  0  0  0  0  0  0  0
   11.6195  -17.5654   25.0908 C   0  0  0  0  0  0  0  0  0  0  0  0
   10.1792  -17.4297   25.5389 C   0  0  1  0  0  0  0  0  0  0  0  0
   10.0475  -17.7048   26.9959 C   0  0  0  0  0  0  0  0  0  0  0  0
   10.1523  -18.8576   27.4615 O   0  0  0  0  0  0  0  0  0  0  0  0
    9.8025  -16.6619   27.8643 O   0  0  0  0  0  0  0  0  0  0  0  0
  2  1  1  6
  2  3  1  0
  4  2  1  0
  5  4  1  0
  5  6  1  6
  7  5  1  0
  7  8  2  0
  9 10  1  0
 10 11  1  0
 11 13  1  0
 11 12  1  1
 13 14  1  6
 13 15  1  0
 14  7  1  0
 15 17  1  0
 16 15  2  0
 17 18  1  0
 17 21  1  0
 18 19  1  0
 19 20  1  0
 21 22  1  1
 21 20  1  0
 22 24  1  0
 23 22  2  0
M  END
$$$$
