LIP.pdb
     RDKit          3D

 24 24  0  0  1  0  0  0  0  0999 V2000
    7.4630  -19.1355   27.9742 C   0  0  0  0  0  0  0  0  0  0  0  0
    7.7702  -20.1233   26.8697 C   0  0  2  0  0  0  0  0  0  0  0  0
    9.1631  -20.6789   26.9806 C   0  0  0  0  0  0  0  0  0  0  0  0
    7.4938  -19.5143   25.5109 C   0  0  0  0  0  0  0  0  0  0  0  0
    6.1880  -18.7870   25.5933 C   0  0  2  0  0  0  0  0  0  0  0  0
    5.1543  -19.6475   25.0487 N   0  0  0  0  0  0  0  0  0  0  0  0
    6.2001  -17.4911   24.8713 C   0  0  0  0  0  0  0  0  0  0  0  0
    5.7446  -17.4274   23.7001 O   0  0  0  0  0  0  0  0  0  0  0  0
    6.6480  -12.6100   27.4990 C   0  0  0  0  0  0  0  0  0  0  0  0
    6.1439  -13.6102   26.4502 C   0  0  0  0  0  0  0  0  0  0  0  0
    7.3890  -14.0692   25.7179 C   0  0  2  0  0  0  0  0  0  0  0  0
    7.9955  -12.8483   25.0570 C   0  0  0  0  0  0  0  0  0  0  0  0
    7.0603  -15.1314   24.6567 C   0  0  2  0  0  0  0  0  0  0  0  0
    6.7082  -16.3110   25.4519 N   0  0  0  0  0  0  0  0  0  0  0  0
    8.2326  -15.3871   23.8106 C   0  0  0  0  0  0  0  0  0  0  0  0
    9.0741  -16.2491   24.2401 O   0  0  0  0  0  0  0  0  0  0  0  0
    8.4782  -14.7446   22.5691 N   0  0  0  0  0  0  0  0  0  0  0  0
    7.9128  -13.5330   22.0168 C   0  0  0  0  0  0  0  0  0  0  0  0
    7.5831  -13.9926   20.5885 C   0  0  0  0  0  0  0  0  0  0  0  0
    8.8796  -14.7010   20.2269 C   0  0  0  0  0  0  0  0  0  0  0  0
    9.4079  -15.2064   21.5533 C   0  0  1  0  0  0  0  0  0  0  0  0
   10.7831  -14.6963   21.8071 C   0  0  0  0  0  0  0  0  0  0  0  0
   11.0122  -13.8120   22.6569 O   0  0  0  0  0  0  0  0  0  0  0  0
   11.8412  -15.2097   21.0870 O   0  0  0  0  0  0  0  0  0  0  0  0
  2  1  1  1
  2  3  1  0
  4  2  1  0
  5  4  1  0
  5  6  1  6
  7  5  1  0
  7  8  2  0
  9 10  1  0
 10 11  1  0
 11 13  1  0
 11 12  1  6
 13 14  1  1
 13 15  1  0
 14  7  1  0
 15 17  1  0
 16 15  2  0
 17 18  1  0
 17 21  1  0
 18 19  1  0
 19 20  1  0
 21 22  1  1
 21 20  1  0
 22 24  1  0
 23 22  2  0
M  END
$$$$
