LIP.pdb
     RDKit          3D

 24 24  0  0  1  0  0  0  0  0999 V2000
    5.9663  -17.0194   20.0399 C   0  0  0  0  0  0  0  0  0  0  0  0
    7.3326  -17.6302   20.2638 C   0  0  2  0  0  0  0  0  0  0  0  0
    7.3087  -19.1284   20.1375 C   0  0  0  0  0  0  0  0  0  0  0  0
    7.9197  -17.1671   21.5808 C   0  0  0  0  0  0  0  0  0  0  0  0
    7.8873  -15.6707   21.5945 C   0  0  2  0  0  0  0  0  0  0  0  0
    8.5602  -15.1915   20.4015 N   0  0  0  0  0  0  0  0  0  0  0  0
    8.5224  -15.0884   22.8022 C   0  0  0  0  0  0  0  0  0  0  0  0
    9.7619  -14.8720   22.8100 O   0  0  0  0  0  0  0  0  0  0  0  0
    5.6104  -11.9300   26.0975 C   0  0  0  0  0  0  0  0  0  0  0  0
    6.7296  -12.4909   25.2102 C   0  0  0  0  0  0  0  0  0  0  0  0
    7.2920  -13.6651   25.9861 C   0  0  2  0  0  0  0  0  0  0  0  0
    7.8191  -13.1231   27.2989 C   0  0  0  0  0  0  0  0  0  0  0  0
    8.4236  -14.3619   25.2139 C   0  0  2  0  0  0  0  0  0  0  0  0
    7.7835  -14.7628   23.9580 N   0  0  0  0  0  0  0  0  0  0  0  0
    8.9097  -15.5276   25.9626 C   0  0  0  0  0  0  0  0  0  0  0  0
    8.1004  -16.5104   26.0845 O   0  0  0  0  0  0  0  0  0  0  0  0
   10.2002  -15.6221   26.5458 N   0  0  0  0  0  0  0  0  0  0  0  0
   11.2040  -14.6033   26.7619 C   0  0  0  0  0  0  0  0  0  0  0  0
   12.4622  -15.3250   26.2560 C   0  0  0  0  0  0  0  0  0  0  0  0
   12.2952  -16.6719   26.9427 C   0  0  0  0  0  0  0  0  0  0  0  0
   10.7956  -16.8358   27.0766 C   0  0  1  0  0  0  0  0  0  0  0  0
   10.4091  -17.0507   28.4980 C   0  0  0  0  0  0  0  0  0  0  0  0
   10.6606  -18.1164   29.0960 O   0  0  0  0  0  0  0  0  0  0  0  0
    9.7537  -16.0486   29.1822 O   0  0  0  0  0  0  0  0  0  0  0  0
  2  1  1  1
  2  3  1  0
  4  2  1  0
  5  4  1  0
  5  6  1  6
  7  5  1  0
  7  8  2  0
  9 10  1  0
 10 11  1  0
 11 13  1  0
 11 12  1  1
 13 14  1  6
 13 15  1  0
 14  7  1  0
 15 17  1  0
 16 15  2  0
 17 18  1  0
 17 21  1  0
 18 19  1  0
 19 20  1  0
 21 22  1  1
 21 20  1  0
 22 24  1  0
 23 22  2  0
M  END
$$$$
