LIP.pdb
     RDKit          3D

 24 24  0  0  1  0  0  0  0  0999 V2000
    7.6146  -18.3163   20.0846 C   0  0  0  0  0  0  0  0  0  0  0  0
    9.0900  -18.4840   20.3762 C   0  0  2  0  0  0  0  0  0  0  0  0
    9.4835  -19.9314   20.4823 C   0  0  0  0  0  0  0  0  0  0  0  0
    9.4921  -17.6814   21.5960 C   0  0  0  0  0  0  0  0  0  0  0  0
    9.0097  -16.2781   21.3988 C   0  0  2  0  0  0  0  0  0  0  0  0
    9.7047  -15.7159   20.2558 N   0  0  0  0  0  0  0  0  0  0  0  0
    9.2197  -15.4204   22.5909 C   0  0  0  0  0  0  0  0  0  0  0  0
   10.3302  -14.8541   22.7617 O   0  0  0  0  0  0  0  0  0  0  0  0
    5.7667  -12.2689   26.2924 C   0  0  0  0  0  0  0  0  0  0  0  0
    7.2064  -12.6458   25.9184 C   0  0  0  0  0  0  0  0  0  0  0  0
    7.0923  -13.9938   25.2351 C   0  0  2  0  0  0  0  0  0  0  0  0
    6.4287  -14.9385   26.2162 C   0  0  0  0  0  0  0  0  0  0  0  0
    8.4709  -14.5404   24.8312 C   0  0  2  0  0  0  0  0  0  0  0  0
    8.2116  -15.2108   23.5541 N   0  0  0  0  0  0  0  0  0  0  0  0
    8.9611  -15.4858   25.8419 C   0  0  0  0  0  0  0  0  0  0  0  0
    8.7425  -16.7265   25.6220 O   0  0  0  0  0  0  0  0  0  0  0  0
    9.6496  -15.1071   27.0239 N   0  0  0  0  0  0  0  0  0  0  0  0
    9.6610  -13.8472   27.7347 C   0  0  0  0  0  0  0  0  0  0  0  0
   11.1665  -13.6687   27.9825 C   0  0  0  0  0  0  0  0  0  0  0  0
   11.5243  -15.0594   28.4839 C   0  0  0  0  0  0  0  0  0  0  0  0
   10.5252  -15.9684   27.7989 C   0  0  1  0  0  0  0  0  0  0  0  0
    9.7575  -16.7624   28.7970 C   0  0  0  0  0  0  0  0  0  0  0  0
    8.5540  -16.5356   29.0353 O   0  0  0  0  0  0  0  0  0  0  0  0
   10.3859  -17.7803   29.4831 O   0  0  0  0  0  0  0  0  0  0  0  0
  2  1  1  1
  2  3  1  0
  4  2  1  0
  5  4  1  0
  5  6  1  6
  7  5  1  0
  7  8  2  0
  9 10  1  0
 10 11  1  0
 11 13  1  0
 11 12  1  1
 13 14  1  6
 13 15  1  0
 14  7  1  0
 15 17  1  0
 16 15  2  0
 17 18  1  0
 17 21  1  0
 18 19  1  0
 19 20  1  0
 21 22  1  1
 21 20  1  0
 22 24  1  0
 23 22  2  0
M  END
$$$$
