LIP.pdb
     RDKit          3D

 24 24  0  0  1  0  0  0  0  0999 V2000
    6.8867  -21.4139   26.3501 C   0  0  0  0  0  0  0  0  0  0  0  0
    5.8307  -20.6501   25.5811 C   0  0  2  0  0  0  0  0  0  0  0  0
    4.6659  -21.5227   25.2029 C   0  0  0  0  0  0  0  0  0  0  0  0
    6.4396  -19.9440   24.3876 C   0  0  0  0  0  0  0  0  0  0  0  0
    5.6138  -18.7276   24.1062 C   0  0  2  0  0  0  0  0  0  0  0  0
    4.7532  -19.0156   22.9739 N   0  0  0  0  0  0  0  0  0  0  0  0
    6.4333  -17.5232   23.8256 C   0  0  0  0  0  0  0  0  0  0  0  0
    6.8772  -17.3297   22.6643 O   0  0  0  0  0  0  0  0  0  0  0  0
    5.9228  -12.9829   26.7747 C   0  0  0  0  0  0  0  0  0  0  0  0
    6.1460  -13.8376   25.5200 C   0  0  0  0  0  0  0  0  0  0  0  0
    7.4718  -14.5342   25.7526 C   0  0  2  0  0  0  0  0  0  0  0  0
    8.5422  -13.4624   25.7790 C   0  0  0  0  0  0  0  0  0  0  0  0
    7.7765  -15.5529   24.6427 C   0  0  2  0  0  0  0  0  0  0  0  0
    6.7394  -16.5728   24.8211 N   0  0  0  0  0  0  0  0  0  0  0  0
    9.1195  -16.1181   24.8236 C   0  0  0  0  0  0  0  0  0  0  0  0
    9.2968  -16.8605   25.8498 O   0  0  0  0  0  0  0  0  0  0  0  0
   10.2081  -15.8913   23.9416 N   0  0  0  0  0  0  0  0  0  0  0  0
   10.3616  -14.9235   22.8775 C   0  0  0  0  0  0  0  0  0  0  0  0
   10.9220  -15.8123   21.7568 C   0  0  0  0  0  0  0  0  0  0  0  0
   11.9905  -16.5744   22.5256 C   0  0  0  0  0  0  0  0  0  0  0  0
   11.4583  -16.6304   23.9424 C   0  0  1  0  0  0  0  0  0  0  0  0
   12.4338  -16.0416   24.9004 C   0  0  0  0  0  0  0  0  0  0  0  0
   12.2585  -14.9176   25.4129 O   0  0  0  0  0  0  0  0  0  0  0  0
   13.5672  -16.7512   25.2374 O   0  0  0  0  0  0  0  0  0  0  0  0
  2  1  1  6
  2  3  1  0
  4  2  1  0
  5  4  1  0
  5  6  1  6
  7  5  1  0
  7  8  2  0
  9 10  1  0
 10 11  1  0
 11 13  1  0
 11 12  1  6
 13 14  1  1
 13 15  1  0
 14  7  1  0
 15 17  1  0
 16 15  2  0
 17 18  1  0
 17 21  1  0
 18 19  1  0
 19 20  1  0
 21 22  1  1
 21 20  1  0
 22 24  1  0
 23 22  2  0
M  END
$$$$
