LIP.pdb
     RDKit          3D

 24 24  0  0  1  0  0  0  0  0999 V2000
    3.6047  -18.8350   23.0487 C   0  0  0  0  0  0  0  0  0  0  0  0
    4.7071  -19.2431   22.0957 C   0  0  2  0  0  0  0  0  0  0  0  0
    4.9501  -20.7269   22.1157 C   0  0  0  0  0  0  0  0  0  0  0  0
    5.9671  -18.4442   22.3567 C   0  0  0  0  0  0  0  0  0  0  0  0
    5.6150  -16.9923   22.2633 C   0  0  2  0  0  0  0  0  0  0  0  0
    5.3203  -16.6854   20.8760 N   0  0  0  0  0  0  0  0  0  0  0  0
    6.6921  -16.1018   22.7609 C   0  0  0  0  0  0  0  0  0  0  0  0
    7.6587  -15.8143   22.0084 O   0  0  0  0  0  0  0  0  0  0  0  0
    5.8604  -12.2687   26.4769 C   0  0  0  0  0  0  0  0  0  0  0  0
    6.4792  -12.9480   25.2480 C   0  0  0  0  0  0  0  0  0  0  0  0
    7.2956  -14.0965   25.8062 C   0  0  2  0  0  0  0  0  0  0  0  0
    8.4230  -13.4918   26.6175 C   0  0  0  0  0  0  0  0  0  0  0  0
    7.8698  -14.9779   24.6854 C   0  0  2  0  0  0  0  0  0  0  0  0
    6.6769  -15.5566   24.0611 N   0  0  0  0  0  0  0  0  0  0  0  0
    8.7373  -16.0196   25.2494 C   0  0  0  0  0  0  0  0  0  0  0  0
    8.1834  -16.8680   26.0299 O   0  0  0  0  0  0  0  0  0  0  0  0
   10.1264  -16.1348   24.9818 N   0  0  0  0  0  0  0  0  0  0  0  0
   11.0309  -15.2140   24.3288 C   0  0  0  0  0  0  0  0  0  0  0  0
   11.7747  -16.1644   23.3783 C   0  0  0  0  0  0  0  0  0  0  0  0
   12.0881  -17.3080   24.3310 C   0  0  0  0  0  0  0  0  0  0  0  0
   10.9600  -17.2686   25.3407 C   0  0  1  0  0  0  0  0  0  0  0  0
   11.4902  -17.1330   26.7251 C   0  0  0  0  0  0  0  0  0  0  0  0
   11.3696  -16.0761   27.3770 O   0  0  0  0  0  0  0  0  0  0  0  0
   12.1349  -18.2011   27.3128 O   0  0  0  0  0  0  0  0  0  0  0  0
  2  1  1  1
  2  3  1  0
  4  2  1  0
  5  4  1  0
  5  6  1  6
  7  5  1  0
  7  8  2  0
  9 10  1  0
 10 11  1  0
 11 13  1  0
 11 12  1  6
 13 14  1  1
 13 15  1  0
 14  7  1  0
 15 17  1  0
 16 15  2  0
 17 18  1  0
 17 21  1  0
 18 19  1  0
 19 20  1  0
 21 22  1  1
 21 20  1  0
 22 24  1  0
 23 22  2  0
M  END
$$$$
