LIP.pdb
     RDKit          3D

 24 24  0  0  1  0  0  0  0  0999 V2000
    9.1165  -18.5174   29.1729 C   0  0  0  0  0  0  0  0  0  0  0  0
    9.1152  -19.5318   28.0500 C   0  0  2  0  0  0  0  0  0  0  0  0
   10.4688  -20.1560   27.8516 C   0  0  0  0  0  0  0  0  0  0  0  0
    8.5629  -18.9247   26.7772 C   0  0  0  0  0  0  0  0  0  0  0  0
    7.2198  -18.3443   27.0932 C   0  0  2  0  0  0  0  0  0  0  0  0
    6.2548  -19.4273   27.1297 N   0  0  0  0  0  0  0  0  0  0  0  0
    6.7888  -17.3151   26.1156 C   0  0  0  0  0  0  0  0  0  0  0  0
    6.1015  -17.6543   25.1177 O   0  0  0  0  0  0  0  0  0  0  0  0
    6.6476  -12.0158   27.4363 C   0  0  0  0  0  0  0  0  0  0  0  0
    6.1865  -13.2804   26.6996 C   0  0  0  0  0  0  0  0  0  0  0  0
    7.3464  -13.6518   25.7974 C   0  0  2  0  0  0  0  0  0  0  0  0
    7.4545  -12.5725   24.7398 C   0  0  0  0  0  0  0  0  0  0  0  0
    7.1277  -15.0195   25.1310 C   0  0  2  0  0  0  0  0  0  0  0  0
    7.1225  -15.9529   26.2608 N   0  0  0  0  0  0  0  0  0  0  0  0
    8.2232  -15.3138   24.1989 C   0  0  0  0  0  0  0  0  0  0  0  0
    9.2810  -15.8292   24.7000 O   0  0  0  0  0  0  0  0  0  0  0  0
    8.1742  -15.0637   22.8026 N   0  0  0  0  0  0  0  0  0  0  0  0
    7.3279  -14.1693   22.0435 C   0  0  0  0  0  0  0  0  0  0  0  0
    6.8924  -15.0898   20.8933 C   0  0  0  0  0  0  0  0  0  0  0  0
    8.2330  -15.6998   20.5134 C   0  0  0  0  0  0  0  0  0  0  0  0
    9.0224  -15.6933   21.8059 C   0  0  1  0  0  0  0  0  0  0  0  0
   10.3043  -14.9544   21.6422 C   0  0  0  0  0  0  0  0  0  0  0  0
   10.4462  -13.7825   22.0460 O   0  0  0  0  0  0  0  0  0  0  0  0
   11.3717  -15.5747   21.0277 O   0  0  0  0  0  0  0  0  0  0  0  0
  2  1  1  1
  2  3  1  0
  4  2  1  0
  5  4  1  0
  5  6  1  6
  7  5  1  0
  7  8  2  0
  9 10  1  0
 10 11  1  0
 11 13  1  0
 11 12  1  6
 13 14  1  1
 13 15  1  0
 14  7  1  0
 15 17  1  0
 16 15  2  0
 17 18  1  0
 17 21  1  0
 18 19  1  0
 19 20  1  0
 21 22  1  6
 21 20  1  0
 22 24  1  0
 23 22  2  0
M  END
$$$$
