LIP.pdb
     RDKit          3D

 24 24  0  0  1  0  0  0  0  0999 V2000
    8.1440  -19.3471   27.3026 C   0  0  0  0  0  0  0  0  0  0  0  0
    8.1989  -20.1759   26.0377 C   0  0  2  0  0  0  0  0  0  0  0  0
    9.5693  -20.7455   25.7950 C   0  0  0  0  0  0  0  0  0  0  0  0
    7.6797  -19.3864   24.8541 C   0  0  0  0  0  0  0  0  0  0  0  0
    6.4432  -18.6657   25.2928 C   0  0  2  0  0  0  0  0  0  0  0  0
    5.2962  -19.4921   24.9655 N   0  0  0  0  0  0  0  0  0  0  0  0
    6.2989  -17.3287   24.6664 C   0  0  0  0  0  0  0  0  0  0  0  0
    5.6134  -17.2035   23.6187 O   0  0  0  0  0  0  0  0  0  0  0  0
    6.8921  -12.5762   27.3975 C   0  0  0  0  0  0  0  0  0  0  0  0
    6.3246  -13.5514   26.3575 C   0  0  0  0  0  0  0  0  0  0  0  0
    7.5032  -13.9109   25.4750 C   0  0  2  0  0  0  0  0  0  0  0  0
    7.9606  -12.6354   24.7973 C   0  0  0  0  0  0  0  0  0  0  0  0
    7.1181  -14.9578   24.4177 C   0  0  2  0  0  0  0  0  0  0  0  0
    6.9069  -16.1761   25.2045 N   0  0  0  0  0  0  0  0  0  0  0  0
    8.2077  -15.1290   23.4486 C   0  0  0  0  0  0  0  0  0  0  0  0
    9.1329  -15.9537   23.7641 O   0  0  0  0  0  0  0  0  0  0  0  0
    8.2891  -14.4448   22.2077 N   0  0  0  0  0  0  0  0  0  0  0  0
    7.5954  -13.2624   21.7462 C   0  0  0  0  0  0  0  0  0  0  0  0
    7.1586  -13.7122   20.3438 C   0  0  0  0  0  0  0  0  0  0  0  0
    8.4569  -14.3239   19.8400 C   0  0  0  0  0  0  0  0  0  0  0  0
    9.1433  -14.8212   21.0951 C   0  0  1  0  0  0  0  0  0  0  0  0
   10.5009  -14.2255   21.2302 C   0  0  0  0  0  0  0  0  0  0  0  0
   10.7448  -13.3198   22.0528 O   0  0  0  0  0  0  0  0  0  0  0  0
   11.5252  -14.6813   20.4272 O   0  0  0  0  0  0  0  0  0  0  0  0
  2  1  1  1
  2  3  1  0
  4  2  1  0
  5  4  1  0
  5  6  1  6
  7  5  1  0
  7  8  2  0
  9 10  1  0
 10 11  1  0
 11 13  1  0
 11 12  1  6
 13 14  1  1
 13 15  1  0
 14  7  1  0
 15 17  1  0
 16 15  2  0
 17 18  1  0
 17 21  1  0
 18 19  1  0
 19 20  1  0
 21 22  1  1
 21 20  1  0
 22 24  1  0
 23 22  2  0
M  END
$$$$
