QKI.pdb
     RDKit          3D

 27 26  0  0  1  0  0  0  0  0999 V2000
   23.7899  -13.2379  -15.6265 N   0  0  0  0  0  0  0  0  0  0  0  0
   23.7395  -13.6568  -16.9757 C   0  0  0  0  0  0  0  0  0  0  0  0
   24.1433  -14.8041  -17.2792 O   0  0  0  0  0  0  0  0  0  0  0  0
   23.2165  -12.7507  -18.0227 C   0  0  0  0  0  0  0  0  0  0  0  0
   22.6980  -11.4845  -17.3722 C   0  0  0  0  0  0  0  0  0  0  0  0
   21.2175  -11.5297  -17.1385 C   0  0  2  0  0  0  0  0  0  0  0  0
   20.4993  -11.9778  -18.3150 N   0  0  0  0  0  0  0  0  0  0  0  0
   20.7911  -10.1263  -16.7913 C   0  0  0  0  0  0  0  0  0  0  0  0
   21.0594   -9.1679  -17.5622 O   0  0  0  0  0  0  0  0  0  0  0  0
   20.0847   -9.8904  -15.5946 N   0  0  0  0  0  0  0  0  0  0  0  0
   19.6031   -8.6236  -15.1512 C   0  0  1  0  0  0  0  0  0  0  0  0
   18.4424   -8.8181  -14.2185 C   0  0  0  0  0  0  0  0  0  0  0  0
   17.2495   -9.1982  -15.0755 C   0  0  0  0  0  0  0  0  0  0  0  0
   16.0276   -9.5747  -14.2972 C   0  0  0  0  0  0  0  0  0  0  0  0
   14.9162   -9.8273  -15.3338 C   0  0  0  0  0  0  0  0  0  0  0  0
   13.6814  -10.1103  -14.6772 N   0  0  0  0  0  0  0  0  0  0  0  0
   20.7025   -7.7912  -14.5418 C   0  0  0  0  0  0  0  0  0  0  0  0
   21.4787   -8.3460  -13.7233 O   0  0  0  0  0  0  0  0  0  0  0  0
   24.1982   -5.4142  -17.4205 C   0  0  0  0  0  0  0  0  0  0  0  0
   23.3214   -5.9933  -16.3447 C   0  0  0  0  0  0  0  0  0  0  0  0
   22.6484   -4.9072  -15.5313 C   0  0  2  0  0  0  0  0  0  0  0  0
   23.7664   -4.0804  -14.8840 C   0  0  0  0  0  0  0  0  0  0  0  0
   21.7788   -5.4541  -14.4505 C   0  0  2  0  0  0  0  0  0  0  0  0
   20.8542   -6.4369  -14.8775 N   0  0  0  0  0  0  0  0  0  0  0  0
   21.3607   -4.3691  -13.5717 C   0  0  0  0  0  0  0  0  0  0  0  0
   21.9744   -3.8652  -12.4545 O   0  0  0  0  0  0  0  0  0  0  0  0
   20.2422   -3.7455  -13.8390 O   0  0  0  0  0  0  0  0  0  0  0  0
  2  1  1  0
  2  3  2  0
  4  5  1  0
  4  2  1  0
  5  6  1  0
  6  8  1  0
  6  7  1  6
  8  9  2  0
 10 11  1  0
 10  8  1  0
 12 13  1  0
 11 12  1  1
 13 14  1  0
 14 15  1  0
 16 15  1  0
 17 18  2  0
 17 11  1  0
 19 20  1  0
 20 21  1  0
 21 23  1  0
 21 22  1  1
 23 25  1  0
 23 24  1  6
 24 17  1  0
 25 26  1  0
 27 25  2  0
M  END
$$$$
