QKI.pdb
     RDKit          3D

 27 26  0  0  1  0  0  0  0  0999 V2000
   14.5957  -14.4319  -15.7248 N   0  0  0  0  0  0  0  0  0  0  0  0
   15.9066  -13.9566  -15.4924 C   0  0  0  0  0  0  0  0  0  0  0  0
   16.1558  -13.3314  -14.4349 O   0  0  0  0  0  0  0  0  0  0  0  0
   16.9766  -14.1924  -16.4875 C   0  0  0  0  0  0  0  0  0  0  0  0
   17.7874  -12.9239  -16.6574 C   0  0  0  0  0  0  0  0  0  0  0  0
   17.0276  -11.8560  -17.3859 C   0  0  2  0  0  0  0  0  0  0  0  0
   16.8317  -12.1909  -18.7824 N   0  0  0  0  0  0  0  0  0  0  0  0
   17.8452  -10.5942  -17.2797 C   0  0  0  0  0  0  0  0  0  0  0  0
   19.0832  -10.6140  -17.5071 O   0  0  0  0  0  0  0  0  0  0  0  0
   17.2141   -9.3847  -16.9253 N   0  0  0  0  0  0  0  0  0  0  0  0
   17.8663   -8.1290  -16.7491 C   0  0  1  0  0  0  0  0  0  0  0  0
   16.8437   -7.0341  -16.6452 C   0  0  0  0  0  0  0  0  0  0  0  0
   17.6082   -5.7266  -16.5561 C   0  0  0  0  0  0  0  0  0  0  0  0
   16.7400   -4.5081  -16.5089 C   0  0  0  0  0  0  0  0  0  0  0  0
   17.6939   -3.2984  -16.4983 C   0  0  0  0  0  0  0  0  0  0  0  0
   16.9501   -2.0809  -16.5200 N   0  0  0  0  0  0  0  0  0  0  0  0
   18.8118   -8.1514  -15.5750 C   0  0  0  0  0  0  0  0  0  0  0  0
   18.3810   -8.5891  -14.4782 O   0  0  0  0  0  0  0  0  0  0  0  0
   22.8713  -10.1382  -13.1802 C   0  0  0  0  0  0  0  0  0  0  0  0
   23.2625   -8.9529  -14.0189 C   0  0  0  0  0  0  0  0  0  0  0  0
   22.2834   -8.7261  -15.1521 C   0  0  2  0  0  0  0  0  0  0  0  0
   23.0953   -8.1962  -16.3407 C   0  0  0  0  0  0  0  0  0  0  0  0
   21.2334   -7.7233  -14.8125 C   0  0  2  0  0  0  0  0  0  0  0  0
   20.1333   -7.6963  -15.7025 N   0  0  0  0  0  0  0  0  0  0  0  0
   21.8697   -6.4869  -14.3759 C   0  0  0  0  0  0  0  0  0  0  0  0
   21.9259   -5.2671  -14.9987 O   0  0  0  0  0  0  0  0  0  0  0  0
   22.4947   -6.4789  -13.2267 O   0  0  0  0  0  0  0  0  0  0  0  0
  2  1  1  0
  2  3  2  0
  4  5  1  0
  4  2  1  0
  5  6  1  0
  6  8  1  0
  6  7  1  6
  8  9  2  0
 10 11  1  0
 10  8  1  0
 12 13  1  0
 11 12  1  1
 13 14  1  0
 14 15  1  0
 16 15  1  0
 17 18  2  0
 17 11  1  0
 19 20  1  0
 20 21  1  0
 21 23  1  0
 21 22  1  6
 23 25  1  0
 23 24  1  6
 24 17  1  0
 25 26  1  0
 27 25  2  0
M  END
$$$$
