QKI.pdb
     RDKit          3D

 27 26  0  0  1  0  0  0  0  0999 V2000
   22.6933  -12.6140  -20.3951 N   0  0  0  0  0  0  0  0  0  0  0  0
   21.9145  -13.6536  -19.8374 C   0  0  0  0  0  0  0  0  0  0  0  0
   21.9933  -14.8080  -20.3197 O   0  0  0  0  0  0  0  0  0  0  0  0
   21.0123  -13.3842  -18.6953 C   0  0  0  0  0  0  0  0  0  0  0  0
   21.0067  -11.8973  -18.4048 C   0  0  0  0  0  0  0  0  0  0  0  0
   21.1370  -11.6030  -16.9402 C   0  0  2  0  0  0  0  0  0  0  0  0
   20.5562  -12.6518  -16.1256 N   0  0  0  0  0  0  0  0  0  0  0  0
   20.4058  -10.3085  -16.6922 C   0  0  0  0  0  0  0  0  0  0  0  0
   20.6430   -9.2951  -17.4003 O   0  0  0  0  0  0  0  0  0  0  0  0
   19.4483  -10.2376  -15.6602 N   0  0  0  0  0  0  0  0  0  0  0  0
   18.6877   -9.0829  -15.3120 C   0  0  1  0  0  0  0  0  0  0  0  0
   17.5009   -9.4854  -14.4845 C   0  0  0  0  0  0  0  0  0  0  0  0
   16.4384   -9.9758  -15.4503 C   0  0  0  0  0  0  0  0  0  0  0  0
   15.2184  -10.5377  -14.7897 C   0  0  0  0  0  0  0  0  0  0  0  0
   14.2563  -10.9346  -15.9256 C   0  0  0  0  0  0  0  0  0  0  0  0
   13.0276  -11.4203  -15.3870 N   0  0  0  0  0  0  0  0  0  0  0  0
   19.5380   -8.0382  -14.6350 C   0  0  0  0  0  0  0  0  0  0  0  0
   20.3433   -8.4169  -13.7471 O   0  0  0  0  0  0  0  0  0  0  0  0
   23.8135   -4.5140  -15.6511 C   0  0  0  0  0  0  0  0  0  0  0  0
   22.4817   -4.4536  -14.9555 C   0  0  0  0  0  0  0  0  0  0  0  0
   21.5513   -5.5464  -15.4396 C   0  0  2  0  0  0  0  0  0  0  0  0
   21.2646   -5.2618  -16.9193 C   0  0  0  0  0  0  0  0  0  0  0  0
   20.2554   -5.5664  -14.7024 C   0  0  2  0  0  0  0  0  0  0  0  0
   19.4330   -6.6831  -14.9848 N   0  0  0  0  0  0  0  0  0  0  0  0
   19.6984   -4.2199  -14.6683 C   0  0  0  0  0  0  0  0  0  0  0  0
   19.9711   -3.1841  -13.8131 O   0  0  0  0  0  0  0  0  0  0  0  0
   18.8013   -3.8931  -15.5625 O   0  0  0  0  0  0  0  0  0  0  0  0
  2  1  1  0
  2  3  2  0
  4  5  1  0
  4  2  1  0
  5  6  1  0
  6  8  1  0
  6  7  1  1
  8  9  2  0
 10 11  1  0
 10  8  1  0
 12 13  1  0
 11 12  1  1
 13 14  1  0
 14 15  1  0
 16 15  1  0
 17 18  2  0
 17 11  1  0
 19 20  1  0
 20 21  1  0
 21 23  1  0
 21 22  1  6
 23 25  1  0
 23 24  1  6
 24 17  1  0
 25 26  1  0
 27 25  2  0
M  END
$$$$
