QKI.pdb
     RDKit          3D

 27 26  0  0  1  0  0  0  0  0999 V2000
   18.4909  -20.3951  -12.2740 N   0  0  0  0  0  0  0  0  0  0  0  0
   18.1455  -19.4630  -13.2791 C   0  0  0  0  0  0  0  0  0  0  0  0
   16.9376  -19.2807  -13.5603 O   0  0  0  0  0  0  0  0  0  0  0  0
   19.1985  -18.7087  -13.9954 C   0  0  0  0  0  0  0  0  0  0  0  0
   20.5484  -19.0471  -13.3969 C   0  0  0  0  0  0  0  0  0  0  0  0
   21.4521  -19.7295  -14.3800 C   0  0  2  0  0  0  0  0  0  0  0  0
   20.7283  -20.6629  -15.2199 N   0  0  0  0  0  0  0  0  0  0  0  0
   22.4857  -20.4733  -13.5736 C   0  0  0  0  0  0  0  0  0  0  0  0
   22.1694  -21.5055  -12.9261 O   0  0  0  0  0  0  0  0  0  0  0  0
   23.8158  -20.0073  -13.5493 N   0  0  0  0  0  0  0  0  0  0  0  0
   24.9179  -20.6750  -12.9387 C   0  0  1  0  0  0  0  0  0  0  0  0
   25.9536  -21.0015  -13.9759 C   0  0  0  0  0  0  0  0  0  0  0  0
   25.8969  -22.5017  -14.1958 C   0  0  0  0  0  0  0  0  0  0  0  0
   25.9961  -22.9176  -15.6303 C   0  0  0  0  0  0  0  0  0  0  0  0
   25.8210  -24.4481  -15.6492 C   0  0  0  0  0  0  0  0  0  0  0  0
   25.8520  -24.9337  -16.9905 N   0  0  0  0  0  0  0  0  0  0  0  0
   25.4817  -19.8822  -11.7870 C   0  0  0  0  0  0  0  0  0  0  0  0
   25.5936  -18.6378  -11.9254 O   0  0  0  0  0  0  0  0  0  0  0  0
   27.8634  -18.5174   -7.0490 C   0  0  0  0  0  0  0  0  0  0  0  0
   27.9803  -19.9400   -7.5220 C   0  0  0  0  0  0  0  0  0  0  0  0
   26.7665  -20.3609   -8.3245 C   0  0  2  0  0  0  0  0  0  0  0  0
   26.4039  -21.7800   -7.8693 C   0  0  0  0  0  0  0  0  0  0  0  0
   27.0288  -20.3878   -9.7920 C   0  0  2  0  0  0  0  0  0  0  0  0
   25.8711  -20.5148  -10.5962 N   0  0  0  0  0  0  0  0  0  0  0  0
   28.2124  -21.1962  -10.0563 C   0  0  0  0  0  0  0  0  0  0  0  0
   28.3050  -22.4808  -10.5255 O   0  0  0  0  0  0  0  0  0  0  0  0
   29.3894  -20.6711   -9.8320 O   0  0  0  0  0  0  0  0  0  0  0  0
  2  1  1  0
  2  3  2  0
  4  5  1  0
  4  2  1  0
  5  6  1  0
  6  8  1  0
  6  7  1  1
  8  9  2  0
 10 11  1  0
 10  8  1  0
 12 13  1  0
 11 12  1  6
 13 14  1  0
 14 15  1  0
 16 15  1  0
 17 18  2  0
 17 11  1  0
 19 20  1  0
 20 21  1  0
 21 23  1  0
 21 22  1  1
 23 25  1  0
 23 24  1  6
 24 17  1  0
 25 26  1  0
 27 25  2  0
M  END
$$$$
