QKI.pdb
     RDKit          3D

 27 26  0  0  1  0  0  0  0  0999 V2000
   25.5238  -29.2655  -18.8769 N   0  0  0  0  0  0  0  0  0  0  0  0
   25.8735  -30.5791  -18.4891 C   0  0  0  0  0  0  0  0  0  0  0  0
   25.7022  -31.5245  -19.2942 O   0  0  0  0  0  0  0  0  0  0  0  0
   26.4358  -30.8389  -17.1448 C   0  0  0  0  0  0  0  0  0  0  0  0
   26.5878  -29.5252  -16.4058 C   0  0  0  0  0  0  0  0  0  0  0  0
   27.7283  -28.7053  -16.9310 C   0  0  2  0  0  0  0  0  0  0  0  0
   29.0099  -29.2212  -16.4930 N   0  0  0  0  0  0  0  0  0  0  0  0
   27.5381  -27.3082  -16.3983 C   0  0  0  0  0  0  0  0  0  0  0  0
   27.8619  -27.0261  -15.2150 O   0  0  0  0  0  0  0  0  0  0  0  0
   26.9958  -26.3126  -17.2359 N   0  0  0  0  0  0  0  0  0  0  0  0
   26.7723  -24.9525  -16.8709 C   0  0  1  0  0  0  0  0  0  0  0  0
   27.3795  -24.0427  -17.8999 C   0  0  0  0  0  0  0  0  0  0  0  0
   28.8650  -24.3497  -17.9353 C   0  0  0  0  0  0  0  0  0  0  0  0
   29.6596  -23.4439  -18.8234 C   0  0  0  0  0  0  0  0  0  0  0  0
   31.1201  -23.9265  -18.7366 C   0  0  0  0  0  0  0  0  0  0  0  0
   31.9673  -23.0842  -19.5169 N   0  0  0  0  0  0  0  0  0  0  0  0
   25.3096  -24.6702  -16.6396 C   0  0  0  0  0  0  0  0  0  0  0  0
   24.4683  -25.3517  -17.2784 O   0  0  0  0  0  0  0  0  0  0  0  0
   22.2108  -20.8484  -12.7158 C   0  0  0  0  0  0  0  0  0  0  0  0
   22.2062  -21.7400  -13.9267 C   0  0  0  0  0  0  0  0  0  0  0  0
   23.6084  -22.1681  -14.3074 C   0  0  2  0  0  0  0  0  0  0  0  0
   24.3604  -20.8997  -14.7295 C   0  0  0  0  0  0  0  0  0  0  0  0
   23.6264  -23.1294  -15.4471 C   0  0  2  0  0  0  0  0  0  0  0  0
   24.8992  -23.6754  -15.7386 N   0  0  0  0  0  0  0  0  0  0  0  0
   22.7672  -22.6304  -16.5134 C   0  0  0  0  0  0  0  0  0  0  0  0
   23.1065  -22.0746  -17.7196 O   0  0  0  0  0  0  0  0  0  0  0  0
   21.4706  -22.6972  -16.3527 O   0  0  0  0  0  0  0  0  0  0  0  0
  2  1  1  0
  2  3  2  0
  4  5  1  0
  4  2  1  0
  5  6  1  0
  6  8  1  0
  6  7  1  1
  8  9  2  0
 10 11  1  0
 10  8  1  0
 12 13  1  0
 11 12  1  6
 13 14  1  0
 14 15  1  0
 16 15  1  0
 17 18  2  0
 17 11  1  0
 19 20  1  0
 20 21  1  0
 21 23  1  0
 21 22  1  6
 23 25  1  0
 23 24  1  6
 24 17  1  0
 25 26  1  0
 27 25  2  0
M  END
$$$$
