QKI.pdb
     RDKit          3D

 27 26  0  0  1  0  0  0  0  0999 V2000
   15.2002  -12.9928  -16.4231 N   0  0  0  0  0  0  0  0  0  0  0  0
   15.7296  -14.0144  -15.6017 C   0  0  0  0  0  0  0  0  0  0  0  0
   15.0295  -14.4819  -14.6730 O   0  0  0  0  0  0  0  0  0  0  0  0
   17.0982  -14.5283  -15.8332 C   0  0  0  0  0  0  0  0  0  0  0  0
   17.6721  -13.8760  -17.0743 C   0  0  0  0  0  0  0  0  0  0  0  0
   19.0879  -14.2958  -17.3351 C   0  0  2  0  0  0  0  0  0  0  0  0
   19.4514  -15.4717  -16.5697 N   0  0  0  0  0  0  0  0  0  0  0  0
   19.9642  -13.1387  -16.9288 C   0  0  0  0  0  0  0  0  0  0  0  0
   19.8165  -12.5889  -15.8061 O   0  0  0  0  0  0  0  0  0  0  0  0
   20.9569  -12.6739  -17.8150 N   0  0  0  0  0  0  0  0  0  0  0  0
   21.8918  -11.6325  -17.5413 C   0  0  1  0  0  0  0  0  0  0  0  0
   22.9154  -11.5660  -18.6381 C   0  0  0  0  0  0  0  0  0  0  0  0
   23.6931  -12.8680  -18.5922 C   0  0  0  0  0  0  0  0  0  0  0  0
   24.6597  -13.0475  -19.7210 C   0  0  0  0  0  0  0  0  0  0  0  0
   25.2359  -14.4688  -19.5741 C   0  0  0  0  0  0  0  0  0  0  0  0
   26.1558  -14.7419  -20.6300 N   0  0  0  0  0  0  0  0  0  0  0  0
   21.2033  -10.3113  -17.3110 C   0  0  0  0  0  0  0  0  0  0  0  0
   20.4383   -9.8793  -18.2102 O   0  0  0  0  0  0  0  0  0  0  0  0
   17.3838   -7.0399  -14.8628 C   0  0  0  0  0  0  0  0  0  0  0  0
   18.8780   -7.0060  -15.0294 C   0  0  0  0  0  0  0  0  0  0  0  0
   19.4353   -8.3818  -15.3304 C   0  0  2  0  0  0  0  0  0  0  0  0
   19.2507   -9.2228  -14.0611 C   0  0  0  0  0  0  0  0  0  0  0  0
   20.8868   -8.3522  -15.6706 C   0  0  2  0  0  0  0  0  0  0  0  0
   21.4109   -9.5846  -16.1284 N   0  0  0  0  0  0  0  0  0  0  0  0
   21.6002   -7.5625  -14.6748 C   0  0  0  0  0  0  0  0  0  0  0  0
   22.5042   -7.9646  -13.7262 O   0  0  0  0  0  0  0  0  0  0  0  0
   21.3875   -6.2724  -14.6324 O   0  0  0  0  0  0  0  0  0  0  0  0
  2  1  1  0
  2  3  2  0
  4  5  1  0
  4  2  1  0
  5  6  1  0
  6  8  1  0
  6  7  1  1
  8  9  2  0
 10 11  1  0
 10  8  1  0
 12 13  1  0
 11 12  1  6
 13 14  1  0
 14 15  1  0
 16 15  1  0
 17 18  2  0
 17 11  1  0
 19 20  1  0
 20 21  1  0
 21 23  1  0
 21 22  1  1
 23 25  1  0
 23 24  1  1
 24 17  1  0
 25 26  1  0
 27 25  2  0
M  END
$$$$
