QKI.pdb
     RDKit          3D

 27 26  0  0  1  0  0  0  0  0999 V2000
   20.2382  -20.5553  -13.4063 N   0  0  0  0  0  0  0  0  0  0  0  0
   20.6027  -21.4479  -14.4401 C   0  0  0  0  0  0  0  0  0  0  0  0
   20.7747  -21.0075  -15.6010 O   0  0  0  0  0  0  0  0  0  0  0  0
   20.7789  -22.8901  -14.1574 C   0  0  0  0  0  0  0  0  0  0  0  0
   22.2265  -23.1539  -13.7967 C   0  0  0  0  0  0  0  0  0  0  0  0
   23.1693  -22.2412  -14.5223 C   0  0  2  0  0  0  0  0  0  0  0  0
   23.5359  -22.7673  -15.8222 N   0  0  0  0  0  0  0  0  0  0  0  0
   24.4010  -22.1186  -13.6621 C   0  0  0  0  0  0  0  0  0  0  0  0
   25.0386  -23.1451  -13.3095 O   0  0  0  0  0  0  0  0  0  0  0  0
   24.8397  -20.8428  -13.2540 N   0  0  0  0  0  0  0  0  0  0  0  0
   25.9467  -20.5819  -12.3939 C   0  0  1  0  0  0  0  0  0  0  0  0
   26.3586  -19.1430  -12.5164 C   0  0  0  0  0  0  0  0  0  0  0  0
   27.4558  -19.0881  -13.5630 C   0  0  0  0  0  0  0  0  0  0  0  0
   26.9586  -18.9715  -14.9701 C   0  0  0  0  0  0  0  0  0  0  0  0
   28.2078  -18.8120  -15.8575 C   0  0  0  0  0  0  0  0  0  0  0  0
   27.8364  -18.7820  -17.2349 N   0  0  0  0  0  0  0  0  0  0  0  0
   25.6528  -20.9808  -10.9701 C   0  0  0  0  0  0  0  0  0  0  0  0
   24.5772  -21.5882  -10.7369 O   0  0  0  0  0  0  0  0  0  0  0  0
   28.5499  -19.5752   -5.5636 C   0  0  0  0  0  0  0  0  0  0  0  0
   27.4947  -20.3555   -6.2979 C   0  0  0  0  0  0  0  0  0  0  0  0
   27.4613  -19.9974   -7.7692 C   0  0  2  0  0  0  0  0  0  0  0  0
   27.0979  -18.5097   -7.8557 C   0  0  0  0  0  0  0  0  0  0  0  0
   26.4419  -20.7777   -8.5277 C   0  0  2  0  0  0  0  0  0  0  0  0
   26.5528  -20.6820   -9.9354 N   0  0  0  0  0  0  0  0  0  0  0  0
   25.1472  -20.6470   -7.8713 C   0  0  0  0  0  0  0  0  0  0  0  0
   24.6037  -21.3917   -6.8570 O   0  0  0  0  0  0  0  0  0  0  0  0
   24.3411  -19.6950   -8.2656 O   0  0  0  0  0  0  0  0  0  0  0  0
  2  1  1  0
  2  3  2  0
  4  5  1  0
  4  2  1  0
  5  6  1  0
  6  8  1  0
  6  7  1  6
  8  9  2  0
 10 11  1  0
 10  8  1  0
 12 13  1  0
 11 12  1  1
 13 14  1  0
 14 15  1  0
 16 15  1  0
 17 18  2  0
 17 11  1  0
 19 20  1  0
 20 21  1  0
 21 23  1  0
 21 22  1  1
 23 25  1  0
 23 24  1  6
 24 17  1  0
 25 26  1  0
 27 25  2  0
M  END
$$$$
