QKI.pdb
     RDKit          3D

 27 26  0  0  1  0  0  0  0  0999 V2000
   19.2299  -24.3854   -7.8135 N   0  0  0  0  0  0  0  0  0  0  0  0
   18.0998  -24.1819   -8.6381 C   0  0  0  0  0  0  0  0  0  0  0  0
   16.9593  -24.4592   -8.1981 O   0  0  0  0  0  0  0  0  0  0  0  0
   18.2590  -23.6475  -10.0092 C   0  0  0  0  0  0  0  0  0  0  0  0
   19.7107  -23.2772  -10.2342 C   0  0  0  0  0  0  0  0  0  0  0  0
   19.8670  -21.8827  -10.7630 C   0  0  2  0  0  0  0  0  0  0  0  0
   18.6774  -21.4332  -11.4586 N   0  0  0  0  0  0  0  0  0  0  0  0
   21.0308  -21.9108  -11.7204 C   0  0  0  0  0  0  0  0  0  0  0  0
   22.1333  -22.4080  -11.3714 O   0  0  0  0  0  0  0  0  0  0  0  0
   20.8780  -21.3775  -13.0162 N   0  0  0  0  0  0  0  0  0  0  0  0
   21.8916  -21.3276  -14.0178 C   0  0  1  0  0  0  0  0  0  0  0  0
   21.2920  -20.9066  -15.3287 C   0  0  0  0  0  0  0  0  0  0  0  0
   22.3982  -20.9887  -16.3639 C   0  0  0  0  0  0  0  0  0  0  0  0
   22.0054  -20.5028  -17.7241 C   0  0  0  0  0  0  0  0  0  0  0  0
   23.2167  -20.7595  -18.6408 C   0  0  0  0  0  0  0  0  0  0  0  0
   22.9871  -20.2004  -19.9333 N   0  0  0  0  0  0  0  0  0  0  0  0
   23.0452  -20.4511  -13.6008 C   0  0  0  0  0  0  0  0  0  0  0  0
   22.8310  -19.5657  -12.7345 O   0  0  0  0  0  0  0  0  0  0  0  0
   27.6825  -20.9036  -10.5641 C   0  0  0  0  0  0  0  0  0  0  0  0
   27.2874  -20.2537  -11.8614 C   0  0  0  0  0  0  0  0  0  0  0  0
   26.0350  -20.8803  -12.4384 C   0  0  2  0  0  0  0  0  0  0  0  0
   26.3633  -22.3524  -12.7174 C   0  0  0  0  0  0  0  0  0  0  0  0
   25.6087  -20.2409  -13.7162 C   0  0  2  0  0  0  0  0  0  0  0  0
   24.3200  -20.6180  -14.1636 N   0  0  0  0  0  0  0  0  0  0  0  0
   26.7370  -20.2048  -14.6381 C   0  0  0  0  0  0  0  0  0  0  0  0
   27.6912  -19.2363  -14.8121 O   0  0  0  0  0  0  0  0  0  0  0  0
   26.9174  -21.2199  -15.4433 O   0  0  0  0  0  0  0  0  0  0  0  0
  2  1  1  0
  2  3  2  0
  4  5  1  0
  4  2  1  0
  5  6  1  0
  6  8  1  0
  6  7  1  6
  8  9  2  0
 10 11  1  0
 10  8  1  0
 12 13  1  0
 11 12  1  6
 13 14  1  0
 14 15  1  0
 16 15  1  0
 17 18  2  0
 17 11  1  0
 19 20  1  0
 20 21  1  0
 21 23  1  0
 21 22  1  6
 23 25  1  0
 23 24  1  6
 24 17  1  0
 25 26  1  0
 27 25  2  0
M  END
$$$$
