QKI.pdb
     RDKit          3D

 27 26  0  0  1  0  0  0  0  0999 V2000
   16.5368  -18.4101  -12.9615 N   0  0  0  0  0  0  0  0  0  0  0  0
   17.3251  -17.2426  -12.8428 C   0  0  0  0  0  0  0  0  0  0  0  0
   16.8158  -16.2025  -12.3632 O   0  0  0  0  0  0  0  0  0  0  0  0
   18.7389  -17.2453  -13.2812 C   0  0  0  0  0  0  0  0  0  0  0  0
   19.0546  -18.5737  -13.9375 C   0  0  0  0  0  0  0  0  0  0  0  0
   19.7608  -18.4067  -15.2498 C   0  0  2  0  0  0  0  0  0  0  0  0
   18.9153  -18.7752  -16.3678 N   0  0  0  0  0  0  0  0  0  0  0  0
   20.9668  -19.3099  -15.2102 C   0  0  0  0  0  0  0  0  0  0  0  0
   20.9511  -20.3671  -14.5270 O   0  0  0  0  0  0  0  0  0  0  0  0
   22.1177  -18.9655  -15.9476 N   0  0  0  0  0  0  0  0  0  0  0  0
   23.3181  -19.7319  -16.0181 C   0  0  1  0  0  0  0  0  0  0  0  0
   24.0027  -19.4861  -17.3319 C   0  0  0  0  0  0  0  0  0  0  0  0
   25.3067  -20.2612  -17.2992 C   0  0  0  0  0  0  0  0  0  0  0  0
   25.1378  -21.7468  -17.2287 C   0  0  0  0  0  0  0  0  0  0  0  0
   26.5559  -22.3459  -17.2907 C   0  0  0  0  0  0  0  0  0  0  0  0
   26.4929  -23.7712  -17.2670 N   0  0  0  0  0  0  0  0  0  0  0  0
   24.2183  -19.4682  -14.8379 C   0  0  0  0  0  0  0  0  0  0  0  0
   24.3383  -18.2818  -14.4401 O   0  0  0  0  0  0  0  0  0  0  0  0
   23.6222  -20.8295  -10.0555 C   0  0  0  0  0  0  0  0  0  0  0  0
   24.0901  -20.3226  -11.3918 C   0  0  0  0  0  0  0  0  0  0  0  0
   25.3391  -21.0441  -11.8541 C   0  0  2  0  0  0  0  0  0  0  0  0
   26.4093  -20.8108  -10.7804 C   0  0  0  0  0  0  0  0  0  0  0  0
   25.8536  -20.5269  -13.1544 C   0  0  2  0  0  0  0  0  0  0  0  0
   24.9030  -20.5160  -14.2029 N   0  0  0  0  0  0  0  0  0  0  0  0
   27.2022  -21.0334  -13.3760 C   0  0  0  0  0  0  0  0  0  0  0  0
   28.3977  -20.3629  -13.3734 O   0  0  0  0  0  0  0  0  0  0  0  0
   27.3574  -22.3098  -13.6171 O   0  0  0  0  0  0  0  0  0  0  0  0
  2  1  1  0
  2  3  2  0
  4  5  1  0
  4  2  1  0
  5  6  1  0
  6  8  1  0
  6  7  1  6
  8  9  2  0
 10 11  1  0
 10  8  1  0
 12 13  1  0
 11 12  1  6
 13 14  1  0
 14 15  1  0
 16 15  1  0
 17 18  2  0
 17 11  1  0
 19 20  1  0
 20 21  1  0
 21 23  1  0
 21 22  1  1
 23 25  1  0
 23 24  1  6
 24 17  1  0
 25 26  1  0
 27 25  2  0
M  END
$$$$
