QKI.pdb
     RDKit          3D

 27 26  0  0  1  0  0  0  0  0999 V2000
   15.8500  -22.0927  -11.4471 N   0  0  0  0  0  0  0  0  0  0  0  0
   16.9040  -21.2427  -11.8533 C   0  0  0  0  0  0  0  0  0  0  0  0
   16.6618  -20.2920  -12.6335 O   0  0  0  0  0  0  0  0  0  0  0  0
   18.2821  -21.4716  -11.3642 C   0  0  0  0  0  0  0  0  0  0  0  0
   18.8368  -22.7266  -12.0065 C   0  0  0  0  0  0  0  0  0  0  0  0
   19.1890  -22.5196  -13.4493 C   0  0  2  0  0  0  0  0  0  0  0  0
   18.5954  -23.5321  -14.2999 N   0  0  0  0  0  0  0  0  0  0  0  0
   20.6912  -22.5990  -13.5437 C   0  0  0  0  0  0  0  0  0  0  0  0
   21.3267  -23.4725  -12.8974 O   0  0  0  0  0  0  0  0  0  0  0  0
   21.3852  -21.6877  -14.3652 N   0  0  0  0  0  0  0  0  0  0  0  0
   22.7722  -21.7530  -14.6896 C   0  0  1  0  0  0  0  0  0  0  0  0
   22.9796  -21.3525  -16.1220 C   0  0  0  0  0  0  0  0  0  0  0  0
   24.4611  -21.5064  -16.4107 C   0  0  0  0  0  0  0  0  0  0  0  0
   24.8597  -21.1258  -17.8024 C   0  0  0  0  0  0  0  0  0  0  0  0
   26.3895  -21.2931  -17.8745 C   0  0  0  0  0  0  0  0  0  0  0  0
   26.8651  -20.9457  -19.1741 N   0  0  0  0  0  0  0  0  0  0  0  0
   23.6074  -20.9391  -13.7342 C   0  0  0  0  0  0  0  0  0  0  0  0
   23.2153  -19.7796  -13.4474 O   0  0  0  0  0  0  0  0  0  0  0  0
   24.9598  -21.1866   -8.8069 C   0  0  0  0  0  0  0  0  0  0  0  0
   24.7962  -20.8092  -10.2533 C   0  0  0  0  0  0  0  0  0  0  0  0
   26.0040  -21.2127  -11.0734 C   0  0  2  0  0  0  0  0  0  0  0  0
   27.2079  -20.4640  -10.4882 C   0  0  0  0  0  0  0  0  0  0  0  0
   25.8715  -20.8434  -12.5119 C   0  0  2  0  0  0  0  0  0  0  0  0
   24.7879  -21.4599  -13.1821 N   0  0  0  0  0  0  0  0  0  0  0  0
   27.1943  -20.7940  -13.1217 C   0  0  0  0  0  0  0  0  0  0  0  0
   28.1537  -19.8178  -13.0474 O   0  0  0  0  0  0  0  0  0  0  0  0
   27.5790  -21.8031  -13.8600 O   0  0  0  0  0  0  0  0  0  0  0  0
  2  1  1  0
  2  3  2  0
  4  5  1  0
  4  2  1  0
  5  6  1  0
  6  8  1  0
  6  7  1  6
  8  9  2  0
 10 11  1  0
 10  8  1  0
 12 13  1  0
 11 12  1  6
 13 14  1  0
 14 15  1  0
 16 15  1  0
 17 18  2  0
 17 11  1  0
 19 20  1  0
 20 21  1  0
 21 23  1  0
 21 22  1  1
 23 25  1  0
 23 24  1  6
 24 17  1  0
 25 26  1  0
 27 25  2  0
M  END
$$$$
