QKI.pdb
     RDKit          3D

 27 26  0  0  1  0  0  0  0  0999 V2000
   26.6289  -26.3938  -16.6220 N   0  0  0  0  0  0  0  0  0  0  0  0
   27.4695  -26.6360  -17.7325 C   0  0  0  0  0  0  0  0  0  0  0  0
   27.2140  -27.5934  -18.5003 O   0  0  0  0  0  0  0  0  0  0  0  0
   28.6420  -25.7694  -17.9880 C   0  0  0  0  0  0  0  0  0  0  0  0
   28.6950  -24.6801  -16.9366 C   0  0  0  0  0  0  0  0  0  0  0  0
   27.6222  -23.6502  -17.1293 C   0  0  2  0  0  0  0  0  0  0  0  0
   27.8243  -22.8814  -18.3412 N   0  0  0  0  0  0  0  0  0  0  0  0
   27.6827  -22.7334  -15.9344 C   0  0  0  0  0  0  0  0  0  0  0  0
   28.4107  -23.0175  -14.9475 O   0  0  0  0  0  0  0  0  0  0  0  0
   26.9187  -21.5490  -15.9276 N   0  0  0  0  0  0  0  0  0  0  0  0
   26.8517  -20.6109  -14.8558 C   0  0  1  0  0  0  0  0  0  0  0  0
   26.4612  -19.2606  -15.3845 C   0  0  0  0  0  0  0  0  0  0  0  0
   27.7054  -18.6572  -16.0091 C   0  0  0  0  0  0  0  0  0  0  0  0
   27.4375  -17.4990  -16.9186 C   0  0  0  0  0  0  0  0  0  0  0  0
   28.7958  -17.1085  -17.5319 C   0  0  0  0  0  0  0  0  0  0  0  0
   28.6388  -16.0021  -18.4192 N   0  0  0  0  0  0  0  0  0  0  0  0
   25.9396  -21.0871  -13.7540 C   0  0  0  0  0  0  0  0  0  0  0  0
   24.9381  -21.7768  -14.0730 O   0  0  0  0  0  0  0  0  0  0  0  0
   26.3180  -20.7546   -7.5095 C   0  0  0  0  0  0  0  0  0  0  0  0
   25.6021  -21.2103   -8.7509 C   0  0  0  0  0  0  0  0  0  0  0  0
   26.1125  -20.4918   -9.9827 C   0  0  2  0  0  0  0  0  0  0  0  0
   25.8157  -19.0005   -9.7814 C   0  0  0  0  0  0  0  0  0  0  0  0
   25.4370  -20.9435  -11.2329 C   0  0  2  0  0  0  0  0  0  0  0  0
   26.2002  -20.7692  -12.4120 N   0  0  0  0  0  0  0  0  0  0  0  0
   24.0325  -20.5564  -11.1898 C   0  0  0  0  0  0  0  0  0  0  0  0
   22.9473  -21.2589  -10.7343 O   0  0  0  0  0  0  0  0  0  0  0  0
   23.6972  -19.3741  -11.6380 O   0  0  0  0  0  0  0  0  0  0  0  0
  2  1  1  0
  2  3  2  0
  4  5  1  0
  4  2  1  0
  5  6  1  0
  6  8  1  0
  6  7  1  6
  8  9  2  0
 10 11  1  0
 10  8  1  0
 12 13  1  0
 11 12  1  6
 13 14  1  0
 14 15  1  0
 16 15  1  0
 17 18  2  0
 17 11  1  0
 19 20  1  0
 20 21  1  0
 21 23  1  0
 21 22  1  1
 23 25  1  0
 23 24  1  6
 24 17  1  0
 25 26  1  0
 27 25  2  0
M  END
$$$$
