QKI.pdb
     RDKit          3D

 27 26  0  0  1  0  0  0  0  0999 V2000
   23.7025  -21.5987  -21.2527 N   0  0  0  0  0  0  0  0  0  0  0  0
   22.8872  -20.9904  -20.2710 C   0  0  0  0  0  0  0  0  0  0  0  0
   22.8185  -19.7399  -20.2170 O   0  0  0  0  0  0  0  0  0  0  0  0
   22.1216  -21.8200  -19.3136 C   0  0  0  0  0  0  0  0  0  0  0  0
   22.6494  -21.5807  -17.9139 C   0  0  0  0  0  0  0  0  0  0  0  0
   23.1422  -22.8413  -17.2682 C   0  0  2  0  0  0  0  0  0  0  0  0
   23.9263  -23.6455  -18.1843 N   0  0  0  0  0  0  0  0  0  0  0  0
   21.9211  -23.6130  -16.8379 C   0  0  0  0  0  0  0  0  0  0  0  0
   20.9318  -23.7250  -17.6082 O   0  0  0  0  0  0  0  0  0  0  0  0
   21.8922  -24.2143  -15.5633 N   0  0  0  0  0  0  0  0  0  0  0  0
   20.8119  -24.9770  -15.0300 C   0  0  1  0  0  0  0  0  0  0  0  0
   21.3282  -25.9393  -13.9991 C   0  0  0  0  0  0  0  0  0  0  0  0
   20.2948  -27.0430  -13.8726 C   0  0  0  0  0  0  0  0  0  0  0  0
   20.5511  -28.2295  -14.7485 C   0  0  0  0  0  0  0  0  0  0  0  0
   19.3586  -29.1831  -14.5437 C   0  0  0  0  0  0  0  0  0  0  0  0
   19.4988  -30.3366  -15.3718 N   0  0  0  0  0  0  0  0  0  0  0  0
   19.7138  -24.0920  -14.4974 C   0  0  0  0  0  0  0  0  0  0  0  0
   20.0380  -23.1299  -13.7560 O   0  0  0  0  0  0  0  0  0  0  0  0
   17.4384  -21.3156  -15.9134 C   0  0  0  0  0  0  0  0  0  0  0  0
   16.7501  -22.4969  -16.5396 C   0  0  0  0  0  0  0  0  0  0  0  0
   16.1949  -23.4376  -15.4902 C   0  0  2  0  0  0  0  0  0  0  0  0
   14.9659  -22.7493  -14.8830 C   0  0  0  0  0  0  0  0  0  0  0  0
   17.1686  -23.7172  -14.3961 C   0  0  2  0  0  0  0  0  0  0  0  0
   18.3695  -24.3355  -14.8187 N   0  0  0  0  0  0  0  0  0  0  0  0
   16.4516  -24.2042  -13.2244 C   0  0  0  0  0  0  0  0  0  0  0  0
   16.0121  -23.5177  -12.1224 O   0  0  0  0  0  0  0  0  0  0  0  0
   16.1549  -25.4766  -13.1587 O   0  0  0  0  0  0  0  0  0  0  0  0
  2  1  1  0
  2  3  2  0
  4  5  1  0
  4  2  1  0
  5  6  1  0
  6  8  1  0
  6  7  1  6
  8  9  2  0
 10 11  1  0
 10  8  1  0
 12 13  1  0
 11 12  1  1
 13 14  1  0
 14 15  1  0
 16 15  1  0
 17 18  2  0
 17 11  1  0
 19 20  1  0
 20 21  1  0
 21 23  1  0
 21 22  1  1
 23 25  1  0
 23 24  1  6
 24 17  1  0
 25 26  1  0
 27 25  2  0
M  END
$$$$
