RSY.pdb
     RDKit          3D

 30 30  0  0  1  0  0  0  0  0999 V2000
    8.7297  -20.6549   25.9543 N   0  0  0  0  0  0  0  0  0  0  0  0
    7.7044  -21.6334   25.8614 C   0  0  0  0  0  0  0  0  0  0  0  0
    7.3653  -22.3357   26.8780 N   0  0  0  0  0  0  0  0  0  0  0  0
    7.0438  -21.8408   24.6303 N   0  0  0  0  0  0  0  0  0  0  0  0
    7.5638  -21.2078   23.3934 C   0  0  0  0  0  0  0  0  0  0  0  0
    6.3982  -20.8719   22.5366 C   0  0  0  0  0  0  0  0  0  0  0  0
    6.4425  -19.4790   22.0332 C   0  0  0  0  0  0  0  0  0  0  0  0
    6.5614  -19.2828   20.5704 C   0  0  2  0  0  0  0  0  0  0  0  0
    6.3058  -20.4262   19.7514 N   0  0  0  0  0  0  0  0  0  0  0  0
    7.9251  -18.7112   20.3010 C   0  0  0  0  0  0  0  0  0  0  0  0
    8.8971  -19.4439   20.0045 O   0  0  0  0  0  0  0  0  0  0  0  0
    6.7179  -23.1461   26.8507 O   0  0  0  0  0  0  0  0  0  0  0  0
   10.5697  -15.0398   19.0735 C   0  0  0  0  0  0  0  0  0  0  0  0
    9.2903  -15.4860   19.4177 C   0  0  2  0  0  0  0  0  0  0  0  0
    9.4819  -16.8091   20.1582 N   0  0  0  0  0  0  0  0  0  0  0  0
    8.1205  -17.3167   20.3822 C   0  0  0  0  0  0  0  0  0  0  0  0
   10.1160  -16.5718   21.4749 O   0  0  0  0  0  0  0  0  0  0  0  0
    9.4773  -15.9766   22.3746 O   0  0  0  0  0  0  0  0  0  0  0  0
   10.5645  -21.9950   25.2320 C   0  0  0  0  0  0  0  0  0  0  0  0
   10.7547  -20.6315   24.9579 C   0  0  0  0  0  0  0  0  0  0  0  0
    9.7313  -19.7168   25.1128 C   0  0  0  0  0  0  0  0  0  0  0  0
    9.9323  -18.4020   24.8435 C   0  0  0  0  0  0  0  0  0  0  0  0
   11.1632  -17.9574   24.4100 C   0  0  0  0  0  0  0  0  0  0  0  0
   11.4172  -16.5360   24.0995 C   0  0  1  0  0  0  0  0  0  0  0  0
   12.2065  -16.3501   22.8050 N   0  0  0  0  0  0  0  0  0  0  0  0
   11.4309  -16.9923   21.7706 C   0  0  0  0  0  0  0  0  0  0  0  0
   13.5551  -16.9417   22.8881 O   0  0  0  0  0  0  0  0  0  0  0  0
   13.9182  -17.9149   21.9761 C   0  0  0  0  0  0  0  0  0  0  0  0
   12.1842  -18.8512   24.2521 C   0  0  0  0  0  0  0  0  0  0  0  0
   11.9718  -20.1838   24.5278 O   0  0  0  0  0  0  0  0  0  0  0  0
  1  2  1  0
  2  3  2  0
  4  2  1  0
  5  4  1  0
  5  6  1  0
  7  6  1  0
  7  8  1  0
  8  9  1  6
 10 15  1  0
 10  8  1  0
 11 10  2  0
 12 13  1  0
 14 13  1  6
 14 16  1  0
 14 15  1  0
 16 17  2  0
 18 19  1  0
 19 29  2  0
 19 20  1  0
 20 21  2  0
 21 22  1  0
 22 23  1  0
 24 23  1  6
 25 24  1  0
 25 16  1  0
 26 27  1  0
 26 24  1  0
 28 22  2  0
 29 28  1  0
 30 26  2  0
M  END
$$$$
