RSY.pdb
     RDKit          3D

 30 30  0  0  1  0  0  0  0  0999 V2000
    9.5152  -17.3116   12.8528 N   0  0  0  0  0  0  0  0  0  0  0  0
   10.8308  -16.9602   13.2568 C   0  0  0  0  0  0  0  0  0  0  0  0
   11.8541  -17.3487   12.5906 N   0  0  0  0  0  0  0  0  0  0  0  0
   11.0210  -16.1696   14.4116 N   0  0  0  0  0  0  0  0  0  0  0  0
    9.8488  -15.6968   15.1885 C   0  0  0  0  0  0  0  0  0  0  0  0
    9.7835  -16.4997   16.4362 C   0  0  0  0  0  0  0  0  0  0  0  0
    9.5358  -15.6682   17.6374 C   0  0  0  0  0  0  0  0  0  0  0  0
    8.2059  -15.0301   17.7664 C   0  0  2  0  0  0  0  0  0  0  0  0
    8.0072  -13.8181   17.0350 N   0  0  0  0  0  0  0  0  0  0  0  0
    7.9399  -14.8338   19.2326 C   0  0  0  0  0  0  0  0  0  0  0  0
    8.1817  -13.7452   19.8036 O   0  0  0  0  0  0  0  0  0  0  0  0
   12.8400  -17.1569   12.8509 O   0  0  0  0  0  0  0  0  0  0  0  0
    6.4979  -17.8906   21.5212 C   0  0  0  0  0  0  0  0  0  0  0  0
    5.8824  -16.6426   21.6552 C   0  0  1  0  0  0  0  0  0  0  0  0
    6.9584  -15.5990   21.3569 N   0  0  0  0  0  0  0  0  0  0  0  0
    7.4044  -15.8975   19.9883 C   0  0  0  0  0  0  0  0  0  0  0  0
    8.1084  -15.7732   22.2730 O   0  0  0  0  0  0  0  0  0  0  0  0
    9.0489  -16.5376   21.9523 O   0  0  0  0  0  0  0  0  0  0  0  0
    5.1867  -11.6905   27.6334 C   0  0  0  0  0  0  0  0  0  0  0  0
    6.3027  -12.2520   26.9933 C   0  0  0  0  0  0  0  0  0  0  0  0
    7.3238  -12.8418   27.7128 C   0  0  0  0  0  0  0  0  0  0  0  0
    8.3957  -13.3801   27.0780 C   0  0  0  0  0  0  0  0  0  0  0  0
    8.4828  -13.3469   25.7025 C   0  0  0  0  0  0  0  0  0  0  0  0
    9.6372  -13.9152   24.9774 C   0  0  1  0  0  0  0  0  0  0  0  0
    9.3371  -15.2892   24.3813 N   0  0  0  0  0  0  0  0  0  0  0  0
    8.1976  -15.1062   23.5141 C   0  0  0  0  0  0  0  0  0  0  0  0
    9.0443  -16.2931   25.4215 O   0  0  0  0  0  0  0  0  0  0  0  0
   10.0623  -16.7071   26.2599 C   0  0  0  0  0  0  0  0  0  0  0  0
    7.4803  -12.7666   24.9784 C   0  0  0  0  0  0  0  0  0  0  0  0
    6.3959  -12.2227   25.6305 O   0  0  0  0  0  0  0  0  0  0  0  0
  1  2  1  0
  2  3  2  0
  4  2  1  0
  5  4  1  0
  5  6  1  0
  7  6  1  0
  7  8  1  0
  8  9  1  6
 10 15  1  0
 10  8  1  0
 11 10  2  0
 12 13  1  0
 14 13  1  6
 14 16  1  0
 14 15  1  0
 16 17  2  0
 18 19  1  0
 19 29  2  0
 19 20  1  0
 20 21  2  0
 21 22  1  0
 22 23  1  0
 24 23  1  6
 25 24  1  0
 25 16  1  0
 26 27  1  0
 26 24  1  0
 28 22  2  0
 29 28  1  0
 30 26  2  0
M  END
$$$$
