RSY.pdb
     RDKit          3D

 30 30  0  0  1  0  0  0  0  0999 V2000
    7.6481  -14.7611   14.1555 N   0  0  0  0  0  0  0  0  0  0  0  0
    8.4569  -15.1330   15.2623 C   0  0  0  0  0  0  0  0  0  0  0  0
    9.3775  -16.0160   15.1426 N   0  0  0  0  0  0  0  0  0  0  0  0
    8.2476  -14.5229   16.5188 N   0  0  0  0  0  0  0  0  0  0  0  0
    7.8495  -13.0956   16.5935 C   0  0  0  0  0  0  0  0  0  0  0  0
    7.5318  -12.7916   18.0121 C   0  0  0  0  0  0  0  0  0  0  0  0
    7.6892  -13.9696   18.8971 C   0  0  0  0  0  0  0  0  0  0  0  0
    8.7024  -13.8870   19.9737 C   0  0  2  0  0  0  0  0  0  0  0  0
   10.0699  -13.8430   19.5596 N   0  0  0  0  0  0  0  0  0  0  0  0
    8.4532  -15.0306   20.9166 C   0  0  0  0  0  0  0  0  0  0  0  0
    7.3173  -15.2489   21.3979 O   0  0  0  0  0  0  0  0  0  0  0  0
    9.9865  -16.3475   15.9145 O   0  0  0  0  0  0  0  0  0  0  0  0
   10.0905  -19.0713   22.8254 C   0  0  0  0  0  0  0  0  0  0  0  0
   10.3272  -18.0153   21.9404 C   0  0  1  0  0  0  0  0  0  0  0  0
    9.2282  -16.9849   22.1979 N   0  0  0  0  0  0  0  0  0  0  0  0
    9.5204  -15.8820   21.2709 C   0  0  0  0  0  0  0  0  0  0  0  0
    9.3231  -16.4705   23.5829 O   0  0  0  0  0  0  0  0  0  0  0  0
   10.2346  -15.6648   23.8861 O   0  0  0  0  0  0  0  0  0  0  0  0
    6.7107  -10.3284   26.6083 C   0  0  0  0  0  0  0  0  0  0  0  0
    6.8615  -11.7230   26.5551 C   0  0  0  0  0  0  0  0  0  0  0  0
    7.9074  -12.3081   25.8681 C   0  0  0  0  0  0  0  0  0  0  0  0
    8.0385  -13.6582   25.8270 C   0  0  0  0  0  0  0  0  0  0  0  0
    7.1283  -14.4689   26.4712 C   0  0  0  0  0  0  0  0  0  0  0  0
    7.2339  -15.9417   26.4419 C   0  0  2  0  0  0  0  0  0  0  0  0
    8.6026  -16.4225   25.9636 N   0  0  0  0  0  0  0  0  0  0  0  0
    8.4184  -16.8515   24.5975 C   0  0  0  0  0  0  0  0  0  0  0  0
    9.1225  -17.5274   26.7910 O   0  0  0  0  0  0  0  0  0  0  0  0
    9.8713  -17.2297   27.9141 C   0  0  0  0  0  0  0  0  0  0  0  0
    6.0889  -13.9037   27.1541 C   0  0  0  0  0  0  0  0  0  0  0  0
    5.9633  -12.5327   27.1910 O   0  0  0  0  0  0  0  0  0  0  0  0
  1  2  1  0
  2  3  2  0
  4  2  1  0
  5  4  1  0
  5  6  1  0
  7  6  1  0
  7  8  1  0
  8  9  1  6
 10 15  1  0
 10  8  1  0
 11 10  2  0
 12 13  1  0
 14 13  1  6
 14 16  1  0
 14 15  1  0
 16 17  2  0
 18 19  1  0
 19 29  2  0
 19 20  1  0
 20 21  2  0
 21 22  1  0
 22 23  1  0
 24 23  1  6
 25 24  1  0
 25 16  1  0
 26 27  1  0
 26 24  1  0
 28 22  2  0
 29 28  1  0
 30 26  2  0
M  END
$$$$
