RSY.pdb
     RDKit          3D

 30 30  0  0  1  0  0  0  0  0999 V2000
    8.8419  -16.0444   16.1955 N   0  0  0  0  0  0  0  0  0  0  0  0
    8.2678  -14.8532   15.6771 C   0  0  0  0  0  0  0  0  0  0  0  0
    7.3554  -14.8943   14.7785 N   0  0  0  0  0  0  0  0  0  0  0  0
    8.7059  -13.5987   16.1561 N   0  0  0  0  0  0  0  0  0  0  0  0
    8.1227  -13.0337   17.3978 C   0  0  0  0  0  0  0  0  0  0  0  0
    7.3274  -14.1059   18.0487 C   0  0  0  0  0  0  0  0  0  0  0  0
    7.5669  -14.1876   19.5087 C   0  0  0  0  0  0  0  0  0  0  0  0
    8.9684  -14.3257   19.9662 C   0  0  2  0  0  0  0  0  0  0  0  0
    9.9278  -14.7023   18.9757 N   0  0  0  0  0  0  0  0  0  0  0  0
    8.9727  -15.2841   21.1240 C   0  0  0  0  0  0  0  0  0  0  0  0
    8.1989  -15.1395   22.0986 O   0  0  0  0  0  0  0  0  0  0  0  0
    6.9759  -14.0678   14.2791 O   0  0  0  0  0  0  0  0  0  0  0  0
   12.0662  -17.8008   21.6203 C   0  0  0  0  0  0  0  0  0  0  0  0
   10.8364  -18.3811   21.9450 C   0  0  1  0  0  0  0  0  0  0  0  0
    9.9021  -17.2291   22.3133 N   0  0  0  0  0  0  0  0  0  0  0  0
    9.8671  -16.3746   21.1176 C   0  0  0  0  0  0  0  0  0  0  0  0
   10.4721  -16.4455   23.4327 O   0  0  0  0  0  0  0  0  0  0  0  0
   11.2746  -15.5125   23.1936 O   0  0  0  0  0  0  0  0  0  0  0  0
    6.1186  -10.9187   28.0739 C   0  0  0  0  0  0  0  0  0  0  0  0
    6.7241  -11.9443   27.3310 C   0  0  0  0  0  0  0  0  0  0  0  0
    7.9070  -12.5280   27.7412 C   0  0  0  0  0  0  0  0  0  0  0  0
    8.4789  -13.5186   27.0109 C   0  0  0  0  0  0  0  0  0  0  0  0
    7.8877  -13.9590   25.8459 C   0  0  0  0  0  0  0  0  0  0  0  0
    8.4845  -15.0288   25.0210 C   0  0  1  0  0  0  0  0  0  0  0  0
    9.7247  -15.6444   25.6663 N   0  0  0  0  0  0  0  0  0  0  0  0
   10.1483  -16.7043   24.7823 C   0  0  0  0  0  0  0  0  0  0  0  0
    9.4443  -16.1717   27.0149 O   0  0  0  0  0  0  0  0  0  0  0  0
    8.6071  -17.2635   27.1478 C   0  0  0  0  0  0  0  0  0  0  0  0
    6.7178  -13.3903   25.4283 C   0  0  0  0  0  0  0  0  0  0  0  0
    6.1440  -12.3856   26.1754 O   0  0  0  0  0  0  0  0  0  0  0  0
  1  2  1  0
  2  3  2  0
  4  2  1  0
  5  4  1  0
  5  6  1  0
  7  6  1  0
  7  8  1  0
  8  9  1  6
 10 15  1  0
 10  8  1  0
 11 10  2  0
 12 13  1  0
 14 13  1  6
 14 16  1  0
 14 15  1  0
 16 17  2  0
 18 19  1  0
 19 29  2  0
 19 20  1  0
 20 21  2  0
 21 22  1  0
 22 23  1  0
 24 23  1  6
 25 24  1  0
 25 16  1  0
 26 27  1  0
 26 24  1  0
 28 22  2  0
 29 28  1  0
 30 26  2  0
M  END
$$$$
