RSY.pdb
     RDKit          3D

 30 30  0  0  1  0  0  0  0  0999 V2000
    7.4157  -13.0917   15.2719 N   0  0  0  0  0  0  0  0  0  0  0  0
    8.5159  -13.8322   15.7807 C   0  0  0  0  0  0  0  0  0  0  0  0
    9.1596  -14.6554   15.0393 N   0  0  0  0  0  0  0  0  0  0  0  0
    8.9118  -13.6629   17.1259 N   0  0  0  0  0  0  0  0  0  0  0  0
    8.0522  -12.8968   18.0615 C   0  0  0  0  0  0  0  0  0  0  0  0
    7.0029  -13.8194   18.5650 C   0  0  0  0  0  0  0  0  0  0  0  0
    7.5170  -14.7683   19.5804 C   0  0  0  0  0  0  0  0  0  0  0  0
    7.8949  -16.1243   19.1213 C   0  0  2  0  0  0  0  0  0  0  0  0
    6.8388  -16.9416   18.6113 N   0  0  0  0  0  0  0  0  0  0  0  0
    8.6111  -16.8016   20.2560 C   0  0  0  0  0  0  0  0  0  0  0  0
    8.0083  -17.1515   21.2971 O   0  0  0  0  0  0  0  0  0  0  0  0
    9.9845  -15.2072   15.3419 O   0  0  0  0  0  0  0  0  0  0  0  0
   12.6588  -17.0744   20.3215 C   0  0  0  0  0  0  0  0  0  0  0  0
   11.9826  -18.2454   20.6762 C   0  0  1  0  0  0  0  0  0  0  0  0
   10.6315  -17.8070   21.2402 N   0  0  0  0  0  0  0  0  0  0  0  0
    9.9951  -17.0522   20.1510 C   0  0  0  0  0  0  0  0  0  0  0  0
   10.8281  -16.8950   22.3897 O   0  0  0  0  0  0  0  0  0  0  0  0
   10.8535  -15.6555   22.2031 O   0  0  0  0  0  0  0  0  0  0  0  0
   10.2844  -14.0116   30.6610 C   0  0  0  0  0  0  0  0  0  0  0  0
   10.1778  -14.6378   29.4092 C   0  0  0  0  0  0  0  0  0  0  0  0
    9.6695  -13.9705   28.3117 C   0  0  0  0  0  0  0  0  0  0  0  0
    9.5734  -14.5909   27.1086 C   0  0  0  0  0  0  0  0  0  0  0  0
    9.9822  -15.8994   26.9622 C   0  0  0  0  0  0  0  0  0  0  0  0
    9.8856  -16.6098   25.6709 C   0  0  1  0  0  0  0  0  0  0  0  0
   11.1417  -16.4481   24.8169 N   0  0  0  0  0  0  0  0  0  0  0  0
   10.9914  -17.3642   23.7112 C   0  0  0  0  0  0  0  0  0  0  0  0
   12.3707  -16.7454   25.5763 O   0  0  0  0  0  0  0  0  0  0  0  0
   13.0779  -15.7019   26.1435 C   0  0  0  0  0  0  0  0  0  0  0  0
   10.4866  -16.5714   28.0393 C   0  0  0  0  0  0  0  0  0  0  0  0
   10.5807  -15.9343   29.2567 O   0  0  0  0  0  0  0  0  0  0  0  0
  1  2  1  0
  2  3  2  0
  4  2  1  0
  5  4  1  0
  5  6  1  0
  7  6  1  0
  7  8  1  0
  8  9  1  1
 10 15  1  0
 10  8  1  0
 11 10  2  0
 12 13  1  0
 14 13  1  6
 14 16  1  0
 14 15  1  0
 16 17  2  0
 18 19  1  0
 19 29  2  0
 19 20  1  0
 20 21  2  0
 21 22  1  0
 22 23  1  0
 24 23  1  6
 25 24  1  0
 25 16  1  0
 26 27  1  0
 26 24  1  0
 28 22  2  0
 29 28  1  0
 30 26  2  0
M  END
$$$$
