RSY.pdb
     RDKit          3D

 30 30  0  0  1  0  0  0  0  0999 V2000
   11.7543  -21.7491   27.0307 N   0  0  0  0  0  0  0  0  0  0  0  0
   11.1720  -22.4150   25.9194 C   0  0  0  0  0  0  0  0  0  0  0  0
   10.9154  -23.6697   25.9593 N   0  0  0  0  0  0  0  0  0  0  0  0
   10.8684  -21.6873   24.7475 N   0  0  0  0  0  0  0  0  0  0  0  0
   11.1896  -20.2410   24.6681 C   0  0  0  0  0  0  0  0  0  0  0  0
   10.7163  -19.7476   23.3497 C   0  0  0  0  0  0  0  0  0  0  0  0
   10.9357  -18.2929   23.1725 C   0  0  0  0  0  0  0  0  0  0  0  0
   10.5155  -17.6883   21.8879 C   0  0  2  0  0  0  0  0  0  0  0  0
   11.4820  -17.6940   20.8348 N   0  0  0  0  0  0  0  0  0  0  0  0
   10.0344  -16.2948   22.1811 C   0  0  0  0  0  0  0  0  0  0  0  0
   10.8340  -15.3415   22.3270 O   0  0  0  0  0  0  0  0  0  0  0  0
   10.4839  -24.2125   25.1874 O   0  0  0  0  0  0  0  0  0  0  0  0
    6.8512  -12.9910   21.7358 C   0  0  0  0  0  0  0  0  0  0  0  0
    7.1944  -14.3311   21.5340 C   0  0  2  0  0  0  0  0  0  0  0  0
    8.2293  -14.6751   22.6048 N   0  0  0  0  0  0  0  0  0  0  0  0
    8.6502  -16.0491   22.2951 C   0  0  0  0  0  0  0  0  0  0  0  0
    7.6006  -14.6685   23.9452 O   0  0  0  0  0  0  0  0  0  0  0  0
    6.9094  -15.6477   24.3128 O   0  0  0  0  0  0  0  0  0  0  0  0
   12.1223  -16.9349   28.3537 C   0  0  0  0  0  0  0  0  0  0  0  0
   11.1535  -15.9723   28.0292 C   0  0  0  0  0  0  0  0  0  0  0  0
   11.3386  -15.0891   26.9834 C   0  0  0  0  0  0  0  0  0  0  0  0
   10.3916  -14.1647   26.6830 C   0  0  0  0  0  0  0  0  0  0  0  0
    9.2276  -14.0919   27.4182 C   0  0  0  0  0  0  0  0  0  0  0  0
    8.1783  -13.0945   27.1261 C   0  0  2  0  0  0  0  0  0  0  0  0
    7.1265  -13.6180   26.1499 N   0  0  0  0  0  0  0  0  0  0  0  0
    7.7457  -13.5912   24.8460 C   0  0  0  0  0  0  0  0  0  0  0  0
    5.9014  -12.7967   26.1618 O   0  0  0  0  0  0  0  0  0  0  0  0
    5.0461  -12.8833   27.2442 C   0  0  0  0  0  0  0  0  0  0  0  0
    9.0315  -14.9590   28.4554 C   0  0  0  0  0  0  0  0  0  0  0  0
    9.9976  -15.8943   28.7535 O   0  0  0  0  0  0  0  0  0  0  0  0
  1  2  1  0
  2  3  2  0
  4  2  1  0
  5  4  1  0
  5  6  1  0
  7  6  1  0
  7  8  1  0
  8  9  1  6
 10 15  1  0
 10  8  1  0
 11 10  2  0
 12 13  1  0
 14 13  1  6
 14 16  1  0
 14 15  1  0
 16 17  2  0
 18 19  1  0
 19 29  2  0
 19 20  1  0
 20 21  2  0
 21 22  1  0
 22 23  1  0
 24 23  1  1
 25 24  1  0
 25 16  1  0
 26 27  1  0
 26 24  1  0
 28 22  2  0
 29 28  1  0
 30 26  2  0
M  END
$$$$
