RSY.pdb
     RDKit          3D

 30 30  0  0  1  0  0  0  0  0999 V2000
    8.4785  -13.1192   14.8293 N   0  0  0  0  0  0  0  0  0  0  0  0
    7.9702  -14.3505   15.3223 C   0  0  0  0  0  0  0  0  0  0  0  0
    8.0379  -15.4221   14.6233 N   0  0  0  0  0  0  0  0  0  0  0  0
    7.3788  -14.4010   16.6039 N   0  0  0  0  0  0  0  0  0  0  0  0
    7.3363  -13.1829   17.4499 C   0  0  0  0  0  0  0  0  0  0  0  0
    8.5099  -13.2264   18.3590 C   0  0  0  0  0  0  0  0  0  0  0  0
    8.3127  -14.1488   19.5017 C   0  0  0  0  0  0  0  0  0  0  0  0
    9.3892  -14.2231   20.5156 C   0  0  2  0  0  0  0  0  0  0  0  0
   10.6881  -14.5842   20.0405 N   0  0  0  0  0  0  0  0  0  0  0  0
    8.9248  -15.1554   21.5993 C   0  0  0  0  0  0  0  0  0  0  0  0
    7.8471  -14.9671   22.2097 O   0  0  0  0  0  0  0  0  0  0  0  0
    7.7702  -16.3672   14.9576 O   0  0  0  0  0  0  0  0  0  0  0  0
   11.3139  -18.1672   22.8244 C   0  0  0  0  0  0  0  0  0  0  0  0
    9.9584  -18.4977   22.7366 C   0  0  1  0  0  0  0  0  0  0  0  0
    9.1846  -17.1972   22.9503 N   0  0  0  0  0  0  0  0  0  0  0  0
    9.7175  -16.2709   21.9407 C   0  0  0  0  0  0  0  0  0  0  0  0
    9.4740  -16.6440   24.2927 O   0  0  0  0  0  0  0  0  0  0  0  0
   10.4614  -15.8885   24.4546 O   0  0  0  0  0  0  0  0  0  0  0  0
    6.2588  -10.8584   25.2478 C   0  0  0  0  0  0  0  0  0  0  0  0
    6.6450  -12.1013   25.7736 C   0  0  0  0  0  0  0  0  0  0  0  0
    7.8956  -12.2905   26.3290 C   0  0  0  0  0  0  0  0  0  0  0  0
    8.2528  -13.4988   26.8331 C   0  0  0  0  0  0  0  0  0  0  0  0
    7.3718  -14.5586   26.7990 C   0  0  0  0  0  0  0  0  0  0  0  0
    7.7278  -15.8898   27.3304 C   0  0  2  0  0  0  0  0  0  0  0  0
    9.0227  -16.4341   26.7302 N   0  0  0  0  0  0  0  0  0  0  0  0
    8.6754  -16.9325   25.4206 C   0  0  0  0  0  0  0  0  0  0  0  0
    9.6095  -17.5057   27.5567 O   0  0  0  0  0  0  0  0  0  0  0  0
   10.1789  -17.1792   28.7732 C   0  0  0  0  0  0  0  0  0  0  0  0
    6.1318  -14.3857   26.2524 C   0  0  0  0  0  0  0  0  0  0  0  0
    5.7772  -13.1561   25.7431 O   0  0  0  0  0  0  0  0  0  0  0  0
  1  2  1  0
  2  3  2  0
  4  2  1  0
  5  4  1  0
  5  6  1  0
  7  6  1  0
  7  8  1  0
  8  9  1  6
 10 15  1  0
 10  8  1  0
 11 10  2  0
 12 13  1  0
 14 13  1  6
 14 16  1  0
 14 15  1  0
 16 17  2  0
 18 19  1  0
 19 29  2  0
 19 20  1  0
 20 21  2  0
 21 22  1  0
 22 23  1  0
 24 23  1  6
 25 24  1  0
 25 16  1  0
 26 27  1  0
 26 24  1  0
 28 22  2  0
 29 28  1  0
 30 26  2  0
M  END
$$$$
