RSY.pdb
     RDKit          3D

 30 30  0  0  1  0  0  0  0  0999 V2000
    8.9020  -15.4637   15.0241 N   0  0  0  0  0  0  0  0  0  0  0  0
    7.9788  -14.4620   15.4259 C   0  0  0  0  0  0  0  0  0  0  0  0
    7.6949  -13.4766   14.6578 N   0  0  0  0  0  0  0  0  0  0  0  0
    7.3598  -14.5477   16.6926 N   0  0  0  0  0  0  0  0  0  0  0  0
    8.1688  -14.8717   17.8934 C   0  0  0  0  0  0  0  0  0  0  0  0
    8.6883  -16.2528   17.7255 C   0  0  0  0  0  0  0  0  0  0  0  0
    9.0170  -16.8998   19.0175 C   0  0  0  0  0  0  0  0  0  0  0  0
    8.0839  -17.9321   19.5235 C   0  0  2  0  0  0  0  0  0  0  0  0
    7.0687  -18.3720   18.6184 N   0  0  0  0  0  0  0  0  0  0  0  0
    7.4886  -17.4142   20.8028 C   0  0  0  0  0  0  0  0  0  0  0  0
    6.6472  -16.4860   20.8067 O   0  0  0  0  0  0  0  0  0  0  0  0
    7.0633  -12.6921   14.9069 O   0  0  0  0  0  0  0  0  0  0  0  0
    6.8059  -19.0648   24.0653 C   0  0  0  0  0  0  0  0  0  0  0  0
    6.6526  -17.6754   24.0415 C   0  0  1  0  0  0  0  0  0  0  0  0
    7.8231  -17.1283   23.2252 N   0  0  0  0  0  0  0  0  0  0  0  0
    7.8831  -17.9839   22.0313 C   0  0  0  0  0  0  0  0  0  0  0  0
    9.0889  -17.2841   23.9773 O   0  0  0  0  0  0  0  0  0  0  0  0
    9.4632  -18.4258   24.3352 O   0  0  0  0  0  0  0  0  0  0  0  0
    6.1024  -10.5818   28.1406 C   0  0  0  0  0  0  0  0  0  0  0  0
    6.6386  -11.5935   27.3285 C   0  0  0  0  0  0  0  0  0  0  0  0
    7.9746  -11.9380   27.3960 C   0  0  0  0  0  0  0  0  0  0  0  0
    8.4768  -12.9186   26.6037 C   0  0  0  0  0  0  0  0  0  0  0  0
    7.6602  -13.5879   25.7171 C   0  0  0  0  0  0  0  0  0  0  0  0
    8.1724  -14.6548   24.8336 C   0  0  2  0  0  0  0  0  0  0  0  0
    9.5024  -15.2294   25.3175 N   0  0  0  0  0  0  0  0  0  0  0  0
    9.9098  -16.1867   24.3167 C   0  0  0  0  0  0  0  0  0  0  0  0
    9.3797  -15.8760   26.6375 O   0  0  0  0  0  0  0  0  0  0  0  0
    8.4336  -16.8683   26.8132 C   0  0  0  0  0  0  0  0  0  0  0  0
    6.3370  -13.2572   25.6398 C   0  0  0  0  0  0  0  0  0  0  0  0
    5.8354  -12.2609   26.4475 O   0  0  0  0  0  0  0  0  0  0  0  0
  1  2  1  0
  2  3  2  0
  4  2  1  0
  5  4  1  0
  5  6  1  0
  7  6  1  0
  7  8  1  0
  8  9  1  6
 10 15  1  0
 10  8  1  0
 11 10  2  0
 12 13  1  0
 14 13  1  6
 14 16  1  0
 14 15  1  0
 16 17  2  0
 18 19  1  0
 19 29  2  0
 19 20  1  0
 20 21  2  0
 21 22  1  0
 22 23  1  0
 24 23  1  6
 25 24  1  0
 25 16  1  0
 26 27  1  0
 26 24  1  0
 28 22  2  0
 29 28  1  0
 30 26  2  0
M  END
$$$$
