RSY.pdb
     RDKit          3D

 30 30  0  0  1  0  0  0  0  0999 V2000
    8.4384  -14.9258   18.0977 N   0  0  0  0  0  0  0  0  0  0  0  0
    8.5516  -13.5614   18.4756 C   0  0  0  0  0  0  0  0  0  0  0  0
    8.4447  -12.6233   17.6094 N   0  0  0  0  0  0  0  0  0  0  0  0
    8.7861  -13.2263   19.8275 N   0  0  0  0  0  0  0  0  0  0  0  0
    8.5518  -14.2323   20.8926 C   0  0  0  0  0  0  0  0  0  0  0  0
    7.1181  -14.1580   21.2729 C   0  0  0  0  0  0  0  0  0  0  0  0
    6.7550  -15.1379   22.3235 C   0  0  0  0  0  0  0  0  0  0  0  0
    7.1773  -16.5431   22.1248 C   0  0  2  0  0  0  0  0  0  0  0  0
    6.3400  -17.3483   21.2918 N   0  0  0  0  0  0  0  0  0  0  0  0
    7.3498  -17.1590   23.4850 C   0  0  0  0  0  0  0  0  0  0  0  0
    6.3651  -17.4887   24.1859 O   0  0  0  0  0  0  0  0  0  0  0  0
    8.4838  -11.6090   17.8245 O   0  0  0  0  0  0  0  0  0  0  0  0
   10.6473  -19.0703   24.6907 C   0  0  0  0  0  0  0  0  0  0  0  0
    9.3826  -19.2429   25.2611 C   0  0  1  0  0  0  0  0  0  0  0  0
    8.7691  -17.8478   25.3752 N   0  0  0  0  0  0  0  0  0  0  0  0
    8.6496  -17.3737   23.9888 C   0  0  0  0  0  0  0  0  0  0  0  0
    9.6874  -16.9425   26.1025 O   0  0  0  0  0  0  0  0  0  0  0  0
   10.6845  -16.4630   25.5128 O   0  0  0  0  0  0  0  0  0  0  0  0
    6.2074  -12.1178   25.0379 C   0  0  0  0  0  0  0  0  0  0  0  0
    7.0319  -12.7473   25.9837 C   0  0  0  0  0  0  0  0  0  0  0  0
    6.5180  -13.2580   27.1598 C   0  0  0  0  0  0  0  0  0  0  0  0
    7.3293  -13.8637   28.0634 C   0  0  0  0  0  0  0  0  0  0  0  0
    8.6817  -13.9792   27.8217 C   0  0  0  0  0  0  0  0  0  0  0  0
    9.5967  -14.6246   28.7848 C   0  0  2  0  0  0  0  0  0  0  0  0
   10.4276  -15.7377   28.1493 N   0  0  0  0  0  0  0  0  0  0  0  0
    9.4895  -16.5869   27.4544 C   0  0  0  0  0  0  0  0  0  0  0  0
   11.1827  -16.5089   29.1546 O   0  0  0  0  0  0  0  0  0  0  0  0
   12.1582  -15.8698   29.8966 C   0  0  0  0  0  0  0  0  0  0  0  0
    9.2034  -13.4783   26.6627 C   0  0  0  0  0  0  0  0  0  0  0  0
    8.3730  -12.8652   25.7509 O   0  0  0  0  0  0  0  0  0  0  0  0
  1  2  1  0
  2  3  2  0
  4  2  1  0
  5  4  1  0
  5  6  1  0
  7  6  1  0
  7  8  1  0
  8  9  1  6
 10 15  1  0
 10  8  1  0
 11 10  2  0
 12 13  1  0
 14 13  1  6
 14 16  1  0
 14 15  1  0
 16 17  2  0
 18 19  1  0
 19 29  2  0
 19 20  1  0
 20 21  2  0
 21 22  1  0
 22 23  1  0
 24 23  1  6
 25 24  1  0
 25 16  1  0
 26 27  1  0
 26 24  1  0
 28 22  2  0
 29 28  1  0
 30 26  2  0
M  END
$$$$
