RSY.pdb
     RDKit          3D

 30 30  0  0  1  0  0  0  0  0999 V2000
    7.2138  -12.8676   16.2465 N   0  0  0  0  0  0  0  0  0  0  0  0
    8.0647  -13.6123   15.3871 C   0  0  0  0  0  0  0  0  0  0  0  0
    8.5859  -13.0779   14.3457 N   0  0  0  0  0  0  0  0  0  0  0  0
    8.3450  -14.9654   15.6798 N   0  0  0  0  0  0  0  0  0  0  0  0
    7.8689  -15.5634   16.9514 C   0  0  0  0  0  0  0  0  0  0  0  0
    8.8533  -15.2154   18.0076 C   0  0  0  0  0  0  0  0  0  0  0  0
    8.6420  -15.9802   19.2590 C   0  0  0  0  0  0  0  0  0  0  0  0
    7.3230  -15.8597   19.9209 C   0  0  2  0  0  0  0  0  0  0  0  0
    6.4817  -14.7933   19.4755 N   0  0  0  0  0  0  0  0  0  0  0  0
    7.5668  -15.7816   21.4020 C   0  0  0  0  0  0  0  0  0  0  0  0
    7.9544  -14.7230   21.9484 O   0  0  0  0  0  0  0  0  0  0  0  0
    9.2428  -13.5545   13.6992 O   0  0  0  0  0  0  0  0  0  0  0  0
    6.8022  -17.6738   25.6702 C   0  0  0  0  0  0  0  0  0  0  0  0
    6.6666  -17.8302   24.2876 C   0  0  2  0  0  0  0  0  0  0  0  0
    7.5892  -16.7945   23.6459 N   0  0  0  0  0  0  0  0  0  0  0  0
    7.3551  -16.9249   22.2004 C   0  0  0  0  0  0  0  0  0  0  0  0
    9.0047  -17.1283   23.9231 O   0  0  0  0  0  0  0  0  0  0  0  0
    9.6165  -17.9204   23.1682 O   0  0  0  0  0  0  0  0  0  0  0  0
    9.4069  -14.6894   30.9760 C   0  0  0  0  0  0  0  0  0  0  0  0
    9.9907  -14.9396   29.7242 C   0  0  0  0  0  0  0  0  0  0  0  0
   11.0727  -15.7880   29.5915 C   0  0  0  0  0  0  0  0  0  0  0  0
   11.6251  -16.0189   28.3736 C   0  0  0  0  0  0  0  0  0  0  0  0
   11.1144  -15.4095   27.2474 C   0  0  0  0  0  0  0  0  0  0  0  0
   11.6938  -15.6303   25.9070 C   0  0  1  0  0  0  0  0  0  0  0  0
   11.1152  -16.8620   25.2132 N   0  0  0  0  0  0  0  0  0  0  0  0
    9.7116  -16.5861   25.0184 C   0  0  0  0  0  0  0  0  0  0  0  0
   11.2990  -18.0871   26.0139 O   0  0  0  0  0  0  0  0  0  0  0  0
   12.5750  -18.5889   26.1890 C   0  0  0  0  0  0  0  0  0  0  0  0
   10.0447  -14.5678   27.3642 C   0  0  0  0  0  0  0  0  0  0  0  0
    9.4900  -14.3390   28.6038 O   0  0  0  0  0  0  0  0  0  0  0  0
  1  2  1  0
  2  3  2  0
  4  2  1  0
  5  4  1  0
  5  6  1  0
  7  6  1  0
  7  8  1  0
  8  9  1  6
 10 15  1  0
 10  8  1  0
 11 10  2  0
 12 13  1  0
 14 13  1  1
 14 16  1  0
 14 15  1  0
 16 17  2  0
 18 19  1  0
 19 29  2  0
 19 20  1  0
 20 21  2  0
 21 22  1  0
 22 23  1  0
 24 23  1  6
 25 24  1  0
 25 16  1  0
 26 27  1  0
 26 24  1  0
 28 22  2  0
 29 28  1  0
 30 26  2  0
M  END
$$$$
