RSY.pdb
     RDKit          3D

 30 30  0  0  1  0  0  0  0  0999 V2000
    9.4597  -21.2796   19.8759 N   0  0  0  0  0  0  0  0  0  0  0  0
   10.5792  -20.4142   19.9997 C   0  0  0  0  0  0  0  0  0  0  0  0
   11.7069  -20.7101   19.4681 N   0  0  0  0  0  0  0  0  0  0  0  0
   10.4538  -19.2056   20.7198 N   0  0  0  0  0  0  0  0  0  0  0  0
    9.1125  -18.6145   20.9492 C   0  0  0  0  0  0  0  0  0  0  0  0
    9.3021  -17.3512   21.7067 C   0  0  0  0  0  0  0  0  0  0  0  0
    8.0213  -16.6723   22.0140 C   0  0  0  0  0  0  0  0  0  0  0  0
    7.9405  -15.2156   21.7616 C   0  0  2  0  0  0  0  0  0  0  0  0
    8.7582  -14.7055   20.7059 N   0  0  0  0  0  0  0  0  0  0  0  0
    8.2258  -14.5160   23.0610 C   0  0  0  0  0  0  0  0  0  0  0  0
    9.3945  -14.3836   23.4923 O   0  0  0  0  0  0  0  0  0  0  0  0
   12.5674  -20.1351   19.5421 O   0  0  0  0  0  0  0  0  0  0  0  0
    6.4346  -12.1500   26.8154 C   0  0  0  0  0  0  0  0  0  0  0  0
    6.1526  -12.7953   25.6077 C   0  0  2  0  0  0  0  0  0  0  0  0
    7.4796  -13.3617   25.1036 N   0  0  0  0  0  0  0  0  0  0  0  0
    7.1554  -13.9936   23.8164 C   0  0  0  0  0  0  0  0  0  0  0  0
    7.9737  -14.4077   26.0276 O   0  0  0  0  0  0  0  0  0  0  0  0
    7.8850  -15.6157   25.7043 O   0  0  0  0  0  0  0  0  0  0  0  0
   11.6332  -20.3008   25.1146 C   0  0  0  0  0  0  0  0  0  0  0  0
   11.4098  -18.9842   25.5471 C   0  0  0  0  0  0  0  0  0  0  0  0
   11.7889  -17.9003   24.7792 C   0  0  0  0  0  0  0  0  0  0  0  0
   11.5652  -16.6338   25.2124 C   0  0  0  0  0  0  0  0  0  0  0  0
   10.9551  -16.4082   26.4279 C   0  0  0  0  0  0  0  0  0  0  0  0
   10.7025  -15.0446   26.9359 C   0  0  2  0  0  0  0  0  0  0  0  0
    9.5140  -14.9861   27.8937 N   0  0  0  0  0  0  0  0  0  0  0  0
    8.5512  -14.1030   27.2794 C   0  0  0  0  0  0  0  0  0  0  0  0
    9.9005  -14.4886   29.2274 O   0  0  0  0  0  0  0  0  0  0  0  0
    9.4079  -13.2710   29.6580 C   0  0  0  0  0  0  0  0  0  0  0  0
   10.5752  -17.4709   27.1978 C   0  0  0  0  0  0  0  0  0  0  0  0
   10.8058  -18.7530   26.7507 O   0  0  0  0  0  0  0  0  0  0  0  0
  1  2  1  0
  2  3  2  0
  4  2  1  0
  5  4  1  0
  5  6  1  0
  7  6  1  0
  7  8  1  0
  8  9  1  6
 10 15  1  0
 10  8  1  0
 11 10  2  0
 12 13  1  0
 14 13  1  6
 14 16  1  0
 14 15  1  0
 16 17  2  0
 18 19  1  0
 19 29  2  0
 19 20  1  0
 20 21  2  0
 21 22  1  0
 22 23  1  0
 24 23  1  6
 25 24  1  0
 25 16  1  0
 26 27  1  0
 26 24  1  0
 28 22  2  0
 29 28  1  0
 30 26  2  0
M  END
$$$$
