RSY.pdb
     RDKit          3D

 30 30  0  0  1  0  0  0  0  0999 V2000
    7.0462  -12.2951   11.4640 N   0  0  0  0  0  0  0  0  0  0  0  0
    7.8301  -12.4320   12.6405 C   0  0  0  0  0  0  0  0  0  0  0  0
    8.7076  -11.5538   12.9574 N   0  0  0  0  0  0  0  0  0  0  0  0
    7.6441  -13.5530   13.4794 N   0  0  0  0  0  0  0  0  0  0  0  0
    8.4326  -13.6831   14.7294 C   0  0  0  0  0  0  0  0  0  0  0  0
    7.4890  -13.5635   15.8700 C   0  0  0  0  0  0  0  0  0  0  0  0
    8.1652  -13.6739   17.1839 C   0  0  0  0  0  0  0  0  0  0  0  0
    8.7641  -14.9809   17.5382 C   0  0  2  0  0  0  0  0  0  0  0  0
    8.6014  -16.0352   16.5868 N   0  0  0  0  0  0  0  0  0  0  0  0
    8.2267  -15.3730   18.8861 C   0  0  0  0  0  0  0  0  0  0  0  0
    7.0166  -15.2297   19.1772 O   0  0  0  0  0  0  0  0  0  0  0  0
    9.2107  -11.5172   13.8641 O   0  0  0  0  0  0  0  0  0  0  0  0
   10.0327  -18.1716   20.7666 C   0  0  0  0  0  0  0  0  0  0  0  0
    8.6777  -17.9406   21.0213 C   0  0  1  0  0  0  0  0  0  0  0  0
    8.5072  -16.4237   21.0949 N   0  0  0  0  0  0  0  0  0  0  0  0
    9.1016  -15.9164   19.8497 C   0  0  0  0  0  0  0  0  0  0  0  0
    9.2744  -15.8770   22.2370 O   0  0  0  0  0  0  0  0  0  0  0  0
   10.4820  -15.5752   22.0876 O   0  0  0  0  0  0  0  0  0  0  0  0
   11.1262  -14.7207   30.8110 C   0  0  0  0  0  0  0  0  0  0  0  0
   10.4885  -14.7923   29.5625 C   0  0  0  0  0  0  0  0  0  0  0  0
   10.2630  -13.6604   28.8036 C   0  0  0  0  0  0  0  0  0  0  0  0
    9.6450  -13.7475   27.5986 C   0  0  0  0  0  0  0  0  0  0  0  0
    9.2317  -14.9692   27.1116 C   0  0  0  0  0  0  0  0  0  0  0  0
    8.5491  -15.1022   25.8086 C   0  0  1  0  0  0  0  0  0  0  0  0
    9.5190  -15.3952   24.6654 N   0  0  0  0  0  0  0  0  0  0  0  0
    8.6993  -15.6756   23.5105 C   0  0  0  0  0  0  0  0  0  0  0  0
   10.4027  -16.5370   24.9667 O   0  0  0  0  0  0  0  0  0  0  0  0
   11.6734  -16.2921   25.4524 C   0  0  0  0  0  0  0  0  0  0  0  0
    9.4480  -16.0969   27.8518 C   0  0  0  0  0  0  0  0  0  0  0  0
   10.0760  -15.9997   29.0737 O   0  0  0  0  0  0  0  0  0  0  0  0
  1  2  1  0
  2  3  2  0
  4  2  1  0
  5  4  1  0
  5  6  1  0
  7  6  1  0
  7  8  1  0
  8  9  1  6
 10 15  1  0
 10  8  1  0
 11 10  2  0
 12 13  1  0
 14 13  1  6
 14 16  1  0
 14 15  1  0
 16 17  2  0
 18 19  1  0
 19 29  2  0
 19 20  1  0
 20 21  2  0
 21 22  1  0
 22 23  1  0
 24 23  1  6
 25 24  1  0
 25 16  1  0
 26 27  1  0
 26 24  1  0
 28 22  2  0
 29 28  1  0
 30 26  2  0
M  END
$$$$
