RSY.pdb
     RDKit          3D

 30 30  0  0  1  0  0  0  0  0999 V2000
    7.9359  -15.1216   16.3998 N   0  0  0  0  0  0  0  0  0  0  0  0
    7.7805  -13.7531   16.0527 C   0  0  0  0  0  0  0  0  0  0  0  0
    7.8289  -13.3701   14.8309 N   0  0  0  0  0  0  0  0  0  0  0  0
    7.5691  -12.7931   17.0670 N   0  0  0  0  0  0  0  0  0  0  0  0
    8.1474  -13.0009   18.4174 C   0  0  0  0  0  0  0  0  0  0  0  0
    7.2652  -13.9505   19.1424 C   0  0  0  0  0  0  0  0  0  0  0  0
    8.0191  -14.8611   20.0359 C   0  0  0  0  0  0  0  0  0  0  0  0
    8.3643  -16.2027   19.5132 C   0  0  2  0  0  0  0  0  0  0  0  0
    7.2733  -17.0160   19.0754 N   0  0  0  0  0  0  0  0  0  0  0  0
    9.1789  -16.9011   20.5657 C   0  0  0  0  0  0  0  0  0  0  0  0
    8.6386  -17.4896   21.5308 O   0  0  0  0  0  0  0  0  0  0  0  0
    7.8498  -12.3808   14.5190 O   0  0  0  0  0  0  0  0  0  0  0  0
   13.2020  -16.4907   20.6954 C   0  0  0  0  0  0  0  0  0  0  0  0
   12.7461  -17.7989   20.8831 C   0  0  1  0  0  0  0  0  0  0  0  0
   11.3354  -17.6833   21.4597 N   0  0  0  0  0  0  0  0  0  0  0  0
   10.5860  -16.8975   20.4688 C   0  0  0  0  0  0  0  0  0  0  0  0
   11.3630  -16.9281   22.7328 O   0  0  0  0  0  0  0  0  0  0  0  0
   10.8564  -15.7827   22.7877 O   0  0  0  0  0  0  0  0  0  0  0  0
   10.0649  -13.9044   30.5468 C   0  0  0  0  0  0  0  0  0  0  0  0
   10.1779  -14.5689   29.3155 C   0  0  0  0  0  0  0  0  0  0  0  0
   10.2410  -15.9470   29.2446 C   0  0  0  0  0  0  0  0  0  0  0  0
   10.3500  -16.5734   28.0457 C   0  0  0  0  0  0  0  0  0  0  0  0
   10.3997  -15.8433   26.8773 C   0  0  0  0  0  0  0  0  0  0  0  0
   10.5261  -16.4895   25.5553 C   0  0  1  0  0  0  0  0  0  0  0  0
   11.9813  -16.6740   25.1291 N   0  0  0  0  0  0  0  0  0  0  0  0
   11.9438  -17.4470   23.9104 C   0  0  0  0  0  0  0  0  0  0  0  0
   12.7777  -17.3655   26.1603 O   0  0  0  0  0  0  0  0  0  0  0  0
   13.6778  -16.6360   26.9140 C   0  0  0  0  0  0  0  0  0  0  0  0
   10.3386  -14.4797   26.9328 C   0  0  0  0  0  0  0  0  0  0  0  0
   10.2279  -13.8518   28.1536 O   0  0  0  0  0  0  0  0  0  0  0  0
  1  2  1  0
  2  3  2  0
  4  2  1  0
  5  4  1  0
  5  6  1  0
  7  6  1  0
  7  8  1  0
  8  9  1  1
 10 15  1  0
 10  8  1  0
 11 10  2  0
 12 13  1  0
 14 13  1  6
 14 16  1  0
 14 15  1  0
 16 17  2  0
 18 19  1  0
 19 29  2  0
 19 20  1  0
 20 21  2  0
 21 22  1  0
 22 23  1  0
 24 23  1  6
 25 24  1  0
 25 16  1  0
 26 27  1  0
 26 24  1  0
 28 22  2  0
 29 28  1  0
 30 26  2  0
M  END
$$$$
