PLH.pdb
     RDKit          3D

 26 27  0  0  1  0  0  0  0  0999 V2000
   26.4289  -19.5172  -16.1341 N   0  0  0  0  0  0  0  0  0  0  0  0
   27.5399  -19.2181  -17.0485 C   0  0  0  0  0  0  0  0  0  0  0  0
   28.7151  -20.0018  -16.5502 C   0  0  0  0  0  0  0  0  0  0  0  0
   28.1680  -20.7866  -15.3654 C   0  0  0  0  0  0  0  0  0  0  0  0
   26.7007  -20.8729  -15.7770 C   0  0  1  0  0  0  0  0  0  0  0  0
   25.8550  -21.3955  -14.6982 C   0  0  0  0  0  0  0  0  0  0  0  0
   25.9037  -22.6214  -14.4308 O   0  0  0  0  0  0  0  0  0  0  0  0
   26.8212  -21.3255  -10.8544 C   0  0  0  0  0  0  0  0  0  0  0  0
   25.4312  -20.9241  -10.5341 C   0  0  1  0  0  0  0  0  0  0  0  0
   25.4221  -20.0156   -9.2846 C   0  0  0  0  0  0  0  0  0  0  0  0
   24.5558  -20.3947  -11.5841 C   0  0  0  0  0  0  0  0  0  0  0  0
   24.2044  -21.1401  -12.7979 C   0  0  2  0  0  0  0  0  0  0  0  0
   24.9882  -20.5805  -13.9468 N   0  0  0  0  0  0  0  0  0  0  0  0
   22.7766  -21.1098  -13.1517 C   0  0  0  0  0  0  0  0  0  0  0  0
   21.8365  -21.5033  -12.4158 O   0  0  0  0  0  0  0  0  0  0  0  0
   22.3794  -20.5904  -14.4488 N   0  0  0  0  0  0  0  0  0  0  0  0
   20.9714  -20.6213  -14.8446 C   0  0  1  0  0  0  0  0  0  0  0  0
   20.5137  -19.2777  -15.3332 C   0  0  0  0  0  0  0  0  0  0  0  0
   20.3206  -18.3415  -14.2091 C   0  0  0  0  0  0  0  0  0  0  0  0
   19.6928  -18.5843  -12.9941 C   0  0  0  0  0  0  0  0  0  0  0  0
   19.7534  -17.4597  -12.2937 N   0  0  0  0  0  0  0  0  0  0  0  0
   20.3815  -16.5124  -12.9864 C   0  0  0  0  0  0  0  0  0  0  0  0
   20.7214  -17.0639  -14.1511 N   0  0  0  0  0  0  0  0  0  0  0  0
   20.8474  -21.6757  -15.8813 C   0  0  0  0  0  0  0  0  0  0  0  0
   19.6166  -22.2258  -16.2582 O   0  0  0  0  0  0  0  0  0  0  0  0
   21.8536  -22.1493  -16.4957 O   0  0  0  0  0  0  0  0  0  0  0  0
  1  2  1  0
  3  2  1  0
  4  5  1  0
  4  3  1  0
  5  6  1  1
  5  1  1  0
  6  7  2  0
  9  8  1  6
 10  9  1  0
 11  9  1  0
 12 11  1  1
 13  6  1  0
 13 12  1  0
 14 12  1  0
 14 15  2  0
 16 14  1  0
 17 16  1  0
 17 24  1  0
 17 18  1  6
 19 18  1  0
 20 19  2  0
 21 22  1  0
 21 20  1  0
 22 23  2  0
 23 19  1  0
 24 25  1  0
 26 24  2  0
M  END
$$$$
