PLH.pdb
     RDKit          3D

 26 27  0  0  1  0  0  0  0  0999 V2000
   30.7419  -21.0890  -10.7906 N   0  0  0  0  0  0  0  0  0  0  0  0
   31.8965  -21.6214  -11.5278 C   0  0  0  0  0  0  0  0  0  0  0  0
   32.4613  -22.7221  -10.6834 C   0  0  0  0  0  0  0  0  0  0  0  0
   31.5190  -22.8010   -9.4899 C   0  0  0  0  0  0  0  0  0  0  0  0
   30.2474  -22.2586  -10.1370 C   0  0  1  0  0  0  0  0  0  0  0  0
   29.1932  -22.0000   -9.1502 C   0  0  0  0  0  0  0  0  0  0  0  0
   28.3756  -22.9151   -8.8842 O   0  0  0  0  0  0  0  0  0  0  0  0
   27.7827  -20.4395   -3.9959 C   0  0  0  0  0  0  0  0  0  0  0  0
   27.7017  -19.5123   -5.1490 C   0  0  1  0  0  0  0  0  0  0  0  0
   27.9017  -18.0578   -4.6679 C   0  0  0  0  0  0  0  0  0  0  0  0
   28.4718  -19.7811   -6.3670 C   0  0  0  0  0  0  0  0  0  0  0  0
   27.9434  -20.5345   -7.5097 C   0  0  2  0  0  0  0  0  0  0  0  0
   29.0573  -20.7669   -8.4859 N   0  0  0  0  0  0  0  0  0  0  0  0
   26.8320  -19.8831   -8.2204 C   0  0  0  0  0  0  0  0  0  0  0  0
   26.8489  -18.7132   -8.6801 O   0  0  0  0  0  0  0  0  0  0  0  0
   25.5964  -20.6182   -8.4278 N   0  0  0  0  0  0  0  0  0  0  0  0
   24.7862  -20.3580   -9.6177 C   0  0  1  0  0  0  0  0  0  0  0  0
   25.3746  -21.0166  -10.8316 C   0  0  0  0  0  0  0  0  0  0  0  0
   24.5731  -20.7239  -12.0355 C   0  0  0  0  0  0  0  0  0  0  0  0
   24.5315  -19.5440  -12.7672 C   0  0  0  0  0  0  0  0  0  0  0  0
   23.6763  -19.7342  -13.7629 N   0  0  0  0  0  0  0  0  0  0  0  0
   23.1683  -20.9635  -13.7127 C   0  0  0  0  0  0  0  0  0  0  0  0
   23.7237  -21.5548  -12.6553 N   0  0  0  0  0  0  0  0  0  0  0  0
   23.4187  -20.8466   -9.3125 C   0  0  0  0  0  0  0  0  0  0  0  0
   22.3224  -20.5987  -10.1468 O   0  0  0  0  0  0  0  0  0  0  0  0
   23.1535  -21.5234   -8.2704 O   0  0  0  0  0  0  0  0  0  0  0  0
  1  2  1  0
  3  2  1  0
  4  5  1  0
  4  3  1  0
  5  6  1  1
  5  1  1  0
  6  7  2  0
  9  8  1  1
 10  9  1  0
 11  9  1  0
 12 11  1  1
 13  6  1  0
 13 12  1  0
 14 12  1  0
 14 15  2  0
 16 14  1  0
 17 16  1  0
 17 24  1  0
 17 18  1  6
 19 18  1  0
 20 19  2  0
 21 22  1  0
 21 20  1  0
 22 23  2  0
 23 19  1  0
 24 25  1  0
 26 24  2  0
M  END
$$$$
