PLH.pdb
     RDKit          3D

 26 27  0  0  1  0  0  0  0  0999 V2000
   20.7979  -11.5071  -19.0154 N   0  0  0  0  0  0  0  0  0  0  0  0
   19.9967  -12.5320  -19.6991 C   0  0  0  0  0  0  0  0  0  0  0  0
   19.6894  -13.5778  -18.6717 C   0  0  0  0  0  0  0  0  0  0  0  0
   20.3060  -13.0365  -17.3889 C   0  0  0  0  0  0  0  0  0  0  0  0
   20.2535  -11.5422  -17.6956 C   0  0  1  0  0  0  0  0  0  0  0  0
   21.0002  -10.7505  -16.7119 C   0  0  0  0  0  0  0  0  0  0  0  0
   20.5372  -10.6354  -15.5504 O   0  0  0  0  0  0  0  0  0  0  0  0
   26.3911  -11.1453  -15.9037 C   0  0  0  0  0  0  0  0  0  0  0  0
   24.9482  -10.8844  -15.6894 C   0  0  1  0  0  0  0  0  0  0  0  0
   24.5511  -11.2822  -14.2503 C   0  0  0  0  0  0  0  0  0  0  0  0
   24.3691   -9.5908  -16.0636 C   0  0  0  0  0  0  0  0  0  0  0  0
   22.9350   -9.2919  -15.9839 C   0  0  2  0  0  0  0  0  0  0  0  0
   22.2174  -10.1119  -17.0136 N   0  0  0  0  0  0  0  0  0  0  0  0
   22.5847   -7.8779  -16.1904 C   0  0  0  0  0  0  0  0  0  0  0  0
   22.8054   -7.2195  -17.2383 O   0  0  0  0  0  0  0  0  0  0  0  0
   21.9295   -7.1470  -15.1196 N   0  0  0  0  0  0  0  0  0  0  0  0
   21.5781   -5.7396  -15.3085 C   0  0  1  0  0  0  0  0  0  0  0  0
   20.0926   -5.5353  -15.2381 C   0  0  0  0  0  0  0  0  0  0  0  0
   19.4423   -5.9268  -16.5036 C   0  0  0  0  0  0  0  0  0  0  0  0
   20.0469   -6.3752  -17.6710 C   0  0  0  0  0  0  0  0  0  0  0  0
   19.0777   -6.6083  -18.5458 N   0  0  0  0  0  0  0  0  0  0  0  0
   17.8903   -6.3364  -18.0093 C   0  0  0  0  0  0  0  0  0  0  0  0
   18.1279   -5.9223  -16.7651 N   0  0  0  0  0  0  0  0  0  0  0  0
   22.3067   -4.9786  -14.2635 C   0  0  0  0  0  0  0  0  0  0  0  0
   22.4074   -3.5825  -14.2754 O   0  0  0  0  0  0  0  0  0  0  0  0
   22.8885   -5.5468  -13.2874 O   0  0  0  0  0  0  0  0  0  0  0  0
  1  2  1  0
  3  2  1  0
  4  5  1  0
  4  3  1  0
  5  6  1  1
  5  1  1  0
  6  7  2  0
  9  8  1  1
 10  9  1  0
 11  9  1  0
 12 11  1  6
 13  6  1  0
 13 12  1  0
 14 12  1  0
 14 15  2  0
 16 14  1  0
 17 16  1  0
 17 24  1  0
 17 18  1  1
 19 18  1  0
 20 19  2  0
 21 22  1  0
 21 20  1  0
 22 23  2  0
 23 19  1  0
 24 25  1  0
 26 24  2  0
M  END
$$$$
