PLH.pdb
     RDKit          3D

 26 27  0  0  1  0  0  0  0  0999 V2000
   13.0228  -14.6481    5.3600 N   0  0  0  0  0  0  0  0  0  0  0  0
   11.6340  -14.4512    4.9213 C   0  0  0  0  0  0  0  0  0  0  0  0
   11.5549  -14.9905    3.5262 C   0  0  0  0  0  0  0  0  0  0  0  0
   12.9473  -15.5459    3.2588 C   0  0  0  0  0  0  0  0  0  0  0  0
   13.3719  -15.8604    4.6908 C   0  0  1  0  0  0  0  0  0  0  0  0
   14.7931  -16.2129    4.7800 C   0  0  0  0  0  0  0  0  0  0  0  0
   15.1701  -17.3244    4.3338 O   0  0  0  0  0  0  0  0  0  0  0  0
   18.7810  -12.4721    3.8345 C   0  0  0  0  0  0  0  0  0  0  0  0
   18.0916  -13.7822    3.8989 C   0  0  1  0  0  0  0  0  0  0  0  0
   18.5988  -14.6984    2.7630 C   0  0  0  0  0  0  0  0  0  0  0  0
   18.0039  -14.5079    5.1696 C   0  0  0  0  0  0  0  0  0  0  0  0
   17.2091  -15.7273    5.3528 C   0  0  2  0  0  0  0  0  0  0  0  0
   15.7564  -15.3572    5.3458 N   0  0  0  0  0  0  0  0  0  0  0  0
   17.4924  -16.4710    6.5903 C   0  0  0  0  0  0  0  0  0  0  0  0
   17.1276  -16.1295    7.7438 O   0  0  0  0  0  0  0  0  0  0  0  0
   18.2537  -17.7059    6.5158 N   0  0  0  0  0  0  0  0  0  0  0  0
   18.4849  -18.4921    7.7275 C   0  0  1  0  0  0  0  0  0  0  0  0
   17.9875  -19.8994    7.5665 C   0  0  0  0  0  0  0  0  0  0  0  0
   16.5310  -19.9765    7.7906 C   0  0  0  0  0  0  0  0  0  0  0  0
   15.7790  -19.3141    8.7524 C   0  0  0  0  0  0  0  0  0  0  0  0
   14.5169  -19.6840    8.5816 N   0  0  0  0  0  0  0  0  0  0  0  0
   14.4157  -20.5424    7.5694 C   0  0  0  0  0  0  0  0  0  0  0  0
   15.6504  -20.7113    7.0972 N   0  0  0  0  0  0  0  0  0  0  0  0
   19.9426  -18.4320    7.9981 C   0  0  0  0  0  0  0  0  0  0  0  0
   20.5115  -18.8981    9.1892 O   0  0  0  0  0  0  0  0  0  0  0  0
   20.7716  -17.9515    7.1637 O   0  0  0  0  0  0  0  0  0  0  0  0
  1  2  1  0
  3  2  1  0
  4  5  1  0
  4  3  1  0
  5  6  1  6
  5  1  1  0
  6  7  2  0
  9  8  1  1
 10  9  1  0
 11  9  1  0
 12 11  1  1
 13  6  1  0
 13 12  1  0
 14 12  1  0
 14 15  2  0
 16 14  1  0
 17 16  1  0
 17 24  1  0
 17 18  1  6
 19 18  1  0
 20 19  2  0
 21 22  1  0
 21 20  1  0
 22 23  2  0
 23 19  1  0
 24 25  1  0
 26 24  2  0
M  END
$$$$
