PLH.pdb
     RDKit          3D

 26 27  0  0  1  0  0  0  0  0999 V2000
   26.6495  -18.7834  -16.4511 N   0  0  0  0  0  0  0  0  0  0  0  0
   27.6041  -18.2026  -17.4057 C   0  0  0  0  0  0  0  0  0  0  0  0
   28.9625  -18.6593  -16.9701 C   0  0  0  0  0  0  0  0  0  0  0  0
   28.6894  -19.5653  -15.7770 C   0  0  0  0  0  0  0  0  0  0  0  0
   27.2770  -20.0251  -16.1285 C   0  0  1  0  0  0  0  0  0  0  0  0
   26.6434  -20.7542  -15.0245 C   0  0  0  0  0  0  0  0  0  0  0  0
   26.9913  -21.9404  -14.8039 O   0  0  0  0  0  0  0  0  0  0  0  0
   26.1209  -21.7787   -9.8605 C   0  0  0  0  0  0  0  0  0  0  0  0
   25.1427  -20.8548  -10.4813 C   0  0  1  0  0  0  0  0  0  0  0  0
   24.7361  -19.7624   -9.4672 C   0  0  0  0  0  0  0  0  0  0  0  0
   25.4065  -20.2817  -11.8045 C   0  0  0  0  0  0  0  0  0  0  0  0
   25.0591  -20.9530  -13.0619 C   0  0  2  0  0  0  0  0  0  0  0  0
   25.6591  -20.1808  -14.1983 N   0  0  0  0  0  0  0  0  0  0  0  0
   23.6159  -21.0964  -13.3092 C   0  0  0  0  0  0  0  0  0  0  0  0
   22.8103  -21.7203  -12.5730 O   0  0  0  0  0  0  0  0  0  0  0  0
   23.0353  -20.4818  -14.4905 N   0  0  0  0  0  0  0  0  0  0  0  0
   21.5870  -20.5191  -14.6926 C   0  0  1  0  0  0  0  0  0  0  0  0
   21.0761  -19.2072  -15.2135 C   0  0  0  0  0  0  0  0  0  0  0  0
   20.7596  -18.2837  -14.1069 C   0  0  0  0  0  0  0  0  0  0  0  0
   20.6323  -18.5817  -12.7562 C   0  0  0  0  0  0  0  0  0  0  0  0
   20.3425  -17.4471  -12.1335 N   0  0  0  0  0  0  0  0  0  0  0  0
   20.2766  -16.4417  -13.0033 C   0  0  0  0  0  0  0  0  0  0  0  0
   20.5329  -16.9662  -14.2014 N   0  0  0  0  0  0  0  0  0  0  0  0
   21.3196  -21.6433  -15.6236 C   0  0  0  0  0  0  0  0  0  0  0  0
   20.0944  -22.3194  -15.6620 O   0  0  0  0  0  0  0  0  0  0  0  0
   22.1882  -22.0666  -16.4485 O   0  0  0  0  0  0  0  0  0  0  0  0
  1  2  1  0
  3  2  1  0
  4  5  1  0
  4  3  1  0
  5  6  1  1
  5  1  1  0
  6  7  2  0
  9  8  1  1
 10  9  1  0
 11  9  1  0
 12 11  1  1
 13  6  1  0
 13 12  1  0
 14 12  1  0
 14 15  2  0
 16 14  1  0
 17 16  1  0
 17 24  1  0
 17 18  1  6
 19 18  1  0
 20 19  2  0
 21 22  1  0
 21 20  1  0
 22 23  2  0
 23 19  1  0
 24 25  1  0
 26 24  2  0
M  END
$$$$
