PLH.pdb
     RDKit          3D

 26 27  0  0  1  0  0  0  0  0999 V2000
   26.0078  -17.1615  -14.9497 N   0  0  0  0  0  0  0  0  0  0  0  0
   26.9831  -16.3192  -15.6562 C   0  0  0  0  0  0  0  0  0  0  0  0
   28.1204  -17.2191  -16.0304 C   0  0  0  0  0  0  0  0  0  0  0  0
   27.6828  -18.5966  -15.5509 C   0  0  0  0  0  0  0  0  0  0  0  0
   26.1685  -18.4154  -15.6140 C   0  0  1  0  0  0  0  0  0  0  0  0
   25.4529  -19.5301  -14.9836 C   0  0  0  0  0  0  0  0  0  0  0  0
   25.3492  -20.6139  -15.6091 O   0  0  0  0  0  0  0  0  0  0  0  0
   26.3455  -20.1946   -9.8906 C   0  0  0  0  0  0  0  0  0  0  0  0
   26.0415  -20.4334  -11.3211 C   0  0  1  0  0  0  0  0  0  0  0  0
   27.0997  -21.3789  -11.9318 C   0  0  0  0  0  0  0  0  0  0  0  0
   24.6869  -20.8124  -11.7339 C   0  0  0  0  0  0  0  0  0  0  0  0
   24.1666  -20.6083  -13.0904 C   0  0  2  0  0  0  0  0  0  0  0  0
   24.8751  -19.4381  -13.7037 N   0  0  0  0  0  0  0  0  0  0  0  0
   22.7175  -20.3659  -13.1679 C   0  0  0  0  0  0  0  0  0  0  0  0
   22.1228  -19.3591  -12.7065 O   0  0  0  0  0  0  0  0  0  0  0  0
   21.8695  -21.3468  -13.8229 N   0  0  0  0  0  0  0  0  0  0  0  0
   20.4257  -21.1246  -13.8995 C   0  0  1  0  0  0  0  0  0  0  0  0
   19.8744  -21.5788  -15.2199 C   0  0  0  0  0  0  0  0  0  0  0  0
   20.2453  -20.6441  -16.2999 C   0  0  0  0  0  0  0  0  0  0  0  0
   20.8540  -19.4012  -16.1816 C   0  0  0  0  0  0  0  0  0  0  0  0
   20.9955  -18.9194  -17.4091 N   0  0  0  0  0  0  0  0  0  0  0  0
   20.5146  -19.7781  -18.3052 C   0  0  0  0  0  0  0  0  0  0  0  0
   20.0609  -20.8240  -17.6151 N   0  0  0  0  0  0  0  0  0  0  0  0
   19.8253  -21.8504  -12.7530 C   0  0  0  0  0  0  0  0  0  0  0  0
   18.6477  -21.4301  -12.1236 O   0  0  0  0  0  0  0  0  0  0  0  0
   20.3432  -22.9035  -12.2662 O   0  0  0  0  0  0  0  0  0  0  0  0
  1  2  1  0
  3  2  1  0
  4  5  1  0
  4  3  1  0
  5  6  1  1
  5  1  1  0
  6  7  2  0
  9  8  1  1
 10  9  1  0
 11  9  1  0
 12 11  1  1
 13  6  1  0
 13 12  1  0
 14 12  1  0
 14 15  2  0
 16 14  1  0
 17 16  1  0
 17 24  1  0
 17 18  1  6
 19 18  1  0
 20 19  2  0
 21 22  1  0
 21 20  1  0
 22 23  2  0
 23 19  1  0
 24 25  1  0
 26 24  2  0
M  END
$$$$
