PLH.pdb
     RDKit          3D

 26 27  0  0  1  0  0  0  0  0999 V2000
   32.9383  -35.2386   -5.4404 N   0  0  0  0  0  0  0  0  0  0  0  0
   33.9448  -36.1212   -6.0471 C   0  0  0  0  0  0  0  0  0  0  0  0
   33.1910  -37.2746   -6.6343 C   0  0  0  0  0  0  0  0  0  0  0  0
   31.7287  -36.9395   -6.3732 C   0  0  0  0  0  0  0  0  0  0  0  0
   31.8256  -35.4172   -6.3175 C   0  0  1  0  0  0  0  0  0  0  0  0
   30.5797  -34.8019   -5.8471 C   0  0  0  0  0  0  0  0  0  0  0  0
   30.4843  -34.4763   -4.6382 O   0  0  0  0  0  0  0  0  0  0  0  0
   25.8633  -31.7537   -6.4004 C   0  0  0  0  0  0  0  0  0  0  0  0
   26.0141  -33.0280   -7.1416 C   0  0  1  0  0  0  0  0  0  0  0  0
   25.2797  -32.9365   -8.4977 C   0  0  0  0  0  0  0  0  0  0  0  0
   27.3370  -33.6413   -7.2925 C   0  0  0  0  0  0  0  0  0  0  0  0
   28.2102  -33.9726   -6.1610 C   0  0  2  0  0  0  0  0  0  0  0  0
   29.4825  -34.5596   -6.6943 N   0  0  0  0  0  0  0  0  0  0  0  0
   27.6347  -34.9166   -5.1903 C   0  0  0  0  0  0  0  0  0  0  0  0
   27.3863  -36.1285   -5.4139 O   0  0  0  0  0  0  0  0  0  0  0  0
   27.3126  -34.4491   -3.8533 N   0  0  0  0  0  0  0  0  0  0  0  0
   26.7652  -35.3822   -2.8686 C   0  0  1  0  0  0  0  0  0  0  0  0
   27.4954  -35.2837   -1.5607 C   0  0  0  0  0  0  0  0  0  0  0  0
   27.4396  -36.5611   -0.8240 C   0  0  0  0  0  0  0  0  0  0  0  0
   26.8900  -37.7655   -1.2442 C   0  0  0  0  0  0  0  0  0  0  0  0
   27.0663  -38.6373   -0.2603 N   0  0  0  0  0  0  0  0  0  0  0  0
   27.6949  -38.0641    0.7633 C   0  0  0  0  0  0  0  0  0  0  0  0
   27.9160  -36.7994    0.4058 N   0  0  0  0  0  0  0  0  0  0  0  0
   25.3222  -35.0614   -2.7395 C   0  0  0  0  0  0  0  0  0  0  0  0
   24.3613  -36.0197   -2.3962 O   0  0  0  0  0  0  0  0  0  0  0  0
   24.8638  -33.8924   -2.9333 O   0  0  0  0  0  0  0  0  0  0  0  0
  1  2  1  0
  3  2  1  0
  4  5  1  0
  4  3  1  0
  5  6  1  1
  5  1  1  0
  6  7  2  0
  9  8  1  6
 10  9  1  0
 11  9  1  0
 12 11  1  6
 13  6  1  0
 13 12  1  0
 14 12  1  0
 14 15  2  0
 16 14  1  0
 17 16  1  0
 17 24  1  0
 17 18  1  1
 19 18  1  0
 20 19  2  0
 21 22  1  0
 21 20  1  0
 22 23  2  0
 23 19  1  0
 24 25  1  0
 26 24  2  0
M  END
$$$$
