PLH.pdb
     RDKit          3D

 26 27  0  0  1  0  0  0  0  0999 V2000
   27.2035  -20.0160  -15.7667 N   0  0  0  0  0  0  0  0  0  0  0  0
   28.1714  -20.1610  -16.8631 C   0  0  0  0  0  0  0  0  0  0  0  0
   28.9797  -21.3823  -16.5494 C   0  0  0  0  0  0  0  0  0  0  0  0
   28.3596  -21.9244  -15.2686 C   0  0  0  0  0  0  0  0  0  0  0  0
   26.9430  -21.3777  -15.4242 C   0  0  1  0  0  0  0  0  0  0  0  0
   26.1469  -21.5530  -14.2045 C   0  0  0  0  0  0  0  0  0  0  0  0
   25.3872  -22.5488  -14.1155 O   0  0  0  0  0  0  0  0  0  0  0  0
   26.4917  -20.3456   -8.1950 C   0  0  0  0  0  0  0  0  0  0  0  0
   25.7847  -20.9266   -9.3606 C   0  0  1  0  0  0  0  0  0  0  0  0
   24.2578  -20.8578   -9.1359 C   0  0  0  0  0  0  0  0  0  0  0  0
   26.1422  -20.5136  -10.7209 C   0  0  0  0  0  0  0  0  0  0  0  0
   25.3493  -20.8572  -11.9065 C   0  0  2  0  0  0  0  0  0  0  0  0
   26.1973  -20.6510  -13.1255 N   0  0  0  0  0  0  0  0  0  0  0  0
   24.1089  -20.0826  -12.0678 C   0  0  0  0  0  0  0  0  0  0  0  0
   24.0394  -18.9004  -12.4894 O   0  0  0  0  0  0  0  0  0  0  0  0
   22.8395  -20.6984  -11.7219 N   0  0  0  0  0  0  0  0  0  0  0  0
   21.6469  -20.4013  -12.5152 C   0  0  1  0  0  0  0  0  0  0  0  0
   21.8268  -20.8192  -13.9458 C   0  0  0  0  0  0  0  0  0  0  0  0
   21.4817  -19.7196  -14.8674 C   0  0  0  0  0  0  0  0  0  0  0  0
   20.9770  -18.4654  -14.5489 C   0  0  0  0  0  0  0  0  0  0  0  0
   20.8188  -17.8088  -15.6903 N   0  0  0  0  0  0  0  0  0  0  0  0
   21.1915  -18.5663  -16.7193 C   0  0  0  0  0  0  0  0  0  0  0  0
   21.5930  -19.7275  -16.2030 N   0  0  0  0  0  0  0  0  0  0  0  0
   20.5165  -21.1014  -11.8564 C   0  0  0  0  0  0  0  0  0  0  0  0
   20.6996  -22.0403  -10.8345 O   0  0  0  0  0  0  0  0  0  0  0  0
   19.3052  -20.8936  -12.1786 O   0  0  0  0  0  0  0  0  0  0  0  0
  1  2  1  0
  3  2  1  0
  4  5  1  0
  4  3  1  0
  5  6  1  1
  5  1  1  0
  6  7  2  0
  9  8  1  1
 10  9  1  0
 11  9  1  0
 12 11  1  1
 13  6  1  0
 13 12  1  0
 14 12  1  0
 14 15  2  0
 16 14  1  0
 17 16  1  0
 17 24  1  0
 17 18  1  6
 19 18  1  0
 20 19  2  0
 21 22  1  0
 21 20  1  0
 22 23  2  0
 23 19  1  0
 24 25  1  0
 26 24  2  0
M  END
$$$$
