PLH.pdb
     RDKit          3D

 26 27  0  0  1  0  0  0  0  0999 V2000
   30.4695  -21.2540  -10.9807 N   0  0  0  0  0  0  0  0  0  0  0  0
   31.7340  -21.7195  -11.5673 C   0  0  0  0  0  0  0  0  0  0  0  0
   32.4359  -22.4903  -10.4919 C   0  0  0  0  0  0  0  0  0  0  0  0
   31.4620  -22.4738   -9.3214 C   0  0  0  0  0  0  0  0  0  0  0  0
   30.1506  -22.3216  -10.0875 C   0  0  1  0  0  0  0  0  0  0  0  0
   29.0192  -22.0464   -9.1952 C   0  0  0  0  0  0  0  0  0  0  0  0
   28.4356  -23.0112   -8.6426 O   0  0  0  0  0  0  0  0  0  0  0  0
   27.4293  -20.4049   -4.5955 C   0  0  0  0  0  0  0  0  0  0  0  0
   27.2015  -19.3981   -5.6587 C   0  0  1  0  0  0  0  0  0  0  0  0
   27.4005  -17.9768   -5.0868 C   0  0  0  0  0  0  0  0  0  0  0  0
   27.8530  -19.5433   -6.9638 C   0  0  0  0  0  0  0  0  0  0  0  0
   27.4199  -20.5059   -7.9827 C   0  0  2  0  0  0  0  0  0  0  0  0
   28.5572  -20.7439   -8.9302 N   0  0  0  0  0  0  0  0  0  0  0  0
   26.2436  -20.0933   -8.7642 C   0  0  0  0  0  0  0  0  0  0  0  0
   25.5702  -19.0499   -8.5689 O   0  0  0  0  0  0  0  0  0  0  0  0
   25.7909  -20.9333   -9.8594 N   0  0  0  0  0  0  0  0  0  0  0  0
   24.7873  -20.4286  -10.7964 C   0  0  1  0  0  0  0  0  0  0  0  0
   24.9954  -20.9916  -12.1724 C   0  0  0  0  0  0  0  0  0  0  0  0
   26.1524  -20.3595  -12.8352 C   0  0  0  0  0  0  0  0  0  0  0  0
   26.8909  -19.2653  -12.4031 C   0  0  0  0  0  0  0  0  0  0  0  0
   27.8326  -19.0488  -13.3115 N   0  0  0  0  0  0  0  0  0  0  0  0
   27.7417  -19.9377  -14.2981 C   0  0  0  0  0  0  0  0  0  0  0  0
   26.7137  -20.7297  -13.9945 N   0  0  0  0  0  0  0  0  0  0  0  0
   23.4632  -20.7865  -10.2301 C   0  0  0  0  0  0  0  0  0  0  0  0
   22.2588  -20.3104  -10.7614 O   0  0  0  0  0  0  0  0  0  0  0  0
   23.3366  -21.5504   -9.2228 O   0  0  0  0  0  0  0  0  0  0  0  0
  1  2  1  0
  3  2  1  0
  4  5  1  0
  4  3  1  0
  5  6  1  1
  5  1  1  0
  6  7  2  0
  9  8  1  1
 10  9  1  0
 11  9  1  0
 12 11  1  1
 13  6  1  0
 13 12  1  0
 14 12  1  0
 14 15  2  0
 16 14  1  0
 17 16  1  0
 17 24  1  0
 17 18  1  6
 19 18  1  0
 20 19  2  0
 21 22  1  0
 21 20  1  0
 22 23  2  0
 23 19  1  0
 24 25  1  0
 26 24  2  0
M  END
$$$$
