PLH.pdb
     RDKit          3D

 26 27  0  0  1  0  0  0  0  0999 V2000
   27.0655  -19.7576  -14.5417 N   0  0  0  0  0  0  0  0  0  0  0  0
   28.1212  -19.6065  -15.5530 C   0  0  0  0  0  0  0  0  0  0  0  0
   29.3397  -20.2702  -14.9889 C   0  0  0  0  0  0  0  0  0  0  0  0
   28.8732  -20.8421  -13.6570 C   0  0  0  0  0  0  0  0  0  0  0  0
   27.3898  -21.0241  -13.9672 C   0  0  1  0  0  0  0  0  0  0  0  0
   26.6131  -21.3617  -12.7693 C   0  0  0  0  0  0  0  0  0  0  0  0
   26.2097  -22.5417  -12.6221 O   0  0  0  0  0  0  0  0  0  0  0  0
   27.9262  -21.3071   -8.6218 C   0  0  0  0  0  0  0  0  0  0  0  0
   26.6389  -20.6286   -8.3418 C   0  0  1  0  0  0  0  0  0  0  0  0
   26.8125  -19.6364   -7.1704 C   0  0  0  0  0  0  0  0  0  0  0  0
   25.8666  -20.0318   -9.4356 C   0  0  0  0  0  0  0  0  0  0  0  0
   25.4200  -20.7814  -10.6150 C   0  0  2  0  0  0  0  0  0  0  0  0
   26.2988  -20.4178  -11.7740 N   0  0  0  0  0  0  0  0  0  0  0  0
   24.0201  -20.5486  -11.0033 C   0  0  0  0  0  0  0  0  0  0  0  0
   23.0229  -20.6972  -10.2525 O   0  0  0  0  0  0  0  0  0  0  0  0
   23.7240  -20.1109  -12.3564 N   0  0  0  0  0  0  0  0  0  0  0  0
   22.3409  -19.8356  -12.7455 C   0  0  1  0  0  0  0  0  0  0  0  0
   22.2740  -19.1975  -14.1026 C   0  0  0  0  0  0  0  0  0  0  0  0
   20.8752  -18.9719  -14.5148 C   0  0  0  0  0  0  0  0  0  0  0  0
   19.8056  -19.8533  -14.4232 C   0  0  0  0  0  0  0  0  0  0  0  0
   18.7432  -19.2273  -14.9118 N   0  0  0  0  0  0  0  0  0  0  0  0
   19.0680  -17.9996  -15.3102 C   0  0  0  0  0  0  0  0  0  0  0  0
   20.3698  -17.8580  -15.0623 N   0  0  0  0  0  0  0  0  0  0  0  0
   21.6210  -21.1320  -12.6908 C   0  0  0  0  0  0  0  0  0  0  0  0
   20.3179  -21.2541  -12.1942 O   0  0  0  0  0  0  0  0  0  0  0  0
   22.1426  -22.2188  -13.0921 O   0  0  0  0  0  0  0  0  0  0  0  0
  1  2  1  0
  3  2  1  0
  4  5  1  0
  4  3  1  0
  5  6  1  1
  5  1  1  0
  6  7  2  0
  9  8  1  6
 10  9  1  0
 11  9  1  0
 12 11  1  1
 13  6  1  0
 13 12  1  0
 14 12  1  0
 14 15  2  0
 16 14  1  0
 17 16  1  0
 17 24  1  0
 17 18  1  6
 19 18  1  0
 20 19  2  0
 21 22  1  0
 21 20  1  0
 22 23  2  0
 23 19  1  0
 24 25  1  0
 26 24  2  0
M  END
$$$$
