PLH.pdb
     RDKit          3D

 26 27  0  0  1  0  0  0  0  0999 V2000
   26.8269  -19.3575  -14.6645 N   0  0  0  0  0  0  0  0  0  0  0  0
   27.8973  -19.0930  -15.6362 C   0  0  0  0  0  0  0  0  0  0  0  0
   28.6595  -20.3744  -15.7789 C   0  0  0  0  0  0  0  0  0  0  0  0
   27.9106  -21.3579  -14.8898 C   0  0  0  0  0  0  0  0  0  0  0  0
   26.5214  -20.7268  -14.9312 C   0  0  1  0  0  0  0  0  0  0  0  0
   25.6068  -21.3422  -13.9633 C   0  0  0  0  0  0  0  0  0  0  0  0
   25.1050  -22.4614  -14.2317 O   0  0  0  0  0  0  0  0  0  0  0  0
   26.2952  -19.9021   -8.8204 C   0  0  0  0  0  0  0  0  0  0  0  0
   26.1288  -20.5912  -10.1217 C   0  0  1  0  0  0  0  0  0  0  0  0
   27.3567  -21.4857  -10.4026 C   0  0  0  0  0  0  0  0  0  0  0  0
   24.8782  -21.2905  -10.4313 C   0  0  0  0  0  0  0  0  0  0  0  0
   24.3213  -21.3935  -11.7847 C   0  0  2  0  0  0  0  0  0  0  0  0
   25.2657  -20.7312  -12.7423 N   0  0  0  0  0  0  0  0  0  0  0  0
   22.9900  -20.7906  -11.9542 C   0  0  0  0  0  0  0  0  0  0  0  0
   21.9860  -21.0314  -11.2371 O   0  0  0  0  0  0  0  0  0  0  0  0
   22.7770  -19.8344  -13.0268 N   0  0  0  0  0  0  0  0  0  0  0  0
   21.4639  -19.2124  -13.1966 C   0  0  1  0  0  0  0  0  0  0  0  0
   21.5782  -17.8740  -13.8668 C   0  0  0  0  0  0  0  0  0  0  0  0
   20.2506  -17.2552  -14.0465 C   0  0  0  0  0  0  0  0  0  0  0  0
   19.4199  -16.7185  -13.0712 C   0  0  0  0  0  0  0  0  0  0  0  0
   18.3322  -16.2760  -13.6878 N   0  0  0  0  0  0  0  0  0  0  0  0
   18.4164  -16.4970  -14.9976 C   0  0  0  0  0  0  0  0  0  0  0  0
   19.5903  -17.0940  -15.2016 N   0  0  0  0  0  0  0  0  0  0  0  0
   20.6408  -20.1700  -13.9760 C   0  0  0  0  0  0  0  0  0  0  0  0
   19.2579  -20.2973  -13.8006 O   0  0  0  0  0  0  0  0  0  0  0  0
   21.1397  -20.9392  -14.8556 O   0  0  0  0  0  0  0  0  0  0  0  0
  1  2  1  0
  3  2  1  0
  4  5  1  0
  4  3  1  0
  5  6  1  1
  5  1  1  0
  6  7  2  0
  9  8  1  1
 10  9  1  0
 11  9  1  0
 12 11  1  1
 13  6  1  0
 13 12  1  0
 14 12  1  0
 14 15  2  0
 16 14  1  0
 17 16  1  0
 17 24  1  0
 17 18  1  6
 19 18  1  0
 20 19  2  0
 21 22  1  0
 21 20  1  0
 22 23  2  0
 23 19  1  0
 24 25  1  0
 26 24  2  0
M  END
$$$$
