PLH.pdb
     RDKit          3D

 26 27  0  0  1  0  0  0  0  0999 V2000
   42.7245  -10.2705   -6.7399 N   0  0  0  0  0  0  0  0  0  0  0  0
   44.0115  -10.8731   -6.3651 C   0  0  0  0  0  0  0  0  0  0  0  0
   44.3116  -11.9035   -7.4099 C   0  0  0  0  0  0  0  0  0  0  0  0
   43.1601  -11.7819   -8.3989 C   0  0  0  0  0  0  0  0  0  0  0  0
   42.7816  -10.3217   -8.1659 C   0  0  1  0  0  0  0  0  0  0  0  0
   41.5261   -9.9638   -8.8348 C   0  0  0  0  0  0  0  0  0  0  0  0
   41.5033   -9.9068  -10.0890 O   0  0  0  0  0  0  0  0  0  0  0  0
   37.1291  -12.1034   -6.7716 C   0  0  0  0  0  0  0  0  0  0  0  0
   38.0420  -11.5521   -7.8004 C   0  0  1  0  0  0  0  0  0  0  0  0
   38.0228  -12.4523   -9.0558 C   0  0  0  0  0  0  0  0  0  0  0  0
   37.9753  -10.1329   -8.1615 C   0  0  0  0  0  0  0  0  0  0  0  0
   39.0548   -9.4219   -8.8554 C   0  0  2  0  0  0  0  0  0  0  0  0
   40.3413   -9.6803   -8.1303 N   0  0  0  0  0  0  0  0  0  0  0  0
   38.8679   -7.9667   -8.9645 C   0  0  0  0  0  0  0  0  0  0  0  0
   37.9053   -7.3981   -9.5394 O   0  0  0  0  0  0  0  0  0  0  0  0
   39.8546   -7.0796   -8.3732 N   0  0  0  0  0  0  0  0  0  0  0  0
   39.6665   -5.6308   -8.4459 C   0  0  1  0  0  0  0  0  0  0  0  0
   39.8499   -4.9899   -7.1008 C   0  0  0  0  0  0  0  0  0  0  0  0
   38.6627   -5.1948   -6.2488 C   0  0  0  0  0  0  0  0  0  0  0  0
   37.3821   -5.5611   -6.6429 C   0  0  0  0  0  0  0  0  0  0  0  0
   36.6413   -5.6263   -5.5447 N   0  0  0  0  0  0  0  0  0  0  0  0
   37.3697   -5.3240   -4.4724 C   0  0  0  0  0  0  0  0  0  0  0  0
   38.5989   -5.0634   -4.9166 N   0  0  0  0  0  0  0  0  0  0  0  0
   40.6357   -5.1292   -9.4514 C   0  0  0  0  0  0  0  0  0  0  0  0
   40.3415   -4.0783  -10.3280 O   0  0  0  0  0  0  0  0  0  0  0  0
   41.7989   -5.6232   -9.5825 O   0  0  0  0  0  0  0  0  0  0  0  0
  1  2  1  0
  3  2  1  0
  4  5  1  0
  4  3  1  0
  5  6  1  6
  5  1  1  0
  6  7  2  0
  9  8  1  1
 10  9  1  0
 11  9  1  0
 12 11  1  1
 13  6  1  0
 13 12  1  0
 14 12  1  0
 14 15  2  0
 16 14  1  0
 17 16  1  0
 17 24  1  0
 17 18  1  1
 19 18  1  0
 20 19  2  0
 21 22  1  0
 21 20  1  0
 22 23  2  0
 23 19  1  0
 24 25  1  0
 26 24  2  0
M  END
$$$$
