PLH.pdb
     RDKit          3D

 26 27  0  0  1  0  0  0  0  0999 V2000
   26.7292  -20.6491  -16.0446 N   0  0  0  0  0  0  0  0  0  0  0  0
   27.9997  -20.6232  -16.7830 C   0  0  0  0  0  0  0  0  0  0  0  0
   28.8246  -21.7476  -16.2366 C   0  0  0  0  0  0  0  0  0  0  0  0
   27.9150  -22.4198  -15.2171 C   0  0  0  0  0  0  0  0  0  0  0  0
   26.5574  -22.0467  -15.8067 C   0  0  1  0  0  0  0  0  0  0  0  0
   25.4528  -22.3744  -14.8988 C   0  0  0  0  0  0  0  0  0  0  0  0
   25.1802  -23.5820  -14.6884 O   0  0  0  0  0  0  0  0  0  0  0  0
   25.6022  -19.7230  -10.5470 C   0  0  0  0  0  0  0  0  0  0  0  0
   25.3564  -20.7783  -11.5579 C   0  0  1  0  0  0  0  0  0  0  0  0
   26.1564  -22.0492  -11.1949 C   0  0  0  0  0  0  0  0  0  0  0  0
   23.9863  -21.1083  -11.9615 C   0  0  0  0  0  0  0  0  0  0  0  0
   23.6518  -21.7679  -13.2286 C   0  0  2  0  0  0  0  0  0  0  0  0
   24.6820  -21.3915  -14.2506 N   0  0  0  0  0  0  0  0  0  0  0  0
   22.3226  -21.4380  -13.7663 C   0  0  0  0  0  0  0  0  0  0  0  0
   21.2464  -21.4731  -13.1177 O   0  0  0  0  0  0  0  0  0  0  0  0
   22.2014  -21.0347  -15.1566 N   0  0  0  0  0  0  0  0  0  0  0  0
   20.8835  -20.7286  -15.7129 C   0  0  1  0  0  0  0  0  0  0  0  0
   20.9480  -19.5617  -16.6551 C   0  0  0  0  0  0  0  0  0  0  0  0
   21.2514  -18.3116  -15.9320 C   0  0  0  0  0  0  0  0  0  0  0  0
   20.6780  -17.8450  -14.7561 C   0  0  0  0  0  0  0  0  0  0  0  0
   21.2558  -16.6846  -14.4758 N   0  0  0  0  0  0  0  0  0  0  0  0
   22.1637  -16.3806  -15.4005 C   0  0  0  0  0  0  0  0  0  0  0  0
   22.1500  -17.3807  -16.2812 N   0  0  0  0  0  0  0  0  0  0  0  0
   20.4065  -21.9680  -16.3749 C   0  0  0  0  0  0  0  0  0  0  0  0
   19.0515  -22.2245  -16.6153 O   0  0  0  0  0  0  0  0  0  0  0  0
   21.1995  -22.8798  -16.7672 O   0  0  0  0  0  0  0  0  0  0  0  0
  1  2  1  0
  3  2  1  0
  4  5  1  0
  4  3  1  0
  5  6  1  1
  5  1  1  0
  6  7  2  0
  9  8  1  1
 10  9  1  0
 11  9  1  0
 12 11  1  1
 13  6  1  0
 13 12  1  0
 14 12  1  0
 14 15  2  0
 16 14  1  0
 17 16  1  0
 17 24  1  0
 17 18  1  6
 19 18  1  0
 20 19  2  0
 21 22  1  0
 21 20  1  0
 22 23  2  0
 23 19  1  0
 24 25  1  0
 26 24  2  0
M  END
$$$$
