PLH.pdb
     RDKit          3D

 26 27  0  0  1  0  0  0  0  0999 V2000
   20.3094  -11.9276  -19.7809 N   0  0  0  0  0  0  0  0  0  0  0  0
   19.5346  -12.8681  -20.6026 C   0  0  0  0  0  0  0  0  0  0  0  0
   18.8921  -13.8272  -19.6483 C   0  0  0  0  0  0  0  0  0  0  0  0
   19.3034  -13.3203  -18.2726 C   0  0  0  0  0  0  0  0  0  0  0  0
   19.5106  -11.8439  -18.6001 C   0  0  1  0  0  0  0  0  0  0  0  0
   20.1415  -11.1165  -17.4934 C   0  0  0  0  0  0  0  0  0  0  0  0
   19.4810  -10.9204  -16.4436 O   0  0  0  0  0  0  0  0  0  0  0  0
   23.9999  -10.2779  -13.7532 C   0  0  0  0  0  0  0  0  0  0  0  0
   24.3591   -9.9815  -15.1600 C   0  0  1  0  0  0  0  0  0  0  0  0
   25.8177  -10.4127  -15.4311 C   0  0  0  0  0  0  0  0  0  0  0  0
   23.4704  -10.3932  -16.2506 C   0  0  0  0  0  0  0  0  0  0  0  0
   22.0829   -9.9348  -16.3817 C   0  0  2  0  0  0  0  0  0  0  0  0
   21.4593  -10.6269  -17.5563 N   0  0  0  0  0  0  0  0  0  0  0  0
   21.9246   -8.4831  -16.5608 C   0  0  0  0  0  0  0  0  0  0  0  0
   22.2658   -7.8349  -17.5824 O   0  0  0  0  0  0  0  0  0  0  0  0
   21.3301   -7.6985  -15.4926 N   0  0  0  0  0  0  0  0  0  0  0  0
   21.1776   -6.2522  -15.6506 C   0  0  1  0  0  0  0  0  0  0  0  0
   19.7335   -5.8470  -15.5872 C   0  0  0  0  0  0  0  0  0  0  0  0
   19.5865   -4.3842  -15.7143 C   0  0  0  0  0  0  0  0  0  0  0  0
   19.7389   -3.4217  -14.7244 C   0  0  0  0  0  0  0  0  0  0  0  0
   19.5130   -2.2435  -15.2899 N   0  0  0  0  0  0  0  0  0  0  0  0
   19.2255   -2.3935  -16.5808 C   0  0  0  0  0  0  0  0  0  0  0  0
   19.2740   -3.7028  -16.8252 N   0  0  0  0  0  0  0  0  0  0  0  0
   21.9921   -5.6225  -14.5821 C   0  0  0  0  0  0  0  0  0  0  0  0
   22.4688   -6.3340  -13.4748 O   0  0  0  0  0  0  0  0  0  0  0  0
   22.3102   -4.3926  -14.6027 O   0  0  0  0  0  0  0  0  0  0  0  0
  1  2  1  0
  3  2  1  0
  4  5  1  0
  4  3  1  0
  5  6  1  1
  5  1  1  0
  6  7  2  0
  9  8  1  1
 10  9  1  0
 11  9  1  0
 12 11  1  6
 13  6  1  0
 13 12  1  0
 14 12  1  0
 14 15  2  0
 16 14  1  0
 17 16  1  0
 17 24  1  0
 17 18  1  1
 19 18  1  0
 20 19  2  0
 21 22  1  0
 21 20  1  0
 22 23  2  0
 23 19  1  0
 24 25  1  0
 26 24  2  0
M  END
$$$$
