PLH.pdb
     RDKit          3D

 26 27  0  0  1  0  0  0  0  0999 V2000
   13.7090  -29.1824   -8.7062 N   0  0  0  0  0  0  0  0  0  0  0  0
   13.2411  -30.3120   -9.5216 C   0  0  0  0  0  0  0  0  0  0  0  0
   14.3797  -31.2831   -9.5845 C   0  0  0  0  0  0  0  0  0  0  0  0
   15.4578  -30.6549   -8.7118 C   0  0  0  0  0  0  0  0  0  0  0  0
   14.5761  -29.8322   -7.7760 C   0  0  1  0  0  0  0  0  0  0  0  0
   15.3616  -28.9175   -6.9403 C   0  0  0  0  0  0  0  0  0  0  0  0
   16.1103  -29.3988   -6.0546 O   0  0  0  0  0  0  0  0  0  0  0  0
   19.3727  -25.2929   -6.7851 C   0  0  0  0  0  0  0  0  0  0  0  0
   17.9840  -24.7985   -6.9376 C   0  0  1  0  0  0  0  0  0  0  0  0
   17.9699  -23.5426   -7.8372 C   0  0  0  0  0  0  0  0  0  0  0  0
   16.9069  -25.7249   -7.2989 C   0  0  0  0  0  0  0  0  0  0  0  0
   16.2617  -26.6301   -6.3415 C   0  0  2  0  0  0  0  0  0  0  0  0
   15.3128  -27.5188   -7.0880 N   0  0  0  0  0  0  0  0  0  0  0  0
   15.5192  -25.9620   -5.2612 C   0  0  0  0  0  0  0  0  0  0  0  0
   16.0369  -25.3331   -4.3037 O   0  0  0  0  0  0  0  0  0  0  0  0
   14.0674  -26.0103   -5.2649 N   0  0  0  0  0  0  0  0  0  0  0  0
   13.3160  -25.3832   -4.1776 C   0  0  1  0  0  0  0  0  0  0  0  0
   12.1540  -24.5921   -4.7044 C   0  0  0  0  0  0  0  0  0  0  0  0
   12.0488  -23.2866   -4.0247 C   0  0  0  0  0  0  0  0  0  0  0  0
   12.8726  -22.7724   -3.0316 C   0  0  0  0  0  0  0  0  0  0  0  0
   12.4025  -21.5721   -2.7196 N   0  0  0  0  0  0  0  0  0  0  0  0
   11.3285  -21.2872   -3.4523 C   0  0  0  0  0  0  0  0  0  0  0  0
   11.1248  -22.3407   -4.2428 N   0  0  0  0  0  0  0  0  0  0  0  0
   12.8932  -26.4785   -3.2701 C   0  0  0  0  0  0  0  0  0  0  0  0
   13.3490  -27.7948   -3.4084 O   0  0  0  0  0  0  0  0  0  0  0  0
   12.0871  -26.2919   -2.3059 O   0  0  0  0  0  0  0  0  0  0  0  0
  1  2  1  0
  3  2  1  0
  4  5  1  0
  4  3  1  0
  5  6  1  6
  5  1  1  0
  6  7  2  0
  9  8  1  6
 10  9  1  0
 11  9  1  0
 12 11  1  6
 13  6  1  0
 13 12  1  0
 14 12  1  0
 14 15  2  0
 16 14  1  0
 17 16  1  0
 17 24  1  0
 17 18  1  6
 19 18  1  0
 20 19  2  0
 21 22  1  0
 21 20  1  0
 22 23  2  0
 23 19  1  0
 24 25  1  0
 26 24  2  0
M  END
$$$$
