HTL.pdb
     RDKit          3D

 26 26  0  0  1  0  0  0  0  0999 V2000
   16.3052  -14.2639  -18.0372 N   0  0  0  0  0  0  0  0  0  0  0  0
   16.1960  -13.1107  -17.2161 C   0  0  1  0  0  0  0  0  0  0  0  0
   16.1301  -13.5349  -15.7528 C   0  0  0  0  0  0  0  0  0  0  0  0
   14.9363  -14.3871  -15.5576 C   0  0  0  0  0  0  0  0  0  0  0  0
   14.8096  -15.7354  -15.4147 C   0  0  0  0  0  0  0  0  0  0  0  0
   13.5005  -16.0690  -15.2647 N   0  0  0  0  0  0  0  0  0  0  0  0
   12.8088  -14.9239  -15.3150 C   0  0  0  0  0  0  0  0  0  0  0  0
   13.6653  -13.8829  -15.4935 N   0  0  0  0  0  0  0  0  0  0  0  0
   17.1261  -12.0177  -17.4595 C   0  0  0  0  0  0  0  0  0  0  0  0
   18.3155  -12.3269  -17.8422 O   0  0  0  0  0  0  0  0  0  0  0  0
   16.4202   -7.7773  -17.1181 C   0  0  0  0  0  0  0  0  0  0  0  0
   17.2708   -8.3895  -18.1906 C   0  0  1  0  0  0  0  0  0  0  0  0
   18.2955   -7.5210  -18.5798 O   0  0  0  0  0  0  0  0  0  0  0  0
   17.9240   -9.6652  -17.6798 C   0  0  2  0  0  0  0  0  0  0  0  0
   16.8830  -10.6438  -17.3267 N   0  0  0  0  0  0  0  0  0  0  0  0
   18.7664   -9.4105  -16.4926 C   0  0  0  0  0  0  0  0  0  0  0  0
   18.3352   -9.6798  -15.3180 O   0  0  0  0  0  0  0  0  0  0  0  0
   22.3159   -9.7885  -12.9643 C   0  0  0  0  0  0  0  0  0  0  0  0
   22.9987   -9.4759  -14.3141 C   0  0  1  0  0  0  0  0  0  0  0  0
   24.1231  -10.4996  -14.4168 C   0  0  0  0  0  0  0  0  0  0  0  0
   22.0252   -9.7201  -15.4386 C   0  0  0  0  0  0  0  0  0  0  0  0
   20.9593   -8.6386  -15.5126 C   0  0  2  0  0  0  0  0  0  0  0  0
   20.0656   -8.8654  -16.6342 N   0  0  0  0  0  0  0  0  0  0  0  0
   21.4929   -7.2710  -15.4988 C   0  0  0  0  0  0  0  0  0  0  0  0
   21.8656   -6.5533  -14.3828 O   0  0  0  0  0  0  0  0  0  0  0  0
   21.6377   -6.6687  -16.6073 O   0  0  0  0  0  0  0  0  0  0  0  0
  2  1  1  6
  3  2  1  0
  4  3  1  0
  5  4  2  0
  6  7  1  0
  6  5  1  0
  7  8  2  0
  8  4  1  0
  9  2  1  0
  9 15  1  0
 10  9  2  0
 12 11  1  1
 13 12  1  0
 14 12  1  0
 14 15  1  1
 16 17  2  0
 16 14  1  0
 19 18  1  1
 19 21  1  0
 20 19  1  0
 22 21  1  6
 22 24  1  0
 22 23  1  0
 23 16  1  0
 24 25  1  0
 26 24  2  0
M  END
$$$$
