HTL.pdb
     RDKit          3D

 26 26  0  0  1  0  0  0  0  0999 V2000
   16.9391  -14.8777  -18.4445 N   0  0  0  0  0  0  0  0  0  0  0  0
   17.4416  -14.2026  -17.3010 C   0  0  1  0  0  0  0  0  0  0  0  0
   18.1534  -15.2015  -16.3949 C   0  0  0  0  0  0  0  0  0  0  0  0
   17.1729  -16.2099  -15.9352 C   0  0  0  0  0  0  0  0  0  0  0  0
   16.0975  -16.1037  -15.1065 C   0  0  0  0  0  0  0  0  0  0  0  0
   15.4903  -17.3122  -14.9710 N   0  0  0  0  0  0  0  0  0  0  0  0
   16.1905  -18.1748  -15.7179 C   0  0  0  0  0  0  0  0  0  0  0  0
   17.2234  -17.5236  -16.3164 N   0  0  0  0  0  0  0  0  0  0  0  0
   18.1982  -12.9780  -17.5177 C   0  0  0  0  0  0  0  0  0  0  0  0
   19.2211  -13.0444  -18.2960 O   0  0  0  0  0  0  0  0  0  0  0  0
   17.3558  -10.1032  -19.4034 C   0  0  0  0  0  0  0  0  0  0  0  0
   17.8391   -9.5428  -18.0993 C   0  0  1  0  0  0  0  0  0  0  0  0
   16.7700   -9.2681  -17.2405 O   0  0  0  0  0  0  0  0  0  0  0  0
   18.7412  -10.5470  -17.3973 C   0  0  2  0  0  0  0  0  0  0  0  0
   17.9462  -11.7109  -16.9741 N   0  0  0  0  0  0  0  0  0  0  0  0
   19.3977   -9.9569  -16.2121 C   0  0  0  0  0  0  0  0  0  0  0  0
   18.8598  -10.0520  -15.0547 O   0  0  0  0  0  0  0  0  0  0  0  0
   24.5796  -10.6583  -14.9414 C   0  0  0  0  0  0  0  0  0  0  0  0
   23.0567  -10.4006  -14.9234 C   0  0  1  0  0  0  0  0  0  0  0  0
   22.6407  -10.6853  -13.4852 C   0  0  0  0  0  0  0  0  0  0  0  0
   22.7890   -8.9473  -15.2203 C   0  0  0  0  0  0  0  0  0  0  0  0
   21.3019   -8.6317  -15.2206 C   0  0  2  0  0  0  0  0  0  0  0  0
   20.6337   -9.2772  -16.3364 N   0  0  0  0  0  0  0  0  0  0  0  0
   20.9947   -7.1981  -15.1468 C   0  0  0  0  0  0  0  0  0  0  0  0
   20.9730   -6.4275  -14.0044 O   0  0  0  0  0  0  0  0  0  0  0  0
   20.7216   -6.5834  -16.2239 O   0  0  0  0  0  0  0  0  0  0  0  0
  2  1  1  6
  3  2  1  0
  4  3  1  0
  5  4  2  0
  6  7  1  0
  6  5  1  0
  7  8  2  0
  8  4  1  0
  9  2  1  0
  9 15  1  0
 10  9  2  0
 12 11  1  6
 13 12  1  0
 14 12  1  0
 14 15  1  1
 16 17  2  0
 16 14  1  0
 19 18  1  1
 19 21  1  0
 20 19  1  0
 22 21  1  6
 22 24  1  0
 22 23  1  0
 23 16  1  0
 24 25  1  0
 26 24  2  0
M  END
$$$$
