HTL.pdb
     RDKit          3D

 26 26  0  0  1  0  0  0  0  0999 V2000
   22.7348  -20.6812  -16.1469 N   0  0  0  0  0  0  0  0  0  0  0  0
   23.0190  -20.2059  -14.8394 C   0  0  1  0  0  0  0  0  0  0  0  0
   21.7592  -20.2912  -13.9843 C   0  0  0  0  0  0  0  0  0  0  0  0
   20.6934  -19.4897  -14.6256 C   0  0  0  0  0  0  0  0  0  0  0  0
   19.4904  -19.8522  -15.1506 C   0  0  0  0  0  0  0  0  0  0  0  0
   18.8456  -18.7604  -15.6402 N   0  0  0  0  0  0  0  0  0  0  0  0
   19.6503  -17.7136  -15.4197 C   0  0  0  0  0  0  0  0  0  0  0  0
   20.7854  -18.1352  -14.8008 N   0  0  0  0  0  0  0  0  0  0  0  0
   24.2048  -20.7260  -14.1746 C   0  0  0  0  0  0  0  0  0  0  0  0
   24.3981  -21.9978  -14.2186 O   0  0  0  0  0  0  0  0  0  0  0  0
   28.6522  -20.8941  -12.3104 C   0  0  0  0  0  0  0  0  0  0  0  0
   27.5824  -20.1332  -13.0350 C   0  0  1  0  0  0  0  0  0  0  0  0
   27.7435  -20.2310  -14.4208 O   0  0  0  0  0  0  0  0  0  0  0  0
   26.2118  -20.6994  -12.6944 C   0  0  2  0  0  0  0  0  0  0  0  0
   25.1817  -20.0002  -13.4792 N   0  0  0  0  0  0  0  0  0  0  0  0
   25.9019  -20.5535  -11.2568 C   0  0  0  0  0  0  0  0  0  0  0  0
   24.9699  -19.7673  -10.8679 O   0  0  0  0  0  0  0  0  0  0  0  0
   27.8648  -20.6502   -5.9522 C   0  0  0  0  0  0  0  0  0  0  0  0
   27.0960  -19.6879   -6.8842 C   0  0  1  0  0  0  0  0  0  0  0  0
   27.6877  -18.3157   -6.5844 C   0  0  0  0  0  0  0  0  0  0  0  0
   27.3937  -20.0340   -8.3207 C   0  0  0  0  0  0  0  0  0  0  0  0
   26.4510  -21.0998   -8.8557 C   0  0  2  0  0  0  0  0  0  0  0  0
   26.6300  -21.2820  -10.2850 N   0  0  0  0  0  0  0  0  0  0  0  0
   25.0432  -20.8875   -8.4977 C   0  0  0  0  0  0  0  0  0  0  0  0
   24.2033  -21.8106   -7.9131 O   0  0  0  0  0  0  0  0  0  0  0  0
   24.5246  -19.7531   -8.7357 O   0  0  0  0  0  0  0  0  0  0  0  0
  2  1  1  6
  3  2  1  0
  4  3  1  0
  5  4  2  0
  6  7  1  0
  6  5  1  0
  7  8  2  0
  8  4  1  0
  9  2  1  0
  9 15  1  0
 10  9  2  0
 12 11  1  1
 13 12  1  0
 14 12  1  0
 14 15  1  6
 16 17  2  0
 16 14  1  0
 19 18  1  1
 19 21  1  0
 20 19  1  0
 22 21  1  6
 22 24  1  0
 22 23  1  0
 23 16  1  0
 24 25  1  0
 26 24  2  0
M  END
$$$$
