HTL.pdb
     RDKit          3D

 26 26  0  0  1  0  0  0  0  0999 V2000
   20.2668  -13.3009  -19.6503 N   0  0  0  0  0  0  0  0  0  0  0  0
   21.4642  -12.6719  -19.2180 C   0  0  1  0  0  0  0  0  0  0  0  0
   22.6350  -13.1858  -20.0489 C   0  0  0  0  0  0  0  0  0  0  0  0
   22.6812  -14.6612  -19.9451 C   0  0  0  0  0  0  0  0  0  0  0  0
   23.6971  -15.5066  -19.6172 C   0  0  0  0  0  0  0  0  0  0  0  0
   23.2659  -16.7949  -19.6603 N   0  0  0  0  0  0  0  0  0  0  0  0
   21.9762  -16.7518  -20.0169 C   0  0  0  0  0  0  0  0  0  0  0  0
   21.5971  -15.4583  -20.1964 N   0  0  0  0  0  0  0  0  0  0  0  0
   21.4515  -11.2237  -19.0712 C   0  0  0  0  0  0  0  0  0  0  0  0
   22.5892  -10.6241  -19.0207 O   0  0  0  0  0  0  0  0  0  0  0  0
   19.6364   -6.7048  -19.4041 C   0  0  0  0  0  0  0  0  0  0  0  0
   19.5426   -8.1774  -19.6708 C   0  0  1  0  0  0  0  0  0  0  0  0
   19.8880   -8.4742  -20.9931 O   0  0  0  0  0  0  0  0  0  0  0  0
   20.5021   -8.9378  -18.7673 C   0  0  2  0  0  0  0  0  0  0  0  0
   20.3328  -10.3846  -18.9766 N   0  0  0  0  0  0  0  0  0  0  0  0
   20.2710   -8.6283  -17.3408 C   0  0  0  0  0  0  0  0  0  0  0  0
   19.2046   -9.0225  -16.7533 O   0  0  0  0  0  0  0  0  0  0  0  0
   23.1966  -10.2118  -13.3721 C   0  0  0  0  0  0  0  0  0  0  0  0
   21.9986   -9.6477  -14.1675 C   0  0  1  0  0  0  0  0  0  0  0  0
   20.7971   -9.8791  -13.2589 C   0  0  0  0  0  0  0  0  0  0  0  0
   22.1757   -8.1630  -14.3578 C   0  0  0  0  0  0  0  0  0  0  0  0
   21.0595   -7.5602  -15.1955 C   0  0  2  0  0  0  0  0  0  0  0  0
   21.2262   -7.8914  -16.5993 N   0  0  0  0  0  0  0  0  0  0  0  0
   20.8659   -6.1200  -14.9867 C   0  0  0  0  0  0  0  0  0  0  0  0
   20.1745   -5.5332  -13.9489 O   0  0  0  0  0  0  0  0  0  0  0  0
   21.3755   -5.3148  -15.8260 O   0  0  0  0  0  0  0  0  0  0  0  0
  2  1  1  6
  3  2  1  0
  4  3  1  0
  5  4  2  0
  6  7  1  0
  6  5  1  0
  7  8  2  0
  8  4  1  0
  9  2  1  0
  9 15  1  0
 10  9  2  0
 12 11  1  6
 13 12  1  0
 14 12  1  0
 14 15  1  1
 16 17  2  0
 16 14  1  0
 19 18  1  1
 19 21  1  0
 20 19  1  0
 22 21  1  1
 22 24  1  0
 22 23  1  0
 23 16  1  0
 24 25  1  0
 26 24  2  0
M  END
$$$$
