HTL.pdb
     RDKit          3D

 26 26  0  0  1  0  0  0  0  0999 V2000
   25.5932  -18.9752  -16.6164 N   0  0  0  0  0  0  0  0  0  0  0  0
   25.7890  -18.3767  -15.3438 C   0  0  1  0  0  0  0  0  0  0  0  0
   25.5191  -16.8790  -15.4412 C   0  0  0  0  0  0  0  0  0  0  0  0
   26.4653  -16.2870  -16.4127 C   0  0  0  0  0  0  0  0  0  0  0  0
   27.4799  -16.8433  -17.1306 C   0  0  0  0  0  0  0  0  0  0  0  0
   28.0838  -15.8974  -17.8974 N   0  0  0  0  0  0  0  0  0  0  0  0
   27.4430  -14.7470  -17.6558 C   0  0  0  0  0  0  0  0  0  0  0  0
   26.4502  -14.9609  -16.7516 N   0  0  0  0  0  0  0  0  0  0  0  0
   25.1509  -19.0054  -14.1964 C   0  0  0  0  0  0  0  0  0  0  0  0
   23.8855  -19.2284  -14.2716 O   0  0  0  0  0  0  0  0  0  0  0  0
   23.9326  -21.4052  -13.9549 C   0  0  0  0  0  0  0  0  0  0  0  0
   24.7287  -21.6058  -12.7002 C   0  0  1  0  0  0  0  0  0  0  0  0
   25.9542  -22.2220  -12.9727 O   0  0  0  0  0  0  0  0  0  0  0  0
   25.0282  -20.2646  -12.0472 C   0  0  2  0  0  0  0  0  0  0  0  0
   25.7547  -19.4063  -12.9967 N   0  0  0  0  0  0  0  0  0  0  0  0
   25.8408  -20.4219  -10.8229 C   0  0  0  0  0  0  0  0  0  0  0  0
   27.1015  -20.2026  -10.8454 O   0  0  0  0  0  0  0  0  0  0  0  0
   28.8412  -20.3810   -6.8862 C   0  0  0  0  0  0  0  0  0  0  0  0
   27.4568  -19.7119   -6.7389 C   0  0  1  0  0  0  0  0  0  0  0  0
   27.7694  -18.2844   -6.3061 C   0  0  0  0  0  0  0  0  0  0  0  0
   26.7749  -19.6661   -8.0823 C   0  0  0  0  0  0  0  0  0  0  0  0
   25.9699  -20.9267   -8.3544 C   0  0  2  0  0  0  0  0  0  0  0  0
   25.2384  -20.8168   -9.6038 N   0  0  0  0  0  0  0  0  0  0  0  0
   25.1044  -21.3356   -7.2414 C   0  0  0  0  0  0  0  0  0  0  0  0
   25.5149  -21.9193   -6.0623 O   0  0  0  0  0  0  0  0  0  0  0  0
   23.8538  -21.1424   -7.3470 O   0  0  0  0  0  0  0  0  0  0  0  0
  2  1  1  6
  3  2  1  0
  4  3  1  0
  5  4  2  0
  6  7  1  0
  6  5  1  0
  7  8  2  0
  8  4  1  0
  9  2  1  0
  9 15  1  0
 10  9  2  0
 12 11  1  6
 13 12  1  0
 14 12  1  0
 14 15  1  6
 16 17  2  0
 16 14  1  0
 19 18  1  6
 19 21  1  0
 20 19  1  0
 22 21  1  1
 22 24  1  0
 22 23  1  0
 23 16  1  0
 24 25  1  0
 26 24  2  0
M  END
$$$$
