HTL.pdb
     RDKit          3D

 26 26  0  0  1  0  0  0  0  0999 V2000
   19.7504  -22.1923  -14.6506 N   0  0  0  0  0  0  0  0  0  0  0  0
   20.1382  -22.6457  -13.3621 C   0  0  1  0  0  0  0  0  0  0  0  0
   20.6049  -21.4584  -12.5265 C   0  0  0  0  0  0  0  0  0  0  0  0
   21.7165  -20.7857  -13.2344 C   0  0  0  0  0  0  0  0  0  0  0  0
   21.7221  -19.9602  -14.3174 C   0  0  0  0  0  0  0  0  0  0  0  0
   22.9949  -19.5877  -14.6151 N   0  0  0  0  0  0  0  0  0  0  0  0
   23.7855  -20.1838  -13.7142 C   0  0  0  0  0  0  0  0  0  0  0  0
   23.0263  -20.9212  -12.8603 N   0  0  0  0  0  0  0  0  0  0  0  0
   19.2230  -23.5275  -12.6526 C   0  0  0  0  0  0  0  0  0  0  0  0
   18.0413  -23.0804  -12.4072 O   0  0  0  0  0  0  0  0  0  0  0  0
   17.7306  -26.6631  -13.8068 C   0  0  0  0  0  0  0  0  0  0  0  0
   18.2658  -26.9411  -12.4340 C   0  0  1  0  0  0  0  0  0  0  0  0
   19.5417  -27.5105  -12.4951 O   0  0  0  0  0  0  0  0  0  0  0  0
   18.3817  -25.6468  -11.6426 C   0  0  2  0  0  0  0  0  0  0  0  0
   19.4731  -24.8284  -12.1947 N   0  0  0  0  0  0  0  0  0  0  0  0
   18.6496  -25.9030  -10.2120 C   0  0  0  0  0  0  0  0  0  0  0  0
   19.8316  -25.7762   -9.7378 O   0  0  0  0  0  0  0  0  0  0  0  0
   15.8208  -23.7799   -6.2139 C   0  0  0  0  0  0  0  0  0  0  0  0
   16.9534  -24.4241   -7.0435 C   0  0  1  0  0  0  0  0  0  0  0  0
   18.2236  -24.1042   -6.2644 C   0  0  0  0  0  0  0  0  0  0  0  0
   16.7707  -25.9201   -7.0676 C   0  0  0  0  0  0  0  0  0  0  0  0
   17.8108  -26.6058   -7.9388 C   0  0  2  0  0  0  0  0  0  0  0  0
   17.6030  -26.2920   -9.3411 N   0  0  0  0  0  0  0  0  0  0  0  0
   17.9265  -28.0508   -7.7070 C   0  0  0  0  0  0  0  0  0  0  0  0
   18.6095  -28.6583   -6.6756 O   0  0  0  0  0  0  0  0  0  0  0  0
   17.3497  -28.8400   -8.5177 O   0  0  0  0  0  0  0  0  0  0  0  0
  2  1  1  6
  3  2  1  0
  4  3  1  0
  5  4  2  0
  6  7  1  0
  6  5  1  0
  7  8  2  0
  8  4  1  0
  9  2  1  0
  9 15  1  0
 10  9  2  0
 12 11  1  6
 13 12  1  0
 14 12  1  0
 14 15  1  6
 16 17  2  0
 16 14  1  0
 19 18  1  1
 19 21  1  0
 20 19  1  0
 22 21  1  1
 22 24  1  0
 22 23  1  0
 23 16  1  0
 24 25  1  0
 26 24  2  0
M  END
$$$$
