HTL.pdb
     RDKit          3D

 26 26  0  0  1  0  0  0  0  0999 V2000
   18.9239  -12.0295  -18.9272 N   0  0  0  0  0  0  0  0  0  0  0  0
   18.3838  -10.9935  -18.1204 C   0  0  1  0  0  0  0  0  0  0  0  0
   17.7588  -11.5998  -16.8684 C   0  0  0  0  0  0  0  0  0  0  0  0
   16.6305  -12.4678  -17.2722 C   0  0  0  0  0  0  0  0  0  0  0  0
   16.4541  -13.8145  -17.1737 C   0  0  0  0  0  0  0  0  0  0  0  0
   15.2467  -14.1670  -17.6890 N   0  0  0  0  0  0  0  0  0  0  0  0
   14.6689  -13.0353  -18.1106 C   0  0  0  0  0  0  0  0  0  0  0  0
   15.4961  -11.9841  -17.8662 N   0  0  0  0  0  0  0  0  0  0  0  0
   19.2301   -9.8419  -17.8439 C   0  0  0  0  0  0  0  0  0  0  0  0
   20.4509  -10.0718  -17.5075 O   0  0  0  0  0  0  0  0  0  0  0  0
   20.3597   -5.0264  -17.7286 C   0  0  0  0  0  0  0  0  0  0  0  0
   19.4049   -6.1115  -18.1279 C   0  0  1  0  0  0  0  0  0  0  0  0
   19.3567   -6.2555  -19.5181 O   0  0  0  0  0  0  0  0  0  0  0  0
   19.8511   -7.4449  -17.5467 C   0  0  2  0  0  0  0  0  0  0  0  0
   18.8742   -8.4874  -17.9001 N   0  0  0  0  0  0  0  0  0  0  0  0
   19.9787   -7.3849  -16.0756 C   0  0  0  0  0  0  0  0  0  0  0  0
   18.9526   -7.5377  -15.3261 O   0  0  0  0  0  0  0  0  0  0  0  0
   20.8403   -8.5049  -11.2981 C   0  0  0  0  0  0  0  0  0  0  0  0
   22.2060   -8.3267  -11.9973 C   0  0  1  0  0  0  0  0  0  0  0  0
   23.0124   -9.5480  -11.5719 C   0  0  0  0  0  0  0  0  0  0  0  0
   22.0162   -8.3755  -13.4918 C   0  0  0  0  0  0  0  0  0  0  0  0
   21.4276   -7.0823  -14.0325 C   0  0  2  0  0  0  0  0  0  0  0  0
   21.2386   -7.1584  -15.4701 N   0  0  0  0  0  0  0  0  0  0  0  0
   22.1655   -5.8771  -13.6351 C   0  0  0  0  0  0  0  0  0  0  0  0
   22.0071   -5.1756  -12.4594 O   0  0  0  0  0  0  0  0  0  0  0  0
   23.0416   -5.4163  -14.4305 O   0  0  0  0  0  0  0  0  0  0  0  0
  2  1  1  1
  3  2  1  0
  4  3  1  0
  5  4  2  0
  6  7  1  0
  6  5  1  0
  7  8  2  0
  8  4  1  0
  9  2  1  0
  9 15  1  0
 10  9  2  0
 12 11  1  6
 13 12  1  0
 14 12  1  0
 14 15  1  1
 16 17  2  0
 16 14  1  0
 19 18  1  1
 19 21  1  0
 20 19  1  0
 22 21  1  6
 22 24  1  0
 22 23  1  0
 23 16  1  0
 24 25  1  0
 26 24  2  0
M  END
$$$$
