HTL.pdb
     RDKit          3D

 26 26  0  0  1  0  0  0  0  0999 V2000
   27.5286  -21.9929  -17.0295 N   0  0  0  0  0  0  0  0  0  0  0  0
   28.1082  -21.9366  -15.7345 C   0  0  1  0  0  0  0  0  0  0  0  0
   29.5899  -21.5971  -15.8568 C   0  0  0  0  0  0  0  0  0  0  0  0
   30.2774  -22.7091  -16.5499 C   0  0  0  0  0  0  0  0  0  0  0  0
   30.6051  -23.9625  -16.1303 C   0  0  0  0  0  0  0  0  0  0  0  0
   31.2419  -24.6368  -17.1239 N   0  0  0  0  0  0  0  0  0  0  0  0
   31.3116  -23.7999  -18.1665 C   0  0  0  0  0  0  0  0  0  0  0  0
   30.7286  -22.6159  -17.8389 N   0  0  0  0  0  0  0  0  0  0  0  0
   27.4182  -21.1545  -14.7192 C   0  0  0  0  0  0  0  0  0  0  0  0
   27.3885  -19.8772  -14.8749 O   0  0  0  0  0  0  0  0  0  0  0  0
   23.6276  -19.8683  -12.4843 C   0  0  0  0  0  0  0  0  0  0  0  0
   24.5740  -20.5621  -13.4177 C   0  0  1  0  0  0  0  0  0  0  0  0
   24.7612  -19.8219  -14.5895 O   0  0  0  0  0  0  0  0  0  0  0  0
   25.9361  -20.7261  -12.7597 C   0  0  2  0  0  0  0  0  0  0  0  0
   26.7690  -21.6284  -13.5709 N   0  0  0  0  0  0  0  0  0  0  0  0
   25.8204  -21.2774  -11.3935 C   0  0  0  0  0  0  0  0  0  0  0  0
   25.5533  -22.5157  -11.2113 O   0  0  0  0  0  0  0  0  0  0  0  0
   28.1484  -18.6555   -6.9988 C   0  0  0  0  0  0  0  0  0  0  0  0
   27.6516  -19.7127   -8.0095 C   0  0  1  0  0  0  0  0  0  0  0  0
   28.3044  -21.0116   -7.5517 C   0  0  0  0  0  0  0  0  0  0  0  0
   26.1564  -19.8602   -7.8889 C   0  0  0  0  0  0  0  0  0  0  0  0
   25.5951  -20.8240   -8.9219 C   0  0  2  0  0  0  0  0  0  0  0  0
   26.0044  -20.4453  -10.2626 N   0  0  0  0  0  0  0  0  0  0  0  0
   24.1446  -21.0279   -8.8237 C   0  0  0  0  0  0  0  0  0  0  0  0
   23.5004  -21.8998   -7.9727 O   0  0  0  0  0  0  0  0  0  0  0  0
   23.3869  -20.3472   -9.5821 O   0  0  0  0  0  0  0  0  0  0  0  0
  2  1  1  6
  3  2  1  0
  4  3  1  0
  5  4  2  0
  6  7  1  0
  6  5  1  0
  7  8  2  0
  8  4  1  0
  9  2  1  0
  9 15  1  0
 10  9  2  0
 12 11  1  1
 13 12  1  0
 14 12  1  0
 14 15  1  6
 16 17  2  0
 16 14  1  0
 19 18  1  1
 19 21  1  0
 20 19  1  0
 22 21  1  1
 22 24  1  0
 22 23  1  0
 23 16  1  0
 24 25  1  0
 26 24  2  0
M  END
$$$$
