HTL.pdb
     RDKit          3D

 26 26  0  0  1  0  0  0  0  0999 V2000
   18.0962  -16.9451  -18.7405 N   0  0  0  0  0  0  0  0  0  0  0  0
   18.3070  -17.5665  -17.4814 C   0  0  1  0  0  0  0  0  0  0  0  0
   17.0435  -18.3130  -17.0668 C   0  0  0  0  0  0  0  0  0  0  0  0
   15.9301  -17.3438  -16.9639 C   0  0  0  0  0  0  0  0  0  0  0  0
   15.6032  -16.4527  -15.9875 C   0  0  0  0  0  0  0  0  0  0  0  0
   14.4793  -15.7711  -16.3336 N   0  0  0  0  0  0  0  0  0  0  0  0
   14.1043  -16.2399  -17.5302 C   0  0  0  0  0  0  0  0  0  0  0  0
   14.9760  -17.2018  -17.9351 N   0  0  0  0  0  0  0  0  0  0  0  0
   19.5228  -18.3482  -17.3090 C   0  0  0  0  0  0  0  0  0  0  0  0
   20.1990  -18.6316  -18.3668 O   0  0  0  0  0  0  0  0  0  0  0  0
   21.9355  -17.5894  -17.7804 C   0  0  0  0  0  0  0  0  0  0  0  0
   22.3830  -18.1697  -16.4722 C   0  0  1  0  0  0  0  0  0  0  0  0
   22.3548  -17.2081  -15.4571 O   0  0  0  0  0  0  0  0  0  0  0  0
   21.4558  -19.3012  -16.0541 C   0  0  2  0  0  0  0  0  0  0  0  0
   20.0594  -18.8398  -16.1111 N   0  0  0  0  0  0  0  0  0  0  0  0
   21.7507  -19.7719  -14.6846 C   0  0  0  0  0  0  0  0  0  0  0  0
   21.0792  -19.3343  -13.6868 O   0  0  0  0  0  0  0  0  0  0  0  0
   25.3046  -22.5500  -11.2699 C   0  0  0  0  0  0  0  0  0  0  0  0
   24.7525  -21.1077  -11.2419 C   0  0  1  0  0  0  0  0  0  0  0  0
   25.9121  -20.2676  -10.7202 C   0  0  0  0  0  0  0  0  0  0  0  0
   24.4340  -20.6638  -12.6467 C   0  0  0  0  0  0  0  0  0  0  0  0
   23.1087  -21.2268  -13.1342 C   0  0  2  0  0  0  0  0  0  0  0  0
   22.7804  -20.7159  -14.4530 N   0  0  0  0  0  0  0  0  0  0  0  0
   22.0018  -21.0582  -12.1848 C   0  0  0  0  0  0  0  0  0  0  0  0
   21.0407  -21.9974  -11.8789 O   0  0  0  0  0  0  0  0  0  0  0  0
   21.8971  -19.9517  -11.5704 O   0  0  0  0  0  0  0  0  0  0  0  0
  2  1  1  6
  3  2  1  0
  4  3  1  0
  5  4  2  0
  6  7  1  0
  6  5  1  0
  7  8  2  0
  8  4  1  0
  9  2  1  0
  9 15  1  0
 10  9  2  0
 12 11  1  6
 13 12  1  0
 14 12  1  0
 14 15  1  1
 16 17  2  0
 16 14  1  0
 19 18  1  6
 19 21  1  0
 20 19  1  0
 22 21  1  1
 22 24  1  0
 22 23  1  0
 23 16  1  0
 24 25  1  0
 26 24  2  0
M  END
$$$$
