HTL.pdb
     RDKit          3D

 26 26  0  0  1  0  0  0  0  0999 V2000
   22.8338  -19.0636  -14.8253 N   0  0  0  0  0  0  0  0  0  0  0  0
   23.1762  -20.4127  -15.1059 C   0  0  1  0  0  0  0  0  0  0  0  0
   23.0193  -20.6750  -16.5999 C   0  0  0  0  0  0  0  0  0  0  0  0
   21.8607  -19.9022  -17.0999 C   0  0  0  0  0  0  0  0  0  0  0  0
   21.7948  -18.7564  -17.8327 C   0  0  0  0  0  0  0  0  0  0  0  0
   20.4975  -18.4146  -18.0510 N   0  0  0  0  0  0  0  0  0  0  0  0
   19.7522  -19.3512  -17.4513 C   0  0  0  0  0  0  0  0  0  0  0  0
   20.5637  -20.2704  -16.8635 N   0  0  0  0  0  0  0  0  0  0  0  0
   24.4257  -20.9204  -14.5583 C   0  0  0  0  0  0  0  0  0  0  0  0
   24.8449  -22.0563  -14.9948 O   0  0  0  0  0  0  0  0  0  0  0  0
   27.9666  -19.9752  -14.7848 C   0  0  0  0  0  0  0  0  0  0  0  0
   27.6657  -20.1025  -13.3214 C   0  0  1  0  0  0  0  0  0  0  0  0
   27.3704  -18.8578  -12.7563 O   0  0  0  0  0  0  0  0  0  0  0  0
   26.4541  -20.9982  -13.1095 C   0  0  2  0  0  0  0  0  0  0  0  0
   25.2453  -20.3143  -13.5963 N   0  0  0  0  0  0  0  0  0  0  0  0
   26.2707  -21.3416  -11.6839 C   0  0  0  0  0  0  0  0  0  0  0  0
   25.7139  -22.4432  -11.3457 O   0  0  0  0  0  0  0  0  0  0  0  0
   27.8598  -20.9710   -6.3684 C   0  0  0  0  0  0  0  0  0  0  0  0
   26.9337  -19.8700   -6.9307 C   0  0  1  0  0  0  0  0  0  0  0  0
   27.3551  -18.6056   -6.1916 C   0  0  0  0  0  0  0  0  0  0  0  0
   27.2121  -19.6808   -8.4000 C   0  0  0  0  0  0  0  0  0  0  0  0
   26.4485  -20.6782   -9.2563 C   0  0  2  0  0  0  0  0  0  0  0  0
   26.7089  -20.4582  -10.6676 N   0  0  0  0  0  0  0  0  0  0  0  0
   25.0115  -20.7418   -8.9627 C   0  0  0  0  0  0  0  0  0  0  0  0
   24.3955  -21.6171   -8.0944 O   0  0  0  0  0  0  0  0  0  0  0  0
   24.2391  -19.9219   -9.5489 O   0  0  0  0  0  0  0  0  0  0  0  0
  2  1  1  6
  3  2  1  0
  4  3  1  0
  5  4  2  0
  6  7  1  0
  6  5  1  0
  7  8  2  0
  8  4  1  0
  9  2  1  0
  9 15  1  0
 10  9  2  0
 12 11  1  6
 13 12  1  0
 14 12  1  0
 14 15  1  1
 16 17  2  0
 16 14  1  0
 19 18  1  1
 19 21  1  0
 20 19  1  0
 22 21  1  1
 22 24  1  0
 22 23  1  0
 23 16  1  0
 24 25  1  0
 26 24  2  0
M  END
$$$$
