HTL.pdb
     RDKit          3D

 26 26  0  0  1  0  0  0  0  0999 V2000
   19.8542  -14.8527  -17.4294 N   0  0  0  0  0  0  0  0  0  0  0  0
   19.7221  -13.5137  -17.8832 C   0  0  1  0  0  0  0  0  0  0  0  0
   18.3304  -13.3139  -18.4738 C   0  0  0  0  0  0  0  0  0  0  0  0
   18.2021  -14.1542  -19.6849 C   0  0  0  0  0  0  0  0  0  0  0  0
   18.6374  -13.9623  -20.9609 C   0  0  0  0  0  0  0  0  0  0  0  0
   18.2773  -15.0152  -21.7413 N   0  0  0  0  0  0  0  0  0  0  0  0
   17.6146  -15.8664  -20.9485 C   0  0  0  0  0  0  0  0  0  0  0  0
   17.5562  -15.3611  -19.6873 N   0  0  0  0  0  0  0  0  0  0  0  0
   20.1221  -12.4498  -16.9739 C   0  0  0  0  0  0  0  0  0  0  0  0
   19.6297  -12.4713  -15.7849 O   0  0  0  0  0  0  0  0  0  0  0  0
   23.3033  -11.8153  -15.4999 C   0  0  0  0  0  0  0  0  0  0  0  0
   22.8630  -10.4582  -15.9610 C   0  0  1  0  0  0  0  0  0  0  0  0
   23.4600  -10.1205  -17.1798 O   0  0  0  0  0  0  0  0  0  0  0  0
   21.3561  -10.4371  -16.1703 C   0  0  2  0  0  0  0  0  0  0  0  0
   20.9941  -11.3844  -17.2368 N   0  0  0  0  0  0  0  0  0  0  0  0
   20.8744   -9.0899  -16.5405 C   0  0  0  0  0  0  0  0  0  0  0  0
   20.3857   -8.8694  -17.7026 O   0  0  0  0  0  0  0  0  0  0  0  0
   19.3611   -4.8312  -18.0907 C   0  0  0  0  0  0  0  0  0  0  0  0
   18.5852   -5.3236  -16.8491 C   0  0  1  0  0  0  0  0  0  0  0  0
   17.1400   -5.4279  -17.3215 C   0  0  0  0  0  0  0  0  0  0  0  0
   19.0653   -6.7011  -16.4698 C   0  0  0  0  0  0  0  0  0  0  0  0
   20.4809   -6.6773  -15.9162 C   0  0  2  0  0  0  0  0  0  0  0  0
   20.9441   -8.0201  -15.6153 N   0  0  0  0  0  0  0  0  0  0  0  0
   20.6646   -5.7624  -14.7829 C   0  0  0  0  0  0  0  0  0  0  0  0
   21.0068   -6.1180  -13.4961 O   0  0  0  0  0  0  0  0  0  0  0  0
   20.5014   -4.5184  -14.9791 O   0  0  0  0  0  0  0  0  0  0  0  0
  2  1  1  1
  3  2  1  0
  4  3  1  0
  5  4  2  0
  6  7  1  0
  6  5  1  0
  7  8  2  0
  8  4  1  0
  9  2  1  0
  9 15  1  0
 10  9  2  0
 12 11  1  6
 13 12  1  0
 14 12  1  0
 14 15  1  6
 16 17  2  0
 16 14  1  0
 19 18  1  6
 19 21  1  0
 20 19  1  0
 22 21  1  1
 22 24  1  0
 22 23  1  0
 23 16  1  0
 24 25  1  0
 26 24  2  0
M  END
$$$$
