HTL.pdb
     RDKit          3D

 26 26  0  0  1  0  0  0  0  0999 V2000
   25.9468  -19.0463  -15.5688 N   0  0  0  0  0  0  0  0  0  0  0  0
   26.7897  -19.1827  -14.4342 C   0  0  1  0  0  0  0  0  0  0  0  0
   27.9544  -18.2049  -14.5477 C   0  0  0  0  0  0  0  0  0  0  0  0
   28.5919  -18.3756  -15.8721 C   0  0  0  0  0  0  0  0  0  0  0  0
   28.8320  -17.4853  -16.8741 C   0  0  0  0  0  0  0  0  0  0  0  0
   29.4433  -18.1078  -17.9164 N   0  0  0  0  0  0  0  0  0  0  0  0
   29.5842  -19.3912  -17.5624 C   0  0  0  0  0  0  0  0  0  0  0  0
   29.0710  -19.5782  -16.3171 N   0  0  0  0  0  0  0  0  0  0  0  0
   26.1607  -19.1822  -13.1215 C   0  0  0  0  0  0  0  0  0  0  0  0
   25.4799  -18.1407  -12.7920 O   0  0  0  0  0  0  0  0  0  0  0  0
   23.2724  -20.0984  -12.0852 C   0  0  0  0  0  0  0  0  0  0  0  0
   24.1072  -20.7661  -11.0337 C   0  0  1  0  0  0  0  0  0  0  0  0
   24.3688  -22.0988  -11.3675 O   0  0  0  0  0  0  0  0  0  0  0  0
   25.4474  -20.0586  -10.8983 C   0  0  2  0  0  0  0  0  0  0  0  0
   26.2045  -20.1944  -12.1530 N   0  0  0  0  0  0  0  0  0  0  0  0
   26.2503  -20.6160   -9.7899 C   0  0  0  0  0  0  0  0  0  0  0  0
   26.9764  -21.6545   -9.9698 O   0  0  0  0  0  0  0  0  0  0  0  0
   29.5491  -20.8259   -5.6825 C   0  0  0  0  0  0  0  0  0  0  0  0
   28.2545  -20.0715   -5.3073 C   0  0  1  0  0  0  0  0  0  0  0  0
   28.7294  -18.9094   -4.4432 C   0  0  0  0  0  0  0  0  0  0  0  0
   27.6189  -19.5122   -6.5543 C   0  0  0  0  0  0  0  0  0  0  0  0
   26.8888  -20.5826   -7.3494 C   0  0  2  0  0  0  0  0  0  0  0  0
   26.2310  -20.0100   -8.5103 N   0  0  0  0  0  0  0  0  0  0  0  0
   25.9758  -21.4056   -6.5467 C   0  0  0  0  0  0  0  0  0  0  0  0
   26.3293  -22.4713   -5.7476 O   0  0  0  0  0  0  0  0  0  0  0  0
   24.7365  -21.1298   -6.5702 O   0  0  0  0  0  0  0  0  0  0  0  0
  2  1  1  6
  3  2  1  0
  4  3  1  0
  5  4  2  0
  6  7  1  0
  6  5  1  0
  7  8  2  0
  8  4  1  0
  9  2  1  0
  9 15  1  0
 10  9  2  0
 12 11  1  6
 13 12  1  0
 14 12  1  0
 14 15  1  6
 16 17  2  0
 16 14  1  0
 19 18  1  6
 19 21  1  0
 20 19  1  0
 22 21  1  1
 22 24  1  0
 22 23  1  0
 23 16  1  0
 24 25  1  0
 26 24  2  0
M  END
$$$$
