FVG.pdb
     RDKit          3D

 23 23  0  0  1  0  0  0  0  0999 V2000
   28.3911  -20.3943  -16.1787 N   0  0  0  0  0  0  0  0  0  0  0  0
   27.5611  -19.6117  -15.2932 C   0  0  1  0  0  0  0  0  0  0  0  0
   26.5509  -18.8339  -16.1085 C   0  0  0  0  0  0  0  0  0  0  0  0
   27.1859  -17.5664  -16.5168 C   0  0  0  0  0  0  0  0  0  0  0  0
   27.1184  -16.4904  -15.6330 C   0  0  0  0  0  0  0  0  0  0  0  0
   27.6994  -15.3042  -15.9883 C   0  0  0  0  0  0  0  0  0  0  0  0
   28.3397  -15.1973  -17.2132 C   0  0  0  0  0  0  0  0  0  0  0  0
   28.3934  -16.2808  -18.0742 C   0  0  0  0  0  0  0  0  0  0  0  0
   27.8095  -17.4824  -17.7237 C   0  0  0  0  0  0  0  0  0  0  0  0
   26.8002  -20.4609  -14.3467 C   0  0  0  0  0  0  0  0  0  0  0  0
   26.6249  -21.6643  -14.6712 O   0  0  0  0  0  0  0  0  0  0  0  0
   25.6161  -21.6659   -9.9241 C   0  0  0  0  0  0  0  0  0  0  0  0
   26.3793  -20.7705  -10.8771 C   0  0  1  0  0  0  0  0  0  0  0  0
   27.7568  -21.3262  -11.0794 C   0  0  0  0  0  0  0  0  0  0  0  0
   25.6495  -20.8234  -12.2059 C   0  0  2  0  0  0  0  0  0  0  0  0
   26.2953  -19.9460  -13.1378 N   0  0  0  0  0  0  0  0  0  0  0  0
   24.2374  -20.3208  -12.0483 C   0  0  0  0  0  0  0  0  0  0  0  0
   23.9774  -19.1609  -11.6345 O   0  0  0  0  0  0  0  0  0  0  0  0
   23.1295  -21.1492  -12.3656 N   0  0  0  0  0  0  0  0  0  0  0  0
   21.7660  -20.7175  -12.1650 C   0  0  0  0  0  0  0  0  0  0  0  0
   20.7934  -21.7759  -12.5451 C   0  0  0  0  0  0  0  0  0  0  0  0
   19.5762  -21.6540  -12.2605 O   0  0  0  0  0  0  0  0  0  0  0  0
   21.1860  -22.9229  -13.2193 O   0  0  0  0  0  0  0  0  0  0  0  0
  2 10  1  0
  2  1  1  6
  3  2  1  0
  4  3  1  0
  5  4  2  0
  6  5  1  0
  7  8  1  0
  7  6  2  0
  8  9  2  0
  9  4  1  0
 10 11  2  0
 13 12  1  1
 13 14  1  0
 15 13  1  0
 16 10  1  0
 15 16  1  6
 17 19  1  0
 17 15  1  0
 18 17  2  0
 20 21  1  0
 20 19  1  0
 21 23  1  0
 22 21  2  0
M  END
$$$$
