FVG.pdb
     RDKit          3D

 23 23  0  0  1  0  0  0  0  0999 V2000
   19.0123  -12.4342  -16.8474 N   0  0  0  0  0  0  0  0  0  0  0  0
   19.6612  -11.1975  -17.2147 C   0  0  1  0  0  0  0  0  0  0  0  0
   18.7872  -10.4432  -18.1931 C   0  0  0  0  0  0  0  0  0  0  0  0
   18.8743  -11.1325  -19.4947 C   0  0  0  0  0  0  0  0  0  0  0  0
   17.8008  -11.9342  -19.8795 C   0  0  0  0  0  0  0  0  0  0  0  0
   17.8573  -12.5841  -21.0818 C   0  0  0  0  0  0  0  0  0  0  0  0
   18.9748  -12.4327  -21.8880 C   0  0  0  0  0  0  0  0  0  0  0  0
   20.0288  -11.6304  -21.4835 C   0  0  0  0  0  0  0  0  0  0  0  0
   19.9804  -10.9705  -20.2712 C   0  0  0  0  0  0  0  0  0  0  0  0
   19.8762  -10.3122  -16.0460 C   0  0  0  0  0  0  0  0  0  0  0  0
   18.9793  -10.3020  -15.1630 O   0  0  0  0  0  0  0  0  0  0  0  0
   21.9341  -10.7648  -13.6146 C   0  0  0  0  0  0  0  0  0  0  0  0
   22.3482   -9.3406  -13.9188 C   0  0  1  0  0  0  0  0  0  0  0  0
   23.5939   -9.3567  -14.7525 C   0  0  0  0  0  0  0  0  0  0  0  0
   21.2342   -8.7288  -14.7470 C   0  0  2  0  0  0  0  0  0  0  0  0
   21.0318   -9.5173  -15.9272 N   0  0  0  0  0  0  0  0  0  0  0  0
   21.6241   -7.3494  -15.2121 C   0  0  0  0  0  0  0  0  0  0  0  0
   22.4979   -7.1590  -16.0978 O   0  0  0  0  0  0  0  0  0  0  0  0
   21.0113   -6.1942  -14.6605 N   0  0  0  0  0  0  0  0  0  0  0  0
   21.3595   -4.8606  -15.0918 C   0  0  0  0  0  0  0  0  0  0  0  0
   20.4734   -3.8363  -14.4783 C   0  0  0  0  0  0  0  0  0  0  0  0
   20.7081   -2.6129  -14.6389 O   0  0  0  0  0  0  0  0  0  0  0  0
   19.3689   -4.1859  -13.7155 O   0  0  0  0  0  0  0  0  0  0  0  0
  2 10  1  0
  2  1  1  1
  3  2  1  0
  4  3  1  0
  5  4  2  0
  6  5  1  0
  7  8  1  0
  7  6  2  0
  8  9  2  0
  9  4  1  0
 10 11  2  0
 13 12  1  6
 13 14  1  0
 15 13  1  0
 16 10  1  0
 15 16  1  6
 17 19  1  0
 17 15  1  0
 18 17  2  0
 20 21  1  0
 20 19  1  0
 21 23  1  0
 22 21  2  0
M  END
$$$$
