FVG.pdb
     RDKit          3D

 23 23  0  0  1  0  0  0  0  0999 V2000
   28.3663  -20.8828   -8.7800 N   0  0  0  0  0  0  0  0  0  0  0  0
   26.9659  -20.5932   -8.5793 C   0  0  1  0  0  0  0  0  0  0  0  0
   26.8270  -19.3313   -7.7555 C   0  0  0  0  0  0  0  0  0  0  0  0
   27.4896  -19.5682   -6.4587 C   0  0  0  0  0  0  0  0  0  0  0  0
   26.8326  -20.3738   -5.5299 C   0  0  0  0  0  0  0  0  0  0  0  0
   27.4261  -20.6087   -4.3200 C   0  0  0  0  0  0  0  0  0  0  0  0
   28.6617  -20.0437   -4.0444 C   0  0  0  0  0  0  0  0  0  0  0  0
   29.2945  -19.2467   -4.9839 C   0  0  0  0  0  0  0  0  0  0  0  0
   28.7027  -19.0042   -6.2080 C   0  0  0  0  0  0  0  0  0  0  0  0
   26.2555  -20.3618   -9.8590 C   0  0  0  0  0  0  0  0  0  0  0  0
   26.7322  -19.4870  -10.6282 O   0  0  0  0  0  0  0  0  0  0  0  0
   23.9212  -21.8003  -13.6439 C   0  0  0  0  0  0  0  0  0  0  0  0
   24.6267  -22.0936  -12.3367 C   0  0  1  0  0  0  0  0  0  0  0  0
   26.0893  -22.2909  -12.5993 C   0  0  0  0  0  0  0  0  0  0  0  0
   24.4656  -20.8612  -11.4670 C   0  0  2  0  0  0  0  0  0  0  0  0
   25.0987  -21.0874  -10.2007 N   0  0  0  0  0  0  0  0  0  0  0  0
   23.0076  -20.6090  -11.1807 C   0  0  0  0  0  0  0  0  0  0  0  0
   22.4626  -20.9588  -10.1014 O   0  0  0  0  0  0  0  0  0  0  0  0
   22.1805  -19.9571  -12.1321 N   0  0  0  0  0  0  0  0  0  0  0  0
   20.7976  -19.6425  -11.8592 C   0  0  0  0  0  0  0  0  0  0  0  0
   20.1628  -18.9256  -12.9967 C   0  0  0  0  0  0  0  0  0  0  0  0
   20.8515  -18.5543  -13.9792 O   0  0  0  0  0  0  0  0  0  0  0  0
   18.8050  -18.6427  -13.0177 O   0  0  0  0  0  0  0  0  0  0  0  0
  2 10  1  0
  2  1  1  6
  3  2  1  0
  4  3  1  0
  5  4  2  0
  6  5  1  0
  7  8  1  0
  7  6  2  0
  8  9  2  0
  9  4  1  0
 10 11  2  0
 13 12  1  6
 13 14  1  0
 15 13  1  0
 16 10  1  0
 15 16  1  1
 17 19  1  0
 17 15  1  0
 18 17  2  0
 20 21  1  0
 20 19  1  0
 21 23  1  0
 22 21  2  0
M  END
$$$$
