FVG.pdb
     RDKit          3D

 23 23  0  0  1  0  0  0  0  0999 V2000
   18.2348   -9.7941  -13.8481 N   0  0  0  0  0  0  0  0  0  0  0  0
   18.5814   -8.5630  -13.1775 C   0  0  1  0  0  0  0  0  0  0  0  0
   19.5872   -7.8017  -14.0135 C   0  0  0  0  0  0  0  0  0  0  0  0
   20.8678   -8.5313  -13.9476 C   0  0  0  0  0  0  0  0  0  0  0  0
   21.5711   -8.5040  -12.7443 C   0  0  0  0  0  0  0  0  0  0  0  0
   22.7612   -9.1727  -12.6576 C   0  0  0  0  0  0  0  0  0  0  0  0
   23.2405   -9.8597  -13.7622 C   0  0  0  0  0  0  0  0  0  0  0  0
   22.5232   -9.8719  -14.9469 C   0  0  0  0  0  0  0  0  0  0  0  0
   21.3206   -9.1996  -15.0435 C   0  0  0  0  0  0  0  0  0  0  0  0
   17.4065   -7.6792  -12.9922 C   0  0  0  0  0  0  0  0  0  0  0  0
   16.4777   -7.7773  -13.8359 O   0  0  0  0  0  0  0  0  0  0  0  0
   16.7652   -5.7044   -9.4358 C   0  0  0  0  0  0  0  0  0  0  0  0
   15.6303   -6.0394  -10.3805 C   0  0  1  0  0  0  0  0  0  0  0  0
   14.5397   -5.0234  -10.2209 C   0  0  0  0  0  0  0  0  0  0  0  0
   16.1835   -5.9205  -11.7879 C   0  0  2  0  0  0  0  0  0  0  0  0
   17.3312   -6.7696  -11.9205 N   0  0  0  0  0  0  0  0  0  0  0  0
   16.6564   -4.5133  -12.0479 C   0  0  0  0  0  0  0  0  0  0  0  0
   17.7085   -4.0506  -11.5349 O   0  0  0  0  0  0  0  0  0  0  0  0
   15.9218   -3.6425  -12.8943 N   0  0  0  0  0  0  0  0  0  0  0  0
   16.4014   -2.3256  -13.2425 C   0  0  0  0  0  0  0  0  0  0  0  0
   16.1247   -1.3380  -12.1660 C   0  0  0  0  0  0  0  0  0  0  0  0
   16.6046   -0.1789  -12.2265 O   0  0  0  0  0  0  0  0  0  0  0  0
   15.3371   -1.6530  -11.0684 O   0  0  0  0  0  0  0  0  0  0  0  0
  2 10  1  0
  2  1  1  6
  3  2  1  0
  4  3  1  0
  5  4  2  0
  6  5  1  0
  7  8  1  0
  7  6  2  0
  8  9  2  0
  9  4  1  0
 10 11  2  0
 13 12  1  1
 13 14  1  0
 15 13  1  0
 16 10  1  0
 15 16  1  1
 17 19  1  0
 17 15  1  0
 18 17  2  0
 20 21  1  0
 20 19  1  0
 21 23  1  0
 22 21  2  0
M  END
$$$$
