FVG.pdb
     RDKit          3D

 23 23  0  0  1  0  0  0  0  0999 V2000
   28.2586  -21.7821  -11.7487 N   0  0  0  0  0  0  0  0  0  0  0  0
   27.0500  -21.1360  -11.2935 C   0  0  1  0  0  0  0  0  0  0  0  0
   27.3964  -19.7948  -10.6842 C   0  0  0  0  0  0  0  0  0  0  0  0
   27.8202  -20.0321   -9.2910 C   0  0  0  0  0  0  0  0  0  0  0  0
   26.8771  -19.8407   -8.2824 C   0  0  0  0  0  0  0  0  0  0  0  0
   27.2452  -20.0542   -6.9825 C   0  0  0  0  0  0  0  0  0  0  0  0
   28.5415  -20.4543   -6.6968 C   0  0  0  0  0  0  0  0  0  0  0  0
   29.4605  -20.6377   -7.7166 C   0  0  0  0  0  0  0  0  0  0  0  0
   29.0975  -20.4245   -9.0320 C   0  0  0  0  0  0  0  0  0  0  0  0
   26.1017  -20.8816  -12.4035 C   0  0  0  0  0  0  0  0  0  0  0  0
   26.5967  -20.6517  -13.5376 O   0  0  0  0  0  0  0  0  0  0  0  0
   25.4034  -22.1533  -14.5765 C   0  0  0  0  0  0  0  0  0  0  0  0
   23.9472  -22.0383  -14.1780 C   0  0  1  0  0  0  0  0  0  0  0  0
   23.5721  -23.2193  -13.3344 C   0  0  0  0  0  0  0  0  0  0  0  0
   23.8251  -20.7906  -13.3238 C   0  0  2  0  0  0  0  0  0  0  0  0
   24.7090  -20.8959  -12.1999 N   0  0  0  0  0  0  0  0  0  0  0  0
   22.4303  -20.6727  -12.7653 C   0  0  0  0  0  0  0  0  0  0  0  0
   22.1000  -21.1847  -11.6640 O   0  0  0  0  0  0  0  0  0  0  0  0
   21.4200  -19.9686  -13.4710 N   0  0  0  0  0  0  0  0  0  0  0  0
   20.0842  -19.8112  -12.9451 C   0  0  0  0  0  0  0  0  0  0  0  0
   19.2396  -21.0021  -13.2265 C   0  0  0  0  0  0  0  0  0  0  0  0
   19.7081  -21.9793  -13.8614 O   0  0  0  0  0  0  0  0  0  0  0  0
   17.9202  -21.0800  -12.8053 O   0  0  0  0  0  0  0  0  0  0  0  0
  2 10  1  0
  2  1  1  6
  3  2  1  0
  4  3  1  0
  5  4  2  0
  6  5  1  0
  7  8  1  0
  7  6  2  0
  8  9  2  0
  9  4  1  0
 10 11  2  0
 13 12  1  1
 13 14  1  0
 15 13  1  0
 16 10  1  0
 15 16  1  1
 17 19  1  0
 17 15  1  0
 18 17  2  0
 20 21  1  0
 20 19  1  0
 21 23  1  0
 22 21  2  0
M  END
$$$$
