FVG.pdb
     RDKit          3D

 23 23  0  0  1  0  0  0  0  0999 V2000
   27.3139  -18.3012   -8.3073 N   0  0  0  0  0  0  0  0  0  0  0  0
   27.0493  -19.6885   -8.6088 C   0  0  1  0  0  0  0  0  0  0  0  0
   26.5368  -20.3837   -7.3661 C   0  0  0  0  0  0  0  0  0  0  0  0
   27.5455  -20.2039   -6.3045 C   0  0  0  0  0  0  0  0  0  0  0  0
   28.6082  -21.1048   -6.2574 C   0  0  0  0  0  0  0  0  0  0  0  0
   29.5566  -20.9595   -5.2825 C   0  0  0  0  0  0  0  0  0  0  0  0
   29.4418  -19.9251   -4.3667 C   0  0  0  0  0  0  0  0  0  0  0  0
   28.3764  -19.0427   -4.4344 C   0  0  0  0  0  0  0  0  0  0  0  0
   27.4141  -19.1818   -5.4153 C   0  0  0  0  0  0  0  0  0  0  0  0
   26.0131  -19.8435   -9.6568 C   0  0  0  0  0  0  0  0  0  0  0  0
   24.9298  -19.2257   -9.4864 O   0  0  0  0  0  0  0  0  0  0  0  0
   27.4813  -19.3668  -12.9423 C   0  0  0  0  0  0  0  0  0  0  0  0
   26.4308  -20.4303  -13.1829 C   0  0  1  0  0  0  0  0  0  0  0  0
   27.0897  -21.7766  -13.2116 C   0  0  0  0  0  0  0  0  0  0  0  0
   25.4891  -20.3913  -11.9943 C   0  0  2  0  0  0  0  0  0  0  0  0
   26.2293  -20.6456  -10.7931 N   0  0  0  0  0  0  0  0  0  0  0  0
   24.4593  -21.4861  -12.1057 C   0  0  0  0  0  0  0  0  0  0  0  0
   24.5955  -22.5997  -11.5350 O   0  0  0  0  0  0  0  0  0  0  0  0
   23.2782  -21.3003  -12.8702 N   0  0  0  0  0  0  0  0  0  0  0  0
   22.2486  -22.3100  -12.9497 C   0  0  0  0  0  0  0  0  0  0  0  0
   20.9474  -21.8091  -12.4332 C   0  0  0  0  0  0  0  0  0  0  0  0
   20.8951  -21.1662  -11.3555 O   0  0  0  0  0  0  0  0  0  0  0  0
   19.7573  -22.0287  -13.1111 O   0  0  0  0  0  0  0  0  0  0  0  0
  2 10  1  0
  2  1  1  1
  3  2  1  0
  4  3  1  0
  5  4  2  0
  6  5  1  0
  7  8  1  0
  7  6  2  0
  8  9  2  0
  9  4  1  0
 10 11  2  0
 13 12  1  1
 13 14  1  0
 15 13  1  0
 16 10  1  0
 15 16  1  1
 17 19  1  0
 17 15  1  0
 18 17  2  0
 20 21  1  0
 20 19  1  0
 21 23  1  0
 22 21  2  0
M  END
$$$$
