FVG.pdb
     RDKit          3D

 23 23  0  0  1  0  0  0  0  0999 V2000
   23.2450  -13.0302  -17.7172 N   0  0  0  0  0  0  0  0  0  0  0  0
   23.4544  -12.1123  -16.6222 C   0  0  1  0  0  0  0  0  0  0  0  0
   24.8944  -11.6470  -16.6253 C   0  0  0  0  0  0  0  0  0  0  0  0
   25.7524  -12.8462  -16.5769 C   0  0  0  0  0  0  0  0  0  0  0  0
   25.9833  -13.4313  -15.3329 C   0  0  0  0  0  0  0  0  0  0  0  0
   26.7755  -14.5442  -15.2614 C   0  0  0  0  0  0  0  0  0  0  0  0
   27.3291  -15.0639  -16.4212 C   0  0  0  0  0  0  0  0  0  0  0  0
   27.0849  -14.4644  -17.6456 C   0  0  0  0  0  0  0  0  0  0  0  0
   26.2863  -13.3405  -17.7272 C   0  0  0  0  0  0  0  0  0  0  0  0
   22.6031  -10.9048  -16.7363 C   0  0  0  0  0  0  0  0  0  0  0  0
   21.9047  -10.7932  -17.7775 O   0  0  0  0  0  0  0  0  0  0  0  0
   19.2494   -8.3024  -15.5109 C   0  0  0  0  0  0  0  0  0  0  0  0
   20.2197   -9.4645  -15.5379 C   0  0  1  0  0  0  0  0  0  0  0  0
   19.8862  -10.3585  -16.6940 C   0  0  0  0  0  0  0  0  0  0  0  0
   21.5979   -8.8777  -15.7775 C   0  0  2  0  0  0  0  0  0  0  0  0
   22.5756   -9.9251  -15.7260 N   0  0  0  0  0  0  0  0  0  0  0  0
   21.9507   -7.9047  -14.6821 C   0  0  0  0  0  0  0  0  0  0  0  0
   22.2711   -8.2807  -13.5244 O   0  0  0  0  0  0  0  0  0  0  0  0
   21.9350   -6.5052  -14.9177 N   0  0  0  0  0  0  0  0  0  0  0  0
   22.2574   -5.5493  -13.8843 C   0  0  0  0  0  0  0  0  0  0  0  0
   22.2972   -4.1606  -14.4141 C   0  0  0  0  0  0  0  0  0  0  0  0
   22.4861   -3.1892  -13.6406 O   0  0  0  0  0  0  0  0  0  0  0  0
   22.1298   -3.8867  -15.7636 O   0  0  0  0  0  0  0  0  0  0  0  0
  2 10  1  0
  2  1  1  6
  3  2  1  0
  4  3  1  0
  5  4  2  0
  6  5  1  0
  7  8  1  0
  7  6  2  0
  8  9  2  0
  9  4  1  0
 10 11  2  0
 13 12  1  6
 13 14  1  0
 15 13  1  0
 16 10  1  0
 15 16  1  1
 17 19  1  0
 17 15  1  0
 18 17  2  0
 20 21  1  0
 20 19  1  0
 21 23  1  0
 22 21  2  0
M  END
$$$$
