FVG.pdb
     RDKit          3D

 23 23  0  0  1  0  0  0  0  0999 V2000
   24.4796  -18.0307  -17.0921 N   0  0  0  0  0  0  0  0  0  0  0  0
   24.9969  -17.5868  -15.8190 C   0  0  1  0  0  0  0  0  0  0  0  0
   23.9253  -16.8110  -15.0843 C   0  0  0  0  0  0  0  0  0  0  0  0
   23.8876  -15.4505  -15.6539 C   0  0  0  0  0  0  0  0  0  0  0  0
   24.8888  -14.5580  -15.2738 C   0  0  0  0  0  0  0  0  0  0  0  0
   24.8761  -13.2906  -15.7880 C   0  0  0  0  0  0  0  0  0  0  0  0
   23.8733  -12.9221  -16.6715 C   0  0  0  0  0  0  0  0  0  0  0  0
   22.8895  -13.8271  -17.0338 C   0  0  0  0  0  0  0  0  0  0  0  0
   22.8944  -15.1089  -16.5196 C   0  0  0  0  0  0  0  0  0  0  0  0
   25.3899  -18.7215  -14.9507 C   0  0  0  0  0  0  0  0  0  0  0  0
   24.7218  -19.7827  -15.0583 O   0  0  0  0  0  0  0  0  0  0  0  0
   28.7861  -21.1207  -12.6021 C   0  0  0  0  0  0  0  0  0  0  0  0
   28.3856  -19.9522  -13.4778 C   0  0  1  0  0  0  0  0  0  0  0  0
   28.6592  -20.2940  -14.9115 C   0  0  0  0  0  0  0  0  0  0  0  0
   26.8881  -19.7752  -13.3125 C   0  0  2  0  0  0  0  0  0  0  0  0
   26.4627  -18.6186  -14.0453 N   0  0  0  0  0  0  0  0  0  0  0  0
   26.5473  -19.5188  -11.8670 C   0  0  0  0  0  0  0  0  0  0  0  0
   26.8646  -18.4521  -11.2790 O   0  0  0  0  0  0  0  0  0  0  0  0
   25.8445  -20.4855  -11.1016 N   0  0  0  0  0  0  0  0  0  0  0  0
   25.6668  -20.3531   -9.6745 C   0  0  0  0  0  0  0  0  0  0  0  0
   25.0652  -21.5761   -9.0803 C   0  0  0  0  0  0  0  0  0  0  0  0
   24.7184  -22.5355   -9.8131 O   0  0  0  0  0  0  0  0  0  0  0  0
   24.8660  -21.7043   -7.7136 O   0  0  0  0  0  0  0  0  0  0  0  0
  2 10  1  0
  2  1  1  6
  3  2  1  0
  4  3  1  0
  5  4  2  0
  6  5  1  0
  7  8  1  0
  7  6  2  0
  8  9  2  0
  9  4  1  0
 10 11  2  0
 13 12  1  1
 13 14  1  0
 15 13  1  0
 16 10  1  0
 15 16  1  6
 17 19  1  0
 17 15  1  0
 18 17  2  0
 20 21  1  0
 20 19  1  0
 21 23  1  0
 22 21  2  0
M  END
$$$$
