FVG.pdb
     RDKit          3D

 23 23  0  0  1  0  0  0  0  0999 V2000
   27.3548  -21.7322  -14.6632 N   0  0  0  0  0  0  0  0  0  0  0  0
   26.7174  -20.5687  -14.0929 C   0  0  1  0  0  0  0  0  0  0  0  0
   27.7767  -19.5938  -13.6264 C   0  0  0  0  0  0  0  0  0  0  0  0
   28.4880  -20.2145  -12.4925 C   0  0  0  0  0  0  0  0  0  0  0  0
   29.7947  -20.6513  -12.7047 C   0  0  0  0  0  0  0  0  0  0  0  0
   30.4758  -21.2302  -11.6693 C   0  0  0  0  0  0  0  0  0  0  0  0
   29.8556  -21.3697  -10.4373 C   0  0  0  0  0  0  0  0  0  0  0  0
   28.5562  -20.9276  -10.2514 C   0  0  0  0  0  0  0  0  0  0  0  0
   27.8611  -20.3420  -11.2912 C   0  0  0  0  0  0  0  0  0  0  0  0
   25.8706  -19.8573  -15.0791 C   0  0  0  0  0  0  0  0  0  0  0  0
   26.1757  -19.9854  -16.2935 O   0  0  0  0  0  0  0  0  0  0  0  0
   22.1454  -18.4701  -13.9308 C   0  0  0  0  0  0  0  0  0  0  0  0
   22.4486  -19.0319  -15.3037 C   0  0  1  0  0  0  0  0  0  0  0  0
   21.5006  -18.4363  -16.3006 C   0  0  0  0  0  0  0  0  0  0  0  0
   23.8526  -18.5811  -15.6601 C   0  0  2  0  0  0  0  0  0  0  0  0
   24.7732  -19.0727  -14.6772 N   0  0  0  0  0  0  0  0  0  0  0  0
   23.9452  -17.0773  -15.6233 C   0  0  0  0  0  0  0  0  0  0  0  0
   23.8364  -16.4217  -14.5544 O   0  0  0  0  0  0  0  0  0  0  0  0
   24.1619  -16.3314  -16.8110 N   0  0  0  0  0  0  0  0  0  0  0  0
   24.3407  -14.8983  -16.7955 C   0  0  0  0  0  0  0  0  0  0  0  0
   23.1274  -14.1884  -17.2799 C   0  0  0  0  0  0  0  0  0  0  0  0
   22.0986  -14.8330  -17.6020 O   0  0  0  0  0  0  0  0  0  0  0  0
   23.0841  -12.8066  -17.3936 O   0  0  0  0  0  0  0  0  0  0  0  0
  2 10  1  0
  2  1  1  6
  3  2  1  0
  4  3  1  0
  5  4  2  0
  6  5  1  0
  7  8  1  0
  7  6  2  0
  8  9  2  0
  9  4  1  0
 10 11  2  0
 13 12  1  1
 13 14  1  0
 15 13  1  0
 16 10  1  0
 15 16  1  1
 17 19  1  0
 17 15  1  0
 18 17  2  0
 20 21  1  0
 20 19  1  0
 21 23  1  0
 22 21  2  0
M  END
$$$$
