FVG.pdb
     RDKit          3D

 23 23  0  0  1  0  0  0  0  0999 V2000
   25.9054  -20.8275  -13.0544 N   0  0  0  0  0  0  0  0  0  0  0  0
   24.8357  -20.4240  -12.1722 C   0  0  1  0  0  0  0  0  0  0  0  0
   23.5237  -20.9725  -12.6900 C   0  0  0  0  0  0  0  0  0  0  0  0
   23.1770  -20.2235  -13.9129 C   0  0  0  0  0  0  0  0  0  0  0  0
   23.3439  -20.8660  -15.1387 C   0  0  0  0  0  0  0  0  0  0  0  0
   23.0296  -20.1929  -16.2873 C   0  0  0  0  0  0  0  0  0  0  0  0
   22.5541  -18.8931  -16.2087 C   0  0  0  0  0  0  0  0  0  0  0  0
   22.3968  -18.2762  -14.9786 C   0  0  0  0  0  0  0  0  0  0  0  0
   22.7117  -18.9482  -13.8138 C   0  0  0  0  0  0  0  0  0  0  0  0
   25.0184  -20.9483  -10.7982 C   0  0  0  0  0  0  0  0  0  0  0  0
   25.3674  -22.1524  -10.6869 O   0  0  0  0  0  0  0  0  0  0  0  0
   25.6904  -20.3208   -6.0693 C   0  0  0  0  0  0  0  0  0  0  0  0
   25.5357  -19.6570   -7.4213 C   0  0  1  0  0  0  0  0  0  0  0  0
   26.8892  -19.2763   -7.9413 C   0  0  0  0  0  0  0  0  0  0  0  0
   24.9475  -20.6981   -8.3547 C   0  0  2  0  0  0  0  0  0  0  0  0
   24.8112  -20.1368   -9.6669 N   0  0  0  0  0  0  0  0  0  0  0  0
   23.5615  -21.0822   -7.9043 C   0  0  0  0  0  0  0  0  0  0  0  0
   22.5557  -20.3597   -8.1291 O   0  0  0  0  0  0  0  0  0  0  0  0
   23.3340  -22.2922   -7.1983 N   0  0  0  0  0  0  0  0  0  0  0  0
   22.0038  -22.7601   -6.8860 C   0  0  0  0  0  0  0  0  0  0  0  0
   21.5628  -22.3034   -5.5415 C   0  0  0  0  0  0  0  0  0  0  0  0
   20.4317  -22.6240   -5.0995 O   0  0  0  0  0  0  0  0  0  0  0  0
   22.3710  -21.5169   -4.7339 O   0  0  0  0  0  0  0  0  0  0  0  0
  2 10  1  0
  2  1  1  6
  3  2  1  0
  4  3  1  0
  5  4  2  0
  6  5  1  0
  7  8  1  0
  7  6  2  0
  8  9  2  0
  9  4  1  0
 10 11  2  0
 13 12  1  1
 13 14  1  0
 15 13  1  0
 16 10  1  0
 15 16  1  6
 17 19  1  0
 17 15  1  0
 18 17  2  0
 20 21  1  0
 20 19  1  0
 21 23  1  0
 22 21  2  0
M  END
$$$$
