FVG.pdb
     RDKit          3D

 23 23  0  0  1  0  0  0  0  0999 V2000
   25.1713  -21.1290   -7.1057 N   0  0  0  0  0  0  0  0  0  0  0  0
   25.9953  -20.4646   -8.0881 C   0  0  1  0  0  0  0  0  0  0  0  0
   27.4516  -20.7677   -7.8099 C   0  0  0  0  0  0  0  0  0  0  0  0
   27.8009  -20.1410   -6.5207 C   0  0  0  0  0  0  0  0  0  0  0  0
   28.2586  -20.9696   -5.4973 C   0  0  0  0  0  0  0  0  0  0  0  0
   28.5890  -20.4128   -4.2923 C   0  0  0  0  0  0  0  0  0  0  0  0
   28.4622  -19.0438   -4.1150 C   0  0  0  0  0  0  0  0  0  0  0  0
   28.0050  -18.2415   -5.1473 C   0  0  0  0  0  0  0  0  0  0  0  0
   27.6692  -18.7950   -6.3673 C   0  0  0  0  0  0  0  0  0  0  0  0
   25.7058  -20.9299   -9.4649 C   0  0  0  0  0  0  0  0  0  0  0  0
   25.4513  -22.1534   -9.6140 O   0  0  0  0  0  0  0  0  0  0  0  0
   24.2753  -20.1076  -13.9737 C   0  0  0  0  0  0  0  0  0  0  0  0
   24.4468  -19.6010  -12.5572 C   0  0  1  0  0  0  0  0  0  0  0  0
   23.1350  -19.6952  -11.8376 C   0  0  0  0  0  0  0  0  0  0  0  0
   25.4275  -20.5355  -11.8744 C   0  0  2  0  0  0  0  0  0  0  0  0
   25.7148  -20.0438  -10.5587 N   0  0  0  0  0  0  0  0  0  0  0  0
   26.7363  -20.5580  -12.6213 C   0  0  0  0  0  0  0  0  0  0  0  0
   27.6167  -19.6723  -12.4645 O   0  0  0  0  0  0  0  0  0  0  0  0
   27.0307  -21.5951  -13.5443 N   0  0  0  0  0  0  0  0  0  0  0  0
   28.2662  -21.6299  -14.2913 C   0  0  0  0  0  0  0  0  0  0  0  0
   28.0950  -22.3060  -15.6044 C   0  0  0  0  0  0  0  0  0  0  0  0
   26.9753  -22.7621  -15.9446 O   0  0  0  0  0  0  0  0  0  0  0  0
   29.1496  -22.4578  -16.4928 O   0  0  0  0  0  0  0  0  0  0  0  0
  2 10  1  0
  2  1  1  1
  3  2  1  0
  4  3  1  0
  5  4  2  0
  6  5  1  0
  7  8  1  0
  7  6  2  0
  8  9  2  0
  9  4  1  0
 10 11  2  0
 13 12  1  6
 13 14  1  0
 15 13  1  0
 16 10  1  0
 15 16  1  1
 17 19  1  0
 17 15  1  0
 18 17  2  0
 20 21  1  0
 20 19  1  0
 21 23  1  0
 22 21  2  0
M  END
$$$$
