FVG.pdb
     RDKit          3D

 23 23  0  0  1  0  0  0  0  0999 V2000
   18.0956  -13.0900  -17.0606 N   0  0  0  0  0  0  0  0  0  0  0  0
   18.8793  -11.9461  -17.4642 C   0  0  1  0  0  0  0  0  0  0  0  0
   17.9920  -10.9624  -18.1958 C   0  0  0  0  0  0  0  0  0  0  0  0
   17.8190  -11.4559  -19.5754 C   0  0  0  0  0  0  0  0  0  0  0  0
   18.8622  -11.2480  -20.4765 C   0  0  0  0  0  0  0  0  0  0  0  0
   18.7262  -11.6961  -21.7617 C   0  0  0  0  0  0  0  0  0  0  0  0
   17.5602  -12.3441  -22.1392 C   0  0  0  0  0  0  0  0  0  0  0  0
   16.5378  -12.5387  -21.2254 C   0  0  0  0  0  0  0  0  0  0  0  0
   16.6664  -12.0896  -19.9257 C   0  0  0  0  0  0  0  0  0  0  0  0
   19.4620  -11.2321  -16.3038 C   0  0  0  0  0  0  0  0  0  0  0  0
   18.8092  -11.2597  -15.2281 O   0  0  0  0  0  0  0  0  0  0  0  0
   23.2028   -9.7473  -13.7924 C   0  0  0  0  0  0  0  0  0  0  0  0
   22.6707  -10.4323  -15.0334 C   0  0  1  0  0  0  0  0  0  0  0  0
   22.6142  -11.9112  -14.7945 C   0  0  0  0  0  0  0  0  0  0  0  0
   21.2527   -9.9325  -15.2347 C   0  0  2  0  0  0  0  0  0  0  0  0
   20.6912  -10.5527  -16.3989 N   0  0  0  0  0  0  0  0  0  0  0  0
   21.2525   -8.4480  -15.4948 C   0  0  0  0  0  0  0  0  0  0  0  0
   21.8358   -7.9378  -16.4866 O   0  0  0  0  0  0  0  0  0  0  0  0
   20.5839   -7.5547  -14.6177 N   0  0  0  0  0  0  0  0  0  0  0  0
   20.5582   -6.1291  -14.8473 C   0  0  0  0  0  0  0  0  0  0  0  0
   21.6863   -5.4425  -14.1641 C   0  0  0  0  0  0  0  0  0  0  0  0
   22.4398   -6.0771  -13.3849 O   0  0  0  0  0  0  0  0  0  0  0  0
   21.9476   -4.0940  -14.3574 O   0  0  0  0  0  0  0  0  0  0  0  0
  2 10  1  0
  2  1  1  1
  3  2  1  0
  4  3  1  0
  5  4  2  0
  6  5  1  0
  7  8  1  0
  7  6  2  0
  8  9  2  0
  9  4  1  0
 10 11  2  0
 13 12  1  1
 13 14  1  0
 15 13  1  0
 16 10  1  0
 15 16  1  6
 17 19  1  0
 17 15  1  0
 18 17  2  0
 20 21  1  0
 20 19  1  0
 21 23  1  0
 22 21  2  0
M  END
$$$$
