FVG.pdb
     RDKit          3D

 23 23  0  0  1  0  0  0  0  0999 V2000
   23.8049  -12.8722  -17.5296 N   0  0  0  0  0  0  0  0  0  0  0  0
   22.8968  -12.1444  -16.6745 C   0  0  1  0  0  0  0  0  0  0  0  0
   23.2260  -12.4379  -15.2269 C   0  0  0  0  0  0  0  0  0  0  0  0
   22.8865  -13.8502  -14.9681 C   0  0  0  0  0  0  0  0  0  0  0  0
   23.9347  -14.7391  -14.7345 C   0  0  0  0  0  0  0  0  0  0  0  0
   23.6461  -16.0540  -14.4921 C   0  0  0  0  0  0  0  0  0  0  0  0
   22.3246  -16.4728  -14.4838 C   0  0  0  0  0  0  0  0  0  0  0  0
   21.3006  -15.5703  -14.7187 C   0  0  0  0  0  0  0  0  0  0  0  0
   21.5827  -14.2408  -14.9644 C   0  0  0  0  0  0  0  0  0  0  0  0
   23.0091  -10.6786  -16.8613 C   0  0  0  0  0  0  0  0  0  0  0  0
   24.1312  -10.2310  -17.2143 O   0  0  0  0  0  0  0  0  0  0  0  0
   21.0788   -6.5844  -18.2553 C   0  0  0  0  0  0  0  0  0  0  0  0
   20.9305   -8.0647  -17.9741 C   0  0  1  0  0  0  0  0  0  0  0  0
   21.1711   -8.8333  -19.2385 C   0  0  0  0  0  0  0  0  0  0  0  0
   22.0193   -8.4328  -16.9840 C   0  0  2  0  0  0  0  0  0  0  0  0
   21.9104   -9.8236  -16.6535 N   0  0  0  0  0  0  0  0  0  0  0  0
   21.8377   -7.6688  -15.6977 C   0  0  0  0  0  0  0  0  0  0  0  0
   20.7511   -7.6678  -15.0624 O   0  0  0  0  0  0  0  0  0  0  0  0
   22.9016   -6.9093  -15.1449 N   0  0  0  0  0  0  0  0  0  0  0  0
   22.7719   -6.2070  -13.8896 C   0  0  0  0  0  0  0  0  0  0  0  0
   22.0708   -4.9067  -14.0579 C   0  0  0  0  0  0  0  0  0  0  0  0
   21.8841   -4.1517  -13.0717 O   0  0  0  0  0  0  0  0  0  0  0  0
   21.6020   -4.4821  -15.2924 O   0  0  0  0  0  0  0  0  0  0  0  0
  2 10  1  0
  2  1  1  6
  3  2  1  0
  4  3  1  0
  5  4  2  0
  6  5  1  0
  7  8  1  0
  7  6  2  0
  8  9  2  0
  9  4  1  0
 10 11  2  0
 13 12  1  6
 13 14  1  0
 15 13  1  0
 16 10  1  0
 15 16  1  1
 17 19  1  0
 17 15  1  0
 18 17  2  0
 20 21  1  0
 20 19  1  0
 21 23  1  0
 22 21  2  0
M  END
$$$$
