IDK.pdb
     RDKit          3D

 26 25  0  0  1  0  0  0  0  0999 V2000
   20.5658  -19.4461  -10.2489 C   0  0  0  0  0  0  0  0  0  0  0  0
   20.5106  -20.8632  -10.7187 C   0  0  0  0  0  0  0  0  0  0  0  0
   19.6572  -21.7636   -9.8908 C   0  0  2  0  0  0  0  0  0  0  0  0
   20.1213  -21.7093   -8.4658 C   0  0  0  0  0  0  0  0  0  0  0  0
   19.5788  -23.1752  -10.4194 C   0  0  2  0  0  0  0  0  0  0  0  0
   19.1381  -23.1007  -11.7881 N   0  0  0  0  0  0  0  0  0  0  0  0
   18.6352  -24.0115   -9.6562 C   0  0  0  0  0  0  0  0  0  0  0  0
   17.4154  -23.7385   -9.5897 O   0  0  0  0  0  0  0  0  0  0  0  0
   19.0947  -25.1619   -8.9696 N   0  0  0  0  0  0  0  0  0  0  0  0
   18.1803  -25.9655   -8.2244 C   0  0  1  0  0  0  0  0  0  0  0  0
   18.3685  -27.4362   -8.3416 C   0  0  0  0  0  0  0  0  0  0  0  0
   18.0370  -27.9972   -9.6689 C   0  0  0  0  0  0  0  0  0  0  0  0
   17.1343  -27.4573  -10.3612 O   0  0  0  0  0  0  0  0  0  0  0  0
   18.2456  -25.5989   -6.7604 C   0  0  0  0  0  0  0  0  0  0  0  0
   19.3631  -25.2417   -6.2740 O   0  0  0  0  0  0  0  0  0  0  0  0
   18.6621  -29.0995  -10.2223 O   0  0  0  0  0  0  0  0  0  0  0  0
   17.1187  -25.6446   -5.9362 N   0  0  0  0  0  0  0  0  0  0  0  0
   17.1506  -25.2855   -4.4849 C   0  0  1  0  0  0  0  0  0  0  0  0
   15.8540  -24.6451   -4.2407 C   0  0  0  0  0  0  0  0  0  0  0  0
   15.4285  -24.0828   -2.9650 C   0  0  0  0  0  0  0  0  0  0  0  0
   14.1547  -23.3424   -2.8189 C   0  0  0  0  0  0  0  0  0  0  0  0
   14.0640  -22.9521   -1.3014 C   0  0  0  0  0  0  0  0  0  0  0  0
   12.8947  -22.1074   -1.1512 N   0  0  0  0  0  0  0  0  0  0  0  0
   17.5438  -26.4915   -3.7932 C   0  0  0  0  0  0  0  0  0  0  0  0
   18.2742  -26.6255   -2.6213 O   0  0  0  0  0  0  0  0  0  0  0  0
   17.2065  -27.6354   -4.2821 O   0  0  0  0  0  0  0  0  0  0  0  0
  1  2  1  0
  3  4  1  1
  3  2  1  0
  5  3  1  0
  5  6  1  6
  7  5  1  0
  8  7  2  0
  9  7  1  0
 10  9  1  0
 10 14  1  0
 10 11  1  1
 12 11  1  0
 13 12  2  0
 14 15  2  0
 14 17  1  0
 16 12  1  0
 17 18  1  0
 18 19  1  1
 19 20  1  0
 21 20  1  0
 22 21  1  0
 23 22  1  0
 24 18  1  0
 24 25  1  0
 26 24  2  0
M  END
$$$$
