IDK.pdb
     RDKit          3D

 26 25  0  0  1  0  0  0  0  0999 V2000
   22.5247  -13.5168  -17.8931 C   0  0  0  0  0  0  0  0  0  0  0  0
   23.1053  -12.2641  -17.3226 C   0  0  0  0  0  0  0  0  0  0  0  0
   22.1123  -11.3415  -16.7004 C   0  0  2  0  0  0  0  0  0  0  0  0
   21.0031  -11.0813  -17.6757 C   0  0  0  0  0  0  0  0  0  0  0  0
   22.7228  -10.0683  -16.1669 C   0  0  2  0  0  0  0  0  0  0  0  0
   23.7833  -10.4412  -15.2672 N   0  0  0  0  0  0  0  0  0  0  0  0
   21.7470   -9.2365  -15.4401 C   0  0  0  0  0  0  0  0  0  0  0  0
   21.0927   -9.6813  -14.4701 O   0  0  0  0  0  0  0  0  0  0  0  0
   21.5240   -7.8930  -15.8290 N   0  0  0  0  0  0  0  0  0  0  0  0
   20.5230   -7.1136  -15.1749 C   0  0  1  0  0  0  0  0  0  0  0  0
   20.9078   -5.7164  -14.8409 C   0  0  0  0  0  0  0  0  0  0  0  0
   21.7814   -5.5832  -13.6553 C   0  0  0  0  0  0  0  0  0  0  0  0
   21.8533   -6.5314  -12.8298 O   0  0  0  0  0  0  0  0  0  0  0  0
   19.2715   -7.0669  -16.0195 C   0  0  0  0  0  0  0  0  0  0  0  0
   19.3852   -6.8125  -17.2586 O   0  0  0  0  0  0  0  0  0  0  0  0
   22.5470   -4.4655  -13.3785 O   0  0  0  0  0  0  0  0  0  0  0  0
   18.0045   -7.2925  -15.4762 N   0  0  0  0  0  0  0  0  0  0  0  0
   16.7429   -7.1968  -16.2733 C   0  0  1  0  0  0  0  0  0  0  0  0
   15.9347   -8.3302  -15.8115 C   0  0  0  0  0  0  0  0  0  0  0  0
   14.6093   -8.6694  -16.3144 C   0  0  0  0  0  0  0  0  0  0  0  0
   13.8007   -9.7600  -15.7238 C   0  0  0  0  0  0  0  0  0  0  0  0
   12.5042   -9.8495  -16.6040 C   0  0  0  0  0  0  0  0  0  0  0  0
   11.8260  -11.0768  -16.2339 N   0  0  0  0  0  0  0  0  0  0  0  0
   16.2910   -5.8324  -16.1261 C   0  0  0  0  0  0  0  0  0  0  0  0
   15.6106   -5.0365  -17.0363 O   0  0  0  0  0  0  0  0  0  0  0  0
   16.5250   -5.2079  -15.0232 O   0  0  0  0  0  0  0  0  0  0  0  0
  1  2  1  0
  3  4  1  6
  3  2  1  0
  5  3  1  0
  5  6  1  1
  7  5  1  0
  8  7  2  0
  9  7  1  0
 10  9  1  0
 10 14  1  0
 10 11  1  6
 12 11  1  0
 13 12  2  0
 14 15  2  0
 14 17  1  0
 16 12  1  0
 17 18  1  0
 18 19  1  1
 19 20  1  0
 21 20  1  0
 22 21  1  0
 23 22  1  0
 24 18  1  0
 24 25  1  0
 26 24  2  0
M  END
$$$$
