IDK.pdb
     RDKit          3D

 26 25  0  0  1  0  0  0  0  0999 V2000
   29.8258  -21.1309  -10.6778 C   0  0  0  0  0  0  0  0  0  0  0  0
   28.3737  -20.7846  -10.6208 C   0  0  0  0  0  0  0  0  0  0  0  0
   27.7491  -20.4887  -11.9424 C   0  0  2  0  0  0  0  0  0  0  0  0
   28.5777  -19.4659  -12.6610 C   0  0  0  0  0  0  0  0  0  0  0  0
   26.2958  -20.0919  -11.8479 C   0  0  2  0  0  0  0  0  0  0  0  0
   25.6306  -21.0766  -11.0350 N   0  0  0  0  0  0  0  0  0  0  0  0
   25.6398  -20.0355  -13.1666 C   0  0  0  0  0  0  0  0  0  0  0  0
   25.9235  -19.1534  -14.0082 O   0  0  0  0  0  0  0  0  0  0  0  0
   24.6577  -20.9939  -13.5172 N   0  0  0  0  0  0  0  0  0  0  0  0
   24.0267  -20.9394  -14.7962 C   0  0  1  0  0  0  0  0  0  0  0  0
   23.5458  -22.2394  -15.3354 C   0  0  0  0  0  0  0  0  0  0  0  0
   24.6133  -23.2210  -15.6239 C   0  0  0  0  0  0  0  0  0  0  0  0
   25.4787  -22.9551  -16.4991 O   0  0  0  0  0  0  0  0  0  0  0  0
   22.8554  -19.9864  -14.7538 C   0  0  0  0  0  0  0  0  0  0  0  0
   22.1332  -19.9593  -13.7095 O   0  0  0  0  0  0  0  0  0  0  0  0
   24.7363  -24.4418  -14.9862 O   0  0  0  0  0  0  0  0  0  0  0  0
   22.5491  -19.1439  -15.8251 N   0  0  0  0  0  0  0  0  0  0  0  0
   21.4260  -18.1569  -15.7955 C   0  0  1  0  0  0  0  0  0  0  0  0
   21.8592  -17.0866  -16.6997 C   0  0  0  0  0  0  0  0  0  0  0  0
   21.1424  -15.8360  -16.9157 C   0  0  0  0  0  0  0  0  0  0  0  0
   21.6300  -14.8041  -17.8589 C   0  0  0  0  0  0  0  0  0  0  0  0
   20.6221  -13.6073  -17.7345 C   0  0  0  0  0  0  0  0  0  0  0  0
   21.4100  -12.4149  -17.4885 N   0  0  0  0  0  0  0  0  0  0  0  0
   20.2268  -18.9230  -16.0456 C   0  0  0  0  0  0  0  0  0  0  0  0
   18.9434  -18.7160  -15.5612 O   0  0  0  0  0  0  0  0  0  0  0  0
   20.2898  -19.9577  -16.8116 O   0  0  0  0  0  0  0  0  0  0  0  0
  1  2  1  0
  3  4  1  1
  3  2  1  0
  5  3  1  0
  5  6  1  1
  7  5  1  0
  8  7  2  0
  9  7  1  0
 10  9  1  0
 10 14  1  0
 10 11  1  1
 12 11  1  0
 13 12  2  0
 14 15  2  0
 14 17  1  0
 16 12  1  0
 17 18  1  0
 18 19  1  6
 19 20  1  0
 21 20  1  0
 22 21  1  0
 23 22  1  0
 24 18  1  0
 24 25  1  0
 26 24  2  0
M  END
$$$$
