IDK.pdb
     RDKit          3D

 26 25  0  0  1  0  0  0  0  0999 V2000
   13.6106  -12.2542  -16.3553 C   0  0  0  0  0  0  0  0  0  0  0  0
   15.0849  -12.3239  -16.1239 C   0  0  0  0  0  0  0  0  0  0  0  0
   15.7096  -11.0439  -15.6814 C   0  0  2  0  0  0  0  0  0  0  0  0
   15.4429   -9.9845  -16.7089 C   0  0  0  0  0  0  0  0  0  0  0  0
   17.1767  -11.1711  -15.3503 C   0  0  2  0  0  0  0  0  0  0  0  0
   17.3026  -12.1688  -14.3199 N   0  0  0  0  0  0  0  0  0  0  0  0
   17.7573   -9.9056  -14.8666 C   0  0  0  0  0  0  0  0  0  0  0  0
   17.4394   -9.4132  -13.7606 O   0  0  0  0  0  0  0  0  0  0  0  0
   18.7037   -9.2067  -15.6552 N   0  0  0  0  0  0  0  0  0  0  0  0
   19.2614   -7.9793  -15.1864 C   0  0  1  0  0  0  0  0  0  0  0  0
   20.7219   -7.8069  -15.4078 C   0  0  0  0  0  0  0  0  0  0  0  0
   21.5812   -8.6176  -14.5185 C   0  0  0  0  0  0  0  0  0  0  0  0
   21.3126   -8.6835  -13.2900 O   0  0  0  0  0  0  0  0  0  0  0  0
   18.5484   -6.8110  -15.8256 C   0  0  0  0  0  0  0  0  0  0  0  0
   18.3187   -6.8502  -17.0742 O   0  0  0  0  0  0  0  0  0  0  0  0
   22.6867   -9.3291  -14.9469 O   0  0  0  0  0  0  0  0  0  0  0  0
   18.1411   -5.6989  -15.0850 N   0  0  0  0  0  0  0  0  0  0  0  0
   17.5431   -4.4765  -15.7051 C   0  0  1  0  0  0  0  0  0  0  0  0
   16.2719   -4.2947  -14.9965 C   0  0  0  0  0  0  0  0  0  0  0  0
   15.3584   -3.1765  -15.1956 C   0  0  0  0  0  0  0  0  0  0  0  0
   14.1207   -3.0219  -14.3980 C   0  0  0  0  0  0  0  0  0  0  0  0
   13.4722   -1.6763  -14.8801 C   0  0  0  0  0  0  0  0  0  0  0  0
   12.2982   -1.4545  -14.0581 N   0  0  0  0  0  0  0  0  0  0  0  0
   18.5821   -3.4731  -15.6697 C   0  0  0  0  0  0  0  0  0  0  0  0
   19.8271   -3.5287  -15.0603 O   0  0  0  0  0  0  0  0  0  0  0  0
   18.3873   -2.3449  -16.2619 O   0  0  0  0  0  0  0  0  0  0  0  0
  1  2  1  0
  3  4  1  6
  3  2  1  0
  5  3  1  0
  5  6  1  1
  7  5  1  0
  8  7  2  0
  9  7  1  0
 10  9  1  0
 10 14  1  0
 10 11  1  6
 12 11  1  0
 13 12  2  0
 14 15  2  0
 14 17  1  0
 16 12  1  0
 17 18  1  0
 18 19  1  1
 19 20  1  0
 21 20  1  0
 22 21  1  0
 23 22  1  0
 24 18  1  0
 24 25  1  0
 26 24  2  0
M  END
$$$$
