IDK.pdb
     RDKit          3D

 26 25  0  0  1  0  0  0  0  0999 V2000
   12.3023  -13.4877  -14.0619 C   0  0  0  0  0  0  0  0  0  0  0  0
   13.5342  -13.0229  -14.7677 C   0  0  0  0  0  0  0  0  0  0  0  0
   14.2435  -11.8895  -14.1067 C   0  0  2  0  0  0  0  0  0  0  0  0
   13.3016  -10.7304  -13.9717 C   0  0  0  0  0  0  0  0  0  0  0  0
   15.5358  -11.5075  -14.7867 C   0  0  2  0  0  0  0  0  0  0  0  0
   16.3900  -12.6664  -14.7745 N   0  0  0  0  0  0  0  0  0  0  0  0
   16.2244  -10.3966  -14.1054 C   0  0  0  0  0  0  0  0  0  0  0  0
   16.8680  -10.5690  -13.0457 O   0  0  0  0  0  0  0  0  0  0  0  0
   16.1727   -9.0873  -14.6432 N   0  0  0  0  0  0  0  0  0  0  0  0
   16.8007   -8.0047  -13.9570 C   0  0  1  0  0  0  0  0  0  0  0  0
   17.7745   -7.2123  -14.7543 C   0  0  0  0  0  0  0  0  0  0  0  0
   18.3754   -6.0684  -14.0353 C   0  0  0  0  0  0  0  0  0  0  0  0
   18.9353   -6.2610  -12.9239 O   0  0  0  0  0  0  0  0  0  0  0  0
   15.7538   -7.0580  -13.4189 C   0  0  0  0  0  0  0  0  0  0  0  0
   14.7934   -6.7207  -14.1784 O   0  0  0  0  0  0  0  0  0  0  0  0
   18.3694   -4.7681  -14.5055 O   0  0  0  0  0  0  0  0  0  0  0  0
   15.8163   -6.5480  -12.1199 N   0  0  0  0  0  0  0  0  0  0  0  0
   14.7958   -5.6103  -11.5583 C   0  0  1  0  0  0  0  0  0  0  0  0
   14.1412   -6.3802  -10.4954 C   0  0  0  0  0  0  0  0  0  0  0  0
   13.0958   -5.8688   -9.6178 C   0  0  0  0  0  0  0  0  0  0  0  0
   12.5497   -6.6686   -8.4979 C   0  0  0  0  0  0  0  0  0  0  0  0
   11.4906   -5.7465   -7.7967 C   0  0  0  0  0  0  0  0  0  0  0  0
   10.8408   -6.5482   -6.7778 N   0  0  0  0  0  0  0  0  0  0  0  0
   15.5053   -4.3830  -11.2797 C   0  0  0  0  0  0  0  0  0  0  0  0
   14.9958   -3.1092  -11.0732 O   0  0  0  0  0  0  0  0  0  0  0  0
   16.7919   -4.4034  -11.2048 O   0  0  0  0  0  0  0  0  0  0  0  0
  1  2  1  0
  3  4  1  6
  3  2  1  0
  5  3  1  0
  5  6  1  1
  7  5  1  0
  8  7  2  0
  9  7  1  0
 10  9  1  0
 10 14  1  0
 10 11  1  6
 12 11  1  0
 13 12  2  0
 14 15  2  0
 14 17  1  0
 16 12  1  0
 17 18  1  0
 18 19  1  1
 19 20  1  0
 21 20  1  0
 22 21  1  0
 23 22  1  0
 24 18  1  0
 24 25  1  0
 26 24  2  0
M  END
$$$$
