IDK.pdb
     RDKit          3D

 26 25  0  0  1  0  0  0  0  0999 V2000
   29.5504  -21.1467   -9.1976 C   0  0  0  0  0  0  0  0  0  0  0  0
   29.4342  -22.0064  -10.4139 C   0  0  0  0  0  0  0  0  0  0  0  0
   28.7241  -21.3725  -11.5621 C   0  0  2  0  0  0  0  0  0  0  0  0
   29.4969  -20.1700  -12.0161 C   0  0  0  0  0  0  0  0  0  0  0  0
   27.2767  -21.0544  -11.2755 C   0  0  2  0  0  0  0  0  0  0  0  0
   26.6448  -22.2718  -10.8379 N   0  0  0  0  0  0  0  0  0  0  0  0
   26.5660  -20.5443  -12.4617 C   0  0  0  0  0  0  0  0  0  0  0  0
   26.7319  -19.3760  -12.8794 O   0  0  0  0  0  0  0  0  0  0  0  0
   25.6645  -21.3781  -13.1674 N   0  0  0  0  0  0  0  0  0  0  0  0
   24.9496  -20.8704  -14.2936 C   0  0  1  0  0  0  0  0  0  0  0  0
   25.0421  -21.6813  -15.5369 C   0  0  0  0  0  0  0  0  0  0  0  0
   24.3178  -21.1183  -16.6966 C   0  0  0  0  0  0  0  0  0  0  0  0
   24.7703  -20.0929  -17.2706 O   0  0  0  0  0  0  0  0  0  0  0  0
   23.4884  -20.7075  -13.9468 C   0  0  0  0  0  0  0  0  0  0  0  0
   22.9353  -21.5908  -13.2210 O   0  0  0  0  0  0  0  0  0  0  0  0
   23.1499  -21.6489  -17.2127 O   0  0  0  0  0  0  0  0  0  0  0  0
   22.7375  -19.6211  -14.4020 N   0  0  0  0  0  0  0  0  0  0  0  0
   21.3083  -19.3974  -14.0230 C   0  0  1  0  0  0  0  0  0  0  0  0
   21.0234  -18.0305  -14.4717 C   0  0  0  0  0  0  0  0  0  0  0  0
   20.1252  -17.6817  -15.5655 C   0  0  0  0  0  0  0  0  0  0  0  0
   19.8858  -16.2771  -15.9675 C   0  0  0  0  0  0  0  0  0  0  0  0
   18.9457  -16.3507  -17.2222 C   0  0  0  0  0  0  0  0  0  0  0  0
   17.5823  -16.2710  -16.7342 N   0  0  0  0  0  0  0  0  0  0  0  0
   20.5841  -20.5338  -14.5442 C   0  0  0  0  0  0  0  0  0  0  0  0
   19.3711  -21.0610  -14.1254 O   0  0  0  0  0  0  0  0  0  0  0  0
   21.0810  -21.1975  -15.5311 O   0  0  0  0  0  0  0  0  0  0  0  0
  1  2  1  0
  3  4  1  1
  3  2  1  0
  5  3  1  0
  5  6  1  6
  7  5  1  0
  8  7  2  0
  9  7  1  0
 10  9  1  0
 10 14  1  0
 10 11  1  6
 12 11  1  0
 13 12  2  0
 14 15  2  0
 14 17  1  0
 16 12  1  0
 17 18  1  0
 18 19  1  6
 19 20  1  0
 21 20  1  0
 22 21  1  0
 23 22  1  0
 24 18  1  0
 24 25  1  0
 26 24  2  0
M  END
$$$$
