IDK.pdb
     RDKit          3D

 26 25  0  0  1  0  0  0  0  0999 V2000
   16.7063  -15.4164  -16.5820 C   0  0  0  0  0  0  0  0  0  0  0  0
   17.4007  -14.3547  -15.7930 C   0  0  0  0  0  0  0  0  0  0  0  0
   17.8935  -13.1995  -16.5974 C   0  0  2  0  0  0  0  0  0  0  0  0
   18.7701  -13.7074  -17.7032 C   0  0  0  0  0  0  0  0  0  0  0  0
   18.5675  -12.1317  -15.7703 C   0  0  2  0  0  0  0  0  0  0  0  0
   17.6544  -11.7558  -14.7225 N   0  0  0  0  0  0  0  0  0  0  0  0
   18.9078  -10.9362  -16.5622 C   0  0  0  0  0  0  0  0  0  0  0  0
   19.7633  -10.9703  -17.4754 O   0  0  0  0  0  0  0  0  0  0  0  0
   18.2640   -9.7014  -16.3038 N   0  0  0  0  0  0  0  0  0  0  0  0
   18.5656   -8.5549  -17.0987 C   0  0  1  0  0  0  0  0  0  0  0  0
   17.4506   -7.5894  -17.2895 C   0  0  0  0  0  0  0  0  0  0  0  0
   16.3013   -8.1170  -18.0557 C   0  0  0  0  0  0  0  0  0  0  0  0
   16.5015   -8.6724  -19.1680 O   0  0  0  0  0  0  0  0  0  0  0  0
   19.7368   -7.8084  -16.5046 C   0  0  0  0  0  0  0  0  0  0  0  0
   19.8416   -7.7521  -15.2401 O   0  0  0  0  0  0  0  0  0  0  0  0
   14.9876   -8.0452  -17.6301 O   0  0  0  0  0  0  0  0  0  0  0  0
   20.6968   -7.1831  -17.3038 N   0  0  0  0  0  0  0  0  0  0  0  0
   21.9372   -6.5549  -16.7534 C   0  0  1  0  0  0  0  0  0  0  0  0
   22.9584   -6.8129  -17.7740 C   0  0  0  0  0  0  0  0  0  0  0  0
   24.3701   -6.4729  -17.6461 C   0  0  0  0  0  0  0  0  0  0  0  0
   25.3387   -6.7166  -18.7390 C   0  0  0  0  0  0  0  0  0  0  0  0
   26.7496   -6.3889  -18.1345 C   0  0  0  0  0  0  0  0  0  0  0  0
   27.7283   -6.6761  -19.1655 N   0  0  0  0  0  0  0  0  0  0  0  0
   21.5608   -5.2112  -16.3789 C   0  0  0  0  0  0  0  0  0  0  0  0
   22.0597   -4.4197  -15.3545 O   0  0  0  0  0  0  0  0  0  0  0  0
   20.6357   -4.6087  -17.0442 O   0  0  0  0  0  0  0  0  0  0  0  0
  1  2  1  0
  3  4  1  6
  3  2  1  0
  5  3  1  0
  5  6  1  1
  7  5  1  0
  8  7  2  0
  9  7  1  0
 10  9  1  0
 10 14  1  0
 10 11  1  1
 12 11  1  0
 13 12  2  0
 14 15  2  0
 14 17  1  0
 16 12  1  0
 17 18  1  0
 18 19  1  6
 19 20  1  0
 21 20  1  0
 22 21  1  0
 23 22  1  0
 24 18  1  0
 24 25  1  0
 26 24  2  0
M  END
$$$$
