IDK.pdb
     RDKit          3D

 26 25  0  0  1  0  0  0  0  0999 V2000
   12.8973  -13.5724  -15.1846 C   0  0  0  0  0  0  0  0  0  0  0  0
   14.1906  -13.0029  -15.6693 C   0  0  0  0  0  0  0  0  0  0  0  0
   14.9341  -12.1932  -14.6614 C   0  0  2  0  0  0  0  0  0  0  0  0
   14.0480  -11.0898  -14.1652 C   0  0  0  0  0  0  0  0  0  0  0  0
   16.2658  -11.6853  -15.1586 C   0  0  2  0  0  0  0  0  0  0  0  0
   17.0483  -12.8303  -15.5454 N   0  0  0  0  0  0  0  0  0  0  0  0
   17.0000  -10.9276  -14.1295 C   0  0  0  0  0  0  0  0  0  0  0  0
   17.6075  -11.4991  -13.1960 O   0  0  0  0  0  0  0  0  0  0  0  0
   17.0358   -9.5124  -14.1743 N   0  0  0  0  0  0  0  0  0  0  0  0
   17.7341   -8.7803  -13.1675 C   0  0  1  0  0  0  0  0  0  0  0  0
   18.7755   -7.8388  -13.6583 C   0  0  0  0  0  0  0  0  0  0  0  0
   19.5229   -7.1352  -12.5939 C   0  0  0  0  0  0  0  0  0  0  0  0
   19.9067   -7.7759  -11.5801 O   0  0  0  0  0  0  0  0  0  0  0  0
   16.7541   -7.9986  -12.3244 C   0  0  0  0  0  0  0  0  0  0  0  0
   15.9381   -7.2200  -12.9083 O   0  0  0  0  0  0  0  0  0  0  0  0
   19.8415   -5.7902  -12.6303 O   0  0  0  0  0  0  0  0  0  0  0  0
   16.7250   -8.1086  -10.9322 N   0  0  0  0  0  0  0  0  0  0  0  0
   15.7906   -7.3233  -10.0682 C   0  0  1  0  0  0  0  0  0  0  0  0
   14.8574   -8.3237   -9.5397 C   0  0  0  0  0  0  0  0  0  0  0  0
   13.5191   -8.0342   -9.0400 C   0  0  0  0  0  0  0  0  0  0  0  0
   12.5683   -9.1083   -8.6733 C   0  0  0  0  0  0  0  0  0  0  0  0
   11.2594   -8.3751   -8.2120 C   0  0  0  0  0  0  0  0  0  0  0  0
   10.2636   -9.4010   -7.9687 N   0  0  0  0  0  0  0  0  0  0  0  0
   16.6331   -6.5363   -9.1973 C   0  0  0  0  0  0  0  0  0  0  0  0
   16.3312   -5.3652   -8.5175 O   0  0  0  0  0  0  0  0  0  0  0  0
   17.8462   -6.9160   -8.9844 O   0  0  0  0  0  0  0  0  0  0  0  0
  1  2  1  0
  3  4  1  6
  3  2  1  0
  5  3  1  0
  5  6  1  1
  7  5  1  0
  8  7  2  0
  9  7  1  0
 10  9  1  0
 10 14  1  0
 10 11  1  6
 12 11  1  0
 13 12  2  0
 14 15  2  0
 14 17  1  0
 16 12  1  0
 17 18  1  0
 18 19  1  1
 19 20  1  0
 21 20  1  0
 22 21  1  0
 23 22  1  0
 24 18  1  0
 24 25  1  0
 26 24  2  0
M  END
$$$$
