IDK.pdb
     RDKit          3D

 26 25  0  0  1  0  0  0  0  0999 V2000
   24.0899  -15.5024  -15.5358 C   0  0  0  0  0  0  0  0  0  0  0  0
   24.6501  -14.1320  -15.7359 C   0  0  0  0  0  0  0  0  0  0  0  0
   23.7035  -13.1519  -16.3424 C   0  0  2  0  0  0  0  0  0  0  0  0
   23.0890  -13.7555  -17.5701 C   0  0  0  0  0  0  0  0  0  0  0  0
   24.3224  -11.8015  -16.6105 C   0  0  2  0  0  0  0  0  0  0  0  0
   24.9736  -11.3760  -15.3990 N   0  0  0  0  0  0  0  0  0  0  0  0
   23.3228  -10.7903  -16.9988 C   0  0  0  0  0  0  0  0  0  0  0  0
   22.6994  -10.8598  -18.0820 O   0  0  0  0  0  0  0  0  0  0  0  0
   23.0403   -9.6994  -16.1409 N   0  0  0  0  0  0  0  0  0  0  0  0
   21.9860   -8.7913  -16.4587 C   0  0  1  0  0  0  0  0  0  0  0  0
   21.1795   -8.3086  -15.3060 C   0  0  0  0  0  0  0  0  0  0  0  0
   20.3229   -9.3373  -14.6779 C   0  0  0  0  0  0  0  0  0  0  0  0
   20.3039   -9.4453  -13.4234 O   0  0  0  0  0  0  0  0  0  0  0  0
   22.5424   -7.5862  -17.1798 C   0  0  0  0  0  0  0  0  0  0  0  0
   23.6347   -7.0848  -16.7693 O   0  0  0  0  0  0  0  0  0  0  0  0
   19.5184  -10.2125  -15.3843 O   0  0  0  0  0  0  0  0  0  0  0  0
   21.8907   -7.0144  -18.2751 N   0  0  0  0  0  0  0  0  0  0  0  0
   22.4241   -5.8322  -19.0196 C   0  0  1  0  0  0  0  0  0  0  0  0
   21.9019   -5.9943  -20.3804 C   0  0  0  0  0  0  0  0  0  0  0  0
   22.2827   -5.1735  -21.5232 C   0  0  0  0  0  0  0  0  0  0  0  0
   21.7655   -5.4357  -22.8855 C   0  0  0  0  0  0  0  0  0  0  0  0
   22.4180   -4.3424  -23.8033 C   0  0  0  0  0  0  0  0  0  0  0  0
   22.0603   -4.6694  -25.1702 N   0  0  0  0  0  0  0  0  0  0  0  0
   22.0934   -4.6809  -18.2117 C   0  0  0  0  0  0  0  0  0  0  0  0
   22.7431   -3.4578  -18.1299 O   0  0  0  0  0  0  0  0  0  0  0  0
   21.0679   -4.7329  -17.4326 O   0  0  0  0  0  0  0  0  0  0  0  0
  1  2  1  0
  3  4  1  6
  3  2  1  0
  5  3  1  0
  5  6  1  1
  7  5  1  0
  8  7  2  0
  9  7  1  0
 10  9  1  0
 10 14  1  0
 10 11  1  1
 12 11  1  0
 13 12  2  0
 14 15  2  0
 14 17  1  0
 16 12  1  0
 17 18  1  0
 18 19  1  6
 19 20  1  0
 21 20  1  0
 22 21  1  0
 23 22  1  0
 24 18  1  0
 24 25  1  0
 26 24  2  0
M  END
$$$$
