IDK.pdb
     RDKit          3D

 26 25  0  0  1  0  0  0  0  0999 V2000
   11.6689  -12.5527   -9.1536 C   0  0  0  0  0  0  0  0  0  0  0  0
   11.6710  -11.6018  -10.3058 C   0  0  0  0  0  0  0  0  0  0  0  0
   12.8803  -10.7337  -10.3979 C   0  0  2  0  0  0  0  0  0  0  0  0
   13.0565   -9.9955   -9.1044 C   0  0  0  0  0  0  0  0  0  0  0  0
   12.8717   -9.8115  -11.5928 C   0  0  2  0  0  0  0  0  0  0  0  0
   12.7514  -10.6308  -12.7706 N   0  0  0  0  0  0  0  0  0  0  0  0
   14.1020   -9.0059  -11.6920 C   0  0  0  0  0  0  0  0  0  0  0  0
   14.4373   -8.1990  -10.7957 O   0  0  0  0  0  0  0  0  0  0  0  0
   14.9466   -9.1286  -12.8223 N   0  0  0  0  0  0  0  0  0  0  0  0
   16.0735   -8.2655  -12.9728 C   0  0  1  0  0  0  0  0  0  0  0  0
   16.8424   -8.4211  -14.2363 C   0  0  0  0  0  0  0  0  0  0  0  0
   17.9862   -7.4953  -14.3810 C   0  0  0  0  0  0  0  0  0  0  0  0
   18.9814   -7.6171  -13.6191 O   0  0  0  0  0  0  0  0  0  0  0  0
   15.6374   -6.8234  -12.8629 C   0  0  0  0  0  0  0  0  0  0  0  0
   14.5305   -6.4832  -13.3845 O   0  0  0  0  0  0  0  0  0  0  0  0
   18.0468   -6.4789  -15.3166 O   0  0  0  0  0  0  0  0  0  0  0  0
   16.4149   -5.8640  -12.2100 N   0  0  0  0  0  0  0  0  0  0  0  0
   16.0150   -4.4279  -12.0922 C   0  0  1  0  0  0  0  0  0  0  0  0
   15.4862   -4.3087  -10.7295 C   0  0  0  0  0  0  0  0  0  0  0  0
   15.0894   -3.0578  -10.0951 C   0  0  0  0  0  0  0  0  0  0  0  0
   14.4987   -3.0182   -8.7381 C   0  0  0  0  0  0  0  0  0  0  0  0
   14.0348   -1.5344   -8.5219 C   0  0  0  0  0  0  0  0  0  0  0  0
   13.3340   -1.4913   -7.2529 N   0  0  0  0  0  0  0  0  0  0  0  0
   17.1620   -3.6665  -12.5306 C   0  0  0  0  0  0  0  0  0  0  0  0
   17.2501   -2.3129  -12.8217 O   0  0  0  0  0  0  0  0  0  0  0  0
   18.2891   -4.2684  -12.7001 O   0  0  0  0  0  0  0  0  0  0  0  0
  1  2  1  0
  3  4  1  1
  3  2  1  0
  5  3  1  0
  5  6  1  6
  7  5  1  0
  8  7  2  0
  9  7  1  0
 10  9  1  0
 10 14  1  0
 10 11  1  6
 12 11  1  0
 13 12  2  0
 14 15  2  0
 14 17  1  0
 16 12  1  0
 17 18  1  0
 18 19  1  1
 19 20  1  0
 21 20  1  0
 22 21  1  0
 23 22  1  0
 24 18  1  0
 24 25  1  0
 26 24  2  0
M  END
$$$$
