HDQ.pdb
     RDKit          3D

 28 28  0  0  1  0  0  0  0  0999 V2000
    9.6240  -16.4390   19.7578 N   0  0  0  0  0  0  0  0  0  0  0  0
    9.8691  -15.6828   20.9847 C   0  0  1  0  0  0  0  0  0  0  0  0
    8.5788  -14.9609   21.3020 C   0  0  0  0  0  0  0  0  0  0  0  0
    8.2122  -14.0702   20.1468 C   0  0  0  0  0  0  0  0  0  0  0  0
    8.9390  -12.9656   19.7064 C   0  0  0  0  0  0  0  0  0  0  0  0
    8.2748  -12.4522   18.6558 N   0  0  0  0  0  0  0  0  0  0  0  0
    7.1618  -13.1937   18.4240 C   0  0  0  0  0  0  0  0  0  0  0  0
    7.1544  -14.1553   19.3353 N   0  0  0  0  0  0  0  0  0  0  0  0
   10.2621  -16.6130   22.0623 C   0  0  0  0  0  0  0  0  0  0  0  0
    9.4351  -17.0990   22.8954 O   0  0  0  0  0  0  0  0  0  0  0  0
   11.6138  -17.0183   22.2210 N   0  0  0  0  0  0  0  0  0  0  0  0
   12.0689  -17.8561   23.2967 C   0  0  1  0  0  0  0  0  0  0  0  0
   13.3720  -18.5396   22.9429 C   0  0  0  0  0  0  0  0  0  0  0  0
   13.8258  -19.5065   23.9664 C   0  0  0  0  0  0  0  0  0  0  0  0
   12.9941  -20.0118   24.7545 O   0  0  0  0  0  0  0  0  0  0  0  0
   12.0999  -17.1945   24.5971 C   0  0  0  0  0  0  0  0  0  0  0  0
   12.9570  -16.2846   24.7666 O   0  0  0  0  0  0  0  0  0  0  0  0
   15.1499  -19.8891   24.1015 O   0  0  0  0  0  0  0  0  0  0  0  0
    8.6867  -13.3008   27.1790 N   0  0  0  0  0  0  0  0  0  0  0  0
    9.5222  -13.6626   28.2667 C   0  0  0  0  0  0  0  0  0  0  0  0
    9.5035  -12.9069   29.2848 O   0  0  0  0  0  0  0  0  0  0  0  0
   10.3948  -14.8465   28.2955 C   0  0  0  0  0  0  0  0  0  0  0  0
   10.4213  -15.6814   27.0749 C   0  0  0  0  0  0  0  0  0  0  0  0
   11.3492  -16.8243   27.0038 C   0  0  2  0  0  0  0  0  0  0  0  0
   11.2551  -17.4834   25.6831 N   0  0  0  0  0  0  0  0  0  0  0  0
   11.3466  -17.7788   28.0872 C   0  0  0  0  0  0  0  0  0  0  0  0
   10.8717  -18.9357   28.0091 O   0  0  0  0  0  0  0  0  0  0  0  0
   11.9018  -17.4479   29.3451 O   0  0  0  0  0  0  0  0  0  0  0  0
  2  1  1  6
  3  4  1  0
  3  2  1  0
  4  5  2  0
  4  8  1  0
  5  6  1  0
  6  7  1  0
  8  7  2  0
  9 11  1  0
  9  2  1  0
 10  9  2  0
 12 11  1  0
 13 14  1  0
 12 13  1  6
 14 15  2  0
 16 17  2  0
 16 12  1  0
 18 14  1  0
 19 20  1  0
 20 22  1  0
 21 20  2  0
 23 22  1  0
 24 25  1  0
 24 23  1  1
 25 16  1  0
 26 24  1  0
 27 26  2  0
 28 26  1  0
M  END
$$$$
