HDQ.pdb
     RDKit          3D

 28 28  0  0  1  0  0  0  0  0999 V2000
   10.8098  -16.0678   19.8840 N   0  0  0  0  0  0  0  0  0  0  0  0
    9.7255  -15.6872   20.7876 C   0  0  1  0  0  0  0  0  0  0  0  0
    8.4518  -15.7628   19.9760 C   0  0  0  0  0  0  0  0  0  0  0  0
    8.1991  -14.4306   19.3250 C   0  0  0  0  0  0  0  0  0  0  0  0
    9.0123  -13.3038   19.4315 C   0  0  0  0  0  0  0  0  0  0  0  0
    8.4350  -12.3328   18.7020 N   0  0  0  0  0  0  0  0  0  0  0  0
    7.2931  -12.8102   18.1448 C   0  0  0  0  0  0  0  0  0  0  0  0
    7.1813  -14.0703   18.5382 N   0  0  0  0  0  0  0  0  0  0  0  0
    9.7026  -16.6101   21.9402 C   0  0  0  0  0  0  0  0  0  0  0  0
    8.6280  -17.0484   22.4572 O   0  0  0  0  0  0  0  0  0  0  0  0
   10.9087  -17.0627   22.5380 N   0  0  0  0  0  0  0  0  0  0  0  0
   10.9559  -17.7775   23.7842 C   0  0  1  0  0  0  0  0  0  0  0  0
   12.3105  -18.4186   23.9952 C   0  0  0  0  0  0  0  0  0  0  0  0
   12.4154  -19.1671   25.2668 C   0  0  0  0  0  0  0  0  0  0  0  0
   11.6422  -20.1272   25.4871 O   0  0  0  0  0  0  0  0  0  0  0  0
   10.4991  -17.0040   24.9342 C   0  0  0  0  0  0  0  0  0  0  0  0
   11.1204  -17.1561   26.0215 O   0  0  0  0  0  0  0  0  0  0  0  0
   13.3428  -18.8543   26.2465 O   0  0  0  0  0  0  0  0  0  0  0  0
    9.6549  -13.1085   28.9222 N   0  0  0  0  0  0  0  0  0  0  0  0
   10.2006  -14.4174   28.8883 C   0  0  0  0  0  0  0  0  0  0  0  0
   11.0476  -14.7127   29.7846 O   0  0  0  0  0  0  0  0  0  0  0  0
    9.8490  -15.4464   27.8978 C   0  0  0  0  0  0  0  0  0  0  0  0
    8.6689  -15.1746   27.0484 C   0  0  0  0  0  0  0  0  0  0  0  0
    8.3434  -16.1013   25.9496 C   0  0  2  0  0  0  0  0  0  0  0  0
    9.4222  -16.1003   24.9377 N   0  0  0  0  0  0  0  0  0  0  0  0
    7.0344  -16.0174   25.3461 C   0  0  0  0  0  0  0  0  0  0  0  0
    5.9569  -16.0874   25.9819 O   0  0  0  0  0  0  0  0  0  0  0  0
    6.8905  -15.8445   23.9499 O   0  0  0  0  0  0  0  0  0  0  0  0
  2  1  1  6
  3  4  1  0
  3  2  1  0
  4  5  2  0
  4  8  1  0
  5  6  1  0
  6  7  1  0
  8  7  2  0
  9 11  1  0
  9  2  1  0
 10  9  2  0
 12 11  1  0
 13 14  1  0
 12 13  1  1
 14 15  2  0
 16 17  2  0
 16 12  1  0
 18 14  1  0
 19 20  1  0
 20 22  1  0
 21 20  2  0
 23 22  1  0
 24 25  1  0
 24 23  1  1
 25 16  1  0
 26 24  1  0
 27 26  2  0
 28 26  1  0
M  END
$$$$
