HDQ.pdb
     RDKit          3D

 28 28  0  0  1  0  0  0  0  0999 V2000
    8.5521  -17.2942   19.1218 N   0  0  0  0  0  0  0  0  0  0  0  0
    9.6528  -16.3394   19.2402 C   0  0  1  0  0  0  0  0  0  0  0  0
    9.1555  -15.2291   20.1383 C   0  0  0  0  0  0  0  0  0  0  0  0
    8.1655  -14.3861   19.3823 C   0  0  0  0  0  0  0  0  0  0  0  0
    7.7440  -14.6020   18.0715 C   0  0  0  0  0  0  0  0  0  0  0  0
    6.8601  -13.6318   17.7787 N   0  0  0  0  0  0  0  0  0  0  0  0
    6.7140  -12.8191   18.8559 C   0  0  0  0  0  0  0  0  0  0  0  0
    7.5103  -13.2992   19.7996 N   0  0  0  0  0  0  0  0  0  0  0  0
   10.8336  -17.0221   19.8065 C   0  0  0  0  0  0  0  0  0  0  0  0
   10.8100  -17.6466   20.9127 O   0  0  0  0  0  0  0  0  0  0  0  0
   12.0795  -17.0135   19.1250 N   0  0  0  0  0  0  0  0  0  0  0  0
   13.3024  -17.4997   19.7031 C   0  0  1  0  0  0  0  0  0  0  0  0
   14.3998  -17.5888   18.6648 C   0  0  0  0  0  0  0  0  0  0  0  0
   14.0198  -18.3791   17.4736 C   0  0  0  0  0  0  0  0  0  0  0  0
   13.5536  -19.5325   17.6171 O   0  0  0  0  0  0  0  0  0  0  0  0
   13.7113  -16.7966   20.9148 C   0  0  0  0  0  0  0  0  0  0  0  0
   14.0752  -15.5947   20.7952 O   0  0  0  0  0  0  0  0  0  0  0  0
   14.1561  -17.9002   16.1814 O   0  0  0  0  0  0  0  0  0  0  0  0
   10.8462  -17.1298   26.4385 N   0  0  0  0  0  0  0  0  0  0  0  0
   11.9609  -18.0032   26.3574 C   0  0  0  0  0  0  0  0  0  0  0  0
   11.9975  -18.9697   27.1775 O   0  0  0  0  0  0  0  0  0  0  0  0
   13.0624  -17.8686   25.3918 C   0  0  0  0  0  0  0  0  0  0  0  0
   12.9704  -16.7470   24.4319 C   0  0  0  0  0  0  0  0  0  0  0  0
   14.0373  -16.5657   23.4314 C   0  0  2  0  0  0  0  0  0  0  0  0
   13.7362  -17.3433   22.2098 N   0  0  0  0  0  0  0  0  0  0  0  0
   15.4085  -16.7287   23.8532 C   0  0  0  0  0  0  0  0  0  0  0  0
   16.0032  -15.9550   24.6393 O   0  0  0  0  0  0  0  0  0  0  0  0
   16.1862  -17.8129   23.3845 O   0  0  0  0  0  0  0  0  0  0  0  0
  2  1  1  1
  3  4  1  0
  3  2  1  0
  4  5  2  0
  4  8  1  0
  5  6  1  0
  6  7  1  0
  8  7  2  0
  9 11  1  0
  9  2  1  0
 10  9  2  0
 12 11  1  0
 13 14  1  0
 12 13  1  6
 14 15  2  0
 16 17  2  0
 16 12  1  0
 18 14  1  0
 19 20  1  0
 20 22  1  0
 21 20  2  0
 23 22  1  0
 24 25  1  0
 24 23  1  1
 25 16  1  0
 26 24  1  0
 27 26  2  0
 28 26  1  0
M  END
$$$$
