HDQ.pdb
     RDKit          3D

 28 28  0  0  1  0  0  0  0  0999 V2000
   10.2388  -15.1718   20.0387 N   0  0  0  0  0  0  0  0  0  0  0  0
    9.3027  -15.2019   21.1612 C   0  0  1  0  0  0  0  0  0  0  0  0
    7.9527  -15.5528   20.5774 C   0  0  0  0  0  0  0  0  0  0  0  0
    7.6701  -14.6526   19.4060 C   0  0  0  0  0  0  0  0  0  0  0  0
    7.4274  -13.2818   19.4713 C   0  0  0  0  0  0  0  0  0  0  0  0
    7.2253  -12.8586   18.2109 N   0  0  0  0  0  0  0  0  0  0  0  0
    7.3324  -13.9123   17.3622 C   0  0  0  0  0  0  0  0  0  0  0  0
    7.5994  -14.9722   18.1108 N   0  0  0  0  0  0  0  0  0  0  0  0
    9.7554  -16.2023   22.1488 C   0  0  0  0  0  0  0  0  0  0  0  0
    9.0292  -16.6069   23.1096 O   0  0  0  0  0  0  0  0  0  0  0  0
   11.0532  -16.7733   22.0683 N   0  0  0  0  0  0  0  0  0  0  0  0
   11.5884  -17.6674   23.0584 C   0  0  1  0  0  0  0  0  0  0  0  0
   12.8844  -18.2912   22.5876 C   0  0  0  0  0  0  0  0  0  0  0  0
   13.4838  -19.2169   23.5734 C   0  0  0  0  0  0  0  0  0  0  0  0
   12.7640  -20.0703   24.1406 O   0  0  0  0  0  0  0  0  0  0  0  0
   11.6787  -17.0919   24.3965 C   0  0  0  0  0  0  0  0  0  0  0  0
   12.5037  -16.1539   24.5719 O   0  0  0  0  0  0  0  0  0  0  0  0
   14.8271  -19.1879   23.9088 O   0  0  0  0  0  0  0  0  0  0  0  0
    8.1045  -13.3398   26.5420 N   0  0  0  0  0  0  0  0  0  0  0  0
    9.0554  -13.4534   27.5884 C   0  0  0  0  0  0  0  0  0  0  0  0
    9.0764  -12.5251   28.4521 O   0  0  0  0  0  0  0  0  0  0  0  0
   10.0042  -14.5670   27.7413 C   0  0  0  0  0  0  0  0  0  0  0  0
    9.9358  -15.6414   26.7271 C   0  0  0  0  0  0  0  0  0  0  0  0
   10.8923  -16.7605   26.7975 C   0  0  2  0  0  0  0  0  0  0  0  0
   10.9242  -17.4930   25.5130 N   0  0  0  0  0  0  0  0  0  0  0  0
   10.8208  -17.6542   27.9292 C   0  0  0  0  0  0  0  0  0  0  0  0
   10.2004  -18.7430   27.9324 O   0  0  0  0  0  0  0  0  0  0  0  0
   11.4726  -17.3381   29.1438 O   0  0  0  0  0  0  0  0  0  0  0  0
  2  1  1  6
  3  4  1  0
  3  2  1  0
  4  5  2  0
  4  8  1  0
  5  6  1  0
  6  7  1  0
  8  7  2  0
  9 11  1  0
  9  2  1  0
 10  9  2  0
 12 11  1  0
 13 14  1  0
 12 13  1  6
 14 15  2  0
 16 17  2  0
 16 12  1  0
 18 14  1  0
 19 20  1  0
 20 22  1  0
 21 20  2  0
 23 22  1  0
 24 25  1  0
 24 23  1  6
 25 16  1  0
 26 24  1  0
 27 26  2  0
 28 26  1  0
M  END
$$$$
