HDQ.pdb
     RDKit          3D

 28 28  0  0  1  0  0  0  0  0999 V2000
    8.2685  -17.7289   17.8169 N   0  0  0  0  0  0  0  0  0  0  0  0
    8.5914  -16.6513   18.7505 C   0  0  1  0  0  0  0  0  0  0  0  0
    7.2769  -15.9987   19.1148 C   0  0  0  0  0  0  0  0  0  0  0  0
    7.5299  -14.5789   19.5417 C   0  0  0  0  0  0  0  0  0  0  0  0
    8.0907  -13.5775   18.7510 C   0  0  0  0  0  0  0  0  0  0  0  0
    8.1397  -12.4643   19.5038 N   0  0  0  0  0  0  0  0  0  0  0  0
    7.6313  -12.7325   20.7334 C   0  0  0  0  0  0  0  0  0  0  0  0
    7.2753  -14.0085   20.7226 N   0  0  0  0  0  0  0  0  0  0  0  0
    9.2749  -17.2160   19.9316 C   0  0  0  0  0  0  0  0  0  0  0  0
    8.6780  -17.9090   20.8135 O   0  0  0  0  0  0  0  0  0  0  0  0
   10.6638  -17.0072   20.1415 N   0  0  0  0  0  0  0  0  0  0  0  0
   11.3580  -17.4275   21.3279 C   0  0  1  0  0  0  0  0  0  0  0  0
   12.7763  -17.8494   21.0103 C   0  0  0  0  0  0  0  0  0  0  0  0
   13.5023  -18.3969   22.1770 C   0  0  0  0  0  0  0  0  0  0  0  0
   13.0253  -19.3705   22.8036 O   0  0  0  0  0  0  0  0  0  0  0  0
   11.2727  -16.4822   22.4364 C   0  0  0  0  0  0  0  0  0  0  0  0
   12.3559  -16.0790   22.9418 O   0  0  0  0  0  0  0  0  0  0  0  0
   14.7066  -17.8776   22.6218 O   0  0  0  0  0  0  0  0  0  0  0  0
    5.8815  -18.4884   24.4151 N   0  0  0  0  0  0  0  0  0  0  0  0
    5.9678  -17.1885   23.8539 C   0  0  0  0  0  0  0  0  0  0  0  0
    4.9087  -16.7059   23.3506 O   0  0  0  0  0  0  0  0  0  0  0  0
    7.1887  -16.3687   23.8226 C   0  0  0  0  0  0  0  0  0  0  0  0
    8.3988  -16.9561   24.4379 C   0  0  0  0  0  0  0  0  0  0  0  0
    9.6660  -16.2050   24.3947 C   0  0  2  0  0  0  0  0  0  0  0  0
   10.0841  -15.9792   22.9940 N   0  0  0  0  0  0  0  0  0  0  0  0
   10.7605  -16.6574   25.2206 C   0  0  0  0  0  0  0  0  0  0  0  0
   11.0156  -17.8607   25.4595 O   0  0  0  0  0  0  0  0  0  0  0  0
   11.6395  -15.7314   25.8288 O   0  0  0  0  0  0  0  0  0  0  0  0
  2  1  1  6
  3  4  1  0
  3  2  1  0
  4  5  2  0
  4  8  1  0
  5  6  1  0
  6  7  1  0
  8  7  2  0
  9 11  1  0
  9  2  1  0
 10  9  2  0
 12 11  1  0
 13 14  1  0
 12 13  1  6
 14 15  2  0
 16 17  2  0
 16 12  1  0
 18 14  1  0
 19 20  1  0
 20 22  1  0
 21 20  2  0
 23 22  1  0
 24 25  1  0
 24 23  1  6
 25 16  1  0
 26 24  1  0
 27 26  2  0
 28 26  1  0
M  END
$$$$
