HDQ.pdb
     RDKit          3D

 28 28  0  0  1  0  0  0  0  0999 V2000
    8.5153  -17.4347   18.3341 N   0  0  0  0  0  0  0  0  0  0  0  0
    9.0955  -16.4226   19.2152 C   0  0  1  0  0  0  0  0  0  0  0  0
    7.9786  -15.4579   19.5449 C   0  0  0  0  0  0  0  0  0  0  0  0
    7.7546  -14.5403   18.3744 C   0  0  0  0  0  0  0  0  0  0  0  0
    8.4637  -14.5611   17.1748 C   0  0  0  0  0  0  0  0  0  0  0  0
    7.9534  -13.5873   16.4003 N   0  0  0  0  0  0  0  0  0  0  0  0
    6.9536  -12.9600   17.0704 C   0  0  0  0  0  0  0  0  0  0  0  0
    6.8604  -13.5555   18.2500 N   0  0  0  0  0  0  0  0  0  0  0  0
    9.6354  -17.0777   20.4236 C   0  0  0  0  0  0  0  0  0  0  0  0
    8.9198  -17.7596   21.2218 O   0  0  0  0  0  0  0  0  0  0  0  0
   11.0119  -16.9749   20.7573 N   0  0  0  0  0  0  0  0  0  0  0  0
   11.5647  -17.4504   21.9961 C   0  0  1  0  0  0  0  0  0  0  0  0
   13.0745  -17.5284   21.9263 C   0  0  0  0  0  0  0  0  0  0  0  0
   13.5685  -18.4154   20.8505 C   0  0  0  0  0  0  0  0  0  0  0  0
   13.4542  -19.6568   20.9685 O   0  0  0  0  0  0  0  0  0  0  0  0
   11.0782  -16.7447   23.1772 C   0  0  0  0  0  0  0  0  0  0  0  0
   11.5492  -15.5967   23.4040 O   0  0  0  0  0  0  0  0  0  0  0  0
   14.1638  -17.9344   19.6963 O   0  0  0  0  0  0  0  0  0  0  0  0
    7.4736  -13.2138   24.5153 N   0  0  0  0  0  0  0  0  0  0  0  0
    7.2946  -13.8022   25.7936 C   0  0  0  0  0  0  0  0  0  0  0  0
    6.7907  -13.0717   26.6994 O   0  0  0  0  0  0  0  0  0  0  0  0
    7.6442  -15.1899   26.1337 C   0  0  0  0  0  0  0  0  0  0  0  0
    8.2914  -15.9908   25.0718 C   0  0  0  0  0  0  0  0  0  0  0  0
    9.6623  -16.4900   25.2803 C   0  0  2  0  0  0  0  0  0  0  0  0
   10.1268  -17.2339   24.0893 N   0  0  0  0  0  0  0  0  0  0  0  0
    9.9579  -17.1920   26.5069 C   0  0  0  0  0  0  0  0  0  0  0  0
   10.1342  -18.4299   26.5884 O   0  0  0  0  0  0  0  0  0  0  0  0
   10.0697  -16.4939   27.7318 O   0  0  0  0  0  0  0  0  0  0  0  0
  2  1  1  6
  3  4  1  0
  3  2  1  0
  4  5  2  0
  4  8  1  0
  5  6  1  0
  6  7  1  0
  8  7  2  0
  9 11  1  0
  9  2  1  0
 10  9  2  0
 12 11  1  0
 13 14  1  0
 12 13  1  6
 14 15  2  0
 16 17  2  0
 16 12  1  0
 18 14  1  0
 19 20  1  0
 20 22  1  0
 21 20  2  0
 23 22  1  0
 24 25  1  0
 24 23  1  6
 25 16  1  0
 26 24  1  0
 27 26  2  0
 28 26  1  0
M  END
$$$$
