HDQ.pdb
     RDKit          3D

 28 28  0  0  1  0  0  0  0  0999 V2000
    7.3546  -16.5284   21.1187 N   0  0  0  0  0  0  0  0  0  0  0  0
    8.6619  -15.9693   21.4589 C   0  0  1  0  0  0  0  0  0  0  0  0
    8.5232  -14.4679   21.3436 C   0  0  0  0  0  0  0  0  0  0  0  0
    8.2739  -14.1021   19.9061 C   0  0  0  0  0  0  0  0  0  0  0  0
    7.1399  -13.4591   19.4133 C   0  0  0  0  0  0  0  0  0  0  0  0
    7.3138  -13.3179   18.0874 N   0  0  0  0  0  0  0  0  0  0  0  0
    8.5123  -13.8480   17.7340 C   0  0  0  0  0  0  0  0  0  0  0  0
    9.0621  -14.3093   18.8475 N   0  0  0  0  0  0  0  0  0  0  0  0
    9.0319  -16.3873   22.8261 C   0  0  0  0  0  0  0  0  0  0  0  0
    8.1842  -16.5291   23.7618 O   0  0  0  0  0  0  0  0  0  0  0  0
   10.3837  -16.6579   23.1669 N   0  0  0  0  0  0  0  0  0  0  0  0
   10.7956  -17.1301   24.4605 C   0  0  1  0  0  0  0  0  0  0  0  0
   12.1708  -17.7591   24.4000 C   0  0  0  0  0  0  0  0  0  0  0  0
   12.5306  -18.5056   25.6253 C   0  0  0  0  0  0  0  0  0  0  0  0
   11.6986  -18.6092   26.5554 O   0  0  0  0  0  0  0  0  0  0  0  0
   10.6596  -16.1439   25.5275 C   0  0  0  0  0  0  0  0  0  0  0  0
   11.4228  -15.1402   25.4928 O   0  0  0  0  0  0  0  0  0  0  0  0
   13.7653  -19.1077   25.8010 O   0  0  0  0  0  0  0  0  0  0  0  0
    6.0326  -13.4754   26.3198 N   0  0  0  0  0  0  0  0  0  0  0  0
    7.0277  -12.6526   26.9070 C   0  0  0  0  0  0  0  0  0  0  0  0
    6.8829  -11.3984   26.7886 O   0  0  0  0  0  0  0  0  0  0  0  0
    8.2004  -13.1508   27.6421 C   0  0  0  0  0  0  0  0  0  0  0  0
    8.3381  -14.6192   27.7557 C   0  0  0  0  0  0  0  0  0  0  0  0
    9.6806  -15.2239   27.6928 C   0  0  2  0  0  0  0  0  0  0  0  0
    9.7490  -16.2144   26.5965 N   0  0  0  0  0  0  0  0  0  0  0  0
   10.2650  -15.7260   28.9138 C   0  0  0  0  0  0  0  0  0  0  0  0
   10.3649  -16.9413   29.2025 O   0  0  0  0  0  0  0  0  0  0  0  0
   10.7775  -14.8395   29.8893 O   0  0  0  0  0  0  0  0  0  0  0  0
  2  1  1  1
  3  4  1  0
  3  2  1  0
  4  5  2  0
  4  8  1  0
  5  6  1  0
  6  7  1  0
  8  7  2  0
  9 11  1  0
  9  2  1  0
 10  9  2  0
 12 11  1  0
 13 14  1  0
 12 13  1  6
 14 15  2  0
 16 17  2  0
 16 12  1  0
 18 14  1  0
 19 20  1  0
 20 22  1  0
 21 20  2  0
 23 22  1  0
 24 25  1  0
 24 23  1  1
 25 16  1  0
 26 24  1  0
 27 26  2  0
 28 26  1  0
M  END
$$$$
