HDQ.pdb
     RDKit          3D

 28 28  0  0  1  0  0  0  0  0999 V2000
   10.3342  -15.7469   20.3088 N   0  0  0  0  0  0  0  0  0  0  0  0
    9.4470  -15.4770   21.4389 C   0  0  1  0  0  0  0  0  0  0  0  0
    8.0377  -15.5326   20.8935 C   0  0  0  0  0  0  0  0  0  0  0  0
    7.8357  -14.3990   19.9258 C   0  0  0  0  0  0  0  0  0  0  0  0
    8.7989  -13.4627   19.5544 C   0  0  0  0  0  0  0  0  0  0  0  0
    8.2168  -12.6286   18.6747 N   0  0  0  0  0  0  0  0  0  0  0  0
    6.9278  -13.0083   18.4831 C   0  0  0  0  0  0  0  0  0  0  0  0
    6.7320  -14.0723   19.2477 N   0  0  0  0  0  0  0  0  0  0  0  0
    9.6733  -16.4884   22.4909 C   0  0  0  0  0  0  0  0  0  0  0  0
    8.9927  -16.5396   23.5625 O   0  0  0  0  0  0  0  0  0  0  0  0
   10.6851  -17.4751   22.3505 N   0  0  0  0  0  0  0  0  0  0  0  0
   11.0097  -18.4288   23.3757 C   0  0  1  0  0  0  0  0  0  0  0  0
   11.9897  -19.4643   22.8679 C   0  0  0  0  0  0  0  0  0  0  0  0
   12.3178  -20.5038   23.8680 C   0  0  0  0  0  0  0  0  0  0  0  0
   13.0905  -20.2315   24.8151 O   0  0  0  0  0  0  0  0  0  0  0  0
   11.4110  -17.8290   24.6441 C   0  0  0  0  0  0  0  0  0  0  0  0
   12.4245  -17.0780   24.6377 O   0  0  0  0  0  0  0  0  0  0  0  0
   11.8049  -21.7888   23.8096 O   0  0  0  0  0  0  0  0  0  0  0  0
    8.6349  -13.5738   27.3165 N   0  0  0  0  0  0  0  0  0  0  0  0
    9.5559  -13.9194   28.3385 C   0  0  0  0  0  0  0  0  0  0  0  0
    9.6608  -13.1180   29.3156 O   0  0  0  0  0  0  0  0  0  0  0  0
   10.3840  -15.1351   28.3443 C   0  0  0  0  0  0  0  0  0  0  0  0
   10.2214  -16.0545   27.1971 C   0  0  0  0  0  0  0  0  0  0  0  0
   11.0807  -17.2482   27.1031 C   0  0  2  0  0  0  0  0  0  0  0  0
   10.7650  -18.0156   25.8788 N   0  0  0  0  0  0  0  0  0  0  0  0
   11.1993  -18.1013   28.2619 C   0  0  0  0  0  0  0  0  0  0  0  0
   11.8375  -17.8020   29.2979 O   0  0  0  0  0  0  0  0  0  0  0  0
   10.5773  -19.3710   28.2930 O   0  0  0  0  0  0  0  0  0  0  0  0
  2  1  1  6
  3  4  1  0
  3  2  1  0
  4  5  2  0
  4  8  1  0
  5  6  1  0
  6  7  1  0
  8  7  2  0
  9 11  1  0
  9  2  1  0
 10  9  2  0
 12 11  1  0
 13 14  1  0
 12 13  1  6
 14 15  2  0
 16 17  2  0
 16 12  1  0
 18 14  1  0
 19 20  1  0
 20 22  1  0
 21 20  2  0
 23 22  1  0
 24 25  1  0
 24 23  1  1
 25 16  1  0
 26 24  1  0
 27 26  2  0
 28 26  1  0
M  END
$$$$
