HDQ.pdb
     RDKit          3D

 28 28  0  0  1  0  0  0  0  0999 V2000
   10.0304  -15.2695   20.0269 N   0  0  0  0  0  0  0  0  0  0  0  0
    8.8420  -14.7723   20.7180 C   0  0  1  0  0  0  0  0  0  0  0  0
    7.6633  -15.1205   19.8371 C   0  0  0  0  0  0  0  0  0  0  0  0
    7.8287  -14.4511   18.5004 C   0  0  0  0  0  0  0  0  0  0  0  0
    8.9149  -13.6707   18.1083 C   0  0  0  0  0  0  0  0  0  0  0  0
    8.6735  -13.2668   16.8485 N   0  0  0  0  0  0  0  0  0  0  0  0
    7.4788  -13.7648   16.4398 C   0  0  0  0  0  0  0  0  0  0  0  0
    6.9990  -14.4699   17.4535 N   0  0  0  0  0  0  0  0  0  0  0  0
    8.7467  -15.4094   22.0469 C   0  0  0  0  0  0  0  0  0  0  0  0
    7.8154  -15.1556   22.8730 O   0  0  0  0  0  0  0  0  0  0  0  0
    9.7133  -16.3584   22.4735 N   0  0  0  0  0  0  0  0  0  0  0  0
    9.6874  -16.9906   23.7640 C   0  0  1  0  0  0  0  0  0  0  0  0
   10.6780  -18.1328   23.8328 C   0  0  0  0  0  0  0  0  0  0  0  0
   10.6925  -18.8208   25.1422 C   0  0  0  0  0  0  0  0  0  0  0  0
   11.6502  -18.6386   25.9281 O   0  0  0  0  0  0  0  0  0  0  0  0
    9.7981  -16.0636   24.8857 C   0  0  0  0  0  0  0  0  0  0  0  0
   10.8110  -15.3127   24.9219 O   0  0  0  0  0  0  0  0  0  0  0  0
    9.6815  -19.6739   25.5521 O   0  0  0  0  0  0  0  0  0  0  0  0
    6.2129  -10.7727   26.2297 N   0  0  0  0  0  0  0  0  0  0  0  0
    6.4382  -12.0971   26.6851 C   0  0  0  0  0  0  0  0  0  0  0  0
    5.4493  -12.7096   27.1900 O   0  0  0  0  0  0  0  0  0  0  0  0
    7.7264  -12.8027   26.6058 C   0  0  0  0  0  0  0  0  0  0  0  0
    7.7733  -14.1656   27.1790 C   0  0  0  0  0  0  0  0  0  0  0  0
    9.0055  -14.9625   27.0426 C   0  0  2  0  0  0  0  0  0  0  0  0
    8.8715  -15.9335   25.9350 N   0  0  0  0  0  0  0  0  0  0  0  0
    9.5669  -15.5665   28.2278 C   0  0  0  0  0  0  0  0  0  0  0  0
    9.7222  -16.7996   28.3872 O   0  0  0  0  0  0  0  0  0  0  0  0
    9.9893  -14.7686   29.3164 O   0  0  0  0  0  0  0  0  0  0  0  0
  2  1  1  6
  3  4  1  0
  3  2  1  0
  4  5  2  0
  4  8  1  0
  5  6  1  0
  6  7  1  0
  8  7  2  0
  9 11  1  0
  9  2  1  0
 10  9  2  0
 12 11  1  0
 13 14  1  0
 12 13  1  6
 14 15  2  0
 16 17  2  0
 16 12  1  0
 18 14  1  0
 19 20  1  0
 20 22  1  0
 21 20  2  0
 23 22  1  0
 24 25  1  0
 24 23  1  1
 25 16  1  0
 26 24  1  0
 27 26  2  0
 28 26  1  0
M  END
$$$$
