HDQ.pdb
     RDKit          3D

 28 28  0  0  1  0  0  0  0  0999 V2000
    6.6845  -17.5148   20.2789 N   0  0  0  0  0  0  0  0  0  0  0  0
    7.7581  -16.5871   20.6310 C   0  0  1  0  0  0  0  0  0  0  0  0
    7.0974  -15.2501   20.8812 C   0  0  0  0  0  0  0  0  0  0  0  0
    7.7397  -14.2085   20.0068 C   0  0  0  0  0  0  0  0  0  0  0  0
    8.7911  -14.4257   19.1180 C   0  0  0  0  0  0  0  0  0  0  0  0
    9.0628  -13.2445   18.5354 N   0  0  0  0  0  0  0  0  0  0  0  0
    8.2218  -12.2990   19.0264 C   0  0  0  0  0  0  0  0  0  0  0  0
    7.4419  -12.9101   19.9059 N   0  0  0  0  0  0  0  0  0  0  0  0
    8.4643  -17.0877   21.8275 C   0  0  0  0  0  0  0  0  0  0  0  0
    7.8681  -17.6350   22.8070 O   0  0  0  0  0  0  0  0  0  0  0  0
    9.8757  -16.9797   21.9417 N   0  0  0  0  0  0  0  0  0  0  0  0
   10.6003  -17.2976   23.1417 C   0  0  1  0  0  0  0  0  0  0  0  0
   12.0489  -17.6134   22.8376 C   0  0  0  0  0  0  0  0  0  0  0  0
   12.8291  -18.0037   24.0322 C   0  0  0  0  0  0  0  0  0  0  0  0
   13.9785  -17.5367   24.2023 O   0  0  0  0  0  0  0  0  0  0  0  0
   10.4363  -16.3222   24.2148 C   0  0  0  0  0  0  0  0  0  0  0  0
   10.8526  -15.1502   24.0042 O   0  0  0  0  0  0  0  0  0  0  0  0
   12.3447  -18.8771   24.9916 O   0  0  0  0  0  0  0  0  0  0  0  0
    5.6581  -13.6613   26.0156 N   0  0  0  0  0  0  0  0  0  0  0  0
    6.5858  -13.2121   26.9902 C   0  0  0  0  0  0  0  0  0  0  0  0
    6.2431  -12.2168   27.6973 O   0  0  0  0  0  0  0  0  0  0  0  0
    7.9019  -13.8207   27.2376 C   0  0  0  0  0  0  0  0  0  0  0  0
    8.3129  -14.9083   26.3232 C   0  0  0  0  0  0  0  0  0  0  0  0
    9.6319  -15.5406   26.5028 C   0  0  2  0  0  0  0  0  0  0  0  0
    9.8530  -16.5748   25.4688 N   0  0  0  0  0  0  0  0  0  0  0  0
    9.9967  -16.0051   27.8203 C   0  0  0  0  0  0  0  0  0  0  0  0
   10.2835  -15.2532   28.7808 O   0  0  0  0  0  0  0  0  0  0  0  0
   10.0520  -17.3880   28.1110 O   0  0  0  0  0  0  0  0  0  0  0  0
  2  1  1  1
  3  4  1  0
  3  2  1  0
  4  5  2  0
  4  8  1  0
  5  6  1  0
  6  7  1  0
  8  7  2  0
  9 11  1  0
  9  2  1  0
 10  9  2  0
 12 11  1  0
 13 14  1  0
 12 13  1  6
 14 15  2  0
 16 17  2  0
 16 12  1  0
 18 14  1  0
 19 20  1  0
 20 22  1  0
 21 20  2  0
 23 22  1  0
 24 25  1  0
 24 23  1  1
 25 16  1  0
 26 24  1  0
 27 26  2  0
 28 26  1  0
M  END
$$$$
