HDQ.pdb
     RDKit          3D

 28 28  0  0  1  0  0  0  0  0999 V2000
    9.6798  -16.4420   19.7770 N   0  0  0  0  0  0  0  0  0  0  0  0
    9.3680  -15.6097   20.9377 C   0  0  1  0  0  0  0  0  0  0  0  0
    7.9210  -15.1973   20.7864 C   0  0  0  0  0  0  0  0  0  0  0  0
    7.7816  -14.3119   19.5786 C   0  0  0  0  0  0  0  0  0  0  0  0
    8.8167  -13.9190   18.7319 C   0  0  0  0  0  0  0  0  0  0  0  0
    8.2718  -13.1385   17.7820 N   0  0  0  0  0  0  0  0  0  0  0  0
    6.9372  -13.0293   18.0033 C   0  0  0  0  0  0  0  0  0  0  0  0
    6.6764  -13.7444   19.0876 N   0  0  0  0  0  0  0  0  0  0  0  0
    9.5954  -16.3873   22.1724 C   0  0  0  0  0  0  0  0  0  0  0  0
    8.6568  -16.7437   22.9509 O   0  0  0  0  0  0  0  0  0  0  0  0
   10.9041  -16.7835   22.5559 N   0  0  0  0  0  0  0  0  0  0  0  0
   11.1959  -17.4721   23.7834 C   0  0  1  0  0  0  0  0  0  0  0  0
   12.5681  -18.1092   23.7394 C   0  0  0  0  0  0  0  0  0  0  0  0
   12.8913  -18.8939   24.9510 C   0  0  0  0  0  0  0  0  0  0  0  0
   11.9940  -19.5594   25.5168 O   0  0  0  0  0  0  0  0  0  0  0  0
   10.9693  -16.6745   24.9842 C   0  0  0  0  0  0  0  0  0  0  0  0
   11.6809  -15.6449   25.1416 O   0  0  0  0  0  0  0  0  0  0  0  0
   14.1605  -18.9311   25.5037 O   0  0  0  0  0  0  0  0  0  0  0  0
    7.8180  -11.5345   26.7068 N   0  0  0  0  0  0  0  0  0  0  0  0
    7.7850  -12.9476   26.8257 C   0  0  0  0  0  0  0  0  0  0  0  0
    6.6530  -13.5092   26.7201 O   0  0  0  0  0  0  0  0  0  0  0  0
    8.9640  -13.7971   27.0542 C   0  0  0  0  0  0  0  0  0  0  0  0
    8.7268  -15.2551   27.1315 C   0  0  0  0  0  0  0  0  0  0  0  0
    9.8793  -16.1681   27.2311 C   0  0  2  0  0  0  0  0  0  0  0  0
   10.0237  -16.9539   25.9864 N   0  0  0  0  0  0  0  0  0  0  0  0
   10.0015  -16.9930   28.4098 C   0  0  0  0  0  0  0  0  0  0  0  0
    9.9913  -18.2460   28.4002 O   0  0  0  0  0  0  0  0  0  0  0  0
   10.1455  -16.4097   29.6901 O   0  0  0  0  0  0  0  0  0  0  0  0
  2  1  1  6
  3  4  1  0
  3  2  1  0
  4  5  2  0
  4  8  1  0
  5  6  1  0
  6  7  1  0
  8  7  2  0
  9 11  1  0
  9  2  1  0
 10  9  2  0
 12 11  1  0
 13 14  1  0
 12 13  1  6
 14 15  2  0
 16 17  2  0
 16 12  1  0
 18 14  1  0
 19 20  1  0
 20 22  1  0
 21 20  2  0
 23 22  1  0
 24 25  1  0
 24 23  1  6
 25 16  1  0
 26 24  1  0
 27 26  2  0
 28 26  1  0
M  END
$$$$
