HNF.pdb
     RDKit          3D

 30 31  0  0  1  0  0  0  0  0999 V2000
   24.3513  -19.1645  -17.6795 N   0  0  0  0  0  0  0  0  0  0  0  0
   24.6872  -17.9570  -16.9451 C   0  0  1  0  0  0  0  0  0  0  0  0
   24.9322  -16.8743  -17.9808 C   0  0  0  0  0  0  0  0  0  0  0  0
   25.9479  -17.2342  -18.9727 C   0  0  0  0  0  0  0  0  0  0  0  0
   27.3174  -17.2766  -18.7675 C   0  0  0  0  0  0  0  0  0  0  0  0
   27.9436  -17.6339  -19.9019 N   0  0  0  0  0  0  0  0  0  0  0  0
   26.9758  -17.8134  -20.8071 C   0  0  0  0  0  0  0  0  0  0  0  0
   25.7675  -17.5769  -20.2644 N   0  0  0  0  0  0  0  0  0  0  0  0
   23.5233  -17.6214  -16.0855 C   0  0  0  0  0  0  0  0  0  0  0  0
   23.0456  -16.4522  -15.9801 O   0  0  0  0  0  0  0  0  0  0  0  0
   19.1171  -16.2594  -14.1304 N   0  0  0  0  0  0  0  0  0  0  0  0
   19.3299  -17.5416  -14.6839 C   0  0  0  0  0  0  0  0  0  0  0  0
   18.5002  -18.4414  -14.4757 O   0  0  0  0  0  0  0  0  0  0  0  0
   20.5347  -17.7874  -15.5003 C   0  0  0  0  0  0  0  0  0  0  0  0
   21.6162  -18.3708  -14.6301 C   0  0  2  0  0  0  0  0  0  0  0  0
   22.8468  -18.6028  -15.3030 N   0  0  0  0  0  0  0  0  0  0  0  0
   21.1134  -19.5651  -13.9002 C   0  0  0  0  0  0  0  0  0  0  0  0
   20.1080  -19.3908  -13.1296 O   0  0  0  0  0  0  0  0  0  0  0  0
   21.6687  -20.8430  -14.0082 N   0  0  0  0  0  0  0  0  0  0  0  0
   21.1655  -21.9290  -13.1938 C   0  0  1  0  0  0  0  0  0  0  0  0
   21.5911  -21.7584  -11.7457 C   0  0  0  0  0  0  0  0  0  0  0  0
   23.0202  -21.4632  -11.5739 C   0  0  0  0  0  0  0  0  0  0  0  0
   23.4775  -20.4692  -10.7036 C   0  0  0  0  0  0  0  0  0  0  0  0
   24.8171  -20.2074  -10.5382 C   0  0  0  0  0  0  0  0  0  0  0  0
   25.7668  -20.9207  -11.2295 C   0  0  0  0  0  0  0  0  0  0  0  0
   25.3435  -21.9047  -12.0930 C   0  0  0  0  0  0  0  0  0  0  0  0
   24.0000  -22.1603  -12.2522 C   0  0  0  0  0  0  0  0  0  0  0  0
   19.7301  -22.1545  -13.3723 C   0  0  0  0  0  0  0  0  0  0  0  0
   19.0694  -21.3780  -14.0945 O   0  0  0  0  0  0  0  0  0  0  0  0
   19.0431  -23.2030  -12.7742 O   0  0  0  0  0  0  0  0  0  0  0  0
  2  1  1  6
  2  3  1  0
  4  3  1  0
  4  8  1  0
  5  6  1  0
  5  4  2  0
  6  7  1  0
  7  8  2  0
  9 10  2  0
  9  2  1  0
 11 12  1  0
 12 14  1  0
 13 12  2  0
 15 14  1  6
 15 16  1  0
 16  9  1  0
 17 19  1  0
 17 15  1  0
 18 17  2  0
 20 19  1  0
 20 28  1  0
 20 21  1  1
 22 23  2  0
 22 21  1  0
 24 23  1  0
 25 24  2  0
 26 25  1  0
 26 27  2  0
 27 22  1  0
 28 30  1  0
 29 28  2  0
M  END
$$$$
