HNF.pdb
     RDKit          3D

 30 31  0  0  1  0  0  0  0  0999 V2000
   25.2174  -30.3644  -21.8564 N   0  0  0  0  0  0  0  0  0  0  0  0
   24.9625  -29.6770  -20.6024 C   0  0  1  0  0  0  0  0  0  0  0  0
   23.7978  -30.3946  -19.9441 C   0  0  0  0  0  0  0  0  0  0  0  0
   22.5020  -30.0848  -20.5524 C   0  0  0  0  0  0  0  0  0  0  0  0
   21.7278  -28.9619  -20.3085 C   0  0  0  0  0  0  0  0  0  0  0  0
   20.5957  -29.0156  -21.0311 N   0  0  0  0  0  0  0  0  0  0  0  0
   20.6613  -30.1601  -21.7198 C   0  0  0  0  0  0  0  0  0  0  0  0
   21.8028  -30.8165  -21.4435 N   0  0  0  0  0  0  0  0  0  0  0  0
   26.1931  -29.7860  -19.7777 C   0  0  0  0  0  0  0  0  0  0  0  0
   27.0742  -30.6803  -19.9510 O   0  0  0  0  0  0  0  0  0  0  0  0
   30.0766  -28.8614  -16.8184 N   0  0  0  0  0  0  0  0  0  0  0  0
   29.1987  -27.8274  -16.4236 C   0  0  0  0  0  0  0  0  0  0  0  0
   29.5960  -26.9597  -15.6296 O   0  0  0  0  0  0  0  0  0  0  0  0
   27.8253  -27.7975  -16.9634 C   0  0  0  0  0  0  0  0  0  0  0  0
   27.6213  -28.9798  -17.8732 C   0  0  2  0  0  0  0  0  0  0  0  0
   26.4793  -28.8806  -18.7140 N   0  0  0  0  0  0  0  0  0  0  0  0
   27.6715  -30.2496  -17.1007 C   0  0  0  0  0  0  0  0  0  0  0  0
   28.8243  -30.7745  -16.9253 O   0  0  0  0  0  0  0  0  0  0  0  0
   26.5495  -30.8885  -16.5659 N   0  0  0  0  0  0  0  0  0  0  0  0
   26.6893  -32.1532  -15.8754 C   0  0  1  0  0  0  0  0  0  0  0  0
   27.6236  -32.0169  -14.6854 C   0  0  0  0  0  0  0  0  0  0  0  0
   27.7236  -33.2300  -13.8625 C   0  0  0  0  0  0  0  0  0  0  0  0
   28.3653  -34.3872  -14.3140 C   0  0  0  0  0  0  0  0  0  0  0  0
   28.4665  -35.5145  -13.5334 C   0  0  0  0  0  0  0  0  0  0  0  0
   27.9350  -35.5462  -12.2663 C   0  0  0  0  0  0  0  0  0  0  0  0
   27.2977  -34.4204  -11.7977 C   0  0  0  0  0  0  0  0  0  0  0  0
   27.2014  -33.2959  -12.5862 C   0  0  0  0  0  0  0  0  0  0  0  0
   25.4012  -32.7711  -15.5561 C   0  0  0  0  0  0  0  0  0  0  0  0
   25.3724  -33.9279  -15.0851 O   0  0  0  0  0  0  0  0  0  0  0  0
   24.1818  -32.1347  -15.7494 O   0  0  0  0  0  0  0  0  0  0  0  0
  2  1  1  6
  2  3  1  0
  4  3  1  0
  4  8  1  0
  5  6  1  0
  5  4  2  0
  6  7  1  0
  7  8  2  0
  9 10  2  0
  9  2  1  0
 11 12  1  0
 12 14  1  0
 13 12  2  0
 15 14  1  1
 15 16  1  0
 16  9  1  0
 17 19  1  0
 17 15  1  0
 18 17  2  0
 20 19  1  0
 20 28  1  0
 20 21  1  1
 22 23  2  0
 22 21  1  0
 24 23  1  0
 25 24  2  0
 26 25  1  0
 26 27  2  0
 27 22  1  0
 28 30  1  0
 29 28  2  0
M  END
$$$$
