HNF.pdb
     RDKit          3D

 30 31  0  0  1  0  0  0  0  0999 V2000
   21.1568  -11.8600  -19.1696 N   0  0  0  0  0  0  0  0  0  0  0  0
   20.4211  -10.8368  -18.4469 C   0  0  1  0  0  0  0  0  0  0  0  0
   20.3308  -11.3050  -17.0055 C   0  0  0  0  0  0  0  0  0  0  0  0
   19.3798  -12.4009  -16.8062 C   0  0  0  0  0  0  0  0  0  0  0  0
   18.2141  -12.6174  -17.5231 C   0  0  0  0  0  0  0  0  0  0  0  0
   17.5824  -13.7092  -17.0589 N   0  0  0  0  0  0  0  0  0  0  0  0
   18.3452  -14.1710  -16.0622 C   0  0  0  0  0  0  0  0  0  0  0  0
   19.4318  -13.3950  -15.8965 N   0  0  0  0  0  0  0  0  0  0  0  0
   21.1967   -9.5743  -18.5517 C   0  0  0  0  0  0  0  0  0  0  0  0
   22.4626   -9.5325  -18.5927 O   0  0  0  0  0  0  0  0  0  0  0  0
   23.0627   -5.1588  -20.5710 N   0  0  0  0  0  0  0  0  0  0  0  0
   21.7681   -5.0611  -20.0140 C   0  0  0  0  0  0  0  0  0  0  0  0
   21.3694   -3.9663  -19.5853 O   0  0  0  0  0  0  0  0  0  0  0  0
   20.9132   -6.2627  -19.9527 C   0  0  0  0  0  0  0  0  0  0  0  0
   21.2726   -7.0687  -18.7327 C   0  0  2  0  0  0  0  0  0  0  0  0
   20.5664   -8.2968  -18.6143 N   0  0  0  0  0  0  0  0  0  0  0  0
   21.1951   -6.2279  -17.5084 C   0  0  0  0  0  0  0  0  0  0  0  0
   20.0864   -6.2352  -16.8712 O   0  0  0  0  0  0  0  0  0  0  0  0
   22.2473   -5.4454  -17.0252 N   0  0  0  0  0  0  0  0  0  0  0  0
   22.1447   -4.8019  -15.7324 C   0  0  1  0  0  0  0  0  0  0  0  0
   23.1998   -5.3366  -14.7793 C   0  0  0  0  0  0  0  0  0  0  0  0
   23.0081   -6.7444  -14.4049 C   0  0  0  0  0  0  0  0  0  0  0  0
   22.0127   -7.1499  -13.5107 C   0  0  0  0  0  0  0  0  0  0  0  0
   21.8307   -8.4707  -13.1751 C   0  0  0  0  0  0  0  0  0  0  0  0
   22.6289   -9.4524  -13.7119 C   0  0  0  0  0  0  0  0  0  0  0  0
   23.6165   -9.0802  -14.5945 C   0  0  0  0  0  0  0  0  0  0  0  0
   23.7915   -7.7552  -14.9252 C   0  0  0  0  0  0  0  0  0  0  0  0
   22.1093   -3.3415  -15.8265 C   0  0  0  0  0  0  0  0  0  0  0  0
   21.9646   -2.6604  -14.7892 O   0  0  0  0  0  0  0  0  0  0  0  0
   22.2298   -2.6518  -17.0261 O   0  0  0  0  0  0  0  0  0  0  0  0
  2  1  1  6
  2  3  1  0
  4  3  1  0
  4  8  1  0
  5  6  1  0
  5  4  2  0
  6  7  1  0
  7  8  2  0
  9 10  2  0
  9  2  1  0
 11 12  1  0
 12 14  1  0
 13 12  2  0
 15 14  1  6
 15 16  1  0
 16  9  1  0
 17 19  1  0
 17 15  1  0
 18 17  2  0
 20 19  1  0
 20 28  1  0
 20 21  1  1
 22 23  2  0
 22 21  1  0
 24 23  1  0
 25 24  2  0
 26 25  1  0
 26 27  2  0
 27 22  1  0
 28 30  1  0
 29 28  2  0
M  END
$$$$
