HNF.pdb
     RDKit          3D

 30 31  0  0  1  0  0  0  0  0999 V2000
   24.9436  -15.7188  -18.5281 N   0  0  0  0  0  0  0  0  0  0  0  0
   25.8045  -16.5967  -17.7547 C   0  0  1  0  0  0  0  0  0  0  0  0
   27.0341  -15.7849  -17.3886 C   0  0  0  0  0  0  0  0  0  0  0  0
   27.9217  -15.5252  -18.5244 C   0  0  0  0  0  0  0  0  0  0  0  0
   28.8383  -16.4097  -19.0694 C   0  0  0  0  0  0  0  0  0  0  0  0
   29.4889  -15.8289  -20.0921 N   0  0  0  0  0  0  0  0  0  0  0  0
   28.9842  -14.5940  -20.1860 C   0  0  0  0  0  0  0  0  0  0  0  0
   28.0391  -14.3942  -19.2494 N   0  0  0  0  0  0  0  0  0  0  0  0
   25.0505  -17.0023  -16.5409 C   0  0  0  0  0  0  0  0  0  0  0  0
   24.1992  -16.2601  -15.9659 O   0  0  0  0  0  0  0  0  0  0  0  0
   21.6778  -18.6448  -13.0276 N   0  0  0  0  0  0  0  0  0  0  0  0
   22.2448  -19.4545  -14.0369 C   0  0  0  0  0  0  0  0  0  0  0  0
   22.1361  -20.6890  -13.9614 O   0  0  0  0  0  0  0  0  0  0  0  0
   22.9552  -18.8176  -15.1629 C   0  0  0  0  0  0  0  0  0  0  0  0
   24.4276  -18.7578  -14.8537 C   0  0  2  0  0  0  0  0  0  0  0  0
   25.2306  -18.2744  -15.9226 N   0  0  0  0  0  0  0  0  0  0  0  0
   24.9008  -20.0573  -14.3068 C   0  0  0  0  0  0  0  0  0  0  0  0
   24.9216  -21.0503  -15.1121 O   0  0  0  0  0  0  0  0  0  0  0  0
   25.3162  -20.2492  -12.9863 N   0  0  0  0  0  0  0  0  0  0  0  0
   25.9780  -21.4775  -12.6002 C   0  0  1  0  0  0  0  0  0  0  0  0
   27.0356  -21.2104  -11.5431 C   0  0  0  0  0  0  0  0  0  0  0  0
   26.4926  -20.7501  -10.2578 C   0  0  0  0  0  0  0  0  0  0  0  0
   26.4045  -21.5878   -9.1420 C   0  0  0  0  0  0  0  0  0  0  0  0
   25.9073  -21.1466   -7.9385 C   0  0  0  0  0  0  0  0  0  0  0  0
   25.4737  -19.8514   -7.7857 C   0  0  0  0  0  0  0  0  0  0  0  0
   25.5492  -19.0059   -8.8686 C   0  0  0  0  0  0  0  0  0  0  0  0
   26.0487  -19.4564  -10.0699 C   0  0  0  0  0  0  0  0  0  0  0  0
   25.0375  -22.5428  -12.2488 C   0  0  0  0  0  0  0  0  0  0  0  0
   23.8438  -22.2584  -12.0138 O   0  0  0  0  0  0  0  0  0  0  0  0
   25.3999  -23.8806  -12.1591 O   0  0  0  0  0  0  0  0  0  0  0  0
  2  1  1  6
  2  3  1  0
  4  3  1  0
  4  8  1  0
  5  6  1  0
  5  4  2  0
  6  7  1  0
  7  8  2  0
  9 10  2  0
  9  2  1  0
 11 12  1  0
 12 14  1  0
 13 12  2  0
 15 14  1  6
 15 16  1  0
 16  9  1  0
 17 19  1  0
 17 15  1  0
 18 17  2  0
 20 19  1  0
 20 28  1  0
 20 21  1  1
 22 23  2  0
 22 21  1  0
 24 23  1  0
 25 24  2  0
 26 25  1  0
 26 27  2  0
 27 22  1  0
 28 30  1  0
 29 28  2  0
M  END
$$$$
