HNF.pdb
     RDKit          3D

 30 31  0  0  1  0  0  0  0  0999 V2000
   29.4050  -21.8518  -17.3691 N   0  0  0  0  0  0  0  0  0  0  0  0
   28.8047  -23.0284  -16.7646 C   0  0  1  0  0  0  0  0  0  0  0  0
   27.3282  -22.9902  -17.1158 C   0  0  0  0  0  0  0  0  0  0  0  0
   26.6130  -21.8644  -16.5105 C   0  0  0  0  0  0  0  0  0  0  0  0
   25.5610  -21.9469  -15.6128 C   0  0  0  0  0  0  0  0  0  0  0  0
   25.1412  -20.7146  -15.2786 N   0  0  0  0  0  0  0  0  0  0  0  0
   25.9228  -19.8700  -15.9600 C   0  0  0  0  0  0  0  0  0  0  0  0
   26.8148  -20.5457  -16.7071 N   0  0  0  0  0  0  0  0  0  0  0  0
   29.4651  -24.2190  -17.3583 C   0  0  0  0  0  0  0  0  0  0  0  0
   29.8833  -24.2634  -18.5539 O   0  0  0  0  0  0  0  0  0  0  0  0
   31.4852  -25.5884  -14.9137 N   0  0  0  0  0  0  0  0  0  0  0  0
   32.3774  -25.8789  -15.9699 C   0  0  0  0  0  0  0  0  0  0  0  0
   33.5941  -25.6902  -15.8100 O   0  0  0  0  0  0  0  0  0  0  0  0
   31.8464  -26.4022  -17.2437 C   0  0  0  0  0  0  0  0  0  0  0  0
   30.3529  -26.5596  -17.1342 C   0  0  2  0  0  0  0  0  0  0  0  0
   29.6808  -25.4183  -16.6178 N   0  0  0  0  0  0  0  0  0  0  0  0
   30.0103  -27.8160  -16.4160 C   0  0  0  0  0  0  0  0  0  0  0  0
   29.5216  -27.6952  -15.2406 O   0  0  0  0  0  0  0  0  0  0  0  0
   30.1894  -29.0970  -16.9452 N   0  0  0  0  0  0  0  0  0  0  0  0
   29.2194  -30.1385  -16.6806 C   0  0  1  0  0  0  0  0  0  0  0  0
   27.8126  -29.6553  -16.9884 C   0  0  0  0  0  0  0  0  0  0  0  0
   26.7766  -30.6825  -16.8137 C   0  0  0  0  0  0  0  0  0  0  0  0
   26.2604  -31.4122  -17.8887 C   0  0  0  0  0  0  0  0  0  0  0  0
   25.3005  -32.3812  -17.7161 C   0  0  0  0  0  0  0  0  0  0  0  0
   24.8071  -32.6719  -16.4667 C   0  0  0  0  0  0  0  0  0  0  0  0
   25.2980  -31.9680  -15.3912 C   0  0  0  0  0  0  0  0  0  0  0  0
   26.2595  -30.9996  -15.5734 C   0  0  0  0  0  0  0  0  0  0  0  0
   29.5662  -31.4115  -17.3147 C   0  0  0  0  0  0  0  0  0  0  0  0
   30.0930  -31.4124  -18.4476 O   0  0  0  0  0  0  0  0  0  0  0  0
   29.3401  -32.6461  -16.7197 O   0  0  0  0  0  0  0  0  0  0  0  0
  2  1  1  6
  2  3  1  0
  4  3  1  0
  4  8  1  0
  5  6  1  0
  5  4  2  0
  6  7  1  0
  7  8  2  0
  9 10  2  0
  9  2  1  0
 11 12  1  0
 12 14  1  0
 13 12  2  0
 15 14  1  1
 15 16  1  0
 16  9  1  0
 17 19  1  0
 17 15  1  0
 18 17  2  0
 20 19  1  0
 20 28  1  0
 20 21  1  6
 22 23  2  0
 22 21  1  0
 24 23  1  0
 25 24  2  0
 26 25  1  0
 26 27  2  0
 27 22  1  0
 28 30  1  0
 29 28  2  0
M  END
$$$$
