HNF.pdb
     RDKit          3D

 30 31  0  0  1  0  0  0  0  0999 V2000
   19.8775  -11.3016  -19.3141 N   0  0  0  0  0  0  0  0  0  0  0  0
   20.9184  -10.8733  -18.3958 C   0  0  1  0  0  0  0  0  0  0  0  0
   22.1185  -10.4974  -19.2464 C   0  0  0  0  0  0  0  0  0  0  0  0
   22.7732  -11.6479  -19.8732 C   0  0  0  0  0  0  0  0  0  0  0  0
   24.1372  -11.8291  -20.0348 C   0  0  0  0  0  0  0  0  0  0  0  0
   24.3773  -12.9926  -20.6636 N   0  0  0  0  0  0  0  0  0  0  0  0
   23.1760  -13.5336  -20.8926 C   0  0  0  0  0  0  0  0  0  0  0  0
   22.1986  -12.7370  -20.4230 N   0  0  0  0  0  0  0  0  0  0  0  0
   20.3993   -9.6962  -17.6533 C   0  0  0  0  0  0  0  0  0  0  0  0
   19.7797   -8.7385  -18.2057 O   0  0  0  0  0  0  0  0  0  0  0  0
   17.6812  -10.7323  -14.1698 N   0  0  0  0  0  0  0  0  0  0  0  0
   18.0157   -9.4539  -14.6693 C   0  0  0  0  0  0  0  0  0  0  0  0
   17.2317   -8.8752  -15.4387 O   0  0  0  0  0  0  0  0  0  0  0  0
   19.2909   -8.8295  -14.2663 C   0  0  0  0  0  0  0  0  0  0  0  0
   20.0701   -8.4479  -15.4970 C   0  0  2  0  0  0  0  0  0  0  0  0
   20.5615   -9.5531  -16.2440 N   0  0  0  0  0  0  0  0  0  0  0  0
   21.1231   -7.4525  -15.1620 C   0  0  0  0  0  0  0  0  0  0  0  0
   22.3375   -7.8196  -15.3219 O   0  0  0  0  0  0  0  0  0  0  0  0
   20.8633   -6.1625  -14.6914 N   0  0  0  0  0  0  0  0  0  0  0  0
   21.9383   -5.2014  -14.5640 C   0  0  1  0  0  0  0  0  0  0  0  0
   22.7329   -5.1075  -15.8553 C   0  0  0  0  0  0  0  0  0  0  0  0
   22.0446   -4.3770  -16.9283 C   0  0  0  0  0  0  0  0  0  0  0  0
   21.8064   -3.0011  -16.8607 C   0  0  0  0  0  0  0  0  0  0  0  0
   21.1733   -2.3217  -17.8745 C   0  0  0  0  0  0  0  0  0  0  0  0
   20.7464   -2.9769  -19.0048 C   0  0  0  0  0  0  0  0  0  0  0  0
   20.9682   -4.3317  -19.0966 C   0  0  0  0  0  0  0  0  0  0  0  0
   21.6033   -5.0038  -18.0766 C   0  0  0  0  0  0  0  0  0  0  0  0
   21.4861   -3.9094  -14.0452 C   0  0  0  0  0  0  0  0  0  0  0  0
   20.2626   -3.6891  -13.9213 O   0  0  0  0  0  0  0  0  0  0  0  0
   22.3545   -2.8909  -13.6739 O   0  0  0  0  0  0  0  0  0  0  0  0
  2  1  1  6
  2  3  1  0
  4  3  1  0
  4  8  1  0
  5  6  1  0
  5  4  2  0
  6  7  1  0
  7  8  2  0
  9 10  2  0
  9  2  1  0
 11 12  1  0
 12 14  1  0
 13 12  2  0
 15 14  1  1
 15 16  1  0
 16  9  1  0
 17 19  1  0
 17 15  1  0
 18 17  2  0
 20 19  1  0
 20 28  1  0
 20 21  1  6
 22 23  2  0
 22 21  1  0
 24 23  1  0
 25 24  2  0
 26 25  1  0
 26 27  2  0
 27 22  1  0
 28 30  1  0
 29 28  2  0
M  END
$$$$
