HNF.pdb
     RDKit          3D

 30 31  0  0  1  0  0  0  0  0999 V2000
   17.0995  -11.8792  -18.8148 N   0  0  0  0  0  0  0  0  0  0  0  0
   18.1882  -12.0162  -17.8629 C   0  0  1  0  0  0  0  0  0  0  0  0
   19.1780  -12.9916  -18.4744 C   0  0  0  0  0  0  0  0  0  0  0  0
   18.6508  -14.3516  -18.6079 C   0  0  0  0  0  0  0  0  0  0  0  0
   18.5011  -15.2780  -17.5886 C   0  0  0  0  0  0  0  0  0  0  0  0
   18.0006  -16.4257  -18.0774 N   0  0  0  0  0  0  0  0  0  0  0  0
   17.8386  -16.2191  -19.3887 C   0  0  0  0  0  0  0  0  0  0  0  0
   18.2253  -14.9751  -19.7253 N   0  0  0  0  0  0  0  0  0  0  0  0
   18.7985  -10.6732  -17.6895 C   0  0  0  0  0  0  0  0  0  0  0  0
   18.9466   -9.8446  -18.6370 O   0  0  0  0  0  0  0  0  0  0  0  0
   16.6901   -7.3373  -15.3749 N   0  0  0  0  0  0  0  0  0  0  0  0
   17.9595   -7.4112  -15.9906 C   0  0  0  0  0  0  0  0  0  0  0  0
   18.1140   -6.9394  -17.1285 O   0  0  0  0  0  0  0  0  0  0  0  0
   19.0788   -8.0474  -15.2689 C   0  0  0  0  0  0  0  0  0  0  0  0
   19.8485   -8.9269  -16.2182 C   0  0  2  0  0  0  0  0  0  0  0  0
   19.2706  -10.2089  -16.4267 N   0  0  0  0  0  0  0  0  0  0  0  0
   21.2828   -8.9870  -15.8298 C   0  0  0  0  0  0  0  0  0  0  0  0
   21.6297   -9.9338  -15.0433 O   0  0  0  0  0  0  0  0  0  0  0  0
   22.2539   -8.0830  -16.2687 N   0  0  0  0  0  0  0  0  0  0  0  0
   23.6479   -8.2909  -15.9378 C   0  0  1  0  0  0  0  0  0  0  0  0
   24.0903   -9.6917  -16.3245 C   0  0  0  0  0  0  0  0  0  0  0  0
   25.5244   -9.9416  -16.1248 C   0  0  0  0  0  0  0  0  0  0  0  0
   26.4757   -9.6565  -17.1089 C   0  0  0  0  0  0  0  0  0  0  0  0
   27.8175   -9.8808  -16.9101 C   0  0  0  0  0  0  0  0  0  0  0  0
   28.2788  -10.3990  -15.7238 C   0  0  0  0  0  0  0  0  0  0  0  0
   27.3633  -10.6888  -14.7384 C   0  0  0  0  0  0  0  0  0  0  0  0
   26.0215  -10.4607  -14.9461 C   0  0  0  0  0  0  0  0  0  0  0  0
   24.5166   -7.2280  -16.4461 C   0  0  0  0  0  0  0  0  0  0  0  0
   25.5783   -6.9593  -15.8447 O   0  0  0  0  0  0  0  0  0  0  0  0
   24.2257   -6.4837  -17.5821 O   0  0  0  0  0  0  0  0  0  0  0  0
  2  1  1  6
  2  3  1  0
  4  3  1  0
  4  8  1  0
  5  6  1  0
  5  4  2  0
  6  7  1  0
  7  8  2  0
  9 10  2  0
  9  2  1  0
 11 12  1  0
 12 14  1  0
 13 12  2  0
 15 14  1  1
 15 16  1  0
 16  9  1  0
 17 19  1  0
 17 15  1  0
 18 17  2  0
 20 19  1  0
 20 28  1  0
 20 21  1  6
 22 23  2  0
 22 21  1  0
 24 23  1  0
 25 24  2  0
 26 25  1  0
 26 27  2  0
 27 22  1  0
 28 30  1  0
 29 28  2  0
M  END
$$$$
