HNF.pdb
     RDKit          3D

 30 31  0  0  1  0  0  0  0  0999 V2000
   27.9595  -19.7841  -16.4686 N   0  0  0  0  0  0  0  0  0  0  0  0
   28.3541  -18.7025  -15.5827 C   0  0  1  0  0  0  0  0  0  0  0  0
   28.2983  -17.4273  -16.4048 C   0  0  0  0  0  0  0  0  0  0  0  0
   29.2108  -17.4308  -17.5504 C   0  0  0  0  0  0  0  0  0  0  0  0
   30.4623  -16.8389  -17.6053 C   0  0  0  0  0  0  0  0  0  0  0  0
   31.0110  -17.0301  -18.8173 N   0  0  0  0  0  0  0  0  0  0  0  0
   30.1120  -17.7344  -19.5132 C   0  0  0  0  0  0  0  0  0  0  0  0
   29.0218  -17.9845  -18.7654 N   0  0  0  0  0  0  0  0  0  0  0  0
   27.3751  -18.6627  -14.4664 C   0  0  0  0  0  0  0  0  0  0  0  0
   27.3033  -17.7108  -13.6328 O   0  0  0  0  0  0  0  0  0  0  0  0
   24.9524  -21.4476  -15.1894 N   0  0  0  0  0  0  0  0  0  0  0  0
   23.8497  -20.6361  -14.8409 C   0  0  0  0  0  0  0  0  0  0  0  0
   22.7609  -20.8085  -15.4120 O   0  0  0  0  0  0  0  0  0  0  0  0
   24.0126  -19.5989  -13.8036 C   0  0  0  0  0  0  0  0  0  0  0  0
   25.4128  -19.6596  -13.2532 C   0  0  2  0  0  0  0  0  0  0  0  0
   26.4297  -19.7069  -14.2455 N   0  0  0  0  0  0  0  0  0  0  0  0
   25.5309  -20.7430  -12.2412 C   0  0  0  0  0  0  0  0  0  0  0  0
   25.2627  -21.9308  -12.6318 O   0  0  0  0  0  0  0  0  0  0  0  0
   25.9117  -20.5384  -10.9123 N   0  0  0  0  0  0  0  0  0  0  0  0
   25.1161  -21.0833   -9.8325 C   0  0  1  0  0  0  0  0  0  0  0  0
   25.4658  -20.4138   -8.5146 C   0  0  0  0  0  0  0  0  0  0  0  0
   26.8950  -20.4675   -8.1782 C   0  0  0  0  0  0  0  0  0  0  0  0
   27.4305  -19.7806   -7.0845 C   0  0  0  0  0  0  0  0  0  0  0  0
   28.7669  -19.8460   -6.7679 C   0  0  0  0  0  0  0  0  0  0  0  0
   29.6356  -20.5973   -7.5227 C   0  0  0  0  0  0  0  0  0  0  0  0
   29.1344  -21.2831   -8.6051 C   0  0  0  0  0  0  0  0  0  0  0  0
   27.7947  -21.2121   -8.9145 C   0  0  0  0  0  0  0  0  0  0  0  0
   23.6837  -21.0976  -10.1341 C   0  0  0  0  0  0  0  0  0  0  0  0
   23.1769  -20.1448  -10.7635 O   0  0  0  0  0  0  0  0  0  0  0  0
   22.8351  -22.1295   -9.7545 O   0  0  0  0  0  0  0  0  0  0  0  0
  2  1  1  6
  2  3  1  0
  4  3  1  0
  4  8  1  0
  5  6  1  0
  5  4  2  0
  6  7  1  0
  7  8  2  0
  9 10  2  0
  9  2  1  0
 11 12  1  0
 12 14  1  0
 13 12  2  0
 15 14  1  6
 15 16  1  0
 16  9  1  0
 17 19  1  0
 17 15  1  0
 18 17  2  0
 20 19  1  0
 20 28  1  0
 20 21  1  1
 22 23  2  0
 22 21  1  0
 24 23  1  0
 25 24  2  0
 26 25  1  0
 26 27  2  0
 27 22  1  0
 28 30  1  0
 29 28  2  0
M  END
$$$$
