HNF.pdb
     RDKit          3D

 30 31  0  0  1  0  0  0  0  0999 V2000
   18.8222  -11.2812  -14.9061 N   0  0  0  0  0  0  0  0  0  0  0  0
   19.4287  -11.2140  -16.2244 C   0  0  1  0  0  0  0  0  0  0  0  0
   18.5299  -12.0079  -17.1555 C   0  0  0  0  0  0  0  0  0  0  0  0
   18.3452  -13.4007  -16.7418 C   0  0  0  0  0  0  0  0  0  0  0  0
   17.1618  -13.9802  -16.3135 C   0  0  0  0  0  0  0  0  0  0  0  0
   17.3662  -15.2716  -16.0019 N   0  0  0  0  0  0  0  0  0  0  0  0
   18.6639  -15.4975  -16.2331 C   0  0  0  0  0  0  0  0  0  0  0  0
   19.2686  -14.3814  -16.6792 N   0  0  0  0  0  0  0  0  0  0  0  0
   19.4770   -9.7829  -16.6190 C   0  0  0  0  0  0  0  0  0  0  0  0
   19.4463   -9.3878  -17.8228 O   0  0  0  0  0  0  0  0  0  0  0  0
   17.4542   -5.2298  -15.9539 N   0  0  0  0  0  0  0  0  0  0  0  0
   16.6785   -6.4070  -16.0451 C   0  0  0  0  0  0  0  0  0  0  0  0
   15.4599   -6.3190  -16.2655 O   0  0  0  0  0  0  0  0  0  0  0  0
   17.3317   -7.7199  -15.8775 C   0  0  0  0  0  0  0  0  0  0  0  0
   18.8180   -7.5232  -15.7380 C   0  0  2  0  0  0  0  0  0  0  0  0
   19.5630   -8.7314  -15.6598 N   0  0  0  0  0  0  0  0  0  0  0  0
   19.1191   -6.5766  -14.6312 C   0  0  0  0  0  0  0  0  0  0  0  0
   18.5223   -6.7793  -13.5185 O   0  0  0  0  0  0  0  0  0  0  0  0
   20.0016   -5.4983  -14.7381 N   0  0  0  0  0  0  0  0  0  0  0  0
   21.1379   -5.3936  -13.8473 C   0  0  1  0  0  0  0  0  0  0  0  0
   21.5519   -6.7638  -13.3388 C   0  0  0  0  0  0  0  0  0  0  0  0
   22.5451   -7.4397  -14.1847 C   0  0  0  0  0  0  0  0  0  0  0  0
   23.2476   -6.7703  -15.1910 C   0  0  0  0  0  0  0  0  0  0  0  0
   24.1852   -7.4062  -15.9701 C   0  0  0  0  0  0  0  0  0  0  0  0
   24.4699   -8.7382  -15.7866 C   0  0  0  0  0  0  0  0  0  0  0  0
   23.7922   -9.4208  -14.8028 C   0  0  0  0  0  0  0  0  0  0  0  0
   22.8553   -8.7758  -14.0272 C   0  0  0  0  0  0  0  0  0  0  0  0
   22.2358   -4.6108  -14.4173 C   0  0  0  0  0  0  0  0  0  0  0  0
   23.2276   -4.3341  -13.7097 O   0  0  0  0  0  0  0  0  0  0  0  0
   22.2417   -4.1469  -15.7264 O   0  0  0  0  0  0  0  0  0  0  0  0
  2  1  1  1
  2  3  1  0
  4  3  1  0
  4  8  1  0
  5  6  1  0
  5  4  2  0
  6  7  1  0
  7  8  2  0
  9 10  2  0
  9  2  1  0
 11 12  1  0
 12 14  1  0
 13 12  2  0
 15 14  1  1
 15 16  1  0
 16  9  1  0
 17 19  1  0
 17 15  1  0
 18 17  2  0
 20 19  1  0
 20 28  1  0
 20 21  1  6
 22 23  2  0
 22 21  1  0
 24 23  1  0
 25 24  2  0
 26 25  1  0
 26 27  2  0
 27 22  1  0
 28 30  1  0
 29 28  2  0
M  END
$$$$
