HNF.pdb
     RDKit          3D

 30 31  0  0  1  0  0  0  0  0999 V2000
   20.0485  -12.3833  -18.9312 N   0  0  0  0  0  0  0  0  0  0  0  0
   19.5645  -11.6006  -17.8073 C   0  0  1  0  0  0  0  0  0  0  0  0
   20.3010  -12.1049  -16.5792 C   0  0  0  0  0  0  0  0  0  0  0  0
   19.8784  -13.4407  -16.1525 C   0  0  0  0  0  0  0  0  0  0  0  0
   20.6777  -14.5699  -16.0767 C   0  0  0  0  0  0  0  0  0  0  0  0
   19.9528  -15.6218  -15.6590 N   0  0  0  0  0  0  0  0  0  0  0  0
   18.7130  -15.1554  -15.4751 C   0  0  0  0  0  0  0  0  0  0  0  0
   18.6503  -13.8436  -15.7677 N   0  0  0  0  0  0  0  0  0  0  0  0
   19.8933  -10.1784  -18.0818 C   0  0  0  0  0  0  0  0  0  0  0  0
   20.9044   -9.8110  -18.7517 O   0  0  0  0  0  0  0  0  0  0  0  0
   19.8543   -5.2420  -18.7251 N   0  0  0  0  0  0  0  0  0  0  0  0
   18.5835   -5.7332  -19.0986 C   0  0  0  0  0  0  0  0  0  0  0  0
   17.8357   -5.0255  -19.7925 O   0  0  0  0  0  0  0  0  0  0  0  0
   18.1687   -7.0792  -18.6575 C   0  0  0  0  0  0  0  0  0  0  0  0
   19.3094   -7.7386  -17.9287 C   0  0  2  0  0  0  0  0  0  0  0  0
   19.0851   -9.1047  -17.6052 N   0  0  0  0  0  0  0  0  0  0  0  0
   19.7259   -6.9203  -16.7588 C   0  0  0  0  0  0  0  0  0  0  0  0
   18.9503   -6.9283  -15.7421 O   0  0  0  0  0  0  0  0  0  0  0  0
   20.8960   -6.1577  -16.7103 N   0  0  0  0  0  0  0  0  0  0  0  0
   21.2861   -5.4962  -15.4831 C   0  0  1  0  0  0  0  0  0  0  0  0
   22.6448   -5.9878  -15.0144 C   0  0  0  0  0  0  0  0  0  0  0  0
   22.7117   -7.4390  -14.7947 C   0  0  0  0  0  0  0  0  0  0  0  0
   21.9477   -8.0816  -13.8159 C   0  0  0  0  0  0  0  0  0  0  0  0
   22.0057   -9.4419  -13.6247 C   0  0  0  0  0  0  0  0  0  0  0  0
   22.8256  -10.2294  -14.3970 C   0  0  0  0  0  0  0  0  0  0  0  0
   23.5886   -9.6219  -15.3675 C   0  0  0  0  0  0  0  0  0  0  0  0
   23.5239   -8.2591  -15.5522 C   0  0  0  0  0  0  0  0  0  0  0  0
   21.1727   -4.0389  -15.5630 C   0  0  0  0  0  0  0  0  0  0  0  0
   20.8608   -3.5036  -16.6479 O   0  0  0  0  0  0  0  0  0  0  0  0
   21.3956   -3.1966  -14.4814 O   0  0  0  0  0  0  0  0  0  0  0  0
  2  1  1  6
  2  3  1  0
  4  3  1  0
  4  8  1  0
  5  6  1  0
  5  4  2  0
  6  7  1  0
  7  8  2  0
  9 10  2  0
  9  2  1  0
 11 12  1  0
 12 14  1  0
 13 12  2  0
 15 14  1  1
 15 16  1  0
 16  9  1  0
 17 19  1  0
 17 15  1  0
 18 17  2  0
 20 19  1  0
 20 28  1  0
 20 21  1  6
 22 23  2  0
 22 21  1  0
 24 23  1  0
 25 24  2  0
 26 25  1  0
 26 27  2  0
 27 22  1  0
 28 30  1  0
 29 28  2  0
M  END
$$$$
