HNF.pdb
     RDKit          3D

 30 31  0  0  1  0  0  0  0  0999 V2000
   22.2372  -17.9403  -20.5458 N   0  0  0  0  0  0  0  0  0  0  0  0
   22.7317  -17.4939  -19.2549 C   0  0  1  0  0  0  0  0  0  0  0  0
   21.6627  -16.5873  -18.6717 C   0  0  0  0  0  0  0  0  0  0  0  0
   21.5390  -15.3059  -19.3701 C   0  0  0  0  0  0  0  0  0  0  0  0
   22.2499  -14.1489  -19.0954 C   0  0  0  0  0  0  0  0  0  0  0  0
   21.8679  -13.1638  -19.9262 N   0  0  0  0  0  0  0  0  0  0  0  0
   20.9281  -13.6992  -20.7126 C   0  0  0  0  0  0  0  0  0  0  0  0
   20.7176  -14.9887  -20.3915 N   0  0  0  0  0  0  0  0  0  0  0  0
   22.9274  -18.7012  -18.4122 C   0  0  0  0  0  0  0  0  0  0  0  0
   22.0483  -19.6024  -18.2665 O   0  0  0  0  0  0  0  0  0  0  0  0
   24.6543  -22.3491  -15.4905 N   0  0  0  0  0  0  0  0  0  0  0  0
   25.8375  -21.7938  -16.0268 C   0  0  0  0  0  0  0  0  0  0  0  0
   26.9095  -22.4080  -15.9048 O   0  0  0  0  0  0  0  0  0  0  0  0
   25.7768  -20.4939  -16.7232 C   0  0  0  0  0  0  0  0  0  0  0  0
   24.3409  -20.0548  -16.8354 C   0  0  2  0  0  0  0  0  0  0  0  0
   24.1354  -18.9402  -17.6934 N   0  0  0  0  0  0  0  0  0  0  0  0
   23.7419  -19.8738  -15.4862 C   0  0  0  0  0  0  0  0  0  0  0  0
   24.3745  -19.1205  -14.6692 O   0  0  0  0  0  0  0  0  0  0  0  0
   22.5485  -20.4702  -15.0702 N   0  0  0  0  0  0  0  0  0  0  0  0
   21.9497  -20.1004  -13.8051 C   0  0  1  0  0  0  0  0  0  0  0  0
   21.9372  -18.5909  -13.6357 C   0  0  0  0  0  0  0  0  0  0  0  0
   20.6026  -17.9876  -13.7538 C   0  0  0  0  0  0  0  0  0  0  0  0
   20.0569  -17.6186  -14.9870 C   0  0  0  0  0  0  0  0  0  0  0  0
   18.8020  -17.0667  -15.0912 C   0  0  0  0  0  0  0  0  0  0  0  0
   18.0287  -16.8548  -13.9749 C   0  0  0  0  0  0  0  0  0  0  0  0
   18.5423  -17.2089  -12.7485 C   0  0  0  0  0  0  0  0  0  0  0  0
   19.7998  -17.7613  -12.6536 C   0  0  0  0  0  0  0  0  0  0  0  0
   20.6502  -20.7374  -13.5845 C   0  0  0  0  0  0  0  0  0  0  0  0
   20.0054  -21.1764  -14.5604 O   0  0  0  0  0  0  0  0  0  0  0  0
   20.0781  -20.8867  -12.3277 O   0  0  0  0  0  0  0  0  0  0  0  0
  2  1  1  6
  2  3  1  0
  4  3  1  0
  4  8  1  0
  5  6  1  0
  5  4  2  0
  6  7  1  0
  7  8  2  0
  9 10  2  0
  9  2  1  0
 11 12  1  0
 12 14  1  0
 13 12  2  0
 15 14  1  1
 15 16  1  0
 16  9  1  0
 17 19  1  0
 17 15  1  0
 18 17  2  0
 20 19  1  0
 20 28  1  0
 20 21  1  6
 22 23  2  0
 22 21  1  0
 24 23  1  0
 25 24  2  0
 26 25  1  0
 26 27  2  0
 27 22  1  0
 28 30  1  0
 29 28  2  0
M  END
$$$$
