HNF.pdb
     RDKit          3D

 30 31  0  0  1  0  0  0  0  0999 V2000
   26.1261  -22.2134  -19.7751 N   0  0  0  0  0  0  0  0  0  0  0  0
   25.5002  -21.3097  -18.8254 C   0  0  1  0  0  0  0  0  0  0  0  0
   24.5850  -20.4032  -19.6288 C   0  0  0  0  0  0  0  0  0  0  0  0
   25.2971  -19.3461  -20.3504 C   0  0  0  0  0  0  0  0  0  0  0  0
   25.9914  -18.2893  -19.7841 C   0  0  0  0  0  0  0  0  0  0  0  0
   26.5075  -17.5066  -20.7473 N   0  0  0  0  0  0  0  0  0  0  0  0
   26.1399  -18.0682  -21.9040 C   0  0  0  0  0  0  0  0  0  0  0  0
   25.4104  -19.1770  -21.6835 N   0  0  0  0  0  0  0  0  0  0  0  0
   24.7251  -22.1390  -17.8674 C   0  0  0  0  0  0  0  0  0  0  0  0
   24.2450  -23.2759  -18.1557 O   0  0  0  0  0  0  0  0  0  0  0  0
   23.9300  -25.1643  -15.8501 N   0  0  0  0  0  0  0  0  0  0  0  0
   25.2820  -24.8640  -15.5712 C   0  0  0  0  0  0  0  0  0  0  0  0
   26.1190  -25.7807  -15.5514 O   0  0  0  0  0  0  0  0  0  0  0  0
   25.6743  -23.4655  -15.3092 C   0  0  0  0  0  0  0  0  0  0  0  0
   24.4603  -22.5803  -15.4074 C   0  0  2  0  0  0  0  0  0  0  0  0
   24.4588  -21.7123  -16.5332 N   0  0  0  0  0  0  0  0  0  0  0  0
   24.2235  -21.8720  -14.1213 C   0  0  0  0  0  0  0  0  0  0  0  0
   25.0410  -20.9368  -13.8173 O   0  0  0  0  0  0  0  0  0  0  0  0
   23.1767  -22.1665  -13.2435 N   0  0  0  0  0  0  0  0  0  0  0  0
   22.9399  -21.3330  -12.0838 C   0  0  1  0  0  0  0  0  0  0  0  0
   24.1277  -21.3759  -11.1379 C   0  0  0  0  0  0  0  0  0  0  0  0
   25.3763  -20.8694  -11.7237 C   0  0  0  0  0  0  0  0  0  0  0  0
   25.5002  -19.5608  -12.1999 C   0  0  0  0  0  0  0  0  0  0  0  0
   26.6759  -19.0896  -12.7349 C   0  0  0  0  0  0  0  0  0  0  0  0
   27.7852  -19.8962  -12.8225 C   0  0  0  0  0  0  0  0  0  0  0  0
   27.6901  -21.1890  -12.3612 C   0  0  0  0  0  0  0  0  0  0  0  0
   26.5089  -21.6522  -11.8267 C   0  0  0  0  0  0  0  0  0  0  0  0
   22.5050  -19.9804  -12.4361 C   0  0  0  0  0  0  0  0  0  0  0  0
   22.4837  -19.6328  -13.6360 O   0  0  0  0  0  0  0  0  0  0  0  0
   22.1054  -19.0391  -11.4962 O   0  0  0  0  0  0  0  0  0  0  0  0
  2  1  1  6
  2  3  1  0
  4  3  1  0
  4  8  1  0
  5  6  1  0
  5  4  2  0
  6  7  1  0
  7  8  2  0
  9 10  2  0
  9  2  1  0
 11 12  1  0
 12 14  1  0
 13 12  2  0
 15 14  1  1
 15 16  1  0
 16  9  1  0
 17 19  1  0
 17 15  1  0
 18 17  2  0
 20 19  1  0
 20 28  1  0
 20 21  1  6
 22 23  2  0
 22 21  1  0
 24 23  1  0
 25 24  2  0
 26 25  1  0
 26 27  2  0
 27 22  1  0
 28 30  1  0
 29 28  2  0
M  END
$$$$
