HNF.pdb
     RDKit          3D

 30 31  0  0  1  0  0  0  0  0999 V2000
   25.6338  -17.5113  -17.2576 N   0  0  0  0  0  0  0  0  0  0  0  0
   26.4108  -18.1275  -16.1960 C   0  0  1  0  0  0  0  0  0  0  0  0
   27.2975  -17.0380  -15.6201 C   0  0  0  0  0  0  0  0  0  0  0  0
   28.4490  -16.7146  -16.4655 C   0  0  0  0  0  0  0  0  0  0  0  0
   29.4652  -17.5807  -16.8354 C   0  0  0  0  0  0  0  0  0  0  0  0
   30.3621  -16.9390  -17.6038 N   0  0  0  0  0  0  0  0  0  0  0  0
   29.9114  -15.6847  -17.7136 C   0  0  0  0  0  0  0  0  0  0  0  0
   28.7602  -15.5321  -17.0341 N   0  0  0  0  0  0  0  0  0  0  0  0
   25.4527  -18.6309  -15.1788 C   0  0  0  0  0  0  0  0  0  0  0  0
   24.4724  -17.9542  -14.7460 O   0  0  0  0  0  0  0  0  0  0  0  0
   21.6400  -21.5596  -12.9709 N   0  0  0  0  0  0  0  0  0  0  0  0
   22.9224  -22.1216  -13.1588 C   0  0  0  0  0  0  0  0  0  0  0  0
   23.2955  -23.0497  -12.4233 O   0  0  0  0  0  0  0  0  0  0  0  0
   23.7947  -21.5955  -14.2268 C   0  0  0  0  0  0  0  0  0  0  0  0
   24.6339  -20.4725  -13.6773 C   0  0  2  0  0  0  0  0  0  0  0  0
   25.5657  -19.9310  -14.6044 N   0  0  0  0  0  0  0  0  0  0  0  0
   25.2552  -20.8674  -12.3851 C   0  0  0  0  0  0  0  0  0  0  0  0
   26.4314  -21.3664  -12.4377 O   0  0  0  0  0  0  0  0  0  0  0  0
   24.6363  -20.7256  -11.1402 N   0  0  0  0  0  0  0  0  0  0  0  0
   25.3786  -20.9763   -9.9229 C   0  0  1  0  0  0  0  0  0  0  0  0
   26.7246  -20.2731   -9.9581 C   0  0  0  0  0  0  0  0  0  0  0  0
   27.4335  -20.2752   -8.6712 C   0  0  0  0  0  0  0  0  0  0  0  0
   27.3114  -19.2305   -7.7502 C   0  0  0  0  0  0  0  0  0  0  0  0
   27.9675  -19.2453   -6.5421 C   0  0  0  0  0  0  0  0  0  0  0  0
   28.7766  -20.2993   -6.1907 C   0  0  0  0  0  0  0  0  0  0  0  0
   28.9144  -21.3406   -7.0793 C   0  0  0  0  0  0  0  0  0  0  0  0
   28.2533  -21.3175   -8.2868 C   0  0  0  0  0  0  0  0  0  0  0  0
   24.5957  -20.7083   -8.7153 C   0  0  0  0  0  0  0  0  0  0  0  0
   23.6792  -19.8600   -8.7506 O   0  0  0  0  0  0  0  0  0  0  0  0
   24.8151  -21.3546   -7.5056 O   0  0  0  0  0  0  0  0  0  0  0  0
  2  1  1  6
  2  3  1  0
  4  3  1  0
  4  8  1  0
  5  6  1  0
  5  4  2  0
  6  7  1  0
  7  8  2  0
  9 10  2  0
  9  2  1  0
 11 12  1  0
 12 14  1  0
 13 12  2  0
 15 14  1  6
 15 16  1  0
 16  9  1  0
 17 19  1  0
 17 15  1  0
 18 17  2  0
 20 19  1  0
 20 28  1  0
 20 21  1  6
 22 23  2  0
 22 21  1  0
 24 23  1  0
 25 24  2  0
 26 25  1  0
 26 27  2  0
 27 22  1  0
 28 30  1  0
 29 28  2  0
M  END
$$$$
