HNF.pdb
     RDKit          3D

 30 31  0  0  1  0  0  0  0  0999 V2000
   25.6496  -17.5489  -16.4772 N   0  0  0  0  0  0  0  0  0  0  0  0
   26.6510  -18.0900  -15.5747 C   0  0  1  0  0  0  0  0  0  0  0  0
   27.3549  -16.9008  -14.9458 C   0  0  0  0  0  0  0  0  0  0  0  0
   28.1719  -16.1383  -15.8926 C   0  0  0  0  0  0  0  0  0  0  0  0
   29.3150  -16.5845  -16.5359 C   0  0  0  0  0  0  0  0  0  0  0  0
   29.8118  -15.6135  -17.3214 N   0  0  0  0  0  0  0  0  0  0  0  0
   28.9879  -14.5709  -17.1710 C   0  0  0  0  0  0  0  0  0  0  0  0
   27.9946  -14.8697  -16.3139 N   0  0  0  0  0  0  0  0  0  0  0  0
   25.9374  -18.8929  -14.5489 C   0  0  0  0  0  0  0  0  0  0  0  0
   24.7139  -18.7310  -14.2606 O   0  0  0  0  0  0  0  0  0  0  0  0
   24.3255  -22.8677  -12.0864 N   0  0  0  0  0  0  0  0  0  0  0  0
   25.0124  -23.2473  -13.2611 C   0  0  0  0  0  0  0  0  0  0  0  0
   24.8277  -24.3790  -13.7371 O   0  0  0  0  0  0  0  0  0  0  0  0
   25.9363  -22.2907  -13.9012 C   0  0  0  0  0  0  0  0  0  0  0  0
   25.8968  -20.9837  -13.1547 C   0  0  2  0  0  0  0  0  0  0  0  0
   26.5841  -19.9201  -13.8009 N   0  0  0  0  0  0  0  0  0  0  0  0
   26.3129  -21.1761  -11.7399 C   0  0  0  0  0  0  0  0  0  0  0  0
   27.5475  -21.4352  -11.5305 O   0  0  0  0  0  0  0  0  0  0  0  0
   25.4455  -21.0908  -10.6476 N   0  0  0  0  0  0  0  0  0  0  0  0
   25.9605  -21.1794   -9.2975 C   0  0  1  0  0  0  0  0  0  0  0  0
   27.1376  -20.2383   -9.1071 C   0  0  0  0  0  0  0  0  0  0  0  0
   27.6218  -20.1601   -7.7221 C   0  0  0  0  0  0  0  0  0  0  0  0
   28.6230  -21.0044   -7.2328 C   0  0  0  0  0  0  0  0  0  0  0  0
   29.0804  -20.9168   -5.9392 C   0  0  0  0  0  0  0  0  0  0  0  0
   28.5652  -19.9857   -5.0694 C   0  0  0  0  0  0  0  0  0  0  0  0
   27.5783  -19.1424   -5.5256 C   0  0  0  0  0  0  0  0  0  0  0  0
   27.1266  -19.2371   -6.8227 C   0  0  0  0  0  0  0  0  0  0  0  0
   24.9157  -21.0429   -8.2813 C   0  0  0  0  0  0  0  0  0  0  0  0
   25.0046  -21.6885   -7.2154 O   0  0  0  0  0  0  0  0  0  0  0  0
   23.8069  -20.2205   -8.4338 O   0  0  0  0  0  0  0  0  0  0  0  0
  2  1  1  6
  2  3  1  0
  4  3  1  0
  4  8  1  0
  5  6  1  0
  5  4  2  0
  6  7  1  0
  7  8  2  0
  9 10  2  0
  9  2  1  0
 11 12  1  0
 12 14  1  0
 13 12  2  0
 15 14  1  6
 15 16  1  0
 16  9  1  0
 17 19  1  0
 17 15  1  0
 18 17  2  0
 20 19  1  0
 20 28  1  0
 20 21  1  1
 22 23  2  0
 22 21  1  0
 24 23  1  0
 25 24  2  0
 26 25  1  0
 26 27  2  0
 27 22  1  0
 28 30  1  0
 29 28  2  0
M  END
$$$$
