DNV.pdb
     RDKit          3D

 24 23  0  0  1  0  0  0  0  0999 V2000
    8.6741  -18.1715   20.5840 N   0  0  0  0  0  0  0  0  0  0  0  0
    8.0982  -16.9006   20.0524 C   0  0  1  0  0  0  0  0  0  0  0  0
    7.1409  -17.3273   18.9788 C   0  0  0  0  0  0  0  0  0  0  0  0
    7.7229  -17.7953   17.7222 C   0  0  0  0  0  0  0  0  0  0  0  0
    8.9990  -17.8629   17.5693 O   0  0  0  0  0  0  0  0  0  0  0  0
    7.4167  -16.2973   21.2408 C   0  0  0  0  0  0  0  0  0  0  0  0
    6.7283  -15.2612   21.0514 O   0  0  0  0  0  0  0  0  0  0  0  0
    6.9970  -18.1920   16.6211 O   0  0  0  0  0  0  0  0  0  0  0  0
    8.8525  -18.1925   24.2096 N   0  0  0  0  0  0  0  0  0  0  0  0
    7.6187  -18.4790   24.8713 C   0  0  0  0  0  0  0  0  0  0  0  0
    7.5829  -19.5304   25.5657 O   0  0  0  0  0  0  0  0  0  0  0  0
    6.4947  -17.5382   24.6970 C   0  0  0  0  0  0  0  0  0  0  0  0
    6.9660  -16.4029   23.7687 C   0  0  2  0  0  0  0  0  0  0  0  0
    7.5030  -16.8214   22.5321 N   0  0  0  0  0  0  0  0  0  0  0  0
    7.7224  -15.4621   24.5651 C   0  0  0  0  0  0  0  0  0  0  0  0
    8.9712  -15.5063   24.5305 O   0  0  0  0  0  0  0  0  0  0  0  0
    6.7649  -11.6006   24.8439 C   0  0  0  0  0  0  0  0  0  0  0  0
    7.1334  -12.1394   26.2086 C   0  0  1  0  0  0  0  0  0  0  0  0
    5.8107  -12.3553   26.9262 C   0  0  0  0  0  0  0  0  0  0  0  0
    7.8396  -13.4468   26.1129 C   0  0  2  0  0  0  0  0  0  0  0  0
    7.1489  -14.4748   25.3976 N   0  0  0  0  0  0  0  0  0  0  0  0
    8.2016  -13.9603   27.4566 C   0  0  0  0  0  0  0  0  0  0  0  0
    7.6983  -15.1779   27.9317 O   0  0  0  0  0  0  0  0  0  0  0  0
    8.9736  -13.3420   28.2427 O   0  0  0  0  0  0  0  0  0  0  0  0
  2  1  1  1
  2  3  1  0
  3  4  1  0
  4  8  1  0
  4  5  2  0
  6  2  1  0
  7  6  2  0
  9 10  1  0
 10 12  1  0
 10 11  2  0
 13 12  1  1
 13 14  1  0
 13 15  1  0
 14  6  1  0
 15 21  1  0
 16 15  2  0
 18 17  1  6
 18 19  1  0
 20 18  1  0
 20 21  1  1
 22 23  1  0
 22 20  1  0
 24 22  2  0
M  END
$$$$
