DNV.pdb
     RDKit          3D

 24 23  0  0  1  0  0  0  0  0999 V2000
   10.6218  -18.5015   20.9458 N   0  0  0  0  0  0  0  0  0  0  0  0
   10.3463  -17.0341   20.9246 C   0  0  1  0  0  0  0  0  0  0  0  0
    9.4406  -16.8261   19.7466 C   0  0  0  0  0  0  0  0  0  0  0  0
   10.0263  -17.0163   18.4209 C   0  0  0  0  0  0  0  0  0  0  0  0
   11.2800  -17.2724   18.2825 O   0  0  0  0  0  0  0  0  0  0  0  0
    9.6705  -16.7826   22.2364 C   0  0  0  0  0  0  0  0  0  0  0  0
    9.2645  -15.6139   22.4656 O   0  0  0  0  0  0  0  0  0  0  0  0
    9.3276  -16.9420   17.2364 O   0  0  0  0  0  0  0  0  0  0  0  0
    7.2810  -17.4887   26.5909 N   0  0  0  0  0  0  0  0  0  0  0  0
    7.5189  -18.8414   26.1962 C   0  0  0  0  0  0  0  0  0  0  0  0
    7.0625  -19.7382   26.9555 O   0  0  0  0  0  0  0  0  0  0  0  0
    8.2688  -19.0862   24.9486 C   0  0  0  0  0  0  0  0  0  0  0  0
    8.8561  -17.7426   24.4768 C   0  0  2  0  0  0  0  0  0  0  0  0
    9.4680  -17.7677   23.2049 N   0  0  0  0  0  0  0  0  0  0  0  0
    9.5877  -17.1642   25.5820 C   0  0  0  0  0  0  0  0  0  0  0  0
   10.7674  -17.5262   25.7825 O   0  0  0  0  0  0  0  0  0  0  0  0
   10.0639  -13.3347   28.7447 C   0  0  0  0  0  0  0  0  0  0  0  0
    9.1747  -14.1240   27.8094 C   0  0  1  0  0  0  0  0  0  0  0  0
    9.0381  -13.2641   26.5633 C   0  0  0  0  0  0  0  0  0  0  0  0
    9.7943  -15.4221   27.4240 C   0  0  2  0  0  0  0  0  0  0  0  0
    9.0633  -16.2008   26.4728 N   0  0  0  0  0  0  0  0  0  0  0  0
   10.0698  -16.2598   28.6166 C   0  0  0  0  0  0  0  0  0  0  0  0
   11.1340  -15.9711   29.4803 O   0  0  0  0  0  0  0  0  0  0  0  0
    9.3733  -17.2685   28.9228 O   0  0  0  0  0  0  0  0  0  0  0  0
  2  1  1  1
  2  3  1  0
  3  4  1  0
  4  8  1  0
  4  5  2  0
  6  2  1  0
  7  6  2  0
  9 10  1  0
 10 12  1  0
 10 11  2  0
 13 12  1  1
 13 14  1  0
 13 15  1  0
 14  6  1  0
 15 21  1  0
 16 15  2  0
 18 17  1  1
 18 19  1  0
 20 18  1  0
 20 21  1  6
 22 23  1  0
 22 20  1  0
 24 22  2  0
M  END
$$$$
