DNV.pdb
     RDKit          3D

 24 23  0  0  1  0  0  0  0  0999 V2000
    9.0661  -18.3459   20.4207 N   0  0  0  0  0  0  0  0  0  0  0  0
    8.9071  -16.8917   20.1218 C   0  0  1  0  0  0  0  0  0  0  0  0
    8.1116  -16.8414   18.8506 C   0  0  0  0  0  0  0  0  0  0  0  0
    8.8297  -17.1267   17.6098 C   0  0  0  0  0  0  0  0  0  0  0  0
   10.0937  -17.3694   17.6182 O   0  0  0  0  0  0  0  0  0  0  0  0
    8.1556  -16.3678   21.3057 C   0  0  0  0  0  0  0  0  0  0  0  0
    7.6788  -15.2064   21.2232 O   0  0  0  0  0  0  0  0  0  0  0  0
    8.2530  -17.1613   16.3597 O   0  0  0  0  0  0  0  0  0  0  0  0
    5.7131  -18.4250   22.4669 N   0  0  0  0  0  0  0  0  0  0  0  0
    6.0704  -18.8473   23.7845 C   0  0  0  0  0  0  0  0  0  0  0  0
    5.5995  -19.9515   24.1692 O   0  0  0  0  0  0  0  0  0  0  0  0
    6.9508  -17.9746   24.5859 C   0  0  0  0  0  0  0  0  0  0  0  0
    7.3473  -16.7698   23.7119 C   0  0  2  0  0  0  0  0  0  0  0  0
    7.9573  -17.0951   22.4810 N   0  0  0  0  0  0  0  0  0  0  0  0
    7.9920  -15.7952   24.5639 C   0  0  0  0  0  0  0  0  0  0  0  0
    9.2400  -15.7859   24.6364 O   0  0  0  0  0  0  0  0  0  0  0  0
    7.7098  -11.6612   27.3720 C   0  0  0  0  0  0  0  0  0  0  0  0
    6.9668  -12.7703   26.6605 C   0  0  1  0  0  0  0  0  0  0  0  0
    6.3208  -12.1111   25.4525 C   0  0  0  0  0  0  0  0  0  0  0  0
    7.8917  -13.8346   26.1815 C   0  0  2  0  0  0  0  0  0  0  0  0
    7.3078  -14.8309   25.3378 N   0  0  0  0  0  0  0  0  0  0  0  0
    8.5690  -14.5071   27.3169 C   0  0  0  0  0  0  0  0  0  0  0  0
    9.7735  -14.0195   27.8396 O   0  0  0  0  0  0  0  0  0  0  0  0
    8.1093  -15.5437   27.8740 O   0  0  0  0  0  0  0  0  0  0  0  0
  2  1  1  1
  2  3  1  0
  3  4  1  0
  4  8  1  0
  4  5  2  0
  6  2  1  0
  7  6  2  0
  9 10  1  0
 10 12  1  0
 10 11  2  0
 13 12  1  1
 13 14  1  0
 13 15  1  0
 14  6  1  0
 15 21  1  0
 16 15  2  0
 18 17  1  6
 18 19  1  0
 20 18  1  0
 20 21  1  1
 22 23  1  0
 22 20  1  0
 24 22  2  0
M  END
$$$$
