DNV.pdb
     RDKit          3D

 24 23  0  0  1  0  0  0  0  0999 V2000
    8.8302  -16.5040   19.5236 N   0  0  0  0  0  0  0  0  0  0  0  0
    7.3824  -16.5069   19.8888 C   0  0  1  0  0  0  0  0  0  0  0  0
    6.8246  -17.7471   19.2547 C   0  0  0  0  0  0  0  0  0  0  0  0
    7.4624  -18.2028   18.0209 C   0  0  0  0  0  0  0  0  0  0  0  0
    7.2197  -17.6229   16.8979 O   0  0  0  0  0  0  0  0  0  0  0  0
    7.3955  -16.5672   21.3844 C   0  0  0  0  0  0  0  0  0  0  0  0
    6.2845  -16.6155   21.9732 O   0  0  0  0  0  0  0  0  0  0  0  0
    8.3476  -19.2546   17.9375 O   0  0  0  0  0  0  0  0  0  0  0  0
   12.2853  -16.6252   24.3365 N   0  0  0  0  0  0  0  0  0  0  0  0
   11.2071  -16.9136   23.4442 C   0  0  0  0  0  0  0  0  0  0  0  0
   11.4029  -16.6628   22.2244 O   0  0  0  0  0  0  0  0  0  0  0  0
    9.9631  -17.4753   24.0062 C   0  0  0  0  0  0  0  0  0  0  0  0
    8.7910  -16.5901   23.5423 C   0  0  2  0  0  0  0  0  0  0  0  0
    8.5637  -16.5753   22.1491 N   0  0  0  0  0  0  0  0  0  0  0  0
    8.8856  -15.3260   24.2383 C   0  0  0  0  0  0  0  0  0  0  0  0
    9.5244  -14.3903   23.7098 O   0  0  0  0  0  0  0  0  0  0  0  0
    7.1265  -11.7721   26.9796 C   0  0  0  0  0  0  0  0  0  0  0  0
    7.0465  -13.0268   26.1383 C   0  0  1  0  0  0  0  0  0  0  0  0
    6.8491  -12.5420   24.7110 C   0  0  0  0  0  0  0  0  0  0  0  0
    8.3088  -13.8142   26.2011 C   0  0  2  0  0  0  0  0  0  0  0  0
    8.3000  -15.0586   25.4962 N   0  0  0  0  0  0  0  0  0  0  0  0
    8.7159  -14.0634   27.6054 C   0  0  0  0  0  0  0  0  0  0  0  0
    9.1794  -13.0265   28.4251 O   0  0  0  0  0  0  0  0  0  0  0  0
    8.6703  -15.2069   28.1408 O   0  0  0  0  0  0  0  0  0  0  0  0
  2  1  1  6
  2  3  1  0
  3  4  1  0
  4  8  1  0
  4  5  2  0
  6  2  1  0
  7  6  2  0
  9 10  1  0
 10 12  1  0
 10 11  2  0
 13 12  1  6
 13 14  1  0
 13 15  1  0
 14  6  1  0
 15 21  1  0
 16 15  2  0
 18 17  1  1
 18 19  1  0
 20 18  1  0
 20 21  1  1
 22 23  1  0
 22 20  1  0
 24 22  2  0
M  END
$$$$
