DNV.pdb
     RDKit          3D

 24 23  0  0  1  0  0  0  0  0999 V2000
   10.8339  -18.2380   20.8731 N   0  0  0  0  0  0  0  0  0  0  0  0
   11.6805  -17.0861   21.3043 C   0  0  1  0  0  0  0  0  0  0  0  0
   12.2635  -16.5365   20.0357 C   0  0  0  0  0  0  0  0  0  0  0  0
   13.4299  -17.2283   19.4903 C   0  0  0  0  0  0  0  0  0  0  0  0
   13.9286  -18.2543   20.0862 O   0  0  0  0  0  0  0  0  0  0  0  0
   10.7052  -16.1548   21.9540 C   0  0  0  0  0  0  0  0  0  0  0  0
   11.1067  -14.9951   22.2319 O   0  0  0  0  0  0  0  0  0  0  0  0
   14.0869  -16.8674   18.3350 O   0  0  0  0  0  0  0  0  0  0  0  0
    6.6881  -17.9084   20.8383 N   0  0  0  0  0  0  0  0  0  0  0  0
    6.5884  -16.6236   21.4558 C   0  0  0  0  0  0  0  0  0  0  0  0
    6.1733  -15.6804   20.7298 O   0  0  0  0  0  0  0  0  0  0  0  0
    6.9719  -16.4965   22.8755 C   0  0  0  0  0  0  0  0  0  0  0  0
    8.3537  -15.8185   22.9348 C   0  0  2  0  0  0  0  0  0  0  0  0
    9.3883  -16.5028   22.2608 N   0  0  0  0  0  0  0  0  0  0  0  0
    8.5828  -15.3937   24.2980 C   0  0  0  0  0  0  0  0  0  0  0  0
    9.3544  -16.0628   25.0190 O   0  0  0  0  0  0  0  0  0  0  0  0
    8.0655  -11.4413   25.7139 C   0  0  0  0  0  0  0  0  0  0  0  0
    7.4937  -12.5319   26.5926 C   0  0  1  0  0  0  0  0  0  0  0  0
    6.0062  -12.5615   26.2803 C   0  0  0  0  0  0  0  0  0  0  0  0
    8.0732  -13.8640   26.2655 C   0  0  2  0  0  0  0  0  0  0  0  0
    7.9906  -14.2570   24.8928 N   0  0  0  0  0  0  0  0  0  0  0  0
    7.4739  -14.9301   27.1047 C   0  0  0  0  0  0  0  0  0  0  0  0
    7.9511  -15.1980   28.3939 O   0  0  0  0  0  0  0  0  0  0  0  0
    6.5116  -15.6505   26.7156 O   0  0  0  0  0  0  0  0  0  0  0  0
  2  1  1  6
  2  3  1  0
  3  4  1  0
  4  8  1  0
  4  5  2  0
  6  2  1  0
  7  6  2  0
  9 10  1  0
 10 12  1  0
 10 11  2  0
 13 12  1  1
 13 14  1  0
 13 15  1  0
 14  6  1  0
 15 21  1  0
 16 15  2  0
 18 17  1  6
 18 19  1  0
 20 18  1  0
 20 21  1  6
 22 23  1  0
 22 20  1  0
 24 22  2  0
M  END
$$$$
