DNV.pdb
     RDKit          3D

 24 23  0  0  1  0  0  0  0  0999 V2000
   11.3139  -18.5260   22.3617 N   0  0  0  0  0  0  0  0  0  0  0  0
   11.8925  -17.1592   22.1989 C   0  0  1  0  0  0  0  0  0  0  0  0
   11.9421  -16.9326   20.7165 C   0  0  0  0  0  0  0  0  0  0  0  0
   13.0591  -17.5368   19.9926 C   0  0  0  0  0  0  0  0  0  0  0  0
   14.1286  -17.8992   20.6101 O   0  0  0  0  0  0  0  0  0  0  0  0
   10.9073  -16.2733   22.8956 C   0  0  0  0  0  0  0  0  0  0  0  0
   11.0959  -15.0310   22.8301 O   0  0  0  0  0  0  0  0  0  0  0  0
   13.0810  -17.7679   18.6351 O   0  0  0  0  0  0  0  0  0  0  0  0
    5.5849  -17.5011   23.6674 N   0  0  0  0  0  0  0  0  0  0  0  0
    6.8967  -17.1975   23.1888 C   0  0  0  0  0  0  0  0  0  0  0  0
    7.4752  -18.0973   22.5219 O   0  0  0  0  0  0  0  0  0  0  0  0
    7.4694  -15.8742   23.5046 C   0  0  0  0  0  0  0  0  0  0  0  0
    8.7660  -16.0974   24.3057 C   0  0  2  0  0  0  0  0  0  0  0  0
    9.8019  -16.7500   23.6030 N   0  0  0  0  0  0  0  0  0  0  0  0
    8.4008  -16.5951   25.6135 C   0  0  0  0  0  0  0  0  0  0  0  0
    7.2213  -16.9565   25.8159 O   0  0  0  0  0  0  0  0  0  0  0  0
   10.0340  -13.5493   28.6572 C   0  0  0  0  0  0  0  0  0  0  0  0
    9.2075  -14.5076   27.8284 C   0  0  1  0  0  0  0  0  0  0  0  0
    8.7295  -13.6973   26.6342 C   0  0  0  0  0  0  0  0  0  0  0  0
   10.0225  -15.6500   27.3303 C   0  0  2  0  0  0  0  0  0  0  0  0
    9.2914  -16.7081   26.7047 N   0  0  0  0  0  0  0  0  0  0  0  0
   10.8604  -16.2227   28.4120 C   0  0  0  0  0  0  0  0  0  0  0  0
   11.8454  -15.4603   29.0524 O   0  0  0  0  0  0  0  0  0  0  0  0
   10.7395  -17.4135   28.8166 O   0  0  0  0  0  0  0  0  0  0  0  0
  2  1  1  6
  2  3  1  0
  3  4  1  0
  4  8  1  0
  4  5  2  0
  6  2  1  0
  7  6  2  0
  9 10  1  0
 10 12  1  0
 10 11  2  0
 13 12  1  6
 13 14  1  0
 13 15  1  0
 14  6  1  0
 15 21  1  0
 16 15  2  0
 18 17  1  1
 18 19  1  0
 20 18  1  0
 20 21  1  1
 22 23  1  0
 22 20  1  0
 24 22  2  0
M  END
$$$$
