DNV.pdb
     RDKit          3D

 24 23  0  0  1  0  0  0  0  0999 V2000
   10.1965  -17.6706   17.2358 N   0  0  0  0  0  0  0  0  0  0  0  0
    8.8039  -17.7859   17.7620 C   0  0  1  0  0  0  0  0  0  0  0  0
    8.2746  -19.0647   17.1825 C   0  0  0  0  0  0  0  0  0  0  0  0
    8.1376  -19.1246   15.7284 C   0  0  0  0  0  0  0  0  0  0  0  0
    8.9473  -19.8274   15.0164 O   0  0  0  0  0  0  0  0  0  0  0  0
    8.9909  -17.8469   19.2459 C   0  0  0  0  0  0  0  0  0  0  0  0
    7.9593  -17.9637   19.9568 O   0  0  0  0  0  0  0  0  0  0  0  0
    7.1719  -18.4625   15.0035 O   0  0  0  0  0  0  0  0  0  0  0  0
   13.1041  -20.0747   20.0449 N   0  0  0  0  0  0  0  0  0  0  0  0
   12.0737  -19.7415   20.9773 C   0  0  0  0  0  0  0  0  0  0  0  0
   11.2692  -20.6634   21.2809 O   0  0  0  0  0  0  0  0  0  0  0  0
   12.0271  -18.3651   21.5085 C   0  0  0  0  0  0  0  0  0  0  0  0
   10.6226  -17.7967   21.2308 C   0  0  2  0  0  0  0  0  0  0  0  0
   10.2370  -17.7845   19.8728 N   0  0  0  0  0  0  0  0  0  0  0  0
   10.4746  -16.5811   22.0000 C   0  0  0  0  0  0  0  0  0  0  0  0
   11.4092  -15.7509   22.0059 O   0  0  0  0  0  0  0  0  0  0  0  0
    7.8802  -13.8768   21.6924 C   0  0  0  0  0  0  0  0  0  0  0  0
    7.8856  -14.2825   23.1498 C   0  0  1  0  0  0  0  0  0  0  0  0
    6.6813  -15.1950   23.3176 C   0  0  0  0  0  0  0  0  0  0  0  0
    9.1129  -15.0473   23.5047 C   0  0  2  0  0  0  0  0  0  0  0  0
    9.3316  -16.2498   22.7620 N   0  0  0  0  0  0  0  0  0  0  0  0
    9.1452  -15.3674   24.9526 C   0  0  0  0  0  0  0  0  0  0  0  0
    9.2770  -14.3620   25.9188 O   0  0  0  0  0  0  0  0  0  0  0  0
    9.0570  -16.5468   25.3971 O   0  0  0  0  0  0  0  0  0  0  0  0
  2  1  1  6
  2  3  1  0
  3  4  1  0
  4  8  1  0
  4  5  2  0
  6  2  1  0
  7  6  2  0
  9 10  1  0
 10 12  1  0
 10 11  2  0
 13 12  1  6
 13 14  1  0
 13 15  1  0
 14  6  1  0
 15 21  1  0
 16 15  2  0
 18 17  1  6
 18 19  1  0
 20 18  1  0
 20 21  1  6
 22 23  1  0
 22 20  1  0
 24 22  2  0
M  END
$$$$
