DNV.pdb
     RDKit          3D

 24 23  0  0  1  0  0  0  0  0999 V2000
    5.8765  -16.9163   21.1056 N   0  0  0  0  0  0  0  0  0  0  0  0
    7.1726  -17.6420   21.2572 C   0  0  1  0  0  0  0  0  0  0  0  0
    7.4241  -18.2713   19.9185 C   0  0  0  0  0  0  0  0  0  0  0  0
    6.3687  -19.1289   19.3825 C   0  0  0  0  0  0  0  0  0  0  0  0
    5.2513  -19.2699   20.0054 O   0  0  0  0  0  0  0  0  0  0  0  0
    8.1486  -16.5564   21.5883 C   0  0  0  0  0  0  0  0  0  0  0  0
    9.2980  -16.9039   21.9643 O   0  0  0  0  0  0  0  0  0  0  0  0
    6.4591  -19.8439   18.2090 O   0  0  0  0  0  0  0  0  0  0  0  0
    7.0386  -13.0552   18.8154 N   0  0  0  0  0  0  0  0  0  0  0  0
    8.2534  -13.1516   19.5618 C   0  0  0  0  0  0  0  0  0  0  0  0
    9.2707  -13.5502   18.9330 O   0  0  0  0  0  0  0  0  0  0  0  0
    8.2293  -12.7831   20.9909 C   0  0  0  0  0  0  0  0  0  0  0  0
    8.5953  -14.0353   21.8099 C   0  0  2  0  0  0  0  0  0  0  0  0
    7.8523  -15.1949   21.4994 N   0  0  0  0  0  0  0  0  0  0  0  0
    8.7106  -13.6418   23.1967 C   0  0  0  0  0  0  0  0  0  0  0  0
    9.4343  -12.6658   23.4908 O   0  0  0  0  0  0  0  0  0  0  0  0
    7.1897  -12.6621   27.5810 C   0  0  0  0  0  0  0  0  0  0  0  0
    6.9580  -13.1398   26.1644 C   0  0  1  0  0  0  0  0  0  0  0  0
    6.8272  -11.8758   25.3301 C   0  0  0  0  0  0  0  0  0  0  0  0
    8.1129  -13.9282   25.6526 C   0  0  2  0  0  0  0  0  0  0  0  0
    8.0553  -14.2873   24.2694 N   0  0  0  0  0  0  0  0  0  0  0  0
    8.3220  -15.1568   26.4569 C   0  0  0  0  0  0  0  0  0  0  0  0
    8.3044  -16.4266   25.8663 O   0  0  0  0  0  0  0  0  0  0  0  0
    8.5260  -15.1347   27.7036 O   0  0  0  0  0  0  0  0  0  0  0  0
  2  1  1  6
  2  3  1  0
  3  4  1  0
  4  8  1  0
  4  5  2  0
  6  2  1  0
  7  6  2  0
  9 10  1  0
 10 12  1  0
 10 11  2  0
 13 12  1  6
 13 14  1  0
 13 15  1  0
 14  6  1  0
 15 21  1  0
 16 15  2  0
 18 17  1  1
 18 19  1  0
 20 18  1  0
 20 21  1  6
 22 23  1  0
 22 20  1  0
 24 22  2  0
M  END
$$$$
