DNV.pdb
     RDKit          3D

 24 23  0  0  1  0  0  0  0  0999 V2000
    8.9806  -17.6740   20.0469 N   0  0  0  0  0  0  0  0  0  0  0  0
    7.7838  -16.7813   20.0343 C   0  0  1  0  0  0  0  0  0  0  0  0
    6.7409  -17.5409   19.2684 C   0  0  0  0  0  0  0  0  0  0  0  0
    7.0421  -17.8523   17.8723 C   0  0  0  0  0  0  0  0  0  0  0  0
    8.2008  -17.5979   17.3732 O   0  0  0  0  0  0  0  0  0  0  0  0
    7.4472  -16.6212   21.4840 C   0  0  0  0  0  0  0  0  0  0  0  0
    6.3864  -16.0076   21.7694 O   0  0  0  0  0  0  0  0  0  0  0  0
    6.1549  -18.4225   16.9866 O   0  0  0  0  0  0  0  0  0  0  0  0
    8.7539  -20.4854   23.7584 N   0  0  0  0  0  0  0  0  0  0  0  0
    8.0473  -19.4165   24.3910 C   0  0  0  0  0  0  0  0  0  0  0  0
    6.8261  -19.6141   24.6334 O   0  0  0  0  0  0  0  0  0  0  0  0
    8.7865  -18.1792   24.7098 C   0  0  0  0  0  0  0  0  0  0  0  0
    8.1359  -17.0229   23.9272 C   0  0  2  0  0  0  0  0  0  0  0  0
    8.2397  -17.1147   22.5223 N   0  0  0  0  0  0  0  0  0  0  0  0
    8.5170  -15.7831   24.5666 C   0  0  0  0  0  0  0  0  0  0  0  0
    9.6485  -15.3050   24.3342 O   0  0  0  0  0  0  0  0  0  0  0  0
    7.2155  -11.5701   26.8727 C   0  0  0  0  0  0  0  0  0  0  0  0
    6.8027  -12.9285   26.3503 C   0  0  1  0  0  0  0  0  0  0  0  0
    6.0592  -12.6515   25.0535 C   0  0  0  0  0  0  0  0  0  0  0  0
    7.9828  -13.7844   26.0466 C   0  0  2  0  0  0  0  0  0  0  0  0
    7.6934  -15.0528   25.4526 N   0  0  0  0  0  0  0  0  0  0  0  0
    8.8131  -14.0015   27.2563 C   0  0  0  0  0  0  0  0  0  0  0  0
    9.6678  -13.0041   27.7426 O   0  0  0  0  0  0  0  0  0  0  0  0
    8.8011  -15.0811   27.9125 O   0  0  0  0  0  0  0  0  0  0  0  0
  2  1  1  1
  2  3  1  0
  3  4  1  0
  4  8  1  0
  4  5  2  0
  6  2  1  0
  7  6  2  0
  9 10  1  0
 10 12  1  0
 10 11  2  0
 13 12  1  1
 13 14  1  0
 13 15  1  0
 14  6  1  0
 15 21  1  0
 16 15  2  0
 18 17  1  6
 18 19  1  0
 20 18  1  0
 20 21  1  1
 22 23  1  0
 22 20  1  0
 24 22  2  0
M  END
$$$$
