DNV.pdb
     RDKit          3D

 24 23  0  0  1  0  0  0  0  0999 V2000
    9.2504  -18.1011   19.9411 N   0  0  0  0  0  0  0  0  0  0  0  0
    8.8508  -16.6870   19.6768 C   0  0  1  0  0  0  0  0  0  0  0  0
    8.3336  -16.6865   18.2683 C   0  0  0  0  0  0  0  0  0  0  0  0
    9.3251  -16.7976   17.2001 C   0  0  0  0  0  0  0  0  0  0  0  0
    9.0798  -17.4834   16.1389 O   0  0  0  0  0  0  0  0  0  0  0  0
    7.7842  -16.4253   20.6940 C   0  0  0  0  0  0  0  0  0  0  0  0
    6.5873  -16.5182   20.3172 O   0  0  0  0  0  0  0  0  0  0  0  0
   10.5693  -16.2075   17.2200 O   0  0  0  0  0  0  0  0  0  0  0  0
    7.0434  -17.4692   25.9000 N   0  0  0  0  0  0  0  0  0  0  0  0
    6.5875  -18.1816   24.7481 C   0  0  0  0  0  0  0  0  0  0  0  0
    5.5959  -18.9424   24.9124 O   0  0  0  0  0  0  0  0  0  0  0  0
    7.2986  -17.9778   23.4708 C   0  0  0  0  0  0  0  0  0  0  0  0
    7.4331  -16.4608   23.2395 C   0  0  2  0  0  0  0  0  0  0  0  0
    8.0473  -16.0904   22.0237 N   0  0  0  0  0  0  0  0  0  0  0  0
    7.9170  -15.8652   24.4653 C   0  0  0  0  0  0  0  0  0  0  0  0
    9.0567  -16.1709   24.8782 O   0  0  0  0  0  0  0  0  0  0  0  0
    7.4356  -11.9055   27.5057 C   0  0  0  0  0  0  0  0  0  0  0  0
    6.7621  -12.9304   26.6200 C   0  0  1  0  0  0  0  0  0  0  0  0
    6.2550  -12.1513   25.4172 C   0  0  0  0  0  0  0  0  0  0  0  0
    7.7225  -13.9643   26.1444 C   0  0  2  0  0  0  0  0  0  0  0  0
    7.1876  -14.9442   25.2504 N   0  0  0  0  0  0  0  0  0  0  0  0
    8.3695  -14.6596   27.2838 C   0  0  0  0  0  0  0  0  0  0  0  0
    9.2883  -14.0027   28.1120 O   0  0  0  0  0  0  0  0  0  0  0  0
    8.1358  -15.8669   27.5735 O   0  0  0  0  0  0  0  0  0  0  0  0
  2  1  1  1
  2  3  1  0
  3  4  1  0
  4  8  1  0
  4  5  2  0
  6  2  1  0
  7  6  2  0
  9 10  1  0
 10 12  1  0
 10 11  2  0
 13 12  1  1
 13 14  1  0
 13 15  1  0
 14  6  1  0
 15 21  1  0
 16 15  2  0
 18 17  1  1
 18 19  1  0
 20 18  1  0
 20 21  1  1
 22 23  1  0
 22 20  1  0
 24 22  2  0
M  END
$$$$
