DNV.pdb
     RDKit          3D

 24 23  0  0  1  0  0  0  0  0999 V2000
    8.9774  -16.0987   19.6329 N   0  0  0  0  0  0  0  0  0  0  0  0
    7.5608  -16.1813   20.0974 C   0  0  1  0  0  0  0  0  0  0  0  0
    7.0444  -17.4751   19.5401 C   0  0  0  0  0  0  0  0  0  0  0  0
    7.2971  -17.7323   18.1235 C   0  0  0  0  0  0  0  0  0  0  0  0
    6.3835  -18.2359   17.3697 O   0  0  0  0  0  0  0  0  0  0  0  0
    7.6784  -16.1902   21.5897 C   0  0  0  0  0  0  0  0  0  0  0  0
    6.6216  -16.0414   22.2562 O   0  0  0  0  0  0  0  0  0  0  0  0
    8.4870  -17.4753   17.4796 O   0  0  0  0  0  0  0  0  0  0  0  0
   11.4224  -18.7706   22.3971 N   0  0  0  0  0  0  0  0  0  0  0  0
   10.5087  -18.4337   23.4430 C   0  0  0  0  0  0  0  0  0  0  0  0
    9.7278  -19.3468   23.8245 O   0  0  0  0  0  0  0  0  0  0  0  0
   10.5454  -17.0640   23.9918 C   0  0  0  0  0  0  0  0  0  0  0  0
    9.2109  -16.3778   23.6442 C   0  0  2  0  0  0  0  0  0  0  0  0
    8.8861  -16.3562   22.2706 N   0  0  0  0  0  0  0  0  0  0  0  0
    9.1401  -15.1398   24.3884 C   0  0  0  0  0  0  0  0  0  0  0  0
    9.8546  -14.1778   24.0324 O   0  0  0  0  0  0  0  0  0  0  0  0
    6.7862  -11.7939   27.0113 C   0  0  0  0  0  0  0  0  0  0  0  0
    6.8185  -13.0910   26.2336 C   0  0  1  0  0  0  0  0  0  0  0  0
    6.4903  -12.7082   24.7994 C   0  0  0  0  0  0  0  0  0  0  0  0
    8.1697  -13.7162   26.2599 C   0  0  2  0  0  0  0  0  0  0  0  0
    8.3085  -14.9266   25.5108 N   0  0  0  0  0  0  0  0  0  0  0  0
    8.6200  -13.9614   27.6517 C   0  0  0  0  0  0  0  0  0  0  0  0
    9.0473  -12.9122   28.4753 O   0  0  0  0  0  0  0  0  0  0  0  0
    8.6452  -15.1123   28.1724 O   0  0  0  0  0  0  0  0  0  0  0  0
  2  1  1  6
  2  3  1  0
  3  4  1  0
  4  8  1  0
  4  5  2  0
  6  2  1  0
  7  6  2  0
  9 10  1  0
 10 12  1  0
 10 11  2  0
 13 12  1  6
 13 14  1  0
 13 15  1  0
 14  6  1  0
 15 21  1  0
 16 15  2  0
 18 17  1  1
 18 19  1  0
 20 18  1  0
 20 21  1  6
 22 23  1  0
 22 20  1  0
 24 22  2  0
M  END
$$$$
