WQA.pdb
     RDKit          3D

 29 30  0  0  1  0  0  0  0  0999 V2000
    6.5565  -17.4031   24.2376 N   0  0  0  0  0  0  0  0  0  0  0  0
    7.6992  -16.5509   24.3534 C   0  0  1  0  0  0  0  0  0  0  0  0
    7.8542  -15.9243   25.7267 C   0  0  0  0  0  0  0  0  0  0  0  0
    6.8068  -14.8936   25.9157 C   0  0  0  0  0  0  0  0  0  0  0  0
    5.4995  -15.0918   26.3353 C   0  0  0  0  0  0  0  0  0  0  0  0
    4.8355  -13.9192   26.3619 N   0  0  0  0  0  0  0  0  0  0  0  0
    5.6722  -12.9443   25.9698 C   0  0  0  0  0  0  0  0  0  0  0  0
    5.4947  -11.5778   25.8294 C   0  0  0  0  0  0  0  0  0  0  0  0
    6.5314  -10.7668   25.4092 C   0  0  0  0  0  0  0  0  0  0  0  0
    7.7526  -11.3351   25.1295 C   0  0  0  0  0  0  0  0  0  0  0  0
    7.9230  -12.7118   25.2732 C   0  0  0  0  0  0  0  0  0  0  0  0
    6.9060  -13.5408   25.6890 C   0  0  0  0  0  0  0  0  0  0  0  0
    8.9437  -17.2507   23.9430 C   0  0  0  0  0  0  0  0  0  0  0  0
    9.0500  -18.5177   24.0558 O   0  0  0  0  0  0  0  0  0  0  0  0
   14.1514  -14.3963   21.2352 N   0  0  0  0  0  0  0  0  0  0  0  0
   12.7703  -14.5146   20.9561 C   0  0  0  0  0  0  0  0  0  0  0  0
   12.3290  -14.1375   19.8477 O   0  0  0  0  0  0  0  0  0  0  0  0
   11.9401  -15.0976   22.0469 C   0  0  0  0  0  0  0  0  0  0  0  0
   12.2223  -16.4999   22.3829 C   0  0  0  0  0  0  0  0  0  0  0  0
   11.4051  -17.0675   23.5062 C   0  0  2  0  0  0  0  0  0  0  0  0
   10.0366  -16.5149   23.4147 N   0  0  0  0  0  0  0  0  0  0  0  0
   11.8837  -16.7339   24.8447 C   0  0  0  0  0  0  0  0  0  0  0  0
   13.0710  -17.0413   25.1876 O   0  0  0  0  0  0  0  0  0  0  0  0
   11.1237  -14.5563   27.8117 C   0  0  0  0  0  0  0  0  0  0  0  0
   11.7228  -15.7877   27.1703 C   0  0  2  0  0  0  0  0  0  0  0  0
   11.1469  -16.0681   25.8652 N   0  0  0  0  0  0  0  0  0  0  0  0
   11.4724  -16.9296   28.0878 C   0  0  0  0  0  0  0  0  0  0  0  0
   11.9775  -16.9700   29.3847 O   0  0  0  0  0  0  0  0  0  0  0  0
   10.7748  -17.8894   27.6608 O   0  0  0  0  0  0  0  0  0  0  0  0
  2 13  1  0
  2  1  1  1
  3  2  1  0
  3  4  1  0
  4  5  2  0
  4 12  1  0
  5  6  1  0
  6  7  1  0
  7  8  2  0
  8  9  1  0
 10  9  2  0
 11 10  1  0
 12 11  2  0
 12  7  1  0
 13 21  1  0
 14 13  2  0
 16 15  1  0
 17 16  2  0
 18 16  1  0
 19 18  1  0
 20 19  1  6
 21 20  1  0
 22 26  1  0
 22 20  1  0
 23 22  2  0
 25 24  1  1
 25 26  1  0
 25 27  1  0
 27 29  2  0
 27 28  1  0
M  END
$$$$
