WQA.pdb
     RDKit          3D

 29 30  0  0  1  0  0  0  0  0999 V2000
    6.6203  -18.3744   25.0434 N   0  0  0  0  0  0  0  0  0  0  0  0
    7.0833  -17.1191   24.5382 C   0  0  1  0  0  0  0  0  0  0  0  0
    7.9414  -16.3462   25.5226 C   0  0  0  0  0  0  0  0  0  0  0  0
    7.1686  -15.1967   26.0485 C   0  0  0  0  0  0  0  0  0  0  0  0
    5.8529  -15.2001   26.4884 C   0  0  0  0  0  0  0  0  0  0  0  0
    5.4857  -13.9606   26.8698 N   0  0  0  0  0  0  0  0  0  0  0  0
    6.5282  -13.1320   26.6941 C   0  0  0  0  0  0  0  0  0  0  0  0
    6.6790  -11.7760   26.9332 C   0  0  0  0  0  0  0  0  0  0  0  0
    7.8769  -11.1383   26.6736 C   0  0  0  0  0  0  0  0  0  0  0  0
    8.9278  -11.8702   26.1711 C   0  0  0  0  0  0  0  0  0  0  0  0
    8.7677  -13.2350   25.9329 C   0  0  0  0  0  0  0  0  0  0  0  0
    7.5847  -13.8928   26.1822 C   0  0  0  0  0  0  0  0  0  0  0  0
    7.7794  -17.2801   23.2357 C   0  0  0  0  0  0  0  0  0  0  0  0
    8.5104  -18.3010   23.0059 O   0  0  0  0  0  0  0  0  0  0  0  0
    9.2980  -13.6232   16.9993 N   0  0  0  0  0  0  0  0  0  0  0  0
    8.3006  -14.1930   17.8239 C   0  0  0  0  0  0  0  0  0  0  0  0
    7.1113  -13.8245   17.7001 O   0  0  0  0  0  0  0  0  0  0  0  0
    8.7761  -15.2147   18.7980 C   0  0  0  0  0  0  0  0  0  0  0  0
    8.0039  -15.3157   20.0440 C   0  0  0  0  0  0  0  0  0  0  0  0
    8.4590  -16.3825   20.9962 C   0  0  2  0  0  0  0  0  0  0  0  0
    7.6378  -16.2958   22.2229 N   0  0  0  0  0  0  0  0  0  0  0  0
    9.8470  -16.2654   21.4336 C   0  0  0  0  0  0  0  0  0  0  0  0
   10.1889  -15.3136   22.2076 O   0  0  0  0  0  0  0  0  0  0  0  0
   12.9515  -18.1466   22.0459 C   0  0  0  0  0  0  0  0  0  0  0  0
   12.2817  -16.8914   21.5334 C   0  0  2  0  0  0  0  0  0  0  0  0
   10.9202  -17.1339   21.0849 N   0  0  0  0  0  0  0  0  0  0  0  0
   13.1020  -16.3834   20.4032 C   0  0  0  0  0  0  0  0  0  0  0  0
   14.3985  -15.9061   20.5769 O   0  0  0  0  0  0  0  0  0  0  0  0
   12.5904  -16.3917   19.2506 O   0  0  0  0  0  0  0  0  0  0  0  0
  2 13  1  0
  2  1  1  1
  3  2  1  0
  3  4  1  0
  4  5  2  0
  4 12  1  0
  5  6  1  0
  6  7  1  0
  7  8  2  0
  8  9  1  0
 10  9  2  0
 11 10  1  0
 12 11  2  0
 12  7  1  0
 13 21  1  0
 14 13  2  0
 16 15  1  0
 17 16  2  0
 18 16  1  0
 19 18  1  0
 20 19  1  6
 21 20  1  0
 22 26  1  0
 22 20  1  0
 23 22  2  0
 25 24  1  6
 25 26  1  0
 25 27  1  0
 27 29  2  0
 27 28  1  0
M  END
$$$$
