WQA.pdb
     RDKit          3D

 29 30  0  0  1  0  0  0  0  0999 V2000
    6.5606  -17.0264   24.3367 N   0  0  0  0  0  0  0  0  0  0  0  0
    7.7311  -16.5682   23.6545 C   0  0  1  0  0  0  0  0  0  0  0  0
    7.8415  -15.0564   23.5838 C   0  0  0  0  0  0  0  0  0  0  0  0
    6.9671  -14.4528   24.6164 C   0  0  0  0  0  0  0  0  0  0  0  0
    6.0906  -15.1131   25.4650 C   0  0  0  0  0  0  0  0  0  0  0  0
    5.4461  -14.2274   26.2504 N   0  0  0  0  0  0  0  0  0  0  0  0
    5.8747  -12.9920   25.9439 C   0  0  0  0  0  0  0  0  0  0  0  0
    5.5411  -11.7474   26.4523 C   0  0  0  0  0  0  0  0  0  0  0  0
    6.1383  -10.5994   25.9681 C   0  0  0  0  0  0  0  0  0  0  0  0
    7.0760  -10.7058   24.9671 C   0  0  0  0  0  0  0  0  0  0  0  0
    7.4061  -11.9625   24.4605 C   0  0  0  0  0  0  0  0  0  0  0  0
    6.8249  -13.1203   24.9253 C   0  0  0  0  0  0  0  0  0  0  0  0
    8.9641  -17.1668   24.2274 C   0  0  0  0  0  0  0  0  0  0  0  0
    8.8964  -18.0831   25.1136 O   0  0  0  0  0  0  0  0  0  0  0  0
   14.1006  -17.0012   20.8808 N   0  0  0  0  0  0  0  0  0  0  0  0
   13.5250  -15.8261   21.4166 C   0  0  0  0  0  0  0  0  0  0  0  0
   13.9468  -14.7073   21.0478 O   0  0  0  0  0  0  0  0  0  0  0  0
   12.4315  -16.0376   22.4058 C   0  0  0  0  0  0  0  0  0  0  0  0
   12.5217  -17.2690   23.2023 C   0  0  0  0  0  0  0  0  0  0  0  0
   11.4559  -17.4382   24.2452 C   0  0  2  0  0  0  0  0  0  0  0  0
   10.2415  -16.7263   23.7925 N   0  0  0  0  0  0  0  0  0  0  0  0
   11.7826  -16.8812   25.5546 C   0  0  0  0  0  0  0  0  0  0  0  0
   12.7026  -17.4123   26.2571 O   0  0  0  0  0  0  0  0  0  0  0  0
   10.4514  -14.4212   28.1172 C   0  0  0  0  0  0  0  0  0  0  0  0
   11.4869  -15.3560   27.5335 C   0  0  2  0  0  0  0  0  0  0  0  0
   11.1682  -15.7548   26.1723 N   0  0  0  0  0  0  0  0  0  0  0  0
   11.5437  -16.5546   28.4100 C   0  0  0  0  0  0  0  0  0  0  0  0
   11.9402  -16.4867   29.7431 O   0  0  0  0  0  0  0  0  0  0  0  0
   11.2174  -17.6667   27.9130 O   0  0  0  0  0  0  0  0  0  0  0  0
  2 13  1  0
  2  1  1  1
  3  2  1  0
  3  4  1  0
  4  5  2  0
  4 12  1  0
  5  6  1  0
  6  7  1  0
  7  8  2  0
  8  9  1  0
 10  9  2  0
 11 10  1  0
 12 11  2  0
 12  7  1  0
 13 21  1  0
 14 13  2  0
 16 15  1  0
 17 16  2  0
 18 16  1  0
 19 18  1  0
 20 19  1  6
 21 20  1  0
 22 26  1  0
 22 20  1  0
 23 22  2  0
 25 24  1  1
 25 26  1  0
 25 27  1  0
 27 29  2  0
 27 28  1  0
M  END
$$$$
