WQA.pdb
     RDKit          3D

 29 30  0  0  1  0  0  0  0  0999 V2000
    6.9694  -16.5707   23.5878 N   0  0  0  0  0  0  0  0  0  0  0  0
    7.9579  -16.1661   24.5388 C   0  0  1  0  0  0  0  0  0  0  0  0
    7.4005  -15.9204   25.9286 C   0  0  0  0  0  0  0  0  0  0  0  0
    6.5170  -14.7315   25.8987 C   0  0  0  0  0  0  0  0  0  0  0  0
    5.1421  -14.7021   26.0811 C   0  0  0  0  0  0  0  0  0  0  0  0
    4.6821  -13.4414   25.9568 N   0  0  0  0  0  0  0  0  0  0  0  0
    5.7207  -12.6304   25.6963 C   0  0  0  0  0  0  0  0  0  0  0  0
    5.7936  -11.2626   25.4903 C   0  0  0  0  0  0  0  0  0  0  0  0
    7.0048  -10.6456   25.2425 C   0  0  0  0  0  0  0  0  0  0  0  0
    8.1478  -11.4102   25.2024 C   0  0  0  0  0  0  0  0  0  0  0  0
    8.0657  -12.7868   25.4106 C   0  0  0  0  0  0  0  0  0  0  0  0
    6.8715  -13.4247   25.6581 C   0  0  0  0  0  0  0  0  0  0  0  0
    9.0949  -17.1213   24.5814 C   0  0  0  0  0  0  0  0  0  0  0  0
    9.0030  -18.2204   25.2240 O   0  0  0  0  0  0  0  0  0  0  0  0
   13.4598  -17.6296   20.0765 N   0  0  0  0  0  0  0  0  0  0  0  0
   12.9672  -16.5279   20.8134 C   0  0  0  0  0  0  0  0  0  0  0  0
   13.3748  -15.3750   20.5486 O   0  0  0  0  0  0  0  0  0  0  0  0
   11.9739  -16.8548   21.8743 C   0  0  0  0  0  0  0  0  0  0  0  0
   12.5314  -17.3664   23.1339 C   0  0  0  0  0  0  0  0  0  0  0  0
   11.5384  -17.5647   24.2414 C   0  0  2  0  0  0  0  0  0  0  0  0
   10.3050  -16.8231   23.9020 N   0  0  0  0  0  0  0  0  0  0  0  0
   11.9625  -17.0624   25.5451 C   0  0  0  0  0  0  0  0  0  0  0  0
   13.1454  -16.6159   25.6975 O   0  0  0  0  0  0  0  0  0  0  0  0
   10.9750  -15.4504   28.6306 C   0  0  0  0  0  0  0  0  0  0  0  0
   11.7313  -16.6022   28.0077 C   0  0  2  0  0  0  0  0  0  0  0  0
   11.1715  -17.0045   26.7277 N   0  0  0  0  0  0  0  0  0  0  0  0
   11.6713  -17.7382   28.9637 C   0  0  0  0  0  0  0  0  0  0  0  0
   10.9273  -17.6862   30.1396 O   0  0  0  0  0  0  0  0  0  0  0  0
   12.3237  -18.7808   28.6851 O   0  0  0  0  0  0  0  0  0  0  0  0
  2 13  1  0
  2  1  1  6
  3  2  1  0
  3  4  1  0
  4  5  2  0
  4 12  1  0
  5  6  1  0
  6  7  1  0
  7  8  2  0
  8  9  1  0
 10  9  2  0
 11 10  1  0
 12 11  2  0
 12  7  1  0
 13 21  1  0
 14 13  2  0
 16 15  1  0
 17 16  2  0
 18 16  1  0
 19 18  1  0
 20 19  1  6
 21 20  1  0
 22 26  1  0
 22 20  1  0
 23 22  2  0
 25 24  1  1
 25 26  1  0
 25 27  1  0
 27 29  2  0
 27 28  1  0
M  END
$$$$
