WQA.pdb
     RDKit          3D

 29 30  0  0  1  0  0  0  0  0999 V2000
    6.3277  -17.7903   23.7831 N   0  0  0  0  0  0  0  0  0  0  0  0
    7.1731  -16.6465   23.6341 C   0  0  1  0  0  0  0  0  0  0  0  0
    7.8355  -16.2071   24.9267 C   0  0  0  0  0  0  0  0  0  0  0  0
    6.9849  -15.1932   25.5928 C   0  0  0  0  0  0  0  0  0  0  0  0
    5.7411  -15.3915   26.1741 C   0  0  0  0  0  0  0  0  0  0  0  0
    5.2612  -14.2281   26.6567 N   0  0  0  0  0  0  0  0  0  0  0  0
    6.1585  -13.2596   26.4100 C   0  0  0  0  0  0  0  0  0  0  0  0
    6.1568  -11.9052   26.7002 C   0  0  0  0  0  0  0  0  0  0  0  0
    7.2224  -11.1013   26.3433 C   0  0  0  0  0  0  0  0  0  0  0  0
    8.2948  -11.6648   25.6912 C   0  0  0  0  0  0  0  0  0  0  0  0
    8.2885  -13.0292   25.4025 C   0  0  0  0  0  0  0  0  0  0  0  0
    7.2391  -13.8504   25.7465 C   0  0  0  0  0  0  0  0  0  0  0  0
    8.1802  -16.8503   22.5612 C   0  0  0  0  0  0  0  0  0  0  0  0
    8.5788  -18.0228   22.2515 O   0  0  0  0  0  0  0  0  0  0  0  0
    8.7946  -12.6481   18.1327 N   0  0  0  0  0  0  0  0  0  0  0  0
    8.0100  -13.8206   18.2272 C   0  0  0  0  0  0  0  0  0  0  0  0
    6.8003  -13.7823   17.9097 O   0  0  0  0  0  0  0  0  0  0  0  0
    8.7223  -15.0350   18.7138 C   0  0  0  0  0  0  0  0  0  0  0  0
    9.6540  -14.8233   19.8301 C   0  0  0  0  0  0  0  0  0  0  0  0
    9.7394  -15.9504   20.8171 C   0  0  2  0  0  0  0  0  0  0  0  0
    8.7137  -15.7370   21.8606 N   0  0  0  0  0  0  0  0  0  0  0  0
   11.0135  -16.0552   21.5225 C   0  0  0  0  0  0  0  0  0  0  0  0
   12.0893  -16.2313   20.8641 O   0  0  0  0  0  0  0  0  0  0  0  0
   12.7363  -15.3634   24.7665 C   0  0  0  0  0  0  0  0  0  0  0  0
   12.5076  -16.2182   23.5402 C   0  0  2  0  0  0  0  0  0  0  0  0
   11.2101  -15.9761   22.9306 N   0  0  0  0  0  0  0  0  0  0  0  0
   12.6072  -17.6381   23.9669 C   0  0  0  0  0  0  0  0  0  0  0  0
   13.7711  -18.1741   24.5117 O   0  0  0  0  0  0  0  0  0  0  0  0
   11.5913  -18.3714   23.8236 O   0  0  0  0  0  0  0  0  0  0  0  0
  2 13  1  0
  2  1  1  1
  3  2  1  0
  3  4  1  0
  4  5  2  0
  4 12  1  0
  5  6  1  0
  6  7  1  0
  7  8  2  0
  8  9  1  0
 10  9  2  0
 11 10  1  0
 12 11  2  0
 12  7  1  0
 13 21  1  0
 14 13  2  0
 16 15  1  0
 17 16  2  0
 18 16  1  0
 19 18  1  0
 20 19  1  6
 21 20  1  0
 22 26  1  0
 22 20  1  0
 23 22  2  0
 25 24  1  1
 25 26  1  0
 25 27  1  0
 27 29  2  0
 27 28  1  0
M  END
$$$$
