WQA.pdb
     RDKit          3D

 29 30  0  0  1  0  0  0  0  0999 V2000
    6.7372  -17.4962   25.0052 N   0  0  0  0  0  0  0  0  0  0  0  0
    6.8124  -17.0309   23.6549 C   0  0  1  0  0  0  0  0  0  0  0  0
    6.9451  -15.5239   23.5373 C   0  0  0  0  0  0  0  0  0  0  0  0
    6.7469  -14.9093   24.8707 C   0  0  0  0  0  0  0  0  0  0  0  0
    6.2641  -15.5254   26.0160 C   0  0  0  0  0  0  0  0  0  0  0  0
    6.1985  -14.6394   27.0296 N   0  0  0  0  0  0  0  0  0  0  0  0
    6.6276  -13.4470   26.5846 C   0  0  0  0  0  0  0  0  0  0  0  0
    6.7638  -12.2216   27.2158 C   0  0  0  0  0  0  0  0  0  0  0  0
    7.2454  -11.1211   26.5333 C   0  0  0  0  0  0  0  0  0  0  0  0
    7.5916  -11.2558   25.2087 C   0  0  0  0  0  0  0  0  0  0  0  0
    7.4512  -12.4930   24.5804 C   0  0  0  0  0  0  0  0  0  0  0  0
    6.9732  -13.6034   25.2381 C   0  0  0  0  0  0  0  0  0  0  0  0
    7.8897  -17.7217   22.9006 C   0  0  0  0  0  0  0  0  0  0  0  0
    8.1885  -18.9372   23.1510 O   0  0  0  0  0  0  0  0  0  0  0  0
    8.7337  -16.3875   16.9840 N   0  0  0  0  0  0  0  0  0  0  0  0
    9.7652  -17.3461   17.1129 C   0  0  0  0  0  0  0  0  0  0  0  0
   10.4502  -17.6555   16.1126 O   0  0  0  0  0  0  0  0  0  0  0  0
    9.9458  -17.9188   18.4761 C   0  0  0  0  0  0  0  0  0  0  0  0
    9.2435  -17.2183   19.5601 C   0  0  0  0  0  0  0  0  0  0  0  0
    9.4373  -17.7986   20.9304 C   0  0  2  0  0  0  0  0  0  0  0  0
    8.6036  -17.0353   21.8837 N   0  0  0  0  0  0  0  0  0  0  0  0
   10.8026  -17.7240   21.4425 C   0  0  0  0  0  0  0  0  0  0  0  0
   11.7484  -18.2961   20.8100 O   0  0  0  0  0  0  0  0  0  0  0  0
   12.9227  -15.7390   23.8404 C   0  0  0  0  0  0  0  0  0  0  0  0
   12.6315  -16.9546   22.9894 C   0  0  2  0  0  0  0  0  0  0  0  0
   11.2279  -17.0507   22.6229 N   0  0  0  0  0  0  0  0  0  0  0  0
   13.0301  -18.1503   23.7765 C   0  0  0  0  0  0  0  0  0  0  0  0
   14.3379  -18.3591   24.2067 O   0  0  0  0  0  0  0  0  0  0  0  0
   12.1393  -18.9976   24.0571 O   0  0  0  0  0  0  0  0  0  0  0  0
  2 13  1  0
  2  1  1  1
  3  2  1  0
  3  4  1  0
  4  5  2  0
  4 12  1  0
  5  6  1  0
  6  7  1  0
  7  8  2  0
  8  9  1  0
 10  9  2  0
 11 10  1  0
 12 11  2  0
 12  7  1  0
 13 21  1  0
 14 13  2  0
 16 15  1  0
 17 16  2  0
 18 16  1  0
 19 18  1  0
 20 19  1  6
 21 20  1  0
 22 26  1  0
 22 20  1  0
 23 22  2  0
 25 24  1  1
 25 26  1  0
 25 27  1  0
 27 29  2  0
 27 28  1  0
M  END
$$$$
