WQA.pdb
     RDKit          3D

 29 30  0  0  1  0  0  0  0  0999 V2000
    5.7308  -17.8901   23.7470 N   0  0  0  0  0  0  0  0  0  0  0  0
    6.5256  -16.7013   23.7261 C   0  0  1  0  0  0  0  0  0  0  0  0
    7.1697  -16.3765   25.0611 C   0  0  0  0  0  0  0  0  0  0  0  0
    6.5066  -15.1889   25.6486 C   0  0  0  0  0  0  0  0  0  0  0  0
    5.2689  -15.1413   26.2731 C   0  0  0  0  0  0  0  0  0  0  0  0
    4.9881  -13.8798   26.6558 N   0  0  0  0  0  0  0  0  0  0  0  0
    6.0120  -13.0865   26.3003 C   0  0  0  0  0  0  0  0  0  0  0  0
    6.2254  -11.7276   26.4632 C   0  0  0  0  0  0  0  0  0  0  0  0
    7.3867  -11.1321   26.0096 C   0  0  0  0  0  0  0  0  0  0  0  0
    8.3374  -11.9092   25.3892 C   0  0  0  0  0  0  0  0  0  0  0  0
    8.1146  -13.2766   25.2289 C   0  0  0  0  0  0  0  0  0  0  0  0
    6.9662  -13.8929   25.6710 C   0  0  0  0  0  0  0  0  0  0  0  0
    7.5395  -16.7438   22.6411 C   0  0  0  0  0  0  0  0  0  0  0  0
    7.9376  -17.8572   22.1601 O   0  0  0  0  0  0  0  0  0  0  0  0
    8.7224  -12.5305   17.8298 N   0  0  0  0  0  0  0  0  0  0  0  0
    8.0269  -13.7376   18.0721 C   0  0  0  0  0  0  0  0  0  0  0  0
    7.6252  -14.4243   17.1063 O   0  0  0  0  0  0  0  0  0  0  0  0
    7.8301  -14.0912   19.5057 C   0  0  0  0  0  0  0  0  0  0  0  0
    9.0578  -14.3108   20.2826 C   0  0  0  0  0  0  0  0  0  0  0  0
    9.1061  -15.5953   21.0569 C   0  0  2  0  0  0  0  0  0  0  0  0
    8.0803  -15.5391   22.1204 N   0  0  0  0  0  0  0  0  0  0  0  0
   10.3724  -15.8579   21.7345 C   0  0  0  0  0  0  0  0  0  0  0  0
   11.4557  -15.8820   21.0654 O   0  0  0  0  0  0  0  0  0  0  0  0
   11.8586  -16.0208   25.2155 C   0  0  0  0  0  0  0  0  0  0  0  0
   11.8747  -16.2304   23.7180 C   0  0  2  0  0  0  0  0  0  0  0  0
   10.5533  -16.0989   23.1262 N   0  0  0  0  0  0  0  0  0  0  0  0
   12.4051  -17.5960   23.4690 C   0  0  0  0  0  0  0  0  0  0  0  0
   13.7621  -17.8968   23.5525 O   0  0  0  0  0  0  0  0  0  0  0  0
   11.5827  -18.5049   23.1724 O   0  0  0  0  0  0  0  0  0  0  0  0
  2 13  1  0
  2  1  1  1
  3  2  1  0
  3  4  1  0
  4  5  2  0
  4 12  1  0
  5  6  1  0
  6  7  1  0
  7  8  2  0
  8  9  1  0
 10  9  2  0
 11 10  1  0
 12 11  2  0
 12  7  1  0
 13 21  1  0
 14 13  2  0
 16 15  1  0
 17 16  2  0
 18 16  1  0
 19 18  1  0
 20 19  1  1
 21 20  1  0
 22 26  1  0
 22 20  1  0
 23 22  2  0
 25 24  1  1
 25 26  1  0
 25 27  1  0
 27 29  2  0
 27 28  1  0
M  END
$$$$
