WQA.pdb
     RDKit          3D

 29 30  0  0  1  0  0  0  0  0999 V2000
    6.4487  -17.0088   23.8539 N   0  0  0  0  0  0  0  0  0  0  0  0
    7.6463  -16.2552   23.6458 C   0  0  1  0  0  0  0  0  0  0  0  0
    8.2606  -15.7229   24.9271 C   0  0  0  0  0  0  0  0  0  0  0  0
    7.2554  -14.9105   25.6514 C   0  0  0  0  0  0  0  0  0  0  0  0
    6.1318  -15.3687   26.3239 C   0  0  0  0  0  0  0  0  0  0  0  0
    5.4406  -14.3318   26.8373 N   0  0  0  0  0  0  0  0  0  0  0  0
    6.0795  -13.1931   26.5220 C   0  0  0  0  0  0  0  0  0  0  0  0
    5.7968  -11.8676   26.8075 C   0  0  0  0  0  0  0  0  0  0  0  0
    6.6282  -10.8543   26.3704 C   0  0  0  0  0  0  0  0  0  0  0  0
    7.7497  -11.1781   25.6423 C   0  0  0  0  0  0  0  0  0  0  0  0
    8.0270  -12.5152   25.3588 C   0  0  0  0  0  0  0  0  0  0  0  0
    7.2142  -13.5421   25.7820 C   0  0  0  0  0  0  0  0  0  0  0  0
    8.6424  -17.0238   22.8559 C   0  0  0  0  0  0  0  0  0  0  0  0
    8.3727  -18.1940   22.4230 O   0  0  0  0  0  0  0  0  0  0  0  0
    7.2907  -13.8145   19.2376 N   0  0  0  0  0  0  0  0  0  0  0  0
    8.6034  -13.6788   18.7299 C   0  0  0  0  0  0  0  0  0  0  0  0
    8.8407  -12.8207   17.8507 O   0  0  0  0  0  0  0  0  0  0  0  0
    9.6172  -14.6035   19.3097 C   0  0  0  0  0  0  0  0  0  0  0  0
    9.2920  -15.1590   20.6306 C   0  0  0  0  0  0  0  0  0  0  0  0
   10.2795  -16.1519   21.1699 C   0  0  2  0  0  0  0  0  0  0  0  0
    9.9140  -16.4623   22.5687 N   0  0  0  0  0  0  0  0  0  0  0  0
   11.6620  -15.6844   21.2108 C   0  0  0  0  0  0  0  0  0  0  0  0
   12.2580  -15.3742   20.1289 O   0  0  0  0  0  0  0  0  0  0  0  0
   13.0909  -17.8473   22.8954 C   0  0  0  0  0  0  0  0  0  0  0  0
   13.5605  -16.4252   22.6862 C   0  0  2  0  0  0  0  0  0  0  0  0
   12.4658  -15.5206   22.3748 N   0  0  0  0  0  0  0  0  0  0  0  0
   14.5349  -16.4425   21.5645 C   0  0  0  0  0  0  0  0  0  0  0  0
   15.9065  -16.3092   21.7646 O   0  0  0  0  0  0  0  0  0  0  0  0
   14.0871  -16.5842   20.3942 O   0  0  0  0  0  0  0  0  0  0  0  0
  2 13  1  0
  2  1  1  1
  3  2  1  0
  3  4  1  0
  4  5  2  0
  4 12  1  0
  5  6  1  0
  6  7  1  0
  7  8  2  0
  8  9  1  0
 10  9  2  0
 11 10  1  0
 12 11  2  0
 12  7  1  0
 13 21  1  0
 14 13  2  0
 16 15  1  0
 17 16  2  0
 18 16  1  0
 19 18  1  0
 20 19  1  1
 21 20  1  0
 22 26  1  0
 22 20  1  0
 23 22  2  0
 25 24  1  6
 25 26  1  0
 25 27  1  0
 27 29  2  0
 27 28  1  0
M  END
$$$$
