WQA.pdb
     RDKit          3D

 29 30  0  0  1  0  0  0  0  0999 V2000
    6.1533  -17.5121   23.8003 N   0  0  0  0  0  0  0  0  0  0  0  0
    7.2073  -16.5681   23.5920 C   0  0  1  0  0  0  0  0  0  0  0  0
    7.9636  -16.2113   24.8582 C   0  0  0  0  0  0  0  0  0  0  0  0
    7.1774  -15.2262   25.6370 C   0  0  0  0  0  0  0  0  0  0  0  0
    6.0700  -15.4770   26.4341 C   0  0  0  0  0  0  0  0  0  0  0  0
    5.6061  -14.3273   26.9627 N   0  0  0  0  0  0  0  0  0  0  0  0
    6.3806  -13.3164   26.5357 C   0  0  0  0  0  0  0  0  0  0  0  0
    6.3402  -11.9545   26.7854 C   0  0  0  0  0  0  0  0  0  0  0  0
    7.2717  -11.1020   26.2246 C   0  0  0  0  0  0  0  0  0  0  0  0
    8.2484  -11.6240   25.4084 C   0  0  0  0  0  0  0  0  0  0  0  0
    8.2819  -12.9962   25.1617 C   0  0  0  0  0  0  0  0  0  0  0  0
    7.3653  -13.8656   25.7076 C   0  0  0  0  0  0  0  0  0  0  0  0
    8.1372  -17.0177   22.5242 C   0  0  0  0  0  0  0  0  0  0  0  0
    8.3883  -18.2576   22.3541 O   0  0  0  0  0  0  0  0  0  0  0  0
    9.3539  -15.9045   16.9055 N   0  0  0  0  0  0  0  0  0  0  0  0
    8.2898  -15.3077   17.6202 C   0  0  0  0  0  0  0  0  0  0  0  0
    7.2385  -14.9958   17.0176 O   0  0  0  0  0  0  0  0  0  0  0  0
    8.5286  -15.0981   19.0755 C   0  0  0  0  0  0  0  0  0  0  0  0
    9.8389  -15.5358   19.5761 C   0  0  0  0  0  0  0  0  0  0  0  0
    9.7973  -16.5112   20.7158 C   0  0  2  0  0  0  0  0  0  0  0  0
    8.7605  -16.0684   21.6726 N   0  0  0  0  0  0  0  0  0  0  0  0
   11.0347  -16.6129   21.4839 C   0  0  0  0  0  0  0  0  0  0  0  0
   12.1162  -16.9486   20.9011 O   0  0  0  0  0  0  0  0  0  0  0  0
   12.4415  -16.0068   24.9696 C   0  0  0  0  0  0  0  0  0  0  0  0
   12.4656  -16.5319   23.5518 C   0  0  2  0  0  0  0  0  0  0  0  0
   11.1882  -16.3654   22.8778 N   0  0  0  0  0  0  0  0  0  0  0  0
   12.8148  -17.9746   23.6212 C   0  0  0  0  0  0  0  0  0  0  0  0
   11.9382  -18.9757   23.2110 O   0  0  0  0  0  0  0  0  0  0  0  0
   13.9509  -18.2872   24.0705 O   0  0  0  0  0  0  0  0  0  0  0  0
  2 13  1  0
  2  1  1  1
  3  2  1  0
  3  4  1  0
  4  5  2  0
  4 12  1  0
  5  6  1  0
  6  7  1  0
  7  8  2  0
  8  9  1  0
 10  9  2  0
 11 10  1  0
 12 11  2  0
 12  7  1  0
 13 21  1  0
 14 13  2  0
 16 15  1  0
 17 16  2  0
 18 16  1  0
 19 18  1  0
 20 19  1  6
 21 20  1  0
 22 26  1  0
 22 20  1  0
 23 22  2  0
 25 24  1  1
 25 26  1  0
 25 27  1  0
 27 29  2  0
 27 28  1  0
M  END
$$$$
