WQA.pdb
     RDKit          3D

 29 30  0  0  1  0  0  0  0  0999 V2000
    6.0028  -16.5580   24.1796 N   0  0  0  0  0  0  0  0  0  0  0  0
    7.4057  -16.4467   24.4343 C   0  0  1  0  0  0  0  0  0  0  0  0
    7.7602  -16.4736   25.9095 C   0  0  0  0  0  0  0  0  0  0  0  0
    8.1110  -15.1044   26.3539 C   0  0  0  0  0  0  0  0  0  0  0  0
    9.2782  -14.6995   26.9847 C   0  0  0  0  0  0  0  0  0  0  0  0
    9.2260  -13.3812   27.2603 N   0  0  0  0  0  0  0  0  0  0  0  0
    8.0498  -12.8992   26.8262 C   0  0  0  0  0  0  0  0  0  0  0  0
    7.5068  -11.6253   26.8581 C   0  0  0  0  0  0  0  0  0  0  0  0
    6.2556  -11.3735   26.3288 C   0  0  0  0  0  0  0  0  0  0  0  0
    5.5483  -12.4098   25.7646 C   0  0  0  0  0  0  0  0  0  0  0  0
    6.1019  -13.6896   25.7369 C   0  0  0  0  0  0  0  0  0  0  0  0
    7.3454  -13.9660   26.2581 C   0  0  0  0  0  0  0  0  0  0  0  0
    8.1781  -17.4683   23.6815 C   0  0  0  0  0  0  0  0  0  0  0  0
    7.7157  -18.6462   23.5134 O   0  0  0  0  0  0  0  0  0  0  0  0
    8.5288  -17.5737   18.3941 N   0  0  0  0  0  0  0  0  0  0  0  0
    9.1876  -16.4892   19.0180 C   0  0  0  0  0  0  0  0  0  0  0  0
    9.0206  -15.3294   18.5794 O   0  0  0  0  0  0  0  0  0  0  0  0
   10.0500  -16.8417   20.1803 C   0  0  0  0  0  0  0  0  0  0  0  0
    9.6716  -18.0606   20.9085 C   0  0  0  0  0  0  0  0  0  0  0  0
   10.1714  -18.1455   22.3209 C   0  0  2  0  0  0  0  0  0  0  0  0
    9.4472  -17.1450   23.1341 N   0  0  0  0  0  0  0  0  0  0  0  0
   11.5908  -17.8484   22.4901 C   0  0  0  0  0  0  0  0  0  0  0  0
   12.4496  -18.4092   21.7352 O   0  0  0  0  0  0  0  0  0  0  0  0
   14.0580  -15.3888   23.5639 C   0  0  0  0  0  0  0  0  0  0  0  0
   13.5996  -16.8291   23.6106 C   0  0  2  0  0  0  0  0  0  0  0  0
   12.1611  -16.9581   23.4439 N   0  0  0  0  0  0  0  0  0  0  0  0
   14.0057  -17.3791   24.9300 C   0  0  0  0  0  0  0  0  0  0  0  0
   15.3388  -17.4772   25.3198 O   0  0  0  0  0  0  0  0  0  0  0  0
   13.0973  -17.7666   25.7141 O   0  0  0  0  0  0  0  0  0  0  0  0
  2 13  1  0
  2  1  1  1
  3  2  1  0
  3  4  1  0
  4  5  2  0
  4 12  1  0
  5  6  1  0
  6  7  1  0
  7  8  2  0
  8  9  1  0
 10  9  2  0
 11 10  1  0
 12 11  2  0
 12  7  1  0
 13 21  1  0
 14 13  2  0
 16 15  1  0
 17 16  2  0
 18 16  1  0
 19 18  1  0
 20 19  1  6
 21 20  1  0
 22 26  1  0
 22 20  1  0
 23 22  2  0
 25 24  1  1
 25 26  1  0
 25 27  1  0
 27 29  2  0
 27 28  1  0
M  END
$$$$
