WQA.pdb
     RDKit          3D

 29 30  0  0  1  0  0  0  0  0999 V2000
    6.1979  -18.2490   24.6979 N   0  0  0  0  0  0  0  0  0  0  0  0
    6.7000  -16.9780   24.2761 C   0  0  1  0  0  0  0  0  0  0  0  0
    7.5600  -16.2873   25.3182 C   0  0  0  0  0  0  0  0  0  0  0  0
    6.8408  -15.1010   25.8383 C   0  0  0  0  0  0  0  0  0  0  0  0
    5.5884  -15.0726   26.4342 C   0  0  0  0  0  0  0  0  0  0  0  0
    5.2530  -13.8071   26.7544 N   0  0  0  0  0  0  0  0  0  0  0  0
    6.2549  -12.9921   26.3854 C   0  0  0  0  0  0  0  0  0  0  0  0
    6.4147  -11.6203   26.4920 C   0  0  0  0  0  0  0  0  0  0  0  0
    7.5633  -11.0019   26.0366 C   0  0  0  0  0  0  0  0  0  0  0  0
    8.5555  -11.7692   25.4714 C   0  0  0  0  0  0  0  0  0  0  0  0
    8.3867  -13.1497   25.3675 C   0  0  0  0  0  0  0  0  0  0  0  0
    7.2520  -13.7888   25.8126 C   0  0  0  0  0  0  0  0  0  0  0  0
    7.4140  -17.0789   22.9772 C   0  0  0  0  0  0  0  0  0  0  0  0
    7.9100  -18.1885   22.5872 O   0  0  0  0  0  0  0  0  0  0  0  0
    7.7813  -12.4901   18.5039 N   0  0  0  0  0  0  0  0  0  0  0  0
    8.2526  -13.6498   17.8464 C   0  0  0  0  0  0  0  0  0  0  0  0
    8.3094  -13.6720   16.5966 O   0  0  0  0  0  0  0  0  0  0  0  0
    8.6511  -14.7772   18.7347 C   0  0  0  0  0  0  0  0  0  0  0  0
    7.9272  -14.8705   20.0101 C   0  0  0  0  0  0  0  0  0  0  0  0
    8.2970  -16.0407   20.8736 C   0  0  2  0  0  0  0  0  0  0  0  0
    7.5527  -15.9360   22.1470 N   0  0  0  0  0  0  0  0  0  0  0  0
    9.7087  -16.1138   21.2390 C   0  0  0  0  0  0  0  0  0  0  0  0
   10.5888  -16.2865   20.3349 O   0  0  0  0  0  0  0  0  0  0  0  0
   12.0908  -15.2609   24.0114 C   0  0  0  0  0  0  0  0  0  0  0  0
   11.6806  -16.0691   22.8010 C   0  0  2  0  0  0  0  0  0  0  0  0
   10.2496  -16.0056   22.5518 N   0  0  0  0  0  0  0  0  0  0  0  0
   12.0869  -17.4764   23.0514 C   0  0  0  0  0  0  0  0  0  0  0  0
   13.4187  -17.8533   23.2035 O   0  0  0  0  0  0  0  0  0  0  0  0
   11.1800  -18.3494   23.1263 O   0  0  0  0  0  0  0  0  0  0  0  0
  2 13  1  0
  2  1  1  1
  3  2  1  0
  3  4  1  0
  4  5  2  0
  4 12  1  0
  5  6  1  0
  6  7  1  0
  7  8  2  0
  8  9  1  0
 10  9  2  0
 11 10  1  0
 12 11  2  0
 12  7  1  0
 13 21  1  0
 14 13  2  0
 16 15  1  0
 17 16  2  0
 18 16  1  0
 19 18  1  0
 20 19  1  6
 21 20  1  0
 22 26  1  0
 22 20  1  0
 23 22  2  0
 25 24  1  1
 25 26  1  0
 25 27  1  0
 27 29  2  0
 27 28  1  0
M  END
$$$$
