WQA.pdb
     RDKit          3D

 29 30  0  0  1  0  0  0  0  0999 V2000
    6.2779  -17.5429   24.0010 N   0  0  0  0  0  0  0  0  0  0  0  0
    7.1335  -16.4774   23.5790 C   0  0  1  0  0  0  0  0  0  0  0  0
    7.9790  -15.8968   24.6973 C   0  0  0  0  0  0  0  0  0  0  0  0
    7.1411  -15.0043   25.5318 C   0  0  0  0  0  0  0  0  0  0  0  0
    6.0551  -15.3635   26.3167 C   0  0  0  0  0  0  0  0  0  0  0  0
    5.5278  -14.2741   26.9098 N   0  0  0  0  0  0  0  0  0  0  0  0
    6.2393  -13.1973   26.5376 C   0  0  0  0  0  0  0  0  0  0  0  0
    6.1208  -11.8562   26.8630 C   0  0  0  0  0  0  0  0  0  0  0  0
    6.9974  -10.9206   26.3480 C   0  0  0  0  0  0  0  0  0  0  0  0
    7.9982  -11.3382   25.5015 C   0  0  0  0  0  0  0  0  0  0  0  0
    8.1105  -12.6903   25.1787 C   0  0  0  0  0  0  0  0  0  0  0  0
    7.2495  -13.6410   25.6777 C   0  0  0  0  0  0  0  0  0  0  0  0
    7.9788  -16.8824   22.4265 C   0  0  0  0  0  0  0  0  0  0  0  0
    8.2584  -18.1105   22.2192 O   0  0  0  0  0  0  0  0  0  0  0  0
    9.2395  -15.4489   16.8004 N   0  0  0  0  0  0  0  0  0  0  0  0
    8.1056  -15.0078   17.5209 C   0  0  0  0  0  0  0  0  0  0  0  0
    7.0249  -14.8206   16.9189 O   0  0  0  0  0  0  0  0  0  0  0  0
    8.3114  -14.7993   18.9815 C   0  0  0  0  0  0  0  0  0  0  0  0
    9.6164  -15.2217   19.5082 C   0  0  0  0  0  0  0  0  0  0  0  0
    9.5661  -16.2623   20.5883 C   0  0  2  0  0  0  0  0  0  0  0  0
    8.4877  -15.9029   21.5341 N   0  0  0  0  0  0  0  0  0  0  0  0
   10.7811  -16.3762   21.3899 C   0  0  0  0  0  0  0  0  0  0  0  0
   11.9070  -16.0684   20.8805 O   0  0  0  0  0  0  0  0  0  0  0  0
   12.2526  -16.0990   24.6529 C   0  0  0  0  0  0  0  0  0  0  0  0
   12.1396  -16.9706   23.4223 C   0  0  2  0  0  0  0  0  0  0  0  0
   10.8639  -16.8085   22.7441 N   0  0  0  0  0  0  0  0  0  0  0  0
   12.3005  -18.3805   23.8636 C   0  0  0  0  0  0  0  0  0  0  0  0
   13.4614  -18.8428   24.4779 O   0  0  0  0  0  0  0  0  0  0  0  0
   11.3409  -19.1748   23.6673 O   0  0  0  0  0  0  0  0  0  0  0  0
  2 13  1  0
  2  1  1  1
  3  2  1  0
  3  4  1  0
  4  5  2  0
  4 12  1  0
  5  6  1  0
  6  7  1  0
  7  8  2  0
  8  9  1  0
 10  9  2  0
 11 10  1  0
 12 11  2  0
 12  7  1  0
 13 21  1  0
 14 13  2  0
 16 15  1  0
 17 16  2  0
 18 16  1  0
 19 18  1  0
 20 19  1  6
 21 20  1  0
 22 26  1  0
 22 20  1  0
 23 22  2  0
 25 24  1  1
 25 26  1  0
 25 27  1  0
 27 29  2  0
 27 28  1  0
M  END
$$$$
