WQA.pdb
     RDKit          3D

 29 30  0  0  1  0  0  0  0  0999 V2000
    6.5784  -18.0073   24.4331 N   0  0  0  0  0  0  0  0  0  0  0  0
    7.4795  -17.0165   23.9312 C   0  0  1  0  0  0  0  0  0  0  0  0
    8.1491  -16.1965   25.0183 C   0  0  0  0  0  0  0  0  0  0  0  0
    7.1801  -15.2140   25.5574 C   0  0  0  0  0  0  0  0  0  0  0  0
    5.9531  -15.4812   26.1470 C   0  0  0  0  0  0  0  0  0  0  0  0
    5.3402  -14.3308   26.4899 N   0  0  0  0  0  0  0  0  0  0  0  0
    6.1325  -13.3034   26.1423 C   0  0  0  0  0  0  0  0  0  0  0  0
    5.9782  -11.9334   26.2764 C   0  0  0  0  0  0  0  0  0  0  0  0
    6.9578  -11.0625   25.8394 C   0  0  0  0  0  0  0  0  0  0  0  0
    8.0982  -11.5743   25.2648 C   0  0  0  0  0  0  0  0  0  0  0  0
    8.2456  -12.9549   25.1331 C   0  0  0  0  0  0  0  0  0  0  0  0
    7.2842  -13.8426   25.5595 C   0  0  0  0  0  0  0  0  0  0  0  0
    8.4864  -17.6111   23.0150 C   0  0  0  0  0  0  0  0  0  0  0  0
    8.7553  -18.8583   23.0582 O   0  0  0  0  0  0  0  0  0  0  0  0
    7.4289  -16.6855   17.6317 N   0  0  0  0  0  0  0  0  0  0  0  0
    8.5257  -15.8753   18.0059 C   0  0  0  0  0  0  0  0  0  0  0  0
    9.0414  -15.1059   17.1647 O   0  0  0  0  0  0  0  0  0  0  0  0
    8.9813  -16.0192   19.4168 C   0  0  0  0  0  0  0  0  0  0  0  0
    9.6216  -17.2983   19.7527 C   0  0  0  0  0  0  0  0  0  0  0  0
   10.1513  -17.4025   21.1529 C   0  0  2  0  0  0  0  0  0  0  0  0
    9.1652  -16.7953   22.0724 N   0  0  0  0  0  0  0  0  0  0  0  0
   11.4076  -16.6971   21.3894 C   0  0  0  0  0  0  0  0  0  0  0  0
   12.3266  -16.7275   20.5083 O   0  0  0  0  0  0  0  0  0  0  0  0
   12.1957  -17.6211   24.2861 C   0  0  0  0  0  0  0  0  0  0  0  0
   12.7040  -16.4159   23.5272 C   0  0  2  0  0  0  0  0  0  0  0  0
   11.7463  -15.9361   22.5443 N   0  0  0  0  0  0  0  0  0  0  0  0
   13.9630  -16.8200   22.8490 C   0  0  0  0  0  0  0  0  0  0  0  0
   13.9726  -17.5991   21.6949 O   0  0  0  0  0  0  0  0  0  0  0  0
   15.0544  -16.4349   23.3497 O   0  0  0  0  0  0  0  0  0  0  0  0
  2 13  1  0
  2  1  1  1
  3  2  1  0
  3  4  1  0
  4  5  2  0
  4 12  1  0
  5  6  1  0
  6  7  1  0
  7  8  2  0
  8  9  1  0
 10  9  2  0
 11 10  1  0
 12 11  2  0
 12  7  1  0
 13 21  1  0
 14 13  2  0
 16 15  1  0
 17 16  2  0
 18 16  1  0
 19 18  1  0
 20 19  1  6
 21 20  1  0
 22 26  1  0
 22 20  1  0
 23 22  2  0
 25 24  1  6
 25 26  1  0
 25 27  1  0
 27 29  2  0
 27 28  1  0
M  END
$$$$
