WQA.pdb
     RDKit          3D

 29 30  0  0  1  0  0  0  0  0999 V2000
    6.3135  -18.3447   24.5347 N   0  0  0  0  0  0  0  0  0  0  0  0
    6.8303  -17.0437   24.2420 C   0  0  1  0  0  0  0  0  0  0  0  0
    7.6457  -16.4444   25.3727 C   0  0  0  0  0  0  0  0  0  0  0  0
    6.9276  -15.2728   25.9266 C   0  0  0  0  0  0  0  0  0  0  0  0
    5.6900  -15.2655   26.5532 C   0  0  0  0  0  0  0  0  0  0  0  0
    5.3498  -14.0081   26.8990 N   0  0  0  0  0  0  0  0  0  0  0  0
    6.3340  -13.1778   26.5169 C   0  0  0  0  0  0  0  0  0  0  0  0
    6.4826  -11.8060   26.6386 C   0  0  0  0  0  0  0  0  0  0  0  0
    7.6134  -11.1695   26.1639 C   0  0  0  0  0  0  0  0  0  0  0  0
    8.5991  -11.9186   25.5641 C   0  0  0  0  0  0  0  0  0  0  0  0
    8.4417  -13.2993   25.4453 C   0  0  0  0  0  0  0  0  0  0  0  0
    7.3247  -13.9562   25.9090 C   0  0  0  0  0  0  0  0  0  0  0  0
    7.5970  -17.0365   22.9696 C   0  0  0  0  0  0  0  0  0  0  0  0
    8.1208  -18.1081   22.5146 O   0  0  0  0  0  0  0  0  0  0  0  0
    7.1680  -12.8720   18.3472 N   0  0  0  0  0  0  0  0  0  0  0  0
    8.3420  -13.5435   17.9347 C   0  0  0  0  0  0  0  0  0  0  0  0
    8.7857  -13.3598   16.7793 O   0  0  0  0  0  0  0  0  0  0  0  0
    8.9626  -14.4392   18.9503 C   0  0  0  0  0  0  0  0  0  0  0  0
    8.1974  -14.6226   20.1912 C   0  0  0  0  0  0  0  0  0  0  0  0
    8.5779  -15.8224   21.0083 C   0  0  2  0  0  0  0  0  0  0  0  0
    7.7561  -15.8308   22.2376 N   0  0  0  0  0  0  0  0  0  0  0  0
    9.9678  -15.8468   21.4549 C   0  0  0  0  0  0  0  0  0  0  0  0
   10.9089  -15.8376   20.5969 O   0  0  0  0  0  0  0  0  0  0  0  0
   12.0831  -15.3241   24.5395 C   0  0  0  0  0  0  0  0  0  0  0  0
   11.8368  -15.8388   23.1390 C   0  0  2  0  0  0  0  0  0  0  0  0
   10.4227  -15.8772   22.8039 N   0  0  0  0  0  0  0  0  0  0  0  0
   12.4101  -17.2077   23.0646 C   0  0  0  0  0  0  0  0  0  0  0  0
   13.7521  -17.4706   23.3272 O   0  0  0  0  0  0  0  0  0  0  0  0
   11.6395  -18.1553   22.7508 O   0  0  0  0  0  0  0  0  0  0  0  0
  2 13  1  0
  2  1  1  1
  3  2  1  0
  3  4  1  0
  4  5  2  0
  4 12  1  0
  5  6  1  0
  6  7  1  0
  7  8  2  0
  8  9  1  0
 10  9  2  0
 11 10  1  0
 12 11  2  0
 12  7  1  0
 13 21  1  0
 14 13  2  0
 16 15  1  0
 17 16  2  0
 18 16  1  0
 19 18  1  0
 20 19  1  1
 21 20  1  0
 22 26  1  0
 22 20  1  0
 23 22  2  0
 25 24  1  1
 25 26  1  0
 25 27  1  0
 27 29  2  0
 27 28  1  0
M  END
$$$$
