WQA.pdb
     RDKit          3D

 29 30  0  0  1  0  0  0  0  0999 V2000
    8.8616  -16.5324   24.3503 N   0  0  0  0  0  0  0  0  0  0  0  0
    7.7512  -16.7563   23.4773 C   0  0  1  0  0  0  0  0  0  0  0  0
    6.8185  -15.5649   23.3614 C   0  0  0  0  0  0  0  0  0  0  0  0
    6.5189  -15.0440   24.7156 C   0  0  0  0  0  0  0  0  0  0  0  0
    5.6144  -15.5594   25.6325 C   0  0  0  0  0  0  0  0  0  0  0  0
    5.5965  -14.8010   26.7465 N   0  0  0  0  0  0  0  0  0  0  0  0
    6.4698  -13.7922   26.5919 C   0  0  0  0  0  0  0  0  0  0  0  0
    6.8333  -12.7505   27.4294 C   0  0  0  0  0  0  0  0  0  0  0  0
    7.7812  -11.8240   27.0397 C   0  0  0  0  0  0  0  0  0  0  0  0
    8.3658  -11.9476   25.8005 C   0  0  0  0  0  0  0  0  0  0  0  0
    7.9941  -12.9991   24.9631 C   0  0  0  0  0  0  0  0  0  0  0  0
    7.0520  -13.9339   25.3279 C   0  0  0  0  0  0  0  0  0  0  0  0
    8.1969  -17.2170   22.1371 C   0  0  0  0  0  0  0  0  0  0  0  0
    7.3672  -17.7220   21.3089 O   0  0  0  0  0  0  0  0  0  0  0  0
    8.4456  -14.8201   17.5728 N   0  0  0  0  0  0  0  0  0  0  0  0
    8.2458  -14.4575   18.9249 C   0  0  0  0  0  0  0  0  0  0  0  0
    7.6742  -13.3784   19.1977 O   0  0  0  0  0  0  0  0  0  0  0  0
    8.7532  -15.4286   19.9341 C   0  0  0  0  0  0  0  0  0  0  0  0
    9.4467  -16.6059   19.3936 C   0  0  0  0  0  0  0  0  0  0  0  0
    9.9900  -17.5574   20.4190 C   0  0  2  0  0  0  0  0  0  0  0  0
    9.5595  -17.0987   21.7572 N   0  0  0  0  0  0  0  0  0  0  0  0
   11.4468  -17.6385   20.4722 C   0  0  0  0  0  0  0  0  0  0  0  0
   12.0977  -18.0201   19.4463 O   0  0  0  0  0  0  0  0  0  0  0  0
   13.8428  -19.2200   21.5147 C   0  0  0  0  0  0  0  0  0  0  0  0
   13.6674  -17.7243   21.6518 C   0  0  2  0  0  0  0  0  0  0  0  0
   12.2716  -17.3223   21.5891 N   0  0  0  0  0  0  0  0  0  0  0  0
   14.4258  -17.0874   20.5440 C   0  0  0  0  0  0  0  0  0  0  0  0
   15.8104  -17.1862   20.4335 O   0  0  0  0  0  0  0  0  0  0  0  0
   13.7768  -16.4372   19.6802 O   0  0  0  0  0  0  0  0  0  0  0  0
  2 13  1  0
  2  1  1  1
  3  2  1  0
  3  4  1  0
  4  5  2  0
  4 12  1  0
  5  6  1  0
  6  7  1  0
  7  8  2  0
  8  9  1  0
 10  9  2  0
 11 10  1  0
 12 11  2  0
 12  7  1  0
 13 21  1  0
 14 13  2  0
 16 15  1  0
 17 16  2  0
 18 16  1  0
 19 18  1  0
 20 19  1  6
 21 20  1  0
 22 26  1  0
 22 20  1  0
 23 22  2  0
 25 24  1  6
 25 26  1  0
 25 27  1  0
 27 29  2  0
 27 28  1  0
M  END
$$$$
