WQA.pdb
     RDKit          3D

 29 30  0  0  1  0  0  0  0  0999 V2000
    6.8643  -17.5042   25.2308 N   0  0  0  0  0  0  0  0  0  0  0  0
    7.7568  -16.4906   24.7600 C   0  0  1  0  0  0  0  0  0  0  0  0
    8.0042  -15.3825   25.7668 C   0  0  0  0  0  0  0  0  0  0  0  0
    6.7903  -14.5400   25.8759 C   0  0  0  0  0  0  0  0  0  0  0  0
    5.4798  -14.9705   26.0228 C   0  0  0  0  0  0  0  0  0  0  0  0
    4.6435  -13.9142   26.0601 N   0  0  0  0  0  0  0  0  0  0  0  0
    5.3685  -12.7896   25.9418 C   0  0  0  0  0  0  0  0  0  0  0  0
    5.0026  -11.4538   25.9273 C   0  0  0  0  0  0  0  0  0  0  0  0
    5.9529  -10.4589   25.7997 C   0  0  0  0  0  0  0  0  0  0  0  0
    7.2778  -10.8115   25.6865 C   0  0  0  0  0  0  0  0  0  0  0  0
    7.6378  -12.1588   25.7016 C   0  0  0  0  0  0  0  0  0  0  0  0
    6.7103  -13.1680   25.8265 C   0  0  0  0  0  0  0  0  0  0  0  0
    9.0372  -17.0724   24.2818 C   0  0  0  0  0  0  0  0  0  0  0  0
    9.3745  -18.2621   24.5984 O   0  0  0  0  0  0  0  0  0  0  0  0
   15.3968  -15.4329   20.7934 N   0  0  0  0  0  0  0  0  0  0  0  0
   13.9891  -15.3403   20.8892 C   0  0  0  0  0  0  0  0  0  0  0  0
   13.3631  -14.5986   20.0996 O   0  0  0  0  0  0  0  0  0  0  0  0
   13.3607  -16.1635   21.9600 C   0  0  0  0  0  0  0  0  0  0  0  0
   11.9407  -15.8917   22.2225 C   0  0  0  0  0  0  0  0  0  0  0  0
   11.3224  -16.7109   23.3173 C   0  0  2  0  0  0  0  0  0  0  0  0
    9.9066  -16.3088   23.4596 N   0  0  0  0  0  0  0  0  0  0  0  0
   11.9247  -16.5312   24.6352 C   0  0  0  0  0  0  0  0  0  0  0  0
   13.1244  -16.9066   24.8397 O   0  0  0  0  0  0  0  0  0  0  0  0
   11.4303  -14.8031   27.9544 C   0  0  0  0  0  0  0  0  0  0  0  0
   11.9621  -15.9108   27.0731 C   0  0  2  0  0  0  0  0  0  0  0  0
   11.3026  -15.9532   25.7782 N   0  0  0  0  0  0  0  0  0  0  0  0
   11.7422  -17.1920   27.7931 C   0  0  0  0  0  0  0  0  0  0  0  0
   10.9957  -18.2348   27.2508 O   0  0  0  0  0  0  0  0  0  0  0  0
   12.2575  -17.3238   28.9365 O   0  0  0  0  0  0  0  0  0  0  0  0
  2 13  1  0
  2  1  1  1
  3  2  1  0
  3  4  1  0
  4  5  2  0
  4 12  1  0
  5  6  1  0
  6  7  1  0
  7  8  2  0
  8  9  1  0
 10  9  2  0
 11 10  1  0
 12 11  2  0
 12  7  1  0
 13 21  1  0
 14 13  2  0
 16 15  1  0
 17 16  2  0
 18 16  1  0
 19 18  1  0
 20 19  1  6
 21 20  1  0
 22 26  1  0
 22 20  1  0
 23 22  2  0
 25 24  1  1
 25 26  1  0
 25 27  1  0
 27 29  2  0
 27 28  1  0
M  END
$$$$
