QCC.pdb
     RDKit          3D

 22 21  0  0  1  0  0  0  0  0999 V2000
    7.4181  -11.7939   18.6918 N   0  0  0  0  0  0  0  0  0  0  0  0
    7.2820  -13.1363   19.1787 C   0  0  0  0  0  0  0  0  0  0  0  0
    6.4184  -13.3355   20.0546 O   0  0  0  0  0  0  0  0  0  0  0  0
    8.1647  -14.1551   18.6067 C   0  0  0  0  0  0  0  0  0  0  0  0
    9.0831  -13.7198   17.5323 C   0  0  0  0  0  0  0  0  0  0  0  0
    9.9666  -14.7346   16.9177 C   0  0  2  0  0  0  0  0  0  0  0  0
    9.3024  -15.7310   16.1129 N   0  0  0  0  0  0  0  0  0  0  0  0
   10.9330  -15.3416   17.8752 C   0  0  0  0  0  0  0  0  0  0  0  0
   10.6760  -16.4889   18.3216 O   0  0  0  0  0  0  0  0  0  0  0  0
   12.0949  -14.6956   18.2895 N   0  0  0  0  0  0  0  0  0  0  0  0
   13.0908  -15.2650   19.1968 C   0  0  1  0  0  0  0  0  0  0  0  0
   14.3795  -14.4889   19.1089 C   0  0  0  0  0  0  0  0  0  0  0  0
   15.6001  -15.2144   20.2169 S   0  0  0  0  0  0  0  0  0  0  0  0
   12.4946  -15.2806   20.5328 C   0  0  0  0  0  0  0  0  0  0  0  0
   11.9620  -14.1981   20.9672 O   0  0  0  0  0  0  0  0  0  0  0  0
   12.4345  -16.3767   21.4197 N   0  0  0  0  0  0  0  0  0  0  0  0
   11.9442  -16.1961   22.7758 C   0  0  1  0  0  0  0  0  0  0  0  0
   10.4993  -16.6210   22.9159 C   0  0  0  0  0  0  0  0  0  0  0  0
    9.4875  -15.1359   22.5781 S   0  0  0  0  0  0  0  0  0  0  0  0
   12.7925  -16.9565   23.7230 C   0  0  0  0  0  0  0  0  0  0  0  0
   13.6978  -17.6850   23.2759 O   0  0  0  0  0  0  0  0  0  0  0  0
   12.6016  -16.8756   25.0914 O   0  0  0  0  0  0  0  0  0  0  0  0
  1  2  1  0
  2  3  2  0
  4  5  1  0
  4  2  1  0
  6  8  1  0
  6  5  1  0
  6  7  1  1
  8 10  1  0
  8  9  2  0
 10 11  1  0
 11 14  1  0
 11 12  1  1
 13 12  1  0
 14 16  1  0
 14 15  2  0
 16 17  1  0
 17 20  1  0
 17 18  1  6
 19 18  1  0
 20 22  1  0
 21 20  2  0
M  END
$$$$
