QCC.pdb
     RDKit          3D

 22 21  0  0  1  0  0  0  0  0999 V2000
    7.2979  -13.5479   15.3648 N   0  0  0  0  0  0  0  0  0  0  0  0
    8.4921  -13.9291   16.0621 C   0  0  0  0  0  0  0  0  0  0  0  0
    9.2321  -14.7615   15.5034 O   0  0  0  0  0  0  0  0  0  0  0  0
    8.7402  -13.3093   17.3654 C   0  0  0  0  0  0  0  0  0  0  0  0
    7.9622  -13.8252   18.5123 C   0  0  0  0  0  0  0  0  0  0  0  0
    8.4645  -15.0293   19.2096 C   0  0  2  0  0  0  0  0  0  0  0  0
    7.6014  -16.1841   19.1550 N   0  0  0  0  0  0  0  0  0  0  0  0
    8.9503  -14.7583   20.5915 C   0  0  0  0  0  0  0  0  0  0  0  0
    9.9132  -13.9614   20.7303 O   0  0  0  0  0  0  0  0  0  0  0  0
    8.3861  -15.3459   21.7208 N   0  0  0  0  0  0  0  0  0  0  0  0
    8.9225  -15.2372   23.0772 C   0  0  1  0  0  0  0  0  0  0  0  0
    7.7981  -15.1391   24.0756 C   0  0  0  0  0  0  0  0  0  0  0  0
    6.8451  -13.6418   23.7692 S   0  0  0  0  0  0  0  0  0  0  0  0
    9.8037  -16.3869   23.2833 C   0  0  0  0  0  0  0  0  0  0  0  0
   10.1331  -17.0844   22.2590 O   0  0  0  0  0  0  0  0  0  0  0  0
   10.3483  -16.8264   24.5089 N   0  0  0  0  0  0  0  0  0  0  0  0
   11.4868  -17.7295   24.5230 C   0  0  1  0  0  0  0  0  0  0  0  0
   12.6600  -17.1723   23.7477 C   0  0  0  0  0  0  0  0  0  0  0  0
   13.8467  -18.5484   23.5439 S   0  0  0  0  0  0  0  0  0  0  0  0
   11.8882  -18.0114   25.9209 C   0  0  0  0  0  0  0  0  0  0  0  0
   11.6772  -17.1525   26.7973 O   0  0  0  0  0  0  0  0  0  0  0  0
   12.4914  -19.2059   26.2742 O   0  0  0  0  0  0  0  0  0  0  0  0
  1  2  1  0
  2  3  2  0
  4  5  1  0
  4  2  1  0
  6  8  1  0
  6  5  1  0
  6  7  1  1
  8 10  1  0
  8  9  2  0
 10 11  1  0
 11 14  1  0
 11 12  1  1
 13 12  1  0
 14 16  1  0
 14 15  2  0
 16 17  1  0
 17 20  1  0
 17 18  1  6
 19 18  1  0
 20 22  1  0
 21 20  2  0
M  END
$$$$
