QCC.pdb
     RDKit          3D

 22 21  0  0  1  0  0  0  0  0999 V2000
   10.4418  -17.1529   18.0629 N   0  0  0  0  0  0  0  0  0  0  0  0
   11.3110  -17.5294   19.1402 C   0  0  0  0  0  0  0  0  0  0  0  0
   12.4954  -17.7838   18.8488 O   0  0  0  0  0  0  0  0  0  0  0  0
   10.7356  -17.5811   20.4857 C   0  0  0  0  0  0  0  0  0  0  0  0
    9.9526  -16.4063   20.9258 C   0  0  0  0  0  0  0  0  0  0  0  0
    8.9830  -16.5885   22.0280 C   0  0  2  0  0  0  0  0  0  0  0  0
    7.6041  -16.7260   21.6261 N   0  0  0  0  0  0  0  0  0  0  0  0
    9.1480  -15.6056   23.1352 C   0  0  0  0  0  0  0  0  0  0  0  0
   10.3158  -15.2459   23.4326 O   0  0  0  0  0  0  0  0  0  0  0  0
    8.0726  -15.0767   23.8442 N   0  0  0  0  0  0  0  0  0  0  0  0
    8.1837  -14.1022   24.9291 C   0  0  1  0  0  0  0  0  0  0  0  0
    6.8378  -13.4893   25.2186 C   0  0  0  0  0  0  0  0  0  0  0  0
    6.9228  -12.5335   26.7427 S   0  0  0  0  0  0  0  0  0  0  0  0
    8.7798  -14.7971   26.0704 C   0  0  0  0  0  0  0  0  0  0  0  0
    8.2174  -15.8739   26.4805 O   0  0  0  0  0  0  0  0  0  0  0  0
    9.9317  -14.4108   26.7885 N   0  0  0  0  0  0  0  0  0  0  0  0
   10.3823  -15.1936   27.9270 C   0  0  1  0  0  0  0  0  0  0  0  0
   11.8547  -15.5276   27.8364 C   0  0  0  0  0  0  0  0  0  0  0  0
   12.0852  -16.4313   26.2637 S   0  0  0  0  0  0  0  0  0  0  0  0
   10.1030  -14.4606   29.1838 C   0  0  0  0  0  0  0  0  0  0  0  0
    9.6631  -13.2975   29.1224 O   0  0  0  0  0  0  0  0  0  0  0  0
   10.3197  -15.0386   30.4226 O   0  0  0  0  0  0  0  0  0  0  0  0
  1  2  1  0
  2  3  2  0
  4  5  1  0
  4  2  1  0
  6  8  1  0
  6  5  1  0
  6  7  1  6
  8 10  1  0
  8  9  2  0
 10 11  1  0
 11 14  1  0
 11 12  1  1
 13 12  1  0
 14 16  1  0
 14 15  2  0
 16 17  1  0
 17 20  1  0
 17 18  1  6
 19 18  1  0
 20 22  1  0
 21 20  2  0
M  END
$$$$
