QCC.pdb
     RDKit          3D

 22 21  0  0  1  0  0  0  0  0999 V2000
    6.1449  -18.8284   24.5666 N   0  0  0  0  0  0  0  0  0  0  0  0
    7.3458  -19.1648   23.8579 C   0  0  0  0  0  0  0  0  0  0  0  0
    8.0710  -20.0451   24.3596 O   0  0  0  0  0  0  0  0  0  0  0  0
    7.6159  -18.4495   22.6091 C   0  0  0  0  0  0  0  0  0  0  0  0
    6.7251  -17.3159   22.2795 C   0  0  0  0  0  0  0  0  0  0  0  0
    7.3472  -16.0331   21.8850 C   0  0  2  0  0  0  0  0  0  0  0  0
    8.2899  -16.1089   20.7955 N   0  0  0  0  0  0  0  0  0  0  0  0
    7.8824  -15.2520   23.0351 C   0  0  0  0  0  0  0  0  0  0  0  0
    9.1213  -15.2929   23.2475 O   0  0  0  0  0  0  0  0  0  0  0  0
    7.0740  -14.4884   23.8730 N   0  0  0  0  0  0  0  0  0  0  0  0
    7.5567  -13.6784   24.9911 C   0  0  1  0  0  0  0  0  0  0  0  0
    6.4309  -12.8553   25.5621 C   0  0  0  0  0  0  0  0  0  0  0  0
    6.9857  -12.0295   27.0635 S   0  0  0  0  0  0  0  0  0  0  0  0
    8.1707  -14.5956   25.9515 C   0  0  0  0  0  0  0  0  0  0  0  0
    7.5270  -15.6596   26.2643 O   0  0  0  0  0  0  0  0  0  0  0  0
    9.4212  -14.4421   26.5875 N   0  0  0  0  0  0  0  0  0  0  0  0
    9.8438  -15.3842   27.6101 C   0  0  1  0  0  0  0  0  0  0  0  0
   11.0763  -16.1557   27.1936 C   0  0  0  0  0  0  0  0  0  0  0  0
   11.5194  -17.2270   28.6075 S   0  0  0  0  0  0  0  0  0  0  0  0
   10.0978  -14.6667   28.8812 C   0  0  0  0  0  0  0  0  0  0  0  0
    9.9725  -13.4284   28.9140 O   0  0  0  0  0  0  0  0  0  0  0  0
   10.4708  -15.3407   30.0311 O   0  0  0  0  0  0  0  0  0  0  0  0
  1  2  1  0
  2  3  2  0
  4  5  1  0
  4  2  1  0
  6  8  1  0
  6  5  1  0
  6  7  1  6
  8 10  1  0
  8  9  2  0
 10 11  1  0
 11 14  1  0
 11 12  1  1
 13 12  1  0
 14 16  1  0
 14 15  2  0
 16 17  1  0
 17 20  1  0
 17 18  1  6
 19 18  1  0
 20 22  1  0
 21 20  2  0
M  END
$$$$
