QCC.pdb
     RDKit          3D

 22 21  0  0  1  0  0  0  0  0999 V2000
   12.0690  -14.3796   19.9798 N   0  0  0  0  0  0  0  0  0  0  0  0
   11.6289  -13.5577   18.8897 C   0  0  0  0  0  0  0  0  0  0  0  0
   12.4575  -13.3203   17.9898 O   0  0  0  0  0  0  0  0  0  0  0  0
   10.2485  -13.0705   18.9256 C   0  0  0  0  0  0  0  0  0  0  0  0
    9.3710  -13.6194   19.9819 C   0  0  0  0  0  0  0  0  0  0  0  0
    8.9926  -15.0472   19.9008 C   0  0  2  0  0  0  0  0  0  0  0  0
    8.1194  -15.3972   18.8069 N   0  0  0  0  0  0  0  0  0  0  0  0
    8.5220  -15.6132   21.1959 C   0  0  0  0  0  0  0  0  0  0  0  0
    7.3683  -16.1123   21.2345 O   0  0  0  0  0  0  0  0  0  0  0  0
    9.3006  -15.6109   22.3503 N   0  0  0  0  0  0  0  0  0  0  0  0
    8.9838  -16.3454   23.5748 C   0  0  1  0  0  0  0  0  0  0  0  0
    8.9223  -17.8246   23.2936 C   0  0  0  0  0  0  0  0  0  0  0  0
   10.3778  -18.3241   22.3576 S   0  0  0  0  0  0  0  0  0  0  0  0
    9.9865  -15.9697   24.5718 C   0  0  0  0  0  0  0  0  0  0  0  0
   10.9789  -15.2543   24.1878 O   0  0  0  0  0  0  0  0  0  0  0  0
    9.9866  -16.3101   25.9414 N   0  0  0  0  0  0  0  0  0  0  0  0
   10.0097  -15.2692   26.9553 C   0  0  1  0  0  0  0  0  0  0  0  0
    8.8219  -14.3400   26.8387 C   0  0  0  0  0  0  0  0  0  0  0  0
    9.0183  -13.0810   28.1501 S   0  0  0  0  0  0  0  0  0  0  0  0
   10.0468  -15.8811   28.3040 C   0  0  0  0  0  0  0  0  0  0  0  0
    9.3058  -16.8508   28.5505 O   0  0  0  0  0  0  0  0  0  0  0  0
   10.8852  -15.4000   29.2946 O   0  0  0  0  0  0  0  0  0  0  0  0
  1  2  1  0
  2  3  2  0
  4  5  1  0
  4  2  1  0
  6  8  1  0
  6  5  1  0
  6  7  1  6
  8 10  1  0
  8  9  2  0
 10 11  1  0
 11 14  1  0
 11 12  1  6
 13 12  1  0
 14 16  1  0
 14 15  2  0
 16 17  1  0
 17 20  1  0
 17 18  1  1
 19 18  1  0
 20 22  1  0
 21 20  2  0
M  END
$$$$
