QCC.pdb
     RDKit          3D

 22 21  0  0  1  0  0  0  0  0999 V2000
    7.9199  -12.4688   17.9262 N   0  0  0  0  0  0  0  0  0  0  0  0
    7.6553  -13.8773   17.9870 C   0  0  0  0  0  0  0  0  0  0  0  0
    7.4492  -14.4615   16.9059 O   0  0  0  0  0  0  0  0  0  0  0  0
    7.6513  -14.5072   19.3089 C   0  0  0  0  0  0  0  0  0  0  0  0
    8.9655  -14.8647   19.8853 C   0  0  0  0  0  0  0  0  0  0  0  0
    8.9948  -15.8235   21.0114 C   0  0  2  0  0  0  0  0  0  0  0  0
    7.9679  -16.8369   20.9911 N   0  0  0  0  0  0  0  0  0  0  0  0
    9.1119  -15.1719   22.3458 C   0  0  0  0  0  0  0  0  0  0  0  0
    9.9941  -14.2877   22.4926 O   0  0  0  0  0  0  0  0  0  0  0  0
    8.2926  -15.5001   23.4228 N   0  0  0  0  0  0  0  0  0  0  0  0
    8.2919  -14.8124   24.7137 C   0  0  1  0  0  0  0  0  0  0  0  0
    6.9322  -14.9114   25.3558 C   0  0  0  0  0  0  0  0  0  0  0  0
    6.0865  -13.3262   25.2302 S   0  0  0  0  0  0  0  0  0  0  0  0
    9.3712  -15.3959   25.5110 C   0  0  0  0  0  0  0  0  0  0  0  0
    9.9460  -16.4517   25.0652 O   0  0  0  0  0  0  0  0  0  0  0  0
    9.8662  -14.9179   26.7432 N   0  0  0  0  0  0  0  0  0  0  0  0
   10.9072  -15.6476   27.4472 C   0  0  1  0  0  0  0  0  0  0  0  0
   11.5508  -14.8104   28.5302 C   0  0  0  0  0  0  0  0  0  0  0  0
   10.1860  -14.0033   29.4408 S   0  0  0  0  0  0  0  0  0  0  0  0
   10.3459  -16.8889   28.0295 C   0  0  0  0  0  0  0  0  0  0  0  0
    9.1158  -17.0763   27.9868 O   0  0  0  0  0  0  0  0  0  0  0  0
   11.1567  -17.8434   28.6187 O   0  0  0  0  0  0  0  0  0  0  0  0
  1  2  1  0
  2  3  2  0
  4  5  1  0
  4  2  1  0
  6  8  1  0
  6  5  1  0
  6  7  1  1
  8 10  1  0
  8  9  2  0
 10 11  1  0
 11 14  1  0
 11 12  1  1
 13 12  1  0
 14 16  1  0
 14 15  2  0
 16 17  1  0
 17 20  1  0
 17 18  1  1
 19 18  1  0
 20 22  1  0
 21 20  2  0
M  END
$$$$
