QCC.pdb
     RDKit          3D

 22 21  0  0  1  0  0  0  0  0999 V2000
    9.0111  -21.5867   18.7787 N   0  0  0  0  0  0  0  0  0  0  0  0
   10.1798  -20.7982   18.5144 C   0  0  0  0  0  0  0  0  0  0  0  0
   11.2669  -21.4033   18.4455 O   0  0  0  0  0  0  0  0  0  0  0  0
    9.9972  -19.3549   18.3472 C   0  0  0  0  0  0  0  0  0  0  0  0
    8.6223  -18.8312   18.4972 C   0  0  0  0  0  0  0  0  0  0  0  0
    8.4087  -17.3771   18.3294 C   0  0  2  0  0  0  0  0  0  0  0  0
    8.8575  -16.8240   17.0747 N   0  0  0  0  0  0  0  0  0  0  0  0
    8.8681  -16.5693   19.4936 C   0  0  0  0  0  0  0  0  0  0  0  0
   10.0686  -16.1951   19.5122 O   0  0  0  0  0  0  0  0  0  0  0  0
    8.0300  -16.2171   20.5484 N   0  0  0  0  0  0  0  0  0  0  0  0
    8.4219  -15.3880   21.6877 C   0  0  1  0  0  0  0  0  0  0  0  0
    7.2160  -14.6932   22.2655 C   0  0  0  0  0  0  0  0  0  0  0  0
    7.6717  -13.8630   23.7975 S   0  0  0  0  0  0  0  0  0  0  0  0
    9.1171  -16.2607   22.6342 C   0  0  0  0  0  0  0  0  0  0  0  0
    8.6446  -17.4368   22.8276 O   0  0  0  0  0  0  0  0  0  0  0  0
   10.2773  -15.9508   23.3755 N   0  0  0  0  0  0  0  0  0  0  0  0
   10.8367  -16.9217   24.3010 C   0  0  1  0  0  0  0  0  0  0  0  0
   12.3336  -16.7635   24.4500 C   0  0  0  0  0  0  0  0  0  0  0  0
   13.0276  -16.7833   22.7584 S   0  0  0  0  0  0  0  0  0  0  0  0
   10.1776  -16.7956   25.6218 C   0  0  0  0  0  0  0  0  0  0  0  0
    9.3121  -15.9158   25.7860 O   0  0  0  0  0  0  0  0  0  0  0  0
   10.5016  -17.6324   26.6755 O   0  0  0  0  0  0  0  0  0  0  0  0
  1  2  1  0
  2  3  2  0
  4  5  1  0
  4  2  1  0
  6  8  1  0
  6  5  1  0
  6  7  1  6
  8 10  1  0
  8  9  2  0
 10 11  1  0
 11 14  1  0
 11 12  1  1
 13 12  1  0
 14 16  1  0
 14 15  2  0
 16 17  1  0
 17 20  1  0
 17 18  1  1
 19 18  1  0
 20 22  1  0
 21 20  2  0
M  END
$$$$
