QCC.pdb
     RDKit          3D

 22 21  0  0  1  0  0  0  0  0999 V2000
   11.1643  -21.7497   15.2257 N   0  0  0  0  0  0  0  0  0  0  0  0
   10.4368  -20.5144   15.1759 C   0  0  0  0  0  0  0  0  0  0  0  0
    9.3325  -20.5311   14.5991 O   0  0  0  0  0  0  0  0  0  0  0  0
   11.0503  -19.3435   15.8059 C   0  0  0  0  0  0  0  0  0  0  0  0
   12.4236  -19.5064   16.3298 C   0  0  0  0  0  0  0  0  0  0  0  0
   12.5864  -19.9152   17.7421 C   0  0  2  0  0  0  0  0  0  0  0  0
   11.7218  -20.9826   18.1835 N   0  0  0  0  0  0  0  0  0  0  0  0
   12.5952  -18.7712   18.6962 C   0  0  0  0  0  0  0  0  0  0  0  0
   13.3225  -17.7826   18.4218 O   0  0  0  0  0  0  0  0  0  0  0  0
   11.8387  -18.7548   19.8652 N   0  0  0  0  0  0  0  0  0  0  0  0
   11.8849  -17.6998   20.8771 C   0  0  1  0  0  0  0  0  0  0  0  0
   10.5836  -17.6481   21.6353 C   0  0  0  0  0  0  0  0  0  0  0  0
   10.6517  -16.3349   22.8660 S   0  0  0  0  0  0  0  0  0  0  0  0
   13.0538  -17.9621   21.7171 C   0  0  0  0  0  0  0  0  0  0  0  0
   13.3219  -19.1808   22.0123 O   0  0  0  0  0  0  0  0  0  0  0  0
   13.9435  -17.0057   22.2513 N   0  0  0  0  0  0  0  0  0  0  0  0
   15.0464  -17.4243   23.1000 C   0  0  1  0  0  0  0  0  0  0  0  0
   16.3722  -16.8845   22.6116 C   0  0  0  0  0  0  0  0  0  0  0  0
   17.6673  -17.7357   23.5819 S   0  0  0  0  0  0  0  0  0  0  0  0
   14.8018  -16.9880   24.4946 C   0  0  0  0  0  0  0  0  0  0  0  0
   13.8417  -16.2323   24.7339 O   0  0  0  0  0  0  0  0  0  0  0  0
   15.6150  -17.4008   25.5356 O   0  0  0  0  0  0  0  0  0  0  0  0
  1  2  1  0
  2  3  2  0
  4  5  1  0
  4  2  1  0
  6  8  1  0
  6  5  1  0
  6  7  1  1
  8 10  1  0
  8  9  2  0
 10 11  1  0
 11 14  1  0
 11 12  1  1
 13 12  1  0
 14 16  1  0
 14 15  2  0
 16 17  1  0
 17 20  1  0
 17 18  1  6
 19 18  1  0
 20 22  1  0
 21 20  2  0
M  END
$$$$
