QCC.pdb
     RDKit          3D

 22 21  0  0  1  0  0  0  0  0999 V2000
   10.1773  -17.6571   18.2276 N   0  0  0  0  0  0  0  0  0  0  0  0
    8.9540  -17.0283   17.8205 C   0  0  0  0  0  0  0  0  0  0  0  0
    8.4805  -17.3713   16.7202 O   0  0  0  0  0  0  0  0  0  0  0  0
    8.3666  -16.0418   18.7294 C   0  0  0  0  0  0  0  0  0  0  0  0
    9.0499  -15.8327   20.0242 C   0  0  0  0  0  0  0  0  0  0  0  0
    8.3311  -16.2115   21.2603 C   0  0  2  0  0  0  0  0  0  0  0  0
    6.8929  -16.2552   21.1540 N   0  0  0  0  0  0  0  0  0  0  0  0
    8.7807  -15.4595   22.4651 C   0  0  0  0  0  0  0  0  0  0  0  0
   10.0179  -15.3518   22.6629 O   0  0  0  0  0  0  0  0  0  0  0  0
    7.8948  -14.8787   23.3689 N   0  0  0  0  0  0  0  0  0  0  0  0
    8.2796  -14.2556   24.6349 C   0  0  1  0  0  0  0  0  0  0  0  0
    7.2339  -13.2590   25.0640 C   0  0  0  0  0  0  0  0  0  0  0  0
    7.7101  -12.5205   26.6362 S   0  0  0  0  0  0  0  0  0  0  0  0
    8.5015  -15.3370   25.5952 C   0  0  0  0  0  0  0  0  0  0  0  0
    8.0048  -16.4891   25.3301 O   0  0  0  0  0  0  0  0  0  0  0  0
    9.2183  -15.2574   26.8083 N   0  0  0  0  0  0  0  0  0  0  0  0
    9.8791  -16.4340   27.3476 C   0  0  1  0  0  0  0  0  0  0  0  0
   10.9173  -16.9854   26.3958 C   0  0  0  0  0  0  0  0  0  0  0  0
   11.3950  -18.6269   27.0445 S   0  0  0  0  0  0  0  0  0  0  0  0
   10.5051  -16.1070   28.6499 C   0  0  0  0  0  0  0  0  0  0  0  0
   11.1090  -16.9996   29.2735 O   0  0  0  0  0  0  0  0  0  0  0  0
   10.4340  -14.8340   29.1882 O   0  0  0  0  0  0  0  0  0  0  0  0
  1  2  1  0
  2  3  2  0
  4  5  1  0
  4  2  1  0
  6  8  1  0
  6  5  1  0
  6  7  1  6
  8 10  1  0
  8  9  2  0
 10 11  1  0
 11 14  1  0
 11 12  1  1
 13 12  1  0
 14 16  1  0
 14 15  2  0
 16 17  1  0
 17 20  1  0
 17 18  1  6
 19 18  1  0
 20 22  1  0
 21 20  2  0
M  END
$$$$
