QCC.pdb
     RDKit          3D

 22 21  0  0  1  0  0  0  0  0999 V2000
   10.0305  -22.0595   19.1792 N   0  0  0  0  0  0  0  0  0  0  0  0
   11.3430  -21.7396   18.6970 C   0  0  0  0  0  0  0  0  0  0  0  0
   12.0687  -22.6935   18.3565 O   0  0  0  0  0  0  0  0  0  0  0  0
   11.7168  -20.3247   18.6443 C   0  0  0  0  0  0  0  0  0  0  0  0
   10.6759  -19.3419   19.0152 C   0  0  0  0  0  0  0  0  0  0  0  0
   11.0433  -17.9090   19.0269 C   0  0  2  0  0  0  0  0  0  0  0  0
   11.9704  -17.4970   18.0010 N   0  0  0  0  0  0  0  0  0  0  0  0
   11.4378  -17.4062   20.3726 C   0  0  0  0  0  0  0  0  0  0  0  0
   12.6239  -17.0192   20.5309 O   0  0  0  0  0  0  0  0  0  0  0  0
   10.5550  -17.3491   21.4478 N   0  0  0  0  0  0  0  0  0  0  0  0
   10.8950  -16.8635   22.7849 C   0  0  1  0  0  0  0  0  0  0  0  0
    9.7840  -15.9994   23.3233 C   0  0  0  0  0  0  0  0  0  0  0  0
   10.1213  -15.5810   25.0424 S   0  0  0  0  0  0  0  0  0  0  0  0
   11.1875  -18.0384   23.6064 C   0  0  0  0  0  0  0  0  0  0  0  0
   10.4280  -19.0641   23.4822 O   0  0  0  0  0  0  0  0  0  0  0  0
   12.2358  -18.1776   24.5409 N   0  0  0  0  0  0  0  0  0  0  0  0
   12.4437  -19.4423   25.2259 C   0  0  1  0  0  0  0  0  0  0  0  0
   13.8318  -19.9934   24.9866 C   0  0  0  0  0  0  0  0  0  0  0  0
   13.9844  -21.4853   26.0327 S   0  0  0  0  0  0  0  0  0  0  0  0
   12.2068  -19.2728   26.6785 C   0  0  0  0  0  0  0  0  0  0  0  0
   12.0371  -18.1271   27.1355 O   0  0  0  0  0  0  0  0  0  0  0  0
   12.1698  -20.3573   27.5376 O   0  0  0  0  0  0  0  0  0  0  0  0
  1  2  1  0
  2  3  2  0
  4  5  1  0
  4  2  1  0
  6  8  1  0
  6  5  1  0
  6  7  1  6
  8 10  1  0
  8  9  2  0
 10 11  1  0
 11 14  1  0
 11 12  1  1
 13 12  1  0
 14 16  1  0
 14 15  2  0
 16 17  1  0
 17 20  1  0
 17 18  1  1
 19 18  1  0
 20 22  1  0
 21 20  2  0
M  END
$$$$
