QCC.pdb
     RDKit          3D

 22 21  0  0  1  0  0  0  0  0999 V2000
    8.5697  -12.4694   17.6847 N   0  0  0  0  0  0  0  0  0  0  0  0
    7.9380  -13.7024   17.3126 C   0  0  0  0  0  0  0  0  0  0  0  0
    7.5907  -13.8232   16.1220 O   0  0  0  0  0  0  0  0  0  0  0  0
    7.7570  -14.7111   18.3585 C   0  0  0  0  0  0  0  0  0  0  0  0
    8.1857  -14.3440   19.7254 C   0  0  0  0  0  0  0  0  0  0  0  0
    8.0394  -15.3542   20.7961 C   0  0  2  0  0  0  0  0  0  0  0  0
    6.7215  -15.9244   20.9364 N   0  0  0  0  0  0  0  0  0  0  0  0
    8.6042  -14.9212   22.1048 C   0  0  0  0  0  0  0  0  0  0  0  0
    9.7560  -14.4165   22.1097 O   0  0  0  0  0  0  0  0  0  0  0  0
    7.9144  -15.0523   23.3073 N   0  0  0  0  0  0  0  0  0  0  0  0
    8.4692  -14.7534   24.6272 C   0  0  1  0  0  0  0  0  0  0  0  0
    7.4856  -13.9467   25.4351 C   0  0  0  0  0  0  0  0  0  0  0  0
    5.9513  -14.8716   25.6201 S   0  0  0  0  0  0  0  0  0  0  0  0
    8.8354  -16.0315   25.2379 C   0  0  0  0  0  0  0  0  0  0  0  0
    8.1583  -17.0705   24.9121 O   0  0  0  0  0  0  0  0  0  0  0  0
    9.8746  -16.2590   26.1653 N   0  0  0  0  0  0  0  0  0  0  0  0
   10.1313  -17.5997   26.6639 C   0  0  1  0  0  0  0  0  0  0  0  0
   11.1029  -18.3539   25.7835 C   0  0  0  0  0  0  0  0  0  0  0  0
   12.7069  -18.3512   26.6612 S   0  0  0  0  0  0  0  0  0  0  0  0
   10.6490  -17.5305   28.0503 C   0  0  0  0  0  0  0  0  0  0  0  0
   10.8663  -16.4162   28.5614 O   0  0  0  0  0  0  0  0  0  0  0  0
   10.8960  -18.6746   28.7889 O   0  0  0  0  0  0  0  0  0  0  0  0
  1  2  1  0
  2  3  2  0
  4  5  1  0
  4  2  1  0
  6  8  1  0
  6  5  1  0
  6  7  1  1
  8 10  1  0
  8  9  2  0
 10 11  1  0
 11 14  1  0
 11 12  1  1
 13 12  1  0
 14 16  1  0
 14 15  2  0
 16 17  1  0
 17 20  1  0
 17 18  1  6
 19 18  1  0
 20 22  1  0
 21 20  2  0
M  END
$$$$
