QCC.pdb
     RDKit          3D

 22 21  0  0  1  0  0  0  0  0999 V2000
    6.0307  -20.0856   22.6790 N   0  0  0  0  0  0  0  0  0  0  0  0
    5.1538  -19.6387   21.6355 C   0  0  0  0  0  0  0  0  0  0  0  0
    4.6287  -20.5160   20.9233 O   0  0  0  0  0  0  0  0  0  0  0  0
    4.9494  -18.1953   21.4971 C   0  0  0  0  0  0  0  0  0  0  0  0
    5.6479  -17.3232   22.4659 C   0  0  0  0  0  0  0  0  0  0  0  0
    6.5284  -16.2590   21.9364 C   0  0  2  0  0  0  0  0  0  0  0  0
    7.0972  -16.5137   20.6351 N   0  0  0  0  0  0  0  0  0  0  0  0
    7.5517  -15.7918   22.9129 C   0  0  0  0  0  0  0  0  0  0  0  0
    8.7572  -16.0589   22.6740 O   0  0  0  0  0  0  0  0  0  0  0  0
    7.2288  -15.0798   24.0652 N   0  0  0  0  0  0  0  0  0  0  0  0
    8.1920  -14.6371   25.0728 C   0  0  1  0  0  0  0  0  0  0  0  0
    7.6464  -13.4544   25.8308 C   0  0  0  0  0  0  0  0  0  0  0  0
    6.0268  -13.8623   26.5051 S   0  0  0  0  0  0  0  0  0  0  0  0
    8.4957  -15.7952   25.9139 C   0  0  0  0  0  0  0  0  0  0  0  0
    7.5712  -16.6643   26.0983 O   0  0  0  0  0  0  0  0  0  0  0  0
    9.7191  -16.0742   26.5597 N   0  0  0  0  0  0  0  0  0  0  0  0
    9.9442  -17.3719   27.1739 C   0  0  1  0  0  0  0  0  0  0  0  0
   10.6518  -18.3256   26.2371 C   0  0  0  0  0  0  0  0  0  0  0  0
   12.1826  -17.4829   25.6989 S   0  0  0  0  0  0  0  0  0  0  0  0
   10.7268  -17.2093   28.4213 C   0  0  0  0  0  0  0  0  0  0  0  0
   10.9702  -18.2112   29.1193 O   0  0  0  0  0  0  0  0  0  0  0  0
   11.1928  -15.9710   28.8276 O   0  0  0  0  0  0  0  0  0  0  0  0
  1  2  1  0
  2  3  2  0
  4  5  1  0
  4  2  1  0
  6  8  1  0
  6  5  1  0
  6  7  1  6
  8 10  1  0
  8  9  2  0
 10 11  1  0
 11 14  1  0
 11 12  1  1
 13 12  1  0
 14 16  1  0
 14 15  2  0
 16 17  1  0
 17 20  1  0
 17 18  1  6
 19 18  1  0
 20 22  1  0
 21 20  2  0
M  END
$$$$
