QCC.pdb
     RDKit          3D

 22 21  0  0  1  0  0  0  0  0999 V2000
    5.0863  -18.6743   22.1946 N   0  0  0  0  0  0  0  0  0  0  0  0
    6.5180  -18.7562   22.2274 C   0  0  0  0  0  0  0  0  0  0  0  0
    7.0178  -19.8944   22.3126 O   0  0  0  0  0  0  0  0  0  0  0  0
    7.2681  -17.5006   22.1566 C   0  0  0  0  0  0  0  0  0  0  0  0
    6.4809  -16.2560   22.0212 C   0  0  0  0  0  0  0  0  0  0  0  0
    7.2144  -14.9832   21.8477 C   0  0  2  0  0  0  0  0  0  0  0  0
    8.0552  -14.9053   20.6777 N   0  0  0  0  0  0  0  0  0  0  0  0
    7.9234  -14.5317   23.0775 C   0  0  0  0  0  0  0  0  0  0  0  0
    9.1774  -14.6229   23.1000 O   0  0  0  0  0  0  0  0  0  0  0  0
    7.2592  -14.0191   24.1889 N   0  0  0  0  0  0  0  0  0  0  0  0
    7.9140  -13.4991   25.3889 C   0  0  1  0  0  0  0  0  0  0  0  0
    6.9206  -12.7548   26.2432 C   0  0  0  0  0  0  0  0  0  0  0  0
    5.5469  -13.8421   26.6613 S   0  0  0  0  0  0  0  0  0  0  0  0
    8.5436  -14.6362   26.0607 C   0  0  0  0  0  0  0  0  0  0  0  0
    8.0695  -15.8062   25.8362 O   0  0  0  0  0  0  0  0  0  0  0  0
    9.6407  -14.5933   26.9475 N   0  0  0  0  0  0  0  0  0  0  0  0
   10.2317  -15.8254   27.4421 C   0  0  1  0  0  0  0  0  0  0  0  0
   11.7100  -15.6707   27.7224 C   0  0  0  0  0  0  0  0  0  0  0  0
   11.8743  -14.2576   28.8711 S   0  0  0  0  0  0  0  0  0  0  0  0
    9.5247  -16.2662   28.6672 C   0  0  0  0  0  0  0  0  0  0  0  0
    8.6400  -15.5368   29.1523 O   0  0  0  0  0  0  0  0  0  0  0  0
    9.8251  -17.4685   29.2836 O   0  0  0  0  0  0  0  0  0  0  0  0
  1  2  1  0
  2  3  2  0
  4  5  1  0
  4  2  1  0
  6  8  1  0
  6  5  1  0
  6  7  1  6
  8 10  1  0
  8  9  2  0
 10 11  1  0
 11 14  1  0
 11 12  1  1
 13 12  1  0
 14 16  1  0
 14 15  2  0
 16 17  1  0
 17 20  1  0
 17 18  1  1
 19 18  1  0
 20 22  1  0
 21 20  2  0
M  END
$$$$
