QCC.pdb
     RDKit          3D

 22 21  0  0  1  0  0  0  0  0999 V2000
    8.1266  -12.1854   18.7712 N   0  0  0  0  0  0  0  0  0  0  0  0
    7.9737  -13.5916   18.5326 C   0  0  0  0  0  0  0  0  0  0  0  0
    8.3918  -14.0293   17.4435 O   0  0  0  0  0  0  0  0  0  0  0  0
    7.3432  -14.3907   19.5853 C   0  0  0  0  0  0  0  0  0  0  0  0
    8.2339  -15.2347   20.4107 C   0  0  0  0  0  0  0  0  0  0  0  0
    7.7375  -15.6918   21.7271 C   0  0  2  0  0  0  0  0  0  0  0  0
    6.3024  -15.7570   21.8612 N   0  0  0  0  0  0  0  0  0  0  0  0
    8.3763  -14.9961   22.8790 C   0  0  0  0  0  0  0  0  0  0  0  0
    9.5961  -14.7043   22.7864 O   0  0  0  0  0  0  0  0  0  0  0  0
    7.6835  -14.6609   24.0395 N   0  0  0  0  0  0  0  0  0  0  0  0
    8.2602  -13.9571   25.1846 C   0  0  1  0  0  0  0  0  0  0  0  0
    7.3806  -12.7996   25.5814 C   0  0  0  0  0  0  0  0  0  0  0  0
    5.7402  -13.4057   26.0122 S   0  0  0  0  0  0  0  0  0  0  0  0
    8.4547  -14.9480   26.2434 C   0  0  0  0  0  0  0  0  0  0  0  0
    7.8501  -16.0733   26.1334 O   0  0  0  0  0  0  0  0  0  0  0  0
    9.2521  -14.8057   27.3991 N   0  0  0  0  0  0  0  0  0  0  0  0
    9.6303  -15.9736   28.1768 C   0  0  1  0  0  0  0  0  0  0  0  0
   10.4792  -16.9356   27.3758 C   0  0  0  0  0  0  0  0  0  0  0  0
   10.9035  -18.3129   28.5013 S   0  0  0  0  0  0  0  0  0  0  0  0
   10.3543  -15.5517   29.3986 C   0  0  0  0  0  0  0  0  0  0  0  0
   10.6868  -14.3586   29.5248 O   0  0  0  0  0  0  0  0  0  0  0  0
   10.6688  -16.4525   30.4013 O   0  0  0  0  0  0  0  0  0  0  0  0
  1  2  1  0
  2  3  2  0
  4  5  1  0
  4  2  1  0
  6  8  1  0
  6  5  1  0
  6  7  1  6
  8 10  1  0
  8  9  2  0
 10 11  1  0
 11 14  1  0
 11 12  1  1
 13 12  1  0
 14 16  1  0
 14 15  2  0
 16 17  1  0
 17 20  1  0
 17 18  1  6
 19 18  1  0
 20 22  1  0
 21 20  2  0
M  END
$$$$
