QCC.pdb
     RDKit          3D

 22 21  0  0  1  0  0  0  0  0999 V2000
    9.4354  -12.7473   18.8711 N   0  0  0  0  0  0  0  0  0  0  0  0
    8.5696  -13.5280   18.0354 C   0  0  0  0  0  0  0  0  0  0  0  0
    8.8738  -13.6146   16.8302 O   0  0  0  0  0  0  0  0  0  0  0  0
    7.4073  -14.1560   18.6670 C   0  0  0  0  0  0  0  0  0  0  0  0
    7.2868  -14.0204   20.1347 C   0  0  0  0  0  0  0  0  0  0  0  0
    8.2706  -14.7285   20.9827 C   0  0  2  0  0  0  0  0  0  0  0  0
    8.9386  -15.8449   20.3591 N   0  0  0  0  0  0  0  0  0  0  0  0
    7.7525  -15.0713   22.3367 C   0  0  0  0  0  0  0  0  0  0  0  0
    6.7681  -14.4205   22.7714 O   0  0  0  0  0  0  0  0  0  0  0  0
    8.3093  -16.0718   23.1290 N   0  0  0  0  0  0  0  0  0  0  0  0
    7.8904  -16.3884   24.4941 C   0  0  1  0  0  0  0  0  0  0  0  0
    7.9207  -17.8787   24.7158 C   0  0  0  0  0  0  0  0  0  0  0  0
    9.6012  -18.4891   24.4989 S   0  0  0  0  0  0  0  0  0  0  0  0
    8.7615  -15.6341   25.3958 C   0  0  0  0  0  0  0  0  0  0  0  0
    9.9210  -15.2931   24.9675 O   0  0  0  0  0  0  0  0  0  0  0  0
    8.4651  -15.2267   26.7141 N   0  0  0  0  0  0  0  0  0  0  0  0
    9.4277  -14.4470   27.4740 C   0  0  1  0  0  0  0  0  0  0  0  0
    8.8301  -13.1559   27.9875 C   0  0  0  0  0  0  0  0  0  0  0  0
    8.1210  -12.2998   26.5357 S   0  0  0  0  0  0  0  0  0  0  0  0
    9.9474  -15.2521   28.6040 C   0  0  0  0  0  0  0  0  0  0  0  0
    9.4991  -16.3990   28.7880 O   0  0  0  0  0  0  0  0  0  0  0  0
   10.9183  -14.7590   29.4582 O   0  0  0  0  0  0  0  0  0  0  0  0
  1  2  1  0
  2  3  2  0
  4  5  1  0
  4  2  1  0
  6  8  1  0
  6  5  1  0
  6  7  1  6
  8 10  1  0
  8  9  2  0
 10 11  1  0
 11 14  1  0
 11 12  1  1
 13 12  1  0
 14 16  1  0
 14 15  2  0
 16 17  1  0
 17 20  1  0
 17 18  1  1
 19 18  1  0
 20 22  1  0
 21 20  2  0
M  END
$$$$
