RED.pdb
     RDKit          3D

 29 28  0  0  1  0  0  0  0  0999 V2000
    9.6867  -14.0176   18.2104 N   0  0  0  0  0  0  0  0  0  0  0  0
    8.7963  -13.1725   18.9143 C   0  0  0  0  0  0  0  0  0  0  0  0
    8.3512  -12.1242   18.3476 N   0  0  0  0  0  0  0  0  0  0  0  0
    8.4211  -13.5183   20.2384 N   0  0  0  0  0  0  0  0  0  0  0  0
    7.0665  -13.9618   20.5000 C   0  0  0  0  0  0  0  0  0  0  0  0
    6.8259  -14.2455   21.9442 C   0  0  0  0  0  0  0  0  0  0  0  0
    7.8667  -15.0564   22.6135 C   0  0  0  0  0  0  0  0  0  0  0  0
    8.1741  -16.3943   22.0405 C   0  0  2  0  0  0  0  0  0  0  0  0
    7.0633  -17.2988   21.9412 N   0  0  0  0  0  0  0  0  0  0  0  0
    9.1883  -17.0243   22.9595 C   0  0  0  0  0  0  0  0  0  0  0  0
    8.8320  -18.0018   23.6773 O   0  0  0  0  0  0  0  0  0  0  0  0
    7.7942  -11.3835   18.7978 N   0  0  0  0  0  0  0  0  0  0  0  0
   10.5064  -16.5202   23.0053 C   0  0  2  0  0  0  0  0  0  0  0  0
   11.4615  -17.1190   23.8983 C   0  0  0  0  0  0  0  0  0  0  0  0
   12.8398  -16.8710   23.3131 C   0  0  0  0  0  0  0  0  0  0  0  0
   13.0679  -15.3746   23.1325 C   0  0  0  0  0  0  0  0  0  0  0  0
   14.3897  -15.1188   22.5055 O   0  0  0  0  0  0  0  0  0  0  0  0
   14.5429  -14.8640   21.2866 C   0  0  0  0  0  0  0  0  0  0  0  0
   11.3348  -16.4173   25.2265 O   0  0  0  0  0  0  0  0  0  0  0  0
   11.2281  -15.1660   25.2964 O   0  0  0  0  0  0  0  0  0  0  0  0
   15.5335  -15.1603   23.2995 N   0  0  0  0  0  0  0  0  0  0  0  0
   11.3319  -17.1469   26.4406 C   0  0  1  0  0  0  0  0  0  0  0  0
   11.0978  -16.4045   27.7034 C   0  0  0  0  0  0  0  0  0  0  0  0
    9.6882  -15.8481   27.6781 C   0  0  0  0  0  0  0  0  0  0  0  0
    9.6333  -14.5827   28.4045 O   0  0  0  0  0  0  0  0  0  0  0  0
   10.6038  -14.1631   29.0585 C   0  0  0  0  0  0  0  0  0  0  0  0
   11.2285  -17.4363   28.7586 O   0  0  0  0  0  0  0  0  0  0  0  0
   10.9099  -18.6248   28.5027 O   0  0  0  0  0  0  0  0  0  0  0  0
    8.4744  -13.8192   28.3728 O   0  0  0  0  0  0  0  0  0  0  0  0
  1  2  1  0
  2  3  2  0
  4  2  1  0
  5  4  1  0
  6  5  1  0
  7  6  1  0
  8  7  1  0
  8  9  1  1
 10  8  1  0
 10 12  1  0
 11 10  2  0
 13 12  1  0
 13 14  1  6
 15 14  1  0
 15 16  1  0
 16 17  2  0
 18 13  1  0
 19 18  2  0
 20 16  1  0
 21 18  1  0
 22 26  1  0
 22 21  1  0
 23 24  1  0
 22 23  1  1
 24 25  2  0
 26 29  1  0
 27 26  2  0
 28 24  1  0
M  END
$$$$
