RED.pdb
     RDKit          3D

 29 28  0  0  1  0  0  0  0  0999 V2000
    8.0041  -11.8945   19.7972 N   0  0  0  0  0  0  0  0  0  0  0  0
    7.7004  -13.0568   19.0493 C   0  0  0  0  0  0  0  0  0  0  0  0
    7.7335  -13.0077   17.7785 N   0  0  0  0  0  0  0  0  0  0  0  0
    7.3665  -14.2512   19.7387 N   0  0  0  0  0  0  0  0  0  0  0  0
    8.2751  -14.7705   20.7412 C   0  0  0  0  0  0  0  0  0  0  0  0
    8.5777  -16.2176   20.5449 C   0  0  0  0  0  0  0  0  0  0  0  0
   10.0112  -16.5514   20.3956 C   0  0  0  0  0  0  0  0  0  0  0  0
   10.3644  -17.9688   20.1146 C   0  0  2  0  0  0  0  0  0  0  0  0
    9.3778  -18.7251   19.3958 N   0  0  0  0  0  0  0  0  0  0  0  0
   10.5523  -18.6308   21.4549 C   0  0  0  0  0  0  0  0  0  0  0  0
   10.7856  -17.9046   22.4628 O   0  0  0  0  0  0  0  0  0  0  0  0
    7.4297  -13.7540   17.1364 N   0  0  0  0  0  0  0  0  0  0  0  0
   10.4659  -20.0358   21.5649 C   0  0  1  0  0  0  0  0  0  0  0  0
   10.7147  -20.6618   22.8355 C   0  0  0  0  0  0  0  0  0  0  0  0
    9.7031  -21.7830   22.9890 C   0  0  0  0  0  0  0  0  0  0  0  0
    8.2933  -21.2470   22.7675 C   0  0  0  0  0  0  0  0  0  0  0  0
    7.2929  -22.3371   22.8971 O   0  0  0  0  0  0  0  0  0  0  0  0
    6.7871  -22.9360   21.9175 C   0  0  0  0  0  0  0  0  0  0  0  0
   12.1091  -21.2327   22.7888 O   0  0  0  0  0  0  0  0  0  0  0  0
   12.5532  -21.7876   21.7511 O   0  0  0  0  0  0  0  0  0  0  0  0
    6.8818  -22.7291   24.1690 N   0  0  0  0  0  0  0  0  0  0  0  0
   12.9654  -21.1618   23.9150 C   0  0  1  0  0  0  0  0  0  0  0  0
   14.4171  -20.9669   23.6800 C   0  0  0  0  0  0  0  0  0  0  0  0
   14.6071  -19.6895   22.8867 C   0  0  0  0  0  0  0  0  0  0  0  0
   16.0289  -19.4390   22.6686 O   0  0  0  0  0  0  0  0  0  0  0  0
   16.9045  -20.1478   23.1946 C   0  0  0  0  0  0  0  0  0  0  0  0
   14.9869  -20.8217   25.0399 O   0  0  0  0  0  0  0  0  0  0  0  0
   14.2282  -20.5340   25.9997 O   0  0  0  0  0  0  0  0  0  0  0  0
   16.4268  -18.3862   21.8560 O   0  0  0  0  0  0  0  0  0  0  0  0
  1  2  1  0
  2  3  2  0
  4  2  1  0
  5  4  1  0
  6  5  1  0
  7  6  1  0
  8  7  1  0
  8  9  1  1
 10  8  1  0
 10 12  1  0
 11 10  2  0
 13 12  1  0
 13 14  1  1
 15 14  1  0
 15 16  1  0
 16 17  2  0
 18 13  1  0
 19 18  2  0
 20 16  1  0
 21 18  1  0
 22 26  1  0
 22 21  1  0
 23 24  1  0
 22 23  1  1
 24 25  2  0
 26 29  1  0
 27 26  2  0
 28 24  1  0
M  END
$$$$
