RED.pdb
     RDKit          3D

 29 28  0  0  1  0  0  0  0  0999 V2000
    5.7958  -19.8803   18.2003 N   0  0  0  0  0  0  0  0  0  0  0  0
    6.7752  -20.1707   19.1795 C   0  0  0  0  0  0  0  0  0  0  0  0
    7.2903  -21.3331   19.2216 N   0  0  0  0  0  0  0  0  0  0  0  0
    7.1594  -19.1538   20.0915 N   0  0  0  0  0  0  0  0  0  0  0  0
    6.6379  -17.8125   19.9209 C   0  0  0  0  0  0  0  0  0  0  0  0
    7.7164  -16.7946   19.7639 C   0  0  0  0  0  0  0  0  0  0  0  0
    7.9687  -15.9493   20.9515 C   0  0  0  0  0  0  0  0  0  0  0  0
    9.0828  -16.3430   21.8552 C   0  0  2  0  0  0  0  0  0  0  0  0
    9.7264  -17.5882   21.5434 N   0  0  0  0  0  0  0  0  0  0  0  0
    8.4833  -16.4768   23.2309 C   0  0  0  0  0  0  0  0  0  0  0  0
    7.9050  -15.4752   23.7408 O   0  0  0  0  0  0  0  0  0  0  0  0
    8.0209  -21.6475   19.8767 N   0  0  0  0  0  0  0  0  0  0  0  0
    8.5746  -17.7042   23.9227 C   0  0  2  0  0  0  0  0  0  0  0  0
    8.0852  -17.7931   25.2721 C   0  0  0  0  0  0  0  0  0  0  0  0
    7.5981  -19.2155   25.4800 C   0  0  0  0  0  0  0  0  0  0  0  0
    7.1012  -19.3926   26.9103 C   0  0  0  0  0  0  0  0  0  0  0  0
    6.5963  -20.7733   27.1215 O   0  0  0  0  0  0  0  0  0  0  0  0
    5.8894  -21.3897   26.2883 C   0  0  0  0  0  0  0  0  0  0  0  0
    9.2471  -17.5101   26.1900 O   0  0  0  0  0  0  0  0  0  0  0  0
   10.4226  -17.8241   25.8714 O   0  0  0  0  0  0  0  0  0  0  0  0
    6.9157  -21.4357   28.3046 N   0  0  0  0  0  0  0  0  0  0  0  0
    9.0510  -16.8799   27.4433 C   0  0  1  0  0  0  0  0  0  0  0  0
   10.2421  -16.6088   28.2851 C   0  0  0  0  0  0  0  0  0  0  0  0
    9.9918  -15.3401   29.0755 C   0  0  0  0  0  0  0  0  0  0  0  0
   10.3418  -14.1706   28.2745 O   0  0  0  0  0  0  0  0  0  0  0  0
   10.8728  -14.2810   27.1558 C   0  0  0  0  0  0  0  0  0  0  0  0
   10.3172  -17.7780   29.1921 O   0  0  0  0  0  0  0  0  0  0  0  0
    9.3410  -18.5662   29.2652 O   0  0  0  0  0  0  0  0  0  0  0  0
   10.0807  -12.8975   28.7624 O   0  0  0  0  0  0  0  0  0  0  0  0
  1  2  1  0
  2  3  2  0
  4  2  1  0
  5  4  1  0
  6  5  1  0
  7  6  1  0
  8  7  1  0
  8  9  1  6
 10  8  1  0
 10 12  1  0
 11 10  2  0
 13 12  1  0
 13 14  1  6
 15 14  1  0
 15 16  1  0
 16 17  2  0
 18 13  1  0
 19 18  2  0
 20 16  1  0
 21 18  1  0
 22 26  1  0
 22 21  1  0
 23 24  1  0
 22 23  1  1
 24 25  2  0
 26 29  1  0
 27 26  2  0
 28 24  1  0
M  END
$$$$
