RED.pdb
     RDKit          3D

 29 28  0  0  1  0  0  0  0  0999 V2000
    6.0626  -12.3701   17.4891 N   0  0  0  0  0  0  0  0  0  0  0  0
    7.3789  -12.8140   17.2195 C   0  0  0  0  0  0  0  0  0  0  0  0
    7.6647  -13.2525   16.0601 N   0  0  0  0  0  0  0  0  0  0  0  0
    8.3496  -12.7575   18.2531 N   0  0  0  0  0  0  0  0  0  0  0  0
    8.2985  -13.7265   19.3294 C   0  0  0  0  0  0  0  0  0  0  0  0
    9.2542  -13.4107   20.4298 C   0  0  0  0  0  0  0  0  0  0  0  0
   10.4661  -14.2577   20.4801 C   0  0  0  0  0  0  0  0  0  0  0  0
   10.9688  -14.8207   19.1982 C   0  0  2  0  0  0  0  0  0  0  0  0
   10.1638  -15.8574   18.6159 N   0  0  0  0  0  0  0  0  0  0  0  0
   12.3206  -15.4142   19.4990 C   0  0  0  0  0  0  0  0  0  0  0  0
   12.3848  -16.6223   19.8650 O   0  0  0  0  0  0  0  0  0  0  0  0
    8.5751  -13.6346   15.7654 N   0  0  0  0  0  0  0  0  0  0  0  0
   13.4823  -14.6223   19.3691 C   0  0  1  0  0  0  0  0  0  0  0  0
   14.7756  -15.2425   19.4734 C   0  0  0  0  0  0  0  0  0  0  0  0
   15.7681  -14.3305   18.7755 C   0  0  0  0  0  0  0  0  0  0  0  0
   15.6548  -14.4961   17.2643 C   0  0  0  0  0  0  0  0  0  0  0  0
   16.6823  -13.6787   16.5700 O   0  0  0  0  0  0  0  0  0  0  0  0
   16.5192  -13.1787   15.4310 C   0  0  0  0  0  0  0  0  0  0  0  0
   15.1105  -15.3372   20.9402 O   0  0  0  0  0  0  0  0  0  0  0  0
   14.9172  -14.3680   21.7181 O   0  0  0  0  0  0  0  0  0  0  0  0
   17.9005  -13.4443   17.2037 N   0  0  0  0  0  0  0  0  0  0  0  0
   15.6548  -16.5238   21.4898 C   0  0  1  0  0  0  0  0  0  0  0  0
   15.9030  -16.5691   22.9517 C   0  0  0  0  0  0  0  0  0  0  0  0
   15.9031  -18.0190   23.3932 C   0  0  0  0  0  0  0  0  0  0  0  0
   14.7401  -18.2895   24.2335 O   0  0  0  0  0  0  0  0  0  0  0  0
   13.9754  -17.3809   24.6013 C   0  0  0  0  0  0  0  0  0  0  0  0
   17.2536  -15.9800   23.1072 O   0  0  0  0  0  0  0  0  0  0  0  0
   17.6871  -15.7252   24.2591 O   0  0  0  0  0  0  0  0  0  0  0  0
   14.4699  -19.5892   24.6392 O   0  0  0  0  0  0  0  0  0  0  0  0
  1  2  1  0
  2  3  2  0
  4  2  1  0
  5  4  1  0
  6  5  1  0
  7  6  1  0
  8  7  1  0
  8  9  1  1
 10  8  1  0
 10 12  1  0
 11 10  2  0
 13 12  1  0
 13 14  1  6
 15 14  1  0
 15 16  1  0
 16 17  2  0
 18 13  1  0
 19 18  2  0
 20 16  1  0
 21 18  1  0
 22 26  1  0
 22 21  1  0
 23 24  1  0
 22 23  1  1
 24 25  2  0
 26 29  1  0
 27 26  2  0
 28 24  1  0
M  END
$$$$
