RED.pdb
     RDKit          3D

 29 28  0  0  1  0  0  0  0  0999 V2000
    8.9137  -12.5040   20.9369 N   0  0  0  0  0  0  0  0  0  0  0  0
    8.2498  -12.3719   19.6943 C   0  0  0  0  0  0  0  0  0  0  0  0
    8.4920  -11.3606   18.9615 N   0  0  0  0  0  0  0  0  0  0  0  0
    7.3285  -13.3749   19.2961 N   0  0  0  0  0  0  0  0  0  0  0  0
    7.1731  -14.5616   20.1133 C   0  0  0  0  0  0  0  0  0  0  0  0
    7.5450  -15.8097   19.3868 C   0  0  0  0  0  0  0  0  0  0  0  0
    8.9160  -15.8360   18.8314 C   0  0  0  0  0  0  0  0  0  0  0  0
    9.8330  -16.9068   19.3063 C   0  0  2  0  0  0  0  0  0  0  0  0
    9.2047  -18.0156   19.9679 N   0  0  0  0  0  0  0  0  0  0  0  0
   10.7627  -16.2573   20.2981 C   0  0  0  0  0  0  0  0  0  0  0  0
   11.3925  -15.2184   19.9489 O   0  0  0  0  0  0  0  0  0  0  0  0
    8.0139  -11.1242   18.0799 N   0  0  0  0  0  0  0  0  0  0  0  0
   10.9155  -16.8112   21.5877 C   0  0  1  0  0  0  0  0  0  0  0  0
   11.8899  -16.2527   22.4860 C   0  0  0  0  0  0  0  0  0  0  0  0
   11.8138  -17.0441   23.7789 C   0  0  0  0  0  0  0  0  0  0  0  0
   12.8886  -16.5644   24.7477 C   0  0  0  0  0  0  0  0  0  0  0  0
   12.8807  -17.3847   25.9858 O   0  0  0  0  0  0  0  0  0  0  0  0
   12.5604  -16.9377   27.1135 C   0  0  0  0  0  0  0  0  0  0  0  0
   13.2442  -16.4385   21.8504 O   0  0  0  0  0  0  0  0  0  0  0  0
   13.5956  -17.5485   21.3747 O   0  0  0  0  0  0  0  0  0  0  0  0
   13.2463  -18.7267   25.9094 N   0  0  0  0  0  0  0  0  0  0  0  0
   14.1658  -15.3660   21.7686 C   0  0  1  0  0  0  0  0  0  0  0  0
   15.4330  -15.5862   21.0293 C   0  0  0  0  0  0  0  0  0  0  0  0
   15.6788  -14.3894   20.1323 C   0  0  0  0  0  0  0  0  0  0  0  0
   16.9791  -14.5086   19.4790 O   0  0  0  0  0  0  0  0  0  0  0  0
   17.4007  -15.6001   19.0589 C   0  0  0  0  0  0  0  0  0  0  0  0
   16.4633  -15.6575   22.0917 O   0  0  0  0  0  0  0  0  0  0  0  0
   17.5485  -16.2479   21.8606 O   0  0  0  0  0  0  0  0  0  0  0  0
   17.7749  -13.3828   19.3166 O   0  0  0  0  0  0  0  0  0  0  0  0
  1  2  1  0
  2  3  2  0
  4  2  1  0
  5  4  1  0
  6  5  1  0
  7  6  1  0
  8  7  1  0
  8  9  1  1
 10  8  1  0
 10 12  1  0
 11 10  2  0
 13 12  1  0
 13 14  1  6
 15 14  1  0
 15 16  1  0
 16 17  2  0
 18 13  1  0
 19 18  2  0
 20 16  1  0
 21 18  1  0
 22 26  1  0
 22 21  1  0
 23 24  1  0
 22 23  1  1
 24 25  2  0
 26 29  1  0
 27 26  2  0
 28 24  1  0
M  END
$$$$
