RED.pdb
     RDKit          3D

 29 28  0  0  1  0  0  0  0  0999 V2000
    8.1480  -11.6011   19.9497 N   0  0  0  0  0  0  0  0  0  0  0  0
    8.5862  -12.8070   19.3529 C   0  0  0  0  0  0  0  0  0  0  0  0
    9.4556  -12.7645   18.4252 N   0  0  0  0  0  0  0  0  0  0  0  0
    8.0432  -14.0368   19.8071 N   0  0  0  0  0  0  0  0  0  0  0  0
    7.3477  -14.0801   21.0777 C   0  0  0  0  0  0  0  0  0  0  0  0
    6.8302  -15.4409   21.4010 C   0  0  0  0  0  0  0  0  0  0  0  0
    7.8567  -16.4365   21.7801 C   0  0  0  0  0  0  0  0  0  0  0  0
    8.7134  -16.1311   22.9572 C   0  0  2  0  0  0  0  0  0  0  0  0
    9.5255  -14.9519   22.8464 N   0  0  0  0  0  0  0  0  0  0  0  0
    9.6429  -17.3057   23.1190 C   0  0  0  0  0  0  0  0  0  0  0  0
    9.1446  -18.4540   23.2940 O   0  0  0  0  0  0  0  0  0  0  0  0
    9.8229  -13.5733   17.9031 N   0  0  0  0  0  0  0  0  0  0  0  0
   11.0404  -17.1097   23.0732 C   0  0  1  0  0  0  0  0  0  0  0  0
   11.9173  -18.2436   23.1892 C   0  0  0  0  0  0  0  0  0  0  0  0
   13.0878  -18.0032   22.2533 C   0  0  0  0  0  0  0  0  0  0  0  0
   12.6325  -18.1353   20.8045 C   0  0  0  0  0  0  0  0  0  0  0  0
   13.7683  -17.9036   19.8760 O   0  0  0  0  0  0  0  0  0  0  0  0
   14.9687  -17.8768   20.2398 C   0  0  0  0  0  0  0  0  0  0  0  0
   12.4030  -18.2908   24.6156 O   0  0  0  0  0  0  0  0  0  0  0  0
   12.7024  -17.2400   25.2386 O   0  0  0  0  0  0  0  0  0  0  0  0
   13.5047  -17.7029   18.5230 N   0  0  0  0  0  0  0  0  0  0  0  0
   12.5377  -19.5232   25.3008 C   0  0  1  0  0  0  0  0  0  0  0  0
   13.0951  -19.5031   26.6754 C   0  0  0  0  0  0  0  0  0  0  0  0
   12.3711  -20.5475   27.5015 C   0  0  0  0  0  0  0  0  0  0  0  0
   11.1248  -19.9981   28.0275 O   0  0  0  0  0  0  0  0  0  0  0  0
   10.8423  -18.7930   27.9108 C   0  0  0  0  0  0  0  0  0  0  0  0
   14.5166  -19.8798   26.4944 O   0  0  0  0  0  0  0  0  0  0  0  0
   14.8898  -20.3740   25.4008 O   0  0  0  0  0  0  0  0  0  0  0  0
   10.2237  -20.8312   28.6764 O   0  0  0  0  0  0  0  0  0  0  0  0
  1  2  1  0
  2  3  2  0
  4  2  1  0
  5  4  1  0
  6  5  1  0
  7  6  1  0
  8  7  1  0
  8  9  1  6
 10  8  1  0
 10 12  1  0
 11 10  2  0
 13 12  1  0
 13 14  1  6
 15 14  1  0
 15 16  1  0
 16 17  2  0
 18 13  1  0
 19 18  2  0
 20 16  1  0
 21 18  1  0
 22 26  1  0
 22 21  1  0
 23 24  1  0
 22 23  1  1
 24 25  2  0
 26 29  1  0
 27 26  2  0
 28 24  1  0
M  END
$$$$
