RED.pdb
     RDKit          3D

 29 28  0  0  1  0  0  0  0  0999 V2000
    8.8576  -13.6274   17.2561 N   0  0  0  0  0  0  0  0  0  0  0  0
    8.8349  -13.1444   18.5860 C   0  0  0  0  0  0  0  0  0  0  0  0
    8.8952  -11.8912   18.7961 N   0  0  0  0  0  0  0  0  0  0  0  0
    8.7441  -14.0739   19.6543 N   0  0  0  0  0  0  0  0  0  0  0  0
    7.7401  -13.8801   20.6812 C   0  0  0  0  0  0  0  0  0  0  0  0
    8.2709  -13.1546   21.8711 C   0  0  0  0  0  0  0  0  0  0  0  0
    9.1041  -13.9634   22.7878 C   0  0  0  0  0  0  0  0  0  0  0  0
    8.4274  -15.0239   23.5816 C   0  0  2  0  0  0  0  0  0  0  0  0
    8.3061  -14.7657   24.9889 N   0  0  0  0  0  0  0  0  0  0  0  0
    9.2614  -16.2683   23.4212 C   0  0  0  0  0  0  0  0  0  0  0  0
    9.9879  -16.6402   24.3864 O   0  0  0  0  0  0  0  0  0  0  0  0
    8.7899  -11.4254   19.7091 N   0  0  0  0  0  0  0  0  0  0  0  0
    9.2200  -16.9928   22.2102 C   0  0  2  0  0  0  0  0  0  0  0  0
    9.9710  -18.2135   22.0908 C   0  0  0  0  0  0  0  0  0  0  0  0
    9.1762  -19.1433   21.1922 C   0  0  0  0  0  0  0  0  0  0  0  0
    9.9556  -20.4319   20.9556 C   0  0  0  0  0  0  0  0  0  0  0  0
    9.2082  -21.3354   20.0440 O   0  0  0  0  0  0  0  0  0  0  0  0
    9.5168  -21.5200   18.8420 C   0  0  0  0  0  0  0  0  0  0  0  0
   11.2853  -17.8693   21.4375 O   0  0  0  0  0  0  0  0  0  0  0  0
   12.0156  -18.7592   20.9309 O   0  0  0  0  0  0  0  0  0  0  0  0
    8.1007  -22.0239   20.5337 N   0  0  0  0  0  0  0  0  0  0  0  0
   11.7402  -16.5294   21.3733 C   0  0  1  0  0  0  0  0  0  0  0  0
   13.1124  -16.2789   20.8681 C   0  0  0  0  0  0  0  0  0  0  0  0
   13.1327  -14.9250   20.1871 C   0  0  0  0  0  0  0  0  0  0  0  0
   12.7593  -15.0625   18.7823 O   0  0  0  0  0  0  0  0  0  0  0  0
   12.4326  -16.1601   18.2983 C   0  0  0  0  0  0  0  0  0  0  0  0
   13.9489  -16.2563   22.0908 O   0  0  0  0  0  0  0  0  0  0  0  0
   15.1664  -16.5581   22.0115 O   0  0  0  0  0  0  0  0  0  0  0  0
   12.7651  -13.9478   17.9550 O   0  0  0  0  0  0  0  0  0  0  0  0
  1  2  1  0
  2  3  2  0
  4  2  1  0
  5  4  1  0
  6  5  1  0
  7  6  1  0
  8  7  1  0
  8  9  1  1
 10  8  1  0
 10 12  1  0
 11 10  2  0
 13 12  1  0
 13 14  1  1
 15 14  1  0
 15 16  1  0
 16 17  2  0
 18 13  1  0
 19 18  2  0
 20 16  1  0
 21 18  1  0
 22 26  1  0
 22 21  1  0
 23 24  1  0
 22 23  1  1
 24 25  2  0
 26 29  1  0
 27 26  2  0
 28 24  1  0
M  END
$$$$
