RED.pdb
     RDKit          3D

 29 28  0  0  1  0  0  0  0  0999 V2000
    6.9355  -12.9542   19.5355 N   0  0  0  0  0  0  0  0  0  0  0  0
    8.3230  -12.8120   19.2969 C   0  0  0  0  0  0  0  0  0  0  0  0
    8.7702  -11.7061   18.8548 N   0  0  0  0  0  0  0  0  0  0  0  0
    9.1826  -13.9102   19.5586 N   0  0  0  0  0  0  0  0  0  0  0  0
    8.6246  -15.1390   20.0866 C   0  0  0  0  0  0  0  0  0  0  0  0
    8.4939  -16.2011   19.0479 C   0  0  0  0  0  0  0  0  0  0  0  0
    9.6271  -17.1485   18.9632 C   0  0  0  0  0  0  0  0  0  0  0  0
    9.6258  -18.3112   19.8911 C   0  0  2  0  0  0  0  0  0  0  0  0
    8.3861  -18.5636   20.5704 N   0  0  0  0  0  0  0  0  0  0  0  0
   10.6639  -18.0139   20.9418 C   0  0  0  0  0  0  0  0  0  0  0  0
   11.8647  -17.8552   20.5804 O   0  0  0  0  0  0  0  0  0  0  0  0
    9.7607  -11.4791   18.6845 N   0  0  0  0  0  0  0  0  0  0  0  0
   10.2854  -17.9177   22.2986 C   0  0  1  0  0  0  0  0  0  0  0  0
   11.2892  -17.6607   23.2959 C   0  0  0  0  0  0  0  0  0  0  0  0
   10.6799  -16.7117   24.3117 C   0  0  0  0  0  0  0  0  0  0  0  0
    9.4824  -17.3700   24.9873 C   0  0  0  0  0  0  0  0  0  0  0  0
    8.8847  -16.4586   25.9963 O   0  0  0  0  0  0  0  0  0  0  0  0
    8.0535  -15.5615   25.7164 C   0  0  0  0  0  0  0  0  0  0  0  0
   11.6140  -18.9770   23.9548 O   0  0  0  0  0  0  0  0  0  0  0  0
   11.5305  -20.0616   23.3234 O   0  0  0  0  0  0  0  0  0  0  0  0
    9.2562  -16.5930   27.3322 N   0  0  0  0  0  0  0  0  0  0  0  0
   12.0247  -19.0340   25.3093 C   0  0  1  0  0  0  0  0  0  0  0  0
   12.6406  -20.2904   25.8023 C   0  0  0  0  0  0  0  0  0  0  0  0
   13.9128  -20.5406   25.0174 C   0  0  0  0  0  0  0  0  0  0  0  0
   14.1984  -21.9716   24.9644 O   0  0  0  0  0  0  0  0  0  0  0  0
   13.9744  -22.7179   25.9332 C   0  0  0  0  0  0  0  0  0  0  0  0
   12.9552  -20.0056   27.2218 O   0  0  0  0  0  0  0  0  0  0  0  0
   13.6353  -18.9892   27.5116 O   0  0  0  0  0  0  0  0  0  0  0  0
   14.7335  -22.5255   23.8096 O   0  0  0  0  0  0  0  0  0  0  0  0
  1  2  1  0
  2  3  2  0
  4  2  1  0
  5  4  1  0
  6  5  1  0
  7  6  1  0
  8  7  1  0
  8  9  1  1
 10  8  1  0
 10 12  1  0
 11 10  2  0
 13 12  1  0
 13 14  1  1
 15 14  1  0
 15 16  1  0
 16 17  2  0
 18 13  1  0
 19 18  2  0
 20 16  1  0
 21 18  1  0
 22 26  1  0
 22 21  1  0
 23 24  1  0
 22 23  1  1
 24 25  2  0
 26 29  1  0
 27 26  2  0
 28 24  1  0
M  END
$$$$
