RED.pdb
     RDKit          3D

 29 28  0  0  1  0  0  0  0  0999 V2000
    6.8762  -15.3144   13.7911 N   0  0  0  0  0  0  0  0  0  0  0  0
    8.0636  -15.6664   14.4756 C   0  0  0  0  0  0  0  0  0  0  0  0
    9.1884  -15.3193   13.9932 N   0  0  0  0  0  0  0  0  0  0  0  0
    7.9684  -16.3991   15.6870 N   0  0  0  0  0  0  0  0  0  0  0  0
    8.4090  -15.7866   16.9242 C   0  0  0  0  0  0  0  0  0  0  0  0
    8.3143  -14.2986   16.8919 C   0  0  0  0  0  0  0  0  0  0  0  0
    8.9217  -13.5990   18.0452 C   0  0  0  0  0  0  0  0  0  0  0  0
    8.2638  -13.7527   19.3706 C   0  0  2  0  0  0  0  0  0  0  0  0
    7.4186  -12.6647   19.7755 N   0  0  0  0  0  0  0  0  0  0  0  0
    9.3743  -13.8625   20.3829 C   0  0  0  0  0  0  0  0  0  0  0  0
   10.1244  -12.8627   20.5714 O   0  0  0  0  0  0  0  0  0  0  0  0
   10.1083  -15.4776   14.4295 N   0  0  0  0  0  0  0  0  0  0  0  0
    9.5590  -15.0657   21.0982 C   0  0  2  0  0  0  0  0  0  0  0  0
   10.5808  -15.1381   22.1075 C   0  0  0  0  0  0  0  0  0  0  0  0
   10.1607  -16.2115   23.0951 C   0  0  0  0  0  0  0  0  0  0  0  0
   11.2201  -16.3646   24.1805 C   0  0  0  0  0  0  0  0  0  0  0  0
   10.8730  -17.4811   25.0964 O   0  0  0  0  0  0  0  0  0  0  0  0
   11.6726  -17.9694   25.9308 C   0  0  0  0  0  0  0  0  0  0  0  0
   11.8603  -15.5450   21.4220 O   0  0  0  0  0  0  0  0  0  0  0  0
   11.8969  -16.5274   20.6374 O   0  0  0  0  0  0  0  0  0  0  0  0
    9.5934  -18.0287   25.0395 N   0  0  0  0  0  0  0  0  0  0  0  0
   13.0645  -14.8320   21.6404 C   0  0  1  0  0  0  0  0  0  0  0  0
   14.2859  -15.2860   20.9312 C   0  0  0  0  0  0  0  0  0  0  0  0
   15.0703  -14.0639   20.4972 C   0  0  0  0  0  0  0  0  0  0  0  0
   15.9525  -14.4013   19.3837 O   0  0  0  0  0  0  0  0  0  0  0  0
   15.9823  -15.5455   18.8984 C   0  0  0  0  0  0  0  0  0  0  0  0
   15.0374  -16.0466   21.9568 O   0  0  0  0  0  0  0  0  0  0  0  0
   14.8358  -15.8071   23.1740 O   0  0  0  0  0  0  0  0  0  0  0  0
   16.7840  -13.4296   18.8440 O   0  0  0  0  0  0  0  0  0  0  0  0
  1  2  1  0
  2  3  2  0
  4  2  1  0
  5  4  1  0
  6  5  1  0
  7  6  1  0
  8  7  1  0
  8  9  1  1
 10  8  1  0
 10 12  1  0
 11 10  2  0
 13 12  1  0
 13 14  1  6
 15 14  1  0
 15 16  1  0
 16 17  2  0
 18 13  1  0
 19 18  2  0
 20 16  1  0
 21 18  1  0
 22 26  1  0
 22 21  1  0
 23 24  1  0
 22 23  1  1
 24 25  2  0
 26 29  1  0
 27 26  2  0
 28 24  1  0
M  END
$$$$
