DEK.pdb
     RDKit          3D

 27 26  0  0  1  0  0  0  0  0999 V2000
    9.8409  -12.9486   18.4882 N   0  0  0  0  0  0  0  0  0  0  0  0
    8.5031  -13.2233   18.9496 C   0  0  1  0  0  0  0  0  0  0  0  0
    7.6193  -13.5050   17.7721 C   0  0  0  0  0  0  0  0  0  0  0  0
    8.3623  -14.3348   16.7931 C   0  0  0  0  0  0  0  0  0  0  0  0
    7.9281  -14.5102   15.6421 O   0  0  0  0  0  0  0  0  0  0  0  0
    8.5155  -14.3134   19.9394 C   0  0  0  0  0  0  0  0  0  0  0  0
    7.4388  -14.6515   20.5166 O   0  0  0  0  0  0  0  0  0  0  0  0
    9.5691  -14.9400   17.1416 O   0  0  0  0  0  0  0  0  0  0  0  0
    9.6802  -15.0186   20.2903 N   0  0  0  0  0  0  0  0  0  0  0  0
    9.7458  -16.0430   21.2966 C   0  0  1  0  0  0  0  0  0  0  0  0
   10.8674  -17.0163   21.1031 C   0  0  0  0  0  0  0  0  0  0  0  0
   10.7103  -17.8458   19.8544 C   0  0  0  0  0  0  0  0  0  0  0  0
   11.8757  -18.7350   19.7235 C   0  0  0  0  0  0  0  0  0  0  0  0
   12.7499  -18.5080   18.8664 O   0  0  0  0  0  0  0  0  0  0  0  0
    9.8649  -15.4558   22.6703 C   0  0  0  0  0  0  0  0  0  0  0  0
   10.9000  -14.7680   22.9666 O   0  0  0  0  0  0  0  0  0  0  0  0
   12.0066  -19.8275   20.5509 O   0  0  0  0  0  0  0  0  0  0  0  0
    8.9009  -15.6198   23.6518 N   0  0  0  0  0  0  0  0  0  0  0  0
    9.0263  -15.0523   25.0411 C   0  0  1  0  0  0  0  0  0  0  0  0
    7.7509  -14.3229   25.2916 C   0  0  0  0  0  0  0  0  0  0  0  0
    7.6278  -13.3154   26.3323 C   0  0  0  0  0  0  0  0  0  0  0  0
    6.4010  -12.5753   26.6214 C   0  0  0  0  0  0  0  0  0  0  0  0
    6.4818  -11.5482   27.7256 C   0  0  0  0  0  0  0  0  0  0  0  0
    5.2344  -10.8511   27.8857 N   0  0  0  0  0  0  0  0  0  0  0  0
    9.2512  -16.1765   25.9391 C   0  0  0  0  0  0  0  0  0  0  0  0
    9.7836  -15.9660   27.2355 O   0  0  0  0  0  0  0  0  0  0  0  0
    9.0122  -17.3463   25.6672 O   0  0  0  0  0  0  0  0  0  0  0  0
  2  1  1  6
  3  2  1  0
  4  3  1  0
  5  4  2  0
  6  7  2  0
  6  2  1  0
  8  4  1  0
  9  6  1  0
 10 11  1  6
 10  9  1  0
 11 12  1  0
 13 17  1  0
 13 12  1  0
 14 13  2  0
 15 18  1  0
 15 10  1  0
 16 15  2  0
 19 18  1  0
 19 20  1  1
 21 20  1  0
 22 21  1  0
 23 22  1  0
 24 23  1  0
 25 26  1  0
 25 19  1  0
 27 25  2  0
M  END
$$$$
