DEK.pdb
     RDKit          3D

 27 26  0  0  1  0  0  0  0  0999 V2000
    9.8690  -15.8710   17.4902 N   0  0  0  0  0  0  0  0  0  0  0  0
    8.9833  -15.0170   18.2414 C   0  0  1  0  0  0  0  0  0  0  0  0
    7.6850  -14.8771   17.5053 C   0  0  0  0  0  0  0  0  0  0  0  0
    7.9527  -14.3683   16.1384 C   0  0  0  0  0  0  0  0  0  0  0  0
    9.1053  -14.3549   15.6744 O   0  0  0  0  0  0  0  0  0  0  0  0
    8.8202  -15.5268   19.6131 C   0  0  0  0  0  0  0  0  0  0  0  0
    7.9694  -14.9925   20.3861 O   0  0  0  0  0  0  0  0  0  0  0  0
    6.9148  -13.8913   15.3389 O   0  0  0  0  0  0  0  0  0  0  0  0
    9.5713  -16.5980   20.1286 N   0  0  0  0  0  0  0  0  0  0  0  0
    9.4009  -17.1620   21.4397 C   0  0  1  0  0  0  0  0  0  0  0  0
   10.2324  -18.3818   21.6910 C   0  0  0  0  0  0  0  0  0  0  0  0
    9.9073  -19.5130   20.7493 C   0  0  0  0  0  0  0  0  0  0  0  0
   10.7859  -20.6538   21.0537 C   0  0  0  0  0  0  0  0  0  0  0  0
   11.7579  -20.9151   20.3208 O   0  0  0  0  0  0  0  0  0  0  0  0
    9.7020  -16.1590   22.5118 C   0  0  0  0  0  0  0  0  0  0  0  0
   10.8294  -15.5579   22.5042 O   0  0  0  0  0  0  0  0  0  0  0  0
   10.5370  -21.4420   22.1546 O   0  0  0  0  0  0  0  0  0  0  0  0
    8.8130  -15.8425   23.5262 N   0  0  0  0  0  0  0  0  0  0  0  0
    9.1286  -14.8717   24.6334 C   0  0  1  0  0  0  0  0  0  0  0  0
    7.8747  -14.0975   24.8558 C   0  0  0  0  0  0  0  0  0  0  0  0
    7.7488  -13.1196   25.9241 C   0  0  0  0  0  0  0  0  0  0  0  0
    6.5249  -12.3783   26.2222 C   0  0  0  0  0  0  0  0  0  0  0  0
    6.6119  -11.3596   27.3338 C   0  0  0  0  0  0  0  0  0  0  0  0
    5.3707  -10.6515   27.4943 N   0  0  0  0  0  0  0  0  0  0  0  0
    9.5480  -15.6618   25.7827 C   0  0  0  0  0  0  0  0  0  0  0  0
    9.4448  -17.0750   25.7601 O   0  0  0  0  0  0  0  0  0  0  0  0
   10.0046  -15.1979   26.8199 O   0  0  0  0  0  0  0  0  0  0  0  0
  2  1  1  6
  3  2  1  0
  4  3  1  0
  5  4  2  0
  6  7  2  0
  6  2  1  0
  8  4  1  0
  9  6  1  0
 10 11  1  1
 10  9  1  0
 11 12  1  0
 13 17  1  0
 13 12  1  0
 14 13  2  0
 15 18  1  0
 15 10  1  0
 16 15  2  0
 19 18  1  0
 19 20  1  1
 21 20  1  0
 22 21  1  0
 23 22  1  0
 24 23  1  0
 25 26  1  0
 25 19  1  0
 27 25  2  0
M  END
$$$$
