DEK.pdb
     RDKit          3D

 27 26  0  0  1  0  0  0  0  0999 V2000
    9.8649  -16.7422   18.2127 N   0  0  0  0  0  0  0  0  0  0  0  0
    8.6086  -16.5574   18.8948 C   0  0  1  0  0  0  0  0  0  0  0  0
    7.5308  -17.2961   18.1601 C   0  0  0  0  0  0  0  0  0  0  0  0
    7.8160  -17.2535   16.7056 C   0  0  0  0  0  0  0  0  0  0  0  0
    8.8796  -16.7763   16.2752 O   0  0  0  0  0  0  0  0  0  0  0  0
    8.7275  -16.9584   20.3067 C   0  0  0  0  0  0  0  0  0  0  0  0
    7.7141  -16.8972   21.0657 O   0  0  0  0  0  0  0  0  0  0  0  0
    6.8952  -17.7492   15.7833 O   0  0  0  0  0  0  0  0  0  0  0  0
    9.9288  -17.4164   20.8762 N   0  0  0  0  0  0  0  0  0  0  0  0
   10.1121  -17.7180   22.2696 C   0  0  1  0  0  0  0  0  0  0  0  0
   11.3348  -18.5321   22.5611 C   0  0  0  0  0  0  0  0  0  0  0  0
   11.4872  -18.8510   24.0264 C   0  0  0  0  0  0  0  0  0  0  0  0
   12.6897  -19.6789   24.2112 C   0  0  0  0  0  0  0  0  0  0  0  0
   13.7511  -19.3896   23.6281 O   0  0  0  0  0  0  0  0  0  0  0  0
   10.1696  -16.4705   23.0981 C   0  0  0  0  0  0  0  0  0  0  0  0
   11.1658  -15.6811   22.9679 O   0  0  0  0  0  0  0  0  0  0  0  0
   12.6480  -20.7826   25.0330 O   0  0  0  0  0  0  0  0  0  0  0  0
    9.1883  -16.1201   24.0112 N   0  0  0  0  0  0  0  0  0  0  0  0
    9.2573  -14.8853   24.8705 C   0  0  1  0  0  0  0  0  0  0  0  0
    7.8788  -14.3187   24.8676 C   0  0  0  0  0  0  0  0  0  0  0  0
    7.5020  -13.1968   25.7117 C   0  0  0  0  0  0  0  0  0  0  0  0
    6.1611  -12.6172   25.7615 C   0  0  0  0  0  0  0  0  0  0  0  0
    5.9650  -11.4616   26.7139 C   0  0  0  0  0  0  0  0  0  0  0  0
    4.5894  -11.0448   26.7563 N   0  0  0  0  0  0  0  0  0  0  0  0
    9.7202  -15.3090   26.1847 C   0  0  0  0  0  0  0  0  0  0  0  0
    9.6265  -16.6677   26.5764 O   0  0  0  0  0  0  0  0  0  0  0  0
   10.2074  -14.5654   27.0267 O   0  0  0  0  0  0  0  0  0  0  0  0
  2  1  1  6
  3  2  1  0
  4  3  1  0
  5  4  2  0
  6  7  2  0
  6  2  1  0
  8  4  1  0
  9  6  1  0
 10 11  1  6
 10  9  1  0
 11 12  1  0
 13 17  1  0
 13 12  1  0
 14 13  2  0
 15 18  1  0
 15 10  1  0
 16 15  2  0
 19 18  1  0
 19 20  1  1
 21 20  1  0
 22 21  1  0
 23 22  1  0
 24 23  1  0
 25 26  1  0
 25 19  1  0
 27 25  2  0
M  END
$$$$
