DEK.pdb
     RDKit          3D

 27 26  0  0  1  0  0  0  0  0999 V2000
   12.9538  -17.6077   17.3178 N   0  0  0  0  0  0  0  0  0  0  0  0
   13.5437  -17.8876   18.6030 C   0  0  1  0  0  0  0  0  0  0  0  0
   14.7582  -17.0292   18.7900 C   0  0  0  0  0  0  0  0  0  0  0  0
   15.7968  -17.4355   17.8127 C   0  0  0  0  0  0  0  0  0  0  0  0
   16.1644  -18.6192   17.7238 O   0  0  0  0  0  0  0  0  0  0  0  0
   12.5456  -17.7212   19.6727 C   0  0  0  0  0  0  0  0  0  0  0  0
   11.7232  -16.7579   19.6218 O   0  0  0  0  0  0  0  0  0  0  0  0
   16.3875  -16.4967   16.9679 O   0  0  0  0  0  0  0  0  0  0  0  0
   12.4488  -18.5896   20.7744 N   0  0  0  0  0  0  0  0  0  0  0  0
   11.4420  -18.5066   21.7970 C   0  0  1  0  0  0  0  0  0  0  0  0
   10.7883  -19.8157   22.1160 C   0  0  0  0  0  0  0  0  0  0  0  0
    9.7600  -20.2189   21.0902 C   0  0  0  0  0  0  0  0  0  0  0  0
    9.1710  -21.5079   21.4873 C   0  0  0  0  0  0  0  0  0  0  0  0
    9.4654  -22.5516   20.8757 O   0  0  0  0  0  0  0  0  0  0  0  0
   11.9959  -17.9361   23.0672 C   0  0  0  0  0  0  0  0  0  0  0  0
   13.2164  -18.1605   23.3713 O   0  0  0  0  0  0  0  0  0  0  0  0
    8.2874  -21.5673   22.5413 O   0  0  0  0  0  0  0  0  0  0  0  0
   11.2472  -17.1675   23.9438 N   0  0  0  0  0  0  0  0  0  0  0  0
   11.7847  -16.6312   25.2443 C   0  0  1  0  0  0  0  0  0  0  0  0
   10.7430  -15.6935   25.7511 C   0  0  0  0  0  0  0  0  0  0  0  0
   10.8655  -15.0218   27.0345 C   0  0  0  0  0  0  0  0  0  0  0  0
    9.8717  -14.0989   27.5794 C   0  0  0  0  0  0  0  0  0  0  0  0
   10.2163  -13.4429   28.8954 C   0  0  0  0  0  0  0  0  0  0  0  0
    9.1553  -12.5836   29.3466 N   0  0  0  0  0  0  0  0  0  0  0  0
   12.0202  -17.7782   26.1104 C   0  0  0  0  0  0  0  0  0  0  0  0
   13.1292  -17.7975   26.9923 O   0  0  0  0  0  0  0  0  0  0  0  0
   11.3154  -18.7787   26.1514 O   0  0  0  0  0  0  0  0  0  0  0  0
  2  1  1  6
  3  2  1  0
  4  3  1  0
  5  4  2  0
  6  7  2  0
  6  2  1  0
  8  4  1  0
  9  6  1  0
 10 11  1  1
 10  9  1  0
 11 12  1  0
 13 17  1  0
 13 12  1  0
 14 13  2  0
 15 18  1  0
 15 10  1  0
 16 15  2  0
 19 18  1  0
 19 20  1  1
 21 20  1  0
 22 21  1  0
 23 22  1  0
 24 23  1  0
 25 26  1  0
 25 19  1  0
 27 25  2  0
M  END
$$$$
