DEK.pdb
     RDKit          3D

 27 26  0  0  1  0  0  0  0  0999 V2000
   12.5190  -15.7383   17.5104 N   0  0  0  0  0  0  0  0  0  0  0  0
   12.7799  -15.6408   18.9247 C   0  0  1  0  0  0  0  0  0  0  0  0
   13.4665  -14.3403   19.2151 C   0  0  0  0  0  0  0  0  0  0  0  0
   14.8417  -14.3818   18.6619 C   0  0  0  0  0  0  0  0  0  0  0  0
   15.5218  -15.4205   18.7135 O   0  0  0  0  0  0  0  0  0  0  0  0
   11.5350  -15.8228   19.6898 C   0  0  0  0  0  0  0  0  0  0  0  0
   10.4576  -15.3018   19.2718 O   0  0  0  0  0  0  0  0  0  0  0  0
   15.4064  -13.2532   18.0690 O   0  0  0  0  0  0  0  0  0  0  0  0
   11.4696  -16.5588   20.8861 N   0  0  0  0  0  0  0  0  0  0  0  0
   10.2707  -16.7795   21.6477 C   0  0  1  0  0  0  0  0  0  0  0  0
    9.9642  -18.2240   21.8965 C   0  0  0  0  0  0  0  0  0  0  0  0
    9.8134  -19.0157   20.6227 C   0  0  0  0  0  0  0  0  0  0  0  0
    9.5109  -20.4149   20.9643 C   0  0  0  0  0  0  0  0  0  0  0  0
   10.1551  -21.3450   20.4446 O   0  0  0  0  0  0  0  0  0  0  0  0
   10.3231  -16.0757   22.9698 C   0  0  0  0  0  0  0  0  0  0  0  0
   11.4081  -16.0959   23.6442 O   0  0  0  0  0  0  0  0  0  0  0  0
    8.5098  -20.7047   21.8637 O   0  0  0  0  0  0  0  0  0  0  0  0
    9.2445  -15.3944   23.5101 N   0  0  0  0  0  0  0  0  0  0  0  0
    9.2940  -14.6784   24.8340 C   0  0  1  0  0  0  0  0  0  0  0  0
    8.0385  -13.8782   24.9030 C   0  0  0  0  0  0  0  0  0  0  0  0
    7.6894  -13.0863   26.0710 C   0  0  0  0  0  0  0  0  0  0  0  0
    6.4979  -12.2456   26.1701 C   0  0  0  0  0  0  0  0  0  0  0  0
    6.2992  -11.5152   27.4771 C   0  0  0  0  0  0  0  0  0  0  0  0
    5.0495  -10.8042   27.4957 N   0  0  0  0  0  0  0  0  0  0  0  0
    9.4011  -15.7015   25.8650 C   0  0  0  0  0  0  0  0  0  0  0  0
    8.9084  -17.0099   25.6336 O   0  0  0  0  0  0  0  0  0  0  0  0
    9.9017  -15.5303   26.9693 O   0  0  0  0  0  0  0  0  0  0  0  0
  2  1  1  6
  3  2  1  0
  4  3  1  0
  5  4  2  0
  6  7  2  0
  6  2  1  0
  8  4  1  0
  9  6  1  0
 10 11  1  1
 10  9  1  0
 11 12  1  0
 13 17  1  0
 13 12  1  0
 14 13  2  0
 15 18  1  0
 15 10  1  0
 16 15  2  0
 19 18  1  0
 19 20  1  1
 21 20  1  0
 22 21  1  0
 23 22  1  0
 24 23  1  0
 25 26  1  0
 25 19  1  0
 27 25  2  0
M  END
$$$$
