DEK.pdb
     RDKit          3D

 27 26  0  0  1  0  0  0  0  0999 V2000
    9.9160  -14.2732   17.7864 N   0  0  0  0  0  0  0  0  0  0  0  0
    8.6711  -14.0302   18.4712 C   0  0  1  0  0  0  0  0  0  0  0  0
    7.5317  -14.2370   17.5193 C   0  0  0  0  0  0  0  0  0  0  0  0
    8.0465  -14.2034   16.1291 C   0  0  0  0  0  0  0  0  0  0  0  0
    7.2708  -14.2138   15.1584 O   0  0  0  0  0  0  0  0  0  0  0  0
    8.5775  -14.8681   19.6784 C   0  0  0  0  0  0  0  0  0  0  0  0
    7.5111  -14.8674   20.3637 O   0  0  0  0  0  0  0  0  0  0  0  0
    9.4171  -14.1593   15.8769 O   0  0  0  0  0  0  0  0  0  0  0  0
    9.6275  -15.6890   20.1266 N   0  0  0  0  0  0  0  0  0  0  0  0
    9.5838  -16.5010   21.3119 C   0  0  1  0  0  0  0  0  0  0  0  0
   10.6183  -17.5832   21.3475 C   0  0  0  0  0  0  0  0  0  0  0  0
   10.3041  -18.7210   20.4101 C   0  0  0  0  0  0  0  0  0  0  0  0
   11.4073  -19.6940   20.4553 C   0  0  0  0  0  0  0  0  0  0  0  0
   11.1895  -20.9047   20.2627 O   0  0  0  0  0  0  0  0  0  0  0  0
    9.7292  -15.6709   22.5512 C   0  0  0  0  0  0  0  0  0  0  0  0
   10.7941  -14.9858   22.7213 O   0  0  0  0  0  0  0  0  0  0  0  0
   12.6916  -19.2697   20.7119 O   0  0  0  0  0  0  0  0  0  0  0  0
    8.7588  -15.6041   23.5379 N   0  0  0  0  0  0  0  0  0  0  0  0
    8.8893  -14.7536   24.7738 C   0  0  1  0  0  0  0  0  0  0  0  0
    7.6270  -13.9651   24.8517 C   0  0  0  0  0  0  0  0  0  0  0  0
    7.3359  -13.0794   25.9670 C   0  0  0  0  0  0  0  0  0  0  0  0
    6.1085  -12.2969   26.0990 C   0  0  0  0  0  0  0  0  0  0  0  0
    6.0116  -11.4004   27.3105 C   0  0  0  0  0  0  0  0  0  0  0  0
    4.7671  -10.6805   27.3320 N   0  0  0  0  0  0  0  0  0  0  0  0
    9.0895  -15.6623   25.8941 C   0  0  0  0  0  0  0  0  0  0  0  0
    9.0080  -17.0645   25.7061 O   0  0  0  0  0  0  0  0  0  0  0  0
    9.3339  -15.3126   27.0419 O   0  0  0  0  0  0  0  0  0  0  0  0
  2  1  1  6
  3  2  1  0
  4  3  1  0
  5  4  2  0
  6  7  2  0
  6  2  1  0
  8  4  1  0
  9  6  1  0
 10 11  1  6
 10  9  1  0
 11 12  1  0
 13 17  1  0
 13 12  1  0
 14 13  2  0
 15 18  1  0
 15 10  1  0
 16 15  2  0
 19 18  1  0
 19 20  1  1
 21 20  1  0
 22 21  1  0
 23 22  1  0
 24 23  1  0
 25 26  1  0
 25 19  1  0
 27 25  2  0
M  END
$$$$
