DEK.pdb
     RDKit          3D

 27 26  0  0  1  0  0  0  0  0999 V2000
   11.5935  -21.8909   19.7796 N   0  0  0  0  0  0  0  0  0  0  0  0
   12.6280  -21.1798   20.4881 C   0  0  1  0  0  0  0  0  0  0  0  0
   12.2712  -19.7257   20.5607 C   0  0  0  0  0  0  0  0  0  0  0  0
   12.5237  -19.0960   19.2421 C   0  0  0  0  0  0  0  0  0  0  0  0
   12.9107  -19.7713   18.2735 O   0  0  0  0  0  0  0  0  0  0  0  0
   12.8557  -21.7878   21.8097 C   0  0  0  0  0  0  0  0  0  0  0  0
   11.9953  -22.5834   22.2930 O   0  0  0  0  0  0  0  0  0  0  0  0
   12.3326  -17.7273   19.0570 O   0  0  0  0  0  0  0  0  0  0  0  0
   13.9997  -21.5313   22.5860 N   0  0  0  0  0  0  0  0  0  0  0  0
   14.2769  -22.1350   23.8608 C   0  0  1  0  0  0  0  0  0  0  0  0
   15.6523  -21.8535   24.3821 C   0  0  0  0  0  0  0  0  0  0  0  0
   15.9958  -22.6785   25.5959 C   0  0  0  0  0  0  0  0  0  0  0  0
   17.3860  -22.3951   25.9867 C   0  0  0  0  0  0  0  0  0  0  0  0
   18.2972  -23.1947   25.7025 O   0  0  0  0  0  0  0  0  0  0  0  0
   13.2842  -21.7061   24.8984 C   0  0  0  0  0  0  0  0  0  0  0  0
   12.9760  -20.4698   24.9930 O   0  0  0  0  0  0  0  0  0  0  0  0
   17.6885  -21.2399   26.6717 O   0  0  0  0  0  0  0  0  0  0  0  0
   12.6729  -22.5886   25.7743 N   0  0  0  0  0  0  0  0  0  0  0  0
   11.5543  -22.1951   26.7026 C   0  0  1  0  0  0  0  0  0  0  0  0
   10.8580  -23.4660   27.0508 C   0  0  0  0  0  0  0  0  0  0  0  0
    9.7671  -23.5123   28.0105 C   0  0  0  0  0  0  0  0  0  0  0  0
    9.0216  -24.7221   28.3525 C   0  0  0  0  0  0  0  0  0  0  0  0
    7.9360  -24.5697   29.3914 C   0  0  0  0  0  0  0  0  0  0  0  0
    7.2455  -25.8112   29.6142 N   0  0  0  0  0  0  0  0  0  0  0  0
   12.1653  -21.5239   27.8415 C   0  0  0  0  0  0  0  0  0  0  0  0
   11.4540  -20.5278   28.5556 O   0  0  0  0  0  0  0  0  0  0  0  0
   13.2928  -21.7496   28.2626 O   0  0  0  0  0  0  0  0  0  0  0  0
  2  1  1  1
  3  2  1  0
  4  3  1  0
  5  4  2  0
  6  7  2  0
  6  2  1  0
  8  4  1  0
  9  6  1  0
 10 11  1  1
 10  9  1  0
 11 12  1  0
 13 17  1  0
 13 12  1  0
 14 13  2  0
 15 18  1  0
 15 10  1  0
 16 15  2  0
 19 18  1  0
 19 20  1  1
 21 20  1  0
 22 21  1  0
 23 22  1  0
 24 23  1  0
 25 26  1  0
 25 19  1  0
 27 25  2  0
M  END
$$$$
