DEK.pdb
     RDKit          3D

 27 26  0  0  1  0  0  0  0  0999 V2000
   14.0875  -16.4364   19.8873 N   0  0  0  0  0  0  0  0  0  0  0  0
   13.2453  -15.2779   19.7242 C   0  0  1  0  0  0  0  0  0  0  0  0
   13.2302  -14.8736   18.2808 C   0  0  0  0  0  0  0  0  0  0  0  0
   14.5669  -14.3512   17.9076 C   0  0  0  0  0  0  0  0  0  0  0  0
   15.5086  -15.1221   17.6565 O   0  0  0  0  0  0  0  0  0  0  0  0
   11.9019  -15.5398   20.2672 C   0  0  0  0  0  0  0  0  0  0  0  0
   10.9711  -14.7009   20.0754 O   0  0  0  0  0  0  0  0  0  0  0  0
   14.8000  -12.9787   17.8294 O   0  0  0  0  0  0  0  0  0  0  0  0
   11.5831  -16.6943   21.0039 N   0  0  0  0  0  0  0  0  0  0  0  0
   10.3395  -16.9096   21.6920 C   0  0  1  0  0  0  0  0  0  0  0  0
   10.0335  -18.3507   21.9607 C   0  0  0  0  0  0  0  0  0  0  0  0
    9.7686  -19.1351   20.7011 C   0  0  0  0  0  0  0  0  0  0  0  0
    9.4499  -20.5253   21.0638 C   0  0  0  0  0  0  0  0  0  0  0  0
    8.3213  -20.9960   20.8294 O   0  0  0  0  0  0  0  0  0  0  0  0
   10.2979  -16.1695   22.9944 C   0  0  0  0  0  0  0  0  0  0  0  0
   11.3561  -16.1019   23.7072 O   0  0  0  0  0  0  0  0  0  0  0  0
   10.4014  -21.3166   21.6669 O   0  0  0  0  0  0  0  0  0  0  0  0
    9.1588  -15.5452   23.4764 N   0  0  0  0  0  0  0  0  0  0  0  0
    9.1389  -14.7040   24.7254 C   0  0  1  0  0  0  0  0  0  0  0  0
    7.8124  -14.0246   24.7288 C   0  0  0  0  0  0  0  0  0  0  0  0
    7.3659  -13.2055   25.8437 C   0  0  0  0  0  0  0  0  0  0  0  0
    6.1484  -12.3968   25.8360 C   0  0  0  0  0  0  0  0  0  0  0  0
    5.8336  -11.6466   27.1084 C   0  0  0  0  0  0  0  0  0  0  0  0
    4.7005  -10.7779   26.9383 N   0  0  0  0  0  0  0  0  0  0  0  0
    9.3435  -15.6084   25.8484 C   0  0  0  0  0  0  0  0  0  0  0  0
    9.0678  -16.9921   25.7168 O   0  0  0  0  0  0  0  0  0  0  0  0
    9.7518  -15.2700   26.9522 O   0  0  0  0  0  0  0  0  0  0  0  0
  2  1  1  6
  3  2  1  0
  4  3  1  0
  5  4  2  0
  6  7  2  0
  6  2  1  0
  8  4  1  0
  9  6  1  0
 10 11  1  1
 10  9  1  0
 11 12  1  0
 13 17  1  0
 13 12  1  0
 14 13  2  0
 15 18  1  0
 15 10  1  0
 16 15  2  0
 19 18  1  0
 19 20  1  1
 21 20  1  0
 22 21  1  0
 23 22  1  0
 24 23  1  0
 25 26  1  0
 25 19  1  0
 27 25  2  0
M  END
$$$$
