DEK.pdb
     RDKit          3D

 27 26  0  0  1  0  0  0  0  0999 V2000
   10.1938  -14.5240   17.9321 N   0  0  0  0  0  0  0  0  0  0  0  0
    8.9509  -14.2469   18.6075 C   0  0  1  0  0  0  0  0  0  0  0  0
    7.8067  -14.5577   17.6904 C   0  0  0  0  0  0  0  0  0  0  0  0
    8.2018  -14.2450   16.2957 C   0  0  0  0  0  0  0  0  0  0  0  0
    9.3945  -14.0766   15.9905 O   0  0  0  0  0  0  0  0  0  0  0  0
    8.8864  -14.9784   19.8838 C   0  0  0  0  0  0  0  0  0  0  0  0
    7.8499  -14.8900   20.6081 O   0  0  0  0  0  0  0  0  0  0  0  0
    7.2420  -14.1319   15.2908 O   0  0  0  0  0  0  0  0  0  0  0  0
    9.9328  -15.7894   20.3578 N   0  0  0  0  0  0  0  0  0  0  0  0
    9.8735  -16.5892   21.5507 C   0  0  1  0  0  0  0  0  0  0  0  0
   10.9799  -17.5916   21.6677 C   0  0  0  0  0  0  0  0  0  0  0  0
   10.9970  -18.5768   20.5270 C   0  0  0  0  0  0  0  0  0  0  0  0
   12.1996  -19.4174   20.6415 C   0  0  0  0  0  0  0  0  0  0  0  0
   13.2062  -19.1768   19.9494 O   0  0  0  0  0  0  0  0  0  0  0  0
    9.8791  -15.7370   22.7834 C   0  0  0  0  0  0  0  0  0  0  0  0
   10.9339  -15.0815   23.0834 O   0  0  0  0  0  0  0  0  0  0  0  0
   12.2185  -20.4791   21.5177 O   0  0  0  0  0  0  0  0  0  0  0  0
    8.7880  -15.6187   23.6290 N   0  0  0  0  0  0  0  0  0  0  0  0
    8.7938  -14.7781   24.8786 C   0  0  1  0  0  0  0  0  0  0  0  0
    7.5836  -13.9134   24.7844 C   0  0  0  0  0  0  0  0  0  0  0  0
    7.2371  -12.9527   25.8189 C   0  0  0  0  0  0  0  0  0  0  0  0
    6.0570  -12.0911   25.7811 C   0  0  0  0  0  0  0  0  0  0  0  0
    5.9183  -11.0940   26.9070 C   0  0  0  0  0  0  0  0  0  0  0  0
    4.6860  -10.3596   26.8081 N   0  0  0  0  0  0  0  0  0  0  0  0
    8.7777  -15.6977   26.0077 C   0  0  0  0  0  0  0  0  0  0  0  0
    8.7420  -17.0981   25.7942 O   0  0  0  0  0  0  0  0  0  0  0  0
    8.7927  -15.3590   27.1844 O   0  0  0  0  0  0  0  0  0  0  0  0
  2  1  1  6
  3  2  1  0
  4  3  1  0
  5  4  2  0
  6  7  2  0
  6  2  1  0
  8  4  1  0
  9  6  1  0
 10 11  1  1
 10  9  1  0
 11 12  1  0
 13 17  1  0
 13 12  1  0
 14 13  2  0
 15 18  1  0
 15 10  1  0
 16 15  2  0
 19 18  1  0
 19 20  1  6
 21 20  1  0
 22 21  1  0
 23 22  1  0
 24 23  1  0
 25 26  1  0
 25 19  1  0
 27 25  2  0
M  END
$$$$
