DEK.pdb
     RDKit          3D

 27 26  0  0  1  0  0  0  0  0999 V2000
   10.7800  -14.8388   15.3835 N   0  0  0  0  0  0  0  0  0  0  0  0
   10.4378  -15.2851   16.7108 C   0  0  1  0  0  0  0  0  0  0  0  0
    9.2477  -16.1936   16.6382 C   0  0  0  0  0  0  0  0  0  0  0  0
    8.9095  -16.6628   18.0037 C   0  0  0  0  0  0  0  0  0  0  0  0
    9.5794  -16.3063   18.9876 O   0  0  0  0  0  0  0  0  0  0  0  0
   11.6041  -15.9077   17.3593 C   0  0  0  0  0  0  0  0  0  0  0  0
   11.8124  -17.1504   17.2205 O   0  0  0  0  0  0  0  0  0  0  0  0
    7.8289  -17.5178   18.2168 O   0  0  0  0  0  0  0  0  0  0  0  0
   12.5228  -15.1869   18.1425 N   0  0  0  0  0  0  0  0  0  0  0  0
   13.7009  -15.7467   18.7465 C   0  0  1  0  0  0  0  0  0  0  0  0
   14.9749  -15.3836   18.0481 C   0  0  0  0  0  0  0  0  0  0  0  0
   15.1688  -13.8937   17.9266 C   0  0  0  0  0  0  0  0  0  0  0  0
   16.4388  -13.6338   17.2297 C   0  0  0  0  0  0  0  0  0  0  0  0
   16.5168  -12.7316   16.3752 O   0  0  0  0  0  0  0  0  0  0  0  0
   13.8231  -15.3459   20.1854 C   0  0  0  0  0  0  0  0  0  0  0  0
   14.0612  -14.1243   20.4742 O   0  0  0  0  0  0  0  0  0  0  0  0
   17.5522  -14.3898   17.5195 O   0  0  0  0  0  0  0  0  0  0  0  0
   13.6907  -16.2395   21.2359 N   0  0  0  0  0  0  0  0  0  0  0  0
   13.7473  -15.8316   22.6844 C   0  0  1  0  0  0  0  0  0  0  0  0
   12.9480  -16.8528   23.4189 C   0  0  0  0  0  0  0  0  0  0  0  0
   12.8946  -16.8954   24.8710 C   0  0  0  0  0  0  0  0  0  0  0  0
   12.1176  -17.8666   25.6386 C   0  0  0  0  0  0  0  0  0  0  0  0
   12.1299  -17.6994   27.1396 C   0  0  0  0  0  0  0  0  0  0  0  0
   11.4044  -18.7562   27.7909 N   0  0  0  0  0  0  0  0  0  0  0  0
   15.1539  -15.7985   23.0605 C   0  0  0  0  0  0  0  0  0  0  0  0
   16.1092  -16.5567   22.3390 O   0  0  0  0  0  0  0  0  0  0  0  0
   15.6135  -15.1445   23.9882 O   0  0  0  0  0  0  0  0  0  0  0  0
  2  1  1  6
  3  2  1  0
  4  3  1  0
  5  4  2  0
  6  7  2  0
  6  2  1  0
  8  4  1  0
  9  6  1  0
 10 11  1  6
 10  9  1  0
 11 12  1  0
 13 17  1  0
 13 12  1  0
 14 13  2  0
 15 18  1  0
 15 10  1  0
 16 15  2  0
 19 18  1  0
 19 20  1  1
 21 20  1  0
 22 21  1  0
 23 22  1  0
 24 23  1  0
 25 26  1  0
 25 19  1  0
 27 25  2  0
M  END
$$$$
