DEK.pdb
     RDKit          3D

 27 26  0  0  1  0  0  0  0  0999 V2000
   32.4869  -71.2339    4.5900 N   0  0  0  0  0  0  0  0  0  0  0  0
   32.3618  -71.8355    5.8940 C   0  0  1  0  0  0  0  0  0  0  0  0
   31.6745  -70.8774    6.8195 C   0  0  0  0  0  0  0  0  0  0  0  0
   30.6734  -71.6146    7.6278 C   0  0  0  0  0  0  0  0  0  0  0  0
   30.2846  -71.1742    8.7228 O   0  0  0  0  0  0  0  0  0  0  0  0
   31.6797  -73.1368    5.7953 C   0  0  0  0  0  0  0  0  0  0  0  0
   32.3490  -74.2079    5.9026 O   0  0  0  0  0  0  0  0  0  0  0  0
   30.1430  -72.8228    7.1775 O   0  0  0  0  0  0  0  0  0  0  0  0
   30.2953  -73.2640    5.5840 N   0  0  0  0  0  0  0  0  0  0  0  0
   29.5523  -74.4851    5.7357 C   0  0  1  0  0  0  0  0  0  0  0  0
   29.6221  -75.3924    4.5464 C   0  0  0  0  0  0  0  0  0  0  0  0
   29.0470  -74.7670    3.3014 C   0  0  0  0  0  0  0  0  0  0  0  0
   27.6720  -74.3239    3.5824 C   0  0  0  0  0  0  0  0  0  0  0  0
   26.9662  -73.8428    2.6764 O   0  0  0  0  0  0  0  0  0  0  0  0
   30.0012  -75.2544    6.9408 C   0  0  0  0  0  0  0  0  0  0  0  0
   31.2295  -75.2066    7.2891 O   0  0  0  0  0  0  0  0  0  0  0  0
   27.1560  -74.4389    4.8535 O   0  0  0  0  0  0  0  0  0  0  0  0
   29.1459  -76.0267    7.7100 N   0  0  0  0  0  0  0  0  0  0  0  0
   29.0681  -77.5274    7.6115 C   0  0  1  0  0  0  0  0  0  0  0  0
   29.8075  -78.0448    8.7976 C   0  0  0  0  0  0  0  0  0  0  0  0
   31.2486  -78.2357    8.7877 C   0  0  0  0  0  0  0  0  0  0  0  0
   32.1159  -78.0214    9.9444 C   0  0  0  0  0  0  0  0  0  0  0  0
   33.5448  -77.6320    9.6483 C   0  0  0  0  0  0  0  0  0  0  0  0
   33.8866  -76.3806   10.2686 N   0  0  0  0  0  0  0  0  0  0  0  0
   27.6547  -77.8782    7.5961 C   0  0  0  0  0  0  0  0  0  0  0  0
   27.1485  -78.8629    8.4806 O   0  0  0  0  0  0  0  0  0  0  0  0
   26.8191  -77.3780    6.8538 O   0  0  0  0  0  0  0  0  0  0  0  0
  2  1  1  6
  3  2  1  0
  4  3  1  0
  5  4  2  0
  6  7  2  0
  6  2  1  0
  8  4  1  0
  9  6  1  0
 10 11  1  6
 10  9  1  0
 11 12  1  0
 13 17  1  0
 13 12  1  0
 14 13  2  0
 15 18  1  0
 15 10  1  0
 16 15  2  0
 19 18  1  0
 19 20  1  1
 21 20  1  0
 22 21  1  0
 23 22  1  0
 24 23  1  0
 25 26  1  0
 25 19  1  0
 27 25  2  0
M  END
$$$$
