DIM.pdb
     RDKit          3D

 25 24  0  0  1  0  0  0  0  0999 V2000
   11.1175  -17.1067   18.2013 N   0  0  0  0  0  0  0  0  0  0  0  0
   10.9824  -17.7448   19.4921 C   0  0  1  0  0  0  0  0  0  0  0  0
   12.1428  -18.6282   19.8379 C   0  0  0  0  0  0  0  0  0  0  0  0
   12.2525  -19.6924   18.8169 C   0  0  0  0  0  0  0  0  0  0  0  0
   13.3594  -20.1748   18.4915 O   0  0  0  0  0  0  0  0  0  0  0  0
   10.7163  -16.7111   20.5033 C   0  0  0  0  0  0  0  0  0  0  0  0
   11.5651  -15.8551   20.8692 O   0  0  0  0  0  0  0  0  0  0  0  0
   11.1137  -20.1887   18.1860 O   0  0  0  0  0  0  0  0  0  0  0  0
    7.0884  -13.0868   19.9447 C   0  0  0  0  0  0  0  0  0  0  0  0
    8.2503  -13.8755   20.4846 C   0  0  0  0  0  0  0  0  0  0  0  0
    7.9202  -14.8090   21.6025 C   0  0  2  0  0  0  0  0  0  0  0  0
    7.3581  -13.9514   22.7344 C   0  0  0  0  0  0  0  0  0  0  0  0
    9.1271  -15.5658   22.1000 C   0  0  2  0  0  0  0  0  0  0  0  0
    9.4473  -16.6331   21.1304 N   0  0  0  0  0  0  0  0  0  0  0  0
    8.8580  -16.2802   23.3587 C   0  0  0  0  0  0  0  0  0  0  0  0
    8.7151  -17.5294   23.3388 O   0  0  0  0  0  0  0  0  0  0  0  0
    9.7981  -12.6733   28.6867 C   0  0  0  0  0  0  0  0  0  0  0  0
   10.6953  -14.1556   29.2125 S   0  0  0  0  0  0  0  0  0  0  0  0
   10.5468  -15.3989   27.9092 C   0  0  0  0  0  0  0  0  0  0  0  0
    9.6373  -14.9171   26.7757 C   0  0  0  0  0  0  0  0  0  0  0  0
    9.6358  -16.0155   25.7404 C   0  0  2  0  0  0  0  0  0  0  0  0
    8.7426  -15.6912   24.6389 N   0  0  0  0  0  0  0  0  0  0  0  0
    9.3266  -17.3017   26.3621 C   0  0  0  0  0  0  0  0  0  0  0  0
   10.2322  -18.3468   26.2561 O   0  0  0  0  0  0  0  0  0  0  0  0
    8.2685  -17.5180   26.9980 O   0  0  0  0  0  0  0  0  0  0  0  0
  2  1  1  6
  2  3  1  0
  3  4  1  0
  4  8  1  0
  4  5  2  0
  6  7  2  0
  6  2  1  0
  9 10  1  0
 10 11  1  0
 11 12  1  1
 11 13  1  0
 13 14  1  6
 14  6  1  0
 15 22  1  0
 15 13  1  0
 16 15  2  0
 18 17  1  0
 19 18  1  0
 21 20  1  1
 20 19  1  0
 21 22  1  0
 21 23  1  0
 23 24  1  0
 25 23  2  0
M  END
$$$$
