DIM.pdb
     RDKit          3D

 25 24  0  0  1  0  0  0  0  0999 V2000
   10.1123  -19.0889   20.3240 N   0  0  0  0  0  0  0  0  0  0  0  0
   11.3427  -18.3290   20.3381 C   0  0  1  0  0  0  0  0  0  0  0  0
   11.8506  -18.0032   18.9660 C   0  0  0  0  0  0  0  0  0  0  0  0
   12.5068  -19.2033   18.4035 C   0  0  0  0  0  0  0  0  0  0  0  0
   12.9698  -20.1013   19.1404 O   0  0  0  0  0  0  0  0  0  0  0  0
   11.1543  -17.1425   21.1858 C   0  0  0  0  0  0  0  0  0  0  0  0
   12.0739  -16.3273   21.4630 O   0  0  0  0  0  0  0  0  0  0  0  0
   12.6265  -19.3644   17.0248 O   0  0  0  0  0  0  0  0  0  0  0  0
    6.0426  -14.9626   21.1137 C   0  0  0  0  0  0  0  0  0  0  0  0
    7.5456  -14.9917   21.1754 C   0  0  0  0  0  0  0  0  0  0  0  0
    8.1202  -15.3727   22.5000 C   0  0  2  0  0  0  0  0  0  0  0  0
    7.8067  -14.2246   23.4572 C   0  0  0  0  0  0  0  0  0  0  0  0
    9.6132  -15.5841   22.4440 C   0  0  2  0  0  0  0  0  0  0  0  0
    9.8835  -16.8573   21.7457 N   0  0  0  0  0  0  0  0  0  0  0  0
   10.2018  -15.7651   23.7812 C   0  0  0  0  0  0  0  0  0  0  0  0
   11.0692  -14.9502   24.1870 O   0  0  0  0  0  0  0  0  0  0  0  0
    9.7985  -12.7487   27.8899 C   0  0  0  0  0  0  0  0  0  0  0  0
   10.2397  -14.0353   29.0853 S   0  0  0  0  0  0  0  0  0  0  0  0
   10.5112  -15.5773   28.1825 C   0  0  0  0  0  0  0  0  0  0  0  0
    9.8936  -15.5236   26.7825 C   0  0  0  0  0  0  0  0  0  0  0  0
   10.3294  -16.7867   26.0806 C   0  0  2  0  0  0  0  0  0  0  0  0
    9.8816  -16.7940   24.6965 N   0  0  0  0  0  0  0  0  0  0  0  0
    9.8867  -17.9632   26.8265 C   0  0  0  0  0  0  0  0  0  0  0  0
    9.1181  -18.9262   26.1899 O   0  0  0  0  0  0  0  0  0  0  0  0
   10.1680  -18.1549   28.0327 O   0  0  0  0  0  0  0  0  0  0  0  0
  2  1  1  6
  2  3  1  0
  3  4  1  0
  4  8  1  0
  4  5  2  0
  6  7  2  0
  6  2  1  0
  9 10  1  0
 10 11  1  0
 11 12  1  1
 11 13  1  0
 13 14  1  6
 14  6  1  0
 15 22  1  0
 15 13  1  0
 16 15  2  0
 18 17  1  0
 19 18  1  0
 21 20  1  1
 20 19  1  0
 21 22  1  0
 21 23  1  0
 23 24  1  0
 25 23  2  0
M  END
$$$$
