DIM.pdb
     RDKit          3D

 25 24  0  0  1  0  0  0  0  0999 V2000
   11.4257  -18.6543   20.0559 N   0  0  0  0  0  0  0  0  0  0  0  0
   12.3914  -17.7249   20.5994 C   0  0  1  0  0  0  0  0  0  0  0  0
   13.2070  -17.0381   19.5459 C   0  0  0  0  0  0  0  0  0  0  0  0
   14.0776  -18.0379   18.8904 C   0  0  0  0  0  0  0  0  0  0  0  0
   13.6567  -18.7636   17.9630 O   0  0  0  0  0  0  0  0  0  0  0  0
   11.6940  -16.7912   21.4960 C   0  0  0  0  0  0  0  0  0  0  0  0
   12.2577  -15.8255   22.0763 O   0  0  0  0  0  0  0  0  0  0  0  0
   15.4016  -18.1972   19.2940 O   0  0  0  0  0  0  0  0  0  0  0  0
    6.3925  -13.9400   21.7029 C   0  0  0  0  0  0  0  0  0  0  0  0
    7.5945  -14.4368   22.4591 C   0  0  0  0  0  0  0  0  0  0  0  0
    8.2816  -15.6175   21.8559 C   0  0  2  0  0  0  0  0  0  0  0  0
    7.3043  -16.7870   21.9534 C   0  0  0  0  0  0  0  0  0  0  0  0
    9.5602  -15.9724   22.5744 C   0  0  2  0  0  0  0  0  0  0  0  0
   10.3084  -16.9457   21.7530 N   0  0  0  0  0  0  0  0  0  0  0  0
    9.3104  -16.6761   23.8432 C   0  0  0  0  0  0  0  0  0  0  0  0
    9.4490  -17.9250   23.8917 O   0  0  0  0  0  0  0  0  0  0  0  0
   10.5495  -12.4051   28.0214 C   0  0  0  0  0  0  0  0  0  0  0  0
    9.8023  -13.8555   28.8069 S   0  0  0  0  0  0  0  0  0  0  0  0
    9.9052  -15.2409   27.6508 C   0  0  0  0  0  0  0  0  0  0  0  0
    8.5464  -15.9234   27.4712 C   0  0  0  0  0  0  0  0  0  0  0  0
    8.6884  -16.8384   26.2792 C   0  0  2  0  0  0  0  0  0  0  0  0
    8.9204  -16.0756   25.0623 N   0  0  0  0  0  0  0  0  0  0  0  0
    7.5336  -17.7288   26.1794 C   0  0  0  0  0  0  0  0  0  0  0  0
    7.4815  -18.8704   26.9653 O   0  0  0  0  0  0  0  0  0  0  0  0
    6.5687  -17.5149   25.4087 O   0  0  0  0  0  0  0  0  0  0  0  0
  2  1  1  6
  2  3  1  0
  3  4  1  0
  4  8  1  0
  4  5  2  0
  6  7  2  0
  6  2  1  0
  9 10  1  0
 10 11  1  0
 11 12  1  1
 11 13  1  0
 13 14  1  6
 14  6  1  0
 15 22  1  0
 15 13  1  0
 16 15  2  0
 18 17  1  0
 19 18  1  0
 21 20  1  1
 20 19  1  0
 21 22  1  0
 21 23  1  0
 23 24  1  0
 25 23  2  0
M  END
$$$$
