DIM.pdb
     RDKit          3D

 25 24  0  0  1  0  0  0  0  0999 V2000
   10.6920  -18.3830   19.6380 N   0  0  0  0  0  0  0  0  0  0  0  0
   11.8229  -17.6626   20.1798 C   0  0  1  0  0  0  0  0  0  0  0  0
   12.6340  -16.9631   19.1314 C   0  0  0  0  0  0  0  0  0  0  0  0
   13.4577  -17.9642   18.4196 C   0  0  0  0  0  0  0  0  0  0  0  0
   13.0039  -18.6174   17.4546 O   0  0  0  0  0  0  0  0  0  0  0  0
   11.3448  -16.7642   21.2412 C   0  0  0  0  0  0  0  0  0  0  0  0
   12.0703  -15.9064   21.8113 O   0  0  0  0  0  0  0  0  0  0  0  0
   14.7728  -18.2064   18.8106 O   0  0  0  0  0  0  0  0  0  0  0  0
    6.3869  -14.9393   20.7262 C   0  0  0  0  0  0  0  0  0  0  0  0
    7.7343  -14.7803   21.3762 C   0  0  0  0  0  0  0  0  0  0  0  0
    8.0088  -15.7158   22.5073 C   0  0  2  0  0  0  0  0  0  0  0  0
    7.3902  -15.0857   23.7535 C   0  0  0  0  0  0  0  0  0  0  0  0
    9.4849  -15.9308   22.7353 C   0  0  2  0  0  0  0  0  0  0  0  0
    9.9990  -16.8295   21.6819 N   0  0  0  0  0  0  0  0  0  0  0  0
    9.7570  -16.6447   23.9937 C   0  0  0  0  0  0  0  0  0  0  0  0
    9.5295  -17.8794   24.0622 O   0  0  0  0  0  0  0  0  0  0  0  0
   11.5777  -12.4042   27.9934 C   0  0  0  0  0  0  0  0  0  0  0  0
   11.0607  -13.8026   29.0211 S   0  0  0  0  0  0  0  0  0  0  0  0
   10.2828  -15.0340   27.9512 C   0  0  0  0  0  0  0  0  0  0  0  0
   11.3120  -16.0178   27.3880 C   0  0  0  0  0  0  0  0  0  0  0  0
   10.5811  -16.8533   26.3654 C   0  0  2  0  0  0  0  0  0  0  0  0
   10.2710  -16.0704   25.1792 N   0  0  0  0  0  0  0  0  0  0  0  0
    9.3987  -17.4711   26.9627 C   0  0  0  0  0  0  0  0  0  0  0  0
    9.5484  -18.5756   27.7881 O   0  0  0  0  0  0  0  0  0  0  0  0
    8.2342  -17.0509   26.7675 O   0  0  0  0  0  0  0  0  0  0  0  0
  2  1  1  6
  2  3  1  0
  3  4  1  0
  4  8  1  0
  4  5  2  0
  6  7  2  0
  6  2  1  0
  9 10  1  0
 10 11  1  0
 11 12  1  1
 11 13  1  0
 13 14  1  6
 14  6  1  0
 15 22  1  0
 15 13  1  0
 16 15  2  0
 18 17  1  0
 19 18  1  0
 21 20  1  1
 20 19  1  0
 21 22  1  0
 21 23  1  0
 23 24  1  0
 25 23  2  0
M  END
$$$$
