DIM.pdb
     RDKit          3D

 25 24  0  0  1  0  0  0  0  0999 V2000
    9.9793  -18.6329   19.7428 N   0  0  0  0  0  0  0  0  0  0  0  0
   11.2403  -17.9592   19.9605 C   0  0  1  0  0  0  0  0  0  0  0  0
   11.9767  -17.6604   18.6897 C   0  0  0  0  0  0  0  0  0  0  0  0
   13.1893  -18.5051   18.6318 C   0  0  0  0  0  0  0  0  0  0  0  0
   13.6300  -19.0869   19.6473 O   0  0  0  0  0  0  0  0  0  0  0  0
   11.0015  -16.7678   20.7885 C   0  0  0  0  0  0  0  0  0  0  0  0
   11.9187  -16.0168   21.2151 O   0  0  0  0  0  0  0  0  0  0  0  0
   13.8774  -18.6753   17.4323 O   0  0  0  0  0  0  0  0  0  0  0  0
    6.8767  -13.3321   19.8988 C   0  0  0  0  0  0  0  0  0  0  0  0
    8.1825  -13.8853   20.4010 C   0  0  0  0  0  0  0  0  0  0  0  0
    8.1002  -14.6422   21.6857 C   0  0  2  0  0  0  0  0  0  0  0  0
    7.6900  -13.6357   22.7586 C   0  0  0  0  0  0  0  0  0  0  0  0
    9.4150  -15.2752   22.0697 C   0  0  2  0  0  0  0  0  0  0  0  0
    9.6812  -16.4027   21.1534 N   0  0  0  0  0  0  0  0  0  0  0  0
    9.3690  -15.8899   23.4066 C   0  0  0  0  0  0  0  0  0  0  0  0
    8.3448  -16.5313   23.7539 O   0  0  0  0  0  0  0  0  0  0  0  0
   10.8682  -13.5587   29.5569 C   0  0  0  0  0  0  0  0  0  0  0  0
    9.5826  -13.1246   28.3578 S   0  0  0  0  0  0  0  0  0  0  0  0
    8.9512  -14.6523   27.6272 C   0  0  0  0  0  0  0  0  0  0  0  0
    9.1302  -14.6624   26.1067 C   0  0  0  0  0  0  0  0  0  0  0  0
   10.1246  -15.7575   25.8064 C   0  0  2  0  0  0  0  0  0  0  0  0
   10.3940  -15.8388   24.3791 N   0  0  0  0  0  0  0  0  0  0  0  0
    9.6712  -17.0270   26.3716 C   0  0  0  0  0  0  0  0  0  0  0  0
    9.4569  -18.1104   25.5326 O   0  0  0  0  0  0  0  0  0  0  0  0
    9.4610  -17.1952   27.5956 O   0  0  0  0  0  0  0  0  0  0  0  0
  2  1  1  6
  2  3  1  0
  3  4  1  0
  4  8  1  0
  4  5  2  0
  6  7  2  0
  6  2  1  0
  9 10  1  0
 10 11  1  0
 11 12  1  1
 11 13  1  0
 13 14  1  6
 14  6  1  0
 15 22  1  0
 15 13  1  0
 16 15  2  0
 18 17  1  0
 19 18  1  0
 21 20  1  6
 20 19  1  0
 21 22  1  0
 21 23  1  0
 23 24  1  0
 25 23  2  0
M  END
$$$$
