DIM.pdb
     RDKit          3D

 25 24  0  0  1  0  0  0  0  0999 V2000
   12.4620  -17.1901   19.3803 N   0  0  0  0  0  0  0  0  0  0  0  0
   11.2051  -17.6016   19.9655 C   0  0  1  0  0  0  0  0  0  0  0  0
   11.2344  -19.0005   20.5031 C   0  0  0  0  0  0  0  0  0  0  0  0
   11.4367  -19.9391   19.3782 C   0  0  0  0  0  0  0  0  0  0  0  0
   12.5298  -20.5197   19.1997 O   0  0  0  0  0  0  0  0  0  0  0  0
   10.8011  -16.6023   20.9655 C   0  0  0  0  0  0  0  0  0  0  0  0
   11.6130  -15.9818   21.7023 O   0  0  0  0  0  0  0  0  0  0  0  0
   10.4039  -20.2021   18.4809 O   0  0  0  0  0  0  0  0  0  0  0  0
    7.1615  -12.7982   19.8483 C   0  0  0  0  0  0  0  0  0  0  0  0
    8.2638  -13.6159   20.4647 C   0  0  0  0  0  0  0  0  0  0  0  0
    7.8434  -14.5055   21.5880 C   0  0  2  0  0  0  0  0  0  0  0  0
    7.2700  -13.5959   22.6727 C   0  0  0  0  0  0  0  0  0  0  0  0
    8.9923  -15.3007   22.1576 C   0  0  2  0  0  0  0  0  0  0  0  0
    9.4314  -16.2849   21.1475 N   0  0  0  0  0  0  0  0  0  0  0  0
    8.5875  -16.1159   23.3147 C   0  0  0  0  0  0  0  0  0  0  0  0
    8.3872  -17.3476   23.1596 O   0  0  0  0  0  0  0  0  0  0  0  0
   10.0606  -12.5824   28.4579 C   0  0  0  0  0  0  0  0  0  0  0  0
   10.5763  -14.1860   29.1224 S   0  0  0  0  0  0  0  0  0  0  0  0
   10.3096  -15.4390   27.8476 C   0  0  0  0  0  0  0  0  0  0  0  0
    9.5046  -14.8797   26.6714 C   0  0  0  0  0  0  0  0  0  0  0  0
    9.2479  -16.0432   25.7449 C   0  0  2  0  0  0  0  0  0  0  0  0
    8.3961  -15.6462   24.6345 N   0  0  0  0  0  0  0  0  0  0  0  0
    8.7140  -17.1811   26.4911 C   0  0  0  0  0  0  0  0  0  0  0  0
    9.5755  -17.9778   27.2304 O   0  0  0  0  0  0  0  0  0  0  0  0
    7.4978  -17.4835   26.5008 O   0  0  0  0  0  0  0  0  0  0  0  0
  2  1  1  1
  2  3  1  0
  3  4  1  0
  4  8  1  0
  4  5  2  0
  6  7  2  0
  6  2  1  0
  9 10  1  0
 10 11  1  0
 11 12  1  1
 11 13  1  0
 13 14  1  6
 14  6  1  0
 15 22  1  0
 15 13  1  0
 16 15  2  0
 18 17  1  0
 19 18  1  0
 21 20  1  1
 20 19  1  0
 21 22  1  0
 21 23  1  0
 23 24  1  0
 25 23  2  0
M  END
$$$$
