DIM.pdb
     RDKit          3D

 25 24  0  0  1  0  0  0  0  0999 V2000
   10.5482  -18.5176   19.6306 N   0  0  0  0  0  0  0  0  0  0  0  0
   11.7382  -17.8353   20.0888 C   0  0  1  0  0  0  0  0  0  0  0  0
   12.5256  -17.2113   18.9765 C   0  0  0  0  0  0  0  0  0  0  0  0
   13.1814  -18.2836   18.1971 C   0  0  0  0  0  0  0  0  0  0  0  0
   12.7090  -18.6847   17.1109 O   0  0  0  0  0  0  0  0  0  0  0  0
   11.3585  -16.8799   21.1400 C   0  0  0  0  0  0  0  0  0  0  0  0
   12.1486  -16.0317   21.6333 O   0  0  0  0  0  0  0  0  0  0  0  0
   14.3533  -18.8791   18.6586 O   0  0  0  0  0  0  0  0  0  0  0  0
    6.3676  -14.5861   21.1188 C   0  0  0  0  0  0  0  0  0  0  0  0
    7.8328  -14.7699   21.4070 C   0  0  0  0  0  0  0  0  0  0  0  0
    8.1462  -15.6588   22.5653 C   0  0  2  0  0  0  0  0  0  0  0  0
    7.6345  -14.9438   23.8140 C   0  0  0  0  0  0  0  0  0  0  0  0
    9.6251  -15.9215   22.7096 C   0  0  2  0  0  0  0  0  0  0  0  0
   10.0396  -16.8745   21.6599 N   0  0  0  0  0  0  0  0  0  0  0  0
    9.9503  -16.6018   23.9740 C   0  0  0  0  0  0  0  0  0  0  0  0
    9.5916  -17.7954   24.1404 O   0  0  0  0  0  0  0  0  0  0  0  0
   11.1086  -12.4818   28.2963 C   0  0  0  0  0  0  0  0  0  0  0  0
   10.1617  -13.8204   29.0645 S   0  0  0  0  0  0  0  0  0  0  0  0
    9.8955  -15.1088   27.8253 C   0  0  0  0  0  0  0  0  0  0  0  0
   11.2106  -15.7844   27.4274 C   0  0  0  0  0  0  0  0  0  0  0  0
   10.8710  -16.7459   26.3147 C   0  0  2  0  0  0  0  0  0  0  0  0
   10.6539  -16.0374   25.0628 N   0  0  0  0  0  0  0  0  0  0  0  0
    9.7372  -17.5862   26.6952 C   0  0  0  0  0  0  0  0  0  0  0  0
    9.9597  -18.7427   27.4278 O   0  0  0  0  0  0  0  0  0  0  0  0
    8.5519  -17.3155   26.3910 O   0  0  0  0  0  0  0  0  0  0  0  0
  2  1  1  6
  2  3  1  0
  3  4  1  0
  4  8  1  0
  4  5  2  0
  6  7  2  0
  6  2  1  0
  9 10  1  0
 10 11  1  0
 11 12  1  1
 11 13  1  0
 13 14  1  6
 14  6  1  0
 15 22  1  0
 15 13  1  0
 16 15  2  0
 18 17  1  0
 19 18  1  0
 21 20  1  1
 20 19  1  0
 21 22  1  0
 21 23  1  0
 23 24  1  0
 25 23  2  0
M  END
$$$$
