DIM.pdb
     RDKit          3D

 25 24  0  0  1  0  0  0  0  0999 V2000
   10.8893  -17.7484   18.1250 N   0  0  0  0  0  0  0  0  0  0  0  0
   10.0825  -18.0496   19.2868 C   0  0  1  0  0  0  0  0  0  0  0  0
   10.4594  -19.3407   19.9482 C   0  0  0  0  0  0  0  0  0  0  0  0
   10.1073  -20.4587   19.0463 C   0  0  0  0  0  0  0  0  0  0  0  0
   10.9679  -21.0185   18.3322 O   0  0  0  0  0  0  0  0  0  0  0  0
   10.1195  -16.8964   20.1982 C   0  0  0  0  0  0  0  0  0  0  0  0
   11.1819  -16.4130   20.6724 O   0  0  0  0  0  0  0  0  0  0  0  0
    8.7950  -20.9204   18.9694 O   0  0  0  0  0  0  0  0  0  0  0  0
    7.0169  -12.6282   19.0892 C   0  0  0  0  0  0  0  0  0  0  0  0
    8.1171  -13.4887   19.6481 C   0  0  0  0  0  0  0  0  0  0  0  0
    7.8176  -14.1284   20.9639 C   0  0  2  0  0  0  0  0  0  0  0  0
    7.6393  -12.9930   21.9696 C   0  0  0  0  0  0  0  0  0  0  0  0
    8.9260  -15.0401   21.4297 C   0  0  2  0  0  0  0  0  0  0  0  0
    8.9171  -16.2584   20.5946 N   0  0  0  0  0  0  0  0  0  0  0  0
    8.7059  -15.5312   22.8000 C   0  0  0  0  0  0  0  0  0  0  0  0
    7.6523  -16.1644   23.0649 O   0  0  0  0  0  0  0  0  0  0  0  0
    6.6321  -11.2914   27.5680 C   0  0  0  0  0  0  0  0  0  0  0  0
    6.0847  -12.8326   26.7909 S   0  0  0  0  0  0  0  0  0  0  0  0
    7.5083  -13.9387   26.6635 C   0  0  0  0  0  0  0  0  0  0  0  0
    7.9403  -14.1310   25.2072 C   0  0  0  0  0  0  0  0  0  0  0  0
    9.1279  -15.0619   25.2391 C   0  0  2  0  0  0  0  0  0  0  0  0
    9.5878  -15.3652   23.8927 N   0  0  0  0  0  0  0  0  0  0  0  0
    8.8157  -16.2603   26.0156 C   0  0  0  0  0  0  0  0  0  0  0  0
    8.4805  -16.1377   27.3558 O   0  0  0  0  0  0  0  0  0  0  0  0
    8.8340  -17.4153   25.5292 O   0  0  0  0  0  0  0  0  0  0  0  0
  2  1  1  6
  2  3  1  0
  3  4  1  0
  4  8  1  0
  4  5  2  0
  6  7  2  0
  6  2  1  0
  9 10  1  0
 10 11  1  0
 11 12  1  1
 11 13  1  0
 13 14  1  6
 14  6  1  0
 15 22  1  0
 15 13  1  0
 16 15  2  0
 18 17  1  0
 19 18  1  0
 21 20  1  6
 20 19  1  0
 21 22  1  0
 21 23  1  0
 23 24  1  0
 25 23  2  0
M  END
$$$$
