DIM.pdb
     RDKit          3D

 25 24  0  0  1  0  0  0  0  0999 V2000
    8.1874  -19.0709   19.5812 N   0  0  0  0  0  0  0  0  0  0  0  0
    9.2737  -18.9839   20.5320 C   0  0  1  0  0  0  0  0  0  0  0  0
   10.4251  -19.8829   20.1963 C   0  0  0  0  0  0  0  0  0  0  0  0
   10.7154  -19.7656   18.7509 C   0  0  0  0  0  0  0  0  0  0  0  0
   11.6252  -20.4321   18.2106 O   0  0  0  0  0  0  0  0  0  0  0  0
    9.6605  -17.5728   20.6779 C   0  0  0  0  0  0  0  0  0  0  0  0
   10.7769  -17.1125   20.3190 O   0  0  0  0  0  0  0  0  0  0  0  0
    9.9750  -18.9009   17.9477 O   0  0  0  0  0  0  0  0  0  0  0  0
    6.9566  -12.0968   20.4643 C   0  0  0  0  0  0  0  0  0  0  0  0
    8.0998  -12.9391   20.9613 C   0  0  0  0  0  0  0  0  0  0  0  0
    7.9427  -14.4097   20.7546 C   0  0  2  0  0  0  0  0  0  0  0  0
    6.6433  -14.8109   21.4496 C   0  0  0  0  0  0  0  0  0  0  0  0
    9.0873  -15.2016   21.3376 C   0  0  2  0  0  0  0  0  0  0  0  0
    8.7596  -16.6391   21.2493 N   0  0  0  0  0  0  0  0  0  0  0  0
    9.2625  -14.9514   22.7777 C   0  0  0  0  0  0  0  0  0  0  0  0
    9.6330  -13.8135   23.1639 O   0  0  0  0  0  0  0  0  0  0  0  0
    7.8465  -11.5078   27.5033 C   0  0  0  0  0  0  0  0  0  0  0  0
    6.5593  -12.4682   26.6668 S   0  0  0  0  0  0  0  0  0  0  0  0
    7.1235  -14.1804   26.5397 C   0  0  0  0  0  0  0  0  0  0  0  0
    7.4425  -14.5596   25.0910 C   0  0  0  0  0  0  0  0  0  0  0  0
    8.6206  -15.5012   25.1511 C   0  0  2  0  0  0  0  0  0  0  0  0
    9.0467  -15.8877   23.8150 N   0  0  0  0  0  0  0  0  0  0  0  0
    8.3133  -16.6486   26.0029 C   0  0  0  0  0  0  0  0  0  0  0  0
    8.1167  -16.4568   27.3624 O   0  0  0  0  0  0  0  0  0  0  0  0
    8.2154  -17.8191   25.5657 O   0  0  0  0  0  0  0  0  0  0  0  0
  2  1  1  6
  2  3  1  0
  3  4  1  0
  4  8  1  0
  4  5  2  0
  6  7  2  0
  6  2  1  0
  9 10  1  0
 10 11  1  0
 11 12  1  1
 11 13  1  0
 13 14  1  1
 14  6  1  0
 15 22  1  0
 15 13  1  0
 16 15  2  0
 18 17  1  0
 19 18  1  0
 21 20  1  6
 20 19  1  0
 21 22  1  0
 21 23  1  0
 23 24  1  0
 25 23  2  0
M  END
$$$$
