DIM.pdb
     RDKit          3D

 25 24  0  0  1  0  0  0  0  0999 V2000
    9.7199  -18.2154   18.9669 N   0  0  0  0  0  0  0  0  0  0  0  0
   10.9862  -17.7264   19.4659 C   0  0  1  0  0  0  0  0  0  0  0  0
   12.0116  -17.5379   18.3890 C   0  0  0  0  0  0  0  0  0  0  0  0
   12.1820  -18.8158   17.6644 C   0  0  0  0  0  0  0  0  0  0  0  0
   12.2259  -19.9095   18.2692 O   0  0  0  0  0  0  0  0  0  0  0  0
   10.7434  -16.5112   20.2573 C   0  0  0  0  0  0  0  0  0  0  0  0
   11.6596  -15.7573   20.6810 O   0  0  0  0  0  0  0  0  0  0  0  0
   12.2990  -18.8327   16.2762 O   0  0  0  0  0  0  0  0  0  0  0  0
    6.9442  -12.9132   19.0120 C   0  0  0  0  0  0  0  0  0  0  0  0
    8.1609  -13.5344   19.6421 C   0  0  0  0  0  0  0  0  0  0  0  0
    7.9140  -14.2540   20.9271 C   0  0  2  0  0  0  0  0  0  0  0  0
    7.4674  -13.1998   21.9378 C   0  0  0  0  0  0  0  0  0  0  0  0
    9.1468  -14.9533   21.4450 C   0  0  2  0  0  0  0  0  0  0  0  0
    9.4201  -16.1246   20.5876 N   0  0  0  0  0  0  0  0  0  0  0  0
    8.9443  -15.5195   22.7887 C   0  0  0  0  0  0  0  0  0  0  0  0
    8.0519  -16.3882   22.9622 O   0  0  0  0  0  0  0  0  0  0  0  0
    6.3945  -11.2966   27.7146 C   0  0  0  0  0  0  0  0  0  0  0  0
    5.9705  -12.6149   26.5479 S   0  0  0  0  0  0  0  0  0  0  0  0
    7.3275  -13.8083   26.5251 C   0  0  0  0  0  0  0  0  0  0  0  0
    7.9679  -13.9028   25.1376 C   0  0  0  0  0  0  0  0  0  0  0  0
    9.0465  -14.9534   25.2416 C   0  0  2  0  0  0  0  0  0  0  0  0
    9.6764  -15.1822   23.9503 N   0  0  0  0  0  0  0  0  0  0  0  0
    8.5114  -16.1765   25.8367 C   0  0  0  0  0  0  0  0  0  0  0  0
    7.6481  -16.9736   25.0998 O   0  0  0  0  0  0  0  0  0  0  0  0
    8.7941  -16.5531   26.9981 O   0  0  0  0  0  0  0  0  0  0  0  0
  2  1  1  6
  2  3  1  0
  3  4  1  0
  4  8  1  0
  4  5  2  0
  6  7  2  0
  6  2  1  0
  9 10  1  0
 10 11  1  0
 11 12  1  1
 11 13  1  0
 13 14  1  6
 14  6  1  0
 15 22  1  0
 15 13  1  0
 16 15  2  0
 18 17  1  0
 19 18  1  0
 21 20  1  6
 20 19  1  0
 21 22  1  0
 21 23  1  0
 23 24  1  0
 25 23  2  0
M  END
$$$$
