DIM.pdb
     RDKit          3D

 25 24  0  0  1  0  0  0  0  0999 V2000
    9.2388  -18.1726   18.9554 N   0  0  0  0  0  0  0  0  0  0  0  0
   10.5622  -17.6976   19.2940 C   0  0  1  0  0  0  0  0  0  0  0  0
   11.4191  -17.4328   18.0931 C   0  0  0  0  0  0  0  0  0  0  0  0
   11.7839  -18.7252   17.4737 C   0  0  0  0  0  0  0  0  0  0  0  0
   12.5188  -19.5482   18.0625 O   0  0  0  0  0  0  0  0  0  0  0  0
   10.4321  -16.5344   20.1840 C   0  0  0  0  0  0  0  0  0  0  0  0
   11.3897  -15.7732   20.4852 O   0  0  0  0  0  0  0  0  0  0  0  0
   11.3130  -19.0611   16.2062 O   0  0  0  0  0  0  0  0  0  0  0  0
    7.1500  -12.7844   19.0685 C   0  0  0  0  0  0  0  0  0  0  0  0
    8.2717  -13.4879   19.7829 C   0  0  0  0  0  0  0  0  0  0  0  0
    7.8846  -14.1792   21.0487 C   0  0  2  0  0  0  0  0  0  0  0  0
    7.5171  -13.0843   22.0481 C   0  0  0  0  0  0  0  0  0  0  0  0
    9.0032  -15.0188   21.6150 C   0  0  2  0  0  0  0  0  0  0  0  0
    9.1779  -16.2105   20.7600 N   0  0  0  0  0  0  0  0  0  0  0  0
    8.6753  -15.5629   22.9430 C   0  0  0  0  0  0  0  0  0  0  0  0
    7.7168  -16.3687   23.0582 O   0  0  0  0  0  0  0  0  0  0  0  0
    7.2496  -11.1634   27.3284 C   0  0  0  0  0  0  0  0  0  0  0  0
    6.1277  -12.5811   27.2269 S   0  0  0  0  0  0  0  0  0  0  0  0
    7.1135  -14.0605   26.9014 C   0  0  0  0  0  0  0  0  0  0  0  0
    7.8063  -13.9839   25.5382 C   0  0  0  0  0  0  0  0  0  0  0  0
    8.6769  -15.2128   25.4380 C   0  0  2  0  0  0  0  0  0  0  0  0
    9.3508  -15.2695   24.1499 N   0  0  0  0  0  0  0  0  0  0  0  0
    7.8966  -16.4153   25.7237 C   0  0  0  0  0  0  0  0  0  0  0  0
    7.5350  -16.6999   27.0321 O   0  0  0  0  0  0  0  0  0  0  0  0
    7.5285  -17.2195   24.8358 O   0  0  0  0  0  0  0  0  0  0  0  0
  2  1  1  6
  2  3  1  0
  3  4  1  0
  4  8  1  0
  4  5  2  0
  6  7  2  0
  6  2  1  0
  9 10  1  0
 10 11  1  0
 11 12  1  1
 11 13  1  0
 13 14  1  6
 14  6  1  0
 15 22  1  0
 15 13  1  0
 16 15  2  0
 18 17  1  0
 19 18  1  0
 21 20  1  6
 20 19  1  0
 21 22  1  0
 21 23  1  0
 23 24  1  0
 25 23  2  0
M  END
$$$$
