DIM.pdb
     RDKit          3D

 25 24  0  0  1  0  0  0  0  0999 V2000
   12.2868  -17.4942   19.2047 N   0  0  0  0  0  0  0  0  0  0  0  0
   10.9726  -17.7367   19.7576 C   0  0  1  0  0  0  0  0  0  0  0  0
   10.8251  -19.1057   20.3497 C   0  0  0  0  0  0  0  0  0  0  0  0
   10.7611  -20.0951   19.2523 C   0  0  0  0  0  0  0  0  0  0  0  0
   11.7756  -20.4015   18.5884 O   0  0  0  0  0  0  0  0  0  0  0  0
   10.6520  -16.6565   20.7023 C   0  0  0  0  0  0  0  0  0  0  0  0
   11.5211  -15.9953   21.3304 O   0  0  0  0  0  0  0  0  0  0  0  0
    9.5570  -20.7163   18.9281 O   0  0  0  0  0  0  0  0  0  0  0  0
    6.9700  -13.0719   19.1923 C   0  0  0  0  0  0  0  0  0  0  0  0
    8.1262  -13.7028   19.9195 C   0  0  0  0  0  0  0  0  0  0  0  0
    7.7666  -14.4377   21.1688 C   0  0  2  0  0  0  0  0  0  0  0  0
    7.2234  -13.3967   22.1454 C   0  0  0  0  0  0  0  0  0  0  0  0
    8.9506  -15.1370   21.7900 C   0  0  2  0  0  0  0  0  0  0  0  0
    9.3025  -16.3025   20.9535 N   0  0  0  0  0  0  0  0  0  0  0  0
    8.6313  -15.7117   23.1071 C   0  0  0  0  0  0  0  0  0  0  0  0
    8.3380  -16.9316   23.1914 O   0  0  0  0  0  0  0  0  0  0  0  0
    8.1485  -11.6057   27.8035 C   0  0  0  0  0  0  0  0  0  0  0  0
    6.9874  -12.2124   26.5535 S   0  0  0  0  0  0  0  0  0  0  0  0
    6.8921  -14.0116   26.6956 C   0  0  0  0  0  0  0  0  0  0  0  0
    8.2851  -14.6461   26.7278 C   0  0  0  0  0  0  0  0  0  0  0  0
    8.3148  -15.6554   25.6060 C   0  0  2  0  0  0  0  0  0  0  0  0
    8.6226  -15.0142   24.3370 N   0  0  0  0  0  0  0  0  0  0  0  0
    7.0663  -16.4147   25.5701 C   0  0  0  0  0  0  0  0  0  0  0  0
    6.0584  -16.0309   24.6981 O   0  0  0  0  0  0  0  0  0  0  0  0
    6.8509  -17.4127   26.2969 O   0  0  0  0  0  0  0  0  0  0  0  0
  2  1  1  1
  2  3  1  0
  3  4  1  0
  4  8  1  0
  4  5  2  0
  6  7  2  0
  6  2  1  0
  9 10  1  0
 10 11  1  0
 11 12  1  1
 11 13  1  0
 13 14  1  6
 14  6  1  0
 15 22  1  0
 15 13  1  0
 16 15  2  0
 18 17  1  0
 19 18  1  0
 21 20  1  1
 20 19  1  0
 21 22  1  0
 21 23  1  0
 23 24  1  0
 25 23  2  0
M  END
$$$$
