DIM.pdb
     RDKit          3D

 25 24  0  0  1  0  0  0  0  0999 V2000
    9.6639  -16.5485   19.5503 N   0  0  0  0  0  0  0  0  0  0  0  0
    8.8278  -16.8587   20.6889 C   0  0  1  0  0  0  0  0  0  0  0  0
    8.8097  -18.3188   21.0273 C   0  0  0  0  0  0  0  0  0  0  0  0
    8.2989  -19.0717   19.8614 C   0  0  0  0  0  0  0  0  0  0  0  0
    8.0436  -18.5036   18.7770 O   0  0  0  0  0  0  0  0  0  0  0  0
    9.2310  -16.0051   21.8162 C   0  0  0  0  0  0  0  0  0  0  0  0
   10.4148  -15.6234   22.0165 O   0  0  0  0  0  0  0  0  0  0  0  0
    8.0875  -20.4464   19.9434 O   0  0  0  0  0  0  0  0  0  0  0  0
    6.5706  -12.4318   26.1677 C   0  0  0  0  0  0  0  0  0  0  0  0
    7.7274  -12.8141   25.2849 C   0  0  0  0  0  0  0  0  0  0  0  0
    7.4225  -13.8453   24.2487 C   0  0  2  0  0  0  0  0  0  0  0  0
    6.3573  -14.7620   24.8467 C   0  0  0  0  0  0  0  0  0  0  0  0
    8.6333  -14.6636   23.8729 C   0  0  2  0  0  0  0  0  0  0  0  0
    8.2687  -15.5609   22.7576 N   0  0  0  0  0  0  0  0  0  0  0  0
    9.0513  -15.5709   24.9542 C   0  0  0  0  0  0  0  0  0  0  0  0
    8.2713  -16.4840   25.3272 O   0  0  0  0  0  0  0  0  0  0  0  0
   11.9497  -14.6199   30.9235 C   0  0  0  0  0  0  0  0  0  0  0  0
   10.5810  -13.7872   30.0797 S   0  0  0  0  0  0  0  0  0  0  0  0
    9.5556  -15.0464   29.2863 C   0  0  0  0  0  0  0  0  0  0  0  0
    9.3930  -14.7749   27.7883 C   0  0  0  0  0  0  0  0  0  0  0  0
   10.3882  -15.6673   27.0875 C   0  0  2  0  0  0  0  0  0  0  0  0
   10.2853  -15.5280   25.6430 N   0  0  0  0  0  0  0  0  0  0  0  0
   10.2377  -17.0501   27.5364 C   0  0  0  0  0  0  0  0  0  0  0  0
   11.3481  -17.7449   27.9924 O   0  0  0  0  0  0  0  0  0  0  0  0
    9.1404  -17.6556   27.5326 O   0  0  0  0  0  0  0  0  0  0  0  0
  2  1  1  6
  2  3  1  0
  3  4  1  0
  4  8  1  0
  4  5  2  0
  6  7  2  0
  6  2  1  0
  9 10  1  0
 10 11  1  0
 11 12  1  1
 11 13  1  0
 13 14  1  6
 14  6  1  0
 15 22  1  0
 15 13  1  0
 16 15  2  0
 18 17  1  0
 19 18  1  0
 21 20  1  1
 20 19  1  0
 21 22  1  0
 21 23  1  0
 23 24  1  0
 25 23  2  0
M  END
$$$$
