TRD.pdb
     RDKit          3D

 27 26  0  0  1  0  0  0  0  0999 V2000
   26.5737  -19.9123  -19.1059 C   0  0  0  0  0  0  0  0  0  0  0  0
   27.7693  -19.5818  -18.2587 C   0  0  1  0  0  0  0  0  0  0  0  0
   27.4609  -18.4917  -17.4551 O   0  0  0  0  0  0  0  0  0  0  0  0
   28.1504  -20.7381  -17.3715 C   0  0  2  0  0  0  0  0  0  0  0  0
   28.6091  -21.8482  -18.1732 N   0  0  0  0  0  0  0  0  0  0  0  0
   26.9988  -21.1133  -16.4926 C   0  0  0  0  0  0  0  0  0  0  0  0
   26.0038  -21.5781  -17.0850 O   0  0  0  0  0  0  0  0  0  0  0  0
   25.9858  -20.1515   -7.9311 N   0  0  0  0  0  0  0  0  0  0  0  0
   24.7490  -20.7375   -8.3664 C   0  0  0  0  0  0  0  0  0  0  0  0
   23.7107  -20.6876   -7.6231 N   0  0  0  0  0  0  0  0  0  0  0  0
   24.6408  -21.3833   -9.6249 N   0  0  0  0  0  0  0  0  0  0  0  0
   25.8147  -21.6468  -10.4011 C   0  0  0  0  0  0  0  0  0  0  0  0
   25.3901  -21.7329  -11.8638 C   0  0  0  0  0  0  0  0  0  0  0  0
   26.4533  -21.0818  -12.7388 C   0  0  0  0  0  0  0  0  0  0  0  0
   26.0206  -21.1756  -14.1559 C   0  0  2  0  0  0  0  0  0  0  0  0
   27.0644  -20.9427  -15.1011 N   0  0  0  0  0  0  0  0  0  0  0  0
   24.7670  -20.4103  -14.3953 C   0  0  0  0  0  0  0  0  0  0  0  0
   24.6566  -19.1687  -14.3971 O   0  0  0  0  0  0  0  0  0  0  0  0
   22.7817  -21.0441   -7.8458 N   0  0  0  0  0  0  0  0  0  0  0  0
   23.5785  -21.1529  -14.6477 C   0  0  1  0  0  0  0  0  0  0  0  0
   22.3014  -20.4584  -14.8940 C   0  0  0  0  0  0  0  0  0  0  0  0
   21.8203  -20.9747  -16.2218 C   0  0  0  0  0  0  0  0  0  0  0  0
   21.4745  -19.9119  -17.1906 O   0  0  0  0  0  0  0  0  0  0  0  0
   21.5970  -18.7086  -16.8726 C   0  0  0  0  0  0  0  0  0  0  0  0
   21.3628  -20.7403  -13.7885 O   0  0  0  0  0  0  0  0  0  0  0  0
   20.1609  -20.0753  -13.6543 O   0  0  0  0  0  0  0  0  0  0  0  0
   21.0121  -20.2137  -18.4586 O   0  0  0  0  0  0  0  0  0  0  0  0
  2  1  1  1
  2  4  1  0
  3  2  1  0
  4  5  1  6
  6  4  1  0
  6 16  1  0
  7  6  2  0
  8  9  1  0
  9 10  2  0
 11 12  1  0
 11  9  1  0
 13 14  1  0
 13 12  1  0
 15 16  1  0
 15 14  1  1
 17 15  1  0
 18 17  2  0
 19 17  1  0
 20 24  1  0
 20 19  1  0
 20 21  1  6
 22 21  1  0
 23 22  2  0
 24 25  1  0
 26 22  1  0
 27 24  2  0
M  END
$$$$
