TRD.pdb
     RDKit          3D

 27 26  0  0  1  0  0  0  0  0999 V2000
   18.5315  -10.8441  -12.3051 C   0  0  0  0  0  0  0  0  0  0  0  0
   17.1572  -11.1288  -12.8403 C   0  0  1  0  0  0  0  0  0  0  0  0
   17.0837  -12.4700  -13.1941 O   0  0  0  0  0  0  0  0  0  0  0  0
   16.0965  -10.8471  -11.8084 C   0  0  2  0  0  0  0  0  0  0  0  0
   14.8364  -11.4170  -12.2240 N   0  0  0  0  0  0  0  0  0  0  0  0
   15.9970   -9.3744  -11.5620 C   0  0  0  0  0  0  0  0  0  0  0  0
   15.5911   -8.6971  -12.5283 O   0  0  0  0  0  0  0  0  0  0  0  0
   12.1731   -5.2912   -6.9791 N   0  0  0  0  0  0  0  0  0  0  0  0
   11.9268   -6.6967   -6.8168 C   0  0  0  0  0  0  0  0  0  0  0  0
   10.7320   -7.1503   -6.8190 N   0  0  0  0  0  0  0  0  0  0  0  0
   12.9923   -7.6187   -6.6519 N   0  0  0  0  0  0  0  0  0  0  0  0
   14.3447   -7.2004   -6.8668 C   0  0  0  0  0  0  0  0  0  0  0  0
   14.7276   -7.5929   -8.2903 C   0  0  0  0  0  0  0  0  0  0  0  0
   16.1427   -7.1125   -8.5846 C   0  0  0  0  0  0  0  0  0  0  0  0
   16.4678   -7.4385   -9.9961 C   0  0  2  0  0  0  0  0  0  0  0  0
   16.3431   -8.8234  -10.3184 N   0  0  0  0  0  0  0  0  0  0  0  0
   17.7427   -6.8010  -10.4235 C   0  0  0  0  0  0  0  0  0  0  0  0
   18.8026   -6.7730   -9.7681 O   0  0  0  0  0  0  0  0  0  0  0  0
   10.4469   -8.1225   -6.7037 N   0  0  0  0  0  0  0  0  0  0  0  0
   17.7670   -6.1624  -11.6960 C   0  0  1  0  0  0  0  0  0  0  0  0
   19.0148   -5.5691  -12.2108 C   0  0  0  0  0  0  0  0  0  0  0  0
   19.9308   -6.7340  -12.4656 C   0  0  0  0  0  0  0  0  0  0  0  0
   21.2160   -6.3616  -13.0958 O   0  0  0  0  0  0  0  0  0  0  0  0
   21.5264   -5.1570  -13.2242 C   0  0  0  0  0  0  0  0  0  0  0  0
   18.7247   -4.7835  -13.4278 O   0  0  0  0  0  0  0  0  0  0  0  0
   19.6042   -3.8435  -13.9255 O   0  0  0  0  0  0  0  0  0  0  0  0
   22.0995   -7.3214  -13.5551 O   0  0  0  0  0  0  0  0  0  0  0  0
  2  1  1  1
  2  4  1  0
  3  2  1  0
  4  5  1  6
  6  4  1  0
  6 16  1  0
  7  6  2  0
  8  9  1  0
  9 10  2  0
 11 12  1  0
 11  9  1  0
 13 14  1  0
 13 12  1  0
 15 16  1  0
 15 14  1  1
 17 15  1  0
 18 17  2  0
 19 17  1  0
 20 24  1  0
 20 19  1  0
 20 21  1  1
 22 21  1  0
 23 22  2  0
 24 25  1  0
 26 22  1  0
 27 24  2  0
M  END
$$$$
