TRD.pdb
     RDKit          3D

 27 26  0  0  1  0  0  0  0  0999 V2000
   28.6410  -19.0884  -17.6130 C   0  0  0  0  0  0  0  0  0  0  0  0
   27.5311  -19.5619  -16.7185 C   0  0  1  0  0  0  0  0  0  0  0  0
   26.3164  -19.3293  -17.3509 O   0  0  0  0  0  0  0  0  0  0  0  0
   27.6473  -21.0363  -16.4324 C   0  0  2  0  0  0  0  0  0  0  0  0
   27.5463  -21.7893  -17.6605 N   0  0  0  0  0  0  0  0  0  0  0  0
   26.6154  -21.4486  -15.4301 C   0  0  0  0  0  0  0  0  0  0  0  0
   25.6372  -22.0689  -15.8945 O   0  0  0  0  0  0  0  0  0  0  0  0
   22.7778  -19.8728   -8.9786 N   0  0  0  0  0  0  0  0  0  0  0  0
   23.3670  -20.9305   -8.2063 C   0  0  0  0  0  0  0  0  0  0  0  0
   22.6836  -21.5420   -7.3162 N   0  0  0  0  0  0  0  0  0  0  0  0
   24.7142  -21.3281   -8.4058 N   0  0  0  0  0  0  0  0  0  0  0  0
   25.5461  -20.6127   -9.3256 C   0  0  0  0  0  0  0  0  0  0  0  0
   25.0724  -20.9524  -10.7353 C   0  0  0  0  0  0  0  0  0  0  0  0
   26.2258  -20.7736  -11.7139 C   0  0  0  0  0  0  0  0  0  0  0  0
   25.7376  -21.0854  -13.0809 C   0  0  2  0  0  0  0  0  0  0  0  0
   26.7665  -21.1444  -14.0684 N   0  0  0  0  0  0  0  0  0  0  0  0
   24.5595  -20.2514  -13.4429 C   0  0  0  0  0  0  0  0  0  0  0  0
   24.5149  -19.0057  -13.4363 O   0  0  0  0  0  0  0  0  0  0  0  0
   22.9971  -22.3132   -6.7274 N   0  0  0  0  0  0  0  0  0  0  0  0
   23.3687  -20.9264  -13.8354 C   0  0  2  0  0  0  0  0  0  0  0  0
   22.1896  -20.1627  -14.2832 C   0  0  0  0  0  0  0  0  0  0  0  0
   21.8455  -20.7235  -15.6352 C   0  0  0  0  0  0  0  0  0  0  0  0
   20.6400  -20.1225  -16.2462 O   0  0  0  0  0  0  0  0  0  0  0  0
   20.0888  -19.1369  -15.7089 C   0  0  0  0  0  0  0  0  0  0  0  0
   21.0984  -20.3136  -13.2988 O   0  0  0  0  0  0  0  0  0  0  0  0
   20.9654  -21.4401  -12.5126 O   0  0  0  0  0  0  0  0  0  0  0  0
   20.0948  -20.6261  -17.4132 O   0  0  0  0  0  0  0  0  0  0  0  0
  2  1  1  6
  2  4  1  0
  3  2  1  0
  4  5  1  6
  6  4  1  0
  6 16  1  0
  7  6  2  0
  8  9  1  0
  9 10  2  0
 11 12  1  0
 11  9  1  0
 13 14  1  0
 13 12  1  0
 15 16  1  0
 15 14  1  1
 17 15  1  0
 18 17  2  0
 19 17  1  0
 20 24  1  0
 20 19  1  0
 20 21  1  6
 22 21  1  0
 23 22  2  0
 24 25  1  0
 26 22  1  0
 27 24  2  0
M  END
$$$$
