TRD.pdb
     RDKit          3D

 27 26  0  0  1  0  0  0  0  0999 V2000
   16.7472  -18.8063  -15.1194 C   0  0  0  0  0  0  0  0  0  0  0  0
   17.0451  -19.2795  -13.7253 C   0  0  1  0  0  0  0  0  0  0  0  0
   15.8598  -19.6915  -13.1296 O   0  0  0  0  0  0  0  0  0  0  0  0
   18.0059  -20.4397  -13.7325 C   0  0  2  0  0  0  0  0  0  0  0  0
   17.9248  -21.1586  -12.4827 N   0  0  0  0  0  0  0  0  0  0  0  0
   19.3932  -19.9569  -14.0179 C   0  0  0  0  0  0  0  0  0  0  0  0
   19.4697  -18.9682  -14.7754 O   0  0  0  0  0  0  0  0  0  0  0  0
   27.3047  -21.4086  -14.6555 N   0  0  0  0  0  0  0  0  0  0  0  0
   27.3626  -20.7797  -13.3656 C   0  0  0  0  0  0  0  0  0  0  0  0
   28.3634  -20.0538  -13.0424 N   0  0  0  0  0  0  0  0  0  0  0  0
   26.3193  -20.9415  -12.4180 N   0  0  0  0  0  0  0  0  0  0  0  0
   25.2171  -21.8097  -12.7033 C   0  0  0  0  0  0  0  0  0  0  0  0
   24.2225  -21.0269  -13.5548 C   0  0  0  0  0  0  0  0  0  0  0  0
   22.8396  -21.1089  -12.9218 C   0  0  0  0  0  0  0  0  0  0  0  0
   21.8826  -20.3669  -13.7808 C   0  0  2  0  0  0  0  0  0  0  0  0
   20.5112  -20.5930  -13.4564 N   0  0  0  0  0  0  0  0  0  0  0  0
   22.2234  -20.5051  -15.2228 C   0  0  0  0  0  0  0  0  0  0  0  0
   22.1885  -21.5605  -15.8851 O   0  0  0  0  0  0  0  0  0  0  0  0
   28.4997  -19.5573  -12.1622 N   0  0  0  0  0  0  0  0  0  0  0  0
   22.6266  -19.3314  -15.9210 C   0  0  2  0  0  0  0  0  0  0  0  0
   22.9514  -19.3911  -17.3580 C   0  0  0  0  0  0  0  0  0  0  0  0
   21.9519  -18.4887  -18.0271 C   0  0  0  0  0  0  0  0  0  0  0  0
   22.0636  -18.4565  -19.5016 O   0  0  0  0  0  0  0  0  0  0  0  0
   22.9425  -19.1329  -20.0794 C   0  0  0  0  0  0  0  0  0  0  0  0
   24.3497  -18.9631  -17.5681 O   0  0  0  0  0  0  0  0  0  0  0  0
   25.1500  -18.5248  -16.5327 O   0  0  0  0  0  0  0  0  0  0  0  0
   21.2111  -17.6882  -20.2734 O   0  0  0  0  0  0  0  0  0  0  0  0
  2  1  1  6
  2  4  1  0
  3  2  1  0
  4  5  1  1
  6  4  1  0
  6 16  1  0
  7  6  2  0
  8  9  1  0
  9 10  2  0
 11 12  1  0
 11  9  1  0
 13 14  1  0
 13 12  1  0
 15 16  1  0
 15 14  1  1
 17 15  1  0
 18 17  2  0
 19 17  1  0
 20 24  1  0
 20 19  1  0
 20 21  1  1
 22 21  1  0
 23 22  2  0
 24 25  1  0
 26 22  1  0
 27 24  2  0
M  END
$$$$
