TRD.pdb
     RDKit          3D

 27 26  0  0  1  0  0  0  0  0999 V2000
   19.9457  -11.3431  -17.2269 C   0  0  0  0  0  0  0  0  0  0  0  0
   19.8792  -12.2243  -16.0122 C   0  0  1  0  0  0  0  0  0  0  0  0
   20.6262  -11.6425  -14.9958 O   0  0  0  0  0  0  0  0  0  0  0  0
   18.4615  -12.3892  -15.5301 C   0  0  2  0  0  0  0  0  0  0  0  0
   17.6768  -13.0821  -16.5250 N   0  0  0  0  0  0  0  0  0  0  0  0
   17.8794  -11.0562  -15.1788 C   0  0  0  0  0  0  0  0  0  0  0  0
   17.6229  -10.3129  -16.1478 O   0  0  0  0  0  0  0  0  0  0  0  0
   11.2362  -10.0358  -10.6517 N   0  0  0  0  0  0  0  0  0  0  0  0
   11.8548   -8.9052  -11.2854 C   0  0  0  0  0  0  0  0  0  0  0  0
   11.3720   -7.7318  -11.1329 N   0  0  0  0  0  0  0  0  0  0  0  0
   13.0121   -9.0530  -12.0925 N   0  0  0  0  0  0  0  0  0  0  0  0
   13.6344  -10.3353  -12.2290 C   0  0  0  0  0  0  0  0  0  0  0  0
   14.8163  -10.1748  -13.1800 C   0  0  0  0  0  0  0  0  0  0  0  0
   15.9987   -9.5842  -12.4229 C   0  0  0  0  0  0  0  0  0  0  0  0
   17.1414   -9.4518  -13.3615 C   0  0  2  0  0  0  0  0  0  0  0  0
   17.6488  -10.6964  -13.8420 N   0  0  0  0  0  0  0  0  0  0  0  0
   18.1676   -8.5077  -12.8417 C   0  0  0  0  0  0  0  0  0  0  0  0
   18.7584   -8.5986  -11.7479 O   0  0  0  0  0  0  0  0  0  0  0  0
   11.7240   -6.8676  -11.5443 N   0  0  0  0  0  0  0  0  0  0  0  0
   18.5159   -7.3956  -13.6601 C   0  0  1  0  0  0  0  0  0  0  0  0
   19.4940   -6.3981  -13.1887 C   0  0  0  0  0  0  0  0  0  0  0  0
   20.8057   -6.8132  -13.7953 C   0  0  0  0  0  0  0  0  0  0  0  0
   21.9095   -5.8594  -13.5515 O   0  0  0  0  0  0  0  0  0  0  0  0
   22.2128   -5.5359  -12.3822 C   0  0  0  0  0  0  0  0  0  0  0  0
   19.0646   -5.0475  -13.6059 O   0  0  0  0  0  0  0  0  0  0  0  0
   19.5821   -3.9011  -13.0378 O   0  0  0  0  0  0  0  0  0  0  0  0
   22.6283   -5.3052  -14.5951 O   0  0  0  0  0  0  0  0  0  0  0  0
  2  1  1  6
  2  4  1  0
  3  2  1  0
  4  5  1  6
  6  4  1  0
  6 16  1  0
  7  6  2  0
  8  9  1  0
  9 10  2  0
 11 12  1  0
 11  9  1  0
 13 14  1  0
 13 12  1  0
 15 16  1  0
 15 14  1  1
 17 15  1  0
 18 17  2  0
 19 17  1  0
 20 24  1  0
 20 19  1  0
 20 21  1  6
 22 21  1  0
 23 22  2  0
 24 25  1  0
 26 22  1  0
 27 24  2  0
M  END
$$$$
