TRD.pdb
     RDKit          3D

 27 26  0  0  1  0  0  0  0  0999 V2000
   18.2053  -10.9885  -16.7087 C   0  0  0  0  0  0  0  0  0  0  0  0
   18.7997  -11.6278  -15.4862 C   0  0  1  0  0  0  0  0  0  0  0  0
   19.7455  -10.7661  -14.9455 O   0  0  0  0  0  0  0  0  0  0  0  0
   17.7482  -11.9004  -14.4425 C   0  0  2  0  0  0  0  0  0  0  0  0
   16.8364  -12.9177  -14.9109 N   0  0  0  0  0  0  0  0  0  0  0  0
   17.0420  -10.6317  -14.0804 C   0  0  0  0  0  0  0  0  0  0  0  0
   16.2644  -10.1864  -14.9488 O   0  0  0  0  0  0  0  0  0  0  0  0
   14.4976   -7.1536   -6.5416 N   0  0  0  0  0  0  0  0  0  0  0  0
   13.8708   -7.9164   -7.5845 C   0  0  0  0  0  0  0  0  0  0  0  0
   12.8616   -8.6576   -7.3290 N   0  0  0  0  0  0  0  0  0  0  0  0
   14.3466   -7.8710   -8.9203 N   0  0  0  0  0  0  0  0  0  0  0  0
   15.5348   -7.1370   -9.2356 C   0  0  0  0  0  0  0  0  0  0  0  0
   15.7914   -7.2962  -10.7309 C   0  0  0  0  0  0  0  0  0  0  0  0
   16.5414   -8.5983  -10.9800 C   0  0  0  0  0  0  0  0  0  0  0  0
   16.8081   -8.7183  -12.4355 C   0  0  2  0  0  0  0  0  0  0  0  0
   17.2600  -10.0100  -12.8411 N   0  0  0  0  0  0  0  0  0  0  0  0
   17.6202   -7.5768  -12.9373 C   0  0  0  0  0  0  0  0  0  0  0  0
   18.8651   -7.5192  -12.9617 O   0  0  0  0  0  0  0  0  0  0  0  0
   12.3085   -9.1900   -8.0001 N   0  0  0  0  0  0  0  0  0  0  0  0
   16.9230   -6.4410  -13.4390 C   0  0  2  0  0  0  0  0  0  0  0  0
   17.6605   -5.3253  -14.0596 C   0  0  0  0  0  0  0  0  0  0  0  0
   17.8646   -5.7345  -15.4920 C   0  0  0  0  0  0  0  0  0  0  0  0
   18.5272   -4.7056  -16.3226 O   0  0  0  0  0  0  0  0  0  0  0  0
   18.8797   -3.6192  -15.8134 C   0  0  0  0  0  0  0  0  0  0  0  0
   16.8820   -4.0776  -13.9190 O   0  0  0  0  0  0  0  0  0  0  0  0
   15.6097   -4.0589  -13.3845 O   0  0  0  0  0  0  0  0  0  0  0  0
   18.7730   -4.9122  -17.6679 O   0  0  0  0  0  0  0  0  0  0  0  0
  2  1  1  6
  2  4  1  0
  3  2  1  0
  4  5  1  6
  6  4  1  0
  6 16  1  0
  7  6  2  0
  8  9  1  0
  9 10  2  0
 11 12  1  0
 11  9  1  0
 13 14  1  0
 13 12  1  0
 15 16  1  0
 15 14  1  1
 17 15  1  0
 18 17  2  0
 19 17  1  0
 20 24  1  0
 20 19  1  0
 20 21  1  6
 22 21  1  0
 23 22  2  0
 24 25  1  0
 26 22  1  0
 27 24  2  0
M  END
$$$$
