TRD.pdb
     RDKit          3D

 27 26  0  0  1  0  0  0  0  0999 V2000
   16.7014   -5.2487   -9.6018 C   0  0  0  0  0  0  0  0  0  0  0  0
   15.9960   -5.8578   -8.4238 C   0  0  1  0  0  0  0  0  0  0  0  0
   15.1715   -4.8981   -7.8506 O   0  0  0  0  0  0  0  0  0  0  0  0
   15.1479   -7.0318   -8.8383 C   0  0  2  0  0  0  0  0  0  0  0  0
   14.4923   -7.6018   -7.6847 N   0  0  0  0  0  0  0  0  0  0  0  0
   15.9823   -8.0368   -9.5684 C   0  0  0  0  0  0  0  0  0  0  0  0
   16.5858   -8.8561   -8.8460 O   0  0  0  0  0  0  0  0  0  0  0  0
   14.7601  -13.5153  -16.2169 N   0  0  0  0  0  0  0  0  0  0  0  0
   16.1551  -13.5413  -15.8765 C   0  0  0  0  0  0  0  0  0  0  0  0
   16.9347  -14.4071  -16.4015 N   0  0  0  0  0  0  0  0  0  0  0  0
   16.7077  -12.6140  -14.9559 N   0  0  0  0  0  0  0  0  0  0  0  0
   15.8557  -11.6990  -14.2582 C   0  0  0  0  0  0  0  0  0  0  0  0
   16.7429  -10.8207  -13.3814 C   0  0  0  0  0  0  0  0  0  0  0  0
   15.8728   -9.8548  -12.5877 C   0  0  0  0  0  0  0  0  0  0  0  0
   16.7579   -8.9644  -11.7953 C   0  0  2  0  0  0  0  0  0  0  0  0
   16.0598   -8.0326  -10.9697 N   0  0  0  0  0  0  0  0  0  0  0  0
   17.8381   -8.3805  -12.6359 C   0  0  0  0  0  0  0  0  0  0  0  0
   17.6755   -7.6526  -13.6347 O   0  0  0  0  0  0  0  0  0  0  0  0
   17.9298  -14.5272  -16.2138 N   0  0  0  0  0  0  0  0  0  0  0  0
   19.1848   -8.6716  -12.2760 C   0  0  2  0  0  0  0  0  0  0  0  0
   20.3015   -8.1970  -13.1135 C   0  0  0  0  0  0  0  0  0  0  0  0
   20.0776   -8.8223  -14.4625 C   0  0  0  0  0  0  0  0  0  0  0  0
   21.0988   -8.4612  -15.4696 O   0  0  0  0  0  0  0  0  0  0  0  0
   22.3060   -8.7081  -15.2559 C   0  0  0  0  0  0  0  0  0  0  0  0
   20.2990   -6.7201  -13.1523 O   0  0  0  0  0  0  0  0  0  0  0  0
   21.4578   -5.9780  -13.0470 O   0  0  0  0  0  0  0  0  0  0  0  0
   20.7532   -7.8484  -16.6604 O   0  0  0  0  0  0  0  0  0  0  0  0
  2  1  1  6
  2  4  1  0
  3  2  1  0
  4  5  1  1
  6  4  1  0
  6 16  1  0
  7  6  2  0
  8  9  1  0
  9 10  2  0
 11 12  1  0
 11  9  1  0
 13 14  1  0
 13 12  1  0
 15 16  1  0
 15 14  1  6
 17 15  1  0
 18 17  2  0
 19 17  1  0
 20 24  1  0
 20 19  1  0
 20 21  1  1
 22 21  1  0
 23 22  2  0
 24 25  1  0
 26 22  1  0
 27 24  2  0
M  END
$$$$
