TRD.pdb
     RDKit          3D

 27 26  0  0  1  0  0  0  0  0999 V2000
   26.4698  -19.1661  -13.9009 C   0  0  0  0  0  0  0  0  0  0  0  0
   26.6853  -20.6449  -13.7489 C   0  0  1  0  0  0  0  0  0  0  0  0
   27.9070  -20.8571  -13.1229 O   0  0  0  0  0  0  0  0  0  0  0  0
   25.6027  -21.2746  -12.9119 C   0  0  2  0  0  0  0  0  0  0  0  0
   25.9800  -22.6188  -12.5426 N   0  0  0  0  0  0  0  0  0  0  0  0
   24.2980  -21.2346  -13.6437 C   0  0  0  0  0  0  0  0  0  0  0  0
   24.3048  -21.7569  -14.7770 O   0  0  0  0  0  0  0  0  0  0  0  0
   19.3683  -22.0161   -8.9785 N   0  0  0  0  0  0  0  0  0  0  0  0
   18.4711  -21.9464  -10.0978 C   0  0  0  0  0  0  0  0  0  0  0  0
   17.2551  -21.5896   -9.9331 N   0  0  0  0  0  0  0  0  0  0  0  0
   18.9025  -22.2671  -11.4108 N   0  0  0  0  0  0  0  0  0  0  0  0
   20.2117  -22.8054  -11.6260 C   0  0  0  0  0  0  0  0  0  0  0  0
   20.6976  -22.3061  -12.9830 C   0  0  0  0  0  0  0  0  0  0  0  0
   20.7241  -20.7832  -12.9824 C   0  0  0  0  0  0  0  0  0  0  0  0
   21.9315  -20.3318  -13.7191 C   0  0  2  0  0  0  0  0  0  0  0  0
   23.1627  -20.6437  -13.0678 N   0  0  0  0  0  0  0  0  0  0  0  0
   21.7962  -18.9222  -14.1764 C   0  0  0  0  0  0  0  0  0  0  0  0
   22.0333  -17.9058  -13.4949 O   0  0  0  0  0  0  0  0  0  0  0  0
   16.5348  -21.5230  -10.6517 N   0  0  0  0  0  0  0  0  0  0  0  0
   21.3578  -18.7012  -15.5131 C   0  0  1  0  0  0  0  0  0  0  0  0
   21.2260  -17.3303  -16.0394 C   0  0  0  0  0  0  0  0  0  0  0  0
   22.3656  -17.1668  -17.0066 C   0  0  0  0  0  0  0  0  0  0  0  0
   22.3166  -15.9112  -17.7868 O   0  0  0  0  0  0  0  0  0  0  0  0
   22.1237  -14.8196  -17.2079 C   0  0  0  0  0  0  0  0  0  0  0  0
   19.9012  -17.1679  -16.6727 O   0  0  0  0  0  0  0  0  0  0  0  0
   19.3261  -18.1581  -17.4433 O   0  0  0  0  0  0  0  0  0  0  0  0
   22.4805  -15.9078  -19.1601 O   0  0  0  0  0  0  0  0  0  0  0  0
  2  1  1  1
  2  4  1  0
  3  2  1  0
  4  5  1  6
  6  4  1  0
  6 16  1  0
  7  6  2  0
  8  9  1  0
  9 10  2  0
 11 12  1  0
 11  9  1  0
 13 14  1  0
 13 12  1  0
 15 16  1  0
 15 14  1  1
 17 15  1  0
 18 17  2  0
 19 17  1  0
 20 24  1  0
 20 19  1  0
 20 21  1  6
 22 21  1  0
 23 22  2  0
 24 25  1  0
 26 22  1  0
 27 24  2  0
M  END
$$$$
