TRD.pdb
     RDKit          3D

 27 26  0  0  1  0  0  0  0  0999 V2000
   12.8459   -6.1910   -9.1191 C   0  0  0  0  0  0  0  0  0  0  0  0
   13.6443   -6.2283   -7.8473 C   0  0  1  0  0  0  0  0  0  0  0  0
   12.7759   -6.4130   -6.7790 O   0  0  0  0  0  0  0  0  0  0  0  0
   14.6394   -7.3592   -7.8564 C   0  0  2  0  0  0  0  0  0  0  0  0
   15.2521   -7.4911   -6.5553 N   0  0  0  0  0  0  0  0  0  0  0  0
   15.6508   -7.1456   -8.9384 C   0  0  0  0  0  0  0  0  0  0  0  0
   16.4519   -6.2088   -8.7438 O   0  0  0  0  0  0  0  0  0  0  0  0
   19.6595  -12.1450  -15.1118 N   0  0  0  0  0  0  0  0  0  0  0  0
   19.8064  -10.7657  -15.4839 C   0  0  0  0  0  0  0  0  0  0  0  0
   20.5634  -10.4340  -16.4587 N   0  0  0  0  0  0  0  0  0  0  0  0
   19.1210   -9.7364  -14.7886 N   0  0  0  0  0  0  0  0  0  0  0  0
   18.1731  -10.0665  -13.7676 C   0  0  0  0  0  0  0  0  0  0  0  0
   17.7355   -8.7632  -13.1065 C   0  0  0  0  0  0  0  0  0  0  0  0
   16.8353   -9.0755  -11.9183 C   0  0  0  0  0  0  0  0  0  0  0  0
   16.4958   -7.8016  -11.2356 C   0  0  2  0  0  0  0  0  0  0  0  0
   15.6715   -7.9601  -10.0812 N   0  0  0  0  0  0  0  0  0  0  0  0
   16.0375   -6.7690  -12.2041 C   0  0  0  0  0  0  0  0  0  0  0  0
   14.9482   -6.7663  -12.8101 O   0  0  0  0  0  0  0  0  0  0  0  0
   20.7917   -9.4873  -16.7609 N   0  0  0  0  0  0  0  0  0  0  0  0
   16.9140   -5.6787  -12.4704 C   0  0  2  0  0  0  0  0  0  0  0  0
   16.5585   -4.6631  -13.4784 C   0  0  0  0  0  0  0  0  0  0  0  0
   16.3900   -3.3831  -12.7075 C   0  0  0  0  0  0  0  0  0  0  0  0
   16.1903   -2.1903  -13.5590 O   0  0  0  0  0  0  0  0  0  0  0  0
   16.0502   -1.0626  -13.0369 C   0  0  0  0  0  0  0  0  0  0  0  0
   17.6216   -4.5872  -14.5016 O   0  0  0  0  0  0  0  0  0  0  0  0
   17.5192   -3.7741  -15.6120 O   0  0  0  0  0  0  0  0  0  0  0  0
   16.1533   -2.2860  -14.9383 O   0  0  0  0  0  0  0  0  0  0  0  0
  2  1  1  6
  2  4  1  0
  3  2  1  0
  4  5  1  1
  6  4  1  0
  6 16  1  0
  7  6  2  0
  8  9  1  0
  9 10  2  0
 11 12  1  0
 11  9  1  0
 13 14  1  0
 13 12  1  0
 15 16  1  0
 15 14  1  6
 17 15  1  0
 18 17  2  0
 19 17  1  0
 20 24  1  0
 20 19  1  0
 20 21  1  1
 22 21  1  0
 23 22  2  0
 24 25  1  0
 26 22  1  0
 27 24  2  0
M  END
$$$$
