TRD.pdb
     RDKit          3D

 27 26  0  0  1  0  0  0  0  0999 V2000
   28.5022  -18.3373  -17.8647 C   0  0  0  0  0  0  0  0  0  0  0  0
   27.4444  -18.9976  -17.0272 C   0  0  1  0  0  0  0  0  0  0  0  0
   26.3258  -19.2270  -17.8181 O   0  0  0  0  0  0  0  0  0  0  0  0
   27.9220  -20.3171  -16.4791 C   0  0  2  0  0  0  0  0  0  0  0  0
   28.2788  -21.2038  -17.5617 N   0  0  0  0  0  0  0  0  0  0  0  0
   26.8798  -20.9094  -15.5834 C   0  0  0  0  0  0  0  0  0  0  0  0
   26.1157  -21.7340  -16.1250 O   0  0  0  0  0  0  0  0  0  0  0  0
   22.5606  -19.5894   -9.3049 N   0  0  0  0  0  0  0  0  0  0  0  0
   22.9159  -20.8019   -8.6222 C   0  0  0  0  0  0  0  0  0  0  0  0
   22.0802  -21.3777   -7.8455 N   0  0  0  0  0  0  0  0  0  0  0  0
   24.1940  -21.3950   -8.7877 N   0  0  0  0  0  0  0  0  0  0  0  0
   25.1927  -20.7417   -9.5789 C   0  0  0  0  0  0  0  0  0  0  0  0
   24.9119  -21.0738  -11.0410 C   0  0  0  0  0  0  0  0  0  0  0  0
   26.0235  -20.5033  -11.9122 C   0  0  0  0  0  0  0  0  0  0  0  0
   25.7229  -20.8234  -13.3305 C   0  0  2  0  0  0  0  0  0  0  0  0
   26.7939  -20.5428  -14.2313 N   0  0  0  0  0  0  0  0  0  0  0  0
   24.3948  -20.2917  -13.7402 C   0  0  0  0  0  0  0  0  0  0  0  0
   24.0439  -19.0960  -13.7085 O   0  0  0  0  0  0  0  0  0  0  0  0
   22.2178  -22.2524   -7.3399 N   0  0  0  0  0  0  0  0  0  0  0  0
   23.4285  -21.2239  -14.2145 C   0  0  2  0  0  0  0  0  0  0  0  0
   22.1004  -20.7627  -14.6589 C   0  0  0  0  0  0  0  0  0  0  0  0
   21.7299  -21.6669  -15.8017 C   0  0  0  0  0  0  0  0  0  0  0  0
   20.4091  -21.3714  -16.3982 O   0  0  0  0  0  0  0  0  0  0  0  0
   19.7367  -20.4013  -15.9853 C   0  0  0  0  0  0  0  0  0  0  0  0
   21.1482  -20.8343  -13.5316 O   0  0  0  0  0  0  0  0  0  0  0  0
   20.2520  -19.8210  -13.2582 O   0  0  0  0  0  0  0  0  0  0  0  0
   19.8866  -22.1486  -17.4159 O   0  0  0  0  0  0  0  0  0  0  0  0
  2  1  1  6
  2  4  1  0
  3  2  1  0
  4  5  1  6
  6  4  1  0
  6 16  1  0
  7  6  2  0
  8  9  1  0
  9 10  2  0
 11 12  1  0
 11  9  1  0
 13 14  1  0
 13 12  1  0
 15 16  1  0
 15 14  1  1
 17 15  1  0
 18 17  2  0
 19 17  1  0
 20 24  1  0
 20 19  1  0
 20 21  1  6
 22 21  1  0
 23 22  2  0
 24 25  1  0
 26 22  1  0
 27 24  2  0
M  END
$$$$
