TRD.pdb
     RDKit          3D

 27 26  0  0  1  0  0  0  0  0999 V2000
   26.2688  -17.4379  -19.5756 C   0  0  0  0  0  0  0  0  0  0  0  0
   27.1398  -17.0148  -18.4273 C   0  0  1  0  0  0  0  0  0  0  0  0
   26.3772  -16.2678  -17.5386 O   0  0  0  0  0  0  0  0  0  0  0  0
   27.6994  -18.2060  -17.6943 C   0  0  2  0  0  0  0  0  0  0  0  0
   28.5964  -18.9413  -18.5546 N   0  0  0  0  0  0  0  0  0  0  0  0
   26.5857  -19.0606  -17.1761 C   0  0  0  0  0  0  0  0  0  0  0  0
   25.8111  -19.5128  -18.0437 O   0  0  0  0  0  0  0  0  0  0  0  0
   26.5842  -19.7565   -9.0677 N   0  0  0  0  0  0  0  0  0  0  0  0
   25.6437  -20.6145   -9.7324 C   0  0  0  0  0  0  0  0  0  0  0  0
   24.5468  -20.9390   -9.1626 N   0  0  0  0  0  0  0  0  0  0  0  0
   25.8991  -21.1236  -11.0317 N   0  0  0  0  0  0  0  0  0  0  0  0
   27.0228  -20.6492  -11.7816 C   0  0  0  0  0  0  0  0  0  0  0  0
   26.4831  -19.8739  -12.9793 C   0  0  0  0  0  0  0  0  0  0  0  0
   25.8816  -20.8482  -13.9838 C   0  0  0  0  0  0  0  0  0  0  0  0
   25.4228  -20.0808  -15.1691 C   0  0  2  0  0  0  0  0  0  0  0  0
   26.4491  -19.3181  -15.8032 N   0  0  0  0  0  0  0  0  0  0  0  0
   24.1654  -19.3375  -14.8844 C   0  0  0  0  0  0  0  0  0  0  0  0
   24.0415  -18.0979  -14.8432 O   0  0  0  0  0  0  0  0  0  0  0  0
   23.7965  -21.5050   -9.5582 N   0  0  0  0  0  0  0  0  0  0  0  0
   22.9894  -20.1009  -14.6358 C   0  0  2  0  0  0  0  0  0  0  0  0
   21.6566  -19.4836  -14.7643 C   0  0  0  0  0  0  0  0  0  0  0  0
   21.5283  -19.1189  -16.2174 C   0  0  0  0  0  0  0  0  0  0  0  0
   20.2546  -18.4489  -16.5589 O   0  0  0  0  0  0  0  0  0  0  0  0
   19.6806  -18.7054  -17.6399 C   0  0  0  0  0  0  0  0  0  0  0  0
   20.6229  -20.4380  -14.3133 O   0  0  0  0  0  0  0  0  0  0  0  0
   19.6268  -20.0815  -13.4271 O   0  0  0  0  0  0  0  0  0  0  0  0
   19.6695  -17.5321  -15.7045 O   0  0  0  0  0  0  0  0  0  0  0  0
  2  1  1  6
  2  4  1  0
  3  2  1  0
  4  5  1  6
  6  4  1  0
  6 16  1  0
  7  6  2  0
  8  9  1  0
  9 10  2  0
 11 12  1  0
 11  9  1  0
 13 14  1  0
 13 12  1  0
 15 16  1  0
 15 14  1  1
 17 15  1  0
 18 17  2  0
 19 17  1  0
 20 24  1  0
 20 19  1  0
 20 21  1  6
 22 21  1  0
 23 22  2  0
 24 25  1  0
 26 22  1  0
 27 24  2  0
M  END
$$$$
