TRD.pdb
     RDKit          3D

 27 26  0  0  1  0  0  0  0  0999 V2000
   27.4995  -10.5021  -15.1820 C   0  0  0  0  0  0  0  0  0  0  0  0
   27.6572  -11.2055  -16.4999 C   0  0  1  0  0  0  0  0  0  0  0  0
   28.8246  -11.9576  -16.4689 O   0  0  0  0  0  0  0  0  0  0  0  0
   26.4992  -12.1300  -16.7711 C   0  0  2  0  0  0  0  0  0  0  0  0
   26.7783  -12.9485  -17.9276 N   0  0  0  0  0  0  0  0  0  0  0  0
   25.2372  -11.3412  -16.9281 C   0  0  0  0  0  0  0  0  0  0  0  0
   25.1429  -10.6894  -17.9880 O   0  0  0  0  0  0  0  0  0  0  0  0
   16.7354  -12.3483  -14.5643 N   0  0  0  0  0  0  0  0  0  0  0  0
   16.9093  -11.1034  -15.2590 C   0  0  0  0  0  0  0  0  0  0  0  0
   15.8959  -10.4005  -15.5938 N   0  0  0  0  0  0  0  0  0  0  0  0
   18.2000  -10.6176  -15.5916 N   0  0  0  0  0  0  0  0  0  0  0  0
   19.3627  -11.3912  -15.2758 C   0  0  0  0  0  0  0  0  0  0  0  0
   20.5814  -10.6055  -15.7495 C   0  0  0  0  0  0  0  0  0  0  0  0
   21.8376  -11.4381  -15.5291 C   0  0  0  0  0  0  0  0  0  0  0  0
   23.0158  -10.6318  -15.9365 C   0  0  2  0  0  0  0  0  0  0  0  0
   24.2464  -11.3548  -15.9342 N   0  0  0  0  0  0  0  0  0  0  0  0
   23.0498   -9.3213  -15.2323 C   0  0  0  0  0  0  0  0  0  0  0  0
   23.4063   -9.1334  -14.0528 O   0  0  0  0  0  0  0  0  0  0  0  0
   15.9060   -9.5161  -16.1011 N   0  0  0  0  0  0  0  0  0  0  0  0
   22.6412   -8.1690  -15.9625 C   0  0  2  0  0  0  0  0  0  0  0  0
   22.5913   -6.8486  -15.3083 C   0  0  0  0  0  0  0  0  0  0  0  0
   22.6272   -5.8494  -16.4314 C   0  0  0  0  0  0  0  0  0  0  0  0
   22.5136   -4.4428  -15.9884 O   0  0  0  0  0  0  0  0  0  0  0  0
   22.4694   -4.1704  -14.7687 C   0  0  0  0  0  0  0  0  0  0  0  0
   21.3692   -6.7498  -14.4841 O   0  0  0  0  0  0  0  0  0  0  0  0
   20.1159   -7.0348  -14.9869 O   0  0  0  0  0  0  0  0  0  0  0  0
   22.4539   -3.4023  -16.8976 O   0  0  0  0  0  0  0  0  0  0  0  0
  2  1  1  1
  2  4  1  0
  3  2  1  0
  4  5  1  6
  6  4  1  0
  6 16  1  0
  7  6  2  0
  8  9  1  0
  9 10  2  0
 11 12  1  0
 11  9  1  0
 13 14  1  0
 13 12  1  0
 15 16  1  0
 15 14  1  1
 17 15  1  0
 18 17  2  0
 19 17  1  0
 20 24  1  0
 20 19  1  0
 20 21  1  6
 22 21  1  0
 23 22  2  0
 24 25  1  0
 26 22  1  0
 27 24  2  0
M  END
$$$$
