WPF.pdb
     RDKit          3D

 33 36  0  0  1  0  0  0  0  0999 V2000
   26.5586  -19.0079  -19.3691 N   0  0  0  0  0  0  0  0  0  0  0  0
   27.0722  -20.0193  -18.5317 C   0  0  1  0  0  0  0  0  0  0  0  0
   28.1935  -19.4887  -17.6599 C   0  0  0  0  0  0  0  0  0  0  0  0
   27.7709  -18.8369  -16.4273 C   0  0  0  0  0  0  0  0  0  0  0  0
   26.9288  -17.7271  -16.3395 C   0  0  0  0  0  0  0  0  0  0  0  0
   26.8003  -17.4007  -15.0495 N   0  0  0  0  0  0  0  0  0  0  0  0
   27.5198  -18.2395  -14.2603 C   0  0  0  0  0  0  0  0  0  0  0  0
   27.7045  -18.3195  -12.8911 C   0  0  0  0  0  0  0  0  0  0  0  0
   28.5051  -19.3119  -12.3631 C   0  0  0  0  0  0  0  0  0  0  0  0
   29.1293  -20.2332  -13.1875 C   0  0  0  0  0  0  0  0  0  0  0  0
   28.9212  -20.1189  -14.5586 C   0  0  0  0  0  0  0  0  0  0  0  0
   28.1316  -19.1463  -15.1285 C   0  0  0  0  0  0  0  0  0  0  0  0
   26.0843  -20.7878  -17.7378 C   0  0  0  0  0  0  0  0  0  0  0  0
   24.8728  -20.3275  -17.8566 O   0  0  0  0  0  0  0  0  0  0  0  0
   26.3579  -21.8900  -16.9354 N   0  0  0  0  0  0  0  0  0  0  0  0
   27.7448  -22.3271  -16.6347 C   0  0  0  0  0  0  0  0  0  0  0  0
   27.5928  -23.8100  -16.9682 C   0  0  0  0  0  0  0  0  0  0  0  0
   26.1747  -24.1644  -16.6654 C   0  0  0  0  0  0  0  0  0  0  0  0
   25.5605  -22.8544  -16.2432 C   0  0  1  0  0  0  0  0  0  0  0  0
   25.6169  -22.5786  -14.7991 C   0  0  0  0  0  0  0  0  0  0  0  0
   26.6881  -22.8952  -14.1994 O   0  0  0  0  0  0  0  0  0  0  0  0
   24.5934  -22.0028  -14.0161 N   0  0  0  0  0  0  0  0  0  0  0  0
   24.7739  -21.7660  -12.5772 C   0  0  1  0  0  0  0  0  0  0  0  0
   25.8687  -20.8198  -12.2662 C   0  0  0  0  0  0  0  0  0  0  0  0
   26.0693  -20.4710  -10.8603 C   0  0  0  0  0  0  0  0  0  0  0  0
   26.9043  -21.2033  -10.0275 C   0  0  0  0  0  0  0  0  0  0  0  0
   27.0239  -20.8069   -8.7212 C   0  0  0  0  0  0  0  0  0  0  0  0
   26.3278  -19.6906   -8.2267 C   0  0  0  0  0  0  0  0  0  0  0  0
   25.4971  -18.9552   -9.0466 C   0  0  0  0  0  0  0  0  0  0  0  0
   25.3835  -19.3664  -10.3536 C   0  0  0  0  0  0  0  0  0  0  0  0
   23.4730  -21.1739  -12.0641 C   0  0  0  0  0  0  0  0  0  0  0  0
   23.2018  -21.2429  -10.8228 O   0  0  0  0  0  0  0  0  0  0  0  0
   22.5467  -20.5546  -12.8612 O   0  0  0  0  0  0  0  0  0  0  0  0
  2  1  1  1
  3  2  1  0
  4  3  1  0
  5  4  2  0
  6  5  1  0
  7  6  1  0
  7 12  2  0
  8  9  2  0
  8  7  1  0
  9 10  1  0
 10 11  2  0
 12 11  1  0
 12  4  1  0
 13  2  1  0
 13 14  2  0
 15 13  1  0
 16 15  1  0
 17 18  1  0
 17 16  1  0
 19 18  1  0
 19 15  1  0
 19 20  1  1
 21 20  2  0
 22 20  1  0
 23 22  1  0
 23 24  1  6
 24 25  1  0
 25 26  2  0
 26 27  1  0
 28 27  2  0
 29 28  1  0
 30 29  2  0
 30 25  1  0
 31 33  1  0
 31 23  1  0
 32 31  2  0
M  END
$$$$
