WPF.pdb
     RDKit          3D

 33 36  0  0  1  0  0  0  0  0999 V2000
   23.3574  -20.8942  -15.2070 N   0  0  0  0  0  0  0  0  0  0  0  0
   24.2941  -20.2361  -14.3840 C   0  0  1  0  0  0  0  0  0  0  0  0
   23.6153  -19.2119  -13.4956 C   0  0  0  0  0  0  0  0  0  0  0  0
   22.9961  -18.0929  -14.1935 C   0  0  0  0  0  0  0  0  0  0  0  0
   21.6312  -17.9439  -14.4452 C   0  0  0  0  0  0  0  0  0  0  0  0
   21.4541  -16.8120  -15.1341 N   0  0  0  0  0  0  0  0  0  0  0  0
   22.6392  -16.1891  -15.3615 C   0  0  0  0  0  0  0  0  0  0  0  0
   22.9778  -15.0138  -16.0089 C   0  0  0  0  0  0  0  0  0  0  0  0
   24.2993  -14.6213  -16.0729 C   0  0  0  0  0  0  0  0  0  0  0  0
   25.2963  -15.3903  -15.4960 C   0  0  0  0  0  0  0  0  0  0  0  0
   24.9168  -16.5662  -14.8560 C   0  0  0  0  0  0  0  0  0  0  0  0
   23.6123  -16.9959  -14.7677 C   0  0  0  0  0  0  0  0  0  0  0  0
   25.2182  -21.0988  -13.6102 C   0  0  0  0  0  0  0  0  0  0  0  0
   24.8092  -22.3317  -13.5286 O   0  0  0  0  0  0  0  0  0  0  0  0
   26.4077  -20.6962  -13.0131 N   0  0  0  0  0  0  0  0  0  0  0  0
   26.8512  -19.2790  -13.0058 C   0  0  0  0  0  0  0  0  0  0  0  0
   28.2824  -19.4866  -13.4975 C   0  0  0  0  0  0  0  0  0  0  0  0
   28.7011  -20.8344  -13.0115 C   0  0  0  0  0  0  0  0  0  0  0  0
   27.4682  -21.3677  -12.3281 C   0  0  1  0  0  0  0  0  0  0  0  0
   27.3772  -21.0700  -10.8901 C   0  0  0  0  0  0  0  0  0  0  0  0
   27.3831  -19.8460  -10.5595 O   0  0  0  0  0  0  0  0  0  0  0  0
   27.2908  -22.0133   -9.8437 N   0  0  0  0  0  0  0  0  0  0  0  0
   27.2556  -21.5921   -8.4364 C   0  0  1  0  0  0  0  0  0  0  0  0
   28.1924  -20.4893   -8.1255 C   0  0  0  0  0  0  0  0  0  0  0  0
   28.3108  -20.0901   -6.7236 C   0  0  0  0  0  0  0  0  0  0  0  0
   28.2880  -21.0126   -5.6865 C   0  0  0  0  0  0  0  0  0  0  0  0
   28.3966  -20.5452   -4.4030 C   0  0  0  0  0  0  0  0  0  0  0  0
   28.5302  -19.1728   -4.1309 C   0  0  0  0  0  0  0  0  0  0  0  0
   28.5557  -18.2482   -5.1545 C   0  0  0  0  0  0  0  0  0  0  0  0
   28.4419  -18.7308   -6.4369 C   0  0  0  0  0  0  0  0  0  0  0  0
   25.8429  -21.1089   -8.1589 C   0  0  0  0  0  0  0  0  0  0  0  0
   25.4680  -20.9320   -6.9559 O   0  0  0  0  0  0  0  0  0  0  0  0
   24.9193  -20.8424   -9.1351 O   0  0  0  0  0  0  0  0  0  0  0  0
  2  1  1  1
  3  2  1  0
  4  3  1  0
  5  4  2  0
  6  5  1  0
  7  6  1  0
  7 12  2  0
  8  9  2  0
  8  7  1  0
  9 10  1  0
 10 11  2  0
 12 11  1  0
 12  4  1  0
 13  2  1  0
 13 14  2  0
 15 13  1  0
 16 15  1  0
 17 18  1  0
 17 16  1  0
 19 18  1  0
 19 15  1  0
 19 20  1  1
 21 20  2  0
 22 20  1  0
 23 22  1  0
 23 24  1  6
 24 25  1  0
 25 26  2  0
 26 27  1  0
 28 27  2  0
 29 28  1  0
 30 29  2  0
 30 25  1  0
 31 33  1  0
 31 23  1  0
 32 31  2  0
M  END
$$$$
