WPF.pdb
     RDKit          3D

 33 36  0  0  1  0  0  0  0  0999 V2000
   23.2996  -20.1740  -15.9571 N   0  0  0  0  0  0  0  0  0  0  0  0
   24.2781  -19.6947  -15.0622 C   0  0  1  0  0  0  0  0  0  0  0  0
   23.6517  -18.8490  -13.9707 C   0  0  0  0  0  0  0  0  0  0  0  0
   22.8612  -17.7165  -14.4347 C   0  0  0  0  0  0  0  0  0  0  0  0
   21.4729  -17.6958  -14.5779 C   0  0  0  0  0  0  0  0  0  0  0  0
   21.1197  -16.4986  -15.0567 N   0  0  0  0  0  0  0  0  0  0  0  0
   22.2080  -15.7086  -15.2456 C   0  0  0  0  0  0  0  0  0  0  0  0
   22.3642  -14.4131  -15.7063 C   0  0  0  0  0  0  0  0  0  0  0  0
   23.6257  -13.8583  -15.7809 C   0  0  0  0  0  0  0  0  0  0  0  0
   24.7428  -14.5828  -15.3996 C   0  0  0  0  0  0  0  0  0  0  0  0
   24.5454  -15.8827  -14.9439 C   0  0  0  0  0  0  0  0  0  0  0  0
   23.3069  -16.4757  -14.8526 C   0  0  0  0  0  0  0  0  0  0  0  0
   25.2130  -20.6991  -14.5020 C   0  0  0  0  0  0  0  0  0  0  0  0
   24.7418  -21.9113  -14.5523 O   0  0  0  0  0  0  0  0  0  0  0  0
   26.4702  -20.4394  -13.9675 N   0  0  0  0  0  0  0  0  0  0  0  0
   27.0214  -19.0640  -13.8698 C   0  0  0  0  0  0  0  0  0  0  0  0
   28.3930  -19.3246  -14.4897 C   0  0  0  0  0  0  0  0  0  0  0  0
   28.7401  -20.7384  -14.1596 C   0  0  0  0  0  0  0  0  0  0  0  0
   27.5223  -21.2455  -13.4307 C   0  0  1  0  0  0  0  0  0  0  0  0
   27.5589  -21.0790  -11.9694 C   0  0  0  0  0  0  0  0  0  0  0  0
   28.4651  -20.3243  -11.5038 O   0  0  0  0  0  0  0  0  0  0  0  0
   26.6886  -21.6820  -11.0359 N   0  0  0  0  0  0  0  0  0  0  0  0
   26.6814  -21.2746   -9.6242 C   0  0  1  0  0  0  0  0  0  0  0  0
   27.5528  -20.1127   -9.3394 C   0  0  0  0  0  0  0  0  0  0  0  0
   27.5303  -19.5801   -7.9776 C   0  0  0  0  0  0  0  0  0  0  0  0
   26.6271  -18.6043   -7.5789 C   0  0  0  0  0  0  0  0  0  0  0  0
   26.6860  -18.1590   -6.2844 C   0  0  0  0  0  0  0  0  0  0  0  0
   27.6285  -18.6694   -5.3752 C   0  0  0  0  0  0  0  0  0  0  0  0
   28.5292  -19.6405   -5.7610 C   0  0  0  0  0  0  0  0  0  0  0  0
   28.4612  -20.0753   -7.0636 C   0  0  0  0  0  0  0  0  0  0  0  0
   25.2514  -20.8913   -9.2861 C   0  0  0  0  0  0  0  0  0  0  0  0
   24.7666  -21.2206   -8.1567 O   0  0  0  0  0  0  0  0  0  0  0  0
   24.4245  -20.1983  -10.1305 O   0  0  0  0  0  0  0  0  0  0  0  0
  2  1  1  1
  3  2  1  0
  4  3  1  0
  5  4  2  0
  6  5  1  0
  7  6  1  0
  7 12  2  0
  8  9  2  0
  8  7  1  0
  9 10  1  0
 10 11  2  0
 12 11  1  0
 12  4  1  0
 13  2  1  0
 13 14  2  0
 15 13  1  0
 16 15  1  0
 17 18  1  0
 17 16  1  0
 19 18  1  0
 19 15  1  0
 19 20  1  1
 21 20  2  0
 22 20  1  0
 23 22  1  0
 23 24  1  6
 24 25  1  0
 25 26  2  0
 26 27  1  0
 28 27  2  0
 29 28  1  0
 30 29  2  0
 30 25  1  0
 31 33  1  0
 31 23  1  0
 32 31  2  0
M  END
$$$$
