WPF.pdb
     RDKit          3D

 33 36  0  0  1  0  0  0  0  0999 V2000
   25.3798  -20.7941  -16.5571 N   0  0  0  0  0  0  0  0  0  0  0  0
   26.0541  -20.1675  -15.4891 C   0  0  1  0  0  0  0  0  0  0  0  0
   25.3285  -18.9115  -15.0476 C   0  0  0  0  0  0  0  0  0  0  0  0
   23.9801  -19.1169  -14.5353 C   0  0  0  0  0  0  0  0  0  0  0  0
   23.6485  -19.8003  -13.3642 C   0  0  0  0  0  0  0  0  0  0  0  0
   22.3168  -19.8073  -13.2469 N   0  0  0  0  0  0  0  0  0  0  0  0
   21.7322  -19.1603  -14.2879 C   0  0  0  0  0  0  0  0  0  0  0  0
   20.4132  -18.8978  -14.6142 C   0  0  0  0  0  0  0  0  0  0  0  0
   20.1174  -18.1900  -15.7615 C   0  0  0  0  0  0  0  0  0  0  0  0
   21.1264  -17.7366  -16.5949 C   0  0  0  0  0  0  0  0  0  0  0  0
   22.4397  -18.0221  -16.2345 C   0  0  0  0  0  0  0  0  0  0  0  0
   22.7807  -18.7237  -15.1007 C   0  0  0  0  0  0  0  0  0  0  0  0
   26.4069  -21.0256  -14.3332 C   0  0  0  0  0  0  0  0  0  0  0  0
   25.8186  -22.1860  -14.3673 O   0  0  0  0  0  0  0  0  0  0  0  0
   27.2667  -20.6870  -13.2941 N   0  0  0  0  0  0  0  0  0  0  0  0
   28.0000  -19.3962  -13.2605 C   0  0  0  0  0  0  0  0  0  0  0  0
   29.3979  -19.9369  -12.9655 C   0  0  0  0  0  0  0  0  0  0  0  0
   29.2051  -21.1815  -12.1642 C   0  0  0  0  0  0  0  0  0  0  0  0
   27.7075  -21.3375  -12.0994 C   0  0  1  0  0  0  0  0  0  0  0  0
   27.0661  -20.6997  -10.9390 C   0  0  0  0  0  0  0  0  0  0  0  0
   26.3223  -19.7007  -11.1761 O   0  0  0  0  0  0  0  0  0  0  0  0
   27.2033  -21.0871   -9.5887 N   0  0  0  0  0  0  0  0  0  0  0  0
   26.0421  -21.1510   -8.6905 C   0  0  1  0  0  0  0  0  0  0  0  0
   26.3883  -21.5298   -7.3023 C   0  0  0  0  0  0  0  0  0  0  0  0
   27.3985  -20.7200   -6.6223 C   0  0  0  0  0  0  0  0  0  0  0  0
   28.7556  -20.9960   -6.7172 C   0  0  0  0  0  0  0  0  0  0  0  0
   29.6289  -20.1874   -6.0379 C   0  0  0  0  0  0  0  0  0  0  0  0
   29.1759  -19.1043   -5.2652 C   0  0  0  0  0  0  0  0  0  0  0  0
   27.8296  -18.8206   -5.1660 C   0  0  0  0  0  0  0  0  0  0  0  0
   26.9647  -19.6423   -5.8494 C   0  0  0  0  0  0  0  0  0  0  0  0
   25.4301  -19.7614   -8.6661 C   0  0  0  0  0  0  0  0  0  0  0  0
   26.1545  -18.7545   -8.9497 O   0  0  0  0  0  0  0  0  0  0  0  0
   24.1207  -19.5070   -8.3532 O   0  0  0  0  0  0  0  0  0  0  0  0
  2  1  1  6
  3  2  1  0
  4  3  1  0
  5  4  2  0
  6  5  1  0
  7  6  1  0
  7 12  2  0
  8  9  2  0
  8  7  1  0
  9 10  1  0
 10 11  2  0
 12 11  1  0
 12  4  1  0
 13  2  1  0
 13 14  2  0
 15 13  1  0
 16 15  1  0
 17 18  1  0
 17 16  1  0
 19 18  1  0
 19 15  1  0
 19 20  1  1
 21 20  2  0
 22 20  1  0
 23 22  1  0
 23 24  1  1
 24 25  1  0
 25 26  2  0
 26 27  1  0
 28 27  2  0
 29 28  1  0
 30 29  2  0
 30 25  1  0
 31 33  1  0
 31 23  1  0
 32 31  2  0
M  END
$$$$
