WPF.pdb
     RDKit          3D

 33 36  0  0  1  0  0  0  0  0999 V2000
   23.4986  -20.8181  -15.7752 N   0  0  0  0  0  0  0  0  0  0  0  0
   24.2816  -20.1349  -14.8223 C   0  0  1  0  0  0  0  0  0  0  0  0
   23.5353  -18.9424  -14.2566 C   0  0  0  0  0  0  0  0  0  0  0  0
   22.8225  -18.1310  -15.2345 C   0  0  0  0  0  0  0  0  0  0  0  0
   23.3902  -17.1486  -16.0475 C   0  0  0  0  0  0  0  0  0  0  0  0
   22.4179  -16.6030  -16.7852 N   0  0  0  0  0  0  0  0  0  0  0  0
   21.2167  -17.1715  -16.5060 C   0  0  0  0  0  0  0  0  0  0  0  0
   19.9387  -16.9639  -16.9948 C   0  0  0  0  0  0  0  0  0  0  0  0
   18.8889  -17.7206  -16.5154 C   0  0  0  0  0  0  0  0  0  0  0  0
   19.0967  -18.6893  -15.5476 C   0  0  0  0  0  0  0  0  0  0  0  0
   20.3949  -18.8671  -15.0794 C   0  0  0  0  0  0  0  0  0  0  0  0
   21.4711  -18.1362  -15.5287 C   0  0  0  0  0  0  0  0  0  0  0  0
   24.8851  -20.9577  -13.7473 C   0  0  0  0  0  0  0  0  0  0  0  0
   24.2846  -22.1015  -13.5890 O   0  0  0  0  0  0  0  0  0  0  0  0
   25.9747  -20.6040  -12.9591 N   0  0  0  0  0  0  0  0  0  0  0  0
   26.5907  -19.2542  -13.0177 C   0  0  0  0  0  0  0  0  0  0  0  0
   28.0510  -19.6772  -13.1652 C   0  0  0  0  0  0  0  0  0  0  0  0
   28.1835  -20.9815  -12.4515 C   0  0  0  0  0  0  0  0  0  0  0  0
   26.7801  -21.2824  -11.9916 C   0  0  1  0  0  0  0  0  0  0  0  0
   26.4453  -20.7811  -10.6495 C   0  0  0  0  0  0  0  0  0  0  0  0
   26.1908  -19.5430  -10.5502 O   0  0  0  0  0  0  0  0  0  0  0  0
   26.3862  -21.5420   -9.4622 N   0  0  0  0  0  0  0  0  0  0  0  0
   26.5328  -20.9118   -8.1429 C   0  0  1  0  0  0  0  0  0  0  0  0
   27.6424  -21.4724   -7.3397 C   0  0  0  0  0  0  0  0  0  0  0  0
   27.9860  -20.7766   -6.1002 C   0  0  0  0  0  0  0  0  0  0  0  0
   29.1262  -19.9937   -5.9820 C   0  0  0  0  0  0  0  0  0  0  0  0
   29.3716  -19.3865   -4.7784 C   0  0  0  0  0  0  0  0  0  0  0  0
   28.4999  -19.5422   -3.6869 C   0  0  0  0  0  0  0  0  0  0  0  0
   27.3634  -20.3166   -3.7946 C   0  0  0  0  0  0  0  0  0  0  0  0
   27.1316  -20.9230   -5.0066 C   0  0  0  0  0  0  0  0  0  0  0  0
   26.8195  -19.4410   -8.3893 C   0  0  0  0  0  0  0  0  0  0  0  0
   26.0578  -18.5612   -7.8747 O   0  0  0  0  0  0  0  0  0  0  0  0
   27.8658  -18.9810   -9.1447 O   0  0  0  0  0  0  0  0  0  0  0  0
  2  1  1  1
  3  2  1  0
  4  3  1  0
  5  4  2  0
  6  5  1  0
  7  6  1  0
  7 12  2  0
  8  9  2  0
  8  7  1  0
  9 10  1  0
 10 11  2  0
 12 11  1  0
 12  4  1  0
 13  2  1  0
 13 14  2  0
 15 13  1  0
 16 15  1  0
 17 18  1  0
 17 16  1  0
 19 18  1  0
 19 15  1  0
 19 20  1  1
 21 20  2  0
 22 20  1  0
 23 22  1  0
 23 24  1  6
 24 25  1  0
 25 26  2  0
 26 27  1  0
 28 27  2  0
 29 28  1  0
 30 29  2  0
 30 25  1  0
 31 33  1  0
 31 23  1  0
 32 31  2  0
M  END
$$$$
