WPF.pdb
     RDKit          3D

 33 36  0  0  1  0  0  0  0  0999 V2000
   25.9319  -22.2034  -13.2215 N   0  0  0  0  0  0  0  0  0  0  0  0
   26.5010  -21.2262  -12.3795 C   0  0  1  0  0  0  0  0  0  0  0  0
   25.6903  -19.9451  -12.4047 C   0  0  0  0  0  0  0  0  0  0  0  0
   25.4149  -19.4067  -13.7303 C   0  0  0  0  0  0  0  0  0  0  0  0
   24.1629  -19.3561  -14.3454 C   0  0  0  0  0  0  0  0  0  0  0  0
   24.3165  -18.8266  -15.5633 N   0  0  0  0  0  0  0  0  0  0  0  0
   25.6176  -18.5183  -15.8004 C   0  0  0  0  0  0  0  0  0  0  0  0
   26.2716  -17.9580  -16.8837 C   0  0  0  0  0  0  0  0  0  0  0  0
   27.6348  -17.7496  -16.8300 C   0  0  0  0  0  0  0  0  0  0  0  0
   28.3612  -18.0947  -15.7025 C   0  0  0  0  0  0  0  0  0  0  0  0
   27.6687  -18.6575  -14.6348 C   0  0  0  0  0  0  0  0  0  0  0  0
   26.3110  -18.8830  -14.6444 C   0  0  0  0  0  0  0  0  0  0  0  0
   26.8108  -21.6456  -10.9921 C   0  0  0  0  0  0  0  0  0  0  0  0
   26.2042  -22.7448  -10.6492 O   0  0  0  0  0  0  0  0  0  0  0  0
   27.6502  -20.9820  -10.1040 N   0  0  0  0  0  0  0  0  0  0  0  0
   28.5650  -19.8961  -10.5387 C   0  0  0  0  0  0  0  0  0  0  0  0
   29.8470  -20.4020   -9.8801 C   0  0  0  0  0  0  0  0  0  0  0  0
   29.4248  -21.1398   -8.6531 C   0  0  0  0  0  0  0  0  0  0  0  0
   27.9194  -21.0868   -8.7035 C   0  0  1  0  0  0  0  0  0  0  0  0
   27.3148  -19.9389   -8.0097 C   0  0  0  0  0  0  0  0  0  0  0  0
   26.1953  -19.5339   -8.4459 O   0  0  0  0  0  0  0  0  0  0  0  0
   27.8620  -19.2413   -6.9114 N   0  0  0  0  0  0  0  0  0  0  0  0
   27.3723  -19.4641   -5.5441 C   0  0  1  0  0  0  0  0  0  0  0  0
   27.9302  -20.6777   -4.9065 C   0  0  0  0  0  0  0  0  0  0  0  0
   29.3687  -20.6915   -4.6434 C   0  0  0  0  0  0  0  0  0  0  0  0
   30.2407  -21.5187   -5.3379 C   0  0  0  0  0  0  0  0  0  0  0  0
   31.5719  -21.4698   -5.0169 C   0  0  0  0  0  0  0  0  0  0  0  0
   32.0540  -20.6088   -4.0161 C   0  0  0  0  0  0  0  0  0  0  0  0
   31.1960  -19.7816   -3.3215 C   0  0  0  0  0  0  0  0  0  0  0  0
   29.8627  -19.8439   -3.6511 C   0  0  0  0  0  0  0  0  0  0  0  0
   27.7969  -18.2581   -4.7247 C   0  0  0  0  0  0  0  0  0  0  0  0
   28.7504  -17.5249   -5.1398 O   0  0  0  0  0  0  0  0  0  0  0  0
   27.2124  -17.8928   -3.5407 O   0  0  0  0  0  0  0  0  0  0  0  0
  2  1  1  1
  3  2  1  0
  4  3  1  0
  5  4  2  0
  6  5  1  0
  7  6  1  0
  7 12  2  0
  8  9  2  0
  8  7  1  0
  9 10  1  0
 10 11  2  0
 12 11  1  0
 12  4  1  0
 13  2  1  0
 13 14  2  0
 15 13  1  0
 16 15  1  0
 17 18  1  0
 17 16  1  0
 19 18  1  0
 19 15  1  0
 19 20  1  1
 21 20  2  0
 22 20  1  0
 23 22  1  0
 23 24  1  1
 24 25  1  0
 25 26  2  0
 26 27  1  0
 28 27  2  0
 29 28  1  0
 30 29  2  0
 30 25  1  0
 31 33  1  0
 31 23  1  0
 32 31  2  0
M  END
$$$$
