WPF.pdb
     RDKit          3D

 33 36  0  0  1  0  0  0  0  0999 V2000
   27.5934  -21.2657  -16.8562 N   0  0  0  0  0  0  0  0  0  0  0  0
   27.4564  -20.5694  -15.6379 C   0  0  1  0  0  0  0  0  0  0  0  0
   26.2248  -19.6851  -15.6503 C   0  0  0  0  0  0  0  0  0  0  0  0
   26.2568  -18.5837  -16.6034 C   0  0  0  0  0  0  0  0  0  0  0  0
   25.9812  -18.6789  -17.9686 C   0  0  0  0  0  0  0  0  0  0  0  0
   26.1456  -17.4693  -18.5137 N   0  0  0  0  0  0  0  0  0  0  0  0
   26.5222  -16.5599  -17.5782 C   0  0  0  0  0  0  0  0  0  0  0  0
   26.8040  -15.2064  -17.6386 C   0  0  0  0  0  0  0  0  0  0  0  0
   27.1595  -14.5272  -16.4910 C   0  0  0  0  0  0  0  0  0  0  0  0
   27.2388  -15.1837  -15.2741 C   0  0  0  0  0  0  0  0  0  0  0  0
   26.9503  -16.5448  -15.2540 C   0  0  0  0  0  0  0  0  0  0  0  0
   26.5916  -17.2617  -16.3727 C   0  0  0  0  0  0  0  0  0  0  0  0
   27.5307  -21.3797  -14.3991 C   0  0  0  0  0  0  0  0  0  0  0  0
   26.9804  -22.5520  -14.5285 O   0  0  0  0  0  0  0  0  0  0  0  0
   28.1122  -20.9885  -13.1981 N   0  0  0  0  0  0  0  0  0  0  0  0
   28.8830  -19.7263  -13.0646 C   0  0  0  0  0  0  0  0  0  0  0  0
   30.1258  -20.2907  -12.3789 C   0  0  0  0  0  0  0  0  0  0  0  0
   29.6648  -21.4581  -11.5709 C   0  0  0  0  0  0  0  0  0  0  0  0
   28.1945  -21.5547  -11.8876 C   0  0  1  0  0  0  0  0  0  0  0  0
   27.3131  -20.8018  -10.9815 C   0  0  0  0  0  0  0  0  0  0  0  0
   27.6964  -19.6404  -10.6474 O   0  0  0  0  0  0  0  0  0  0  0  0
   26.0871  -21.2486  -10.4433 N   0  0  0  0  0  0  0  0  0  0  0  0
   25.2575  -20.3739   -9.6033 C   0  0  1  0  0  0  0  0  0  0  0  0
   24.3657  -19.4822  -10.3780 C   0  0  0  0  0  0  0  0  0  0  0  0
   23.6874  -20.0609  -11.5371 C   0  0  0  0  0  0  0  0  0  0  0  0
   22.4829  -20.7421  -11.4266 C   0  0  0  0  0  0  0  0  0  0  0  0
   21.9250  -21.2583  -12.5668 C   0  0  0  0  0  0  0  0  0  0  0  0
   22.5440  -21.1073  -13.8195 C   0  0  0  0  0  0  0  0  0  0  0  0
   23.7400  -20.4306  -13.9403 C   0  0  0  0  0  0  0  0  0  0  0  0
   24.2903  -19.9213  -12.7878 C   0  0  0  0  0  0  0  0  0  0  0  0
   24.3941  -21.2813   -8.7446 C   0  0  0  0  0  0  0  0  0  0  0  0
   23.5602  -20.7660   -7.9334 O   0  0  0  0  0  0  0  0  0  0  0  0
   24.4492  -22.6498   -8.7814 O   0  0  0  0  0  0  0  0  0  0  0  0
  2  1  1  6
  3  2  1  0
  4  3  1  0
  5  4  2  0
  6  5  1  0
  7  6  1  0
  7 12  2  0
  8  9  2  0
  8  7  1  0
  9 10  1  0
 10 11  2  0
 12 11  1  0
 12  4  1  0
 13  2  1  0
 13 14  2  0
 15 13  1  0
 16 15  1  0
 17 18  1  0
 17 16  1  0
 19 18  1  0
 19 15  1  0
 19 20  1  1
 21 20  2  0
 22 20  1  0
 23 22  1  0
 23 24  1  6
 24 25  1  0
 25 26  2  0
 26 27  1  0
 28 27  2  0
 29 28  1  0
 30 29  2  0
 30 25  1  0
 31 33  1  0
 31 23  1  0
 32 31  2  0
M  END
$$$$
