WPF.pdb
     RDKit          3D

 33 36  0  0  1  0  0  0  0  0999 V2000
   24.7040  -21.4958  -15.1052 N   0  0  0  0  0  0  0  0  0  0  0  0
   25.6408  -20.8295  -14.2888 C   0  0  1  0  0  0  0  0  0  0  0  0
   25.1753  -19.4247  -13.9589 C   0  0  0  0  0  0  0  0  0  0  0  0
   25.1115  -18.5068  -15.0885 C   0  0  0  0  0  0  0  0  0  0  0  0
   23.9517  -17.9202  -15.5975 C   0  0  0  0  0  0  0  0  0  0  0  0
   24.2903  -17.1690  -16.6503 N   0  0  0  0  0  0  0  0  0  0  0  0
   25.6280  -17.2228  -16.8775 C   0  0  0  0  0  0  0  0  0  0  0  0
   26.4487  -16.6308  -17.8216 C   0  0  0  0  0  0  0  0  0  0  0  0
   27.8077  -16.8699  -17.7966 C   0  0  0  0  0  0  0  0  0  0  0  0
   28.3647  -17.6976  -16.8359 C   0  0  0  0  0  0  0  0  0  0  0  0
   27.5070  -18.2761  -15.9053 C   0  0  0  0  0  0  0  0  0  0  0  0
   26.1470  -18.0657  -15.8923 C   0  0  0  0  0  0  0  0  0  0  0  0
   26.0942  -21.5504  -13.0758 C   0  0  0  0  0  0  0  0  0  0  0  0
   25.4548  -22.6675  -12.8833 O   0  0  0  0  0  0  0  0  0  0  0  0
   27.0896  -21.1329  -12.1991 N   0  0  0  0  0  0  0  0  0  0  0  0
   27.8031  -19.8414  -12.3666 C   0  0  0  0  0  0  0  0  0  0  0  0
   29.2358  -20.3550  -12.2369 C   0  0  0  0  0  0  0  0  0  0  0  0
   29.1764  -21.5366  -11.3267 C   0  0  0  0  0  0  0  0  0  0  0  0
   27.7058  -21.6911  -11.0356 C   0  0  1  0  0  0  0  0  0  0  0  0
   27.2290  -20.9698   -9.8452 C   0  0  0  0  0  0  0  0  0  0  0  0
   26.6563  -19.8563  -10.0442 O   0  0  0  0  0  0  0  0  0  0  0  0
   27.3529  -21.3931   -8.5043 N   0  0  0  0  0  0  0  0  0  0  0  0
   26.5268  -20.8082   -7.4392 C   0  0  1  0  0  0  0  0  0  0  0  0
   26.8486  -21.3247   -6.0901 C   0  0  0  0  0  0  0  0  0  0  0  0
   28.0272  -20.7685   -5.4267 C   0  0  0  0  0  0  0  0  0  0  0  0
   28.1177  -19.4275   -5.0794 C   0  0  0  0  0  0  0  0  0  0  0  0
   29.2651  -18.9939   -4.4683 C   0  0  0  0  0  0  0  0  0  0  0  0
   30.3268  -19.8728   -4.1933 C   0  0  0  0  0  0  0  0  0  0  0  0
   30.2460  -21.2075   -4.5328 C   0  0  0  0  0  0  0  0  0  0  0  0
   29.0909  -21.6278   -5.1487 C   0  0  0  0  0  0  0  0  0  0  0  0
   26.7904  -19.3127   -7.4516 C   0  0  0  0  0  0  0  0  0  0  0  0
   27.9075  -18.8786   -7.8791 O   0  0  0  0  0  0  0  0  0  0  0  0
   25.8893  -18.3729   -7.0251 O   0  0  0  0  0  0  0  0  0  0  0  0
  2  1  1  1
  3  2  1  0
  4  3  1  0
  5  4  2  0
  6  5  1  0
  7  6  1  0
  7 12  2  0
  8  9  2  0
  8  7  1  0
  9 10  1  0
 10 11  2  0
 12 11  1  0
 12  4  1  0
 13  2  1  0
 13 14  2  0
 15 13  1  0
 16 15  1  0
 17 18  1  0
 17 16  1  0
 19 18  1  0
 19 15  1  0
 19 20  1  1
 21 20  2  0
 22 20  1  0
 23 22  1  0
 23 24  1  1
 24 25  1  0
 25 26  2  0
 26 27  1  0
 28 27  2  0
 29 28  1  0
 30 29  2  0
 30 25  1  0
 31 33  1  0
 31 23  1  0
 32 31  2  0
M  END
$$$$
