WPF.pdb
     RDKit          3D

 33 36  0  0  1  0  0  0  0  0999 V2000
   27.2550  -20.4170  -15.3130 N   0  0  0  0  0  0  0  0  0  0  0  0
   26.3879  -21.0009  -14.3669 C   0  0  1  0  0  0  0  0  0  0  0  0
   26.2910  -20.1484  -13.1167 C   0  0  0  0  0  0  0  0  0  0  0  0
   27.1990  -20.5164  -12.0384 C   0  0  0  0  0  0  0  0  0  0  0  0
   28.5724  -20.7299  -12.1666 C   0  0  0  0  0  0  0  0  0  0  0  0
   29.0544  -21.0816  -10.9702 N   0  0  0  0  0  0  0  0  0  0  0  0
   28.0674  -21.1173  -10.0382 C   0  0  0  0  0  0  0  0  0  0  0  0
   28.0574  -21.4123   -8.6861 C   0  0  0  0  0  0  0  0  0  0  0  0
   26.8736  -21.3533   -7.9792 C   0  0  0  0  0  0  0  0  0  0  0  0
   25.6899  -21.0016   -8.6064 C   0  0  0  0  0  0  0  0  0  0  0  0
   25.7399  -20.7143   -9.9670 C   0  0  0  0  0  0  0  0  0  0  0  0
   26.8968  -20.7600  -10.7109 C   0  0  0  0  0  0  0  0  0  0  0  0
   25.0476  -21.4029  -14.8554 C   0  0  0  0  0  0  0  0  0  0  0  0
   24.5756  -20.5940  -15.7591 O   0  0  0  0  0  0  0  0  0  0  0  0
   24.3217  -22.5122  -14.4356 N   0  0  0  0  0  0  0  0  0  0  0  0
   24.7519  -23.3542  -13.2906 C   0  0  0  0  0  0  0  0  0  0  0  0
   24.6319  -24.7231  -13.9578 C   0  0  0  0  0  0  0  0  0  0  0  0
   23.5331  -24.6052  -14.9613 C   0  0  0  0  0  0  0  0  0  0  0  0
   23.1238  -23.1572  -14.8759 C   0  0  1  0  0  0  0  0  0  0  0  0
   22.0436  -22.8724  -13.9183 C   0  0  0  0  0  0  0  0  0  0  0  0
   22.3194  -23.0137  -12.6889 O   0  0  0  0  0  0  0  0  0  0  0  0
   20.7301  -22.4642  -14.2350 N   0  0  0  0  0  0  0  0  0  0  0  0
   19.7498  -22.1614  -13.1832 C   0  0  1  0  0  0  0  0  0  0  0  0
   19.3202  -20.7452  -13.1651 C   0  0  0  0  0  0  0  0  0  0  0  0
   18.1816  -20.4046  -12.3129 C   0  0  0  0  0  0  0  0  0  0  0  0
   16.8707  -20.4798  -12.7634 C   0  0  0  0  0  0  0  0  0  0  0  0
   15.8681  -20.1323  -11.8964 C   0  0  0  0  0  0  0  0  0  0  0  0
   16.1459  -19.7120  -10.5843 C   0  0  0  0  0  0  0  0  0  0  0  0
   17.4450  -19.6356  -10.1264 C   0  0  0  0  0  0  0  0  0  0  0  0
   18.4409  -19.9834  -11.0081 C   0  0  0  0  0  0  0  0  0  0  0  0
   18.5312  -23.0249  -13.4583 C   0  0  0  0  0  0  0  0  0  0  0  0
   18.2277  -23.3127  -14.6600 O   0  0  0  0  0  0  0  0  0  0  0  0
   17.7142  -23.5297  -12.4812 O   0  0  0  0  0  0  0  0  0  0  0  0
  2  1  1  6
  3  2  1  0
  4  3  1  0
  5  4  2  0
  6  5  1  0
  7  6  1  0
  7 12  2  0
  8  9  2  0
  8  7  1  0
  9 10  1  0
 10 11  2  0
 12 11  1  0
 12  4  1  0
 13  2  1  0
 13 14  2  0
 15 13  1  0
 16 15  1  0
 17 18  1  0
 17 16  1  0
 19 18  1  0
 19 15  1  0
 19 20  1  1
 21 20  2  0
 22 20  1  0
 23 22  1  0
 23 24  1  6
 24 25  1  0
 25 26  2  0
 26 27  1  0
 28 27  2  0
 29 28  1  0
 30 29  2  0
 30 25  1  0
 31 33  1  0
 31 23  1  0
 32 31  2  0
M  END
$$$$
