WPF.pdb
     RDKit          3D

 33 36  0  0  1  0  0  0  0  0999 V2000
   25.6992  -20.8316  -18.8130 N   0  0  0  0  0  0  0  0  0  0  0  0
   26.5065  -20.0691  -17.9442 C   0  0  1  0  0  0  0  0  0  0  0  0
   25.9891  -18.6488  -17.8246 C   0  0  0  0  0  0  0  0  0  0  0  0
   24.6695  -18.5139  -17.2222 C   0  0  0  0  0  0  0  0  0  0  0  0
   23.5517  -19.2931  -17.5252 C   0  0  0  0  0  0  0  0  0  0  0  0
   22.5229  -18.8503  -16.7952 N   0  0  0  0  0  0  0  0  0  0  0  0
   22.8946  -17.8045  -16.0128 C   0  0  0  0  0  0  0  0  0  0  0  0
   22.2122  -17.0222  -15.0976 C   0  0  0  0  0  0  0  0  0  0  0  0
   22.8736  -16.0115  -14.4300 C   0  0  0  0  0  0  0  0  0  0  0  0
   24.2168  -15.7677  -14.6639 C   0  0  0  0  0  0  0  0  0  0  0  0
   24.8679  -16.5738  -15.5926 C   0  0  0  0  0  0  0  0  0  0  0  0
   24.2486  -17.5922  -16.2808 C   0  0  0  0  0  0  0  0  0  0  0  0
   26.7890  -20.6580  -16.6138 C   0  0  0  0  0  0  0  0  0  0  0  0
   26.3619  -21.8823  -16.5023 O   0  0  0  0  0  0  0  0  0  0  0  0
   27.4366  -20.0249  -15.5587 N   0  0  0  0  0  0  0  0  0  0  0  0
   27.8468  -18.5990  -15.6212 C   0  0  0  0  0  0  0  0  0  0  0  0
   29.2935  -18.7584  -15.1574 C   0  0  0  0  0  0  0  0  0  0  0  0
   29.3101  -19.9296  -14.2321 C   0  0  0  0  0  0  0  0  0  0  0  0
   27.8898  -20.4325  -14.2651 C   0  0  1  0  0  0  0  0  0  0  0  0
   27.0033  -19.8578  -13.2411 C   0  0  0  0  0  0  0  0  0  0  0  0
   26.6783  -18.6409  -13.3859 O   0  0  0  0  0  0  0  0  0  0  0  0
   26.4855  -20.5265  -12.1111 N   0  0  0  0  0  0  0  0  0  0  0  0
   25.3702  -19.9656  -11.3360 C   0  0  1  0  0  0  0  0  0  0  0  0
   24.0863  -19.9519  -12.0721 C   0  0  0  0  0  0  0  0  0  0  0  0
   23.7344  -21.1574  -12.8215 C   0  0  0  0  0  0  0  0  0  0  0  0
   23.4042  -22.3502  -12.1929 C   0  0  0  0  0  0  0  0  0  0  0  0
   23.0966  -23.4308  -12.9773 C   0  0  0  0  0  0  0  0  0  0  0  0
   23.1091  -23.3463  -14.3801 C   0  0  0  0  0  0  0  0  0  0  0  0
   23.4341  -22.1651  -15.0144 C   0  0  0  0  0  0  0  0  0  0  0  0
   23.7443  -21.0902  -14.2153 C   0  0  0  0  0  0  0  0  0  0  0  0
   25.2052  -20.8433  -10.1077 C   0  0  0  0  0  0  0  0  0  0  0  0
   25.9526  -21.8629   -9.9633 O   0  0  0  0  0  0  0  0  0  0  0  0
   24.2867  -20.6105   -9.1183 O   0  0  0  0  0  0  0  0  0  0  0  0
  2  1  1  1
  3  2  1  0
  4  3  1  0
  5  4  2  0
  6  5  1  0
  7  6  1  0
  7 12  2  0
  8  9  2  0
  8  7  1  0
  9 10  1  0
 10 11  2  0
 12 11  1  0
 12  4  1  0
 13  2  1  0
 13 14  2  0
 15 13  1  0
 16 15  1  0
 17 18  1  0
 17 16  1  0
 19 18  1  0
 19 15  1  0
 19 20  1  1
 21 20  2  0
 22 20  1  0
 23 22  1  0
 23 24  1  6
 24 25  1  0
 25 26  2  0
 26 27  1  0
 28 27  2  0
 29 28  1  0
 30 29  2  0
 30 25  1  0
 31 33  1  0
 31 23  1  0
 32 31  2  0
M  END
$$$$
