WPF.pdb
     RDKit          3D

 33 36  0  0  1  0  0  0  0  0999 V2000
   29.4488  -20.3091  -14.2403 N   0  0  0  0  0  0  0  0  0  0  0  0
   28.4216  -20.7813  -13.3979 C   0  0  1  0  0  0  0  0  0  0  0  0
   28.7911  -20.6091  -11.9375 C   0  0  0  0  0  0  0  0  0  0  0  0
   29.9632  -21.3548  -11.4981 C   0  0  0  0  0  0  0  0  0  0  0  0
   30.7976  -22.1179  -12.3165 C   0  0  0  0  0  0  0  0  0  0  0  0
   31.7404  -22.6746  -11.5494 N   0  0  0  0  0  0  0  0  0  0  0  0
   31.5798  -22.3235  -10.2475 C   0  0  0  0  0  0  0  0  0  0  0  0
   32.2828  -22.6281   -9.0950 C   0  0  0  0  0  0  0  0  0  0  0  0
   31.8786  -22.1020   -7.8849 C   0  0  0  0  0  0  0  0  0  0  0  0
   30.7743  -21.2697   -7.8068 C   0  0  0  0  0  0  0  0  0  0  0  0
   30.0922  -20.9884   -8.9866 C   0  0  0  0  0  0  0  0  0  0  0  0
   30.4596  -21.4902  -10.2143 C   0  0  0  0  0  0  0  0  0  0  0  0
   27.0544  -20.2805  -13.6748 C   0  0  0  0  0  0  0  0  0  0  0  0
   26.9707  -18.9829  -13.6194 O   0  0  0  0  0  0  0  0  0  0  0  0
   25.9409  -21.0595  -13.9696 N   0  0  0  0  0  0  0  0  0  0  0  0
   26.0118  -22.5397  -14.0656 C   0  0  0  0  0  0  0  0  0  0  0  0
   25.2984  -22.7147  -15.4049 C   0  0  0  0  0  0  0  0  0  0  0  0
   24.3199  -21.5922  -15.5083 C   0  0  0  0  0  0  0  0  0  0  0  0
   24.5680  -20.7847  -14.2602 C   0  0  1  0  0  0  0  0  0  0  0  0
   23.7450  -21.1640  -13.1010 C   0  0  0  0  0  0  0  0  0  0  0  0
   23.8553  -22.3583  -12.6897 O   0  0  0  0  0  0  0  0  0  0  0  0
   22.8411  -20.3310  -12.4074 N   0  0  0  0  0  0  0  0  0  0  0  0
   22.0947  -20.8189  -11.2395 C   0  0  1  0  0  0  0  0  0  0  0  0
   22.3704  -20.0571  -10.0009 C   0  0  0  0  0  0  0  0  0  0  0  0
   23.6343  -20.3299   -9.3177 C   0  0  0  0  0  0  0  0  0  0  0  0
   23.7723  -21.3622   -8.3998 C   0  0  0  0  0  0  0  0  0  0  0  0
   24.9929  -21.5371   -7.8022 C   0  0  0  0  0  0  0  0  0  0  0  0
   26.0833  -20.7030   -8.1033 C   0  0  0  0  0  0  0  0  0  0  0  0
   25.9571  -19.6756   -9.0152 C   0  0  0  0  0  0  0  0  0  0  0  0
   24.7259  -19.5092   -9.6041 C   0  0  0  0  0  0  0  0  0  0  0  0
   20.6197  -20.6726  -11.5698 C   0  0  0  0  0  0  0  0  0  0  0  0
   20.2656  -19.9067  -12.5222 O   0  0  0  0  0  0  0  0  0  0  0  0
   19.6170  -21.3225  -10.8997 O   0  0  0  0  0  0  0  0  0  0  0  0
  2  1  1  6
  3  2  1  0
  4  3  1  0
  5  4  2  0
  6  5  1  0
  7  6  1  0
  7 12  2  0
  8  9  2  0
  8  7  1  0
  9 10  1  0
 10 11  2  0
 12 11  1  0
 12  4  1  0
 13  2  1  0
 13 14  2  0
 15 13  1  0
 16 15  1  0
 17 18  1  0
 17 16  1  0
 19 18  1  0
 19 15  1  0
 19 20  1  1
 21 20  2  0
 22 20  1  0
 23 22  1  0
 23 24  1  1
 24 25  1  0
 25 26  2  0
 26 27  1  0
 28 27  2  0
 29 28  1  0
 30 29  2  0
 30 25  1  0
 31 33  1  0
 31 23  1  0
 32 31  2  0
M  END
$$$$
