WPF.pdb
     RDKit          3D

 33 36  0  0  1  0  0  0  0  0999 V2000
   12.5381   -8.2949  -11.7999 N   0  0  0  0  0  0  0  0  0  0  0  0
   11.5365   -7.3771  -11.4224 C   0  0  1  0  0  0  0  0  0  0  0  0
   10.4548   -8.0556  -10.6048 C   0  0  0  0  0  0  0  0  0  0  0  0
   10.2130   -9.4553  -10.9287 C   0  0  0  0  0  0  0  0  0  0  0  0
   10.4741  -10.0645  -12.1572 C   0  0  0  0  0  0  0  0  0  0  0  0
   10.0911  -11.3430  -12.0799 N   0  0  0  0  0  0  0  0  0  0  0  0
    9.5806  -11.6257  -10.8537 C   0  0  0  0  0  0  0  0  0  0  0  0
    9.0665  -12.7801  -10.2895 C   0  0  0  0  0  0  0  0  0  0  0  0
    8.6209  -12.7665   -8.9834 C   0  0  0  0  0  0  0  0  0  0  0  0
    8.6809  -11.6088   -8.2256 C   0  0  0  0  0  0  0  0  0  0  0  0
    9.2021  -10.4681   -8.8284 C   0  0  0  0  0  0  0  0  0  0  0  0
    9.6580  -10.4359  -10.1266 C   0  0  0  0  0  0  0  0  0  0  0  0
   11.9951   -6.1219  -10.7813 C   0  0  0  0  0  0  0  0  0  0  0  0
   13.2874   -6.0722  -10.6349 O   0  0  0  0  0  0  0  0  0  0  0  0
   11.1843   -5.0735  -10.3606 N   0  0  0  0  0  0  0  0  0  0  0  0
    9.7131   -5.0787  -10.5624 C   0  0  0  0  0  0  0  0  0  0  0  0
    9.5627   -3.6863  -11.1721 C   0  0  0  0  0  0  0  0  0  0  0  0
   10.6482   -2.8501  -10.5799 C   0  0  0  0  0  0  0  0  0  0  0  0
   11.4151   -3.8181   -9.7160 C   0  0  1  0  0  0  0  0  0  0  0  0
   10.9575   -3.9020   -8.3202 C   0  0  0  0  0  0  0  0  0  0  0  0
    9.9632   -4.6543   -8.0902 O   0  0  0  0  0  0  0  0  0  0  0  0
   11.5128   -3.2225   -7.2147 N   0  0  0  0  0  0  0  0  0  0  0  0
   11.1598   -3.5895   -5.8364 C   0  0  1  0  0  0  0  0  0  0  0  0
   12.3331   -3.8857   -4.9842 C   0  0  0  0  0  0  0  0  0  0  0  0
   13.3951   -2.8813   -4.9390 C   0  0  0  0  0  0  0  0  0  0  0  0
   14.3558   -2.7740   -5.9353 C   0  0  0  0  0  0  0  0  0  0  0  0
   15.3184   -1.8076   -5.8038 C   0  0  0  0  0  0  0  0  0  0  0  0
   15.3420   -0.9416   -4.6971 C   0  0  0  0  0  0  0  0  0  0  0  0
   14.3908   -1.0389   -3.7027 C   0  0  0  0  0  0  0  0  0  0  0  0
   13.4335   -2.0153   -3.8455 C   0  0  0  0  0  0  0  0  0  0  0  0
   10.4269   -2.4004   -5.2404 C   0  0  0  0  0  0  0  0  0  0  0  0
    9.8232   -2.5319   -4.1281 O   0  0  0  0  0  0  0  0  0  0  0  0
   10.3675   -1.1645   -5.8286 O   0  0  0  0  0  0  0  0  0  0  0  0
  2  1  1  1
  3  2  1  0
  4  3  1  0
  5  4  2  0
  6  5  1  0
  7  6  1  0
  7 12  2  0
  8  9  2  0
  8  7  1  0
  9 10  1  0
 10 11  2  0
 12 11  1  0
 12  4  1  0
 13  2  1  0
 13 14  2  0
 15 13  1  0
 16 15  1  0
 17 18  1  0
 17 16  1  0
 19 18  1  0
 19 15  1  0
 19 20  1  1
 21 20  2  0
 22 20  1  0
 23 22  1  0
 23 24  1  1
 24 25  1  0
 25 26  2  0
 26 27  1  0
 28 27  2  0
 29 28  1  0
 30 29  2  0
 30 25  1  0
 31 33  1  0
 31 23  1  0
 32 31  2  0
M  END
$$$$
