WPF.pdb
     RDKit          3D

 33 36  0  0  1  0  0  0  0  0999 V2000
   26.1535  -22.1206  -17.1974 N   0  0  0  0  0  0  0  0  0  0  0  0
   25.6972  -21.4825  -16.0258 C   0  0  1  0  0  0  0  0  0  0  0  0
   24.2145  -21.7210  -15.8167 C   0  0  0  0  0  0  0  0  0  0  0  0
   23.4858  -20.6196  -15.2014 C   0  0  0  0  0  0  0  0  0  0  0  0
   23.2824  -19.3599  -15.7673 C   0  0  0  0  0  0  0  0  0  0  0  0
   22.6009  -18.6135  -14.8923 N   0  0  0  0  0  0  0  0  0  0  0  0
   22.3356  -19.3118  -13.7583 C   0  0  0  0  0  0  0  0  0  0  0  0
   21.6697  -18.9922  -12.5880 C   0  0  0  0  0  0  0  0  0  0  0  0
   21.5464  -19.9357  -11.5884 C   0  0  0  0  0  0  0  0  0  0  0  0
   22.0820  -21.2039  -11.7403 C   0  0  0  0  0  0  0  0  0  0  0  0
   22.7461  -21.4868  -12.9300 C   0  0  0  0  0  0  0  0  0  0  0  0
   22.8926  -20.5777  -13.9527 C   0  0  0  0  0  0  0  0  0  0  0  0
   26.4688  -21.7405  -14.7870 C   0  0  0  0  0  0  0  0  0  0  0  0
   26.5992  -23.0093  -14.5279 O   0  0  0  0  0  0  0  0  0  0  0  0
   27.0206  -20.7767  -13.9501 N   0  0  0  0  0  0  0  0  0  0  0  0
   26.7950  -19.3237  -14.1574 C   0  0  0  0  0  0  0  0  0  0  0  0
   28.2460  -18.8541  -14.0711 C   0  0  0  0  0  0  0  0  0  0  0  0
   28.9378  -19.7990  -13.1455 C   0  0  0  0  0  0  0  0  0  0  0  0
   27.8726  -20.8084  -12.8021 C   0  0  1  0  0  0  0  0  0  0  0  0
   27.0791  -20.4911  -11.6045 C   0  0  0  0  0  0  0  0  0  0  0  0
   25.9600  -19.9263  -11.7950 O   0  0  0  0  0  0  0  0  0  0  0  0
   27.4447  -20.7478  -10.2656 N   0  0  0  0  0  0  0  0  0  0  0  0
   26.5339  -21.4413   -9.3445 C   0  0  1  0  0  0  0  0  0  0  0  0
   27.1777  -21.8592   -8.0790 C   0  0  0  0  0  0  0  0  0  0  0  0
   27.7984  -20.8118   -7.2690 C   0  0  0  0  0  0  0  0  0  0  0  0
   27.2094  -19.5676   -7.0895 C   0  0  0  0  0  0  0  0  0  0  0  0
   27.8689  -18.6450   -6.3205 C   0  0  0  0  0  0  0  0  0  0  0  0
   29.1066  -18.9385   -5.7227 C   0  0  0  0  0  0  0  0  0  0  0  0
   29.6994  -20.1724   -5.8934 C   0  0  0  0  0  0  0  0  0  0  0  0
   29.0285  -21.0870   -6.6705 C   0  0  0  0  0  0  0  0  0  0  0  0
   25.4198  -20.4644   -9.0117 C   0  0  0  0  0  0  0  0  0  0  0  0
   25.6081  -19.2184   -9.1878 O   0  0  0  0  0  0  0  0  0  0  0  0
   24.1952  -20.8372   -8.5235 O   0  0  0  0  0  0  0  0  0  0  0  0
  2  1  1  6
  3  2  1  0
  4  3  1  0
  5  4  2  0
  6  5  1  0
  7  6  1  0
  7 12  2  0
  8  9  2  0
  8  7  1  0
  9 10  1  0
 10 11  2  0
 12 11  1  0
 12  4  1  0
 13  2  1  0
 13 14  2  0
 15 13  1  0
 16 15  1  0
 17 18  1  0
 17 16  1  0
 19 18  1  0
 19 15  1  0
 19 20  1  1
 21 20  2  0
 22 20  1  0
 23 22  1  0
 23 24  1  1
 24 25  1  0
 25 26  2  0
 26 27  1  0
 28 27  2  0
 29 28  1  0
 30 29  2  0
 30 25  1  0
 31 33  1  0
 31 23  1  0
 32 31  2  0
M  END
$$$$
