WPF.pdb
     RDKit          3D

 33 36  0  0  1  0  0  0  0  0999 V2000
   27.6163  -19.7831  -12.9572 N   0  0  0  0  0  0  0  0  0  0  0  0
   26.7330  -20.8637  -12.7567 C   0  0  1  0  0  0  0  0  0  0  0  0
   26.4415  -21.0637  -11.2823 C   0  0  0  0  0  0  0  0  0  0  0  0
   27.5963  -20.9688  -10.3992 C   0  0  0  0  0  0  0  0  0  0  0  0
   28.9057  -21.3232  -10.7287 C   0  0  0  0  0  0  0  0  0  0  0  0
   29.6752  -21.1269   -9.6533 N   0  0  0  0  0  0  0  0  0  0  0  0
   28.9442  -20.6571   -8.6097 C   0  0  0  0  0  0  0  0  0  0  0  0
   29.2720  -20.3014   -7.3131 C   0  0  0  0  0  0  0  0  0  0  0  0
   28.2922  -19.8350   -6.4605 C   0  0  0  0  0  0  0  0  0  0  0  0
   26.9794  -19.7172   -6.8857 C   0  0  0  0  0  0  0  0  0  0  0  0
   26.6886  -20.0866   -8.1954 C   0  0  0  0  0  0  0  0  0  0  0  0
   27.6329  -20.5561   -9.0796 C   0  0  0  0  0  0  0  0  0  0  0  0
   25.4881  -20.8603  -13.5610 C   0  0  0  0  0  0  0  0  0  0  0  0
   24.9815  -19.6699  -13.7029 O   0  0  0  0  0  0  0  0  0  0  0  0
   24.8778  -21.9725  -14.1303 N   0  0  0  0  0  0  0  0  0  0  0  0
   25.3479  -23.3563  -13.8672 C   0  0  0  0  0  0  0  0  0  0  0  0
   25.4218  -23.8494  -15.3111 C   0  0  0  0  0  0  0  0  0  0  0  0
   24.3666  -23.1069  -16.0618 C   0  0  0  0  0  0  0  0  0  0  0  0
   23.7866  -22.1707  -15.0330 C   0  0  1  0  0  0  0  0  0  0  0  0
   22.6354  -22.7031  -14.2874 C   0  0  0  0  0  0  0  0  0  0  0  0
   22.8679  -23.6548  -13.4825 O   0  0  0  0  0  0  0  0  0  0  0  0
   21.2980  -22.2628  -14.3856 N   0  0  0  0  0  0  0  0  0  0  0  0
   20.3478  -22.4537  -13.2813 C   0  0  1  0  0  0  0  0  0  0  0  0
   20.6026  -21.5693  -12.1222 C   0  0  0  0  0  0  0  0  0  0  0  0
   20.5774  -20.1275  -12.3654 C   0  0  0  0  0  0  0  0  0  0  0  0
   21.6954  -19.4305  -12.8027 C   0  0  0  0  0  0  0  0  0  0  0  0
   21.5802  -18.0787  -12.9953 C   0  0  0  0  0  0  0  0  0  0  0  0
   20.3688  -17.4052  -12.7622 C   0  0  0  0  0  0  0  0  0  0  0  0
   19.2516  -18.0889  -12.3292 C   0  0  0  0  0  0  0  0  0  0  0  0
   19.3826  -19.4439  -12.1365 C   0  0  0  0  0  0  0  0  0  0  0  0
   18.9683  -22.1336  -13.8299 C   0  0  0  0  0  0  0  0  0  0  0  0
   18.8642  -21.5203  -14.9399 O   0  0  0  0  0  0  0  0  0  0  0  0
   17.7979  -22.4664  -13.2004 O   0  0  0  0  0  0  0  0  0  0  0  0
  2  1  1  1
  3  2  1  0
  4  3  1  0
  5  4  2  0
  6  5  1  0
  7  6  1  0
  7 12  2  0
  8  9  2  0
  8  7  1  0
  9 10  1  0
 10 11  2  0
 12 11  1  0
 12  4  1  0
 13  2  1  0
 13 14  2  0
 15 13  1  0
 16 15  1  0
 17 18  1  0
 17 16  1  0
 19 18  1  0
 19 15  1  0
 19 20  1  1
 21 20  2  0
 22 20  1  0
 23 22  1  0
 23 24  1  1
 24 25  1  0
 25 26  2  0
 26 27  1  0
 28 27  2  0
 29 28  1  0
 30 29  2  0
 30 25  1  0
 31 33  1  0
 31 23  1  0
 32 31  2  0
M  END
$$$$
