GYT.pdb
     RDKit          3D

 24 24  0  0  1  0  0  0  0  0999 V2000
   24.0125  -13.0784  -18.8057 N   0  0  0  0  0  0  0  0  0  0  0  0
   23.3053  -11.9026  -19.2721 C   0  0  0  0  0  0  0  0  0  0  0  0
   23.8069  -10.6804  -18.5720 C   0  0  0  0  0  0  0  0  0  0  0  0
   25.0162  -10.5530  -18.3150 O   0  0  0  0  0  0  0  0  0  0  0  0
   25.4759   -2.4626  -17.2621 O   0  0  0  0  0  0  0  0  0  0  0  0
   25.1382   -3.7601  -17.6294 C   0  0  0  0  0  0  0  0  0  0  0  0
   25.8158   -4.8368  -17.0583 C   0  0  0  0  0  0  0  0  0  0  0  0
   25.4546   -6.1106  -17.4461 C   0  0  0  0  0  0  0  0  0  0  0  0
   24.4503   -6.2991  -18.3732 C   0  0  0  0  0  0  0  0  0  0  0  0
   24.0811   -7.6773  -18.7731 C   0  0  0  0  0  0  0  0  0  0  0  0
   23.2936   -8.3779  -17.6820 C   0  0  2  0  0  0  0  0  0  0  0  0
   22.8970   -9.6683  -18.2032 N   0  0  0  0  0  0  0  0  0  0  0  0
   22.1126   -7.5740  -17.2741 C   0  0  0  0  0  0  0  0  0  0  0  0
   21.1936   -7.2685  -18.0982 O   0  0  0  0  0  0  0  0  0  0  0  0
   23.7705   -5.2361  -18.9470 C   0  0  0  0  0  0  0  0  0  0  0  0
   24.1358   -3.9633  -18.5555 C   0  0  0  0  0  0  0  0  0  0  0  0
   19.7577   -8.2995  -14.4978 C   0  0  0  0  0  0  0  0  0  0  0  0
   20.3018   -6.9128  -14.2451 C   0  0  1  0  0  0  0  0  0  0  0  0
   21.3681   -7.0502  -13.3572 O   0  0  0  0  0  0  0  0  0  0  0  0
   20.8617   -6.2836  -15.5104 C   0  0  2  0  0  0  0  0  0  0  0  0
   21.9512   -7.1088  -15.9506 N   0  0  0  0  0  0  0  0  0  0  0  0
   21.2871   -4.8865  -15.2307 C   0  0  0  0  0  0  0  0  0  0  0  0
   22.4814   -4.5573  -15.2282 O   0  0  0  0  0  0  0  0  0  0  0  0
   20.3152   -3.9414  -14.9686 O   0  0  0  0  0  0  0  0  0  0  0  0
  1  2  1  0
  2  3  1  0
  3  4  2  0
  6  5  1  0
  6  7  2  0
  8  7  1  0
  9 10  1  0
  9  8  2  0
 11 10  1  6
 11 13  1  0
 12 11  1  0
 12  3  1  0
 13 14  2  0
 15 16  2  0
 15  9  1  0
 16  6  1  0
 18 17  1  6
 18 20  1  0
 19 18  1  0
 20 22  1  0
 21 13  1  0
 20 21  1  1
 22 23  2  0
 22 24  1  0
M  END
$$$$
