GYT.pdb
     RDKit          3D

 24 24  0  0  1  0  0  0  0  0999 V2000
   29.4257  -23.0920  -16.5014 N   0  0  0  0  0  0  0  0  0  0  0  0
   28.0624  -23.5464  -16.3147 C   0  0  0  0  0  0  0  0  0  0  0  0
   27.2099  -22.4362  -15.7891 C   0  0  0  0  0  0  0  0  0  0  0  0
   27.7261  -21.3721  -15.4069 O   0  0  0  0  0  0  0  0  0  0  0  0
   26.1604  -18.3457  -20.5778 O   0  0  0  0  0  0  0  0  0  0  0  0
   25.6040  -19.1011  -19.5519 C   0  0  0  0  0  0  0  0  0  0  0  0
   25.7212  -20.4905  -19.5772 C   0  0  0  0  0  0  0  0  0  0  0  0
   25.1570  -21.2084  -18.5429 C   0  0  0  0  0  0  0  0  0  0  0  0
   24.4988  -20.5577  -17.5197 C   0  0  0  0  0  0  0  0  0  0  0  0
   23.9015  -21.3517  -16.4204 C   0  0  0  0  0  0  0  0  0  0  0  0
   24.8937  -21.5718  -15.2942 C   0  0  2  0  0  0  0  0  0  0  0  0
   25.8111  -22.6031  -15.7288 N   0  0  0  0  0  0  0  0  0  0  0  0
   24.2007  -21.9596  -14.0385 C   0  0  0  0  0  0  0  0  0  0  0  0
   23.6650  -23.1040  -13.8953 O   0  0  0  0  0  0  0  0  0  0  0  0
   24.3766  -19.1774  -17.4848 C   0  0  0  0  0  0  0  0  0  0  0  0
   24.9430  -18.4635  -18.5223 C   0  0  0  0  0  0  0  0  0  0  0  0
   25.6884  -21.4624  -10.5467 C   0  0  0  0  0  0  0  0  0  0  0  0
   24.3174  -20.8285  -10.5828 C   0  0  1  0  0  0  0  0  0  0  0  0
   24.5023  -19.4762  -10.8678 O   0  0  0  0  0  0  0  0  0  0  0  0
   23.4575  -21.3992  -11.6988 C   0  0  2  0  0  0  0  0  0  0  0  0
   24.1020  -21.0768  -12.9407 N   0  0  0  0  0  0  0  0  0  0  0  0
   22.0836  -20.8372  -11.6116 C   0  0  0  0  0  0  0  0  0  0  0  0
   21.6369  -20.0713  -12.4768 O   0  0  0  0  0  0  0  0  0  0  0  0
   21.2957  -21.1865  -10.5329 O   0  0  0  0  0  0  0  0  0  0  0  0
  1  2  1  0
  2  3  1  0
  3  4  2  0
  6  5  1  0
  6  7  2  0
  8  7  1  0
  9 10  1  0
  9  8  2  0
 11 10  1  6
 11 13  1  0
 12 11  1  0
 12  3  1  0
 13 14  2  0
 15 16  2  0
 15  9  1  0
 16  6  1  0
 18 17  1  6
 18 20  1  0
 19 18  1  0
 20 22  1  0
 21 13  1  0
 20 21  1  6
 22 23  2  0
 22 24  1  0
M  END
$$$$
