GYT.pdb
     RDKit          3D

 24 24  0  0  1  0  0  0  0  0999 V2000
   28.6083  -20.7537  -16.7469 N   0  0  0  0  0  0  0  0  0  0  0  0
   27.8591  -19.7301  -16.0461 C   0  0  0  0  0  0  0  0  0  0  0  0
   26.4056  -20.0791  -16.0115 C   0  0  0  0  0  0  0  0  0  0  0  0
   25.9281  -20.8722  -16.8408 O   0  0  0  0  0  0  0  0  0  0  0  0
   25.7383  -25.1620  -11.7894 O   0  0  0  0  0  0  0  0  0  0  0  0
   25.2964  -23.9055  -12.1876 C   0  0  0  0  0  0  0  0  0  0  0  0
   24.5935  -23.7692  -13.3844 C   0  0  0  0  0  0  0  0  0  0  0  0
   24.1702  -22.5076  -13.7484 C   0  0  0  0  0  0  0  0  0  0  0  0
   24.4411  -21.4212  -12.9424 C   0  0  0  0  0  0  0  0  0  0  0  0
   23.9753  -20.0766  -13.3558 C   0  0  0  0  0  0  0  0  0  0  0  0
   24.1840  -19.8512  -14.8413 C   0  0  2  0  0  0  0  0  0  0  0  0
   25.5755  -19.5014  -15.0289 N   0  0  0  0  0  0  0  0  0  0  0  0
   23.2853  -18.7840  -15.3521 C   0  0  0  0  0  0  0  0  0  0  0  0
   23.3647  -17.5853  -14.9353 O   0  0  0  0  0  0  0  0  0  0  0  0
   25.1387  -21.5455  -11.7510 C   0  0  0  0  0  0  0  0  0  0  0  0
   25.5603  -22.8102  -11.3912 C   0  0  0  0  0  0  0  0  0  0  0  0
   22.8891  -17.4670  -18.8035 C   0  0  0  0  0  0  0  0  0  0  0  0
   21.5734  -18.0730  -18.3744 C   0  0  1  0  0  0  0  0  0  0  0  0
   21.5966  -19.4118  -18.7635 O   0  0  0  0  0  0  0  0  0  0  0  0
   21.4071  -18.0572  -16.8636 C   0  0  2  0  0  0  0  0  0  0  0  0
   22.2975  -19.0473  -16.3265 N   0  0  0  0  0  0  0  0  0  0  0  0
   19.9870  -18.3228  -16.5119 C   0  0  0  0  0  0  0  0  0  0  0  0
   19.6464  -19.3498  -15.9085 O   0  0  0  0  0  0  0  0  0  0  0  0
   19.0331  -17.3922  -16.8732 O   0  0  0  0  0  0  0  0  0  0  0  0
  1  2  1  0
  2  3  1  0
  3  4  2  0
  6  5  1  0
  6  7  2  0
  8  7  1  0
  9 10  1  0
  9  8  2  0
 11 10  1  1
 11 13  1  0
 12 11  1  0
 12  3  1  0
 13 14  2  0
 15 16  2  0
 15  9  1  0
 16  6  1  0
 18 17  1  1
 18 20  1  0
 19 18  1  0
 20 22  1  0
 21 13  1  0
 20 21  1  1
 22 23  2  0
 22 24  1  0
M  END
$$$$
