GYT.pdb
     RDKit          3D

 24 24  0  0  1  0  0  0  0  0999 V2000
   24.8834  -20.6024  -15.7952 N   0  0  0  0  0  0  0  0  0  0  0  0
   24.0114  -19.9520  -14.8377 C   0  0  0  0  0  0  0  0  0  0  0  0
   23.2394  -18.8543  -15.4970 C   0  0  0  0  0  0  0  0  0  0  0  0
   23.4067  -18.6023  -16.7025 O   0  0  0  0  0  0  0  0  0  0  0  0
   17.4768  -21.7860  -16.5203 O   0  0  0  0  0  0  0  0  0  0  0  0
   18.1303  -20.6530  -16.0492 C   0  0  0  0  0  0  0  0  0  0  0  0
   18.4902  -20.5739  -14.7042 C   0  0  0  0  0  0  0  0  0  0  0  0
   19.1373  -19.4349  -14.2714 C   0  0  0  0  0  0  0  0  0  0  0  0
   19.4141  -18.4116  -15.1543 C   0  0  0  0  0  0  0  0  0  0  0  0
   20.1102  -17.1986  -14.6644 C   0  0  0  0  0  0  0  0  0  0  0  0
   21.4833  -17.0566  -15.2933 C   0  0  2  0  0  0  0  0  0  0  0  0
   22.3163  -18.1030  -14.7408 N   0  0  0  0  0  0  0  0  0  0  0  0
   22.0574  -15.7123  -15.0272 C   0  0  0  0  0  0  0  0  0  0  0  0
   22.0671  -15.2074  -13.8602 O   0  0  0  0  0  0  0  0  0  0  0  0
   19.0609  -18.4799  -16.4930 C   0  0  0  0  0  0  0  0  0  0  0  0
   18.4134  -19.6219  -16.9212 C   0  0  0  0  0  0  0  0  0  0  0  0
   25.4730  -14.3793  -15.3498 C   0  0  0  0  0  0  0  0  0  0  0  0
   24.5948  -13.6223  -16.3185 C   0  0  1  0  0  0  0  0  0  0  0  0
   24.6348  -14.3138  -17.5287 O   0  0  0  0  0  0  0  0  0  0  0  0
   23.1422  -13.6026  -15.8714 C   0  0  2  0  0  0  0  0  0  0  0  0
   22.6211  -14.9276  -16.0571 N   0  0  0  0  0  0  0  0  0  0  0  0
   22.3904  -12.5843  -16.6517 C   0  0  0  0  0  0  0  0  0  0  0  0
   21.5270  -12.9053  -17.4801 O   0  0  0  0  0  0  0  0  0  0  0  0
   22.6719  -11.2497  -16.4376 O   0  0  0  0  0  0  0  0  0  0  0  0
  1  2  1  0
  2  3  1  0
  3  4  2  0
  6  5  1  0
  6  7  2  0
  8  7  1  0
  9 10  1  0
  9  8  2  0
 11 10  1  1
 11 13  1  0
 12 11  1  0
 12  3  1  0
 13 14  2  0
 15 16  2  0
 15  9  1  0
 16  6  1  0
 18 17  1  1
 18 20  1  0
 19 18  1  0
 20 22  1  0
 21 13  1  0
 20 21  1  6
 22 23  2  0
 22 24  1  0
M  END
$$$$
