GYT.pdb
     RDKit          3D

 24 24  0  0  1  0  0  0  0  0999 V2000
   27.8444  -22.1522  -16.7388 N   0  0  0  0  0  0  0  0  0  0  0  0
   27.5647  -20.9760  -15.9398 C   0  0  0  0  0  0  0  0  0  0  0  0
   26.6458  -21.3187  -14.8111 C   0  0  0  0  0  0  0  0  0  0  0  0
   26.3062  -22.4973  -14.6107 O   0  0  0  0  0  0  0  0  0  0  0  0
   30.5844  -21.8312   -9.6582 O   0  0  0  0  0  0  0  0  0  0  0  0
   29.3964  -21.3049  -10.1527 C   0  0  0  0  0  0  0  0  0  0  0  0
   28.2090  -21.5025   -9.4486 C   0  0  0  0  0  0  0  0  0  0  0  0
   27.0492  -20.9662   -9.9686 C   0  0  0  0  0  0  0  0  0  0  0  0
   27.0776  -20.2571  -11.1517 C   0  0  0  0  0  0  0  0  0  0  0  0
   25.8181  -19.6911  -11.6892 C   0  0  0  0  0  0  0  0  0  0  0  0
   25.2869  -20.5201  -12.8432 C   0  0  2  0  0  0  0  0  0  0  0  0
   26.1644  -20.2934  -13.9713 N   0  0  0  0  0  0  0  0  0  0  0  0
   23.8848  -20.1505  -13.1669 C   0  0  0  0  0  0  0  0  0  0  0  0
   23.5635  -18.9646  -13.4950 O   0  0  0  0  0  0  0  0  0  0  0  0
   28.2522  -20.0548  -11.8595 C   0  0  0  0  0  0  0  0  0  0  0  0
   29.4103  -20.5936  -11.3348 C   0  0  0  0  0  0  0  0  0  0  0  0
   21.9423  -21.6922  -15.7984 C   0  0  0  0  0  0  0  0  0  0  0  0
   21.0816  -21.8180  -14.5631 C   0  0  1  0  0  0  0  0  0  0  0  0
   21.3130  -23.0873  -14.0342 O   0  0  0  0  0  0  0  0  0  0  0  0
   21.4780  -20.8162  -13.4908 C   0  0  2  0  0  0  0  0  0  0  0  0
   22.8381  -21.0976  -13.1265 N   0  0  0  0  0  0  0  0  0  0  0  0
   20.5487  -20.9236  -12.3351 C   0  0  0  0  0  0  0  0  0  0  0  0
   19.3691  -20.5530  -12.4110 O   0  0  0  0  0  0  0  0  0  0  0  0
   21.0261  -21.4520  -11.1521 O   0  0  0  0  0  0  0  0  0  0  0  0
  1  2  1  0
  2  3  1  0
  3  4  2  0
  6  5  1  0
  6  7  2  0
  8  7  1  0
  9 10  1  0
  9  8  2  0
 11 10  1  1
 11 13  1  0
 12 11  1  0
 12  3  1  0
 13 14  2  0
 15 16  2  0
 15  9  1  0
 16  6  1  0
 18 17  1  6
 18 20  1  0
 19 18  1  0
 20 22  1  0
 21 13  1  0
 20 21  1  1
 22 23  2  0
 22 24  1  0
M  END
$$$$
