GYT.pdb
     RDKit          3D

 24 24  0  0  1  0  0  0  0  0999 V2000
   21.0907  -19.7428  -10.4371 N   0  0  0  0  0  0  0  0  0  0  0  0
   21.9026  -20.8719  -10.8448 C   0  0  0  0  0  0  0  0  0  0  0  0
   23.2912  -20.4246  -11.1726 C   0  0  0  0  0  0  0  0  0  0  0  0
   23.5284  -19.2276  -11.4085 O   0  0  0  0  0  0  0  0  0  0  0  0
   27.6673  -19.1249   -5.8668 O   0  0  0  0  0  0  0  0  0  0  0  0
   27.4136  -19.8047   -7.0527 C   0  0  0  0  0  0  0  0  0  0  0  0
   28.4779  -20.1959   -7.8644 C   0  0  0  0  0  0  0  0  0  0  0  0
   28.1893  -20.8685   -9.0338 C   0  0  0  0  0  0  0  0  0  0  0  0
   26.8811  -21.1397   -9.3779 C   0  0  0  0  0  0  0  0  0  0  0  0
   26.5975  -21.8637  -10.6394 C   0  0  0  0  0  0  0  0  0  0  0  0
   25.7035  -21.0498  -11.5556 C   0  0  2  0  0  0  0  0  0  0  0  0
   24.3349  -21.3718  -11.2131 N   0  0  0  0  0  0  0  0  0  0  0  0
   25.9872  -21.3477  -12.9832 C   0  0  0  0  0  0  0  0  0  0  0  0
   25.7576  -22.4925  -13.4869 O   0  0  0  0  0  0  0  0  0  0  0  0
   25.8158  -20.7555   -8.5785 C   0  0  0  0  0  0  0  0  0  0  0  0
   26.1100  -20.0825   -7.4092 C   0  0  0  0  0  0  0  0  0  0  0  0
   25.7821  -18.3065  -15.7980 C   0  0  0  0  0  0  0  0  0  0  0  0
   26.9947  -19.2046  -15.8727 C   0  0  1  0  0  0  0  0  0  0  0  0
   27.9918  -18.6059  -15.1036 O   0  0  0  0  0  0  0  0  0  0  0  0
   26.7281  -20.5702  -15.2608 C   0  0  2  0  0  0  0  0  0  0  0  0
   26.5264  -20.3743  -13.8527 N   0  0  0  0  0  0  0  0  0  0  0  0
   27.8683  -21.4805  -15.5479 C   0  0  0  0  0  0  0  0  0  0  0  0
   28.6126  -21.8958  -14.6490 O   0  0  0  0  0  0  0  0  0  0  0  0
   28.0919  -21.8651  -16.8550 O   0  0  0  0  0  0  0  0  0  0  0  0
  1  2  1  0
  2  3  1  0
  3  4  2  0
  6  5  1  0
  6  7  2  0
  8  7  1  0
  9 10  1  0
  9  8  2  0
 11 10  1  1
 11 13  1  0
 12 11  1  0
 12  3  1  0
 13 14  2  0
 15 16  2  0
 15  9  1  0
 16  6  1  0
 18 17  1  1
 18 20  1  0
 19 18  1  0
 20 22  1  0
 21 13  1  0
 20 21  1  1
 22 23  2  0
 22 24  1  0
M  END
$$$$
