GYT.pdb
     RDKit          3D

 24 24  0  0  1  0  0  0  0  0999 V2000
   24.0531  -10.8915  -21.1653 N   0  0  0  0  0  0  0  0  0  0  0  0
   24.6613  -10.1581  -20.0734 C   0  0  0  0  0  0  0  0  0  0  0  0
   23.6098   -9.6224  -19.1552 C   0  0  0  0  0  0  0  0  0  0  0  0
   22.5769   -9.1051  -19.6137 O   0  0  0  0  0  0  0  0  0  0  0  0
   18.8926   -8.7985  -11.8829 O   0  0  0  0  0  0  0  0  0  0  0  0
   19.8766   -9.1384  -12.8043 C   0  0  0  0  0  0  0  0  0  0  0  0
   21.2137   -9.1593  -12.4089 C   0  0  0  0  0  0  0  0  0  0  0  0
   22.1634   -9.5012  -13.3493 C   0  0  0  0  0  0  0  0  0  0  0  0
   21.7872   -9.8111  -14.6401 C   0  0  0  0  0  0  0  0  0  0  0  0
   22.8266  -10.1750  -15.6315 C   0  0  0  0  0  0  0  0  0  0  0  0
   22.8565   -9.1934  -16.7876 C   0  0  2  0  0  0  0  0  0  0  0  0
   23.7966   -9.7076  -17.7602 N   0  0  0  0  0  0  0  0  0  0  0  0
   23.2448   -7.8354  -16.3267 C   0  0  0  0  0  0  0  0  0  0  0  0
   24.4180   -7.5804  -15.9077 O   0  0  0  0  0  0  0  0  0  0  0  0
   20.4612   -9.7934  -15.0436 C   0  0  0  0  0  0  0  0  0  0  0  0
   19.5146   -9.4506  -14.0985 C   0  0  0  0  0  0  0  0  0  0  0  0
   22.9754   -4.5721  -18.1589 C   0  0  0  0  0  0  0  0  0  0  0  0
   22.1719   -4.4495  -16.8853 C   0  0  1  0  0  0  0  0  0  0  0  0
   20.8532   -4.7712  -17.2044 O   0  0  0  0  0  0  0  0  0  0  0  0
   22.6244   -5.4459  -15.8305 C   0  0  2  0  0  0  0  0  0  0  0  0
   22.3303   -6.7592  -16.3308 N   0  0  0  0  0  0  0  0  0  0  0  0
   21.9350   -5.1630  -14.5438 C   0  0  0  0  0  0  0  0  0  0  0  0
   21.0260   -5.8892  -14.1184 O   0  0  0  0  0  0  0  0  0  0  0  0
   22.3283   -4.0588  -13.8140 O   0  0  0  0  0  0  0  0  0  0  0  0
  1  2  1  0
  2  3  1  0
  3  4  2  0
  6  5  1  0
  6  7  2  0
  8  7  1  0
  9 10  1  0
  9  8  2  0
 11 10  1  1
 11 13  1  0
 12 11  1  0
 12  3  1  0
 13 14  2  0
 15 16  2  0
 15  9  1  0
 16  6  1  0
 18 17  1  6
 18 20  1  0
 19 18  1  0
 20 22  1  0
 21 13  1  0
 20 21  1  6
 22 23  2  0
 22 24  1  0
M  END
$$$$
