GYT.pdb
     RDKit          3D

 24 24  0  0  1  0  0  0  0  0999 V2000
   25.9152  -24.8056  -15.7593 N   0  0  0  0  0  0  0  0  0  0  0  0
   25.7748  -23.4143  -15.3789 C   0  0  0  0  0  0  0  0  0  0  0  0
   24.3553  -23.1126  -15.0191 C   0  0  0  0  0  0  0  0  0  0  0  0
   23.4487  -23.9129  -15.3062 O   0  0  0  0  0  0  0  0  0  0  0  0
   17.7950  -19.3145  -10.6595 O   0  0  0  0  0  0  0  0  0  0  0  0
   19.0421  -19.6701  -11.1605 C   0  0  0  0  0  0  0  0  0  0  0  0
   19.4394  -21.0065  -11.1360 C   0  0  0  0  0  0  0  0  0  0  0  0
   20.6834  -21.3232  -11.6416 C   0  0  0  0  0  0  0  0  0  0  0  0
   21.5003  -20.3364  -12.1535 C   0  0  0  0  0  0  0  0  0  0  0  0
   22.8319  -20.7026  -12.6906 C   0  0  0  0  0  0  0  0  0  0  0  0
   22.7099  -21.5217  -13.9615 C   0  0  2  0  0  0  0  0  0  0  0  0
   24.0488  -21.9102  -14.3494 N   0  0  0  0  0  0  0  0  0  0  0  0
   22.0402  -20.7450  -15.0365 C   0  0  0  0  0  0  0  0  0  0  0  0
   22.6201  -19.7783  -15.6249 O   0  0  0  0  0  0  0  0  0  0  0  0
   21.1153  -19.0051  -12.1827 C   0  0  0  0  0  0  0  0  0  0  0  0
   19.8694  -18.6933  -11.6755 C   0  0  0  0  0  0  0  0  0  0  0  0
   18.4709  -20.5098  -18.3950 C   0  0  0  0  0  0  0  0  0  0  0  0
   19.2420  -21.2270  -17.3116 C   0  0  1  0  0  0  0  0  0  0  0  0
   20.2084  -22.0051  -17.9480 O   0  0  0  0  0  0  0  0  0  0  0  0
   19.9846  -20.2574  -16.4067 C   0  0  2  0  0  0  0  0  0  0  0  0
   20.7256  -21.0412  -15.4590 N   0  0  0  0  0  0  0  0  0  0  0  0
   19.0152  -19.3418  -15.7488 C   0  0  0  0  0  0  0  0  0  0  0  0
   18.3107  -19.7120  -14.7994 O   0  0  0  0  0  0  0  0  0  0  0  0
   18.9074  -18.0478  -16.2182 O   0  0  0  0  0  0  0  0  0  0  0  0
  1  2  1  0
  2  3  1  0
  3  4  2  0
  6  5  1  0
  6  7  2  0
  8  7  1  0
  9 10  1  0
  9  8  2  0
 11 10  1  1
 11 13  1  0
 12 11  1  0
 12  3  1  0
 13 14  2  0
 15 16  2  0
 15  9  1  0
 16  6  1  0
 18 17  1  6
 18 20  1  0
 19 18  1  0
 20 22  1  0
 21 13  1  0
 20 21  1  1
 22 23  2  0
 22 24  1  0
M  END
$$$$
