GYT.pdb
     RDKit          3D

 24 24  0  0  1  0  0  0  0  0999 V2000
   24.2359  -25.8798  -15.7034 N   0  0  0  0  0  0  0  0  0  0  0  0
   25.0738  -24.8638  -15.0987 C   0  0  0  0  0  0  0  0  0  0  0  0
   24.2704  -23.6413  -14.7892 C   0  0  0  0  0  0  0  0  0  0  0  0
   23.0413  -23.7206  -14.6226 O   0  0  0  0  0  0  0  0  0  0  0  0
   24.0279  -21.4096   -8.0672 O   0  0  0  0  0  0  0  0  0  0  0  0
   24.2936  -21.1454   -9.4059 C   0  0  0  0  0  0  0  0  0  0  0  0
   23.2884  -20.6214  -10.2180 C   0  0  0  0  0  0  0  0  0  0  0  0
   23.5874  -20.3715  -11.5414 C   0  0  0  0  0  0  0  0  0  0  0  0
   24.8484  -20.6370  -12.0340 C   0  0  0  0  0  0  0  0  0  0  0  0
   25.1443  -20.3598  -13.4592 C   0  0  0  0  0  0  0  0  0  0  0  0
   24.2352  -21.1541  -14.3778 C   0  0  2  0  0  0  0  0  0  0  0  0
   24.9171  -22.3925  -14.6869 N   0  0  0  0  0  0  0  0  0  0  0  0
   23.9200  -20.3887  -15.6116 C   0  0  0  0  0  0  0  0  0  0  0  0
   24.8283  -19.8252  -16.3005 O   0  0  0  0  0  0  0  0  0  0  0  0
   25.8548  -21.1579  -11.2356 C   0  0  0  0  0  0  0  0  0  0  0  0
   25.5505  -21.4062   -9.9118 C   0  0  0  0  0  0  0  0  0  0  0  0
   22.3931  -21.6362  -18.6542 C   0  0  0  0  0  0  0  0  0  0  0  0
   21.4930  -20.5219  -18.1736 C   0  0  1  0  0  0  0  0  0  0  0  0
   20.4988  -21.1108  -17.3932 O   0  0  0  0  0  0  0  0  0  0  0  0
   22.2323  -19.5418  -17.2774 C   0  0  2  0  0  0  0  0  0  0  0  0
   22.5957  -20.2484  -16.0814 N   0  0  0  0  0  0  0  0  0  0  0  0
   21.3669  -18.3652  -16.9986 C   0  0  0  0  0  0  0  0  0  0  0  0
   21.0471  -17.5661  -17.8896 O   0  0  0  0  0  0  0  0  0  0  0  0
   20.9150  -18.1701  -15.7086 O   0  0  0  0  0  0  0  0  0  0  0  0
  1  2  1  0
  2  3  1  0
  3  4  2  0
  6  5  1  0
  6  7  2  0
  8  7  1  0
  9 10  1  0
  9  8  2  0
 11 10  1  1
 11 13  1  0
 12 11  1  0
 12  3  1  0
 13 14  2  0
 15 16  2  0
 15  9  1  0
 16  6  1  0
 18 17  1  1
 18 20  1  0
 19 18  1  0
 20 22  1  0
 21 13  1  0
 20 21  1  1
 22 23  2  0
 22 24  1  0
M  END
$$$$
