GYT.pdb
     RDKit          3D

 24 24  0  0  1  0  0  0  0  0999 V2000
   21.9660  -11.6513  -17.8917 N   0  0  0  0  0  0  0  0  0  0  0  0
   22.6680  -10.5713  -17.2278 C   0  0  0  0  0  0  0  0  0  0  0  0
   21.7075   -9.5053  -16.8075 C   0  0  0  0  0  0  0  0  0  0  0  0
   21.0519   -8.8775  -17.6565 O   0  0  0  0  0  0  0  0  0  0  0  0
   15.8068  -12.0647  -16.1187 O   0  0  0  0  0  0  0  0  0  0  0  0
   16.7910  -11.2562  -15.5616 C   0  0  0  0  0  0  0  0  0  0  0  0
   16.6722   -9.8692  -15.6443 C   0  0  0  0  0  0  0  0  0  0  0  0
   17.6673   -9.0978  -15.0805 C   0  0  0  0  0  0  0  0  0  0  0  0
   18.7432   -9.6943  -14.4560 C   0  0  0  0  0  0  0  0  0  0  0  0
   19.7989   -8.8435  -13.8583 C   0  0  0  0  0  0  0  0  0  0  0  0
   20.6577   -8.1943  -14.9271 C   0  0  2  0  0  0  0  0  0  0  0  0
   21.5484   -9.2145  -15.4370 N   0  0  0  0  0  0  0  0  0  0  0  0
   21.4160   -7.0412  -14.3770 C   0  0  0  0  0  0  0  0  0  0  0  0
   22.0918   -7.1347  -13.3039 O   0  0  0  0  0  0  0  0  0  0  0  0
   18.8711  -11.0718  -14.3682 C   0  0  0  0  0  0  0  0  0  0  0  0
   17.8725  -11.8394  -14.9341 C   0  0  0  0  0  0  0  0  0  0  0  0
   23.7880   -4.8459  -16.4652 C   0  0  0  0  0  0  0  0  0  0  0  0
   22.7654   -3.9696  -15.7804 C   0  0  1  0  0  0  0  0  0  0  0  0
   21.7220   -3.7792  -16.6856 O   0  0  0  0  0  0  0  0  0  0  0  0
   22.1679   -4.6447  -14.5566 C   0  0  2  0  0  0  0  0  0  0  0  0
   21.4244   -5.7830  -15.0183 N   0  0  0  0  0  0  0  0  0  0  0  0
   21.3178   -3.6769  -13.8140 C   0  0  0  0  0  0  0  0  0  0  0  0
   20.0859   -3.7974  -13.7627 O   0  0  0  0  0  0  0  0  0  0  0  0
   21.9304   -2.6208  -13.1691 O   0  0  0  0  0  0  0  0  0  0  0  0
  1  2  1  0
  2  3  1  0
  3  4  2  0
  6  5  1  0
  6  7  2  0
  8  7  1  0
  9 10  1  0
  9  8  2  0
 11 10  1  1
 11 13  1  0
 12 11  1  0
 12  3  1  0
 13 14  2  0
 15 16  2  0
 15  9  1  0
 16  6  1  0
 18 17  1  6
 18 20  1  0
 19 18  1  0
 20 22  1  0
 21 13  1  0
 20 21  1  6
 22 23  2  0
 22 24  1  0
M  END
$$$$
