GYT.pdb
     RDKit          3D

 24 24  0  0  1  0  0  0  0  0999 V2000
   19.8867  -18.7591  -15.8183 N   0  0  0  0  0  0  0  0  0  0  0  0
   20.1768  -19.7332  -14.7852 C   0  0  0  0  0  0  0  0  0  0  0  0
   21.5517  -19.5194  -14.2380 C   0  0  0  0  0  0  0  0  0  0  0  0
   21.9918  -18.3690  -14.0715 O   0  0  0  0  0  0  0  0  0  0  0  0
   27.3444  -20.0212   -8.2528 O   0  0  0  0  0  0  0  0  0  0  0  0
   26.4669  -20.4124   -9.2576 C   0  0  0  0  0  0  0  0  0  0  0  0
   25.1022  -20.1626   -9.1170 C   0  0  0  0  0  0  0  0  0  0  0  0
   24.2607  -20.5644  -10.1336 C   0  0  0  0  0  0  0  0  0  0  0  0
   24.7680  -21.1941  -11.2515 C   0  0  0  0  0  0  0  0  0  0  0  0
   23.8431  -21.6159  -12.3295 C   0  0  0  0  0  0  0  0  0  0  0  0
   23.6952  -20.5369  -13.3855 C   0  0  2  0  0  0  0  0  0  0  0  0
   22.3502  -20.6344  -13.9103 N   0  0  0  0  0  0  0  0  0  0  0  0
   24.7075  -20.6984  -14.4610 C   0  0  0  0  0  0  0  0  0  0  0  0
   24.6361  -21.6408  -15.3118 O   0  0  0  0  0  0  0  0  0  0  0  0
   26.1226  -21.4472  -11.4014 C   0  0  0  0  0  0  0  0  0  0  0  0
   26.9607  -21.0431  -10.3810 C   0  0  0  0  0  0  0  0  0  0  0  0
   26.6352  -17.4303  -16.0926 C   0  0  0  0  0  0  0  0  0  0  0  0
   27.5281  -18.5683  -15.6562 C   0  0  1  0  0  0  0  0  0  0  0  0
   27.9160  -18.3001  -14.3440 O   0  0  0  0  0  0  0  0  0  0  0  0
   26.7864  -19.8948  -15.6328 C   0  0  2  0  0  0  0  0  0  0  0  0
   25.8000  -19.8133  -14.5926 N   0  0  0  0  0  0  0  0  0  0  0  0
   27.7503  -21.0054  -15.4129 C   0  0  0  0  0  0  0  0  0  0  0  0
   27.7644  -21.6566  -14.3591 O   0  0  0  0  0  0  0  0  0  0  0  0
   28.6477  -21.3082  -16.4176 O   0  0  0  0  0  0  0  0  0  0  0  0
  1  2  1  0
  2  3  1  0
  3  4  2  0
  6  5  1  0
  6  7  2  0
  8  7  1  0
  9 10  1  0
  9  8  2  0
 11 10  1  1
 11 13  1  0
 12 11  1  0
 12  3  1  0
 13 14  2  0
 15 16  2  0
 15  9  1  0
 16  6  1  0
 18 17  1  1
 18 20  1  0
 19 18  1  0
 20 22  1  0
 21 13  1  0
 20 21  1  1
 22 23  2  0
 22 24  1  0
M  END
$$$$
