QSF.pdb
     RDKit          3D

 27 27  0  0  1  0  0  0  0  0999 V2000
   30.8156  -24.1393  -15.7350 N   0  0  0  0  0  0  0  0  0  0  0  0
   30.8632  -23.7284  -17.0926 C   0  0  0  0  0  0  0  0  0  0  0  0
   31.3546  -24.5184  -17.9283 O   0  0  0  0  0  0  0  0  0  0  0  0
   30.3541  -22.4245  -17.5036 C   0  0  0  0  0  0  0  0  0  0  0  0
   29.7152  -21.6258  -16.4251 C   0  0  0  0  0  0  0  0  0  0  0  0
   28.3872  -22.1058  -15.9488 C   0  0  2  0  0  0  0  0  0  0  0  0
   27.4691  -22.4066  -17.0241 N   0  0  0  0  0  0  0  0  0  0  0  0
   27.7922  -21.0288  -15.1193 C   0  0  0  0  0  0  0  0  0  0  0  0
   28.1932  -19.8342  -15.1931 O   0  0  0  0  0  0  0  0  0  0  0  0
   24.0438  -20.9015  -14.5761 O   0  0  0  0  0  0  0  0  0  0  0  0
   24.8853  -19.8464  -14.2430 C   0  0  0  0  0  0  0  0  0  0  0  0
   26.0773  -20.3260  -13.4194 C   0  0  2  0  0  0  0  0  0  0  0  0
   26.7568  -21.3197  -14.2230 N   0  0  0  0  0  0  0  0  0  0  0  0
   25.6272  -20.9763  -12.1660 C   0  0  0  0  0  0  0  0  0  0  0  0
   25.5354  -22.2425  -12.1347 O   0  0  0  0  0  0  0  0  0  0  0  0
   25.3057  -20.2021  -11.0264 N   0  0  0  0  0  0  0  0  0  0  0  0
   24.7834  -20.8696   -9.8464 C   0  0  1  0  0  0  0  0  0  0  0  0
   25.1403  -19.9847   -8.6665 C   0  0  0  0  0  0  0  0  0  0  0  0
   26.5559  -20.0135   -8.2990 C   0  0  0  0  0  0  0  0  0  0  0  0
   27.2698  -21.1737   -8.4253 C   0  0  0  0  0  0  0  0  0  0  0  0
   28.6046  -21.1840   -8.0807 C   0  0  0  0  0  0  0  0  0  0  0  0
   29.1911  -20.0333   -7.6184 C   0  0  0  0  0  0  0  0  0  0  0  0
   28.4634  -18.8696   -7.4946 C   0  0  0  0  0  0  0  0  0  0  0  0
   27.1461  -18.8365   -7.8286 C   0  0  0  0  0  0  0  0  0  0  0  0
   23.3267  -20.9904   -9.9734 C   0  0  0  0  0  0  0  0  0  0  0  0
   22.7066  -20.4388  -10.9200 O   0  0  0  0  0  0  0  0  0  0  0  0
   22.5525  -21.7108   -9.0718 O   0  0  0  0  0  0  0  0  0  0  0  0
  1  2  1  0
  2  4  1  0
  2  3  2  0
  4  5  1  0
  6  8  1  0
  6  5  1  0
  6  7  1  6
  8 13  1  0
  9  8  2  0
 10 11  1  0
 12 11  1  6
 12 14  1  0
 13 12  1  0
 14 16  1  0
 14 15  2  0
 16 17  1  0
 17 25  1  0
 18 19  1  0
 17 18  1  1
 19 20  2  0
 19 24  1  0
 20 21  1  0
 21 22  2  0
 23 22  1  0
 24 23  2  0
 25 26  2  0
 25 27  1  0
M  END
$$$$
