QSF.pdb
     RDKit          3D

 27 27  0  0  1  0  0  0  0  0999 V2000
   14.9115  -25.7568   -1.5478 N   0  0  0  0  0  0  0  0  0  0  0  0
   14.9206  -25.5189   -2.9469 C   0  0  0  0  0  0  0  0  0  0  0  0
   14.8900  -26.5086   -3.7109 O   0  0  0  0  0  0  0  0  0  0  0  0
   14.9635  -24.1619   -3.4804 C   0  0  0  0  0  0  0  0  0  0  0  0
   14.8933  -23.0796   -2.4640 C   0  0  0  0  0  0  0  0  0  0  0  0
   13.5269  -22.6635   -2.0386 C   0  0  2  0  0  0  0  0  0  0  0  0
   12.8031  -21.9459   -3.0636 N   0  0  0  0  0  0  0  0  0  0  0  0
   13.6760  -21.7686   -0.8643 C   0  0  0  0  0  0  0  0  0  0  0  0
   14.6193  -20.9341   -0.7796 O   0  0  0  0  0  0  0  0  0  0  0  0
   10.6348  -19.9414    1.5312 O   0  0  0  0  0  0  0  0  0  0  0  0
   11.4078  -21.0093    1.9722 C   0  0  0  0  0  0  0  0  0  0  0  0
   12.8040  -20.9752    1.3570 C   0  0  2  0  0  0  0  0  0  0  0  0
   12.7588  -21.8322    0.1915 N   0  0  0  0  0  0  0  0  0  0  0  0
   13.8095  -21.5268    2.2958 C   0  0  0  0  0  0  0  0  0  0  0  0
   14.0410  -22.7753    2.2772 O   0  0  0  0  0  0  0  0  0  0  0  0
   14.4982  -20.6795    3.1954 N   0  0  0  0  0  0  0  0  0  0  0  0
   15.4671  -21.2612    4.1085 C   0  0  1  0  0  0  0  0  0  0  0  0
   16.7940  -21.2639    3.3725 C   0  0  0  0  0  0  0  0  0  0  0  0
   17.2522  -19.9396    2.9527 C   0  0  0  0  0  0  0  0  0  0  0  0
   17.5033  -18.9759    3.8906 C   0  0  0  0  0  0  0  0  0  0  0  0
   17.9404  -17.7345    3.4803 C   0  0  0  0  0  0  0  0  0  0  0  0
   18.1149  -17.4889    2.1421 C   0  0  0  0  0  0  0  0  0  0  0  0
   17.8590  -18.4662    1.2048 C   0  0  0  0  0  0  0  0  0  0  0  0
   17.4274  -19.6974    1.5869 C   0  0  0  0  0  0  0  0  0  0  0  0
   15.5502  -20.4243    5.3108 C   0  0  0  0  0  0  0  0  0  0  0  0
   16.2601  -20.7634    6.2936 O   0  0  0  0  0  0  0  0  0  0  0  0
   14.8624  -19.2235    5.4377 O   0  0  0  0  0  0  0  0  0  0  0  0
  1  2  1  0
  2  4  1  0
  2  3  2  0
  4  5  1  0
  6  8  1  0
  6  5  1  0
  6  7  1  6
  8 13  1  0
  9  8  2  0
 10 11  1  0
 12 11  1  1
 12 14  1  0
 13 12  1  0
 14 16  1  0
 14 15  2  0
 16 17  1  0
 17 25  1  0
 18 19  1  0
 17 18  1  6
 19 20  2  0
 19 24  1  0
 20 21  1  0
 21 22  2  0
 23 22  1  0
 24 23  2  0
 25 26  2  0
 25 27  1  0
M  END
$$$$
