QSF.pdb
     RDKit          3D

 27 27  0  0  1  0  0  0  0  0999 V2000
   19.4873  -18.6009  -13.1323 N   0  0  0  0  0  0  0  0  0  0  0  0
   19.6611  -19.3771  -14.3076 C   0  0  0  0  0  0  0  0  0  0  0  0
   19.0240  -19.0439  -15.3308 O   0  0  0  0  0  0  0  0  0  0  0  0
   20.5561  -20.5291  -14.3246 C   0  0  0  0  0  0  0  0  0  0  0  0
   21.2592  -20.8033  -13.0440 C   0  0  0  0  0  0  0  0  0  0  0  0
   22.4392  -19.9441  -12.7436 C   0  0  2  0  0  0  0  0  0  0  0  0
   23.2377  -19.6419  -13.9101 N   0  0  0  0  0  0  0  0  0  0  0  0
   23.2924  -20.6765  -11.7754 C   0  0  0  0  0  0  0  0  0  0  0  0
   22.8032  -21.2718  -10.7755 O   0  0  0  0  0  0  0  0  0  0  0  0
   27.4970  -20.6843  -12.3364 O   0  0  0  0  0  0  0  0  0  0  0  0
   26.7968  -21.8159  -11.9344 C   0  0  0  0  0  0  0  0  0  0  0  0
   25.5848  -21.4456  -11.0842 C   0  0  2  0  0  0  0  0  0  0  0  0
   24.6803  -20.7235  -11.9533 N   0  0  0  0  0  0  0  0  0  0  0  0
   25.9731  -20.5450   -9.9730 C   0  0  0  0  0  0  0  0  0  0  0  0
   26.0332  -19.2957  -10.1929 O   0  0  0  0  0  0  0  0  0  0  0  0
   26.2714  -21.0664   -8.6921 N   0  0  0  0  0  0  0  0  0  0  0  0
   26.9795  -20.2294   -7.7388 C   0  0  1  0  0  0  0  0  0  0  0  0
   26.9781  -20.9892   -6.4254 C   0  0  0  0  0  0  0  0  0  0  0  0
   27.8326  -20.4056   -5.3914 C   0  0  0  0  0  0  0  0  0  0  0  0
   29.1646  -20.7153   -5.3525 C   0  0  0  0  0  0  0  0  0  0  0  0
   29.9585  -20.1529   -4.3759 C   0  0  0  0  0  0  0  0  0  0  0  0
   29.3996  -19.2950   -3.4630 C   0  0  0  0  0  0  0  0  0  0  0  0
   28.0567  -18.9893   -3.5104 C   0  0  0  0  0  0  0  0  0  0  0  0
   27.2551  -19.5323   -4.4647 C   0  0  0  0  0  0  0  0  0  0  0  0
   28.3535  -20.0269   -8.2117 C   0  0  0  0  0  0  0  0  0  0  0  0
   28.9661  -18.9490   -7.9937 O   0  0  0  0  0  0  0  0  0  0  0  0
   29.0542  -20.9973   -8.9178 O   0  0  0  0  0  0  0  0  0  0  0  0
  1  2  1  0
  2  4  1  0
  2  3  2  0
  4  5  1  0
  6  8  1  0
  6  5  1  0
  6  7  1  6
  8 13  1  0
  9  8  2  0
 10 11  1  0
 12 11  1  6
 12 14  1  0
 13 12  1  0
 14 16  1  0
 14 15  2  0
 16 17  1  0
 17 25  1  0
 18 19  1  0
 17 18  1  1
 19 20  2  0
 19 24  1  0
 20 21  1  0
 21 22  2  0
 23 22  1  0
 24 23  2  0
 25 26  2  0
 25 27  1  0
M  END
$$$$
