QSF.pdb
     RDKit          3D

 27 27  0  0  1  0  0  0  0  0999 V2000
   26.7538  -17.5898  -17.4558 N   0  0  0  0  0  0  0  0  0  0  0  0
   26.8331  -16.2455  -17.0078 C   0  0  0  0  0  0  0  0  0  0  0  0
   27.4304  -15.4195  -17.7323 O   0  0  0  0  0  0  0  0  0  0  0  0
   26.2359  -15.8367  -15.7411 C   0  0  0  0  0  0  0  0  0  0  0  0
   25.7661  -16.9493  -14.8746 C   0  0  0  0  0  0  0  0  0  0  0  0
   26.7142  -17.4081  -13.8203 C   0  0  2  0  0  0  0  0  0  0  0  0
   27.9872  -17.8451  -14.3475 N   0  0  0  0  0  0  0  0  0  0  0  0
   26.0849  -18.5549  -13.1196 C   0  0  0  0  0  0  0  0  0  0  0  0
   24.8951  -18.5064  -12.7005 O   0  0  0  0  0  0  0  0  0  0  0  0
   26.9100  -21.7507  -14.4127 O   0  0  0  0  0  0  0  0  0  0  0  0
   26.7080  -22.1066  -13.0842 C   0  0  0  0  0  0  0  0  0  0  0  0
   26.2725  -20.9064  -12.2482 C   0  0  2  0  0  0  0  0  0  0  0  0
   26.8091  -19.7336  -12.9050 N   0  0  0  0  0  0  0  0  0  0  0  0
   26.8484  -20.9746  -10.8843 C   0  0  0  0  0  0  0  0  0  0  0  0
   28.1090  -21.0616  -10.7581 O   0  0  0  0  0  0  0  0  0  0  0  0
   26.0106  -20.9436   -9.7447 N   0  0  0  0  0  0  0  0  0  0  0  0
   26.6041  -21.1156   -8.4298 C   0  0  1  0  0  0  0  0  0  0  0  0
   27.5159  -19.9215   -8.2174 C   0  0  0  0  0  0  0  0  0  0  0  0
   28.0873  -19.8319   -6.8737 C   0  0  0  0  0  0  0  0  0  0  0  0
   29.0975  -20.6773   -6.5045 C   0  0  0  0  0  0  0  0  0  0  0  0
   29.6302  -20.5771   -5.2370 C   0  0  0  0  0  0  0  0  0  0  0  0
   29.1384  -19.6337   -4.3710 C   0  0  0  0  0  0  0  0  0  0  0  0
   28.1203  -18.7867   -4.7522 C   0  0  0  0  0  0  0  0  0  0  0  0
   27.5803  -18.8678   -5.9972 C   0  0  0  0  0  0  0  0  0  0  0  0
   25.5362  -21.1297   -7.4237 C   0  0  0  0  0  0  0  0  0  0  0  0
   24.4217  -20.5891   -7.6480 O   0  0  0  0  0  0  0  0  0  0  0  0
   25.6854  -21.7319   -6.1802 O   0  0  0  0  0  0  0  0  0  0  0  0
  1  2  1  0
  2  4  1  0
  2  3  2  0
  4  5  1  0
  6  8  1  0
  6  5  1  0
  6  7  1  6
  8 13  1  0
  9  8  2  0
 10 11  1  0
 12 11  1  6
 12 14  1  0
 13 12  1  0
 14 16  1  0
 14 15  2  0
 16 17  1  0
 17 25  1  0
 18 19  1  0
 17 18  1  1
 19 20  2  0
 19 24  1  0
 20 21  1  0
 21 22  2  0
 23 22  1  0
 24 23  2  0
 25 26  2  0
 25 27  1  0
M  END
$$$$
