QSF.pdb
     RDKit          3D

 27 27  0  0  1  0  0  0  0  0999 V2000
   17.2568  -14.1287  -14.8153 N   0  0  0  0  0  0  0  0  0  0  0  0
   17.1397  -14.1216  -16.2296 C   0  0  0  0  0  0  0  0  0  0  0  0
   16.8756  -15.2015  -16.8023 O   0  0  0  0  0  0  0  0  0  0  0  0
   17.3209  -12.8927  -16.9947 C   0  0  0  0  0  0  0  0  0  0  0  0
   17.6740  -11.6931  -16.1912 C   0  0  0  0  0  0  0  0  0  0  0  0
   16.5520  -11.0324  -15.4664 C   0  0  2  0  0  0  0  0  0  0  0  0
   15.3151  -11.0236  -16.2144 N   0  0  0  0  0  0  0  0  0  0  0  0
   16.9493   -9.6255  -15.2118 C   0  0  0  0  0  0  0  0  0  0  0  0
   17.1304   -8.8049  -16.1537 O   0  0  0  0  0  0  0  0  0  0  0  0
   18.0562   -8.6085  -11.3281 O   0  0  0  0  0  0  0  0  0  0  0  0
   17.3399   -7.6705  -12.0625 C   0  0  0  0  0  0  0  0  0  0  0  0
   17.5804   -7.8371  -13.5603 C   0  0  2  0  0  0  0  0  0  0  0  0
   17.1346   -9.1714  -13.9005 N   0  0  0  0  0  0  0  0  0  0  0  0
   19.0246   -7.7388  -13.8785 C   0  0  0  0  0  0  0  0  0  0  0  0
   19.7180   -8.8025  -13.9014 O   0  0  0  0  0  0  0  0  0  0  0  0
   19.6198   -6.4847  -14.1514 N   0  0  0  0  0  0  0  0  0  0  0  0
   21.0433   -6.4281  -14.4363 C   0  0  1  0  0  0  0  0  0  0  0  0
   21.1672   -6.0603  -15.9032 C   0  0  0  0  0  0  0  0  0  0  0  0
   22.5333   -5.7682  -16.3372 C   0  0  0  0  0  0  0  0  0  0  0  0
   23.4080   -6.7934  -16.5725 C   0  0  0  0  0  0  0  0  0  0  0  0
   24.6904   -6.5029  -16.9869 C   0  0  0  0  0  0  0  0  0  0  0  0
   25.0649   -5.1940  -17.1552 C   0  0  0  0  0  0  0  0  0  0  0  0
   24.1765   -4.1682  -16.9154 C   0  0  0  0  0  0  0  0  0  0  0  0
   22.9071   -4.4316  -16.5062 C   0  0  0  0  0  0  0  0  0  0  0  0
   21.6563   -5.3937  -13.5956 C   0  0  0  0  0  0  0  0  0  0  0  0
   22.8657   -5.4636  -13.2533 O   0  0  0  0  0  0  0  0  0  0  0  0
   20.9519   -4.2889  -13.1326 O   0  0  0  0  0  0  0  0  0  0  0  0
  1  2  1  0
  2  4  1  0
  2  3  2  0
  4  5  1  0
  6  8  1  0
  6  5  1  0
  6  7  1  6
  8 13  1  0
  9  8  2  0
 10 11  1  0
 12 11  1  1
 12 14  1  0
 13 12  1  0
 14 16  1  0
 14 15  2  0
 16 17  1  0
 17 25  1  0
 18 19  1  0
 17 18  1  6
 19 20  2  0
 19 24  1  0
 20 21  1  0
 21 22  2  0
 23 22  1  0
 24 23  2  0
 25 26  2  0
 25 27  1  0
M  END
$$$$
