QSF.pdb
     RDKit          3D

 27 27  0  0  1  0  0  0  0  0999 V2000
   25.8360  -16.8206  -14.2352 N   0  0  0  0  0  0  0  0  0  0  0  0
   25.8257  -16.6244  -15.6407 C   0  0  0  0  0  0  0  0  0  0  0  0
   24.8483  -16.0275  -16.1430 O   0  0  0  0  0  0  0  0  0  0  0  0
   26.9214  -17.1031  -16.4765 C   0  0  0  0  0  0  0  0  0  0  0  0
   28.0322  -17.7666  -15.7450 C   0  0  0  0  0  0  0  0  0  0  0  0
   28.3028  -19.1869  -16.1063 C   0  0  2  0  0  0  0  0  0  0  0  0
   27.5451  -19.6395  -17.2512 N   0  0  0  0  0  0  0  0  0  0  0  0
   27.9269  -20.0254  -14.9412 C   0  0  0  0  0  0  0  0  0  0  0  0
   26.8157  -20.6214  -14.8817 O   0  0  0  0  0  0  0  0  0  0  0  0
   30.4123  -20.1999  -11.4069 O   0  0  0  0  0  0  0  0  0  0  0  0
   29.8898  -21.3055  -12.0681 C   0  0  0  0  0  0  0  0  0  0  0  0
   28.5373  -20.9867  -12.6990 C   0  0  2  0  0  0  0  0  0  0  0  0
   28.8109  -20.1756  -13.8661 N   0  0  0  0  0  0  0  0  0  0  0  0
   27.6955  -20.1925  -11.7731 C   0  0  0  0  0  0  0  0  0  0  0  0
   27.6807  -18.9285  -11.8944 O   0  0  0  0  0  0  0  0  0  0  0  0
   26.9233  -20.8296  -10.7734 N   0  0  0  0  0  0  0  0  0  0  0  0
   26.2017  -20.0119   -9.8135 C   0  0  1  0  0  0  0  0  0  0  0  0
   25.1771  -19.2271  -10.6114 C   0  0  0  0  0  0  0  0  0  0  0  0
   24.1576  -20.0525  -11.2587 C   0  0  0  0  0  0  0  0  0  0  0  0
   22.9351  -20.2157  -10.6666 C   0  0  0  0  0  0  0  0  0  0  0  0
   21.9823  -20.9915  -11.2915 C   0  0  0  0  0  0  0  0  0  0  0  0
   22.2768  -21.5846  -12.4928 C   0  0  0  0  0  0  0  0  0  0  0  0
   23.5112  -21.4145  -13.0813 C   0  0  0  0  0  0  0  0  0  0  0  0
   24.4657  -20.6536  -12.4829 C   0  0  0  0  0  0  0  0  0  0  0  0
   25.5340  -20.8904   -8.8466 C   0  0  0  0  0  0  0  0  0  0  0  0
   25.6039  -22.1434   -8.9471 O   0  0  0  0  0  0  0  0  0  0  0  0
   24.7950  -20.4024   -7.7756 O   0  0  0  0  0  0  0  0  0  0  0  0
  1  2  1  0
  2  4  1  0
  2  3  2  0
  4  5  1  0
  6  8  1  0
  6  5  1  0
  6  7  1  6
  8 13  1  0
  9  8  2  0
 10 11  1  0
 12 11  1  1
 12 14  1  0
 13 12  1  0
 14 16  1  0
 14 15  2  0
 16 17  1  0
 17 25  1  0
 18 19  1  0
 17 18  1  6
 19 20  2  0
 19 24  1  0
 20 21  1  0
 21 22  2  0
 23 22  1  0
 24 23  2  0
 25 26  2  0
 25 27  1  0
M  END
$$$$
