QSF.pdb
     RDKit          3D

 27 27  0  0  1  0  0  0  0  0999 V2000
   26.3106  -13.6942  -15.6360 N   0  0  0  0  0  0  0  0  0  0  0  0
   26.1947  -14.6659  -16.6638 C   0  0  0  0  0  0  0  0  0  0  0  0
   26.7973  -15.7517  -16.5160 O   0  0  0  0  0  0  0  0  0  0  0  0
   25.3966  -14.4086  -17.8576 C   0  0  0  0  0  0  0  0  0  0  0  0
   24.6893  -13.1014  -17.8766 C   0  0  0  0  0  0  0  0  0  0  0  0
   23.2041  -13.1579  -17.9853 C   0  0  2  0  0  0  0  0  0  0  0  0
   22.7438  -13.7571  -19.2177 N   0  0  0  0  0  0  0  0  0  0  0  0
   22.6971  -11.7643  -17.9303 C   0  0  0  0  0  0  0  0  0  0  0  0
   23.3935  -10.7874  -18.3227 O   0  0  0  0  0  0  0  0  0  0  0  0
   18.6960  -11.2499  -16.9927 O   0  0  0  0  0  0  0  0  0  0  0  0
   19.3629  -10.3539  -17.8202 C   0  0  0  0  0  0  0  0  0  0  0  0
   20.8179  -10.1818  -17.3934 C   0  0  2  0  0  0  0  0  0  0  0  0
   21.4151  -11.4996  -17.4340 N   0  0  0  0  0  0  0  0  0  0  0  0
   20.9053   -9.6790  -16.0020 C   0  0  0  0  0  0  0  0  0  0  0  0
   20.8512  -10.5144  -15.0470 O   0  0  0  0  0  0  0  0  0  0  0  0
   21.0461   -8.2954  -15.7420 N   0  0  0  0  0  0  0  0  0  0  0  0
   21.0173   -7.8314  -14.3656 C   0  0  1  0  0  0  0  0  0  0  0  0
   22.4657   -7.6819  -13.9387 C   0  0  0  0  0  0  0  0  0  0  0  0
   23.2647   -6.8217  -14.8114 C   0  0  0  0  0  0  0  0  0  0  0  0
   23.1884   -5.4617  -14.6839 C   0  0  0  0  0  0  0  0  0  0  0  0
   23.9519   -4.6641  -15.5093 C   0  0  0  0  0  0  0  0  0  0  0  0
   24.7721   -5.2473  -16.4414 C   0  0  0  0  0  0  0  0  0  0  0  0
   24.8418   -6.6183  -16.5623 C   0  0  0  0  0  0  0  0  0  0  0  0
   24.0980   -7.4241  -15.7588 C   0  0  0  0  0  0  0  0  0  0  0  0
   20.3322   -6.5350  -14.3146 C   0  0  0  0  0  0  0  0  0  0  0  0
   20.1253   -5.9493  -13.2196 O   0  0  0  0  0  0  0  0  0  0  0  0
   19.8768   -5.8821  -15.4537 O   0  0  0  0  0  0  0  0  0  0  0  0
  1  2  1  0
  2  4  1  0
  2  3  2  0
  4  5  1  0
  6  8  1  0
  6  5  1  0
  6  7  1  6
  8 13  1  0
  9  8  2  0
 10 11  1  0
 12 11  1  1
 12 14  1  0
 13 12  1  0
 14 16  1  0
 14 15  2  0
 16 17  1  0
 17 25  1  0
 18 19  1  0
 17 18  1  6
 19 20  2  0
 19 24  1  0
 20 21  1  0
 21 22  2  0
 23 22  1  0
 24 23  2  0
 25 26  2  0
 25 27  1  0
M  END
$$$$
