QSF.pdb
     RDKit          3D

 27 27  0  0  1  0  0  0  0  0999 V2000
   17.2023  -13.9619  -13.1645 N   0  0  0  0  0  0  0  0  0  0  0  0
   16.8588  -14.2769  -14.5049 C   0  0  0  0  0  0  0  0  0  0  0  0
   16.5415  -15.4577  -14.7677 O   0  0  0  0  0  0  0  0  0  0  0  0
   16.8738  -13.2558  -15.5467 C   0  0  0  0  0  0  0  0  0  0  0  0
   17.2525  -11.8924  -15.0912 C   0  0  0  0  0  0  0  0  0  0  0  0
   17.4256  -10.8663  -16.1580 C   0  0  2  0  0  0  0  0  0  0  0  0
   18.4649  -11.1978  -17.1065 N   0  0  0  0  0  0  0  0  0  0  0  0
   17.7921   -9.5894  -15.4967 C   0  0  0  0  0  0  0  0  0  0  0  0
   18.9953   -9.2340  -15.3578 O   0  0  0  0  0  0  0  0  0  0  0  0
   14.6884   -7.2511  -14.0076 O   0  0  0  0  0  0  0  0  0  0  0  0
   15.7679   -6.6243  -14.6193 C   0  0  0  0  0  0  0  0  0  0  0  0
   17.0515   -7.4304  -14.4413 C   0  0  2  0  0  0  0  0  0  0  0  0
   16.7950   -8.7385  -15.0051 N   0  0  0  0  0  0  0  0  0  0  0  0
   17.3730   -7.6028  -13.0048 C   0  0  0  0  0  0  0  0  0  0  0  0
   16.9397   -8.6333  -12.4022 O   0  0  0  0  0  0  0  0  0  0  0  0
   18.1475   -6.6387  -12.3177 N   0  0  0  0  0  0  0  0  0  0  0  0
   18.3587   -6.7937  -10.8887 C   0  0  1  0  0  0  0  0  0  0  0  0
   19.8471   -7.0230  -10.7030 C   0  0  0  0  0  0  0  0  0  0  0  0
   20.6768   -6.4984  -11.7876 C   0  0  0  0  0  0  0  0  0  0  0  0
   21.3988   -7.3572  -12.5705 C   0  0  0  0  0  0  0  0  0  0  0  0
   22.1715   -6.8486  -13.5926 C   0  0  0  0  0  0  0  0  0  0  0  0
   22.2024   -5.4938  -13.8053 C   0  0  0  0  0  0  0  0  0  0  0  0
   21.4717   -4.6368  -13.0111 C   0  0  0  0  0  0  0  0  0  0  0  0
   20.7029   -5.1164  -11.9976 C   0  0  0  0  0  0  0  0  0  0  0  0
   17.9419   -5.5618  -10.2094 C   0  0  0  0  0  0  0  0  0  0  0  0
   17.9439   -5.4770   -8.9534 O   0  0  0  0  0  0  0  0  0  0  0  0
   17.5262   -4.4291  -10.8989 O   0  0  0  0  0  0  0  0  0  0  0  0
  1  2  1  0
  2  4  1  0
  2  3  2  0
  4  5  1  0
  6  8  1  0
  6  5  1  0
  6  7  1  6
  8 13  1  0
  9  8  2  0
 10 11  1  0
 12 11  1  1
 12 14  1  0
 13 12  1  0
 14 16  1  0
 14 15  2  0
 16 17  1  0
 17 25  1  0
 18 19  1  0
 17 18  1  6
 19 20  2  0
 19 24  1  0
 20 21  1  0
 21 22  2  0
 23 22  1  0
 24 23  2  0
 25 26  2  0
 25 27  1  0
M  END
$$$$
