QSF.pdb
     RDKit          3D

 27 27  0  0  1  0  0  0  0  0999 V2000
   27.1830  -21.9888  -18.8134 N   0  0  0  0  0  0  0  0  0  0  0  0
   27.7835  -20.7660  -19.2112 C   0  0  0  0  0  0  0  0  0  0  0  0
   28.9320  -20.8090  -19.7043 O   0  0  0  0  0  0  0  0  0  0  0  0
   27.0840  -19.4958  -19.0515 C   0  0  0  0  0  0  0  0  0  0  0  0
   25.7208  -19.5930  -18.4669 C   0  0  0  0  0  0  0  0  0  0  0  0
   25.5263  -18.9456  -17.1388 C   0  0  2  0  0  0  0  0  0  0  0  0
   26.2360  -17.6936  -17.0039 N   0  0  0  0  0  0  0  0  0  0  0  0
   26.0359  -19.8806  -16.1053 C   0  0  0  0  0  0  0  0  0  0  0  0
   25.6055  -21.0633  -16.0082 O   0  0  0  0  0  0  0  0  0  0  0  0
   29.2560  -20.4098  -12.5060 O   0  0  0  0  0  0  0  0  0  0  0  0
   28.8011  -19.7595  -13.6473 C   0  0  0  0  0  0  0  0  0  0  0  0
   27.3816  -20.1917  -14.0037 C   0  0  2  0  0  0  0  0  0  0  0  0
   27.0207  -19.4639  -15.2015 N   0  0  0  0  0  0  0  0  0  0  0  0
   26.4293  -19.8162  -12.9319 C   0  0  0  0  0  0  0  0  0  0  0  0
   26.0453  -18.6083  -12.8529 O   0  0  0  0  0  0  0  0  0  0  0  0
   25.9569  -20.7841  -12.0145 N   0  0  0  0  0  0  0  0  0  0  0  0
   25.1219  -20.3546  -10.9058 C   0  0  1  0  0  0  0  0  0  0  0  0
   23.7751  -21.0241  -11.1060 C   0  0  0  0  0  0  0  0  0  0  0  0
   22.7309  -20.1355  -11.6158 C   0  0  0  0  0  0  0  0  0  0  0  0
   22.6278  -19.9053  -12.9604 C   0  0  0  0  0  0  0  0  0  0  0  0
   21.6350  -19.0702  -13.4265 C   0  0  0  0  0  0  0  0  0  0  0  0
   20.7707  -18.4865  -12.5355 C   0  0  0  0  0  0  0  0  0  0  0  0
   20.8828  -18.7244  -11.1828 C   0  0  0  0  0  0  0  0  0  0  0  0
   21.8542  -19.5444  -10.7010 C   0  0  0  0  0  0  0  0  0  0  0  0
   25.7334  -20.8003   -9.6488 C   0  0  0  0  0  0  0  0  0  0  0  0
   25.2914  -20.4134   -8.5354 O   0  0  0  0  0  0  0  0  0  0  0  0
   26.8210  -21.6645   -9.6090 O   0  0  0  0  0  0  0  0  0  0  0  0
  1  2  1  0
  2  4  1  0
  2  3  2  0
  4  5  1  0
  6  8  1  0
  6  5  1  0
  6  7  1  6
  8 13  1  0
  9  8  2  0
 10 11  1  0
 12 11  1  1
 12 14  1  0
 13 12  1  0
 14 16  1  0
 14 15  2  0
 16 17  1  0
 17 25  1  0
 18 19  1  0
 17 18  1  6
 19 20  2  0
 19 24  1  0
 20 21  1  0
 21 22  2  0
 23 22  1  0
 24 23  2  0
 25 26  2  0
 25 27  1  0
M  END
$$$$
