QSF.pdb
     RDKit          3D

 27 27  0  0  1  0  0  0  0  0999 V2000
   23.3626  -18.4090  -18.0059 N   0  0  0  0  0  0  0  0  0  0  0  0
   23.0153  -19.7588  -18.2732 C   0  0  0  0  0  0  0  0  0  0  0  0
   21.8777  -19.9914  -18.7377 O   0  0  0  0  0  0  0  0  0  0  0  0
   23.9554  -20.8442  -18.0155 C   0  0  0  0  0  0  0  0  0  0  0  0
   25.2886  -20.4208  -17.5127 C   0  0  0  0  0  0  0  0  0  0  0  0
   26.3859  -20.3687  -18.5197 C   0  0  2  0  0  0  0  0  0  0  0  0
   26.0122  -19.6849  -19.7372 N   0  0  0  0  0  0  0  0  0  0  0  0
   26.7444  -21.7667  -18.8650 C   0  0  0  0  0  0  0  0  0  0  0  0
   25.9926  -22.4897  -19.5759 O   0  0  0  0  0  0  0  0  0  0  0  0
   30.5532  -23.1168  -17.8342 O   0  0  0  0  0  0  0  0  0  0  0  0
   29.8689  -23.6186  -18.9353 C   0  0  0  0  0  0  0  0  0  0  0  0
   28.3664  -23.6790  -18.6748 C   0  0  2  0  0  0  0  0  0  0  0  0
   27.9434  -22.3219  -18.4022 N   0  0  0  0  0  0  0  0  0  0  0  0
   28.0694  -24.5031  -17.4793 C   0  0  0  0  0  0  0  0  0  0  0  0
   28.3319  -24.0287  -16.3309 O   0  0  0  0  0  0  0  0  0  0  0  0
   27.5046  -25.7932  -17.6142 N   0  0  0  0  0  0  0  0  0  0  0  0
   27.2008  -26.5574  -16.4165 C   0  0  1  0  0  0  0  0  0  0  0  0
   25.6964  -26.7557  -16.4110 C   0  0  0  0  0  0  0  0  0  0  0  0
   24.9278  -25.5259  -16.2191 C   0  0  0  0  0  0  0  0  0  0  0  0
   24.3562  -24.9040  -17.2952 C   0  0  0  0  0  0  0  0  0  0  0  0
   23.6297  -23.7491  -17.0980 C   0  0  0  0  0  0  0  0  0  0  0  0
   23.4938  -23.2458  -15.8292 C   0  0  0  0  0  0  0  0  0  0  0  0
   24.0736  -23.8795  -14.7515 C   0  0  0  0  0  0  0  0  0  0  0  0
   24.7942  -25.0195  -14.9228 C   0  0  0  0  0  0  0  0  0  0  0  0
   27.8875  -27.8518  -16.4908 C   0  0  0  0  0  0  0  0  0  0  0  0
   28.4260  -28.2440  -17.5589 O   0  0  0  0  0  0  0  0  0  0  0  0
   27.9859  -28.7119  -15.4037 O   0  0  0  0  0  0  0  0  0  0  0  0
  1  2  1  0
  2  4  1  0
  2  3  2  0
  4  5  1  0
  6  8  1  0
  6  5  1  0
  6  7  1  6
  8 13  1  0
  9  8  2  0
 10 11  1  0
 12 11  1  1
 12 14  1  0
 13 12  1  0
 14 16  1  0
 14 15  2  0
 16 17  1  0
 17 25  1  0
 18 19  1  0
 17 18  1  6
 19 20  2  0
 19 24  1  0
 20 21  1  0
 21 22  2  0
 23 22  1  0
 24 23  2  0
 25 26  2  0
 25 27  1  0
M  END
$$$$
