QSF.pdb
     RDKit          3D

 27 27  0  0  1  0  0  0  0  0999 V2000
   18.8918  -19.5606  -15.7953 N   0  0  0  0  0  0  0  0  0  0  0  0
   17.7460  -19.1571  -16.5290 C   0  0  0  0  0  0  0  0  0  0  0  0
   17.3058  -19.9342  -17.4045 O   0  0  0  0  0  0  0  0  0  0  0  0
   17.0987  -17.8754  -16.2713 C   0  0  0  0  0  0  0  0  0  0  0  0
   18.0081  -16.6998  -16.2510 C   0  0  0  0  0  0  0  0  0  0  0  0
   18.2961  -16.0673  -17.5693 C   0  0  2  0  0  0  0  0  0  0  0  0
   19.0854  -16.9044  -18.4444 N   0  0  0  0  0  0  0  0  0  0  0  0
   19.0569  -14.8197  -17.3114 C   0  0  0  0  0  0  0  0  0  0  0  0
   19.8260  -14.7033  -16.3172 O   0  0  0  0  0  0  0  0  0  0  0  0
   18.3627  -11.3492  -19.6805 O   0  0  0  0  0  0  0  0  0  0  0  0
   19.6429  -11.8346  -19.4398 C   0  0  0  0  0  0  0  0  0  0  0  0
   19.7294  -12.5215  -18.0798 C   0  0  2  0  0  0  0  0  0  0  0  0
   18.9358  -13.7278  -18.1793 N   0  0  0  0  0  0  0  0  0  0  0  0
   19.1420  -11.6699  -17.0185 C   0  0  0  0  0  0  0  0  0  0  0  0
   17.9967  -11.9703  -16.5595 O   0  0  0  0  0  0  0  0  0  0  0  0
   19.8431  -10.5440  -16.5260 N   0  0  0  0  0  0  0  0  0  0  0  0
   19.1977   -9.6855  -15.5477 C   0  0  1  0  0  0  0  0  0  0  0  0
   20.0984   -9.6835  -14.3266 C   0  0  0  0  0  0  0  0  0  0  0  0
   21.4116   -9.0783  -14.5482 C   0  0  0  0  0  0  0  0  0  0  0  0
   21.5373   -7.7166  -14.5862 C   0  0  0  0  0  0  0  0  0  0  0  0
   22.7822   -7.1606  -14.7898 C   0  0  0  0  0  0  0  0  0  0  0  0
   23.8697   -7.9812  -14.9505 C   0  0  0  0  0  0  0  0  0  0  0  0
   23.7327   -9.3519  -14.9109 C   0  0  0  0  0  0  0  0  0  0  0  0
   22.5147   -9.9217  -14.7111 C   0  0  0  0  0  0  0  0  0  0  0  0
   19.0849   -8.3321  -16.1029 C   0  0  0  0  0  0  0  0  0  0  0  0
   19.6274   -8.0290  -17.1977 O   0  0  0  0  0  0  0  0  0  0  0  0
   18.3825   -7.3163  -15.4657 O   0  0  0  0  0  0  0  0  0  0  0  0
  1  2  1  0
  2  4  1  0
  2  3  2  0
  4  5  1  0
  6  8  1  0
  6  5  1  0
  6  7  1  6
  8 13  1  0
  9  8  2  0
 10 11  1  0
 12 11  1  6
 12 14  1  0
 13 12  1  0
 14 16  1  0
 14 15  2  0
 16 17  1  0
 17 25  1  0
 18 19  1  0
 17 18  1  1
 19 20  2  0
 19 24  1  0
 20 21  1  0
 21 22  2  0
 23 22  1  0
 24 23  2  0
 25 26  2  0
 25 27  1  0
M  END
$$$$
