QSF.pdb
     RDKit          3D

 27 27  0  0  1  0  0  0  0  0999 V2000
   30.9206  -22.4896  -21.0709 N   0  0  0  0  0  0  0  0  0  0  0  0
   31.2125  -21.1010  -21.0919 C   0  0  0  0  0  0  0  0  0  0  0  0
   31.6286  -20.6046  -22.1618 O   0  0  0  0  0  0  0  0  0  0  0  0
   31.0328  -20.2749  -19.9030 C   0  0  0  0  0  0  0  0  0  0  0  0
   30.4598  -20.9773  -18.7250 C   0  0  0  0  0  0  0  0  0  0  0  0
   29.0191  -21.3477  -18.8158 C   0  0  2  0  0  0  0  0  0  0  0  0
   28.1271  -20.2349  -18.5796 N   0  0  0  0  0  0  0  0  0  0  0  0
   28.7555  -22.3799  -17.7829 C   0  0  0  0  0  0  0  0  0  0  0  0
   29.6591  -22.7814  -16.9982 O   0  0  0  0  0  0  0  0  0  0  0  0
   25.3002  -22.8988  -15.5127 O   0  0  0  0  0  0  0  0  0  0  0  0
   25.6204  -23.8496  -16.4750 C   0  0  0  0  0  0  0  0  0  0  0  0
   27.1299  -23.9480  -16.6772 C   0  0  2  0  0  0  0  0  0  0  0  0
   27.4785  -22.9393  -17.6549 N   0  0  0  0  0  0  0  0  0  0  0  0
   27.5048  -25.2721  -17.2275 C   0  0  0  0  0  0  0  0  0  0  0  0
   27.4484  -25.4486  -18.4838 O   0  0  0  0  0  0  0  0  0  0  0  0
   27.9174  -26.3193  -16.3704 N   0  0  0  0  0  0  0  0  0  0  0  0
   28.3688  -27.5706  -16.9547 C   0  0  1  0  0  0  0  0  0  0  0  0
   29.2943  -28.2052  -15.9333 C   0  0  0  0  0  0  0  0  0  0  0  0
   29.7016  -29.5722  -16.2575 C   0  0  0  0  0  0  0  0  0  0  0  0
   30.7137  -29.7883  -17.1523 C   0  0  0  0  0  0  0  0  0  0  0  0
   31.0906  -31.0820  -17.4433 C   0  0  0  0  0  0  0  0  0  0  0  0
   30.4452  -32.1266  -16.8319 C   0  0  0  0  0  0  0  0  0  0  0  0
   29.4266  -31.8988  -15.9321 C   0  0  0  0  0  0  0  0  0  0  0  0
   29.0386  -30.6313  -15.6301 C   0  0  0  0  0  0  0  0  0  0  0  0
   27.2050  -28.4309  -17.1952 C   0  0  0  0  0  0  0  0  0  0  0  0
   26.1815  -28.3627  -16.4653 O   0  0  0  0  0  0  0  0  0  0  0  0
   27.1596  -29.3596  -18.2280 O   0  0  0  0  0  0  0  0  0  0  0  0
  1  2  1  0
  2  4  1  0
  2  3  2  0
  4  5  1  0
  6  8  1  0
  6  5  1  0
  6  7  1  1
  8 13  1  0
  9  8  2  0
 10 11  1  0
 12 11  1  6
 12 14  1  0
 13 12  1  0
 14 16  1  0
 14 15  2  0
 16 17  1  0
 17 25  1  0
 18 19  1  0
 17 18  1  1
 19 20  2  0
 19 24  1  0
 20 21  1  0
 21 22  2  0
 23 22  1  0
 24 23  2  0
 25 26  2  0
 25 27  1  0
M  END
$$$$
