QSF.pdb
     RDKit          3D

 27 27  0  0  1  0  0  0  0  0999 V2000
   13.6843  -11.0123  -10.1829 N   0  0  0  0  0  0  0  0  0  0  0  0
   12.6088  -11.9327  -10.2834 C   0  0  0  0  0  0  0  0  0  0  0  0
   11.7145  -11.8882   -9.4103 O   0  0  0  0  0  0  0  0  0  0  0  0
   12.5456  -12.9021  -11.3717 C   0  0  0  0  0  0  0  0  0  0  0  0
   13.6262  -12.7866  -12.3858 C   0  0  0  0  0  0  0  0  0  0  0  0
   13.4493  -11.7271  -13.4188 C   0  0  2  0  0  0  0  0  0  0  0  0
   12.4527  -12.0583  -14.4122 N   0  0  0  0  0  0  0  0  0  0  0  0
   14.7511  -11.5520  -14.1091 C   0  0  0  0  0  0  0  0  0  0  0  0
   15.8019  -12.1199  -13.7008 O   0  0  0  0  0  0  0  0  0  0  0  0
   14.8171   -8.9087  -17.2870 O   0  0  0  0  0  0  0  0  0  0  0  0
   15.6864   -9.9919  -17.3440 C   0  0  0  0  0  0  0  0  0  0  0  0
   16.0786  -10.4629  -15.9464 C   0  0  2  0  0  0  0  0  0  0  0  0
   14.8427  -10.7402  -15.2460 N   0  0  0  0  0  0  0  0  0  0  0  0
   16.7959   -9.3952  -15.2101 C   0  0  0  0  0  0  0  0  0  0  0  0
   16.1534   -8.7015  -14.3624 O   0  0  0  0  0  0  0  0  0  0  0  0
   18.1696   -9.1531  -15.4466 N   0  0  0  0  0  0  0  0  0  0  0  0
   18.8047   -8.0155  -14.8037 C   0  0  1  0  0  0  0  0  0  0  0  0
   20.2431   -8.4238  -14.5454 C   0  0  0  0  0  0  0  0  0  0  0  0
   21.1163   -7.3247  -14.1340 C   0  0  0  0  0  0  0  0  0  0  0  0
   21.6534   -6.4910  -15.0765 C   0  0  0  0  0  0  0  0  0  0  0  0
   22.4696   -5.4559  -14.6733 C   0  0  0  0  0  0  0  0  0  0  0  0
   22.7279   -5.2812  -13.3374 C   0  0  0  0  0  0  0  0  0  0  0  0
   22.1823   -6.1264  -12.3956 C   0  0  0  0  0  0  0  0  0  0  0  0
   21.3746   -7.1536  -12.7707 C   0  0  0  0  0  0  0  0  0  0  0  0
   18.7545   -6.8654  -15.7134 C   0  0  0  0  0  0  0  0  0  0  0  0
   18.7594   -7.0213  -16.9625 O   0  0  0  0  0  0  0  0  0  0  0  0
   18.6983   -5.5529  -15.2603 O   0  0  0  0  0  0  0  0  0  0  0  0
  1  2  1  0
  2  4  1  0
  2  3  2  0
  4  5  1  0
  6  8  1  0
  6  5  1  0
  6  7  1  6
  8 13  1  0
  9  8  2  0
 10 11  1  0
 12 11  1  6
 12 14  1  0
 13 12  1  0
 14 16  1  0
 14 15  2  0
 16 17  1  0
 17 25  1  0
 18 19  1  0
 17 18  1  6
 19 20  2  0
 19 24  1  0
 20 21  1  0
 21 22  2  0
 23 22  1  0
 24 23  2  0
 25 26  2  0
 25 27  1  0
M  END
$$$$
