QSF.pdb
     RDKit          3D

 27 27  0  0  1  0  0  0  0  0999 V2000
   27.8993  -17.5410  -15.4611 N   0  0  0  0  0  0  0  0  0  0  0  0
   28.3701  -18.1132  -16.6714 C   0  0  0  0  0  0  0  0  0  0  0  0
   29.2175  -17.4738  -17.3325 O   0  0  0  0  0  0  0  0  0  0  0  0
   27.8826  -19.4086  -17.1323 C   0  0  0  0  0  0  0  0  0  0  0  0
   26.9712  -20.1128  -16.1928 C   0  0  0  0  0  0  0  0  0  0  0  0
   27.6175  -21.0273  -15.2094 C   0  0  2  0  0  0  0  0  0  0  0  0
   28.2312  -22.1837  -15.8223 N   0  0  0  0  0  0  0  0  0  0  0  0
   26.5641  -21.5010  -14.2779 C   0  0  0  0  0  0  0  0  0  0  0  0
   25.6625  -22.3039  -14.6466 O   0  0  0  0  0  0  0  0  0  0  0  0
   24.7981  -20.6512   -9.8015 O   0  0  0  0  0  0  0  0  0  0  0  0
   25.8482  -20.6353  -10.7123 C   0  0  0  0  0  0  0  0  0  0  0  0
   25.4410  -21.2684  -12.0399 C   0  0  2  0  0  0  0  0  0  0  0  0
   26.5477  -21.0603  -12.9492 N   0  0  0  0  0  0  0  0  0  0  0  0
   24.2480  -20.5938  -12.6040 C   0  0  0  0  0  0  0  0  0  0  0  0
   24.4119  -19.5379  -13.2904 O   0  0  0  0  0  0  0  0  0  0  0  0
   22.9517  -21.1153  -12.3825 N   0  0  0  0  0  0  0  0  0  0  0  0
   21.8097  -20.4360  -12.9701 C   0  0  1  0  0  0  0  0  0  0  0  0
   21.9815  -20.5424  -14.4739 C   0  0  0  0  0  0  0  0  0  0  0  0
   20.8524  -20.0252  -15.2468 C   0  0  0  0  0  0  0  0  0  0  0  0
   20.6417  -18.6758  -15.3269 C   0  0  0  0  0  0  0  0  0  0  0  0
   19.5770  -18.2030  -16.0640 C   0  0  0  0  0  0  0  0  0  0  0  0
   18.7501  -19.0922  -16.7020 C   0  0  0  0  0  0  0  0  0  0  0  0
   18.9704  -20.4498  -16.6151 C   0  0  0  0  0  0  0  0  0  0  0  0
   20.0143  -20.9382  -15.8940 C   0  0  0  0  0  0  0  0  0  0  0  0
   20.5810  -21.1163  -12.5457 C   0  0  0  0  0  0  0  0  0  0  0  0
   20.5625  -22.3571  -12.3337 O   0  0  0  0  0  0  0  0  0  0  0  0
   19.3799  -20.4443  -12.3534 O   0  0  0  0  0  0  0  0  0  0  0  0
  1  2  1  0
  2  4  1  0
  2  3  2  0
  4  5  1  0
  6  8  1  0
  6  5  1  0
  6  7  1  6
  8 13  1  0
  9  8  2  0
 10 11  1  0
 12 11  1  1
 12 14  1  0
 13 12  1  0
 14 16  1  0
 14 15  2  0
 16 17  1  0
 17 25  1  0
 18 19  1  0
 17 18  1  6
 19 20  2  0
 19 24  1  0
 20 21  1  0
 21 22  2  0
 23 22  1  0
 24 23  2  0
 25 26  2  0
 25 27  1  0
M  END
$$$$
