TFM.pdb
     RDKit          3D

 27 27  0  0  1  0  0  0  0  0999 V2000
   10.2376  -19.8292   21.3818 C   0  0  0  0  0  0  0  0  0  0  0  0
   10.8636  -19.0280   20.2689 C   0  0  1  0  0  0  0  0  0  0  0  0
   10.9981  -19.9419   19.1938 O   0  0  0  0  0  0  0  0  0  0  0  0
    9.9858  -17.8690   19.8386 C   0  0  2  0  0  0  0  0  0  0  0  0
   10.7356  -17.2175   18.7534 N   0  0  0  0  0  0  0  0  0  0  0  0
    9.8990  -16.8657   20.9305 C   0  0  0  0  0  0  0  0  0  0  0  0
   10.9102  -16.1324   21.2217 O   0  0  0  0  0  0  0  0  0  0  0  0
    8.7490  -16.6301   21.7181 N   0  0  0  0  0  0  0  0  0  0  0  0
    8.7123  -15.6667   22.8186 C   0  0  1  0  0  0  0  0  0  0  0  0
    7.3409  -15.0738   22.9197 C   0  0  0  0  0  0  0  0  0  0  0  0
    7.1056  -14.2101   24.0625 C   0  0  0  0  0  0  0  0  0  0  0  0
    7.5047  -12.8988   24.0571 C   0  0  0  0  0  0  0  0  0  0  0  0
    7.2878  -12.0722   25.1385 C   0  0  0  0  0  0  0  0  0  0  0  0
    6.6577  -12.5323   26.2747 C   0  0  0  0  0  0  0  0  0  0  0  0
    6.2509  -13.8489   26.2943 C   0  0  0  0  0  0  0  0  0  0  0  0
    6.4781  -14.6770   25.1880 C   0  0  0  0  0  0  0  0  0  0  0  0
    9.2641  -16.2111   24.0549 C   0  0  0  0  0  0  0  0  0  0  0  0
    8.7250  -17.1654   24.7057 O   0  0  0  0  0  0  0  0  0  0  0  0
   10.4793  -12.7389   28.7271 C   0  0  0  0  0  0  0  0  0  0  0  0
   10.3688  -14.3498   29.5506 S   0  0  0  0  0  0  0  0  0  0  0  0
   10.8834  -15.6635   28.3752 C   0  0  0  0  0  0  0  0  0  0  0  0
   10.4728  -15.2440   27.0019 C   0  0  0  0  0  0  0  0  0  0  0  0
   10.9792  -16.1661   25.8987 C   0  0  2  0  0  0  0  0  0  0  0  0
   10.4682  -15.6981   24.6200 N   0  0  0  0  0  0  0  0  0  0  0  0
   10.6929  -17.5823   26.1405 C   0  0  0  0  0  0  0  0  0  0  0  0
   11.6105  -18.5021   26.5982 O   0  0  0  0  0  0  0  0  0  0  0  0
    9.4956  -17.9684   25.9006 O   0  0  0  0  0  0  0  0  0  0  0  0
  2  1  1  1
  2  3  1  0
  4  2  1  0
  4  6  1  0
  4  5  1  6
  6  7  2  0
  8  9  1  0
  8  6  1  0
  9 17  1  0
  9 10  1  1
 11 10  1  0
 11 16  2  0
 12 11  1  0
 13 12  2  0
 13 14  1  0
 14 15  2  0
 15 16  1  0
 17 18  2  0
 20 19  1  0
 20 21  1  0
 21 22  1  0
 23 22  1  1
 23 25  1  0
 24 17  1  0
 24 23  1  0
 25 27  2  0
 25 26  1  0
M  END
$$$$
