TFM.pdb
     RDKit          3D

 27 27  0  0  1  0  0  0  0  0999 V2000
    9.5964  -20.6802   20.0824 C   0  0  0  0  0  0  0  0  0  0  0  0
    9.6379  -19.4261   20.9177 C   0  0  1  0  0  0  0  0  0  0  0  0
   11.0141  -19.2065   21.1766 O   0  0  0  0  0  0  0  0  0  0  0  0
    9.0670  -18.2311   20.1791 C   0  0  2  0  0  0  0  0  0  0  0  0
   10.0201  -17.9788   19.0871 N   0  0  0  0  0  0  0  0  0  0  0  0
    9.1172  -17.0269   21.0473 C   0  0  0  0  0  0  0  0  0  0  0  0
   10.1027  -16.2098   20.9696 O   0  0  0  0  0  0  0  0  0  0  0  0
    8.1311  -16.6782   21.9983 N   0  0  0  0  0  0  0  0  0  0  0  0
    8.2445  -15.5205   22.8857 C   0  0  1  0  0  0  0  0  0  0  0  0
    6.9493  -15.3148   23.6086 C   0  0  0  0  0  0  0  0  0  0  0  0
    6.9033  -14.1855   24.5196 C   0  0  0  0  0  0  0  0  0  0  0  0
    7.4971  -12.9914   24.2028 C   0  0  0  0  0  0  0  0  0  0  0  0
    7.4606  -11.9149   25.0626 C   0  0  0  0  0  0  0  0  0  0  0  0
    6.8227  -11.9952   26.2818 C   0  0  0  0  0  0  0  0  0  0  0  0
    6.2212  -13.1898   26.6137 C   0  0  0  0  0  0  0  0  0  0  0  0
    6.2664  -14.2753   25.7299 C   0  0  0  0  0  0  0  0  0  0  0  0
    9.4395  -15.5734   23.7215 C   0  0  0  0  0  0  0  0  0  0  0  0
   10.2382  -14.5911   23.8701 O   0  0  0  0  0  0  0  0  0  0  0  0
   10.9438  -12.6987   28.2365 C   0  0  0  0  0  0  0  0  0  0  0  0
   10.5150  -14.3365   28.8838 S   0  0  0  0  0  0  0  0  0  0  0  0
   11.1924  -15.6233   27.7624 C   0  0  0  0  0  0  0  0  0  0  0  0
   10.2538  -15.7759   26.6108 C   0  0  0  0  0  0  0  0  0  0  0  0
   10.7516  -16.7316   25.5326 C   0  0  2  0  0  0  0  0  0  0  0  0
    9.7915  -16.7531   24.4403 N   0  0  0  0  0  0  0  0  0  0  0  0
   11.0686  -18.0702   26.0362 C   0  0  0  0  0  0  0  0  0  0  0  0
   12.2527  -18.4195   26.6472 O   0  0  0  0  0  0  0  0  0  0  0  0
   10.1629  -18.9629   25.8847 O   0  0  0  0  0  0  0  0  0  0  0  0
  2  1  1  6
  2  3  1  0
  4  2  1  0
  4  6  1  0
  4  5  1  6
  6  7  2  0
  8  9  1  0
  8  6  1  0
  9 17  1  0
  9 10  1  1
 11 10  1  0
 11 16  2  0
 12 11  1  0
 13 12  2  0
 13 14  1  0
 14 15  2  0
 15 16  1  0
 17 18  2  0
 20 19  1  0
 20 21  1  0
 21 22  1  0
 23 22  1  1
 23 25  1  0
 24 17  1  0
 24 23  1  0
 25 27  2  0
 25 26  1  0
M  END
$$$$
