TFM.pdb
     RDKit          3D

 27 27  0  0  1  0  0  0  0  0999 V2000
    9.5654  -15.4719   16.6849 C   0  0  0  0  0  0  0  0  0  0  0  0
    9.6566  -15.2069   18.1660 C   0  0  1  0  0  0  0  0  0  0  0  0
   10.8953  -14.5405   18.3409 O   0  0  0  0  0  0  0  0  0  0  0  0
    8.5314  -14.3161   18.6553 C   0  0  2  0  0  0  0  0  0  0  0  0
    8.7949  -13.0089   18.0339 N   0  0  0  0  0  0  0  0  0  0  0  0
    8.6550  -14.1011   20.1199 C   0  0  0  0  0  0  0  0  0  0  0  0
    9.4395  -13.1970   20.5805 O   0  0  0  0  0  0  0  0  0  0  0  0
    7.9533  -14.8350   21.1035 N   0  0  0  0  0  0  0  0  0  0  0  0
    8.0397  -14.5463   22.5352 C   0  0  1  0  0  0  0  0  0  0  0  0
    6.6722  -14.2533   23.0704 C   0  0  0  0  0  0  0  0  0  0  0  0
    6.6148  -13.7854   24.4434 C   0  0  0  0  0  0  0  0  0  0  0  0
    6.9262  -12.4903   24.7672 C   0  0  0  0  0  0  0  0  0  0  0  0
    6.8770  -12.0381   26.0682 C   0  0  0  0  0  0  0  0  0  0  0  0
    6.5110  -12.8733   27.1018 C   0  0  0  0  0  0  0  0  0  0  0  0
    6.1952  -14.1783   26.7911 C   0  0  0  0  0  0  0  0  0  0  0  0
    6.2497  -14.6237   25.4645 C   0  0  0  0  0  0  0  0  0  0  0  0
    8.8064  -15.5531   23.2619 C   0  0  0  0  0  0  0  0  0  0  0  0
    8.8455  -16.7830   22.9292 O   0  0  0  0  0  0  0  0  0  0  0  0
   10.7801  -15.0652   29.5347 C   0  0  0  0  0  0  0  0  0  0  0  0
   10.6005  -13.6734   28.3876 S   0  0  0  0  0  0  0  0  0  0  0  0
   10.8943  -14.2639   26.6738 C   0  0  0  0  0  0  0  0  0  0  0  0
   10.4934  -15.7008   26.6031 C   0  0  0  0  0  0  0  0  0  0  0  0
   10.2951  -16.2159   25.1821 C   0  0  2  0  0  0  0  0  0  0  0  0
    9.5772  -15.2127   24.4117 N   0  0  0  0  0  0  0  0  0  0  0  0
    9.6658  -17.5373   25.1197 C   0  0  0  0  0  0  0  0  0  0  0  0
   10.3502  -18.7309   25.0542 O   0  0  0  0  0  0  0  0  0  0  0  0
    8.3853  -17.5571   25.1271 O   0  0  0  0  0  0  0  0  0  0  0  0
  2  1  1  6
  2  3  1  0
  4  2  1  0
  4  6  1  0
  4  5  1  6
  6  7  2  0
  8  9  1  0
  8  6  1  0
  9 17  1  0
  9 10  1  1
 11 10  1  0
 11 16  2  0
 12 11  1  0
 13 12  2  0
 13 14  1  0
 14 15  2  0
 15 16  1  0
 17 18  2  0
 20 19  1  0
 20 21  1  0
 21 22  1  0
 23 22  1  1
 23 25  1  0
 24 17  1  0
 24 23  1  0
 25 27  2  0
 25 26  1  0
M  END
$$$$
