TFM.pdb
     RDKit          3D

 27 27  0  0  1  0  0  0  0  0999 V2000
   10.4881  -19.4160   18.8645 C   0  0  0  0  0  0  0  0  0  0  0  0
   10.2595  -18.6860   20.1634 C   0  0  1  0  0  0  0  0  0  0  0  0
   11.2029  -19.2411   21.0639 O   0  0  0  0  0  0  0  0  0  0  0  0
   10.5062  -17.1958   20.0300 C   0  0  2  0  0  0  0  0  0  0  0  0
   11.9583  -17.0761   19.8263 N   0  0  0  0  0  0  0  0  0  0  0  0
   10.2204  -16.5169   21.3199 C   0  0  0  0  0  0  0  0  0  0  0  0
   11.1732  -16.2318   22.1298 O   0  0  0  0  0  0  0  0  0  0  0  0
    8.9327  -16.1350   21.7608 N   0  0  0  0  0  0  0  0  0  0  0  0
    8.6795  -15.5186   23.0634 C   0  0  1  0  0  0  0  0  0  0  0  0
    7.4296  -14.6968   22.9940 C   0  0  0  0  0  0  0  0  0  0  0  0
    7.0190  -14.0603   24.2324 C   0  0  0  0  0  0  0  0  0  0  0  0
    7.4267  -12.7904   24.5487 C   0  0  0  0  0  0  0  0  0  0  0  0
    7.0440  -12.1793   25.7233 C   0  0  0  0  0  0  0  0  0  0  0  0
    6.2319  -12.8229   26.6321 C   0  0  0  0  0  0  0  0  0  0  0  0
    5.8142  -14.1003   26.3274 C   0  0  0  0  0  0  0  0  0  0  0  0
    6.2112  -14.7087   25.1300 C   0  0  0  0  0  0  0  0  0  0  0  0
    8.7501  -16.4803   24.1586 C   0  0  0  0  0  0  0  0  0  0  0  0
    8.2171  -17.6375   24.1143 O   0  0  0  0  0  0  0  0  0  0  0  0
   10.9096  -13.5702   29.0499 C   0  0  0  0  0  0  0  0  0  0  0  0
   11.0074  -13.9194   27.2740 S   0  0  0  0  0  0  0  0  0  0  0  0
   11.5823  -15.6464   27.0307 C   0  0  0  0  0  0  0  0  0  0  0  0
   10.5074  -16.5652   27.5112 C   0  0  0  0  0  0  0  0  0  0  0  0
    9.6798  -17.1845   26.3908 C   0  0  2  0  0  0  0  0  0  0  0  0
    9.4376  -16.1772   25.3701 N   0  0  0  0  0  0  0  0  0  0  0  0
    8.4490  -17.8275   26.8573 C   0  0  0  0  0  0  0  0  0  0  0  0
    7.1827  -17.5137   26.4151 O   0  0  0  0  0  0  0  0  0  0  0  0
    8.5872  -18.7441   27.7409 O   0  0  0  0  0  0  0  0  0  0  0  0
  2  1  1  6
  2  3  1  0
  4  2  1  0
  4  6  1  0
  4  5  1  1
  6  7  2  0
  8  9  1  0
  8  6  1  0
  9 17  1  0
  9 10  1  6
 11 10  1  0
 11 16  2  0
 12 11  1  0
 13 12  2  0
 13 14  1  0
 14 15  2  0
 15 16  1  0
 17 18  2  0
 20 19  1  0
 20 21  1  0
 21 22  1  0
 23 22  1  1
 23 25  1  0
 24 17  1  0
 24 23  1  0
 25 27  2  0
 25 26  1  0
M  END
$$$$
