TFM.pdb
     RDKit          3D

 27 27  0  0  1  0  0  0  0  0999 V2000
   10.3345  -19.6964   20.7761 C   0  0  0  0  0  0  0  0  0  0  0  0
   11.2614  -18.8009   19.9943 C   0  0  1  0  0  0  0  0  0  0  0  0
   11.5502  -19.5223   18.8088 O   0  0  0  0  0  0  0  0  0  0  0  0
   10.6081  -17.4807   19.6345 C   0  0  2  0  0  0  0  0  0  0  0  0
   11.6223  -16.7674   18.8427 N   0  0  0  0  0  0  0  0  0  0  0  0
   10.4032  -16.6658   20.8594 C   0  0  0  0  0  0  0  0  0  0  0  0
   11.4046  -16.1480   21.4710 O   0  0  0  0  0  0  0  0  0  0  0  0
    9.1452  -16.3921   21.4434 N   0  0  0  0  0  0  0  0  0  0  0  0
    8.9765  -15.5597   22.6347 C   0  0  1  0  0  0  0  0  0  0  0  0
    7.5893  -14.9963   22.6596 C   0  0  0  0  0  0  0  0  0  0  0  0
    7.2417  -14.2170   23.8340 C   0  0  0  0  0  0  0  0  0  0  0  0
    6.5569  -14.7762   24.8816 C   0  0  0  0  0  0  0  0  0  0  0  0
    6.2205  -14.0433   25.9993 C   0  0  0  0  0  0  0  0  0  0  0  0
    6.5603  -12.7122   26.1101 C   0  0  0  0  0  0  0  0  0  0  0  0
    7.2490  -12.1366   25.0644 C   0  0  0  0  0  0  0  0  0  0  0  0
    7.5841  -12.8937   23.9349 C   0  0  0  0  0  0  0  0  0  0  0  0
    9.4124  -16.2344   23.8529 C   0  0  0  0  0  0  0  0  0  0  0  0
    9.1708  -17.4609   24.1028 O   0  0  0  0  0  0  0  0  0  0  0  0
    9.8026  -13.1776   29.3255 C   0  0  0  0  0  0  0  0  0  0  0  0
   11.0657  -14.4037   29.7574 S   0  0  0  0  0  0  0  0  0  0  0  0
   11.0277  -15.7663   28.5269 C   0  0  0  0  0  0  0  0  0  0  0  0
   10.6569  -15.1849   27.2021 C   0  0  0  0  0  0  0  0  0  0  0  0
   10.5989  -16.2088   26.0743 C   0  0  2  0  0  0  0  0  0  0  0  0
   10.1539  -15.5472   24.8579 N   0  0  0  0  0  0  0  0  0  0  0  0
    9.8028  -17.3948   26.3993 C   0  0  0  0  0  0  0  0  0  0  0  0
    8.4486  -17.5166   26.1781 O   0  0  0  0  0  0  0  0  0  0  0  0
   10.4349  -18.3756   26.9271 O   0  0  0  0  0  0  0  0  0  0  0  0
  2  1  1  1
  2  3  1  0
  4  2  1  0
  4  6  1  0
  4  5  1  6
  6  7  2  0
  8  9  1  0
  8  6  1  0
  9 17  1  0
  9 10  1  1
 11 10  1  0
 11 16  2  0
 12 11  1  0
 13 12  2  0
 13 14  1  0
 14 15  2  0
 15 16  1  0
 17 18  2  0
 20 19  1  0
 20 21  1  0
 21 22  1  0
 23 22  1  1
 23 25  1  0
 24 17  1  0
 24 23  1  0
 25 27  2  0
 25 26  1  0
M  END
$$$$
