TFM.pdb
     RDKit          3D

 27 27  0  0  1  0  0  0  0  0999 V2000
   10.1248  -19.8071   18.4751 C   0  0  0  0  0  0  0  0  0  0  0  0
   10.0927  -18.9566   19.7193 C   0  0  1  0  0  0  0  0  0  0  0  0
   11.3301  -19.2076   20.3636 O   0  0  0  0  0  0  0  0  0  0  0  0
    9.9832  -17.4792   19.3961 C   0  0  2  0  0  0  0  0  0  0  0  0
   11.2924  -17.1251   18.8260 N   0  0  0  0  0  0  0  0  0  0  0  0
    9.8614  -16.6932   20.6507 C   0  0  0  0  0  0  0  0  0  0  0  0
   10.8998  -16.1754   21.1971 O   0  0  0  0  0  0  0  0  0  0  0  0
    8.6477  -16.4488   21.3331 N   0  0  0  0  0  0  0  0  0  0  0  0
    8.5565  -15.6295   22.5418 C   0  0  1  0  0  0  0  0  0  0  0  0
    7.1639  -15.0973   22.6822 C   0  0  0  0  0  0  0  0  0  0  0  0
    6.9176  -14.2623   23.8439 C   0  0  0  0  0  0  0  0  0  0  0  0
    6.3450  -14.7743   24.9793 C   0  0  0  0  0  0  0  0  0  0  0  0
    6.1051  -13.9885   26.0859 C   0  0  0  0  0  0  0  0  0  0  0  0
    6.4326  -12.6497   26.0964 C   0  0  0  0  0  0  0  0  0  0  0  0
    7.0090  -12.1212   24.9617 C   0  0  0  0  0  0  0  0  0  0  0  0
    7.2468  -12.9319   23.8447 C   0  0  0  0  0  0  0  0  0  0  0  0
    9.1025  -16.3038   23.7151 C   0  0  0  0  0  0  0  0  0  0  0  0
    9.0173  -17.5611   23.9071 O   0  0  0  0  0  0  0  0  0  0  0  0
   10.9989  -12.9203   28.8841 C   0  0  0  0  0  0  0  0  0  0  0  0
   11.1477  -14.6064   29.5321 S   0  0  0  0  0  0  0  0  0  0  0  0
   11.4262  -15.7658   28.1355 C   0  0  0  0  0  0  0  0  0  0  0  0
   10.7625  -15.1997   26.9232 C   0  0  0  0  0  0  0  0  0  0  0  0
   10.3856  -16.2469   25.8815 C   0  0  2  0  0  0  0  0  0  0  0  0
    9.7817  -15.5804   24.7386 N   0  0  0  0  0  0  0  0  0  0  0  0
    9.5535  -17.3294   26.4124 C   0  0  0  0  0  0  0  0  0  0  0  0
   10.0348  -18.5299   26.8862 O   0  0  0  0  0  0  0  0  0  0  0  0
    8.2901  -17.1200   26.4253 O   0  0  0  0  0  0  0  0  0  0  0  0
  2  1  1  6
  2  3  1  0
  4  2  1  0
  4  6  1  0
  4  5  1  1
  6  7  2  0
  8  9  1  0
  8  6  1  0
  9 17  1  0
  9 10  1  1
 11 10  1  0
 11 16  2  0
 12 11  1  0
 13 12  2  0
 13 14  1  0
 14 15  2  0
 15 16  1  0
 17 18  2  0
 20 19  1  0
 20 21  1  0
 21 22  1  0
 23 22  1  1
 23 25  1  0
 24 17  1  0
 24 23  1  0
 25 27  2  0
 25 26  1  0
M  END
$$$$
