TFM.pdb
     RDKit          3D

 27 27  0  0  1  0  0  0  0  0999 V2000
   10.2786  -19.7553   21.0062 C   0  0  0  0  0  0  0  0  0  0  0  0
   11.0265  -18.8488   20.0622 C   0  0  1  0  0  0  0  0  0  0  0  0
   11.2255  -19.6252   18.8931 O   0  0  0  0  0  0  0  0  0  0  0  0
   10.2286  -17.6075   19.7132 C   0  0  2  0  0  0  0  0  0  0  0  0
   11.0981  -16.8515   18.7983 N   0  0  0  0  0  0  0  0  0  0  0  0
   10.0670  -16.7532   20.9175 C   0  0  0  0  0  0  0  0  0  0  0  0
   11.0770  -16.1470   21.4250 O   0  0  0  0  0  0  0  0  0  0  0  0
    8.8435  -16.5332   21.5905 N   0  0  0  0  0  0  0  0  0  0  0  0
    8.7222  -15.6958   22.7841 C   0  0  1  0  0  0  0  0  0  0  0  0
    7.3304  -15.1508   22.8743 C   0  0  0  0  0  0  0  0  0  0  0  0
    7.0568  -14.2942   24.0139 C   0  0  0  0  0  0  0  0  0  0  0  0
    6.5212  -14.7987   25.1705 C   0  0  0  0  0  0  0  0  0  0  0  0
    6.2558  -13.9925   26.2564 C   0  0  0  0  0  0  0  0  0  0  0  0
    6.5192  -12.6400   26.2239 C   0  0  0  0  0  0  0  0  0  0  0  0
    7.0578  -12.1189   25.0674 C   0  0  0  0  0  0  0  0  0  0  0  0
    7.3223  -12.9502   23.9719 C   0  0  0  0  0  0  0  0  0  0  0  0
    9.2267  -16.3574   23.9830 C   0  0  0  0  0  0  0  0  0  0  0  0
    9.0361  -17.5917   24.2384 O   0  0  0  0  0  0  0  0  0  0  0  0
    9.7947  -13.0877   29.1821 C   0  0  0  0  0  0  0  0  0  0  0  0
   10.8185  -14.4236   29.8548 S   0  0  0  0  0  0  0  0  0  0  0  0
   10.9403  -15.7719   28.6141 C   0  0  0  0  0  0  0  0  0  0  0  0
   10.4569  -15.2420   27.3041 C   0  0  0  0  0  0  0  0  0  0  0  0
   10.4423  -16.2795   26.1873 C   0  0  2  0  0  0  0  0  0  0  0  0
    9.9825  -15.6471   24.9610 N   0  0  0  0  0  0  0  0  0  0  0  0
    9.6863  -17.4892   26.5203 C   0  0  0  0  0  0  0  0  0  0  0  0
   10.2495  -18.6895   26.8938 O   0  0  0  0  0  0  0  0  0  0  0  0
    8.4107  -17.3985   26.4508 O   0  0  0  0  0  0  0  0  0  0  0  0
  2  1  1  1
  2  3  1  0
  4  2  1  0
  4  6  1  0
  4  5  1  6
  6  7  2  0
  8  9  1  0
  8  6  1  0
  9 17  1  0
  9 10  1  1
 11 10  1  0
 11 16  2  0
 12 11  1  0
 13 12  2  0
 13 14  1  0
 14 15  2  0
 15 16  1  0
 17 18  2  0
 20 19  1  0
 20 21  1  0
 21 22  1  0
 23 22  1  1
 23 25  1  0
 24 17  1  0
 24 23  1  0
 25 27  2  0
 25 26  1  0
M  END
$$$$
