TFM.pdb
     RDKit          3D

 27 27  0  0  1  0  0  0  0  0999 V2000
   10.4050  -19.6553   21.1722 C   0  0  0  0  0  0  0  0  0  0  0  0
   11.3491  -18.7482   20.4252 C   0  0  1  0  0  0  0  0  0  0  0  0
   11.6576  -19.4475   19.2315 O   0  0  0  0  0  0  0  0  0  0  0  0
   10.7068  -17.4190   20.0790 C   0  0  2  0  0  0  0  0  0  0  0  0
   11.7720  -16.6535   19.4129 N   0  0  0  0  0  0  0  0  0  0  0  0
   10.3870  -16.6713   21.3221 C   0  0  0  0  0  0  0  0  0  0  0  0
   11.3255  -16.1802   22.0452 O   0  0  0  0  0  0  0  0  0  0  0  0
    9.0800  -16.4370   21.8071 N   0  0  0  0  0  0  0  0  0  0  0  0
    8.8023  -15.7501   23.0687 C   0  0  1  0  0  0  0  0  0  0  0  0
    7.4661  -15.0787   22.9899 C   0  0  0  0  0  0  0  0  0  0  0  0
    7.0149  -14.4188   24.2016 C   0  0  0  0  0  0  0  0  0  0  0  0
    7.3444  -13.1149   24.4663 C   0  0  0  0  0  0  0  0  0  0  0  0
    6.9227  -12.4812   25.6153 C   0  0  0  0  0  0  0  0  0  0  0  0
    6.1488  -13.1355   26.5495 C   0  0  0  0  0  0  0  0  0  0  0  0
    5.8098  -14.4471   26.2966 C   0  0  0  0  0  0  0  0  0  0  0  0
    6.2455  -15.0781   25.1247 C   0  0  0  0  0  0  0  0  0  0  0  0
    9.0172  -16.6078   24.2296 C   0  0  0  0  0  0  0  0  0  0  0  0
    8.5987  -17.8097   24.3036 O   0  0  0  0  0  0  0  0  0  0  0  0
   10.2434  -12.9247   28.8506 C   0  0  0  0  0  0  0  0  0  0  0  0
   11.7382  -13.8620   28.4353 S   0  0  0  0  0  0  0  0  0  0  0  0
   11.3968  -14.9243   26.9767 C   0  0  0  0  0  0  0  0  0  0  0  0
   10.9417  -16.2582   27.4706 C   0  0  0  0  0  0  0  0  0  0  0  0
   10.0970  -17.0322   26.4650 C   0  0  2  0  0  0  0  0  0  0  0  0
    9.7267  -16.1429   25.3754 N   0  0  0  0  0  0  0  0  0  0  0  0
    8.9431  -17.7069   27.0644 C   0  0  0  0  0  0  0  0  0  0  0  0
    9.0147  -18.8340   27.8530 O   0  0  0  0  0  0  0  0  0  0  0  0
    7.7957  -17.1924   26.8218 O   0  0  0  0  0  0  0  0  0  0  0  0
  2  1  1  1
  2  3  1  0
  4  2  1  0
  4  6  1  0
  4  5  1  6
  6  7  2  0
  8  9  1  0
  8  6  1  0
  9 17  1  0
  9 10  1  6
 11 10  1  0
 11 16  2  0
 12 11  1  0
 13 12  2  0
 13 14  1  0
 14 15  2  0
 15 16  1  0
 17 18  2  0
 20 19  1  0
 20 21  1  0
 21 22  1  0
 23 22  1  1
 23 25  1  0
 24 17  1  0
 24 23  1  0
 25 27  2  0
 25 26  1  0
M  END
$$$$
