TFM.pdb
     RDKit          3D

 27 27  0  0  1  0  0  0  0  0999 V2000
   10.1612  -19.8729   20.9980 C   0  0  0  0  0  0  0  0  0  0  0  0
   11.0652  -18.9499   20.2215 C   0  0  1  0  0  0  0  0  0  0  0  0
   11.3308  -19.6352   19.0095 O   0  0  0  0  0  0  0  0  0  0  0  0
   10.3969  -17.6238   19.9147 C   0  0  2  0  0  0  0  0  0  0  0  0
   11.3975  -16.8735   19.1400 N   0  0  0  0  0  0  0  0  0  0  0  0
   10.1958  -16.8549   21.1696 C   0  0  0  0  0  0  0  0  0  0  0  0
   11.1968  -16.3397   21.7841 O   0  0  0  0  0  0  0  0  0  0  0  0
    8.9420  -16.6248   21.7808 N   0  0  0  0  0  0  0  0  0  0  0  0
    8.7778  -15.8482   23.0099 C   0  0  1  0  0  0  0  0  0  0  0  0
    7.4539  -15.1488   22.9873 C   0  0  0  0  0  0  0  0  0  0  0  0
    7.1214  -14.3810   24.1735 C   0  0  0  0  0  0  0  0  0  0  0  0
    7.4985  -13.0692   24.3005 C   0  0  0  0  0  0  0  0  0  0  0  0
    7.1895  -12.3333   25.4242 C   0  0  0  0  0  0  0  0  0  0  0  0
    6.4855  -12.8886   26.4709 C   0  0  0  0  0  0  0  0  0  0  0  0
    6.0998  -14.2068   26.3571 C   0  0  0  0  0  0  0  0  0  0  0  0
    6.4209  -14.9422   25.2093 C   0  0  0  0  0  0  0  0  0  0  0  0
    9.0644  -16.6318   24.2071 C   0  0  0  0  0  0  0  0  0  0  0  0
    8.7178  -17.8502   24.3501 O   0  0  0  0  0  0  0  0  0  0  0  0
   10.3117  -13.8316   29.6549 C   0  0  0  0  0  0  0  0  0  0  0  0
   10.8942  -13.2975   28.0237 S   0  0  0  0  0  0  0  0  0  0  0  0
   11.4417  -14.7675   27.0689 C   0  0  0  0  0  0  0  0  0  0  0  0
   10.6735  -15.9511   27.5583 C   0  0  0  0  0  0  0  0  0  0  0  0
   10.1914  -16.8755   26.4462 C   0  0  2  0  0  0  0  0  0  0  0  0
    9.7677  -16.0694   25.3122 N   0  0  0  0  0  0  0  0  0  0  0  0
    9.1672  -17.8293   26.8789 C   0  0  0  0  0  0  0  0  0  0  0  0
    9.4192  -18.9884   27.5792 O   0  0  0  0  0  0  0  0  0  0  0  0
    7.9577  -17.5422   26.5709 O   0  0  0  0  0  0  0  0  0  0  0  0
  2  1  1  1
  2  3  1  0
  4  2  1  0
  4  6  1  0
  4  5  1  6
  6  7  2  0
  8  9  1  0
  8  6  1  0
  9 17  1  0
  9 10  1  1
 11 10  1  0
 11 16  2  0
 12 11  1  0
 13 12  2  0
 13 14  1  0
 14 15  2  0
 15 16  1  0
 17 18  2  0
 20 19  1  0
 20 21  1  0
 21 22  1  0
 23 22  1  1
 23 25  1  0
 24 17  1  0
 24 23  1  0
 25 27  2  0
 25 26  1  0
M  END
$$$$
