TFM.pdb
     RDKit          3D

 27 27  0  0  1  0  0  0  0  0999 V2000
    6.0240  -20.7698   24.4819 C   0  0  0  0  0  0  0  0  0  0  0  0
    6.9568  -19.6132   24.2279 C   0  0  1  0  0  0  0  0  0  0  0  0
    8.2320  -20.2061   24.0507 O   0  0  0  0  0  0  0  0  0  0  0  0
    6.5809  -18.8429   22.9770 C   0  0  2  0  0  0  0  0  0  0  0  0
    6.7665  -19.8038   21.8786 N   0  0  0  0  0  0  0  0  0  0  0  0
    7.5646  -17.7563   22.7357 C   0  0  0  0  0  0  0  0  0  0  0  0
    8.5587  -17.9426   21.9469 O   0  0  0  0  0  0  0  0  0  0  0  0
    7.5049  -16.4713   23.3218 N   0  0  0  0  0  0  0  0  0  0  0  0
    8.4718  -15.4114   23.0344 C   0  0  1  0  0  0  0  0  0  0  0  0
    7.7917  -14.0794   23.1095 C   0  0  0  0  0  0  0  0  0  0  0  0
    7.2605  -13.7104   24.4091 C   0  0  0  0  0  0  0  0  0  0  0  0
    6.4590  -14.5663   25.1190 C   0  0  0  0  0  0  0  0  0  0  0  0
    5.9481  -14.2234   26.3523 C   0  0  0  0  0  0  0  0  0  0  0  0
    6.2234  -13.0003   26.9250 C   0  0  0  0  0  0  0  0  0  0  0  0
    7.0280  -12.1295   26.2225 C   0  0  0  0  0  0  0  0  0  0  0  0
    7.5400  -12.4916   24.9703 C   0  0  0  0  0  0  0  0  0  0  0  0
    9.6965  -15.5469   23.8161 C   0  0  0  0  0  0  0  0  0  0  0  0
   10.7767  -14.9270   23.5444 O   0  0  0  0  0  0  0  0  0  0  0  0
    9.7768  -12.5755   28.7527 C   0  0  0  0  0  0  0  0  0  0  0  0
   11.0977  -13.6690   28.1658 S   0  0  0  0  0  0  0  0  0  0  0  0
   10.3626  -15.0077   27.1462 C   0  0  0  0  0  0  0  0  0  0  0  0
   11.4776  -15.8139   26.5653 C   0  0  0  0  0  0  0  0  0  0  0  0
   11.0245  -16.8332   25.5263 C   0  0  2  0  0  0  0  0  0  0  0  0
    9.7585  -16.3980   24.9581 N   0  0  0  0  0  0  0  0  0  0  0  0
   10.9768  -18.2066   26.0338 C   0  0  0  0  0  0  0  0  0  0  0  0
   12.0729  -18.9272   26.4541 O   0  0  0  0  0  0  0  0  0  0  0  0
    9.8204  -18.7550   26.0794 O   0  0  0  0  0  0  0  0  0  0  0  0
  2  1  1  6
  2  3  1  0
  4  2  1  0
  4  6  1  0
  4  5  1  6
  6  7  2  0
  8  9  1  0
  8  6  1  0
  9 17  1  0
  9 10  1  1
 11 10  1  0
 11 16  2  0
 12 11  1  0
 13 12  2  0
 13 14  1  0
 14 15  2  0
 15 16  1  0
 17 18  2  0
 20 19  1  0
 20 21  1  0
 21 22  1  0
 23 22  1  1
 23 25  1  0
 24 17  1  0
 24 23  1  0
 25 27  2  0
 25 26  1  0
M  END
$$$$
