TFM.pdb
     RDKit          3D

 27 27  0  0  1  0  0  0  0  0999 V2000
   11.9655  -17.5882   18.9494 C   0  0  0  0  0  0  0  0  0  0  0  0
   10.4916  -17.8656   19.0999 C   0  0  1  0  0  0  0  0  0  0  0  0
   10.2106  -18.8708   18.1408 O   0  0  0  0  0  0  0  0  0  0  0  0
   10.1476  -18.3796   20.4844 C   0  0  2  0  0  0  0  0  0  0  0  0
    8.7656  -18.8700   20.3663 N   0  0  0  0  0  0  0  0  0  0  0  0
   10.0958  -17.2491   21.4466 C   0  0  0  0  0  0  0  0  0  0  0  0
   11.1354  -16.5289   21.6602 O   0  0  0  0  0  0  0  0  0  0  0  0
    8.9511  -16.8724   22.1855 N   0  0  0  0  0  0  0  0  0  0  0  0
    8.9029  -15.6893   23.0449 C   0  0  1  0  0  0  0  0  0  0  0  0
    7.4849  -15.4147   23.4401 C   0  0  0  0  0  0  0  0  0  0  0  0
    7.2866  -14.3206   24.3733 C   0  0  0  0  0  0  0  0  0  0  0  0
    6.6117  -14.5046   25.5521 C   0  0  0  0  0  0  0  0  0  0  0  0
    6.4165  -13.4711   26.4428 C   0  0  0  0  0  0  0  0  0  0  0  0
    6.8941  -12.2044   26.1837 C   0  0  0  0  0  0  0  0  0  0  0  0
    7.5747  -12.0046   25.0021 C   0  0  0  0  0  0  0  0  0  0  0  0
    7.7654  -13.0643   24.1066 C   0  0  0  0  0  0  0  0  0  0  0  0
    9.8681  -15.7540   24.1375 C   0  0  0  0  0  0  0  0  0  0  0  0
   10.7054  -14.8272   24.3925 O   0  0  0  0  0  0  0  0  0  0  0  0
    8.9518  -13.4375   28.6644 C   0  0  0  0  0  0  0  0  0  0  0  0
   10.5713  -14.0400   29.2115 S   0  0  0  0  0  0  0  0  0  0  0  0
   10.8921  -15.6802   28.4505 C   0  0  0  0  0  0  0  0  0  0  0  0
   10.3079  -15.6761   27.0760 C   0  0  0  0  0  0  0  0  0  0  0  0
   10.7238  -16.8713   26.2261 C   0  0  2  0  0  0  0  0  0  0  0  0
    9.9316  -16.8823   25.0065 N   0  0  0  0  0  0  0  0  0  0  0  0
   10.6771  -18.1468   26.9450 C   0  0  0  0  0  0  0  0  0  0  0  0
   11.5618  -18.5259   27.9305 O   0  0  0  0  0  0  0  0  0  0  0  0
    9.7365  -18.9507   26.6143 O   0  0  0  0  0  0  0  0  0  0  0  0
  2  1  1  1
  2  3  1  0
  4  2  1  0
  4  6  1  0
  4  5  1  6
  6  7  2  0
  8  9  1  0
  8  6  1  0
  9 17  1  0
  9 10  1  1
 11 10  1  0
 11 16  2  0
 12 11  1  0
 13 12  2  0
 13 14  1  0
 14 15  2  0
 15 16  1  0
 17 18  2  0
 20 19  1  0
 20 21  1  0
 21 22  1  0
 23 22  1  1
 23 25  1  0
 24 17  1  0
 24 23  1  0
 25 27  2  0
 25 26  1  0
M  END
$$$$
