TFM.pdb
     RDKit          3D

 27 27  0  0  1  0  0  0  0  0999 V2000
    9.5063  -19.5814   20.6837 C   0  0  0  0  0  0  0  0  0  0  0  0
   10.6242  -18.8040   20.0369 C   0  0  1  0  0  0  0  0  0  0  0  0
   10.8541  -19.4577   18.8004 O   0  0  0  0  0  0  0  0  0  0  0  0
   10.2388  -17.3602   19.7797 C   0  0  2  0  0  0  0  0  0  0  0  0
   11.4241  -16.7669   19.1415 N   0  0  0  0  0  0  0  0  0  0  0  0
   10.0709  -16.6426   21.0695 C   0  0  0  0  0  0  0  0  0  0  0  0
   11.0951  -16.3044   21.7635 O   0  0  0  0  0  0  0  0  0  0  0  0
    8.8264  -16.2778   21.6319 N   0  0  0  0  0  0  0  0  0  0  0  0
    8.6989  -15.5002   22.8647 C   0  0  1  0  0  0  0  0  0  0  0  0
    7.3727  -14.8050   22.8834 C   0  0  0  0  0  0  0  0  0  0  0  0
    7.1031  -13.9836   24.0496 C   0  0  0  0  0  0  0  0  0  0  0  0
    6.4822  -14.5017   25.1564 C   0  0  0  0  0  0  0  0  0  0  0  0
    6.2199  -13.7287   26.2670 C   0  0  0  0  0  0  0  0  0  0  0  0
    6.5728  -12.3970   26.3104 C   0  0  0  0  0  0  0  0  0  0  0  0
    7.1977  -11.8625   25.2045 C   0  0  0  0  0  0  0  0  0  0  0  0
    7.4578  -12.6601   24.0832 C   0  0  0  0  0  0  0  0  0  0  0  0
    9.0259  -16.2814   24.0531 C   0  0  0  0  0  0  0  0  0  0  0  0
    8.8031  -17.5323   24.1561 O   0  0  0  0  0  0  0  0  0  0  0  0
   10.6362  -13.3162   29.5339 C   0  0  0  0  0  0  0  0  0  0  0  0
   11.4286  -14.9004   29.9181 S   0  0  0  0  0  0  0  0  0  0  0  0
   10.8217  -16.1771   28.7459 C   0  0  0  0  0  0  0  0  0  0  0  0
   10.4669  -15.4984   27.4637 C   0  0  0  0  0  0  0  0  0  0  0  0
    9.9906  -16.4514   26.3734 C   0  0  2  0  0  0  0  0  0  0  0  0
    9.6305  -15.6788   25.1948 N   0  0  0  0  0  0  0  0  0  0  0  0
    8.9220  -17.3538   26.8089 C   0  0  0  0  0  0  0  0  0  0  0  0
    9.1180  -18.6325   27.2822 O   0  0  0  0  0  0  0  0  0  0  0  0
    7.7277  -16.8975   26.7336 O   0  0  0  0  0  0  0  0  0  0  0  0
  2  1  1  6
  2  3  1  0
  4  2  1  0
  4  6  1  0
  4  5  1  6
  6  7  2  0
  8  9  1  0
  8  6  1  0
  9 17  1  0
  9 10  1  1
 11 10  1  0
 11 16  2  0
 12 11  1  0
 13 12  2  0
 13 14  1  0
 14 15  2  0
 15 16  1  0
 17 18  2  0
 20 19  1  0
 20 21  1  0
 21 22  1  0
 23 22  1  1
 23 25  1  0
 24 17  1  0
 24 23  1  0
 25 27  2  0
 25 26  1  0
M  END
$$$$
