TFM.pdb
     RDKit          3D

 27 27  0  0  1  0  0  0  0  0999 V2000
    9.9134  -19.6456   20.9916 C   0  0  0  0  0  0  0  0  0  0  0  0
   10.8375  -18.8409   20.1136 C   0  0  1  0  0  0  0  0  0  0  0  0
   11.0264  -19.6381   18.9569 O   0  0  0  0  0  0  0  0  0  0  0  0
   10.2288  -17.5105   19.7151 C   0  0  2  0  0  0  0  0  0  0  0  0
   11.2548  -16.8675   18.8796 N   0  0  0  0  0  0  0  0  0  0  0  0
   10.0780  -16.6431   20.9114 C   0  0  0  0  0  0  0  0  0  0  0  0
   11.1013  -16.0746   21.4356 O   0  0  0  0  0  0  0  0  0  0  0  0
    8.8513  -16.3702   21.5587 N   0  0  0  0  0  0  0  0  0  0  0  0
    8.7432  -15.5397   22.7585 C   0  0  1  0  0  0  0  0  0  0  0  0
    7.3827  -14.9168   22.8155 C   0  0  0  0  0  0  0  0  0  0  0  0
    7.0562  -14.2167   24.0445 C   0  0  0  0  0  0  0  0  0  0  0  0
    7.5219  -12.9505   24.2871 C   0  0  0  0  0  0  0  0  0  0  0  0
    7.2192  -12.2793   25.4523 C   0  0  0  0  0  0  0  0  0  0  0  0
    6.4322  -12.8563   26.4256 C   0  0  0  0  0  0  0  0  0  0  0  0
    5.9568  -14.1291   26.1953 C   0  0  0  0  0  0  0  0  0  0  0  0
    6.2727  -14.7990   25.0066 C   0  0  0  0  0  0  0  0  0  0  0  0
    9.1739  -16.2416   23.9631 C   0  0  0  0  0  0  0  0  0  0  0  0
    8.8797  -17.4567   24.2126 O   0  0  0  0  0  0  0  0  0  0  0  0
    9.4391  -13.5943   29.8542 C   0  0  0  0  0  0  0  0  0  0  0  0
   11.0154  -14.4887   29.8338 S   0  0  0  0  0  0  0  0  0  0  0  0
   10.9208  -15.8475   28.6020 C   0  0  0  0  0  0  0  0  0  0  0  0
   10.5560  -15.2522   27.2818 C   0  0  0  0  0  0  0  0  0  0  0  0
   10.3923  -16.2790   26.1670 C   0  0  2  0  0  0  0  0  0  0  0  0
    9.9699  -15.5964   24.9542 N   0  0  0  0  0  0  0  0  0  0  0  0
    9.5159  -17.3973   26.5237 C   0  0  0  0  0  0  0  0  0  0  0  0
    8.1447  -17.3934   26.3923 O   0  0  0  0  0  0  0  0  0  0  0  0
   10.0905  -18.4425   26.9900 O   0  0  0  0  0  0  0  0  0  0  0  0
  2  1  1  1
  2  3  1  0
  4  2  1  0
  4  6  1  0
  4  5  1  6
  6  7  2  0
  8  9  1  0
  8  6  1  0
  9 17  1  0
  9 10  1  1
 11 10  1  0
 11 16  2  0
 12 11  1  0
 13 12  2  0
 13 14  1  0
 14 15  2  0
 15 16  1  0
 17 18  2  0
 20 19  1  0
 20 21  1  0
 21 22  1  0
 23 22  1  1
 23 25  1  0
 24 17  1  0
 24 23  1  0
 25 27  2  0
 25 26  1  0
M  END
$$$$
