TFM.pdb
     RDKit          3D

 27 27  0  0  1  0  0  0  0  0999 V2000
   10.2686  -19.6082   18.5010 C   0  0  0  0  0  0  0  0  0  0  0  0
   10.1921  -18.8023   19.7726 C   0  0  1  0  0  0  0  0  0  0  0  0
   11.3575  -19.1555   20.4980 O   0  0  0  0  0  0  0  0  0  0  0  0
   10.1996  -17.3103   19.5021 C   0  0  2  0  0  0  0  0  0  0  0  0
   11.5526  -17.0307   18.9966 N   0  0  0  0  0  0  0  0  0  0  0  0
   10.0818  -16.5626   20.7802 C   0  0  0  0  0  0  0  0  0  0  0  0
   11.1305  -16.1371   21.3837 O   0  0  0  0  0  0  0  0  0  0  0  0
    8.8615  -16.2593   21.4262 N   0  0  0  0  0  0  0  0  0  0  0  0
    8.7844  -15.5823   22.7210 C   0  0  1  0  0  0  0  0  0  0  0  0
    7.4389  -14.9426   22.8723 C   0  0  0  0  0  0  0  0  0  0  0  0
    7.2046  -14.2459   24.1241 C   0  0  0  0  0  0  0  0  0  0  0  0
    6.5384  -14.8484   25.1596 C   0  0  0  0  0  0  0  0  0  0  0  0
    6.3092  -14.1937   26.3505 C   0  0  0  0  0  0  0  0  0  0  0  0
    6.7423  -12.9006   26.5502 C   0  0  0  0  0  0  0  0  0  0  0  0
    7.4136  -12.2822   25.5176 C   0  0  0  0  0  0  0  0  0  0  0  0
    7.6393  -12.9598   24.3130 C   0  0  0  0  0  0  0  0  0  0  0  0
    9.2113  -16.4374   23.8237 C   0  0  0  0  0  0  0  0  0  0  0  0
    8.9703  -17.6880   23.8782 O   0  0  0  0  0  0  0  0  0  0  0  0
    9.4255  -13.0746   29.3495 C   0  0  0  0  0  0  0  0  0  0  0  0
   10.7838  -14.2574   29.1472 S   0  0  0  0  0  0  0  0  0  0  0  0
   10.1881  -15.6983   28.1770 C   0  0  0  0  0  0  0  0  0  0  0  0
   11.1337  -15.9160   27.0417 C   0  0  0  0  0  0  0  0  0  0  0  0
   10.5631  -16.7779   25.9213 C   0  0  2  0  0  0  0  0  0  0  0  0
    9.9425  -15.9136   24.9297 N   0  0  0  0  0  0  0  0  0  0  0  0
    9.6662  -17.8355   26.3935 C   0  0  0  0  0  0  0  0  0  0  0  0
   10.0800  -19.0356   26.9282 O   0  0  0  0  0  0  0  0  0  0  0  0
    8.4109  -17.6034   26.2900 O   0  0  0  0  0  0  0  0  0  0  0  0
  2  1  1  6
  2  3  1  0
  4  2  1  0
  4  6  1  0
  4  5  1  1
  6  7  2  0
  8  9  1  0
  8  6  1  0
  9 17  1  0
  9 10  1  1
 11 10  1  0
 11 16  2  0
 12 11  1  0
 13 12  2  0
 13 14  1  0
 14 15  2  0
 15 16  1  0
 17 18  2  0
 20 19  1  0
 20 21  1  0
 21 22  1  0
 23 22  1  1
 23 25  1  0
 24 17  1  0
 24 23  1  0
 25 27  2  0
 25 26  1  0
M  END
$$$$
