TFM.pdb
     RDKit          3D

 27 27  0  0  1  0  0  0  0  0999 V2000
   10.0504  -19.5587   21.3874 C   0  0  0  0  0  0  0  0  0  0  0  0
   11.0588  -18.7884   20.5737 C   0  0  1  0  0  0  0  0  0  0  0  0
   11.3081  -19.6009   19.4393 O   0  0  0  0  0  0  0  0  0  0  0  0
   10.5195  -17.4449   20.1228 C   0  0  2  0  0  0  0  0  0  0  0  0
   11.6408  -16.8147   19.4087 N   0  0  0  0  0  0  0  0  0  0  0  0
   10.2546  -16.5827   21.3030 C   0  0  0  0  0  0  0  0  0  0  0  0
   11.2243  -16.0334   21.9378 O   0  0  0  0  0  0  0  0  0  0  0  0
    8.9699  -16.2949   21.8179 N   0  0  0  0  0  0  0  0  0  0  0  0
    8.7497  -15.5575   23.0622 C   0  0  1  0  0  0  0  0  0  0  0  0
    7.4691  -14.7871   22.9679 C   0  0  0  0  0  0  0  0  0  0  0  0
    7.0794  -14.0554   24.1596 C   0  0  0  0  0  0  0  0  0  0  0  0
    7.5115  -12.7733   24.3801 C   0  0  0  0  0  0  0  0  0  0  0  0
    7.1488  -12.0720   25.5098 C   0  0  0  0  0  0  0  0  0  0  0  0
    6.3329  -12.6335   26.4684 C   0  0  0  0  0  0  0  0  0  0  0  0
    5.8908  -13.9220   26.2599 C   0  0  0  0  0  0  0  0  0  0  0  0
    6.2677  -14.6224   25.1073 C   0  0  0  0  0  0  0  0  0  0  0  0
    8.9013  -16.4000   24.2440 C   0  0  0  0  0  0  0  0  0  0  0  0
    8.2713  -17.4953   24.4127 O   0  0  0  0  0  0  0  0  0  0  0  0
    9.8285  -12.7534   28.6447 C   0  0  0  0  0  0  0  0  0  0  0  0
   11.1558  -13.9377   28.9924 S   0  0  0  0  0  0  0  0  0  0  0  0
   11.3292  -15.0833   27.5676 C   0  0  0  0  0  0  0  0  0  0  0  0
   10.2656  -16.1259   27.6786 C   0  0  0  0  0  0  0  0  0  0  0  0
   10.0701  -16.9443   26.4075 C   0  0  2  0  0  0  0  0  0  0  0  0
    9.7853  -16.0415   25.3033 N   0  0  0  0  0  0  0  0  0  0  0  0
    9.0723  -18.0084   26.5427 C   0  0  0  0  0  0  0  0  0  0  0  0
    7.8061  -17.9711   26.0015 O   0  0  0  0  0  0  0  0  0  0  0  0
    9.4273  -19.0369   27.2182 O   0  0  0  0  0  0  0  0  0  0  0  0
  2  1  1  1
  2  3  1  0
  4  2  1  0
  4  6  1  0
  4  5  1  6
  6  7  2  0
  8  9  1  0
  8  6  1  0
  9 17  1  0
  9 10  1  6
 11 10  1  0
 11 16  2  0
 12 11  1  0
 13 12  2  0
 13 14  1  0
 14 15  2  0
 15 16  1  0
 17 18  2  0
 20 19  1  0
 20 21  1  0
 21 22  1  0
 23 22  1  1
 23 25  1  0
 24 17  1  0
 24 23  1  0
 25 27  2  0
 25 26  1  0
M  END
$$$$
