NTH.pdb
     RDKit          3D

 26 26  0  0  1  0  0  0  0  0999 V2000
   33.7971  -23.4758  -17.3291 N   0  0  0  0  0  0  0  0  0  0  0  0
   33.6556  -24.6713  -18.0845 C   0  0  0  0  0  0  0  0  0  0  0  0
   34.3821  -24.8868  -19.0799 O   0  0  0  0  0  0  0  0  0  0  0  0
   32.6468  -25.6890  -17.7123 C   0  0  0  0  0  0  0  0  0  0  0  0
   31.8996  -25.3594  -16.4646 C   0  0  2  0  0  0  0  0  0  0  0  0
   32.7541  -25.4244  -15.3097 N   0  0  0  0  0  0  0  0  0  0  0  0
   30.6875  -26.1510  -16.2498 C   0  0  0  0  0  0  0  0  0  0  0  0
   30.7770  -27.2497  -15.6164 O   0  0  0  0  0  0  0  0  0  0  0  0
   25.7151  -26.3971  -16.6998 C   0  0  0  0  0  0  0  0  0  0  0  0
   27.0365  -25.6967  -16.7342 C   0  0  1  0  0  0  0  0  0  0  0  0
   27.1096  -24.5972  -15.8975 O   0  0  0  0  0  0  0  0  0  0  0  0
   28.2029  -26.6346  -16.4720 C   0  0  2  0  0  0  0  0  0  0  0  0
   29.3924  -25.8111  -16.6858 N   0  0  0  0  0  0  0  0  0  0  0  0
   28.2029  -27.8340  -17.3147 C   0  0  0  0  0  0  0  0  0  0  0  0
   28.8252  -27.9079  -18.4196 O   0  0  0  0  0  0  0  0  0  0  0  0
   27.4917  -29.0001  -16.9299 N   0  0  0  0  0  0  0  0  0  0  0  0
   27.5579  -30.2386  -17.7111 C   0  0  1  0  0  0  0  0  0  0  0  0
   28.9888  -30.6138  -17.9102 C   0  0  0  0  0  0  0  0  0  0  0  0
   29.1438  -31.8122  -18.7429 C   0  0  0  0  0  0  0  0  0  0  0  0
   28.1713  -32.5345  -19.4094 C   0  0  0  0  0  0  0  0  0  0  0  0
   28.7630  -33.5586  -20.0453 N   0  0  0  0  0  0  0  0  0  0  0  0
   30.0794  -33.4815  -19.7843 C   0  0  0  0  0  0  0  0  0  0  0  0
   30.3166  -32.4292  -18.9982 N   0  0  0  0  0  0  0  0  0  0  0  0
   26.7150  -31.2862  -17.1213 C   0  0  0  0  0  0  0  0  0  0  0  0
   26.6973  -32.5774  -17.5813 O   0  0  0  0  0  0  0  0  0  0  0  0
   25.9747  -30.9820  -16.1484 O   0  0  0  0  0  0  0  0  0  0  0  0
  1  2  1  0
  2  3  2  0
  4  5  1  0
  4  2  1  0
  5  7  1  0
  5  6  1  1
  7  8  2  0
 10  9  1  1
 10 12  1  0
 11 10  1  0
 12 14  1  0
 13  7  1  0
 12 13  1  6
 14 15  2  0
 16 17  1  0
 16 14  1  0
 17 24  1  0
 18 19  1  0
 17 18  1  1
 19 23  1  0
 20 19  2  0
 20 21  1  0
 21 22  1  0
 23 22  2  0
 24 25  1  0
 26 24  2  0
M  END
$$$$
