NTH.pdb
     RDKit          3D

 26 26  0  0  1  0  0  0  0  0999 V2000
   18.4453   -8.2977  -16.2751 N   0  0  0  0  0  0  0  0  0  0  0  0
   17.9884   -9.5200  -15.7119 C   0  0  0  0  0  0  0  0  0  0  0  0
   17.6338  -10.4681  -16.4471 O   0  0  0  0  0  0  0  0  0  0  0  0
   17.9211   -9.7006  -14.2440 C   0  0  0  0  0  0  0  0  0  0  0  0
   18.3883   -8.5115  -13.4749 C   0  0  2  0  0  0  0  0  0  0  0  0
   19.8228   -8.4109  -13.4864 N   0  0  0  0  0  0  0  0  0  0  0  0
   17.8804   -8.4307  -12.1047 C   0  0  0  0  0  0  0  0  0  0  0  0
   18.2109   -9.3346  -11.2739 O   0  0  0  0  0  0  0  0  0  0  0  0
   18.2698   -5.8892   -9.4240 C   0  0  0  0  0  0  0  0  0  0  0  0
   16.8068   -6.0545   -9.6886 C   0  0  1  0  0  0  0  0  0  0  0  0
   16.2663   -5.0621  -10.4869 O   0  0  0  0  0  0  0  0  0  0  0  0
   16.4648   -7.4245  -10.2500 C   0  0  2  0  0  0  0  0  0  0  0  0
   17.0374   -7.4241  -11.5956 N   0  0  0  0  0  0  0  0  0  0  0  0
   15.0293   -7.7215  -10.2609 C   0  0  0  0  0  0  0  0  0  0  0  0
   14.2929   -7.5586  -11.2830 O   0  0  0  0  0  0  0  0  0  0  0  0
   14.3748   -8.2178   -9.1037 N   0  0  0  0  0  0  0  0  0  0  0  0
   12.9255   -8.4346   -9.0688 C   0  0  1  0  0  0  0  0  0  0  0  0
   12.6490   -9.7967   -8.5246 C   0  0  0  0  0  0  0  0  0  0  0  0
   12.9664  -10.8596   -9.4853 C   0  0  0  0  0  0  0  0  0  0  0  0
   13.4415  -10.7435  -10.7786 C   0  0  0  0  0  0  0  0  0  0  0  0
   13.5862  -11.9764  -11.2909 N   0  0  0  0  0  0  0  0  0  0  0  0
   13.2102  -12.8488  -10.3398 C   0  0  0  0  0  0  0  0  0  0  0  0
   12.8346  -12.1813   -9.2466 N   0  0  0  0  0  0  0  0  0  0  0  0
   12.2391   -7.3360   -8.3777 C   0  0  0  0  0  0  0  0  0  0  0  0
   10.8738   -7.2352   -8.3078 O   0  0  0  0  0  0  0  0  0  0  0  0
   12.9390   -6.4463   -7.8247 O   0  0  0  0  0  0  0  0  0  0  0  0
  1  2  1  0
  2  3  2  0
  4  5  1  0
  4  2  1  0
  5  7  1  0
  5  6  1  1
  7  8  2  0
 10  9  1  6
 10 12  1  0
 11 10  1  0
 12 14  1  0
 13  7  1  0
 12 13  1  6
 14 15  2  0
 16 17  1  0
 16 14  1  0
 17 24  1  0
 18 19  1  0
 17 18  1  1
 19 23  1  0
 20 19  2  0
 20 21  1  0
 21 22  1  0
 23 22  2  0
 24 25  1  0
 26 24  2  0
M  END
$$$$
