NTH.pdb
     RDKit          3D

 26 26  0  0  1  0  0  0  0  0999 V2000
   14.3930  -15.8454  -15.0396 N   0  0  0  0  0  0  0  0  0  0  0  0
   14.1741  -14.5084  -14.6104 C   0  0  0  0  0  0  0  0  0  0  0  0
   13.2589  -14.2400  -13.8007 O   0  0  0  0  0  0  0  0  0  0  0  0
   15.0222  -13.4025  -15.1102 C   0  0  0  0  0  0  0  0  0  0  0  0
   14.2510  -12.1831  -15.4869 C   0  0  2  0  0  0  0  0  0  0  0  0
   13.2569  -12.4790  -16.4830 N   0  0  0  0  0  0  0  0  0  0  0  0
   15.0711  -11.0450  -15.9044 C   0  0  0  0  0  0  0  0  0  0  0  0
   15.6010  -11.0622  -17.0599 O   0  0  0  0  0  0  0  0  0  0  0  0
   14.0891   -7.3962  -15.7955 C   0  0  0  0  0  0  0  0  0  0  0  0
   15.4186   -7.5395  -15.1250 C   0  0  1  0  0  0  0  0  0  0  0  0
   15.3567   -7.4969  -13.7434 O   0  0  0  0  0  0  0  0  0  0  0  0
   16.1724   -8.7784  -15.5789 C   0  0  2  0  0  0  0  0  0  0  0  0
   15.3422   -9.8974  -15.1347 N   0  0  0  0  0  0  0  0  0  0  0  0
   17.5406   -8.8657  -15.0601 C   0  0  0  0  0  0  0  0  0  0  0  0
   17.9078   -9.7345  -14.2092 O   0  0  0  0  0  0  0  0  0  0  0  0
   18.5473   -7.9637  -15.4922 N   0  0  0  0  0  0  0  0  0  0  0  0
   19.9483   -8.1191  -15.0901 C   0  0  1  0  0  0  0  0  0  0  0  0
   20.4137   -9.4875  -15.4625 C   0  0  0  0  0  0  0  0  0  0  0  0
   21.8310   -9.7026  -15.1487 C   0  0  0  0  0  0  0  0  0  0  0  0
   22.3877  -10.3582  -14.0661 C   0  0  0  0  0  0  0  0  0  0  0  0
   23.7248  -10.3115  -14.1821 N   0  0  0  0  0  0  0  0  0  0  0  0
   24.0025   -9.6409  -15.3135 C   0  0  0  0  0  0  0  0  0  0  0  0
   22.8635   -9.2702  -15.9024 N   0  0  0  0  0  0  0  0  0  0  0  0
   20.7746   -7.0187  -15.6022 C   0  0  0  0  0  0  0  0  0  0  0  0
   21.9836   -6.6757  -15.0548 O   0  0  0  0  0  0  0  0  0  0  0  0
   20.3508   -6.3609  -16.5895 O   0  0  0  0  0  0  0  0  0  0  0  0
  1  2  1  0
  2  3  2  0
  4  5  1  0
  4  2  1  0
  5  7  1  0
  5  6  1  6
  7  8  2  0
 10  9  1  6
 10 12  1  0
 11 10  1  0
 12 14  1  0
 13  7  1  0
 12 13  1  1
 14 15  2  0
 16 17  1  0
 16 14  1  0
 17 24  1  0
 18 19  1  0
 17 18  1  6
 19 23  1  0
 20 19  2  0
 20 21  1  0
 21 22  1  0
 23 22  2  0
 24 25  1  0
 26 24  2  0
M  END
$$$$
