NTH.pdb
     RDKit          3D

 26 26  0  0  1  0  0  0  0  0999 V2000
   29.0653  -18.5382  -17.9682 N   0  0  0  0  0  0  0  0  0  0  0  0
   28.2871  -18.3684  -16.7912 C   0  0  0  0  0  0  0  0  0  0  0  0
   28.5111  -17.4174  -16.0097 O   0  0  0  0  0  0  0  0  0  0  0  0
   27.1941  -19.3112  -16.4618 C   0  0  0  0  0  0  0  0  0  0  0  0
   27.5954  -20.3759  -15.4978 C   0  0  2  0  0  0  0  0  0  0  0  0
   28.3744  -21.3989  -16.1419 N   0  0  0  0  0  0  0  0  0  0  0  0
   26.4886  -20.9712  -14.7478 C   0  0  0  0  0  0  0  0  0  0  0  0
   25.7606  -21.8437  -15.3181 O   0  0  0  0  0  0  0  0  0  0  0  0
   25.6802  -19.7152  -10.8450 C   0  0  0  0  0  0  0  0  0  0  0  0
   25.3411  -21.1167  -11.2431 C   0  0  1  0  0  0  0  0  0  0  0  0
   24.3553  -21.6971  -10.4649 O   0  0  0  0  0  0  0  0  0  0  0  0
   24.9864  -21.2371  -12.7158 C   0  0  2  0  0  0  0  0  0  0  0  0
   26.1358  -20.6682  -13.4186 N   0  0  0  0  0  0  0  0  0  0  0  0
   23.7316  -20.5736  -13.0816 C   0  0  0  0  0  0  0  0  0  0  0  0
   23.6728  -19.3707  -13.4857 O   0  0  0  0  0  0  0  0  0  0  0  0
   22.4906  -21.2572  -13.0014 N   0  0  0  0  0  0  0  0  0  0  0  0
   21.2537  -20.6782  -13.5339 C   0  0  1  0  0  0  0  0  0  0  0  0
   21.0814  -21.1145  -14.9509 C   0  0  0  0  0  0  0  0  0  0  0  0
   21.8010  -20.2518  -15.8949 C   0  0  0  0  0  0  0  0  0  0  0  0
   22.5245  -19.1019  -15.6377 C   0  0  0  0  0  0  0  0  0  0  0  0
   23.0100  -18.6360  -16.7998 N   0  0  0  0  0  0  0  0  0  0  0  0
   22.6005  -19.4751  -17.7668 C   0  0  0  0  0  0  0  0  0  0  0  0
   21.8699  -20.4533  -17.2276 N   0  0  0  0  0  0  0  0  0  0  0  0
   20.1127  -20.9566  -12.6527 C   0  0  0  0  0  0  0  0  0  0  0  0
   19.0739  -20.0798  -12.4768 O   0  0  0  0  0  0  0  0  0  0  0  0
   20.0899  -22.0519  -12.0306 O   0  0  0  0  0  0  0  0  0  0  0  0
  1  2  1  0
  2  3  2  0
  4  5  1  0
  4  2  1  0
  5  7  1  0
  5  6  1  6
  7  8  2  0
 10  9  1  1
 10 12  1  0
 11 10  1  0
 12 14  1  0
 13  7  1  0
 12 13  1  6
 14 15  2  0
 16 17  1  0
 16 14  1  0
 17 24  1  0
 18 19  1  0
 17 18  1  6
 19 23  1  0
 20 19  2  0
 20 21  1  0
 21 22  1  0
 23 22  2  0
 24 25  1  0
 26 24  2  0
M  END
$$$$
