NTH.pdb
     RDKit          3D

 26 26  0  0  1  0  0  0  0  0999 V2000
   18.7496  -18.8501  -15.9127 N   0  0  0  0  0  0  0  0  0  0  0  0
   18.9012  -18.1004  -14.7149 C   0  0  0  0  0  0  0  0  0  0  0  0
   18.0463  -18.1728  -13.8043 O   0  0  0  0  0  0  0  0  0  0  0  0
   20.0724  -17.2169  -14.5159 C   0  0  0  0  0  0  0  0  0  0  0  0
   21.0184  -17.2122  -15.6687 C   0  0  2  0  0  0  0  0  0  0  0  0
   21.9229  -18.3286  -15.6085 N   0  0  0  0  0  0  0  0  0  0  0  0
   21.7588  -15.9625  -15.8478 C   0  0  0  0  0  0  0  0  0  0  0  0
   22.7619  -15.7318  -15.1015 O   0  0  0  0  0  0  0  0  0  0  0  0
   23.5583  -14.8554  -18.8679 C   0  0  0  0  0  0  0  0  0  0  0  0
   22.5924  -13.7763  -18.4934 C   0  0  1  0  0  0  0  0  0  0  0  0
   21.4207  -13.7933  -19.2291 O   0  0  0  0  0  0  0  0  0  0  0  0
   22.2788  -13.7618  -17.0067 C   0  0  2  0  0  0  0  0  0  0  0  0
   21.4660  -14.9582  -16.7905 N   0  0  0  0  0  0  0  0  0  0  0  0
   21.6003  -12.5440  -16.5536 C   0  0  0  0  0  0  0  0  0  0  0  0
   20.3380  -12.4492  -16.4480 O   0  0  0  0  0  0  0  0  0  0  0  0
   22.3362  -11.3827  -16.2018 N   0  0  0  0  0  0  0  0  0  0  0  0
   21.6739  -10.1564  -15.7478 C   0  0  1  0  0  0  0  0  0  0  0  0
   22.7031   -9.2125  -15.2208 C   0  0  0  0  0  0  0  0  0  0  0  0
   22.1243   -7.9348  -14.7899 C   0  0  0  0  0  0  0  0  0  0  0  0
   20.7935   -7.5641  -14.7300 C   0  0  0  0  0  0  0  0  0  0  0  0
   20.7238   -6.3008  -14.2798 N   0  0  0  0  0  0  0  0  0  0  0  0
   21.9838   -5.8864  -14.0614 C   0  0  0  0  0  0  0  0  0  0  0  0
   22.8348   -6.8681  -14.3674 N   0  0  0  0  0  0  0  0  0  0  0  0
   20.7991   -9.6061  -16.7907 C   0  0  0  0  0  0  0  0  0  0  0  0
   19.5323   -9.1477  -16.5373 O   0  0  0  0  0  0  0  0  0  0  0  0
   21.2347   -9.5541  -17.9716 O   0  0  0  0  0  0  0  0  0  0  0  0
  1  2  1  0
  2  3  2  0
  4  5  1  0
  4  2  1  0
  5  7  1  0
  5  6  1  1
  7  8  2  0
 10  9  1  1
 10 12  1  0
 11 10  1  0
 12 14  1  0
 13  7  1  0
 12 13  1  6
 14 15  2  0
 16 17  1  0
 16 14  1  0
 17 24  1  0
 18 19  1  0
 17 18  1  6
 19 23  1  0
 20 19  2  0
 20 21  1  0
 21 22  1  0
 23 22  2  0
 24 25  1  0
 26 24  2  0
M  END
$$$$
