NTH.pdb
     RDKit          3D

 26 26  0  0  1  0  0  0  0  0999 V2000
   18.8338  -12.4803  -19.6942 N   0  0  0  0  0  0  0  0  0  0  0  0
   17.8710  -11.9195  -18.8121 C   0  0  0  0  0  0  0  0  0  0  0  0
   16.6696  -11.8332  -19.1503 O   0  0  0  0  0  0  0  0  0  0  0  0
   18.2656  -11.4247  -17.4736 C   0  0  0  0  0  0  0  0  0  0  0  0
   19.6942  -11.6889  -17.1377 C   0  0  2  0  0  0  0  0  0  0  0  0
   19.8906  -13.0504  -16.7184 N   0  0  0  0  0  0  0  0  0  0  0  0
   20.2748  -10.7643  -16.1630 C   0  0  0  0  0  0  0  0  0  0  0  0
   19.7845  -10.7216  -14.9907 O   0  0  0  0  0  0  0  0  0  0  0  0
   23.5938  -10.8993  -14.8252 C   0  0  0  0  0  0  0  0  0  0  0  0
   23.4322   -9.5071  -15.3482 C   0  0  1  0  0  0  0  0  0  0  0  0
   24.0175   -9.3020  -16.5850 O   0  0  0  0  0  0  0  0  0  0  0  0
   21.9814   -9.0558  -15.3724 C   0  0  2  0  0  0  0  0  0  0  0  0
   21.3538   -9.8900  -16.3965 N   0  0  0  0  0  0  0  0  0  0  0  0
   21.8077   -7.6256  -15.6424 C   0  0  0  0  0  0  0  0  0  0  0  0
   21.8102   -7.1333  -16.8135 O   0  0  0  0  0  0  0  0  0  0  0  0
   21.6236   -6.6972  -14.5851 N   0  0  0  0  0  0  0  0  0  0  0  0
   21.4117   -5.2691  -14.8389 C   0  0  1  0  0  0  0  0  0  0  0  0
   19.9767   -4.9381  -14.5960 C   0  0  0  0  0  0  0  0  0  0  0  0
   19.0980   -5.4377  -15.6599 C   0  0  0  0  0  0  0  0  0  0  0  0
   19.2333   -5.3013  -17.0292 C   0  0  0  0  0  0  0  0  0  0  0  0
   18.1951   -5.9128  -17.6222 N   0  0  0  0  0  0  0  0  0  0  0  0
   17.4238   -6.4227  -16.6464 C   0  0  0  0  0  0  0  0  0  0  0  0
   17.9631   -6.1395  -15.4587 N   0  0  0  0  0  0  0  0  0  0  0  0
   22.3754   -4.4474  -14.0959 C   0  0  0  0  0  0  0  0  0  0  0  0
   22.5007   -3.0947  -14.2791 O   0  0  0  0  0  0  0  0  0  0  0  0
   23.1201   -5.0137  -13.2522 O   0  0  0  0  0  0  0  0  0  0  0  0
  1  2  1  0
  2  3  2  0
  4  5  1  0
  4  2  1  0
  5  7  1  0
  5  6  1  1
  7  8  2  0
 10  9  1  6
 10 12  1  0
 11 10  1  0
 12 14  1  0
 13  7  1  0
 12 13  1  6
 14 15  2  0
 16 17  1  0
 16 14  1  0
 17 24  1  0
 18 19  1  0
 17 18  1  1
 19 23  1  0
 20 19  2  0
 20 21  1  0
 21 22  1  0
 23 22  2  0
 24 25  1  0
 26 24  2  0
M  END
$$$$
