NTH.pdb
     RDKit          3D

 26 26  0  0  1  0  0  0  0  0999 V2000
   14.9678  -15.9149  -16.5191 N   0  0  0  0  0  0  0  0  0  0  0  0
   15.0360  -14.8756  -15.5523 C   0  0  0  0  0  0  0  0  0  0  0  0
   13.9961  -14.4370  -15.0124 O   0  0  0  0  0  0  0  0  0  0  0  0
   16.3372  -14.2875  -15.1611 C   0  0  0  0  0  0  0  0  0  0  0  0
   17.4979  -14.8639  -15.8989 C   0  0  2  0  0  0  0  0  0  0  0  0
   17.7427  -16.2260  -15.5081 N   0  0  0  0  0  0  0  0  0  0  0  0
   18.7292  -14.0775  -15.8131 C   0  0  0  0  0  0  0  0  0  0  0  0
   19.4129  -14.1235  -14.7421 O   0  0  0  0  0  0  0  0  0  0  0  0
   21.7094  -14.2310  -18.0809 C   0  0  0  0  0  0  0  0  0  0  0  0
   21.2431  -12.8114  -18.0114 C   0  0  1  0  0  0  0  0  0  0  0  0
   20.4891  -12.4154  -19.1018 O   0  0  0  0  0  0  0  0  0  0  0  0
   20.5032  -12.5010  -16.7209 C   0  0  2  0  0  0  0  0  0  0  0  0
   19.2513  -13.2495  -16.8255 N   0  0  0  0  0  0  0  0  0  0  0  0
   20.2744  -11.0708  -16.4955 C   0  0  0  0  0  0  0  0  0  0  0  0
   19.2045  -10.4756  -16.8342 O   0  0  0  0  0  0  0  0  0  0  0  0
   21.2589  -10.2601  -15.8731 N   0  0  0  0  0  0  0  0  0  0  0  0
   21.0559   -8.8241  -15.6607 C   0  0  1  0  0  0  0  0  0  0  0  0
   22.0527   -8.3327  -14.6643 C   0  0  0  0  0  0  0  0  0  0  0  0
   21.9232   -6.8944  -14.4038 C   0  0  0  0  0  0  0  0  0  0  0  0
   20.9897   -6.0051  -14.9033 C   0  0  0  0  0  0  0  0  0  0  0  0
   21.2506   -4.7875  -14.4007 N   0  0  0  0  0  0  0  0  0  0  0  0
   22.3252   -4.9088  -13.6022 C   0  0  0  0  0  0  0  0  0  0  0  0
   22.7367   -6.1786  -13.5993 N   0  0  0  0  0  0  0  0  0  0  0  0
   21.0365   -8.0947  -16.9348 C   0  0  0  0  0  0  0  0  0  0  0  0
   20.1839   -7.0508  -17.1845 O   0  0  0  0  0  0  0  0  0  0  0  0
   21.8408   -8.4463  -17.8384 O   0  0  0  0  0  0  0  0  0  0  0  0
  1  2  1  0
  2  3  2  0
  4  5  1  0
  4  2  1  0
  5  7  1  0
  5  6  1  1
  7  8  2  0
 10  9  1  6
 10 12  1  0
 11 10  1  0
 12 14  1  0
 13  7  1  0
 12 13  1  6
 14 15  2  0
 16 17  1  0
 16 14  1  0
 17 24  1  0
 18 19  1  0
 17 18  1  1
 19 23  1  0
 20 19  2  0
 20 21  1  0
 21 22  1  0
 23 22  2  0
 24 25  1  0
 26 24  2  0
M  END
$$$$
