NTH.pdb
     RDKit          3D

 26 26  0  0  1  0  0  0  0  0999 V2000
   29.8497  -20.3364  -16.7034 N   0  0  0  0  0  0  0  0  0  0  0  0
   28.6520  -21.0091  -17.0675 C   0  0  0  0  0  0  0  0  0  0  0  0
   28.3712  -21.2058  -18.2707 O   0  0  0  0  0  0  0  0  0  0  0  0
   27.7090  -21.4927  -16.0336 C   0  0  0  0  0  0  0  0  0  0  0  0
   28.1708  -21.2367  -14.6390 C   0  0  2  0  0  0  0  0  0  0  0  0
   29.4166  -21.9025  -14.3693 N   0  0  0  0  0  0  0  0  0  0  0  0
   27.1875  -21.5506  -13.6014 C   0  0  0  0  0  0  0  0  0  0  0  0
   26.9601  -22.7696  -13.3208 O   0  0  0  0  0  0  0  0  0  0  0  0
   26.9500  -21.1254  -10.1487 C   0  0  0  0  0  0  0  0  0  0  0  0
   25.6854  -20.4865  -10.6286 C   0  0  1  0  0  0  0  0  0  0  0  0
   25.6968  -19.1044  -10.5646 O   0  0  0  0  0  0  0  0  0  0  0  0
   25.2910  -20.9443  -12.0228 C   0  0  2  0  0  0  0  0  0  0  0  0
   26.4442  -20.6130  -12.8588 N   0  0  0  0  0  0  0  0  0  0  0  0
   24.0544  -20.3352  -12.5214 C   0  0  0  0  0  0  0  0  0  0  0  0
   24.0355  -19.2909  -13.2443 O   0  0  0  0  0  0  0  0  0  0  0  0
   22.7866  -20.8944  -12.2149 N   0  0  0  0  0  0  0  0  0  0  0  0
   21.5696  -20.4829  -12.9207 C   0  0  1  0  0  0  0  0  0  0  0  0
   21.6760  -20.8879  -14.3534 C   0  0  0  0  0  0  0  0  0  0  0  0
   20.5018  -20.4889  -15.1378 C   0  0  0  0  0  0  0  0  0  0  0  0
   19.3786  -19.7972  -14.7234 C   0  0  0  0  0  0  0  0  0  0  0  0
   18.5548  -19.6549  -15.7744 N   0  0  0  0  0  0  0  0  0  0  0  0
   19.1476  -20.2446  -16.8269 C   0  0  0  0  0  0  0  0  0  0  0  0
   20.3238  -20.7504  -16.4498 N   0  0  0  0  0  0  0  0  0  0  0  0
   20.3654  -20.9565  -12.2268 C   0  0  0  0  0  0  0  0  0  0  0  0
   19.1962  -20.2421  -12.1884 O   0  0  0  0  0  0  0  0  0  0  0  0
   20.4115  -22.0706  -11.6403 O   0  0  0  0  0  0  0  0  0  0  0  0
  1  2  1  0
  2  3  2  0
  4  5  1  0
  4  2  1  0
  5  7  1  0
  5  6  1  1
  7  8  2  0
 10  9  1  6
 10 12  1  0
 11 10  1  0
 12 14  1  0
 13  7  1  0
 12 13  1  6
 14 15  2  0
 16 17  1  0
 16 14  1  0
 17 24  1  0
 18 19  1  0
 17 18  1  6
 19 23  1  0
 20 19  2  0
 20 21  1  0
 21 22  1  0
 23 22  2  0
 24 25  1  0
 26 24  2  0
M  END
$$$$
