LLQ.pdb
     RDKit          3D

 26 25  0  0  1  0  0  0  0  0999 V2000
   19.4301  -32.5654  -12.2362 C   0  0  0  0  0  0  0  0  0  0  0  0
   20.3547  -32.3514  -13.3887 C   0  0  1  0  0  0  0  0  0  0  0  0
   20.7752  -30.8962  -13.5091 C   0  0  0  0  0  0  0  0  0  0  0  0
   21.5435  -33.2770  -13.3916 C   0  0  0  0  0  0  0  0  0  0  0  0
   22.4776  -33.0311  -14.5440 C   0  0  2  0  0  0  0  0  0  0  0  0
   21.7966  -33.3557  -15.7620 N   0  0  0  0  0  0  0  0  0  0  0  0
   23.6854  -33.8569  -14.3367 C   0  0  0  0  0  0  0  0  0  0  0  0
   23.6863  -35.0564  -14.6819 O   0  0  0  0  0  0  0  0  0  0  0  0
   28.5513  -32.1590  -15.5739 C   0  0  0  0  0  0  0  0  0  0  0  0
   27.4224  -33.1312  -15.2924 C   0  0  1  0  0  0  0  0  0  0  0  0
   27.8028  -34.5014  -15.8284 C   0  0  0  0  0  0  0  0  0  0  0  0
   27.2669  -33.2336  -13.8050 C   0  0  0  0  0  0  0  0  0  0  0  0
   26.0412  -34.0797  -13.4574 C   0  0  2  0  0  0  0  0  0  0  0  0
   24.8472  -33.3083  -13.7505 N   0  0  0  0  0  0  0  0  0  0  0  0
   26.0207  -34.3484  -11.9808 C   0  0  0  0  0  0  0  0  0  0  0  0
   26.8428  -35.1171  -11.4191 O   0  0  0  0  0  0  0  0  0  0  0  0
   25.0181  -30.2478   -7.7395 N   0  0  0  0  0  0  0  0  0  0  0  0
   24.8473  -31.4142   -6.9646 C   0  0  0  0  0  0  0  0  0  0  0  0
   25.0137  -31.3401   -5.7236 O   0  0  0  0  0  0  0  0  0  0  0  0
   24.4799  -32.7234   -7.5526 C   0  0  0  0  0  0  0  0  0  0  0  0
   24.5140  -32.6555   -9.0496 C   0  0  0  0  0  0  0  0  0  0  0  0
   25.0616  -33.9010   -9.6848 C   0  0  2  0  0  0  0  0  0  0  0  0
   25.0423  -33.7239  -11.1454 N   0  0  0  0  0  0  0  0  0  0  0  0
   24.2513  -35.1009   -9.3775 C   0  0  0  0  0  0  0  0  0  0  0  0
   24.6508  -36.0423   -8.4430 O   0  0  0  0  0  0  0  0  0  0  0  0
   23.1621  -35.2918   -9.9718 O   0  0  0  0  0  0  0  0  0  0  0  0
  2  1  1  1
  3  2  1  0
  4  5  1  0
  4  2  1  0
  5  6  1  6
  7  8  2  0
  7  5  1  0
 10  9  1  1
 11 10  1  0
 12 10  1  0
 13 12  1  1
 13 14  1  0
 14  7  1  0
 15 16  2  0
 15 13  1  0
 18 17  1  0
 18 19  2  0
 20 21  1  0
 20 18  1  0
 22 21  1  1
 22 23  1  0
 23 15  1  0
 24 22  1  0
 25 24  1  0
 26 24  2  0
M  END
$$$$
