LLQ.pdb
     RDKit          3D

 26 25  0  0  1  0  0  0  0  0999 V2000
   24.6421  -20.8935   -8.2169 C   0  0  0  0  0  0  0  0  0  0  0  0
   24.3285  -21.1479   -9.6543 C   0  0  1  0  0  0  0  0  0  0  0  0
   22.8710  -20.8583   -9.9712 C   0  0  0  0  0  0  0  0  0  0  0  0
   25.2570  -20.4452  -10.6104 C   0  0  0  0  0  0  0  0  0  0  0  0
   24.8821  -20.6504  -12.0521 C   0  0  2  0  0  0  0  0  0  0  0  0
   24.7795  -22.0574  -12.3021 N   0  0  0  0  0  0  0  0  0  0  0  0
   25.9143  -20.0036  -12.8886 C   0  0  0  0  0  0  0  0  0  0  0  0
   26.0423  -18.7622  -12.8707 O   0  0  0  0  0  0  0  0  0  0  0  0
   30.5922  -21.8289  -12.4125 C   0  0  0  0  0  0  0  0  0  0  0  0
   29.3571  -20.9919  -12.6822 C   0  0  1  0  0  0  0  0  0  0  0  0
   29.6105  -19.5688  -12.2132 C   0  0  0  0  0  0  0  0  0  0  0  0
   29.1359  -20.9672  -14.1646 C   0  0  0  0  0  0  0  0  0  0  0  0
   27.8501  -20.2081  -14.4959 C   0  0  2  0  0  0  0  0  0  0  0  0
   26.7648  -20.7715  -13.7142 N   0  0  0  0  0  0  0  0  0  0  0  0
   27.4946  -20.4305  -15.9371 C   0  0  0  0  0  0  0  0  0  0  0  0
   28.2495  -20.0879  -16.8833 O   0  0  0  0  0  0  0  0  0  0  0  0
   27.3374  -24.3415  -16.3397 N   0  0  0  0  0  0  0  0  0  0  0  0
   25.9761  -24.5038  -16.6721 C   0  0  0  0  0  0  0  0  0  0  0  0
   25.3307  -25.4293  -16.1243 O   0  0  0  0  0  0  0  0  0  0  0  0
   25.2749  -23.6287  -17.6403 C   0  0  0  0  0  0  0  0  0  0  0  0
   26.2019  -22.5722  -18.1611 C   0  0  0  0  0  0  0  0  0  0  0  0
   25.8439  -21.1905  -17.6947 C   0  0  2  0  0  0  0  0  0  0  0  0
   26.2566  -21.0539  -16.2890 N   0  0  0  0  0  0  0  0  0  0  0  0
   24.3882  -20.9291  -17.7521 C   0  0  0  0  0  0  0  0  0  0  0  0
   23.7140  -20.7650  -18.9512 O   0  0  0  0  0  0  0  0  0  0  0  0
   23.7224  -20.8496  -16.6907 O   0  0  0  0  0  0  0  0  0  0  0  0
  2  1  1  1
  3  2  1  0
  4  5  1  0
  4  2  1  0
  5  6  1  6
  7  8  2  0
  7  5  1  0
 10  9  1  6
 11 10  1  0
 12 10  1  0
 13 12  1  1
 13 14  1  0
 14  7  1  0
 15 16  2  0
 15 13  1  0
 18 17  1  0
 18 19  2  0
 20 21  1  0
 20 18  1  0
 22 21  1  1
 22 23  1  0
 23 15  1  0
 24 22  1  0
 25 24  1  0
 26 24  2  0
M  END
$$$$
