LLQ.pdb
     RDKit          3D

 26 25  0  0  1  0  0  0  0  0999 V2000
   29.0422  -20.7246  -14.1395 C   0  0  0  0  0  0  0  0  0  0  0  0
   27.9548  -20.1021  -13.3275 C   0  0  1  0  0  0  0  0  0  0  0  0
   26.7452  -19.7562  -14.1795 C   0  0  0  0  0  0  0  0  0  0  0  0
   27.5695  -20.9063  -12.1132 C   0  0  0  0  0  0  0  0  0  0  0  0
   26.5212  -20.2337  -11.2706 C   0  0  2  0  0  0  0  0  0  0  0  0
   26.9363  -18.8868  -11.0133 N   0  0  0  0  0  0  0  0  0  0  0  0
   26.3593  -21.0199  -10.0300 C   0  0  0  0  0  0  0  0  0  0  0  0
   26.0337  -22.2232  -10.0933 O   0  0  0  0  0  0  0  0  0  0  0  0
   28.4071  -18.5770   -5.8248 C   0  0  0  0  0  0  0  0  0  0  0  0
   28.0420  -19.5489   -6.9298 C   0  0  1  0  0  0  0  0  0  0  0  0
   29.2753  -20.3501   -7.3129 C   0  0  0  0  0  0  0  0  0  0  0  0
   27.0153  -20.4958   -6.3855 C   0  0  0  0  0  0  0  0  0  0  0  0
   26.1321  -21.0267   -7.5158 C   0  0  2  0  0  0  0  0  0  0  0  0
   26.5682  -20.4289   -8.7644 N   0  0  0  0  0  0  0  0  0  0  0  0
   24.7173  -20.5742   -7.3003 C   0  0  0  0  0  0  0  0  0  0  0  0
   24.4296  -19.5099   -6.6947 O   0  0  0  0  0  0  0  0  0  0  0  0
   21.3013  -19.4132  -11.4913 N   0  0  0  0  0  0  0  0  0  0  0  0
   21.2636  -20.8066  -11.2745 C   0  0  0  0  0  0  0  0  0  0  0  0
   21.0481  -21.5607  -12.2534 O   0  0  0  0  0  0  0  0  0  0  0  0
   21.4673  -21.4187   -9.9409 C   0  0  0  0  0  0  0  0  0  0  0  0
   21.7394  -20.3618   -8.9134 C   0  0  0  0  0  0  0  0  0  0  0  0
   22.2319  -20.9192   -7.6091 C   0  0  2  0  0  0  0  0  0  0  0  0
   23.6249  -21.3576   -7.7884 N   0  0  0  0  0  0  0  0  0  0  0  0
   21.4549  -22.0975   -7.1634 C   0  0  0  0  0  0  0  0  0  0  0  0
   22.0321  -23.3475   -7.0093 O   0  0  0  0  0  0  0  0  0  0  0  0
   20.2304  -21.9832   -6.9110 O   0  0  0  0  0  0  0  0  0  0  0  0
  2  1  1  6
  3  2  1  0
  4  5  1  0
  4  2  1  0
  5  6  1  1
  7  8  2  0
  7  5  1  0
 10  9  1  1
 11 10  1  0
 12 10  1  0
 13 12  1  1
 13 14  1  0
 14  7  1  0
 15 16  2  0
 15 13  1  0
 18 17  1  0
 18 19  2  0
 20 21  1  0
 20 18  1  0
 22 21  1  6
 22 23  1  0
 23 15  1  0
 24 22  1  0
 25 24  1  0
 26 24  2  0
M  END
$$$$
