LLQ.pdb
     RDKit          3D

 26 25  0  0  1  0  0  0  0  0999 V2000
   17.9086  -10.0113  -21.2003 C   0  0  0  0  0  0  0  0  0  0  0  0
   18.9041  -11.0634  -20.8380 C   0  0  1  0  0  0  0  0  0  0  0  0
   20.0127  -11.1677  -21.8718 C   0  0  0  0  0  0  0  0  0  0  0  0
   19.4547  -10.9215  -19.4428 C   0  0  0  0  0  0  0  0  0  0  0  0
   20.5246  -11.9300  -19.1274 C   0  0  2  0  0  0  0  0  0  0  0  0
   19.9260  -13.2305  -19.0746 N   0  0  0  0  0  0  0  0  0  0  0  0
   21.1504  -11.5455  -17.8451 C   0  0  0  0  0  0  0  0  0  0  0  0
   20.6176  -11.8803  -16.7672 O   0  0  0  0  0  0  0  0  0  0  0  0
   25.5162  -11.0536  -14.8995 C   0  0  0  0  0  0  0  0  0  0  0  0
   25.3044   -9.8079  -15.7376 C   0  0  1  0  0  0  0  0  0  0  0  0
   26.6562   -9.2701  -16.1768 C   0  0  0  0  0  0  0  0  0  0  0  0
   24.5349  -10.2051  -16.9612 C   0  0  0  0  0  0  0  0  0  0  0  0
   23.0759  -10.4892  -16.6005 C   0  0  2  0  0  0  0  0  0  0  0  0
   22.3497  -10.8003  -17.8180 N   0  0  0  0  0  0  0  0  0  0  0  0
   22.4483   -9.2473  -16.0379 C   0  0  0  0  0  0  0  0  0  0  0  0
   22.7904   -8.7548  -14.9321 O   0  0  0  0  0  0  0  0  0  0  0  0
   23.1389   -5.1516  -14.0494 N   0  0  0  0  0  0  0  0  0  0  0  0
   22.2753   -4.3720  -14.8471 C   0  0  0  0  0  0  0  0  0  0  0  0
   21.9935   -3.2101  -14.4680 O   0  0  0  0  0  0  0  0  0  0  0  0
   21.6861   -4.8656  -16.1136 C   0  0  0  0  0  0  0  0  0  0  0  0
   22.0910   -6.2872  -16.3628 C   0  0  0  0  0  0  0  0  0  0  0  0
   20.9343   -7.2442  -16.3337 C   0  0  2  0  0  0  0  0  0  0  0  0
   21.4166   -8.5679  -16.7585 N   0  0  0  0  0  0  0  0  0  0  0  0
   19.8488   -6.8544  -17.2612 C   0  0  0  0  0  0  0  0  0  0  0  0
   18.7502   -6.1199  -16.8452 O   0  0  0  0  0  0  0  0  0  0  0  0
   19.9050   -7.1898  -18.4697 O   0  0  0  0  0  0  0  0  0  0  0  0
  2  1  1  6
  3  2  1  0
  4  5  1  0
  4  2  1  0
  5  6  1  1
  7  8  2  0
  7  5  1  0
 10  9  1  1
 11 10  1  0
 12 10  1  0
 13 12  1  6
 13 14  1  0
 14  7  1  0
 15 16  2  0
 15 13  1  0
 18 17  1  0
 18 19  2  0
 20 21  1  0
 20 18  1  0
 22 21  1  6
 22 23  1  0
 23 15  1  0
 24 22  1  0
 25 24  1  0
 26 24  2  0
M  END
$$$$
