LLQ.pdb
     RDKit          3D

 26 25  0  0  1  0  0  0  0  0999 V2000
   26.9783  -17.3718  -20.8941 C   0  0  0  0  0  0  0  0  0  0  0  0
   26.2260  -17.0285  -19.6509 C   0  0  1  0  0  0  0  0  0  0  0  0
   24.9414  -16.2785  -19.9606 C   0  0  0  0  0  0  0  0  0  0  0  0
   25.9784  -18.2085  -18.7475 C   0  0  0  0  0  0  0  0  0  0  0  0
   25.1461  -17.8632  -17.5437 C   0  0  2  0  0  0  0  0  0  0  0  0
   25.7870  -16.7952  -16.8357 N   0  0  0  0  0  0  0  0  0  0  0  0
   25.0077  -19.0820  -16.7196 C   0  0  0  0  0  0  0  0  0  0  0  0
   24.5352  -20.1225  -17.2214 O   0  0  0  0  0  0  0  0  0  0  0  0
   28.8198  -20.0029  -13.1188 C   0  0  0  0  0  0  0  0  0  0  0  0
   27.7416  -20.1213  -14.1781 C   0  0  1  0  0  0  0  0  0  0  0  0
   27.9586  -21.4031  -14.9654 C   0  0  0  0  0  0  0  0  0  0  0  0
   26.4201  -20.2168  -13.4771 C   0  0  0  0  0  0  0  0  0  0  0  0
   25.2804  -20.2469  -14.4967 C   0  0  2  0  0  0  0  0  0  0  0  0
   25.4038  -19.0897  -15.3641 N   0  0  0  0  0  0  0  0  0  0  0  0
   23.9671  -20.1046  -13.7841 C   0  0  0  0  0  0  0  0  0  0  0  0
   23.6727  -19.0916  -13.0989 O   0  0  0  0  0  0  0  0  0  0  0  0
   19.3002  -19.2983  -11.5967 N   0  0  0  0  0  0  0  0  0  0  0  0
   18.9297  -19.0585  -12.9366 C   0  0  0  0  0  0  0  0  0  0  0  0
   18.0475  -18.1982  -13.1706 O   0  0  0  0  0  0  0  0  0  0  0  0
   19.5372  -19.7784  -14.0800 C   0  0  0  0  0  0  0  0  0  0  0  0
   21.0331  -19.7322  -13.9954 C   0  0  0  0  0  0  0  0  0  0  0  0
   21.6250  -20.9450  -13.3371 C   0  0  2  0  0  0  0  0  0  0  0  0
   22.9850  -21.1412  -13.8632 N   0  0  0  0  0  0  0  0  0  0  0  0
   20.8609  -22.1796  -13.6249 C   0  0  0  0  0  0  0  0  0  0  0  0
   19.7353  -22.5372  -12.9007 O   0  0  0  0  0  0  0  0  0  0  0  0
   21.2273  -22.9428  -14.5520 O   0  0  0  0  0  0  0  0  0  0  0  0
  2  1  1  6
  3  2  1  0
  4  5  1  0
  4  2  1  0
  5  6  1  1
  7  8  2  0
  7  5  1  0
 10  9  1  1
 11 10  1  0
 12 10  1  0
 13 12  1  1
 13 14  1  0
 14  7  1  0
 15 16  2  0
 15 13  1  0
 18 17  1  0
 18 19  2  0
 20 21  1  0
 20 18  1  0
 22 21  1  6
 22 23  1  0
 23 15  1  0
 24 22  1  0
 25 24  1  0
 26 24  2  0
M  END
$$$$
