LLQ.pdb
     RDKit          3D

 26 25  0  0  1  0  0  0  0  0999 V2000
   29.0678  -33.9383   -0.3720 C   0  0  0  0  0  0  0  0  0  0  0  0
   28.0925  -34.8003   -1.1034 C   0  0  1  0  0  0  0  0  0  0  0  0
   27.4490  -35.8252   -0.1845 C   0  0  0  0  0  0  0  0  0  0  0  0
   27.0616  -34.0236   -1.8805 C   0  0  0  0  0  0  0  0  0  0  0  0
   26.1231  -34.9054   -2.6570 C   0  0  2  0  0  0  0  0  0  0  0  0
   26.8692  -36.0016   -3.1995 N   0  0  0  0  0  0  0  0  0  0  0  0
   25.4874  -34.0824   -3.7069 C   0  0  0  0  0  0  0  0  0  0  0  0
   25.0522  -32.9460   -3.4291 O   0  0  0  0  0  0  0  0  0  0  0  0
   25.1574  -31.3529   -7.8948 C   0  0  0  0  0  0  0  0  0  0  0  0
   25.3227  -32.7948   -8.3334 C   0  0  1  0  0  0  0  0  0  0  0  0
   26.3269  -32.8545   -9.4726 C   0  0  0  0  0  0  0  0  0  0  0  0
   25.8792  -33.5648   -7.1739 C   0  0  0  0  0  0  0  0  0  0  0  0
   24.7963  -33.7869   -6.1168 C   0  0  2  0  0  0  0  0  0  0  0  0
   25.3628  -34.5630   -5.0290 N   0  0  0  0  0  0  0  0  0  0  0  0
   23.6906  -34.6179   -6.6997 C   0  0  0  0  0  0  0  0  0  0  0  0
   23.0823  -34.2961   -7.7527 O   0  0  0  0  0  0  0  0  0  0  0  0
   24.3993  -37.0262  -10.4631 N   0  0  0  0  0  0  0  0  0  0  0  0
   23.9037  -38.2765  -10.0374 C   0  0  0  0  0  0  0  0  0  0  0  0
   23.7025  -39.1669  -10.8975 O   0  0  0  0  0  0  0  0  0  0  0  0
   23.6103  -38.5842   -8.6182 C   0  0  0  0  0  0  0  0  0  0  0  0
   23.9625  -37.4186   -7.7440 C   0  0  0  0  0  0  0  0  0  0  0  0
   22.8371  -36.9932   -6.8455 C   0  0  2  0  0  0  0  0  0  0  0  0
   23.2836  -35.8311   -6.0612 N   0  0  0  0  0  0  0  0  0  0  0  0
   22.4463  -38.0479   -5.8834 C   0  0  0  0  0  0  0  0  0  0  0  0
   22.4593  -37.8397   -4.5138 O   0  0  0  0  0  0  0  0  0  0  0  0
   22.0876  -39.1763   -6.3005 O   0  0  0  0  0  0  0  0  0  0  0  0
  2  1  1  1
  3  2  1  0
  4  5  1  0
  4  2  1  0
  5  6  1  6
  7  8  2  0
  7  5  1  0
 10  9  1  1
 11 10  1  0
 12 10  1  0
 13 12  1  6
 13 14  1  0
 14  7  1  0
 15 16  2  0
 15 13  1  0
 18 17  1  0
 18 19  2  0
 20 21  1  0
 20 18  1  0
 22 21  1  6
 22 23  1  0
 23 15  1  0
 24 22  1  0
 25 24  1  0
 26 24  2  0
M  END
$$$$
