LLQ.pdb
     RDKit          3D

 26 25  0  0  1  0  0  0  0  0999 V2000
   27.6928  -22.3639  -19.9574 C   0  0  0  0  0  0  0  0  0  0  0  0
   26.9746  -21.2805  -19.2229 C   0  0  1  0  0  0  0  0  0  0  0  0
   25.8334  -20.7055  -20.0450 C   0  0  0  0  0  0  0  0  0  0  0  0
   26.5208  -21.6817  -17.8435 C   0  0  0  0  0  0  0  0  0  0  0  0
   25.7818  -20.5864  -17.1256 C   0  0  2  0  0  0  0  0  0  0  0  0
   26.4763  -19.3513  -17.3372 N   0  0  0  0  0  0  0  0  0  0  0  0
   25.7029  -20.9504  -15.6956 C   0  0  0  0  0  0  0  0  0  0  0  0
   25.0737  -21.9702  -15.3464 O   0  0  0  0  0  0  0  0  0  0  0  0
   29.8962  -19.8919  -12.4477 C   0  0  0  0  0  0  0  0  0  0  0  0
   28.6913  -20.5684  -13.0716 C   0  0  1  0  0  0  0  0  0  0  0  0
   28.6243  -22.0073  -12.5870 C   0  0  0  0  0  0  0  0  0  0  0  0
   27.4650  -19.8520  -12.5919 C   0  0  0  0  0  0  0  0  0  0  0  0
   26.2206  -20.4096  -13.2847 C   0  0  2  0  0  0  0  0  0  0  0  0
   26.3318  -20.1583  -14.7098 N   0  0  0  0  0  0  0  0  0  0  0  0
   25.0080  -19.6601  -12.8151 C   0  0  0  0  0  0  0  0  0  0  0  0
   24.6812  -18.5379  -13.2801 O   0  0  0  0  0  0  0  0  0  0  0  0
   20.8810  -21.2398  -15.3887 N   0  0  0  0  0  0  0  0  0  0  0  0
   20.0689  -20.7206  -14.3586 C   0  0  0  0  0  0  0  0  0  0  0  0
   18.8280  -20.6777  -14.5364 O   0  0  0  0  0  0  0  0  0  0  0  0
   20.6176  -20.2237  -13.0754 C   0  0  0  0  0  0  0  0  0  0  0  0
   22.1085  -20.3760  -13.0471 C   0  0  0  0  0  0  0  0  0  0  0  0
   22.7250  -19.9124  -11.7587 C   0  0  2  0  0  0  0  0  0  0  0  0
   24.1651  -20.2112  -11.7997 N   0  0  0  0  0  0  0  0  0  0  0  0
   22.1662  -20.6071  -10.5773 C   0  0  0  0  0  0  0  0  0  0  0  0
   20.9905  -20.1993   -9.9684 O   0  0  0  0  0  0  0  0  0  0  0  0
   22.7611  -21.6015  -10.0942 O   0  0  0  0  0  0  0  0  0  0  0  0
  2  1  1  6
  3  2  1  0
  4  5  1  0
  4  2  1  0
  5  6  1  1
  7  8  2  0
  7  5  1  0
 10  9  1  1
 11 10  1  0
 12 10  1  0
 13 12  1  1
 13 14  1  0
 14  7  1  0
 15 16  2  0
 15 13  1  0
 18 17  1  0
 18 19  2  0
 20 21  1  0
 20 18  1  0
 22 21  1  6
 22 23  1  0
 23 15  1  0
 24 22  1  0
 25 24  1  0
 26 24  2  0
M  END
$$$$
