LLQ.pdb
     RDKit          3D

 26 25  0  0  1  0  0  0  0  0999 V2000
   30.1416  -17.7161  -17.0113 C   0  0  0  0  0  0  0  0  0  0  0  0
   28.7139  -17.6786  -16.5763 C   0  0  1  0  0  0  0  0  0  0  0  0
   27.8067  -17.1435  -17.6715 C   0  0  0  0  0  0  0  0  0  0  0  0
   28.2129  -18.9897  -16.0286 C   0  0  0  0  0  0  0  0  0  0  0  0
   26.7528  -18.9580  -15.6704 C   0  0  2  0  0  0  0  0  0  0  0  0
   26.5511  -17.9617  -14.6608 N   0  0  0  0  0  0  0  0  0  0  0  0
   26.3654  -20.3090  -15.2139 C   0  0  0  0  0  0  0  0  0  0  0  0
   26.5632  -21.2961  -15.9517 O   0  0  0  0  0  0  0  0  0  0  0  0
   23.6366  -19.9922  -11.5869 C   0  0  0  0  0  0  0  0  0  0  0  0
   25.0976  -20.3717  -11.4450 C   0  0  1  0  0  0  0  0  0  0  0  0
   25.4750  -20.3490   -9.9730 C   0  0  0  0  0  0  0  0  0  0  0  0
   25.2574  -21.7736  -11.9509 C   0  0  0  0  0  0  0  0  0  0  0  0
   25.2768  -21.7860  -13.4802 C   0  0  2  0  0  0  0  0  0  0  0  0
   25.7709  -20.5040  -13.9478 N   0  0  0  0  0  0  0  0  0  0  0  0
   23.8737  -21.9142  -13.9977 C   0  0  0  0  0  0  0  0  0  0  0  0
   23.5989  -21.9017  -15.2251 O   0  0  0  0  0  0  0  0  0  0  0  0
   20.0945  -25.8697  -15.2064 N   0  0  0  0  0  0  0  0  0  0  0  0
   19.9956  -24.7189  -16.0163 C   0  0  0  0  0  0  0  0  0  0  0  0
   19.3386  -24.7899  -17.0824 O   0  0  0  0  0  0  0  0  0  0  0  0
   20.6339  -23.4296  -15.6628 C   0  0  0  0  0  0  0  0  0  0  0  0
   21.3873  -23.5523  -14.3727 C   0  0  0  0  0  0  0  0  0  0  0  0
   21.4075  -22.2788  -13.5774 C   0  0  2  0  0  0  0  0  0  0  0  0
   22.7781  -22.0581  -13.0898 N   0  0  0  0  0  0  0  0  0  0  0  0
   20.5235  -22.3336  -12.3916 C   0  0  0  0  0  0  0  0  0  0  0  0
   20.6643  -23.3004  -11.4094 O   0  0  0  0  0  0  0  0  0  0  0  0
   19.6087  -21.4852  -12.2508 O   0  0  0  0  0  0  0  0  0  0  0  0
  2  1  1  6
  3  2  1  0
  4  5  1  0
  4  2  1  0
  5  6  1  1
  7  8  2  0
  7  5  1  0
 10  9  1  1
 11 10  1  0
 12 10  1  0
 13 12  1  1
 13 14  1  0
 14  7  1  0
 15 16  2  0
 15 13  1  0
 18 17  1  0
 18 19  2  0
 20 21  1  0
 20 18  1  0
 22 21  1  1
 22 23  1  0
 23 15  1  0
 24 22  1  0
 25 24  1  0
 26 24  2  0
M  END
$$$$
