LLQ.pdb
     RDKit          3D

 26 25  0  0  1  0  0  0  0  0999 V2000
   27.0861  -19.8401  -19.4062 C   0  0  0  0  0  0  0  0  0  0  0  0
   26.1808  -19.2787  -18.3601 C   0  0  1  0  0  0  0  0  0  0  0  0
   25.1578  -18.3255  -18.9550 C   0  0  0  0  0  0  0  0  0  0  0  0
   25.5293  -20.3273  -17.4966 C   0  0  0  0  0  0  0  0  0  0  0  0
   24.6130  -19.7459  -16.4556 C   0  0  2  0  0  0  0  0  0  0  0  0
   25.3242  -18.7322  -15.7352 N   0  0  0  0  0  0  0  0  0  0  0  0
   24.1605  -20.8468  -15.5799 C   0  0  0  0  0  0  0  0  0  0  0  0
   23.7732  -21.9222  -16.0811 O   0  0  0  0  0  0  0  0  0  0  0  0
   24.3228  -20.5933  -10.3392 C   0  0  0  0  0  0  0  0  0  0  0  0
   25.2314  -20.6817  -11.5497 C   0  0  1  0  0  0  0  0  0  0  0  0
   26.6769  -20.7254  -11.0826 C   0  0  0  0  0  0  0  0  0  0  0  0
   24.9260  -21.9669  -12.2582 C   0  0  0  0  0  0  0  0  0  0  0  0
   23.7863  -21.7631  -13.2576 C   0  0  2  0  0  0  0  0  0  0  0  0
   24.1586  -20.7019  -14.1750 N   0  0  0  0  0  0  0  0  0  0  0  0
   22.5627  -21.2859  -12.5311 C   0  0  0  0  0  0  0  0  0  0  0  0
   22.0479  -21.9234  -11.5766 O   0  0  0  0  0  0  0  0  0  0  0  0
   18.5860  -20.8587  -16.6807 N   0  0  0  0  0  0  0  0  0  0  0  0
   18.7628  -19.4765  -16.4608 C   0  0  0  0  0  0  0  0  0  0  0  0
   18.0553  -18.6700  -17.1106 O   0  0  0  0  0  0  0  0  0  0  0  0
   19.7478  -18.9355  -15.4955 C   0  0  0  0  0  0  0  0  0  0  0  0
   20.5570  -20.0441  -14.8931 C   0  0  0  0  0  0  0  0  0  0  0  0
   20.5377  -20.0407  -13.3917 C   0  0  2  0  0  0  0  0  0  0  0  0
   21.9278  -20.0617  -12.9099 N   0  0  0  0  0  0  0  0  0  0  0  0
   19.8598  -21.2294  -12.8278 C   0  0  0  0  0  0  0  0  0  0  0  0
   18.7035  -21.1307  -12.0712 O   0  0  0  0  0  0  0  0  0  0  0  0
   20.3312  -22.3754  -13.0295 O   0  0  0  0  0  0  0  0  0  0  0  0
  2  1  1  6
  3  2  1  0
  4  5  1  0
  4  2  1  0
  5  6  1  1
  7  8  2  0
  7  5  1  0
 10  9  1  1
 11 10  1  0
 12 10  1  0
 13 12  1  1
 13 14  1  0
 14  7  1  0
 15 16  2  0
 15 13  1  0
 18 17  1  0
 18 19  2  0
 20 21  1  0
 20 18  1  0
 22 21  1  6
 22 23  1  0
 23 15  1  0
 24 22  1  0
 25 24  1  0
 26 24  2  0
M  END
$$$$
