LLQ.pdb
     RDKit          3D

 26 25  0  0  1  0  0  0  0  0999 V2000
   30.1969  -20.4914  -17.2889 C   0  0  0  0  0  0  0  0  0  0  0  0
   29.1142  -19.7264  -16.6022 C   0  0  1  0  0  0  0  0  0  0  0  0
   28.1686  -19.0748  -17.5973 C   0  0  0  0  0  0  0  0  0  0  0  0
   28.3682  -20.5284  -15.5677 C   0  0  0  0  0  0  0  0  0  0  0  0
   27.2659  -19.7509  -14.9031 C   0  0  2  0  0  0  0  0  0  0  0  0
   27.7709  -18.4600  -14.5412 N   0  0  0  0  0  0  0  0  0  0  0  0
   26.8046  -20.5240  -13.7313 C   0  0  0  0  0  0  0  0  0  0  0  0
   26.4574  -21.7150  -13.8685 O   0  0  0  0  0  0  0  0  0  0  0  0
   26.4031  -21.8711   -8.5739 C   0  0  0  0  0  0  0  0  0  0  0  0
   25.9457  -20.4480   -8.8275 C   0  0  1  0  0  0  0  0  0  0  0  0
   26.3222  -19.5859   -7.6339 C   0  0  0  0  0  0  0  0  0  0  0  0
   26.6830  -19.9376  -10.0287 C   0  0  0  0  0  0  0  0  0  0  0  0
   26.1096  -20.5563  -11.3046 C   0  0  2  0  0  0  0  0  0  0  0  0
   26.7493  -19.9341  -12.4493 N   0  0  0  0  0  0  0  0  0  0  0  0
   24.6481  -20.2300  -11.4062 C   0  0  0  0  0  0  0  0  0  0  0  0
   24.2169  -19.0488  -11.4405 O   0  0  0  0  0  0  0  0  0  0  0  0
   21.5958  -23.8944  -15.1468 N   0  0  0  0  0  0  0  0  0  0  0  0
   20.5819  -22.9752  -14.8044 C   0  0  0  0  0  0  0  0  0  0  0  0
   19.4963  -23.0180  -15.4312 O   0  0  0  0  0  0  0  0  0  0  0  0
   20.7431  -21.9612  -13.7365 C   0  0  0  0  0  0  0  0  0  0  0  0
   22.1222  -22.0270  -13.1530 C   0  0  0  0  0  0  0  0  0  0  0  0
   22.3397  -21.0437  -12.0392 C   0  0  2  0  0  0  0  0  0  0  0  0
   23.6757  -21.2768  -11.4687 N   0  0  0  0  0  0  0  0  0  0  0  0
   21.3600  -21.2009  -10.9410 C   0  0  0  0  0  0  0  0  0  0  0  0
   20.0354  -20.8168  -11.0722 O   0  0  0  0  0  0  0  0  0  0  0  0
   21.7198  -21.6967   -9.8451 O   0  0  0  0  0  0  0  0  0  0  0  0
  2  1  1  6
  3  2  1  0
  4  5  1  0
  4  2  1  0
  5  6  1  1
  7  8  2  0
  7  5  1  0
 10  9  1  1
 11 10  1  0
 12 10  1  0
 13 12  1  1
 13 14  1  0
 14  7  1  0
 15 16  2  0
 15 13  1  0
 18 17  1  0
 18 19  2  0
 20 21  1  0
 20 18  1  0
 22 21  1  6
 22 23  1  0
 23 15  1  0
 24 22  1  0
 25 24  1  0
 26 24  2  0
M  END
$$$$
