LLQ.pdb
     RDKit          3D

 26 25  0  0  1  0  0  0  0  0999 V2000
   29.6667  -23.7760  -16.8272 C   0  0  0  0  0  0  0  0  0  0  0  0
   28.8368  -22.5501  -16.6334 C   0  0  1  0  0  0  0  0  0  0  0  0
   28.4194  -21.9386  -17.9603 C   0  0  0  0  0  0  0  0  0  0  0  0
   27.6572  -22.7555  -15.7189 C   0  0  0  0  0  0  0  0  0  0  0  0
   26.9384  -21.4764  -15.3897 C   0  0  2  0  0  0  0  0  0  0  0  0
   27.9096  -20.4372  -15.2184 N   0  0  0  0  0  0  0  0  0  0  0  0
   26.1365  -21.7045  -14.1697 C   0  0  0  0  0  0  0  0  0  0  0  0
   25.2602  -22.5932  -14.1576 O   0  0  0  0  0  0  0  0  0  0  0  0
   25.2194  -21.6985   -8.9096 C   0  0  0  0  0  0  0  0  0  0  0  0
   25.3755  -20.2899   -9.4485 C   0  0  1  0  0  0  0  0  0  0  0  0
   26.0635  -19.4313   -8.4002 C   0  0  0  0  0  0  0  0  0  0  0  0
   26.2602  -20.3578  -10.6567 C   0  0  0  0  0  0  0  0  0  0  0  0
   25.5201  -21.0222  -11.8187 C   0  0  2  0  0  0  0  0  0  0  0  0
   26.3461  -20.9286  -13.0084 N   0  0  0  0  0  0  0  0  0  0  0  0
   24.2628  -20.2575  -12.1141 C   0  0  0  0  0  0  0  0  0  0  0  0
   24.2698  -19.0521  -12.4739 O   0  0  0  0  0  0  0  0  0  0  0  0
   22.4970  -20.3440  -16.9118 N   0  0  0  0  0  0  0  0  0  0  0  0
   21.2450  -19.9163  -16.4224 C   0  0  0  0  0  0  0  0  0  0  0  0
   20.3816  -19.5243  -17.2434 O   0  0  0  0  0  0  0  0  0  0  0  0
   20.9049  -19.9098  -14.9805 C   0  0  0  0  0  0  0  0  0  0  0  0
   22.0810  -20.3480  -14.1610 C   0  0  0  0  0  0  0  0  0  0  0  0
   21.8020  -20.3574  -12.6856 C   0  0  2  0  0  0  0  0  0  0  0  0
   22.9859  -20.8900  -11.9930 N   0  0  0  0  0  0  0  0  0  0  0  0
   20.6572  -21.2244  -12.3278 C   0  0  0  0  0  0  0  0  0  0  0  0
   19.3907  -20.7151  -12.0911 O   0  0  0  0  0  0  0  0  0  0  0  0
   20.8164  -22.4659  -12.2299 O   0  0  0  0  0  0  0  0  0  0  0  0
  2  1  1  6
  3  2  1  0
  4  5  1  0
  4  2  1  0
  5  6  1  1
  7  8  2  0
  7  5  1  0
 10  9  1  1
 11 10  1  0
 12 10  1  0
 13 12  1  1
 13 14  1  0
 14  7  1  0
 15 16  2  0
 15 13  1  0
 18 17  1  0
 18 19  2  0
 20 21  1  0
 20 18  1  0
 22 21  1  6
 22 23  1  0
 23 15  1  0
 24 22  1  0
 25 24  1  0
 26 24  2  0
M  END
$$$$
