LLQ.pdb
     RDKit          3D

 26 25  0  0  1  0  0  0  0  0999 V2000
   28.6106  -19.9928   -7.3341 C   0  0  0  0  0  0  0  0  0  0  0  0
   27.2754  -20.3141   -7.9200 C   0  0  1  0  0  0  0  0  0  0  0  0
   26.1412  -19.8079   -7.0447 C   0  0  0  0  0  0  0  0  0  0  0  0
   27.1180  -19.8668   -9.3500 C   0  0  0  0  0  0  0  0  0  0  0  0
   25.7755  -20.2152   -9.9309 C   0  0  2  0  0  0  0  0  0  0  0  0
   25.5674  -21.6255   -9.7879 N   0  0  0  0  0  0  0  0  0  0  0  0
   25.7642  -19.7847  -11.3444 C   0  0  0  0  0  0  0  0  0  0  0  0
   25.9033  -18.5774  -11.6288 O   0  0  0  0  0  0  0  0  0  0  0  0
   28.9052  -21.9046  -14.8495 C   0  0  0  0  0  0  0  0  0  0  0  0
   27.9747  -20.9908  -14.0762 C   0  0  1  0  0  0  0  0  0  0  0  0
   28.3076  -19.5461  -14.4107 C   0  0  0  0  0  0  0  0  0  0  0  0
   26.5748  -21.2699  -14.5338 C   0  0  0  0  0  0  0  0  0  0  0  0
   25.5858  -20.3676  -13.7942 C   0  0  2  0  0  0  0  0  0  0  0  0
   25.5974  -20.7228  -12.3869 N   0  0  0  0  0  0  0  0  0  0  0  0
   24.1947  -20.6386  -14.2885 C   0  0  0  0  0  0  0  0  0  0  0  0
   23.8928  -20.6219  -15.5095 O   0  0  0  0  0  0  0  0  0  0  0  0
   19.3596  -22.9599  -10.6837 N   0  0  0  0  0  0  0  0  0  0  0  0
   19.0583  -23.2036  -12.0402 C   0  0  0  0  0  0  0  0  0  0  0  0
   18.2051  -24.0802  -12.3174 O   0  0  0  0  0  0  0  0  0  0  0  0
   19.7057  -22.4694  -13.1521 C   0  0  0  0  0  0  0  0  0  0  0  0
   21.1008  -22.0699  -12.7765 C   0  0  0  0  0  0  0  0  0  0  0  0
   21.7842  -21.2490  -13.8317 C   0  0  2  0  0  0  0  0  0  0  0  0
   23.1429  -20.9314  -13.3648 N   0  0  0  0  0  0  0  0  0  0  0  0
   21.0966  -19.9636  -14.0878 C   0  0  0  0  0  0  0  0  0  0  0  0
   20.1698  -19.8119  -15.1063 O   0  0  0  0  0  0  0  0  0  0  0  0
   21.3463  -18.9642  -13.3702 O   0  0  0  0  0  0  0  0  0  0  0  0
  2  1  1  1
  3  2  1  0
  4  5  1  0
  4  2  1  0
  5  6  1  6
  7  8  2  0
  7  5  1  0
 10  9  1  6
 11 10  1  0
 12 10  1  0
 13 12  1  6
 13 14  1  0
 14  7  1  0
 15 16  2  0
 15 13  1  0
 18 17  1  0
 18 19  2  0
 20 21  1  0
 20 18  1  0
 22 21  1  1
 22 23  1  0
 23 15  1  0
 24 22  1  0
 25 24  1  0
 26 24  2  0
M  END
$$$$
