LLQ.pdb
     RDKit          3D

 26 25  0  0  1  0  0  0  0  0999 V2000
   20.0537  -20.0720   -8.3410 C   0  0  0  0  0  0  0  0  0  0  0  0
   20.2742  -20.6138   -9.7147 C   0  0  1  0  0  0  0  0  0  0  0  0
   19.0309  -20.4800  -10.5778 C   0  0  0  0  0  0  0  0  0  0  0  0
   21.4917  -20.0499  -10.4000 C   0  0  0  0  0  0  0  0  0  0  0  0
   21.6646  -20.5587  -11.8045 C   0  0  2  0  0  0  0  0  0  0  0  0
   21.7365  -21.9891  -11.7670 N   0  0  0  0  0  0  0  0  0  0  0  0
   22.8884  -19.9478  -12.3637 C   0  0  0  0  0  0  0  0  0  0  0  0
   22.9576  -18.7096  -12.5051 O   0  0  0  0  0  0  0  0  0  0  0  0
   27.5439  -21.3757  -10.4936 C   0  0  0  0  0  0  0  0  0  0  0  0
   26.3937  -20.6145  -11.1234 C   0  0  1  0  0  0  0  0  0  0  0  0
   26.6225  -19.1241  -10.9336 C   0  0  0  0  0  0  0  0  0  0  0  0
   26.4005  -20.9089  -12.5932 C   0  0  0  0  0  0  0  0  0  0  0  0
   25.2264  -20.2089  -13.2792 C   0  0  2  0  0  0  0  0  0  0  0  0
   23.9892  -20.7467  -12.7439 N   0  0  0  0  0  0  0  0  0  0  0  0
   25.2335  -20.5381  -14.7436 C   0  0  0  0  0  0  0  0  0  0  0  0
   26.2426  -20.3633  -15.4739 O   0  0  0  0  0  0  0  0  0  0  0  0
   25.3339  -25.7617  -16.4604 N   0  0  0  0  0  0  0  0  0  0  0  0
   24.9659  -25.2329  -17.7154 C   0  0  0  0  0  0  0  0  0  0  0  0
   25.0588  -25.9683  -18.7272 O   0  0  0  0  0  0  0  0  0  0  0  0
   24.4743  -23.8465  -17.8908 C   0  0  0  0  0  0  0  0  0  0  0  0
   24.5143  -23.1058  -16.5882 C   0  0  0  0  0  0  0  0  0  0  0  0
   24.1239  -21.6617  -16.7180 C   0  0  2  0  0  0  0  0  0  0  0  0
   24.0651  -21.0741  -15.3703 N   0  0  0  0  0  0  0  0  0  0  0  0
   22.7889  -21.4853  -17.3322 C   0  0  0  0  0  0  0  0  0  0  0  0
   22.5484  -21.7614  -18.6683 O   0  0  0  0  0  0  0  0  0  0  0  0
   21.8279  -21.0727  -16.6376 O   0  0  0  0  0  0  0  0  0  0  0  0
  2  1  1  1
  3  2  1  0
  4  5  1  0
  4  2  1  0
  5  6  1  1
  7  8  2  0
  7  5  1  0
 10  9  1  1
 11 10  1  0
 12 10  1  0
 13 12  1  1
 13 14  1  0
 14  7  1  0
 15 16  2  0
 15 13  1  0
 18 17  1  0
 18 19  2  0
 20 21  1  0
 20 18  1  0
 22 21  1  1
 22 23  1  0
 23 15  1  0
 24 22  1  0
 25 24  1  0
 26 24  2  0
M  END
$$$$
