LLQ.pdb
     RDKit          3D

 26 25  0  0  1  0  0  0  0  0999 V2000
   29.6102  -19.6146  -18.9135 C   0  0  0  0  0  0  0  0  0  0  0  0
   28.5635  -18.8848  -18.1383 C   0  0  1  0  0  0  0  0  0  0  0  0
   27.7524  -17.9558  -19.0259 C   0  0  0  0  0  0  0  0  0  0  0  0
   27.6775  -19.7867  -17.3187 C   0  0  0  0  0  0  0  0  0  0  0  0
   26.6524  -19.0335  -16.5168 C   0  0  2  0  0  0  0  0  0  0  0  0
   27.3035  -17.9472  -15.8472 N   0  0  0  0  0  0  0  0  0  0  0  0
   26.0245  -19.9817  -15.5732 C   0  0  0  0  0  0  0  0  0  0  0  0
   25.5792  -21.0710  -15.9890 O   0  0  0  0  0  0  0  0  0  0  0  0
   26.0197  -20.9146   -9.5079 C   0  0  0  0  0  0  0  0  0  0  0  0
   25.2957  -21.1635  -10.8166 C   0  0  1  0  0  0  0  0  0  0  0  0
   23.8271  -20.8123  -10.6454 C   0  0  0  0  0  0  0  0  0  0  0  0
   25.8829  -20.2457  -11.8461 C   0  0  0  0  0  0  0  0  0  0  0  0
   25.2942  -20.5500  -13.2245 C   0  0  2  0  0  0  0  0  0  0  0  0
   25.9189  -19.6743  -14.1989 N   0  0  0  0  0  0  0  0  0  0  0  0
   23.8312  -20.2146  -13.2293 C   0  0  0  0  0  0  0  0  0  0  0  0
   23.3930  -19.0829  -12.8985 O   0  0  0  0  0  0  0  0  0  0  0  0
   21.0990  -22.1531  -17.6763 N   0  0  0  0  0  0  0  0  0  0  0  0
   20.3942  -20.9908  -17.2990 C   0  0  0  0  0  0  0  0  0  0  0  0
   19.9508  -20.2387  -18.1995 O   0  0  0  0  0  0  0  0  0  0  0  0
   20.1545  -20.6193  -15.8850 C   0  0  0  0  0  0  0  0  0  0  0  0
   20.8961  -21.5425  -14.9660 C   0  0  0  0  0  0  0  0  0  0  0  0
   21.4405  -20.8520  -13.7488 C   0  0  2  0  0  0  0  0  0  0  0  0
   22.8656  -21.1947  -13.6195 N   0  0  0  0  0  0  0  0  0  0  0  0
   20.7705  -21.2835  -12.5015 C   0  0  0  0  0  0  0  0  0  0  0  0
   19.7448  -20.5534  -11.9235 O   0  0  0  0  0  0  0  0  0  0  0  0
   21.1277  -22.3435  -11.9315 O   0  0  0  0  0  0  0  0  0  0  0  0
  2  1  1  6
  3  2  1  0
  4  5  1  0
  4  2  1  0
  5  6  1  1
  7  8  2  0
  7  5  1  0
 10  9  1  1
 11 10  1  0
 12 10  1  0
 13 12  1  1
 13 14  1  0
 14  7  1  0
 15 16  2  0
 15 13  1  0
 18 17  1  0
 18 19  2  0
 20 21  1  0
 20 18  1  0
 22 21  1  6
 22 23  1  0
 23 15  1  0
 24 22  1  0
 25 24  1  0
 26 24  2  0
M  END
$$$$
