LLQ.pdb
     RDKit          3D

 26 25  0  0  1  0  0  0  0  0999 V2000
   25.7757  -20.7574  -21.8296 C   0  0  0  0  0  0  0  0  0  0  0  0
   25.0267  -19.9594  -20.8141 C   0  0  1  0  0  0  0  0  0  0  0  0
   23.6249  -19.6178  -21.2904 C   0  0  0  0  0  0  0  0  0  0  0  0
   25.0127  -20.5840  -19.4431 C   0  0  0  0  0  0  0  0  0  0  0  0
   24.1803  -19.8148  -18.4548 C   0  0  2  0  0  0  0  0  0  0  0  0
   24.6327  -18.4555  -18.4359 N   0  0  0  0  0  0  0  0  0  0  0  0
   24.3134  -20.4710  -17.1375 C   0  0  0  0  0  0  0  0  0  0  0  0
   24.0846  -21.6928  -17.0246 O   0  0  0  0  0  0  0  0  0  0  0  0
   28.1357  -18.5534  -13.9819 C   0  0  0  0  0  0  0  0  0  0  0  0
   27.1643  -19.4504  -14.7240 C   0  0  1  0  0  0  0  0  0  0  0  0
   27.7619  -20.8432  -14.8358 C   0  0  0  0  0  0  0  0  0  0  0  0
   25.9098  -19.5398  -13.9083 C   0  0  0  0  0  0  0  0  0  0  0  0
   24.8351  -20.3146  -14.6726 C   0  0  2  0  0  0  0  0  0  0  0  0
   24.6979  -19.7342  -15.9957 N   0  0  0  0  0  0  0  0  0  0  0  0
   23.5095  -20.1359  -13.9916 C   0  0  0  0  0  0  0  0  0  0  0  0
   23.1781  -19.0649  -13.4212 O   0  0  0  0  0  0  0  0  0  0  0  0
   18.1180  -18.7761  -14.6263 N   0  0  0  0  0  0  0  0  0  0  0  0
   18.9116  -19.4163  -15.6011 C   0  0  0  0  0  0  0  0  0  0  0  0
   18.4997  -19.4465  -16.7854 O   0  0  0  0  0  0  0  0  0  0  0  0
   20.2110  -20.0550  -15.2873 C   0  0  0  0  0  0  0  0  0  0  0  0
   20.5395  -19.8920  -13.8339 C   0  0  0  0  0  0  0  0  0  0  0  0
   21.2761  -21.0676  -13.2595 C   0  0  2  0  0  0  0  0  0  0  0  0
   22.5581  -21.2034  -13.9689 N   0  0  0  0  0  0  0  0  0  0  0  0
   20.5414  -22.3406  -13.4334 C   0  0  0  0  0  0  0  0  0  0  0  0
   20.9955  -23.3471  -14.2702 O   0  0  0  0  0  0  0  0  0  0  0  0
   19.4686  -22.5362  -12.8115 O   0  0  0  0  0  0  0  0  0  0  0  0
  2  1  1  6
  3  2  1  0
  4  5  1  0
  4  2  1  0
  5  6  1  1
  7  8  2  0
  7  5  1  0
 10  9  1  1
 11 10  1  0
 12 10  1  0
 13 12  1  1
 13 14  1  0
 14  7  1  0
 15 16  2  0
 15 13  1  0
 18 17  1  0
 18 19  2  0
 20 21  1  0
 20 18  1  0
 22 21  1  6
 22 23  1  0
 23 15  1  0
 24 22  1  0
 25 24  1  0
 26 24  2  0
M  END
$$$$
