QGL.pdb
     RDKit          3D

 22 21  0  0  1  0  0  0  0  0999 V2000
   22.3871  -18.2136  -15.1558 N   0  0  0  0  0  0  0  0  0  0  0  0
   21.3435  -19.1299  -14.7552 C   0  0  0  0  0  0  0  0  0  0  0  0
   20.1876  -18.8191  -15.0514 O   0  0  0  0  0  0  0  0  0  0  0  0
   21.6658  -20.3676  -14.0343 C   0  0  0  0  0  0  0  0  0  0  0  0
   23.1117  -20.5344  -13.6926 C   0  0  0  0  0  0  0  0  0  0  0  0
   23.4068  -20.6221  -12.2371 C   0  0  2  0  0  0  0  0  0  0  0  0
   23.0400  -19.5040  -11.4362 N   0  0  0  0  0  0  0  0  0  0  0  0
   24.8992  -20.7902  -12.1124 C   0  0  0  0  0  0  0  0  0  0  0  0
   25.5067  -21.7626  -12.6137 O   0  0  0  0  0  0  0  0  0  0  0  0
   25.6500  -19.7904  -11.3877 N   0  0  0  0  0  0  0  0  0  0  0  0
   27.0645  -19.9818  -11.3243 C   0  0  0  0  0  0  0  0  0  0  0  0
   27.5078  -20.4820  -10.0078 C   0  0  0  0  0  0  0  0  0  0  0  0
   28.5124  -21.2820   -9.9705 O   0  0  0  0  0  0  0  0  0  0  0  0
   27.9720  -19.4685   -4.7053 C   0  0  0  0  0  0  0  0  0  0  0  0
   27.2597  -19.5439   -6.0637 C   0  0  1  0  0  0  0  0  0  0  0  0
   27.8802  -18.5099   -6.9384 C   0  0  0  0  0  0  0  0  0  0  0  0
   27.4212  -20.9479   -6.5505 C   0  0  0  0  0  0  0  0  0  0  0  0
   26.6548  -21.2365   -7.8140 C   0  0  2  0  0  0  0  0  0  0  0  0
   26.9409  -20.1741   -8.7587 N   0  0  0  0  0  0  0  0  0  0  0  0
   25.1935  -21.2259   -7.5103 C   0  0  0  0  0  0  0  0  0  0  0  0
   24.3054  -20.3802   -8.1761 O   0  0  0  0  0  0  0  0  0  0  0  0
   24.6893  -21.9797   -6.6378 O   0  0  0  0  0  0  0  0  0  0  0  0
  2  1  1  0
  2  3  2  0
  4  2  1  0
  5  4  1  0
  6  5  1  0
  6  7  1  1
  8  6  1  0
  8 10  1  0
  9  8  2  0
 11 10  1  0
 11 12  1  0
 12 19  1  0
 13 12  2  0
 15 14  1  1
 16 15  1  0
 17 15  1  0
 18 17  1  1
 19 18  1  0
 20 21  1  0
 20 18  1  0
 22 20  2  0
M  END
$$$$
