QGL.pdb
     RDKit          3D

 22 21  0  0  1  0  0  0  0  0999 V2000
   12.0783  -12.8962  -14.4432 N   0  0  0  0  0  0  0  0  0  0  0  0
   12.7506  -14.1210  -14.8131 C   0  0  0  0  0  0  0  0  0  0  0  0
   12.0586  -14.9994  -15.3327 O   0  0  0  0  0  0  0  0  0  0  0  0
   14.1897  -14.2897  -14.5765 C   0  0  0  0  0  0  0  0  0  0  0  0
   14.8620  -13.1135  -13.9443 C   0  0  0  0  0  0  0  0  0  0  0  0
   15.8377  -12.4049  -14.8156 C   0  0  2  0  0  0  0  0  0  0  0  0
   16.7853  -13.2091  -15.5096 N   0  0  0  0  0  0  0  0  0  0  0  0
   16.6134  -11.4735  -13.9201 C   0  0  0  0  0  0  0  0  0  0  0  0
   17.8067  -11.6852  -13.6084 O   0  0  0  0  0  0  0  0  0  0  0  0
   15.9512  -10.2961  -13.4066 N   0  0  0  0  0  0  0  0  0  0  0  0
   16.7586   -9.3949  -12.6466 C   0  0  0  0  0  0  0  0  0  0  0  0
   16.0169   -8.1891  -12.2274 C   0  0  0  0  0  0  0  0  0  0  0  0
   15.0250   -7.8066  -12.9488 O   0  0  0  0  0  0  0  0  0  0  0  0
   15.0007   -7.0308   -7.0925 C   0  0  0  0  0  0  0  0  0  0  0  0
   14.7558   -7.2543   -8.5919 C   0  0  1  0  0  0  0  0  0  0  0  0
   13.2824   -7.3689   -8.7798 C   0  0  0  0  0  0  0  0  0  0  0  0
   15.3847   -6.0989   -9.3017 C   0  0  0  0  0  0  0  0  0  0  0  0
   15.4217   -6.2624  -10.7980 C   0  0  2  0  0  0  0  0  0  0  0  0
   16.2796   -7.3919  -11.0996 N   0  0  0  0  0  0  0  0  0  0  0  0
   16.0143   -5.0355  -11.4074 C   0  0  0  0  0  0  0  0  0  0  0  0
   15.2645   -3.8776  -11.6179 O   0  0  0  0  0  0  0  0  0  0  0  0
   17.2207   -4.9842  -11.7619 O   0  0  0  0  0  0  0  0  0  0  0  0
  2  1  1  0
  2  3  2  0
  4  2  1  0
  5  4  1  0
  6  5  1  0
  6  7  1  1
  8  6  1  0
  8 10  1  0
  9  8  2  0
 11 10  1  0
 11 12  1  0
 12 19  1  0
 13 12  2  0
 15 14  1  1
 16 15  1  0
 17 15  1  0
 18 17  1  1
 19 18  1  0
 20 21  1  0
 20 18  1  0
 22 20  2  0
M  END
$$$$
