QGL.pdb
     RDKit          3D

 22 21  0  0  1  0  0  0  0  0999 V2000
   18.7154  -15.6903  -21.5776 N   0  0  0  0  0  0  0  0  0  0  0  0
   17.6356  -15.8340  -20.6276 C   0  0  0  0  0  0  0  0  0  0  0  0
   16.6223  -16.4155  -21.0222 O   0  0  0  0  0  0  0  0  0  0  0  0
   17.7606  -15.3092  -19.2622 C   0  0  0  0  0  0  0  0  0  0  0  0
   19.0628  -14.6364  -18.9672 C   0  0  0  0  0  0  0  0  0  0  0  0
   19.1963  -14.1063  -17.5836 C   0  0  2  0  0  0  0  0  0  0  0  0
   18.0628  -14.2336  -16.7321 N   0  0  0  0  0  0  0  0  0  0  0  0
   19.4923  -12.6345  -17.7159 C   0  0  0  0  0  0  0  0  0  0  0  0
   20.5986  -12.2084  -18.1161 O   0  0  0  0  0  0  0  0  0  0  0  0
   18.4584  -11.6868  -17.3672 N   0  0  0  0  0  0  0  0  0  0  0  0
   18.7524  -10.3098  -17.6101 C   0  0  0  0  0  0  0  0  0  0  0  0
   19.3838   -9.6540  -16.4476 C   0  0  0  0  0  0  0  0  0  0  0  0
   18.7943   -9.7403  -15.3093 O   0  0  0  0  0  0  0  0  0  0  0  0
   24.2892  -10.3297  -14.7715 C   0  0  0  0  0  0  0  0  0  0  0  0
   22.7688  -10.1185  -14.7291 C   0  0  1  0  0  0  0  0  0  0  0  0
   22.3129  -10.5104  -13.3660 C   0  0  0  0  0  0  0  0  0  0  0  0
   22.5294   -8.6844  -15.0759 C   0  0  0  0  0  0  0  0  0  0  0  0
   21.0710   -8.3357  -15.2127 C   0  0  2  0  0  0  0  0  0  0  0  0
   20.5873   -8.9275  -16.4451 N   0  0  0  0  0  0  0  0  0  0  0  0
   20.9317   -6.8527  -15.3072 C   0  0  0  0  0  0  0  0  0  0  0  0
   20.9715   -6.0323  -14.1791 O   0  0  0  0  0  0  0  0  0  0  0  0
   20.7712   -6.2679  -16.4099 O   0  0  0  0  0  0  0  0  0  0  0  0
  2  1  1  0
  2  3  2  0
  4  2  1  0
  5  4  1  0
  6  5  1  0
  6  7  1  1
  8  6  1  0
  8 10  1  0
  9  8  2  0
 11 10  1  0
 11 12  1  0
 12 19  1  0
 13 12  2  0
 15 14  1  1
 16 15  1  0
 17 15  1  0
 18 17  1  6
 19 18  1  0
 20 21  1  0
 20 18  1  0
 22 20  2  0
M  END
$$$$
