QGL.pdb
     RDKit          3D

 22 21  0  0  1  0  0  0  0  0999 V2000
   19.1316  -16.1665  -22.5955 N   0  0  0  0  0  0  0  0  0  0  0  0
   20.2457  -16.9717  -22.1489 C   0  0  0  0  0  0  0  0  0  0  0  0
   20.2029  -18.1751  -22.4140 O   0  0  0  0  0  0  0  0  0  0  0  0
   21.3664  -16.3658  -21.4193 C   0  0  0  0  0  0  0  0  0  0  0  0
   21.2631  -14.8863  -21.2300 C   0  0  0  0  0  0  0  0  0  0  0  0
   22.3809  -14.2718  -20.4643 C   0  0  2  0  0  0  0  0  0  0  0  0
   22.6064  -14.7619  -19.1471 N   0  0  0  0  0  0  0  0  0  0  0  0
   22.0621  -12.8036  -20.3459 C   0  0  0  0  0  0  0  0  0  0  0  0
   21.8898  -12.0740  -21.3478 O   0  0  0  0  0  0  0  0  0  0  0  0
   21.9526  -12.2235  -19.0268 N   0  0  0  0  0  0  0  0  0  0  0  0
   21.5811  -10.8450  -18.9690 C   0  0  0  0  0  0  0  0  0  0  0  0
   21.5582  -10.3242  -17.5877 C   0  0  0  0  0  0  0  0  0  0  0  0
   20.9268  -10.9998  -16.6958 O   0  0  0  0  0  0  0  0  0  0  0  0
   25.5230  -10.4724  -14.7301 C   0  0  0  0  0  0  0  0  0  0  0  0
   24.6110   -9.5801  -15.5847 C   0  0  1  0  0  0  0  0  0  0  0  0
   24.8243   -9.9739  -17.0055 C   0  0  0  0  0  0  0  0  0  0  0  0
   23.2188   -9.7921  -15.0835 C   0  0  0  0  0  0  0  0  0  0  0  0
   22.2099   -8.8625  -15.7040 C   0  0  2  0  0  0  0  0  0  0  0  0
   22.1644   -9.1427  -17.1260 N   0  0  0  0  0  0  0  0  0  0  0  0
   22.6613   -7.4534  -15.5083 C   0  0  0  0  0  0  0  0  0  0  0  0
   22.7193   -6.8635  -14.2450 O   0  0  0  0  0  0  0  0  0  0  0  0
   23.0124   -6.7265  -16.4738 O   0  0  0  0  0  0  0  0  0  0  0  0
  2  1  1  0
  2  3  2  0
  4  2  1  0
  5  4  1  0
  6  5  1  0
  6  7  1  1
  8  6  1  0
  8 10  1  0
  9  8  2  0
 11 10  1  0
 11 12  1  0
 12 19  1  0
 13 12  2  0
 15 14  1  1
 16 15  1  0
 17 15  1  0
 18 17  1  1
 19 18  1  0
 20 21  1  0
 20 18  1  0
 22 20  2  0
M  END
$$$$
