QGL.pdb
     RDKit          3D

 22 21  0  0  1  0  0  0  0  0999 V2000
   24.9576  -19.2169  -19.1994 N   0  0  0  0  0  0  0  0  0  0  0  0
   24.3454  -20.3726  -18.5842 C   0  0  0  0  0  0  0  0  0  0  0  0
   23.1514  -20.2788  -18.2911 O   0  0  0  0  0  0  0  0  0  0  0  0
   25.1244  -21.5913  -18.3322 C   0  0  0  0  0  0  0  0  0  0  0  0
   25.9658  -21.5520  -17.0970 C   0  0  0  0  0  0  0  0  0  0  0  0
   25.2062  -21.5929  -15.8185 C   0  0  2  0  0  0  0  0  0  0  0  0
   24.2746  -20.5416  -15.5880 N   0  0  0  0  0  0  0  0  0  0  0  0
   26.2275  -21.5350  -14.7118 C   0  0  0  0  0  0  0  0  0  0  0  0
   27.1316  -22.3916  -14.5910 O   0  0  0  0  0  0  0  0  0  0  0  0
   26.1557  -20.4499  -13.7601 N   0  0  0  0  0  0  0  0  0  0  0  0
   27.1720  -20.4185  -12.7562 C   0  0  0  0  0  0  0  0  0  0  0  0
   26.6946  -20.9246  -11.4539 C   0  0  0  0  0  0  0  0  0  0  0  0
   26.4131  -22.1743  -11.3558 O   0  0  0  0  0  0  0  0  0  0  0  0
   28.0029  -18.6963   -6.6671 C   0  0  0  0  0  0  0  0  0  0  0  0
   27.8169  -19.7292   -7.7880 C   0  0  1  0  0  0  0  0  0  0  0  0
   28.6117  -20.9308   -7.4088 C   0  0  0  0  0  0  0  0  0  0  0  0
   26.3461  -19.9688   -7.9051 C   0  0  0  0  0  0  0  0  0  0  0  0
   25.9686  -20.8123   -9.0938 C   0  0  2  0  0  0  0  0  0  0  0  0
   26.5085  -20.1750  -10.2792 N   0  0  0  0  0  0  0  0  0  0  0  0
   24.4810  -20.8539   -9.2085 C   0  0  0  0  0  0  0  0  0  0  0  0
   23.6903  -21.5823   -8.3189 O   0  0  0  0  0  0  0  0  0  0  0  0
   23.8654  -20.2337  -10.1141 O   0  0  0  0  0  0  0  0  0  0  0  0
  2  1  1  0
  2  3  2  0
  4  2  1  0
  5  4  1  0
  6  5  1  0
  6  7  1  6
  8  6  1  0
  8 10  1  0
  9  8  2  0
 11 10  1  0
 11 12  1  0
 12 19  1  0
 13 12  2  0
 15 14  1  1
 16 15  1  0
 17 15  1  0
 18 17  1  1
 19 18  1  0
 20 21  1  0
 20 18  1  0
 22 20  2  0
M  END
$$$$
