QGL.pdb
     RDKit          3D

 22 21  0  0  1  0  0  0  0  0999 V2000
   26.8214  -19.5866  -17.5388 N   0  0  0  0  0  0  0  0  0  0  0  0
   26.5141  -18.1804  -17.4076 C   0  0  0  0  0  0  0  0  0  0  0  0
   25.7853  -17.6881  -18.2718 O   0  0  0  0  0  0  0  0  0  0  0  0
   27.0511  -17.3946  -16.2897 C   0  0  0  0  0  0  0  0  0  0  0  0
   28.0626  -18.1088  -15.4517 C   0  0  0  0  0  0  0  0  0  0  0  0
   27.5306  -19.2548  -14.6662 C   0  0  2  0  0  0  0  0  0  0  0  0
   26.2264  -19.7162  -15.0011 N   0  0  0  0  0  0  0  0  0  0  0  0
   27.4897  -18.8057  -13.2282 C   0  0  0  0  0  0  0  0  0  0  0  0
   28.4879  -18.3197  -12.6509 O   0  0  0  0  0  0  0  0  0  0  0  0
   26.2517  -18.9431  -12.4954 N   0  0  0  0  0  0  0  0  0  0  0  0
   26.2545  -18.4621  -11.1499 C   0  0  0  0  0  0  0  0  0  0  0  0
   26.3755  -19.5521  -10.1613 C   0  0  0  0  0  0  0  0  0  0  0  0
   26.3464  -20.7634  -10.5884 O   0  0  0  0  0  0  0  0  0  0  0  0
   28.6350  -19.0280   -5.1429 C   0  0  0  0  0  0  0  0  0  0  0  0
   28.3812  -19.5414   -6.5677 C   0  0  1  0  0  0  0  0  0  0  0  0
   29.4902  -20.4804   -6.8959 C   0  0  0  0  0  0  0  0  0  0  0  0
   27.0221  -20.1637   -6.5591 C   0  0  0  0  0  0  0  0  0  0  0  0
   26.5482  -20.5882   -7.9238 C   0  0  2  0  0  0  0  0  0  0  0  0
   26.5225  -19.4110   -8.7703 N   0  0  0  0  0  0  0  0  0  0  0  0
   25.1608  -21.1270   -7.8116 C   0  0  0  0  0  0  0  0  0  0  0  0
   24.8959  -22.3788   -7.2547 O   0  0  0  0  0  0  0  0  0  0  0  0
   24.1601  -20.4786   -8.2140 O   0  0  0  0  0  0  0  0  0  0  0  0
  2  1  1  0
  2  3  2  0
  4  2  1  0
  5  4  1  0
  6  5  1  0
  6  7  1  6
  8  6  1  0
  8 10  1  0
  9  8  2  0
 11 10  1  0
 11 12  1  0
 12 19  1  0
 13 12  2  0
 15 14  1  1
 16 15  1  0
 17 15  1  0
 18 17  1  1
 19 18  1  0
 20 21  1  0
 20 18  1  0
 22 20  2  0
M  END
$$$$
