VHR.pdb
     RDKit          3D

 29 29  0  0  1  0  0  0  0  0999 V2000
    7.4454  -11.8421   18.9703 C   0  0  0  0  0  0  0  0  0  0  0  0
    8.3705  -12.9056   19.4421 C   0  0  2  0  0  0  0  0  0  0  0  0
    9.4522  -12.2397   20.3007 C   0  0  0  0  0  0  0  0  0  0  0  0
    8.9978  -13.7347   18.3475 C   0  0  2  0  0  0  0  0  0  0  0  0
    7.9754  -14.2716   17.5072 N   0  0  0  0  0  0  0  0  0  0  0  0
    9.7804  -14.8315   18.9665 C   0  0  0  0  0  0  0  0  0  0  0  0
    9.1919  -15.8496   19.3494 O   0  0  0  0  0  0  0  0  0  0  0  0
   11.1713  -14.8154   19.1612 N   0  0  0  0  0  0  0  0  0  0  0  0
   11.9544  -15.8708   19.6210 C   0  0  1  0  0  0  0  0  0  0  0  0
   12.7850  -16.6979   18.7247 C   0  0  0  0  0  0  0  0  0  0  0  0
   11.9759  -17.4318   17.7346 C   0  0  0  0  0  0  0  0  0  0  0  0
   11.9202  -17.2560   16.3863 C   0  0  0  0  0  0  0  0  0  0  0  0
   11.0695  -18.1442   15.8263 N   0  0  0  0  0  0  0  0  0  0  0  0
   10.5813  -18.8876   16.8120 C   0  0  0  0  0  0  0  0  0  0  0  0
   11.1166  -18.4730   17.9722 N   0  0  0  0  0  0  0  0  0  0  0  0
   12.7469  -15.4527   20.7964 C   0  0  0  0  0  0  0  0  0  0  0  0
   13.4750  -14.3942   20.7559 O   0  0  0  0  0  0  0  0  0  0  0  0
   10.6473  -15.7061   29.1522 N   0  0  0  0  0  0  0  0  0  0  0  0
    9.9620  -14.9419   28.1648 C   0  0  0  0  0  0  0  0  0  0  0  0
    9.0278  -14.1285   28.5266 N   0  0  0  0  0  0  0  0  0  0  0  0
   10.2859  -15.0567   26.7883 N   0  0  0  0  0  0  0  0  0  0  0  0
   11.4894  -15.7278   26.3303 C   0  0  0  0  0  0  0  0  0  0  0  0
   11.6998  -15.5155   24.8435 C   0  0  0  0  0  0  0  0  0  0  0  0
   12.9855  -16.2055   24.4732 C   0  0  0  0  0  0  0  0  0  0  0  0
   13.5578  -15.6463   23.1680 C   0  0  2  0  0  0  0  0  0  0  0  0
   12.7936  -16.1314   22.0361 N   0  0  0  0  0  0  0  0  0  0  0  0
   14.9301  -16.1813   23.0572 C   0  0  0  0  0  0  0  0  0  0  0  0
   15.2475  -17.0945   22.2416 O   0  0  0  0  0  0  0  0  0  0  0  0
   15.9155  -15.6668   23.8770 O   0  0  0  0  0  0  0  0  0  0  0  0
  2  1  1  6
  2  4  1  0
  2  3  1  0
  4  5  1  6
  6  4  1  0
  7  6  2  0
  8  6  1  0
  9  8  1  0
  9 10  1  6
 10 11  1  0
 11 12  2  0
 11 15  1  0
 12 13  1  0
 13 14  1  0
 15 14  2  0
 16 26  1  0
 16  9  1  0
 17 16  2  0
 18 19  1  0
 19 21  1  0
 19 20  2  0
 21 22  1  0
 22 23  1  0
 23 24  1  0
 25 24  1  1
 25 26  1  0
 25 27  1  0
 27 29  1  0
 28 27  2  0
M  END
$$$$
