VHR.pdb
     RDKit          3D

 29 29  0  0  1  0  0  0  0  0999 V2000
   10.1678  -19.2405   21.7900 C   0  0  0  0  0  0  0  0  0  0  0  0
    9.1689  -18.5514   20.9315 C   0  0  2  0  0  0  0  0  0  0  0  0
    9.0899  -19.3105   19.6017 C   0  0  0  0  0  0  0  0  0  0  0  0
    9.4403  -17.0860   20.6906 C   0  0  2  0  0  0  0  0  0  0  0  0
   10.7446  -16.9258   20.1316 N   0  0  0  0  0  0  0  0  0  0  0  0
    9.3439  -16.3628   21.9815 C   0  0  0  0  0  0  0  0  0  0  0  0
   10.3667  -16.1964   22.6565 O   0  0  0  0  0  0  0  0  0  0  0  0
    8.1591  -15.8346   22.5199 N   0  0  0  0  0  0  0  0  0  0  0  0
    8.0382  -15.1155   23.7061 C   0  0  1  0  0  0  0  0  0  0  0  0
    6.8451  -14.3117   24.0341 C   0  0  0  0  0  0  0  0  0  0  0  0
    7.0323  -13.5096   25.2569 C   0  0  0  0  0  0  0  0  0  0  0  0
    8.1528  -13.3695   26.0165 C   0  0  0  0  0  0  0  0  0  0  0  0
    7.9245  -12.5279   27.0489 N   0  0  0  0  0  0  0  0  0  0  0  0
    6.6619  -12.1292   26.9517 C   0  0  0  0  0  0  0  0  0  0  0  0
    6.1062  -12.7109   25.8760 N   0  0  0  0  0  0  0  0  0  0  0  0
    8.4089  -15.9588   24.8619 C   0  0  0  0  0  0  0  0  0  0  0  0
    7.6837  -16.9642   25.2020 O   0  0  0  0  0  0  0  0  0  0  0  0
   13.2202  -21.3905   27.5919 N   0  0  0  0  0  0  0  0  0  0  0  0
   12.2633  -21.1802   28.6258 C   0  0  0  0  0  0  0  0  0  0  0  0
   12.5701  -21.4737   29.8444 N   0  0  0  0  0  0  0  0  0  0  0  0
   10.9767  -20.6535   28.3429 N   0  0  0  0  0  0  0  0  0  0  0  0
   10.7475  -19.7095   27.2637 C   0  0  0  0  0  0  0  0  0  0  0  0
   11.5333  -18.4309   27.4815 C   0  0  0  0  0  0  0  0  0  0  0  0
   11.1474  -17.4786   26.3814 C   0  0  0  0  0  0  0  0  0  0  0  0
    9.8975  -16.6777   26.7558 C   0  0  2  0  0  0  0  0  0  0  0  0
    9.5438  -15.7687   25.6839 N   0  0  0  0  0  0  0  0  0  0  0  0
   10.2636  -15.8713   27.9380 C   0  0  0  0  0  0  0  0  0  0  0  0
   10.8394  -14.7484   27.8518 O   0  0  0  0  0  0  0  0  0  0  0  0
    9.9675  -16.3584   29.1961 O   0  0  0  0  0  0  0  0  0  0  0  0
  2  1  1  1
  2  4  1  0
  2  3  1  0
  4  5  1  1
  6  4  1  0
  7  6  2  0
  8  6  1  0
  9  8  1  0
  9 10  1  1
 10 11  1  0
 11 12  2  0
 11 15  1  0
 12 13  1  0
 13 14  1  0
 15 14  2  0
 16 26  1  0
 16  9  1  0
 17 16  2  0
 18 19  1  0
 19 21  1  0
 19 20  2  0
 21 22  1  0
 22 23  1  0
 23 24  1  0
 25 24  1  6
 25 26  1  0
 25 27  1  0
 27 29  1  0
 28 27  2  0
M  END
$$$$
