VHR.pdb
     RDKit          3D

 29 29  0  0  1  0  0  0  0  0999 V2000
    7.2072  -18.7793   24.3939 C   0  0  0  0  0  0  0  0  0  0  0  0
    6.0378  -18.0821   23.7973 C   0  0  2  0  0  0  0  0  0  0  0  0
    4.7686  -18.7784   24.3022 C   0  0  0  0  0  0  0  0  0  0  0  0
    6.0404  -18.0120   22.2893 C   0  0  2  0  0  0  0  0  0  0  0  0
    5.9577  -19.3310   21.7481 N   0  0  0  0  0  0  0  0  0  0  0  0
    7.2914  -17.3528   21.8429 C   0  0  0  0  0  0  0  0  0  0  0  0
    8.2666  -18.0516   21.5428 O   0  0  0  0  0  0  0  0  0  0  0  0
    7.4707  -15.9646   21.7270 N   0  0  0  0  0  0  0  0  0  0  0  0
    8.6319  -15.3116   21.3221 C   0  0  1  0  0  0  0  0  0  0  0  0
    8.6154  -14.0031   20.6402 C   0  0  0  0  0  0  0  0  0  0  0  0
    8.1472  -14.1070   19.2461 C   0  0  0  0  0  0  0  0  0  0  0  0
    7.8432  -15.2264   18.5343 C   0  0  0  0  0  0  0  0  0  0  0  0
    7.4290  -14.9001   17.2900 N   0  0  0  0  0  0  0  0  0  0  0  0
    7.4669  -13.5758   17.2040 C   0  0  0  0  0  0  0  0  0  0  0  0
    7.8979  -13.0785   18.3750 N   0  0  0  0  0  0  0  0  0  0  0  0
    9.6242  -15.2947   22.4173 C   0  0  0  0  0  0  0  0  0  0  0  0
    9.3585  -14.7214   23.5367 O   0  0  0  0  0  0  0  0  0  0  0  0
   10.9908  -21.6162   26.7467 N   0  0  0  0  0  0  0  0  0  0  0  0
   10.6291  -20.4032   27.3998 C   0  0  0  0  0  0  0  0  0  0  0  0
   10.3227  -20.4238   28.6532 N   0  0  0  0  0  0  0  0  0  0  0  0
   10.5988  -19.1699   26.6994 N   0  0  0  0  0  0  0  0  0  0  0  0
   10.8282  -19.0875   25.2679 C   0  0  0  0  0  0  0  0  0  0  0  0
   10.6469  -17.6676   24.7674 C   0  0  0  0  0  0  0  0  0  0  0  0
   11.9345  -17.2630   24.1006 C   0  0  0  0  0  0  0  0  0  0  0  0
   11.8255  -15.8635   23.4898 C   0  0  2  0  0  0  0  0  0  0  0  0
   10.9120  -15.8764   22.3646 N   0  0  0  0  0  0  0  0  0  0  0  0
   13.1720  -15.5293   22.9826 C   0  0  0  0  0  0  0  0  0  0  0  0
   13.4378  -15.4359   21.7495 O   0  0  0  0  0  0  0  0  0  0  0  0
   14.1906  -15.3078   23.8887 O   0  0  0  0  0  0  0  0  0  0  0  0
  2  1  1  6
  2  4  1  0
  2  3  1  0
  4  5  1  6
  6  4  1  0
  7  6  2  0
  8  6  1  0
  9  8  1  0
  9 10  1  1
 10 11  1  0
 11 12  2  0
 11 15  1  0
 12 13  1  0
 13 14  1  0
 15 14  2  0
 16 26  1  0
 16  9  1  0
 17 16  2  0
 18 19  1  0
 19 21  1  0
 19 20  2  0
 21 22  1  0
 22 23  1  0
 23 24  1  0
 25 24  1  6
 25 26  1  0
 25 27  1  0
 27 29  1  0
 28 27  2  0
M  END
$$$$
