VHR.pdb
     RDKit          3D

 29 29  0  0  1  0  0  0  0  0999 V2000
    7.0540  -13.0152   17.8751 C   0  0  0  0  0  0  0  0  0  0  0  0
    7.6524  -13.5860   19.1103 C   0  0  2  0  0  0  0  0  0  0  0  0
    8.8130  -14.4965   18.6921 C   0  0  0  0  0  0  0  0  0  0  0  0
    6.6865  -14.3321   19.9989 C   0  0  2  0  0  0  0  0  0  0  0  0
    5.5558  -13.5056   20.2780 N   0  0  0  0  0  0  0  0  0  0  0  0
    7.3785  -14.6958   21.2589 C   0  0  0  0  0  0  0  0  0  0  0  0
    7.6460  -13.8078   22.0772 O   0  0  0  0  0  0  0  0  0  0  0  0
    7.7673  -15.9975   21.6151 N   0  0  0  0  0  0  0  0  0  0  0  0
    8.4565  -16.3691   22.7665 C   0  0  1  0  0  0  0  0  0  0  0  0
    7.9233  -17.3455   23.7358 C   0  0  0  0  0  0  0  0  0  0  0  0
    8.7996  -17.4993   24.9114 C   0  0  0  0  0  0  0  0  0  0  0  0
    9.1636  -16.5605   25.8270 C   0  0  0  0  0  0  0  0  0  0  0  0
    9.9660  -17.1024   26.7697 N   0  0  0  0  0  0  0  0  0  0  0  0
   10.1161  -18.3847   26.4600 C   0  0  0  0  0  0  0  0  0  0  0  0
    9.4194  -18.6439   25.3411 N   0  0  0  0  0  0  0  0  0  0  0  0
    9.8614  -16.6964   22.4451 C   0  0  0  0  0  0  0  0  0  0  0  0
   10.1439  -17.6060   21.5818 O   0  0  0  0  0  0  0  0  0  0  0  0
   16.9052  -15.8434   19.8060 N   0  0  0  0  0  0  0  0  0  0  0  0
   16.1760  -14.9473   18.9729 C   0  0  0  0  0  0  0  0  0  0  0  0
   16.4136  -14.9234   17.7048 N   0  0  0  0  0  0  0  0  0  0  0  0
   15.1914  -14.0783   19.5097 N   0  0  0  0  0  0  0  0  0  0  0  0
   14.8980  -14.0259   20.9309 C   0  0  0  0  0  0  0  0  0  0  0  0
   14.3434  -15.3491   21.4223 C   0  0  0  0  0  0  0  0  0  0  0  0
   12.9589  -15.0827   21.9500 C   0  0  0  0  0  0  0  0  0  0  0  0
   12.3479  -16.3455   22.5631 C   0  0  2  0  0  0  0  0  0  0  0  0
   10.9977  -16.0800   23.0182 N   0  0  0  0  0  0  0  0  0  0  0  0
   13.1735  -16.6711   23.7439 C   0  0  0  0  0  0  0  0  0  0  0  0
   12.8247  -16.3854   24.9257 O   0  0  0  0  0  0  0  0  0  0  0  0
   14.3805  -17.3161   23.5572 O   0  0  0  0  0  0  0  0  0  0  0  0
  2  1  1  6
  2  4  1  0
  2  3  1  0
  4  5  1  1
  6  4  1  0
  7  6  2  0
  8  6  1  0
  9  8  1  0
  9 10  1  6
 10 11  1  0
 11 12  2  0
 11 15  1  0
 12 13  1  0
 13 14  1  0
 15 14  2  0
 16 26  1  0
 16  9  1  0
 17 16  2  0
 18 19  1  0
 19 21  1  0
 19 20  2  0
 21 22  1  0
 22 23  1  0
 23 24  1  0
 25 24  1  1
 25 26  1  0
 25 27  1  0
 27 29  1  0
 28 27  2  0
M  END
$$$$
