VHR.pdb
     RDKit          3D

 29 29  0  0  1  0  0  0  0  0999 V2000
   10.2732  -21.6031   17.6480 C   0  0  0  0  0  0  0  0  0  0  0  0
   10.1566  -20.2757   18.3068 C   0  0  2  0  0  0  0  0  0  0  0  0
    9.1554  -20.4106   19.4602 C   0  0  0  0  0  0  0  0  0  0  0  0
    9.7606  -19.1432   17.3904 C   0  0  2  0  0  0  0  0  0  0  0  0
   10.7081  -19.0331   16.3276 N   0  0  0  0  0  0  0  0  0  0  0  0
    9.7211  -17.8849   18.1739 C   0  0  0  0  0  0  0  0  0  0  0  0
   10.7795  -17.4060   18.5980 O   0  0  0  0  0  0  0  0  0  0  0  0
    8.5538  -17.1684   18.4848 N   0  0  0  0  0  0  0  0  0  0  0  0
    8.4683  -16.0359   19.2905 C   0  0  1  0  0  0  0  0  0  0  0  0
    7.3097  -15.1227   19.2631 C   0  0  0  0  0  0  0  0  0  0  0  0
    7.4991  -13.9555   20.1438 C   0  0  0  0  0  0  0  0  0  0  0  0
    8.3787  -12.9257   20.0104 C   0  0  0  0  0  0  0  0  0  0  0  0
    8.2274  -12.0383   21.0183 N   0  0  0  0  0  0  0  0  0  0  0  0
    7.2537  -12.4971   21.7955 C   0  0  0  0  0  0  0  0  0  0  0  0
    6.8010  -13.6538   21.2842 N   0  0  0  0  0  0  0  0  0  0  0  0
    8.8123  -16.3691   20.6887 C   0  0  0  0  0  0  0  0  0  0  0  0
    8.8068  -17.5887   21.0947 O   0  0  0  0  0  0  0  0  0  0  0  0
    5.9411  -20.8199   26.0476 N   0  0  0  0  0  0  0  0  0  0  0  0
    6.7245  -20.0257   26.9331 C   0  0  0  0  0  0  0  0  0  0  0  0
    6.6440  -20.2259   28.2054 N   0  0  0  0  0  0  0  0  0  0  0  0
    7.5937  -19.0165   26.4443 N   0  0  0  0  0  0  0  0  0  0  0  0
    7.5503  -18.5591   25.0669 C   0  0  0  0  0  0  0  0  0  0  0  0
    8.4643  -17.3669   24.8591 C   0  0  0  0  0  0  0  0  0  0  0  0
    8.3580  -16.9719   23.4104 C   0  0  0  0  0  0  0  0  0  0  0  0
    9.2760  -15.7892   23.0904 C   0  0  2  0  0  0  0  0  0  0  0  0
    9.1691  -15.4354   21.6890 N   0  0  0  0  0  0  0  0  0  0  0  0
   10.6542  -16.2580   23.3405 C   0  0  0  0  0  0  0  0  0  0  0  0
   11.4697  -16.5208   22.4101 O   0  0  0  0  0  0  0  0  0  0  0  0
   11.0782  -16.4187   24.6452 O   0  0  0  0  0  0  0  0  0  0  0  0
  2  1  1  6
  2  4  1  0
  2  3  1  0
  4  5  1  6
  6  4  1  0
  7  6  2  0
  8  6  1  0
  9  8  1  0
  9 10  1  1
 10 11  1  0
 11 12  2  0
 11 15  1  0
 12 13  1  0
 13 14  1  0
 15 14  2  0
 16 26  1  0
 16  9  1  0
 17 16  2  0
 18 19  1  0
 19 21  1  0
 19 20  2  0
 21 22  1  0
 22 23  1  0
 23 24  1  0
 25 24  1  6
 25 26  1  0
 25 27  1  0
 27 29  1  0
 28 27  2  0
M  END
$$$$
