VHR.pdb
     RDKit          3D

 29 29  0  0  1  0  0  0  0  0999 V2000
    8.3194  -15.3358   13.3374 C   0  0  0  0  0  0  0  0  0  0  0  0
    8.6115  -15.2055   14.7891 C   0  0  2  0  0  0  0  0  0  0  0  0
    8.9055  -16.6072   15.3364 C   0  0  0  0  0  0  0  0  0  0  0  0
    7.5269  -14.5366   15.5987 C   0  0  2  0  0  0  0  0  0  0  0  0
    7.2362  -13.2536   15.0429 N   0  0  0  0  0  0  0  0  0  0  0  0
    7.9936  -14.3943   16.9989 C   0  0  0  0  0  0  0  0  0  0  0  0
    8.9680  -13.6714   17.2386 O   0  0  0  0  0  0  0  0  0  0  0  0
    7.4090  -15.0262   18.1088 N   0  0  0  0  0  0  0  0  0  0  0  0
    7.8178  -14.9135   19.4350 C   0  0  1  0  0  0  0  0  0  0  0  0
    6.9119  -15.1607   20.5731 C   0  0  0  0  0  0  0  0  0  0  0  0
    7.5837  -14.9711   21.8717 C   0  0  0  0  0  0  0  0  0  0  0  0
    7.8315  -13.8102   22.5374 C   0  0  0  0  0  0  0  0  0  0  0  0
    8.4533  -14.0591   23.7111 N   0  0  0  0  0  0  0  0  0  0  0  0
    8.6036  -15.3753   23.7983 C   0  0  0  0  0  0  0  0  0  0  0  0
    8.0848  -15.9438   22.6973 N   0  0  0  0  0  0  0  0  0  0  0  0
    9.0945  -15.6278   19.6450 C   0  0  0  0  0  0  0  0  0  0  0  0
    9.2789  -16.8025   19.1567 O   0  0  0  0  0  0  0  0  0  0  0  0
   16.9296  -13.4379   17.9933 N   0  0  0  0  0  0  0  0  0  0  0  0
   16.1846  -14.4693   17.3532 C   0  0  0  0  0  0  0  0  0  0  0  0
   16.6803  -15.0636   16.3205 N   0  0  0  0  0  0  0  0  0  0  0  0
   14.9056  -14.8580   17.8285 N   0  0  0  0  0  0  0  0  0  0  0  0
   14.2103  -14.1211   18.8688 C   0  0  0  0  0  0  0  0  0  0  0  0
   12.7895  -14.6239   19.0366 C   0  0  0  0  0  0  0  0  0  0  0  0
   12.6463  -15.0852   20.4624 C   0  0  0  0  0  0  0  0  0  0  0  0
   11.3804  -15.9262   20.6475 C   0  0  2  0  0  0  0  0  0  0  0  0
   10.2027  -15.1290   20.3680 N   0  0  0  0  0  0  0  0  0  0  0  0
   11.3458  -16.3100   22.0735 C   0  0  0  0  0  0  0  0  0  0  0  0
   11.5889  -17.4847   22.4746 O   0  0  0  0  0  0  0  0  0  0  0  0
   11.0349  -15.3494   23.0160 O   0  0  0  0  0  0  0  0  0  0  0  0
  2  1  1  6
  2  4  1  0
  2  3  1  0
  4  5  1  6
  6  4  1  0
  7  6  2  0
  8  6  1  0
  9  8  1  0
  9 10  1  1
 10 11  1  0
 11 12  2  0
 11 15  1  0
 12 13  1  0
 13 14  1  0
 15 14  2  0
 16 26  1  0
 16  9  1  0
 17 16  2  0
 18 19  1  0
 19 21  1  0
 19 20  2  0
 21 22  1  0
 22 23  1  0
 23 24  1  0
 25 24  1  1
 25 26  1  0
 25 27  1  0
 27 29  1  0
 28 27  2  0
M  END
$$$$
