VHR.pdb
     RDKit          3D

 29 29  0  0  1  0  0  0  0  0999 V2000
    7.2162  -13.7224   21.1407 C   0  0  0  0  0  0  0  0  0  0  0  0
    8.2907  -13.3132   20.1985 C   0  0  2  0  0  0  0  0  0  0  0  0
    7.7368  -12.1894   19.3147 C   0  0  0  0  0  0  0  0  0  0  0  0
    8.8510  -14.4285   19.3494 C   0  0  2  0  0  0  0  0  0  0  0  0
    7.8343  -14.9243   18.4776 N   0  0  0  0  0  0  0  0  0  0  0  0
    9.3349  -15.5111   20.2397 C   0  0  0  0  0  0  0  0  0  0  0  0
    8.5461  -16.3933   20.5990 O   0  0  0  0  0  0  0  0  0  0  0  0
   10.6482  -15.6261   20.7241 N   0  0  0  0  0  0  0  0  0  0  0  0
   11.1190  -16.5837   21.6186 C   0  0  1  0  0  0  0  0  0  0  0  0
   12.4523  -17.2037   21.4955 C   0  0  0  0  0  0  0  0  0  0  0  0
   12.5294  -18.1382   20.3577 C   0  0  0  0  0  0  0  0  0  0  0  0
   11.5358  -18.5349   19.5167 C   0  0  0  0  0  0  0  0  0  0  0  0
   12.0147  -19.3890   18.5853 N   0  0  0  0  0  0  0  0  0  0  0  0
   13.3113  -19.5394   18.8278 C   0  0  0  0  0  0  0  0  0  0  0  0
   13.6414  -18.7921   19.8942 N   0  0  0  0  0  0  0  0  0  0  0  0
   10.8967  -16.1433   23.0118 C   0  0  0  0  0  0  0  0  0  0  0  0
   11.3996  -15.0410   23.4413 O   0  0  0  0  0  0  0  0  0  0  0  0
    6.6808  -20.8740   26.8549 N   0  0  0  0  0  0  0  0  0  0  0  0
    6.1823  -20.7134   25.5303 C   0  0  0  0  0  0  0  0  0  0  0  0
    5.8494  -21.7559   24.8463 N   0  0  0  0  0  0  0  0  0  0  0  0
    6.0437  -19.4281   24.9459 N   0  0  0  0  0  0  0  0  0  0  0  0
    6.5859  -18.2332   25.5678 C   0  0  0  0  0  0  0  0  0  0  0  0
    7.9650  -17.9133   25.0243 C   0  0  0  0  0  0  0  0  0  0  0  0
    8.4482  -16.6781   25.7361 C   0  0  0  0  0  0  0  0  0  0  0  0
    9.8681  -16.3075   25.2997 C   0  0  2  0  0  0  0  0  0  0  0  0
   10.1449  -16.8449   23.9824 N   0  0  0  0  0  0  0  0  0  0  0  0
   10.7786  -16.9615   26.2616 C   0  0  0  0  0  0  0  0  0  0  0  0
   11.5226  -17.9357   25.9497 O   0  0  0  0  0  0  0  0  0  0  0  0
   10.8250  -16.4942   27.5605 O   0  0  0  0  0  0  0  0  0  0  0  0
  2  1  1  6
  2  4  1  0
  2  3  1  0
  4  5  1  6
  6  4  1  0
  7  6  2  0
  8  6  1  0
  9  8  1  0
  9 10  1  1
 10 11  1  0
 11 12  2  0
 11 15  1  0
 12 13  1  0
 13 14  1  0
 15 14  2  0
 16 26  1  0
 16  9  1  0
 17 16  2  0
 18 19  1  0
 19 21  1  0
 19 20  2  0
 21 22  1  0
 22 23  1  0
 23 24  1  0
 25 24  1  1
 25 26  1  0
 25 27  1  0
 27 29  1  0
 28 27  2  0
M  END
$$$$
