VHR.pdb
     RDKit          3D

 29 29  0  0  1  0  0  0  0  0999 V2000
    1.9731  -27.3916   24.5654 C   0  0  0  0  0  0  0  0  0  0  0  0
    1.4035  -27.3328   25.9372 C   0  0  2  0  0  0  0  0  0  0  0  0
    1.7896  -28.6279   26.6614 C   0  0  0  0  0  0  0  0  0  0  0  0
   -0.0893  -27.1161   25.9974 C   0  0  2  0  0  0  0  0  0  0  0  0
   -0.4251  -25.9032   25.3225 N   0  0  0  0  0  0  0  0  0  0  0  0
   -0.5054  -27.0434   27.4188 C   0  0  0  0  0  0  0  0  0  0  0  0
   -0.3231  -25.9938   28.0469 O   0  0  0  0  0  0  0  0  0  0  0  0
   -1.1062  -28.0918   28.1347 N   0  0  0  0  0  0  0  0  0  0  0  0
   -1.4795  -28.0702   29.4759 C   0  0  1  0  0  0  0  0  0  0  0  0
   -2.7985  -28.5365   29.9449 C   0  0  0  0  0  0  0  0  0  0  0  0
   -2.9663  -28.3628   31.3993 C   0  0  0  0  0  0  0  0  0  0  0  0
   -3.2125  -27.2189   32.0944 C   0  0  0  0  0  0  0  0  0  0  0  0
   -3.3205  -27.4802   33.4159 N   0  0  0  0  0  0  0  0  0  0  0  0
   -3.1445  -28.7873   33.5680 C   0  0  0  0  0  0  0  0  0  0  0  0
   -2.9294  -29.3380   32.3618 N   0  0  0  0  0  0  0  0  0  0  0  0
   -0.4130  -28.6503   30.3187 C   0  0  0  0  0  0  0  0  0  0  0  0
    0.1019  -29.7932   30.0339 O   0  0  0  0  0  0  0  0  0  0  0  0
    6.1543  -25.3057   29.0508 N   0  0  0  0  0  0  0  0  0  0  0  0
    5.1250  -24.4652   29.5635 C   0  0  0  0  0  0  0  0  0  0  0  0
    5.1582  -23.1987   29.3181 N   0  0  0  0  0  0  0  0  0  0  0  0
    4.0615  -24.9927   30.3402 N   0  0  0  0  0  0  0  0  0  0  0  0
    3.9505  -26.4094   30.6388 C   0  0  0  0  0  0  0  0  0  0  0  0
    2.6732  -26.7079   31.3998 C   0  0  0  0  0  0  0  0  0  0  0  0
    2.5765  -28.2038   31.5373 C   0  0  0  0  0  0  0  0  0  0  0  0
    1.2575  -28.6149   32.1970 C   0  0  2  0  0  0  0  0  0  0  0  0
    0.1365  -28.0480   31.4741 N   0  0  0  0  0  0  0  0  0  0  0  0
    1.2735  -28.0265   33.5518 C   0  0  0  0  0  0  0  0  0  0  0  0
    0.5107  -27.0788   33.8981 O   0  0  0  0  0  0  0  0  0  0  0  0
    2.1576  -28.5280   34.4870 O   0  0  0  0  0  0  0  0  0  0  0  0
  2  1  1  6
  2  4  1  0
  2  3  1  0
  4  5  1  6
  6  4  1  0
  7  6  2  0
  8  6  1  0
  9  8  1  0
  9 10  1  6
 10 11  1  0
 11 12  2  0
 11 15  1  0
 12 13  1  0
 13 14  1  0
 15 14  2  0
 16 26  1  0
 16  9  1  0
 17 16  2  0
 18 19  1  0
 19 21  1  0
 19 20  2  0
 21 22  1  0
 22 23  1  0
 23 24  1  0
 25 24  1  6
 25 26  1  0
 25 27  1  0
 27 29  1  0
 28 27  2  0
M  END
$$$$
