VHR.pdb
     RDKit          3D

 29 29  0  0  1  0  0  0  0  0999 V2000
    6.0005  -17.8259   17.7768 C   0  0  0  0  0  0  0  0  0  0  0  0
    6.3515  -19.1994   18.2239 C   0  0  2  0  0  0  0  0  0  0  0  0
    5.1858  -20.1250   17.8561 C   0  0  0  0  0  0  0  0  0  0  0  0
    6.6861  -19.3249   19.6907 C   0  0  2  0  0  0  0  0  0  0  0  0
    5.5341  -19.0096   20.4736 N   0  0  0  0  0  0  0  0  0  0  0  0
    7.7936  -18.3922   20.0105 C   0  0  0  0  0  0  0  0  0  0  0  0
    8.8944  -18.5568   19.4713 O   0  0  0  0  0  0  0  0  0  0  0  0
    7.6992  -17.3068   20.8969 N   0  0  0  0  0  0  0  0  0  0  0  0
    8.7175  -16.4154   21.2243 C   0  0  1  0  0  0  0  0  0  0  0  0
    8.4997  -14.9600   21.3329 C   0  0  0  0  0  0  0  0  0  0  0  0
    8.1513  -14.3503   20.0365 C   0  0  0  0  0  0  0  0  0  0  0  0
    8.9081  -14.2638   18.9088 C   0  0  0  0  0  0  0  0  0  0  0  0
    8.2212  -13.6468   17.9220 N   0  0  0  0  0  0  0  0  0  0  0  0
    7.0275  -13.3389   18.4149 C   0  0  0  0  0  0  0  0  0  0  0  0
    6.9658  -13.7556   19.6905 N   0  0  0  0  0  0  0  0  0  0  0  0
    9.4702  -16.8997   22.4004 C   0  0  0  0  0  0  0  0  0  0  0  0
    8.9477  -16.8680   23.5744 O   0  0  0  0  0  0  0  0  0  0  0  0
   14.3506  -21.0736   19.2092 N   0  0  0  0  0  0  0  0  0  0  0  0
   15.2889  -20.0462   19.5137 C   0  0  0  0  0  0  0  0  0  0  0  0
   16.1717  -19.7114   18.6340 N   0  0  0  0  0  0  0  0  0  0  0  0
   15.2732  -19.3819   20.7671 N   0  0  0  0  0  0  0  0  0  0  0  0
   14.3376  -19.7373   21.8192 C   0  0  0  0  0  0  0  0  0  0  0  0
   13.4352  -18.5684   22.1643 C   0  0  0  0  0  0  0  0  0  0  0  0
   12.4173  -19.0692   23.1539 C   0  0  0  0  0  0  0  0  0  0  0  0
   11.4382  -17.9608   23.5496 C   0  0  2  0  0  0  0  0  0  0  0  0
   10.7822  -17.4266   22.3728 N   0  0  0  0  0  0  0  0  0  0  0  0
   12.2541  -16.8844   24.1474 C   0  0  0  0  0  0  0  0  0  0  0  0
   12.5015  -15.7975   23.5497 O   0  0  0  0  0  0  0  0  0  0  0  0
   12.7731  -17.0655   25.4146 O   0  0  0  0  0  0  0  0  0  0  0  0
  2  1  1  1
  2  4  1  0
  2  3  1  0
  4  5  1  1
  6  4  1  0
  7  6  2  0
  8  6  1  0
  9  8  1  0
  9 10  1  1
 10 11  1  0
 11 12  2  0
 11 15  1  0
 12 13  1  0
 13 14  1  0
 15 14  2  0
 16 26  1  0
 16  9  1  0
 17 16  2  0
 18 19  1  0
 19 21  1  0
 19 20  2  0
 21 22  1  0
 22 23  1  0
 23 24  1  0
 25 24  1  6
 25 26  1  0
 25 27  1  0
 27 29  1  0
 28 27  2  0
M  END
$$$$
