VHR.pdb
     RDKit          3D

 29 29  0  0  1  0  0  0  0  0999 V2000
    6.4340  -11.4824   27.7616 C   0  0  0  0  0  0  0  0  0  0  0  0
    6.9568  -12.3348   26.6618 C   0  0  2  0  0  0  0  0  0  0  0  0
    7.5964  -11.4127   25.6170 C   0  0  0  0  0  0  0  0  0  0  0  0
    5.9342  -13.2387   26.0165 C   0  0  2  0  0  0  0  0  0  0  0  0
    5.4265  -14.1566   26.9857 N   0  0  0  0  0  0  0  0  0  0  0  0
    6.5806  -13.9748   24.9033 C   0  0  0  0  0  0  0  0  0  0  0  0
    6.9457  -15.1423   25.0849 O   0  0  0  0  0  0  0  0  0  0  0  0
    6.8210  -13.4473   23.6240 N   0  0  0  0  0  0  0  0  0  0  0  0
    7.3251  -14.1388   22.5256 C   0  0  1  0  0  0  0  0  0  0  0  0
    7.2330  -13.6222   21.1465 C   0  0  0  0  0  0  0  0  0  0  0  0
    7.8516  -14.5344   20.1672 C   0  0  0  0  0  0  0  0  0  0  0  0
    8.5594  -15.6736   20.3979 C   0  0  0  0  0  0  0  0  0  0  0  0
    8.9431  -16.2388   19.2319 N   0  0  0  0  0  0  0  0  0  0  0  0
    8.4825  -15.4650   18.2564 C   0  0  0  0  0  0  0  0  0  0  0  0
    7.8206  -14.4306   18.8007 N   0  0  0  0  0  0  0  0  0  0  0  0
    8.7008  -14.6063   22.7959 C   0  0  0  0  0  0  0  0  0  0  0  0
    9.7014  -13.8077   22.6804 O   0  0  0  0  0  0  0  0  0  0  0  0
    6.4556  -19.2295   25.6874 N   0  0  0  0  0  0  0  0  0  0  0  0
    7.1966  -20.4431   25.6042 C   0  0  0  0  0  0  0  0  0  0  0  0
    6.5683  -21.5636   25.4816 N   0  0  0  0  0  0  0  0  0  0  0  0
    8.6144  -20.4456   25.6534 N   0  0  0  0  0  0  0  0  0  0  0  0
    9.3831  -19.2325   25.8679 C   0  0  0  0  0  0  0  0  0  0  0  0
    9.4709  -18.4105   24.5966 C   0  0  0  0  0  0  0  0  0  0  0  0
   10.2494  -17.1647   24.9251 C   0  0  0  0  0  0  0  0  0  0  0  0
   10.3721  -16.2504   23.7033 C   0  0  2  0  0  0  0  0  0  0  0  0
    9.0577  -15.9159   23.1924 N   0  0  0  0  0  0  0  0  0  0  0  0
   11.0787  -17.0353   22.6706 C   0  0  0  0  0  0  0  0  0  0  0  0
   10.5042  -17.4863   21.6379 O   0  0  0  0  0  0  0  0  0  0  0  0
   12.4261  -17.2922   22.8329 O   0  0  0  0  0  0  0  0  0  0  0  0
  2  1  1  1
  2  4  1  0
  2  3  1  0
  4  5  1  1
  6  4  1  0
  7  6  2  0
  8  6  1  0
  9  8  1  0
  9 10  1  6
 10 11  1  0
 11 12  2  0
 11 15  1  0
 12 13  1  0
 13 14  1  0
 15 14  2  0
 16 26  1  0
 16  9  1  0
 17 16  2  0
 18 19  1  0
 19 21  1  0
 19 20  2  0
 21 22  1  0
 22 23  1  0
 23 24  1  0
 25 24  1  1
 25 26  1  0
 25 27  1  0
 27 29  1  0
 28 27  2  0
M  END
$$$$
