VHR.pdb
     RDKit          3D

 29 29  0  0  1  0  0  0  0  0999 V2000
    6.8970  -21.4072   19.0031 C   0  0  0  0  0  0  0  0  0  0  0  0
    7.7136  -20.2669   19.4955 C   0  0  2  0  0  0  0  0  0  0  0  0
    7.7785  -20.3619   21.0244 C   0  0  0  0  0  0  0  0  0  0  0  0
    7.2250  -18.9036   19.0690 C   0  0  2  0  0  0  0  0  0  0  0  0
    7.0782  -18.8698   17.6488 N   0  0  0  0  0  0  0  0  0  0  0  0
    8.2088  -17.8841   19.5066 C   0  0  0  0  0  0  0  0  0  0  0  0
    9.2484  -17.7312   18.8545 O   0  0  0  0  0  0  0  0  0  0  0  0
    8.0588  -17.0526   20.6286 N   0  0  0  0  0  0  0  0  0  0  0  0
    8.9328  -16.0483   21.0366 C   0  0  1  0  0  0  0  0  0  0  0  0
    8.5037  -14.6514   21.2407 C   0  0  0  0  0  0  0  0  0  0  0  0
    7.9332  -14.0591   20.0170 C   0  0  0  0  0  0  0  0  0  0  0  0
    6.6866  -13.5487   19.8229 C   0  0  0  0  0  0  0  0  0  0  0  0
    6.5563  -13.0802   18.5621 N   0  0  0  0  0  0  0  0  0  0  0  0
    7.7154  -13.2890   17.9495 C   0  0  0  0  0  0  0  0  0  0  0  0
    8.5600  -13.8791   18.8114 N   0  0  0  0  0  0  0  0  0  0  0  0
    9.7370  -16.5005   22.1912 C   0  0  0  0  0  0  0  0  0  0  0  0
    9.1695  -16.9709   23.2442 O   0  0  0  0  0  0  0  0  0  0  0  0
   17.0570  -21.1127   21.0928 N   0  0  0  0  0  0  0  0  0  0  0  0
   16.6408  -21.3775   22.4290 C   0  0  0  0  0  0  0  0  0  0  0  0
   17.1656  -22.3644   23.0739 N   0  0  0  0  0  0  0  0  0  0  0  0
   15.6588  -20.5768   23.0671 N   0  0  0  0  0  0  0  0  0  0  0  0
   14.9628  -19.5074   22.3739 C   0  0  0  0  0  0  0  0  0  0  0  0
   13.8252  -18.9619   23.2153 C   0  0  0  0  0  0  0  0  0  0  0  0
   13.0840  -17.9629   22.3674 C   0  0  0  0  0  0  0  0  0  0  0  0
   11.9065  -17.3531   23.1325 C   0  0  2  0  0  0  0  0  0  0  0  0
   11.1487  -16.4707   22.2678 N   0  0  0  0  0  0  0  0  0  0  0  0
   12.4957  -16.5386   24.2148 C   0  0  0  0  0  0  0  0  0  0  0  0
   13.1337  -17.0423   25.1839 O   0  0  0  0  0  0  0  0  0  0  0  0
   12.3477  -15.1660   24.1735 O   0  0  0  0  0  0  0  0  0  0  0  0
  2  1  1  1
  2  4  1  0
  2  3  1  0
  4  5  1  6
  6  4  1  0
  7  6  2  0
  8  6  1  0
  9  8  1  0
  9 10  1  1
 10 11  1  0
 11 12  2  0
 11 15  1  0
 12 13  1  0
 13 14  1  0
 15 14  2  0
 16 26  1  0
 16  9  1  0
 17 16  2  0
 18 19  1  0
 19 21  1  0
 19 20  2  0
 21 22  1  0
 22 23  1  0
 23 24  1  0
 25 24  1  6
 25 26  1  0
 25 27  1  0
 27 29  1  0
 28 27  2  0
M  END
$$$$
