VHR.pdb
     RDKit          3D

 29 29  0  0  1  0  0  0  0  0999 V2000
    8.3410  -21.3376   19.4284 C   0  0  0  0  0  0  0  0  0  0  0  0
    6.9562  -21.0330   18.9819 C   0  0  2  0  0  0  0  0  0  0  0  0
    6.3043  -22.3497   18.5436 C   0  0  0  0  0  0  0  0  0  0  0  0
    6.8540  -19.9998   17.8860 C   0  0  2  0  0  0  0  0  0  0  0  0
    7.5378  -20.4663   16.7222 N   0  0  0  0  0  0  0  0  0  0  0  0
    7.4608  -18.7338   18.3635 C   0  0  0  0  0  0  0  0  0  0  0  0
    8.6800  -18.5666   18.2414 O   0  0  0  0  0  0  0  0  0  0  0  0
    6.7518  -17.6776   18.9589 N   0  0  0  0  0  0  0  0  0  0  0  0
    7.2873  -16.4770   19.4179 C   0  0  1  0  0  0  0  0  0  0  0  0
    6.5279  -15.2120   19.4159 C   0  0  0  0  0  0  0  0  0  0  0  0
    7.3863  -14.0461   19.6943 C   0  0  0  0  0  0  0  0  0  0  0  0
    8.1232  -13.3070   18.8209 C   0  0  0  0  0  0  0  0  0  0  0  0
    8.7601  -12.3049   19.4662 N   0  0  0  0  0  0  0  0  0  0  0  0
    8.4326  -12.4005   20.7492 C   0  0  0  0  0  0  0  0  0  0  0  0
    7.6037  -13.4457   20.9073 N   0  0  0  0  0  0  0  0  0  0  0  0
    7.9385  -16.6698   20.7305 C   0  0  0  0  0  0  0  0  0  0  0  0
    7.3462  -17.3173   21.6698 O   0  0  0  0  0  0  0  0  0  0  0  0
   16.5257  -16.9526   22.0009 N   0  0  0  0  0  0  0  0  0  0  0  0
   15.8350  -18.1788   21.7817 C   0  0  0  0  0  0  0  0  0  0  0  0
   16.5063  -19.2439   21.4983 N   0  0  0  0  0  0  0  0  0  0  0  0
   14.4209  -18.2537   21.8686 N   0  0  0  0  0  0  0  0  0  0  0  0
   13.5973  -17.0811   22.1035 C   0  0  0  0  0  0  0  0  0  0  0  0
   12.1440  -17.4664   22.3020 C   0  0  0  0  0  0  0  0  0  0  0  0
   11.3422  -16.1924   22.3035 C   0  0  0  0  0  0  0  0  0  0  0  0
    9.8404  -16.4836   22.3639 C   0  0  2  0  0  0  0  0  0  0  0  0
    9.2204  -16.1908   21.0870 N   0  0  0  0  0  0  0  0  0  0  0  0
    9.2809  -15.5561   23.3681 C   0  0  0  0  0  0  0  0  0  0  0  0
    8.4951  -14.6115   23.0679 O   0  0  0  0  0  0  0  0  0  0  0  0
    9.6264  -15.7212   24.6951 O   0  0  0  0  0  0  0  0  0  0  0  0
  2  1  1  6
  2  4  1  0
  2  3  1  0
  4  5  1  6
  6  4  1  0
  7  6  2  0
  8  6  1  0
  9  8  1  0
  9 10  1  1
 10 11  1  0
 11 12  2  0
 11 15  1  0
 12 13  1  0
 13 14  1  0
 15 14  2  0
 16 26  1  0
 16  9  1  0
 17 16  2  0
 18 19  1  0
 19 21  1  0
 19 20  2  0
 21 22  1  0
 22 23  1  0
 23 24  1  0
 25 24  1  6
 25 26  1  0
 25 27  1  0
 27 29  1  0
 28 27  2  0
M  END
$$$$
