MNW.pdb
     RDKit          3D

 31 32  0  0  1  0  0  0  0  0999 V2000
    8.2254  -11.4791   19.9893 C   0  0  0  0  0  0  0  0  0  0  0  0
    7.5452  -12.4317   18.6139 S   0  0  0  0  0  0  0  0  0  0  0  0
    8.1877  -14.1023   18.5466 C   0  0  0  0  0  0  0  0  0  0  0  0
    8.1956  -14.7273   19.9327 C   0  0  0  0  0  0  0  0  0  0  0  0
    9.6116  -15.1894   20.2978 C   0  0  2  0  0  0  0  0  0  0  0  0
   10.0984  -15.9143   19.1426 N   0  0  0  0  0  0  0  0  0  0  0  0
    9.4670  -16.1247   21.4430 C   0  0  0  0  0  0  0  0  0  0  0  0
    8.6344  -15.9027   22.3785 O   0  0  0  0  0  0  0  0  0  0  0  0
   11.1932  -20.5029   20.2157 N   0  0  0  0  0  0  0  0  0  0  0  0
   10.4034  -20.2062   21.3500 C   0  0  0  0  0  0  0  0  0  0  0  0
    9.1744  -20.6142   21.2513 O   0  0  0  0  0  0  0  0  0  0  0  0
   10.8365  -19.5105   22.5665 C   0  0  0  0  0  0  0  0  0  0  0  0
   10.1450  -18.1877   22.7087 C   0  0  2  0  0  0  0  0  0  0  0  0
   10.2590  -17.3262   21.5518 N   0  0  0  0  0  0  0  0  0  0  0  0
   10.6102  -17.5222   23.9510 C   0  0  0  0  0  0  0  0  0  0  0  0
   11.8031  -17.1232   24.0910 O   0  0  0  0  0  0  0  0  0  0  0  0
    9.7569  -17.2806   25.0839 N   0  0  0  0  0  0  0  0  0  0  0  0
   10.2930  -16.7403   26.3156 C   0  0  1  0  0  0  0  0  0  0  0  0
    9.9036  -15.2683   26.4685 C   0  0  0  0  0  0  0  0  0  0  0  0
    8.4835  -15.0613   26.1211 C   0  0  0  0  0  0  0  0  0  0  0  0
    7.5214  -15.9819   25.7432 C   0  0  0  0  0  0  0  0  0  0  0  0
    6.3426  -15.3748   25.5111 N   0  0  0  0  0  0  0  0  0  0  0  0
    6.5308  -14.0645   25.7353 C   0  0  0  0  0  0  0  0  0  0  0  0
    5.6474  -12.9961   25.6428 C   0  0  0  0  0  0  0  0  0  0  0  0
    6.0905  -11.7067   25.9319 C   0  0  0  0  0  0  0  0  0  0  0  0
    7.4009  -11.5063   26.3063 C   0  0  0  0  0  0  0  0  0  0  0  0
    8.2837  -12.5851   26.3972 C   0  0  0  0  0  0  0  0  0  0  0  0
    7.8344  -13.8367   26.1116 C   0  0  0  0  0  0  0  0  0  0  0  0
    9.8412  -17.5135   27.5050 C   0  0  0  0  0  0  0  0  0  0  0  0
   10.3663  -17.2631   28.7727 O   0  0  0  0  0  0  0  0  0  0  0  0
    8.9732  -18.4106   27.3833 O   0  0  0  0  0  0  0  0  0  0  0  0
  2  1  1  0
  3  2  1  0
  4  5  1  0
  4  3  1  0
  5  6  1  6
  7  5  1  0
  8  7  2  0
  9 10  1  0
 10 12  1  0
 10 11  2  0
 13 12  1  6
 13 14  1  0
 14  7  1  0
 15 13  1  0
 15 16  2  0
 17 15  1  0
 18 17  1  0
 18 19  1  1
 20 19  1  0
 20 21  2  0
 22 21  1  0
 23 22  1  0
 24 23  2  0
 25 24  1  0
 26 25  2  0
 26 27  1  0
 27 28  2  0
 28 23  1  0
 28 20  1  0
 29 18  1  0
 30 29  1  0
 31 29  2  0
M  END
$$$$
