MNW.pdb
     RDKit          3D

 31 32  0  0  1  0  0  0  0  0999 V2000
    7.4943  -11.9640   19.3417 C   0  0  0  0  0  0  0  0  0  0  0  0
    8.1972  -13.1387   20.5197 S   0  0  0  0  0  0  0  0  0  0  0  0
    7.0611  -14.4579   20.9406 C   0  0  0  0  0  0  0  0  0  0  0  0
    6.9925  -15.4814   19.8182 C   0  0  0  0  0  0  0  0  0  0  0  0
    8.3882  -16.0490   19.5324 C   0  0  2  0  0  0  0  0  0  0  0  0
    8.2239  -16.9493   18.4102 N   0  0  0  0  0  0  0  0  0  0  0  0
    8.7812  -16.8262   20.7360 C   0  0  0  0  0  0  0  0  0  0  0  0
    8.3816  -18.0206   20.9128 O   0  0  0  0  0  0  0  0  0  0  0  0
   11.5141  -17.1523   20.5081 N   0  0  0  0  0  0  0  0  0  0  0  0
   11.4466  -18.2536   21.3919 C   0  0  0  0  0  0  0  0  0  0  0  0
   12.1596  -19.2709   21.0134 O   0  0  0  0  0  0  0  0  0  0  0  0
   10.6761  -18.3368   22.6373 C   0  0  0  0  0  0  0  0  0  0  0  0
    9.9836  -17.0401   22.9329 C   0  0  2  0  0  0  0  0  0  0  0  0
    9.6321  -16.2692   21.7599 N   0  0  0  0  0  0  0  0  0  0  0  0
   10.7988  -16.2568   23.8945 C   0  0  0  0  0  0  0  0  0  0  0  0
   12.0637  -16.2525   23.8528 O   0  0  0  0  0  0  0  0  0  0  0  0
   10.2274  -15.4508   24.9402 N   0  0  0  0  0  0  0  0  0  0  0  0
    9.7784  -16.0508   26.1791 C   0  0  1  0  0  0  0  0  0  0  0  0
    8.3770  -16.6418   26.0104 C   0  0  0  0  0  0  0  0  0  0  0  0
    7.3498  -15.5826   26.0632 C   0  0  0  0  0  0  0  0  0  0  0  0
    5.9780  -15.6709   25.9009 C   0  0  0  0  0  0  0  0  0  0  0  0
    5.4021  -14.4605   26.0241 N   0  0  0  0  0  0  0  0  0  0  0  0
    6.3902  -13.5840   26.2656 C   0  0  0  0  0  0  0  0  0  0  0  0
    6.3493  -12.2106   26.4716 C   0  0  0  0  0  0  0  0  0  0  0  0
    7.5322  -11.5121   26.7068 C   0  0  0  0  0  0  0  0  0  0  0  0
    8.7296  -12.1925   26.7323 C   0  0  0  0  0  0  0  0  0  0  0  0
    8.7635  -13.5734   26.5243 C   0  0  0  0  0  0  0  0  0  0  0  0
    7.5996  -14.2393   26.2962 C   0  0  0  0  0  0  0  0  0  0  0  0
   10.7190  -17.0989   26.6622 C   0  0  0  0  0  0  0  0  0  0  0  0
   11.1053  -17.1626   28.0010 O   0  0  0  0  0  0  0  0  0  0  0  0
   11.1827  -17.9483   25.8645 O   0  0  0  0  0  0  0  0  0  0  0  0
  2  1  1  0
  3  2  1  0
  4  5  1  0
  4  3  1  0
  5  6  1  6
  7  5  1  0
  8  7  2  0
  9 10  1  0
 10 12  1  0
 10 11  2  0
 13 12  1  6
 13 14  1  0
 14  7  1  0
 15 13  1  0
 15 16  2  0
 17 15  1  0
 18 17  1  0
 18 19  1  6
 20 19  1  0
 20 21  2  0
 22 21  1  0
 23 22  1  0
 24 23  2  0
 25 24  1  0
 26 25  2  0
 26 27  1  0
 27 28  2  0
 28 23  1  0
 28 20  1  0
 29 18  1  0
 30 29  1  0
 31 29  2  0
M  END
$$$$
