MNW.pdb
     RDKit          3D

 31 32  0  0  1  0  0  0  0  0999 V2000
    5.9615  -15.0212   16.1794 C   0  0  0  0  0  0  0  0  0  0  0  0
    7.4317  -14.2768   15.4405 S   0  0  0  0  0  0  0  0  0  0  0  0
    8.6746  -13.8489   16.6573 C   0  0  0  0  0  0  0  0  0  0  0  0
    8.0320  -13.6054   18.0136 C   0  0  0  0  0  0  0  0  0  0  0  0
    9.1075  -13.2929   19.0612 C   0  0  2  0  0  0  0  0  0  0  0  0
   10.2984  -12.9506   18.3118 N   0  0  0  0  0  0  0  0  0  0  0  0
    9.3419  -14.5529   19.8127 C   0  0  0  0  0  0  0  0  0  0  0  0
    8.4208  -15.0933   20.5034 O   0  0  0  0  0  0  0  0  0  0  0  0
   13.2601  -17.3003   18.0527 N   0  0  0  0  0  0  0  0  0  0  0  0
   12.2385  -17.5637   18.9936 C   0  0  0  0  0  0  0  0  0  0  0  0
   11.2911  -18.3251   18.5359 O   0  0  0  0  0  0  0  0  0  0  0  0
   12.1648  -17.0720   20.3736 C   0  0  0  0  0  0  0  0  0  0  0  0
   10.8596  -16.3810   20.6328 C   0  0  2  0  0  0  0  0  0  0  0  0
   10.6192  -15.2244   19.7972 N   0  0  0  0  0  0  0  0  0  0  0  0
   10.7532  -16.0599   22.0779 C   0  0  0  0  0  0  0  0  0  0  0  0
   11.5419  -15.2478   22.6437 O   0  0  0  0  0  0  0  0  0  0  0  0
    9.7605  -16.6384   22.9438 N   0  0  0  0  0  0  0  0  0  0  0  0
    9.4240  -16.0166   24.2073 C   0  0  1  0  0  0  0  0  0  0  0  0
    8.0347  -15.3789   24.1368 C   0  0  0  0  0  0  0  0  0  0  0  0
    7.6181  -14.8781   25.4618 C   0  0  0  0  0  0  0  0  0  0  0  0
    7.3742  -15.5725   26.6340 C   0  0  0  0  0  0  0  0  0  0  0  0
    7.0107  -14.7329   27.6214 N   0  0  0  0  0  0  0  0  0  0  0  0
    7.0161  -13.4958   27.0997 C   0  0  0  0  0  0  0  0  0  0  0  0
    6.7206  -12.2689   27.6810 C   0  0  0  0  0  0  0  0  0  0  0  0
    6.8005  -11.1059   26.9172 C   0  0  0  0  0  0  0  0  0  0  0  0
    7.1719  -11.1864   25.5932 C   0  0  0  0  0  0  0  0  0  0  0  0
    7.4676  -12.4233   25.0151 C   0  0  0  0  0  0  0  0  0  0  0  0
    7.3846  -13.5483   25.7752 C   0  0  0  0  0  0  0  0  0  0  0  0
    9.4839  -16.9847   25.3368 C   0  0  0  0  0  0  0  0  0  0  0  0
    9.4622  -18.3611   25.1117 O   0  0  0  0  0  0  0  0  0  0  0  0
    9.5551  -16.5728   26.5193 O   0  0  0  0  0  0  0  0  0  0  0  0
  2  1  1  0
  3  2  1  0
  4  5  1  0
  4  3  1  0
  5  6  1  6
  7  5  1  0
  8  7  2  0
  9 10  1  0
 10 12  1  0
 10 11  2  0
 13 12  1  1
 13 14  1  0
 14  7  1  0
 15 13  1  0
 15 16  2  0
 17 15  1  0
 18 17  1  0
 18 19  1  6
 20 19  1  0
 20 21  2  0
 22 21  1  0
 23 22  1  0
 24 23  2  0
 25 24  1  0
 26 25  2  0
 26 27  1  0
 27 28  2  0
 28 23  1  0
 28 20  1  0
 29 18  1  0
 30 29  1  0
 31 29  2  0
M  END
$$$$
