MNW.pdb
     RDKit          3D

 31 32  0  0  1  0  0  0  0  0999 V2000
    2.0249  -18.1352   20.0196 C   0  0  0  0  0  0  0  0  0  0  0  0
    2.3902  -18.9818   21.5724 S   0  0  0  0  0  0  0  0  0  0  0  0
    3.6060  -20.2830   21.3800 C   0  0  0  0  0  0  0  0  0  0  0  0
    4.9287  -19.7101   20.8961 C   0  0  0  0  0  0  0  0  0  0  0  0
    5.8048  -19.3162   22.0915 C   0  0  2  0  0  0  0  0  0  0  0  0
    5.0825  -18.2659   22.7787 N   0  0  0  0  0  0  0  0  0  0  0  0
    7.0629  -18.7629   21.5272 C   0  0  0  0  0  0  0  0  0  0  0  0
    7.8665  -19.4902   20.8619 O   0  0  0  0  0  0  0  0  0  0  0  0
    6.2217  -15.5671   20.8394 N   0  0  0  0  0  0  0  0  0  0  0  0
    7.3630  -15.2673   20.0610 C   0  0  0  0  0  0  0  0  0  0  0  0
    7.1731  -14.3109   19.2031 O   0  0  0  0  0  0  0  0  0  0  0  0
    8.6766  -15.9155   20.1389 C   0  0  0  0  0  0  0  0  0  0  0  0
    8.7288  -16.8983   21.2700 C   0  0  2  0  0  0  0  0  0  0  0  0
    7.4350  -17.3798   21.7038 N   0  0  0  0  0  0  0  0  0  0  0  0
    9.5144  -16.3185   22.3877 C   0  0  0  0  0  0  0  0  0  0  0  0
   10.5876  -15.6775   22.1904 O   0  0  0  0  0  0  0  0  0  0  0  0
    9.1283  -16.4371   23.7685 N   0  0  0  0  0  0  0  0  0  0  0  0
   10.0888  -16.2186   24.8297 C   0  0  1  0  0  0  0  0  0  0  0  0
    9.8295  -14.8769   25.5184 C   0  0  0  0  0  0  0  0  0  0  0  0
    8.3814  -14.6448   25.6891 C   0  0  0  0  0  0  0  0  0  0  0  0
    7.3218  -15.5248   25.5534 C   0  0  0  0  0  0  0  0  0  0  0  0
    6.1512  -14.9063   25.7963 N   0  0  0  0  0  0  0  0  0  0  0  0
    6.4416  -13.6285   26.0893 C   0  0  0  0  0  0  0  0  0  0  0  0
    5.6094  -12.5649   26.4158 C   0  0  0  0  0  0  0  0  0  0  0  0
    6.1611  -11.3131   26.6822 C   0  0  0  0  0  0  0  0  0  0  0  0
    7.5268  -11.1447   26.6185 C   0  0  0  0  0  0  0  0  0  0  0  0
    8.3576  -12.2184   26.2895 C   0  0  0  0  0  0  0  0  0  0  0  0
    7.8023  -13.4333   26.0327 C   0  0  0  0  0  0  0  0  0  0  0  0
   10.0691  -17.3188   25.8326 C   0  0  0  0  0  0  0  0  0  0  0  0
   11.0446  -17.4101   26.8254 O   0  0  0  0  0  0  0  0  0  0  0  0
    9.1661  -18.1885   25.7991 O   0  0  0  0  0  0  0  0  0  0  0  0
  2  1  1  0
  3  2  1  0
  4  5  1  0
  4  3  1  0
  5  6  1  6
  7  5  1  0
  8  7  2  0
  9 10  1  0
 10 12  1  0
 10 11  2  0
 13 12  1  6
 13 14  1  0
 14  7  1  0
 15 13  1  0
 15 16  2  0
 17 15  1  0
 18 17  1  0
 18 19  1  1
 20 19  1  0
 20 21  2  0
 22 21  1  0
 23 22  1  0
 24 23  2  0
 25 24  1  0
 26 25  2  0
 26 27  1  0
 27 28  2  0
 28 23  1  0
 28 20  1  0
 29 18  1  0
 30 29  1  0
 31 29  2  0
M  END
$$$$
