MNW.pdb
     RDKit          3D

 31 32  0  0  1  0  0  0  0  0999 V2000
    7.7544  -11.5278   19.3887 C   0  0  0  0  0  0  0  0  0  0  0  0
    7.0327  -13.1712   19.1881 S   0  0  0  0  0  0  0  0  0  0  0  0
    8.2216  -14.4844   19.4534 C   0  0  0  0  0  0  0  0  0  0  0  0
    9.5066  -13.9291   20.0469 C   0  0  0  0  0  0  0  0  0  0  0  0
   10.5100  -15.0624   20.2929 C   0  0  2  0  0  0  0  0  0  0  0  0
   10.4168  -15.9278   19.1355 N   0  0  0  0  0  0  0  0  0  0  0  0
   10.0335  -15.7929   21.4956 C   0  0  0  0  0  0  0  0  0  0  0  0
    9.6971  -15.1756   22.5555 O   0  0  0  0  0  0  0  0  0  0  0  0
   10.4756  -20.4763   20.4678 N   0  0  0  0  0  0  0  0  0  0  0  0
    9.4587  -19.8789   21.2472 C   0  0  0  0  0  0  0  0  0  0  0  0
    8.3286  -19.7499   20.6204 O   0  0  0  0  0  0  0  0  0  0  0  0
    9.5704  -19.4160   22.6346 C   0  0  0  0  0  0  0  0  0  0  0  0
    9.4844  -17.9212   22.7149 C   0  0  2  0  0  0  0  0  0  0  0  0
    9.9280  -17.2319   21.5225 N   0  0  0  0  0  0  0  0  0  0  0  0
   10.1967  -17.4536   23.9301 C   0  0  0  0  0  0  0  0  0  0  0  0
   11.4510  -17.2860   23.9487 O   0  0  0  0  0  0  0  0  0  0  0  0
    9.5307  -17.1583   25.1707 N   0  0  0  0  0  0  0  0  0  0  0  0
   10.2815  -16.7366   26.3347 C   0  0  1  0  0  0  0  0  0  0  0  0
    9.9131  -15.3017   26.7182 C   0  0  0  0  0  0  0  0  0  0  0  0
    8.4993  -15.0190   26.4000 C   0  0  0  0  0  0  0  0  0  0  0  0
    7.4498  -15.8937   26.1783 C   0  0  0  0  0  0  0  0  0  0  0  0
    6.3136  -15.2217   25.9146 N   0  0  0  0  0  0  0  0  0  0  0  0
    6.6164  -13.9145   25.9629 C   0  0  0  0  0  0  0  0  0  0  0  0
    5.8179  -12.7944   25.7678 C   0  0  0  0  0  0  0  0  0  0  0  0
    6.3760  -11.5217   25.8737 C   0  0  0  0  0  0  0  0  0  0  0  0
    7.7145  -11.3891   26.1708 C   0  0  0  0  0  0  0  0  0  0  0  0
    8.5116  -12.5196   26.3656 C   0  0  0  0  0  0  0  0  0  0  0  0
    7.9505  -13.7541   26.2586 C   0  0  0  0  0  0  0  0  0  0  0  0
   10.0666  -17.6455   27.4942 C   0  0  0  0  0  0  0  0  0  0  0  0
   10.7986  -17.5001   28.6726 O   0  0  0  0  0  0  0  0  0  0  0  0
    9.2158  -18.5645   27.4277 O   0  0  0  0  0  0  0  0  0  0  0  0
  2  1  1  0
  3  2  1  0
  4  5  1  0
  4  3  1  0
  5  6  1  6
  7  5  1  0
  8  7  2  0
  9 10  1  0
 10 12  1  0
 10 11  2  0
 13 12  1  6
 13 14  1  0
 14  7  1  0
 15 13  1  0
 15 16  2  0
 17 15  1  0
 18 17  1  0
 18 19  1  1
 20 19  1  0
 20 21  2  0
 22 21  1  0
 23 22  1  0
 24 23  2  0
 25 24  1  0
 26 25  2  0
 26 27  1  0
 27 28  2  0
 28 23  1  0
 28 20  1  0
 29 18  1  0
 30 29  1  0
 31 29  2  0
M  END
$$$$
