MNW.pdb
     RDKit          3D

 31 32  0  0  1  0  0  0  0  0999 V2000
    7.2221  -12.0673   17.6618 C   0  0  0  0  0  0  0  0  0  0  0  0
    7.6416  -13.6315   18.4612 S   0  0  0  0  0  0  0  0  0  0  0  0
    6.3484  -14.2173   19.5534 C   0  0  0  0  0  0  0  0  0  0  0  0
    6.8665  -15.3381   20.4408 C   0  0  0  0  0  0  0  0  0  0  0  0
    8.1855  -14.9227   21.1036 C   0  0  2  0  0  0  0  0  0  0  0  0
    9.1483  -14.8126   20.0275 N   0  0  0  0  0  0  0  0  0  0  0  0
    8.5750  -16.0396   22.0025 C   0  0  0  0  0  0  0  0  0  0  0  0
    7.7986  -16.4515   22.9219 O   0  0  0  0  0  0  0  0  0  0  0  0
   12.5331  -17.9564   20.1521 N   0  0  0  0  0  0  0  0  0  0  0  0
   12.3193  -17.9396   21.5495 C   0  0  0  0  0  0  0  0  0  0  0  0
   13.1464  -17.1739   22.1947 O   0  0  0  0  0  0  0  0  0  0  0  0
   11.2927  -18.6789   22.2918 C   0  0  0  0  0  0  0  0  0  0  0  0
   10.2259  -17.7576   22.8032 C   0  0  2  0  0  0  0  0  0  0  0  0
    9.8465  -16.7109   21.8789 N   0  0  0  0  0  0  0  0  0  0  0  0
   10.6357  -17.2178   24.1235 C   0  0  0  0  0  0  0  0  0  0  0  0
   11.5602  -16.3614   24.2396 O   0  0  0  0  0  0  0  0  0  0  0  0
   10.0265  -17.6189   25.3636 N   0  0  0  0  0  0  0  0  0  0  0  0
   10.3941  -16.9832   26.6114 C   0  0  1  0  0  0  0  0  0  0  0  0
   10.2498  -15.4637   26.5008 C   0  0  0  0  0  0  0  0  0  0  0  0
    8.8499  -15.0876   26.2202 C   0  0  0  0  0  0  0  0  0  0  0  0
    7.7880  -15.8733   25.8069 C   0  0  0  0  0  0  0  0  0  0  0  0
    6.6723  -15.1340   25.6634 N   0  0  0  0  0  0  0  0  0  0  0  0
    7.0008  -13.8713   25.9805 C   0  0  0  0  0  0  0  0  0  0  0  0
    6.2302  -12.7154   26.0010 C   0  0  0  0  0  0  0  0  0  0  0  0
    6.8118  -11.5044   26.3722 C   0  0  0  0  0  0  0  0  0  0  0  0
    8.1455  -11.4677   26.7147 C   0  0  0  0  0  0  0  0  0  0  0  0
    8.9144  -12.6337   26.6918 C   0  0  0  0  0  0  0  0  0  0  0  0
    8.3307  -13.8069   26.3272 C   0  0  0  0  0  0  0  0  0  0  0  0
    9.5847  -17.4904   27.7534 C   0  0  0  0  0  0  0  0  0  0  0  0
    9.8767  -17.1225   29.0669 O   0  0  0  0  0  0  0  0  0  0  0  0
    8.6188  -18.2639   27.5494 O   0  0  0  0  0  0  0  0  0  0  0  0
  2  1  1  0
  3  2  1  0
  4  5  1  0
  4  3  1  0
  5  6  1  6
  7  5  1  0
  8  7  2  0
  9 10  1  0
 10 12  1  0
 10 11  2  0
 13 12  1  6
 13 14  1  0
 14  7  1  0
 15 13  1  0
 15 16  2  0
 17 15  1  0
 18 17  1  0
 18 19  1  6
 20 19  1  0
 20 21  2  0
 22 21  1  0
 23 22  1  0
 24 23  2  0
 25 24  1  0
 26 25  2  0
 26 27  1  0
 27 28  2  0
 28 23  1  0
 28 20  1  0
 29 18  1  0
 30 29  1  0
 31 29  2  0
M  END
$$$$
